data_PCOD8275145
_publ_section_title
;
Structure prediction by ZEFSAII (Michael W. Deem and Ramdas Pophale) SiO2 
 PCOD8275145
Probable space group: C M M M
;
_chemical_formula_sum "Si O2"
_cell_formula_units_Z 120
_cell_length_a 9.795522
_cell_length_b 36.220364
_cell_length_c 22.011465
_cell_angle_alpha 90.000000
_cell_angle_beta 90.000000
_cell_angle_gamma 90.000000
_cell_volume 7809.609945
_symmetry_space_group_name_H-M "C M M M"
_symmetry_group_IT_number 65
_symmetry_cell_setting 'orthorhombic'
loop_
_space_group_symop_operation_xyz
x,y,z
-x,-y,z
x,-y,-z
-x,y,-z
-x,-y,-z
x,y,-z
-x,y,z
x,-y,z
1/2+x,1/2+y,z
1/2-x,1/2-y,z
1/2+x,1/2-y,-z
1/2-x,1/2+y,-z
1/2-x,1/2-y,-z
1/2+x,1/2+y,-z
1/2-x,1/2+y,z
1/2+x,1/2-y,z
loop_
_atom_site_type_symbol
_atom_site_label
_atom_site_fract_x
_atom_site_fract_y
_atom_site_fract_z
Si Si1 0.341129 0.098827 0.676748
Si Si2 0.840360 0.632853 0.193839
Si Si3 0.148131 0.957800 0.280658
Si Si4 0.656575 0.217144 0.360525
Si Si5 0.838438 0.646225 0.567165
Si Si6 0.338129 0.500000 0.069217
Si Si7 0.657899 0.784982 0.219812
Si Si8 0.841660 0.068929 0.147554
O O1 0.500000 0.091080 0.672115
O O2 0.307333 0.123462 0.735929
O O3 0.265427 0.060118 0.679448
O O4 0.282546 0.116751 0.615309
O O5 0.805318 0.676630 0.184468
O O6 0.749207 0.606785 0.149188
O O7 0.000000 0.625621 0.179586
O O8 0.177461 0.952636 0.209948
O O9 0.000000 0.940387 0.296308
O O10 0.149507 0.000000 0.297960
O O11 0.500000 0.228182 0.369730
O O12 0.750000 0.250000 0.381987
O O13 0.703095 0.185376 0.405858
O O14 0.683512 0.206384 0.290595
O O15 0.774061 0.640448 0.500000
O O16 0.000000 0.643092 0.563625
O O17 0.500000 0.500000 0.076266
O O18 0.285794 0.538709 0.098830
O O19 0.287992 0.500000 0.000000
O O20 0.500000 0.774432 0.207949
O O21 0.750000 0.750000 0.197842
O O22 0.000000 0.079949 0.135076
#
# Coordination Sequence:
#
# PCOD8275145 Si02
#       8
#    16  16  16  16  16   8  16  16
#     4   9  16  27  42  60  79 100 133 171 209 253
#     4   9  16  27  42  60  85 114 142 179 221 257
#     4   9  16  27  43  62  85 107 129 165 208 246
#     4   9  16  27  40  55  76 102 133 167 204 250
#     4   9  16  27  43  58  74 100 133 169 210 255
#     4   9  16  28  47  69  97 131 158 177 200 234
#     4   9  16  26  40  58  83 112 141 174 216 265
#     4   9  16  27  43  65  90 116 149 180 203 236
#
# _framework density 15.365684
#
# number of rings (size 3 to 8) (size 9 to 14) (size 15 to 20)
#    0.000    3.000    2.000    0.000    0.000    1.067 
#    0.000    1.000    0.000    2.400    0.000    2.800 
#    0.000    0.533    0.000    1.200    0.000    1.867 
#
# Total GULP energy -743397.061926 kJ/mol
# GULP energy per Si atom -12389.951032 kJ/mol
# Density = 1.533071 g / cm^3
# Si number density = 15.365684 Si / 1000 Ang^3
#
#
#
# Elastic Constant Matrix: (Units=GPa)
#
#
# Indices 1 2 3 4 5 6 
#
# 1 52.3203 53.1554 28.6079 0.0000 0.0000 0.0000
# 2 53.1554 112.0499 49.7838 0.0000 0.0000 0.0000
# 3 28.6079 49.7838 62.9892 0.0000 0.0000 0.0000
# 4 0.0000 0.0000 0.0000 20.8712 0.0000 0.0000
# 5 0.0000 0.0000 0.0000 0.0000 10.7939 0.0000
# 6 0.0000 0.0000 0.0000 0.0000 0.0000 27.6376
#
#
#
# Elastic Compliance Matrix: (Units=1/GPa)
#
#
# Indices 1 2 3 4 5 6 
#
# 1 0.037744 -0.015857 -0.004609 0.000000 0.000000 0.000000
# 2 -0.015857 0.020417 -0.008935 0.000000 0.000000 0.000000
# 3 -0.004609 -0.008935 0.025031 0.000000 0.000000 0.000000
# 4 0.000000 0.000000 0.000000 0.047913 0.000000 0.000000
# 5 0.000000 0.000000 0.000000 0.000000 0.092645 0.000000
# 6 0.000000 0.000000 0.000000 0.000000 0.000000 0.036183
#
#
# Mechanical properties :
#
#
# Convention : Reuss Voigt Hill
#
# Bulk Modulus (GPa) = 41.00228 54.49485 47.74856
# Shear Modulus (GPa) = 15.29691 18.24804 16.77248
#
# Velocity S-wave (km/s) = 3.15862 3.44987 3.30745
# Velocity P-wave (km/s) = 6.32809 7.17015 6.76224
#
# Compressibility (1/GPa) = 0.02438889
#
# Stress axis : x y z
#
# Youngs Moduli (GPa) = 26.49446 48.97929 39.95116
#
# Poissons Ratio (x) = 0.77668 0.18414
# Poissons Ratio (y) = 0.42013 0.35695
# Poissons Ratio (z) = 0.12212 0.43761
#
# Static dielectric constant tensor:
#      x y z
#    x 2.885330 0.000000 0.000000 
#    y 0.000000 3.081120 0.000000 
#    z 0.000000 0.000000 2.788270 
# 
# 
# High freq. dielectric constant tensor:
#      x y z
#    x 1.572530 0.000000 0.000000 
#    y 0.000000 1.591340 0.000000 
#    z 0.000000 0.000000 1.548690 
# 
# From -- ./inp_files/61980.got.cif
#   From: 2010.03.12/outbox.cif.g09.slc.cpg/sg65_31_cif.got.tgz:61980.got - 2010.04.10 20:52:16.
