data_PCOD8275987
_publ_section_title
;
Structure prediction by ZEFSAII (Michael W. Deem and Ramdas Pophale) SiO2 
 PCOD8275987
Probable space group: C C C M
;
_chemical_formula_sum "Si O2"
_cell_formula_units_Z 80
_cell_length_a 10.085070
_cell_length_b 24.416553
_cell_length_c 18.032942
_cell_angle_alpha 90.000000
_cell_angle_beta 90.000000
_cell_angle_gamma 90.000000
_cell_volume 4440.479356
_symmetry_space_group_name_H-M "C C C M"
_symmetry_group_IT_number 66
_symmetry_cell_setting 'orthorhombic'
loop_
_space_group_symop_operation_xyz
x,y,z
-x,-y,z
x,-y,1/2-z
-x,y,1/2-z
-x,-y,-z
x,y,-z
-x,y,1/2+z
x,-y,1/2+z
1/2+x,1/2+y,z
1/2-x,1/2-y,z
1/2+x,1/2-y,1/2-z
1/2-x,1/2+y,1/2-z
1/2-x,1/2-y,-z
1/2+x,1/2+y,-z
1/2-x,1/2+y,1/2+z
1/2+x,1/2-y,1/2+z
loop_
_atom_site_type_symbol
_atom_site_label
_atom_site_fract_x
_atom_site_fract_y
_atom_site_fract_z
Si Si1 0.369834 0.526592 0.329881
Si Si2 0.387300 0.044115 0.913375
Si Si3 0.104166 0.153279 0.188798
Si Si4 0.906107 0.245741 0.581331
Si Si5 0.406456 0.845886 0.319535
O O1 0.500000 0.500000 0.365916
O O2 0.336623 0.500000 0.250000
O O3 0.248303 0.516666 0.385068
O O4 0.408881 0.589442 0.323448
O O5 0.413441 0.100164 0.870089
O O6 0.500000 0.000000 0.896387
O O7 0.376694 0.058019 0.000000
O O8 0.060969 0.186389 0.115436
O O9 0.257358 0.166538 0.209763
O O10 0.000000 0.173470 0.250000
O O11 0.973196 0.249754 0.500000
O O12 0.750000 0.250000 0.572676
O O13 0.960652 0.294672 0.633041
O O14 0.500000 0.855705 0.250000
#
# Coordination Sequence:
#
# PCOD8275987 Si02
#       5
#    16  16  16  16  16
#     4  10  20  35  57  81 109 147 184 230 274 324
#     4  10  23  37  54  82 114 148 185 226 272 330
#     4  10  19  33  55  80 107 135 181 224 266 325
#     4   9  18  34  55  79 108 139 177 226 274 322
#     4  10  21  34  58  83 105 144 181 227 272 321
#
# _framework density 18.016072000000001
#
# number of rings (size 3 to 8) (size 9 to 14) (size 15 to 20)
#    0.000    2.200    2.000    1.200    5.600    5.200 
#    0.000    0.000    0.000    3.600    0.000    0.000 
#    0.000    0.000    0.000    0.000    0.000    0.000 
#
# Total GULP energy -495868.455111 kJ/mol
# GULP energy per Si atom -12396.711378 kJ/mol
# Density = 1.797507 g / cm^3
# Si number density = 18.016072 Si / 1000 Ang^3
#
#
#
# Elastic Constant Matrix: (Units=GPa)
#
#
# Indices 1 2 3 4 5 6 
#
# 1 97.4841 40.3764 70.9310 0.0000 0.0000 0.0000
# 2 40.3764 125.2461 68.8063 0.0000 0.0000 0.0000
# 3 70.9310 68.8063 134.5616 0.0000 0.0000 0.0000
# 4 0.0000 0.0000 0.0000 27.5549 0.0000 0.0000
# 5 0.0000 0.0000 0.0000 0.0000 21.7772 0.0000
# 6 0.0000 0.0000 0.0000 0.0000 0.0000 11.3925
#
#
#
# Elastic Compliance Matrix: (Units=1/GPa)
#
#
# Indices 1 2 3 4 5 6 
#
# 1 0.016692 -0.000761 -0.008410 0.000000 0.000000 0.000000
# 2 -0.000761 0.011138 -0.005294 0.000000 0.000000 0.000000
# 3 -0.008410 -0.005294 0.014572 0.000000 0.000000 0.000000
# 4 0.000000 0.000000 0.000000 0.036291 0.000000 0.000000
# 5 0.000000 0.000000 0.000000 0.000000 0.045920 0.000000
# 6 0.000000 0.000000 0.000000 0.000000 0.000000 0.087777
#
#
# Mechanical properties :
#
#
# Convention : Reuss Voigt Hill
#
# Bulk Modulus (GPa) = 74.22782 79.72435 76.97609
# Shear Modulus (GPa) = 20.34083 23.95679 22.14881
#
# Velocity S-wave (km/s) = 3.36376 3.65052 3.51007
# Velocity P-wave (km/s) = 7.50845 7.88139 7.69718
#
# Compressibility (1/GPa) = 0.01347204
#
# Stress axis : x y z
#
# Youngs Moduli (GPa) = 59.90719 89.78231 68.62642
#
# Poissons Ratio (x) = 0.06834 0.57714
# Poissons Ratio (y) = 0.04560 0.36331
# Poissons Ratio (z) = 0.50381 0.47531
#
# Static dielectric constant tensor:
#      x y z
#    x 3.381420 0.000000 0.000000 
#    y 0.000000 3.448850 0.000000 
#    z 0.000000 0.000000 3.465900 
# 
# 
# High freq. dielectric constant tensor:
#      x y z
#    x 1.681460 0.000000 0.000000 
#    y 0.000000 1.714160 0.000000 
#    z 0.000000 0.000000 1.693940 
# 
# From -- ./inp_files/26380.got.cif
#   From: 2010.03.12/outbox.cif.g09.slc.cpg/sg66_14_cif.got.tgz:26380.got - 2010.04.10 21:57:39.
