data_PCOD8275342
_publ_section_title
;
Structure prediction by ZEFSAII (Michael W. Deem and Ramdas Pophale) SiO2 
 PCOD8275342
Probable space group: C C C M
;
_chemical_formula_sum "Si O2"
_cell_formula_units_Z 96
_cell_length_a 28.427379
_cell_length_b 26.681641
_cell_length_c 8.802832
_cell_angle_alpha 90.000000
_cell_angle_beta 90.000000
_cell_angle_gamma 90.000000
_cell_volume 6676.852306
_symmetry_space_group_name_H-M "C C C M"
_symmetry_group_IT_number 66
_symmetry_cell_setting 'orthorhombic'
loop_
_space_group_symop_operation_xyz
x,y,z
-x,-y,z
x,-y,1/2-z
-x,y,1/2-z
-x,-y,-z
x,y,-z
-x,y,1/2+z
x,-y,1/2+z
1/2+x,1/2+y,z
1/2-x,1/2-y,z
1/2+x,1/2-y,1/2-z
1/2-x,1/2+y,1/2-z
1/2-x,1/2-y,-z
1/2+x,1/2+y,-z
1/2-x,1/2+y,1/2+z
1/2+x,1/2-y,1/2+z
loop_
_atom_site_type_symbol
_atom_site_label
_atom_site_fract_x
_atom_site_fract_y
_atom_site_fract_z
Si Si1 0.048320 0.789881 0.819581
Si Si2 0.139562 0.756353 0.322459
Si Si3 0.798840 0.852627 0.178143
Si Si4 0.281398 0.799301 0.828604
Si Si5 0.952167 0.101451 0.319731
Si Si6 0.856135 0.947819 0.178586
O O1 0.090697 0.753737 0.768955
O O2 0.058010 0.844748 0.752462
O O3 0.000000 0.768082 0.750000
O O4 0.044560 0.792546 0.000000
O O5 0.129264 0.751774 0.500000
O O6 0.165044 0.808392 0.280845
O O7 0.171542 0.709570 0.269488
O O8 0.748772 0.845137 0.260430
O O9 0.821322 0.904368 0.237880
O O10 0.789167 0.853459 0.000000
O O11 0.250000 0.750000 0.819951
O O12 0.295934 0.812375 0.000000
O O13 0.956798 0.108132 0.500000
O O14 0.909698 0.064746 0.274628
O O15 0.000000 0.078260 0.250000
O O16 0.840201 0.000000 0.250000
O O17 0.851828 0.952042 0.000000
#
# Coordination Sequence:
#
# PCOD8275342 Si02
#       6
#    16  16  16  16  16  16
#     4  11  20  29  43  62  83 108 138 171 208 249
#     4  10  17  29  46  62  83 108 134 164 204 247
#     4   9  17  31  45  58  80 107 132 165 208 253
#     4   9  17  27  41  65  86 101 129 163 200 244
#     4  10  19  33  46  59  76 100 134 174 217 262
#     4  10  21  34  46  60  79 103 137 174 216 261
#
# _framework density 14.378033
#
# number of rings (size 3 to 8) (size 9 to 14) (size 15 to 20)
#    0.000    2.167    1.667    4.000    0.000    5.000 
#    0.000    1.667    0.000    0.000    0.000    0.000 
#    0.000    0.000    0.000    0.000    0.000    0.833 
#
# Total GULP energy -595197.340614 kJ/mol
# GULP energy per Si atom -12399.944596 kJ/mol
# Density = 1.434531 g / cm^3
# Si number density = 14.378033 Si / 1000 Ang^3
#
#
#
# Elastic Constant Matrix: (Units=GPa)
#
#
# Indices 1 2 3 4 5 6 
#
# 1 92.2864 51.8518 43.1739 0.0000 0.0000 0.0000
# 2 51.8518 58.4333 25.1995 0.0000 0.0000 0.0000
# 3 43.1739 25.1995 74.9837 0.0000 0.0000 0.0000
# 4 0.0000 0.0000 0.0000 19.1163 0.0000 0.0000
# 5 0.0000 0.0000 0.0000 0.0000 27.3316 0.0000
# 6 0.0000 0.0000 0.0000 0.0000 0.0000 20.8924
#
#
#
# Elastic Compliance Matrix: (Units=1/GPa)
#
#
# Indices 1 2 3 4 5 6 
#
# 1 0.025304 -0.018912 -0.008214 0.000000 0.000000 0.000000
# 2 -0.018912 0.034149 -0.000587 0.000000 0.000000 0.000000
# 3 -0.008214 -0.000587 0.018263 0.000000 0.000000 0.000000
# 4 0.000000 0.000000 0.000000 0.052311 0.000000 0.000000
# 5 0.000000 0.000000 0.000000 0.000000 0.036588 0.000000
# 6 0.000000 0.000000 0.000000 0.000000 0.000000 0.047864
#
#
# Mechanical properties :
#
#
# Convention : Reuss Voigt Hill
#
# Bulk Modulus (GPa) = 44.86363 51.79486 48.32925
# Shear Modulus (GPa) = 18.02871 20.49994 19.26433
#
# Velocity S-wave (km/s) = 3.54490 3.78005 3.66436
# Velocity P-wave (km/s) = 6.93006 7.42654 7.18259
#
# Compressibility (1/GPa) = 0.02228977
#
# Stress axis : x y z
#
# Youngs Moduli (GPa) = 39.51884 29.28383 54.75560
#
# Poissons Ratio (x) = 0.55381 0.44976
# Poissons Ratio (y) = 0.74738 0.03215
# Poissons Ratio (z) = 0.32461 0.01719
#
# Static dielectric constant tensor:
#      x y z
#    x 4.071510 0.000000 0.000000 
#    y 0.000000 2.565140 0.000000 
#    z 0.000000 0.000000 2.868020 
# 
# 
# High freq. dielectric constant tensor:
#      x y z
#    x 1.545330 0.000000 0.000000 
#    y 0.000000 1.494570 0.000000 
#    z 0.000000 0.000000 1.563500 
# 
# From -- ./inp_files/9289.got.cif
#   From: 2010.03.12/outbox.cif.g09.slc.cpg/sg66_5_cif.got.tgz:9289.got - 2010.04.10 21:57:39.
