data_PCOD8275599
_publ_section_title
;
Structure prediction by ZEFSAII (Michael W. Deem and Ramdas Pophale) SiO2 
 PCOD8275599
Probable space group: C C C M
;
_chemical_formula_sum "Si O2"
_cell_formula_units_Z 120
_cell_length_a 19.198182
_cell_length_b 15.799155
_cell_length_c 19.413660
_cell_angle_alpha 90.000000
_cell_angle_beta 90.000000
_cell_angle_gamma 90.000000
_cell_volume 5888.455314
_symmetry_space_group_name_H-M "C C C M"
_symmetry_group_IT_number 66
_symmetry_cell_setting 'orthorhombic'
loop_
_space_group_symop_operation_xyz
x,y,z
-x,-y,z
x,-y,1/2-z
-x,y,1/2-z
-x,-y,-z
x,y,-z
-x,y,1/2+z
x,-y,1/2+z
1/2+x,1/2+y,z
1/2-x,1/2-y,z
1/2+x,1/2-y,1/2-z
1/2-x,1/2+y,1/2-z
1/2-x,1/2-y,-z
1/2+x,1/2+y,-z
1/2-x,1/2+y,1/2+z
1/2+x,1/2-y,1/2+z
loop_
_atom_site_type_symbol
_atom_site_label
_atom_site_fract_x
_atom_site_fract_y
_atom_site_fract_z
Si Si1 0.654819 0.955965 0.678910
Si Si2 0.973170 0.656519 0.671790
Si Si3 0.857894 0.943658 0.073616
Si Si4 0.186377 0.064179 0.689555
Si Si5 0.449187 0.343516 0.314123
Si Si6 0.095000 0.404885 0.083149
Si Si7 0.326585 0.262226 0.918235
Si Si8 0.000000 0.000000 0.900128
O O1 0.604494 0.877957 0.666004
O O2 0.731583 0.914451 0.687154
O O3 0.633090 0.000000 0.750000
O O4 0.644671 0.022670 0.615655
O O5 0.965423 0.754528 0.647882
O O6 0.000000 0.648758 0.750000
O O7 0.019062 0.599346 0.619052
O O8 0.853640 0.852053 0.111176
O O9 0.938410 0.960995 0.055189
O O10 0.824752 0.017366 0.117468
O O11 0.817718 0.940831 0.000000
O O12 0.134911 0.145530 0.700163
O O13 0.167377 0.000000 0.750000
O O14 0.500000 0.346293 0.250000
O O15 0.466955 0.425629 0.356422
O O16 0.126259 0.314789 0.106744
O O17 0.089492 0.416710 0.000000
O O18 0.250000 0.250000 0.887523
O O19 0.326337 0.263785 0.000000
#
# Coordination Sequence:
#
# PCOD8275599 Si02
#       8
#    16  16  16  16  16  16  16   8
#     4  11  23  41  61  85 119 161 202 259 313 364
#     4  11  23  40  63  86 119 160 203 255 317 362
#     4  10  19  33  55  83 117 157 194 239 295 354
#     4  10  22  38  58  87 123 160 207 250 305 375
#     4  10  20  36  61  90 122 162 201 251 307 369
#     4  11  23  39  64  93 118 159 212 258 309 372
#     4   9  18  33  54  85 122 150 183 240 301 355
#     4  10  18  32  54  84 119 152 193 242 289 356
#
# _framework density 20.378858000000001
#
# number of rings (size 3 to 8) (size 9 to 14) (size 15 to 20)
#    0.000    1.733    1.333    4.000    0.000    4.267 
#    0.000    2.667    0.000    0.000    0.000    5.600 
#    0.000    0.000    0.000    0.000    0.000    0.000 
#
# Total GULP energy -743393.562210 kJ/mol
# GULP energy per Si atom -12389.892704 kJ/mol
# Density = 2.033248 g / cm^3
# Si number density = 20.378858 Si / 1000 Ang^3
#
#
#
# Elastic Constant Matrix: (Units=GPa)
#
#
# Indices 1 2 3 4 5 6 
#
# 1 113.4346 36.9768 20.3826 0.0000 0.0000 0.0000
# 2 36.9768 89.7479 21.6492 0.0000 0.0000 0.0000
# 3 20.3826 21.6492 79.3087 0.0000 0.0000 0.0000
# 4 0.0000 0.0000 0.0000 21.9906 0.0000 0.0000
# 5 0.0000 0.0000 0.0000 0.0000 20.0928 0.0000
# 6 0.0000 0.0000 0.0000 0.0000 0.0000 32.7455
#
#
#
# Elastic Compliance Matrix: (Units=1/GPa)
#
#
# Indices 1 2 3 4 5 6 
#
# 1 0.010371 -0.003886 -0.001605 0.000000 0.000000 0.000000
# 2 -0.003886 0.013384 -0.002655 0.000000 0.000000 0.000000
# 3 -0.001605 -0.002655 0.013746 0.000000 0.000000 0.000000
# 4 0.000000 0.000000 0.000000 0.045474 0.000000 0.000000
# 5 0.000000 0.000000 0.000000 0.000000 0.049769 0.000000
# 6 0.000000 0.000000 0.000000 0.000000 0.000000 0.030539
#
#
# Mechanical properties :
#
#
# Convention : Reuss Voigt Hill
#
# Bulk Modulus (GPa) = 47.14712 48.94536 48.04624
# Shear Modulus (GPa) = 26.78925 28.53129 27.66027
#
# Velocity S-wave (km/s) = 3.62962 3.74577 3.68816
# Velocity P-wave (km/s) = 6.38366 6.54046 6.46253
#
# Compressibility (1/GPa) = 0.02121021
#
# Stress axis : x y z
#
# Youngs Moduli (GPa) = 96.42633 74.71810 72.74839
#
# Poissons Ratio (x) = 0.29033 0.11673
# Poissons Ratio (y) = 0.37468 0.19313
# Poissons Ratio (z) = 0.15472 0.19836
#
# Static dielectric constant tensor:
#      x y z
#    x 4.059430 0.000000 0.000000 
#    y 0.000000 3.661340 0.000000 
#    z 0.000000 0.000000 3.571540 
# 
# 
# High freq. dielectric constant tensor:
#      x y z
#    x 1.807780 0.000000 0.000000 
#    y 0.000000 1.792840 0.000000 
#    z 0.000000 0.000000 1.781640 
# 
# From -- ./inp_files/51990.got.cif
#   From: 2010.03.12/outbox.cif.g09.slc.cpg/sg66_26_cif.got.tgz:51990.got - 2010.04.10 21:57:39.
