data_PCOD8275125
_publ_section_title
;
Structure prediction by ZEFSAII (Michael W. Deem and Ramdas Pophale) SiO2 
 PCOD8275125
Probable space group: C M M M
;
_chemical_formula_sum "Si O2"
_cell_formula_units_Z 72
_cell_length_a 20.083625
_cell_length_b 8.046103
_cell_length_c 24.858464
_cell_angle_alpha 90.000000
_cell_angle_beta 90.000000
_cell_angle_gamma 90.000000
_cell_volume 4017.001386
_symmetry_space_group_name_H-M "C M M M"
_symmetry_group_IT_number 65
_symmetry_cell_setting 'orthorhombic'
loop_
_space_group_symop_operation_xyz
x,y,z
-x,-y,z
x,-y,-z
-x,y,-z
-x,-y,-z
x,y,-z
-x,y,z
x,-y,z
1/2+x,1/2+y,z
1/2-x,1/2-y,z
1/2+x,1/2-y,-z
1/2-x,1/2+y,-z
1/2-x,1/2-y,-z
1/2+x,1/2+y,-z
1/2-x,1/2+y,z
1/2+x,1/2-y,z
loop_
_atom_site_type_symbol
_atom_site_label
_atom_site_fract_x
_atom_site_fract_y
_atom_site_fract_z
Si Si1 0.079261 0.183930 0.127277
Si Si2 0.177677 0.196642 0.560205
Si Si3 0.420915 0.813008 0.239498
Si Si4 0.574403 0.304419 0.646236
Si Si5 0.920586 0.500000 0.060939
O O1 0.105644 0.209510 0.188287
O O2 0.107223 0.332265 0.089525
O O3 0.000000 0.192734 0.126456
O O4 0.102952 0.000000 0.107474
O O5 0.165512 0.267839 0.500000
O O6 0.250000 0.250000 0.581518
O O7 0.121948 0.272275 0.600136
O O8 0.172940 0.000000 0.559776
O O9 0.500000 0.805852 0.240161
O O10 0.394292 0.737981 0.295486
O O11 0.394821 0.000000 0.233241
O O12 0.500000 0.227857 0.639715
O O13 0.570553 0.500000 0.639931
O O14 0.000000 0.500000 0.063190
O O15 0.894320 0.500000 0.000000
#
# Coordination Sequence:
#
# PCOD8275125 Si02
#       5
#    16  16  16  16   8
#     4   9  15  23  35  49  69 101 138 178 224 269
#     4   9  18  32  48  64  85 116 150 183 221 273
#     4   9  15  24  38  56  79 104 133 174 223 271
#     4   9  17  28  43  65  88 109 141 187 232 274
#     4   9  16  24  32  46  70 100 141 187 221 259
#
# _framework density 17.923815999999999
#
# number of rings (size 3 to 8) (size 9 to 14) (size 15 to 20)
#    0.000    3.000    1.111    0.667    0.000    4.444 
#    0.000    4.444    0.000    0.000    0.000    6.222 
#    0.000    0.000    0.000    0.000    0.000    1.111 
#
# Total GULP energy -446122.195980 kJ/mol
# GULP energy per Si atom -12392.283222 kJ/mol
# Density = 1.788302 g / cm^3
# Si number density = 17.923816 Si / 1000 Ang^3
#
#
#
# Elastic Constant Matrix: (Units=GPa)
#
#
# Indices 1 2 3 4 5 6 
#
# 1 38.0522 18.8353 44.7452 0.0000 0.0000 0.0000
# 2 18.8353 89.6569 52.6721 0.0000 0.0000 0.0000
# 3 44.7452 52.6721 150.8704 0.0000 0.0000 0.0000
# 4 0.0000 0.0000 0.0000 27.4405 0.0000 0.0000
# 5 0.0000 0.0000 0.0000 0.0000 3.1113 0.0000
# 6 0.0000 0.0000 0.0000 0.0000 0.0000 10.5372
#
#
#
# Elastic Compliance Matrix: (Units=1/GPa)
#
#
# Indices 1 2 3 4 5 6 
#
# 1 0.040590 -0.001830 -0.011399 0.000000 0.000000 0.000000
# 2 -0.001830 0.014114 -0.004385 0.000000 0.000000 0.000000
# 3 -0.011399 -0.004385 0.011540 0.000000 0.000000 0.000000
# 4 0.000000 0.000000 0.000000 0.036442 0.000000 0.000000
# 5 0.000000 0.000000 0.000000 0.000000 0.321405 0.000000
# 6 0.000000 0.000000 0.000000 0.000000 0.000000 0.094902
#
#
# Mechanical properties :
#
#
# Convention : Reuss Voigt Hill
#
# Bulk Modulus (GPa) = 32.24214 56.78718 44.51466
# Shear Modulus (GPa) = 8.85647 19.03961 13.94804
#
# Velocity S-wave (km/s) = 2.22529 3.26276 2.79262
# Velocity P-wave (km/s) = 4.96286 6.77830 5.94035
#
# Compressibility (1/GPa) = 0.03101531
#
# Stress axis : x y z
#
# Youngs Moduli (GPa) = 24.63675 70.85112 86.65700
#
# Poissons Ratio (x) = 0.12968 0.98781
# Poissons Ratio (y) = 0.04509 0.37996
# Poissons Ratio (z) = 0.28084 0.31066
#
# Static dielectric constant tensor:
#      x y z
#    x 2.826010 0.000000 0.000000 
#    y 0.000000 3.381370 0.000000 
#    z 0.000000 0.000000 3.635220 
# 
# 
# High freq. dielectric constant tensor:
#      x y z
#    x 1.610570 0.000000 0.000000 
#    y 0.000000 1.697530 0.000000 
#    z 0.000000 0.000000 1.701950 
# 
# From -- ./inp_files/65002.got.cif
#   From: 2010.03.12/outbox.cif.g09.slc.cpg/sg65_33_cif.got.tgz:65002.got - 2010.04.10 20:52:16.
