data_PCOD8275060
_publ_section_title
;
Structure prediction by ZEFSAII (Michael W. Deem and Ramdas Pophale) SiO2 
 PCOD8275060
Probable space group: C M M M
;
_chemical_formula_sum "Si O2"
_cell_formula_units_Z 104
_cell_length_a 19.756329
_cell_length_b 9.360196
_cell_length_c 33.079609
_cell_angle_alpha 90.000000
_cell_angle_beta 90.000000
_cell_angle_gamma 90.000000
_cell_volume 6117.184229
_symmetry_space_group_name_H-M "C M M M"
_symmetry_group_IT_number 65
_symmetry_cell_setting 'orthorhombic'
loop_
_space_group_symop_operation_xyz
x,y,z
-x,-y,z
x,-y,-z
-x,y,-z
-x,-y,-z
x,y,-z
-x,y,z
x,-y,z
1/2+x,1/2+y,z
1/2-x,1/2-y,z
1/2+x,1/2-y,-z
1/2-x,1/2+y,-z
1/2-x,1/2-y,-z
1/2+x,1/2+y,-z
1/2-x,1/2+y,z
1/2+x,1/2-y,z
loop_
_atom_site_type_symbol
_atom_site_label
_atom_site_fract_x
_atom_site_fract_y
_atom_site_fract_z
Si Si1 0.183686 0.166915 0.186358
Si Si2 0.080764 0.162639 0.500000
Si Si3 0.577099 0.667325 0.120255
Si Si4 0.184251 0.165759 0.721686
Si Si5 0.919584 0.660871 0.044316
Si Si6 0.080480 0.338062 0.576791
Si Si7 0.077937 0.834539 0.654637
O O1 0.250000 0.250000 0.171555
O O2 0.120600 0.214912 0.158945
O O3 0.165378 0.208035 0.232429
O O4 0.198714 0.000000 0.181823
O O5 0.108734 0.246846 0.539111
O O6 0.000000 0.160414 0.500000
O O7 0.108507 0.000000 0.500000
O O8 0.500000 0.716922 0.128378
O O9 0.580997 0.500000 0.112849
O O10 0.608568 0.739465 0.080060
O O11 0.250000 0.250000 0.706419
O O12 0.120450 0.207154 0.694157
O O13 0.201918 0.000000 0.718140
O O14 0.894451 0.500000 0.052381
O O15 0.000000 0.667352 0.044395
O O16 0.893358 0.712667 0.000000
O O17 0.108976 0.500000 0.575120
O O18 0.104878 0.261541 0.617745
O O19 0.000000 0.340154 0.575009
O O20 0.000000 0.800945 0.664749
O O21 0.087349 0.000000 0.642513
#
# Coordination Sequence:
#
# PCOD8275060 Si02
#       7
#    16   8  16  16  16  16  16
#     4   9  18  32  48  66  89 118 150 183 222 267
#     4   9  15  23  37  57  84 119 154 185 218 261
#     4   9  17  28  44  68  94 117 145 184 226 265
#     4   9  18  32  49  67  88 117 152 187 222 265
#     4   8  14  25  41  62  89 119 148 178 215 261
#     4   9  16  25  38  59  88 119 149 183 224 266
#     4   9  17  29  45  66  91 118 149 185 225 266
#
# _framework density 17.001287000000001
#
# number of rings (size 3 to 8) (size 9 to 14) (size 15 to 20)
#    0.000    3.154    0.000    1.154    0.000    4.923 
#    0.000    4.615    0.000    0.462    0.000    9.154 
#    0.000    0.000    0.000    0.000    0.000    0.000 
#
# Total GULP energy -644652.824488 kJ/mol
# GULP energy per Si atom -12397.169702 kJ/mol
# Density = 1.696259 g / cm^3
# Si number density = 17.001287 Si / 1000 Ang^3
#
#
#
# Elastic Constant Matrix: (Units=GPa)
#
#
# Indices 1 2 3 4 5 6 
#
# 1 60.1779 36.6519 60.6149 0.0000 0.0000 0.0000
# 2 36.6519 77.0649 65.4865 0.0000 0.0000 0.0000
# 3 60.6149 65.4865 139.7044 0.0000 0.0000 0.0000
# 4 0.0000 0.0000 0.0000 29.4276 0.0000 0.0000
# 5 0.0000 0.0000 0.0000 0.0000 4.9913 0.0000
# 6 0.0000 0.0000 0.0000 0.0000 0.0000 19.2557
#
#
#
# Elastic Compliance Matrix: (Units=1/GPa)
#
#
# Indices 1 2 3 4 5 6 
#
# 1 0.030850 -0.005481 -0.010816 0.000000 0.000000 0.000000
# 2 -0.005481 0.022541 -0.008188 0.000000 0.000000 0.000000
# 3 -0.010816 -0.008188 0.015689 0.000000 0.000000 0.000000
# 4 0.000000 0.000000 0.000000 0.033982 0.000000 0.000000
# 5 0.000000 0.000000 0.000000 0.000000 0.200348 0.000000
# 6 0.000000 0.000000 0.000000 0.000000 0.000000 0.051933
#
#
# Mechanical properties :
#
#
# Convention : Reuss Voigt Hill
#
# Bulk Modulus (GPa) = 49.72723 66.93929 58.33326
# Shear Modulus (GPa) = 12.16500 18.34783 15.25642
#
# Velocity S-wave (km/s) = 2.67785 3.28869 2.99886
# Velocity P-wave (km/s) = 6.23488 7.34024 6.81003
#
# Compressibility (1/GPa) = 0.02010971
#
# Stress axis : x y z
#
# Youngs Moduli (GPa) = 32.41441 44.36458 63.73999
#
# Poissons Ratio (x) = 0.24318 0.68941
# Poissons Ratio (y) = 0.17768 0.52188
# Poissons Ratio (z) = 0.35059 0.36324
#
# Static dielectric constant tensor:
#      x y z
#    x 2.822150 0.000000 0.000000 
#    y 0.000000 3.259760 0.000000 
#    z 0.000000 0.000000 3.454790 
# 
# 
# High freq. dielectric constant tensor:
#      x y z
#    x 1.605300 0.000000 0.000000 
#    y 0.000000 1.657090 0.000000 
#    z 0.000000 0.000000 1.666660 
# 
# From -- ./inp_files/75769.got.cif
#   From: 2010.03.12/outbox.cif.g09.slc.cpg/sg65_38_cif.got.tgz:75769.got - 2010.04.10 20:52:16.
