data_PCOD8275045
_publ_section_title
;
Structure prediction by ZEFSAII (Michael W. Deem and Ramdas Pophale) SiO2 
 PCOD8275045
Probable space group: C M M M
;
_chemical_formula_sum "Si O2"
_cell_formula_units_Z 104
_cell_length_a 36.007202
_cell_length_b 9.795008
_cell_length_c 18.632983
_cell_angle_alpha 90.000000
_cell_angle_beta 90.000000
_cell_angle_gamma 90.000000
_cell_volume 6571.682270
_symmetry_space_group_name_H-M "C M M M"
_symmetry_group_IT_number 65
_symmetry_cell_setting 'orthorhombic'
loop_
_space_group_symop_operation_xyz
x,y,z
-x,-y,z
x,-y,-z
-x,y,-z
-x,-y,-z
x,y,-z
-x,y,z
x,-y,z
1/2+x,1/2+y,z
1/2-x,1/2-y,z
1/2+x,1/2-y,-z
1/2-x,1/2+y,-z
1/2-x,1/2-y,-z
1/2+x,1/2+y,-z
1/2-x,1/2+y,z
1/2+x,1/2-y,z
loop_
_atom_site_type_symbol
_atom_site_label
_atom_site_fract_x
_atom_site_fract_y
_atom_site_fract_z
Si Si1 0.357953 0.849851 0.700931
Si Si2 0.671328 0.837723 0.920760
Si Si3 0.458303 0.337752 0.500000
Si Si4 0.957407 0.843298 0.214251
Si Si5 0.085387 0.157758 0.639272
Si Si6 0.098693 0.651786 0.848974
Si Si7 0.714697 0.839160 0.217067
O O1 0.376047 0.740776 0.646737
O O2 0.381787 0.856017 0.772574
O O3 0.315998 0.808634 0.721928
O O4 0.358198 0.000000 0.664607
O O5 0.629156 0.788290 0.904707
O O6 0.700224 0.785431 0.860795
O O7 0.670595 0.000000 0.916249
O O8 0.683351 0.785564 0.000000
O O9 0.460858 0.500000 0.500000
O O10 0.500000 0.276231 0.500000
O O11 0.436509 0.286220 0.570165
O O12 0.941353 0.818521 0.293302
O O13 0.936345 0.752902 0.154655
O O14 0.000000 0.797649 0.215357
O O15 0.952791 0.000000 0.191286
O O16 0.096380 0.000000 0.630547
O O17 0.085030 0.500000 0.871543
O O18 0.750000 0.750000 0.238623
O O19 0.724477 0.000000 0.214475
#
# Coordination Sequence:
#
# PCOD8275045 Si02
#       7
#    16  16   8  16  16  16  16
#     4   8  15  28  42  57  81 110 137 167 204 240
#     4   8  14  26  43  60  80 108 137 163 197 243
#     4   9  16  26  41  63  92 119 140 167 204 243
#     4   9  16  25  38  57  80 104 131 166 207 244
#     4   9  16  26  42  62  82 109 143 170 194 235
#     4   8  14  25  41  58  74  98 135 172 201 234
#     4   9  17  28  43  64  88 111 134 164 204 245
#
# _framework density 15.825476
#
# number of rings (size 3 to 8) (size 9 to 14) (size 15 to 20)
#    0.000    3.462    0.000    2.308    0.000    3.077 
#    0.000    2.692    0.000    3.692    0.000    3.769 
#    0.000    0.000    0.000    0.000    0.000    0.000 
#
# Total GULP energy -644456.443105 kJ/mol
# GULP energy per Si atom -12393.393137 kJ/mol
# Density = 1.578946 g / cm^3
# Si number density = 15.825476 Si / 1000 Ang^3
#
#
#
# Elastic Constant Matrix: (Units=GPa)
#
#
# Indices 1 2 3 4 5 6 
#
# 1 123.7924 58.2330 35.2782 0.0000 0.0000 0.0000
# 2 58.2330 57.0769 21.9248 0.0000 0.0000 0.0000
# 3 35.2782 21.9248 44.1180 0.0000 0.0000 0.0000
# 4 0.0000 0.0000 0.0000 13.9523 0.0000 0.0000
# 5 0.0000 0.0000 0.0000 0.0000 20.1283 0.0000
# 6 0.0000 0.0000 0.0000 0.0000 0.0000 28.4695
#
#
#
# Elastic Compliance Matrix: (Units=1/GPa)
#
#
# Indices 1 2 3 4 5 6 
#
# 1 0.016747 -0.014760 -0.006057 0.000000 0.000000 0.000000
# 2 -0.014760 0.034662 -0.005423 0.000000 0.000000 0.000000
# 3 -0.006057 -0.005423 0.030205 0.000000 0.000000 0.000000
# 4 0.000000 0.000000 0.000000 0.071673 0.000000 0.000000
# 5 0.000000 0.000000 0.000000 0.000000 0.049681 0.000000
# 6 0.000000 0.000000 0.000000 0.000000 0.000000 0.035125
#
#
# Mechanical properties :
#
#
# Convention : Reuss Voigt Hill
#
# Bulk Modulus (GPa) = 34.32324 50.65104 42.48714
# Shear Modulus (GPa) = 16.65086 19.81343 18.23215
#
# Velocity S-wave (km/s) = 3.24721 3.54219 3.39791
# Velocity P-wave (km/s) = 5.98288 6.98606 6.50384
#
# Compressibility (1/GPa) = 0.02913477
#
# Stress axis : x y z
#
# Youngs Moduli (GPa) = 59.71127 28.84973 33.10754
#
# Poissons Ratio (x) = 0.42582 0.20052
# Poissons Ratio (y) = 0.88134 0.17955
# Poissons Ratio (z) = 0.36165 0.15646
#
# Static dielectric constant tensor:
#      x y z
#    x 3.050860 0.000000 0.000000 
#    y 0.000000 2.987630 0.000000 
#    z 0.000000 0.000000 2.929600 
# 
# 
# High freq. dielectric constant tensor:
#      x y z
#    x 1.602720 0.000000 0.000000 
#    y 0.000000 1.587050 0.000000 
#    z 0.000000 0.000000 1.577360 
# 
# From -- ./inp_files/58220.got.cif
#   From: 2010.03.12/outbox.cif.g09.slc.cpg/sg65_30_cif.got.tgz:58220.got - 2010.04.10 20:52:16.
