data_PCOD8275574
_publ_section_title
;
Structure prediction by ZEFSAII (Michael W. Deem and Ramdas Pophale) SiO2 
 PCOD8275574
Probable space group: C C C M
;
_chemical_formula_sum "Si O2"
_cell_formula_units_Z 112
_cell_length_a 23.665190
_cell_length_b 13.741649
_cell_length_c 17.185938
_cell_angle_alpha 90.000000
_cell_angle_beta 90.000000
_cell_angle_gamma 90.000000
_cell_volume 5588.845289
_symmetry_space_group_name_H-M "C C C M"
_symmetry_group_IT_number 66
_symmetry_cell_setting 'orthorhombic'
loop_
_space_group_symop_operation_xyz
x,y,z
-x,-y,z
x,-y,1/2-z
-x,y,1/2-z
-x,-y,-z
x,y,-z
-x,y,1/2+z
x,-y,1/2+z
1/2+x,1/2+y,z
1/2-x,1/2-y,z
1/2+x,1/2-y,1/2-z
1/2-x,1/2+y,1/2-z
1/2-x,1/2-y,-z
1/2+x,1/2+y,-z
1/2-x,1/2+y,1/2+z
1/2+x,1/2-y,1/2+z
loop_
_atom_site_type_symbol
_atom_site_label
_atom_site_fract_x
_atom_site_fract_y
_atom_site_fract_z
Si Si1 0.782226 0.652820 0.671374
Si Si2 0.482510 0.863593 0.910858
Si Si3 0.184984 0.941180 0.091092
Si Si4 0.878285 0.750353 0.590573
Si Si5 0.420636 0.036988 0.161494
Si Si6 0.810319 0.152573 0.412168
Si Si7 0.191126 0.350961 0.847437
O O1 0.750000 0.750000 0.647416
O O2 0.746004 0.566266 0.633375
O O3 0.845335 0.664842 0.637489
O O4 0.784032 0.633407 0.762258
O O5 0.445209 0.766353 0.893447
O O6 0.535864 0.872048 0.852102
O O7 0.440215 0.954686 0.898537
O O8 0.503699 0.863025 0.000000
O O9 0.140105 0.858714 0.118775
O O10 0.160926 0.049048 0.111322
O O11 0.196622 0.931783 0.000000
O O12 0.864171 0.736549 0.500000
O O13 0.357801 0.070422 0.138632
O O14 0.424139 0.000000 0.250000
O O15 0.826763 0.180192 0.500000
O O16 0.832159 0.239409 0.356109
O O17 0.742174 0.137950 0.408207
#
# Coordination Sequence:
#
# PCOD8275574 Si02
#       7
#    16  16  16  16  16  16  16
#     4  10  18  32  49  77 111 140 178 224 271 331
#     4  10  21  37  56  81 108 142 187 229 279 337
#     4   9  19  34  54  79 110 148 184 227 280 333
#     4   9  18  33  53  79 109 142 180 225 279 334
#     4  11  23  36  55  79 111 145 182 231 286 335
#     4  10  22  38  54  76 110 152 194 231 275 338
#     4  11  22  36  52  78 108 147 191 229 282 330
#
# _framework density 20.039916999999999
#
# number of rings (size 3 to 8) (size 9 to 14) (size 15 to 20)
#    0.000    2.000    1.429    3.857    4.000    4.000 
#    0.000    0.000    0.000    0.857    0.000    4.000 
#    0.000    7.143    0.000    0.429    0.000    0.000 
#
# Total GULP energy -694061.088528 kJ/mol
# GULP energy per Si atom -12393.948009 kJ/mol
# Density = 1.999431 g / cm^3
# Si number density = 20.039917 Si / 1000 Ang^3
#
#
#
# Elastic Constant Matrix: (Units=GPa)
#
#
# Indices 1 2 3 4 5 6 
#
# 1 59.8967 7.6890 12.9355 0.0000 0.0000 0.0000
# 2 7.6890 67.9094 16.5122 0.0000 0.0000 0.0000
# 3 12.9355 16.5122 55.1742 0.0000 0.0000 0.0000
# 4 0.0000 0.0000 0.0000 19.3744 0.0000 0.0000
# 5 0.0000 0.0000 0.0000 0.0000 18.2882 0.0000
# 6 0.0000 0.0000 0.0000 0.0000 0.0000 31.4188
#
#
#
# Elastic Compliance Matrix: (Units=1/GPa)
#
#
# Indices 1 2 3 4 5 6 
#
# 1 0.017658 -0.001071 -0.003819 0.000000 0.000000 0.000000
# 2 -0.001071 0.015946 -0.004521 0.000000 0.000000 0.000000
# 3 -0.003819 -0.004521 0.020373 0.000000 0.000000 0.000000
# 4 0.000000 0.000000 0.000000 0.051614 0.000000 0.000000
# 5 0.000000 0.000000 0.000000 0.000000 0.054680 0.000000
# 6 0.000000 0.000000 0.000000 0.000000 0.000000 0.031828
#
#
# Mechanical properties :
#
#
# Convention : Reuss Voigt Hill
#
# Bulk Modulus (GPa) = 28.44610 28.58375 28.51493
# Shear Modulus (GPa) = 22.45780 23.53919 22.99850
#
# Velocity S-wave (km/s) = 3.35125 3.43098 3.39135
# Velocity P-wave (km/s) = 5.40370 5.47630 5.44013
#
# Compressibility (1/GPa) = 0.03515421
#
# Stress axis : x y z
#
# Youngs Moduli (GPa) = 56.63251 62.71146 49.08462
#
# Poissons Ratio (x) = 0.06714 0.18748
# Poissons Ratio (y) = 0.06063 0.22192
# Poissons Ratio (z) = 0.21630 0.28353
#
# Static dielectric constant tensor:
#      x y z
#    x 3.635450 0.000000 0.000000 
#    y 0.000000 3.960060 0.000000 
#    z 0.000000 0.000000 3.479380 
# 
# 
# High freq. dielectric constant tensor:
#      x y z
#    x 1.749260 0.000000 0.000000 
#    y 0.000000 1.780030 0.000000 
#    z 0.000000 0.000000 1.779140 
# 
# From -- ./inp_files/32466.got.cif
#   From: 2010.03.12/outbox.cif.g09.slc.cpg/sg66_17_cif.got.tgz:32466.got - 2010.04.10 21:57:39.
