data_PCOD8275178
_publ_section_title
;
Structure prediction by ZEFSAII (Michael W. Deem and Ramdas Pophale) SiO2 
 PCOD8275178
Probable space group: C M M M
;
_chemical_formula_sum "Si O2"
_cell_formula_units_Z 88
_cell_length_a 22.970637
_cell_length_b 17.445165
_cell_length_c 13.717894
_cell_angle_alpha 90.000000
_cell_angle_beta 90.000000
_cell_angle_gamma 90.000000
_cell_volume 5497.124372
_symmetry_space_group_name_H-M "C M M M"
_symmetry_group_IT_number 65
_symmetry_cell_setting 'orthorhombic'
loop_
_space_group_symop_operation_xyz
x,y,z
-x,-y,z
x,-y,-z
-x,y,-z
-x,-y,-z
x,y,-z
-x,y,z
x,-y,z
1/2+x,1/2+y,z
1/2-x,1/2-y,z
1/2+x,1/2-y,-z
1/2-x,1/2+y,-z
1/2-x,1/2-y,-z
1/2+x,1/2+y,-z
1/2-x,1/2+y,z
1/2+x,1/2-y,z
loop_
_atom_site_type_symbol
_atom_site_label
_atom_site_fract_x
_atom_site_fract_y
_atom_site_fract_z
Si Si1 0.934480 0.088115 0.264519
Si Si2 0.173197 0.090135 0.608407
Si Si3 0.645177 0.138618 0.886148
Si Si4 0.064980 0.500000 0.884550
Si Si5 0.239471 0.837516 0.222165
Si Si6 0.375549 0.686692 0.887348
O O1 0.890071 0.113630 0.349392
O O2 0.925664 0.141990 0.170652
O O3 0.000000 0.099089 0.303901
O O4 0.923044 0.000000 0.233743
O O5 0.178987 0.125678 0.500000
O O6 0.224668 0.120897 0.676758
O O7 0.179494 0.000000 0.603183
O O8 0.703961 0.124109 0.825625
O O9 0.619062 0.222693 0.865905
O O10 0.598478 0.076286 0.849536
O O11 0.660285 0.128725 0.000000
O O12 0.000000 0.500000 0.839017
O O13 0.060582 0.500000 0.000000
O O14 0.250000 0.750000 0.248772
O O15 0.187320 0.845249 0.144637
O O16 0.384563 0.668410 0.000000
#
# Coordination Sequence:
#
# PCOD8275178 Si02
#       6
#    16  16  16   8  16  16
#     4   9  18  31  45  63  88 119 155 189 219 259
#     4   9  18  31  46  65  89 114 143 184 229 271
#     4   9  17  29  46  66  90 122 151 180 223 268
#     4   9  18  30  42  62  91 119 154 191 215 251
#     4   9  17  29  46  67  90 115 145 183 223 273
#     4   9  17  29  44  64  92 122 151 184 222 264
#
# _framework density 16.008368999999998
#
# number of rings (size 3 to 8) (size 9 to 14) (size 15 to 20)
#    0.000    3.000    0.000    0.545    1.273    4.364 
#    0.000    4.545    0.000    0.000    0.000    0.000 
#    0.000    1.455    0.000    0.000    0.000    0.909 
#
# Total GULP energy -545552.937755 kJ/mol
# GULP energy per Si atom -12398.930404 kJ/mol
# Density = 1.597193 g / cm^3
# Si number density = 16.008369 Si / 1000 Ang^3
#
#
#
# Elastic Constant Matrix: (Units=GPa)
#
#
# Indices 1 2 3 4 5 6 
#
# 1 105.3384 41.2683 42.7761 0.0000 0.0000 0.0000
# 2 41.2683 55.4141 36.8253 0.0000 0.0000 0.0000
# 3 42.7761 36.8253 97.6345 0.0000 0.0000 0.0000
# 4 0.0000 0.0000 0.0000 21.2443 0.0000 0.0000
# 5 0.0000 0.0000 0.0000 0.0000 15.6524 0.0000
# 6 0.0000 0.0000 0.0000 0.0000 0.0000 26.0446
#
#
#
# Elastic Compliance Matrix: (Units=1/GPa)
#
#
# Indices 1 2 3 4 5 6 
#
# 1 0.014009 -0.008479 -0.002939 0.000000 0.000000 0.000000
# 2 -0.008479 0.029215 -0.007304 0.000000 0.000000 0.000000
# 3 -0.002939 -0.007304 0.014285 0.000000 0.000000 0.000000
# 4 0.000000 0.000000 0.000000 0.047071 0.000000 0.000000
# 5 0.000000 0.000000 0.000000 0.000000 0.063888 0.000000
# 6 0.000000 0.000000 0.000000 0.000000 0.000000 0.038396
#
#
# Mechanical properties :
#
#
# Convention : Reuss Voigt Hill
#
# Bulk Modulus (GPa) = 49.84327 55.56958 52.70642
# Shear Modulus (GPa) = 19.92060 21.75609 20.83835
#
# Velocity S-wave (km/s) = 3.53141 3.69052 3.61184
# Velocity P-wave (km/s) = 6.91601 7.27655 7.09857
#
# Compressibility (1/GPa) = 0.02006289
#
# Stress axis : x y z
#
# Youngs Moduli (GPa) = 71.38372 34.22950 70.00351
#
# Poissons Ratio (x) = 0.29024 0.20577
# Poissons Ratio (y) = 0.60529 0.51130
# Poissons Ratio (z) = 0.20983 0.25001
#
# Static dielectric constant tensor:
#      x y z
#    x 3.095620 0.000000 0.000000 
#    y 0.000000 3.046150 0.000000 
#    z 0.000000 0.000000 2.956550 
# 
# 
# High freq. dielectric constant tensor:
#      x y z
#    x 1.613370 0.000000 0.000000 
#    y 0.000000 1.612770 0.000000 
#    z 0.000000 0.000000 1.592150 
# 
# From -- ./inp_files/26800.got.cif
#   From: 2010.03.12/outbox.cif.g09.slc.cpg/sg65_14_cif.got.tgz:26800.got - 2010.04.10 20:52:16.
