data_PCOD8275822
_publ_section_title
;
Structure prediction by ZEFSAII (Michael W. Deem and Ramdas Pophale) SiO2 
 PCOD8275822
Probable space group: C C C M
;
_chemical_formula_sum "Si O2"
_cell_formula_units_Z 116
_cell_length_a 26.632595
_cell_length_b 26.664515
_cell_length_c 9.017962
_cell_angle_alpha 90.000000
_cell_angle_beta 90.000000
_cell_angle_gamma 90.000000
_cell_volume 6404.062688
_symmetry_space_group_name_H-M "C C C M"
_symmetry_group_IT_number 66
_symmetry_cell_setting 'orthorhombic'
loop_
_space_group_symop_operation_xyz
x,y,z
-x,-y,z
x,-y,1/2-z
-x,y,1/2-z
-x,-y,-z
x,y,-z
-x,y,1/2+z
x,-y,1/2+z
1/2+x,1/2+y,z
1/2-x,1/2-y,z
1/2+x,1/2-y,1/2-z
1/2-x,1/2+y,1/2-z
1/2-x,1/2-y,-z
1/2+x,1/2+y,-z
1/2-x,1/2+y,1/2+z
1/2+x,1/2-y,1/2+z
loop_
_atom_site_type_symbol
_atom_site_label
_atom_site_fract_x
_atom_site_fract_y
_atom_site_fract_z
Si Si1 0.185165 0.414314 0.173563
Si Si2 0.449838 0.812773 0.675086
Si Si3 0.707281 0.449486 0.675882
Si Si4 0.357296 0.741925 0.674895
Si Si5 0.210356 0.315974 0.670842
Si Si6 0.922504 0.420254 0.664421
Si Si7 0.000000 0.500000 0.250000
Si Si8 0.822953 0.850256 0.328633
O O1 0.233743 0.445961 0.222995
O O2 0.180981 0.362823 0.262036
O O3 0.132137 0.441359 0.218431
O O4 0.190514 0.402223 0.000000
O O5 0.500000 0.791310 0.750000
O O6 0.458164 0.813856 0.500000
O O7 0.404841 0.775745 0.719431
O O8 0.440145 0.868970 0.745161
O O9 0.686039 0.500000 0.750000
O O10 0.699719 0.451264 0.500000
O O11 0.676317 0.403148 0.742899
O O12 0.352004 0.734916 0.500000
O O13 0.306772 0.767211 0.738723
O O14 0.362908 0.687123 0.751268
O O15 0.195342 0.308645 0.500000
O O16 0.269261 0.324104 0.689139
O O17 0.912418 0.401067 0.500000
O O18 0.963832 0.464086 0.656499
O O19 0.837015 0.859409 0.500000
#
# Coordination Sequence:
#
# PCOD8275822 Si02
#       8
#    16  16  16  16  16  16   4  16
#     4   9  18  34  51  67  95 132 172 216 264 319
#     4  10  21  38  56  74  99 132 172 220 271 329
#     4  10  20  34  54  76 104 141 176 212 258 308
#     4  11  21  34  53  75 102 137 172 210 266 325
#     4  10  19  31  49  75 103 131 167 212 261 313
#     4  10  20  36  50  66  93 126 170 224 278 324
#     4  12  22  32  52  70  92 124 178 236 288 316
#     4  10  21  35  51  76 109 136 172 217 256 310
#
# _framework density 18.113502
#
# number of rings (size 3 to 8) (size 9 to 14) (size 15 to 20)
#    0.000    1.931    2.069    2.276    0.966    4.966 
#    0.000    1.379    0.000    0.000    0.000    0.000 
#    0.000    0.552    0.000    5.793    0.000    3.172 
#
# Total GULP energy -718798.952809 kJ/mol
# GULP energy per Si atom -12393.085393 kJ/mol
# Density = 1.807228 g / cm^3
# Si number density = 18.113502 Si / 1000 Ang^3
#
#
#
# Elastic Constant Matrix: (Units=GPa)
#
#
# Indices 1 2 3 4 5 6 
#
# 1 40.6791 39.1739 10.9016 0.0000 0.0000 0.0000
# 2 39.1739 137.1994 48.3510 0.0000 0.0000 0.0000
# 3 10.9016 48.3510 66.1527 0.0000 0.0000 0.0000
# 4 0.0000 0.0000 0.0000 30.0014 0.0000 0.0000
# 5 0.0000 0.0000 0.0000 0.0000 16.7442 0.0000
# 6 0.0000 0.0000 0.0000 0.0000 0.0000 25.6867
#
#
#
# Elastic Compliance Matrix: (Units=1/GPa)
#
#
# Indices 1 2 3 4 5 6 
#
# 1 0.034104 -0.010448 0.002016 0.000000 0.000000 0.000000
# 2 -0.010448 0.013018 -0.007793 0.000000 0.000000 0.000000
# 3 0.002016 -0.007793 0.020480 0.000000 0.000000 0.000000
# 4 0.000000 0.000000 0.000000 0.033332 0.000000 0.000000
# 5 0.000000 0.000000 0.000000 0.000000 0.059722 0.000000
# 6 0.000000 0.000000 0.000000 0.000000 0.000000 0.038931
#
#
# Mechanical properties :
#
#
# Convention : Reuss Voigt Hill
#
# Bulk Modulus (GPa) = 28.44748 48.98714 38.71731
# Shear Modulus (GPa) = 20.51243 24.19344 22.35293
#
# Velocity S-wave (km/s) = 3.36882 3.65863 3.51671
# Velocity P-wave (km/s) = 5.55618 6.70453 6.15719
#
# Compressibility (1/GPa) = 0.03515250
#
# Stress axis : x y z
#
# Youngs Moduli (GPa) = 29.32230 76.81474 48.82717
#
# Poissons Ratio (x) = 0.80257 -0.09846
# Poissons Ratio (y) = 0.30636 0.38053
# Poissons Ratio (z) = -0.05913 0.59864
#
# Static dielectric constant tensor:
#      x y z
#    x 3.166910 0.000000 0.000000 
#    y 0.000000 3.322400 0.000000 
#    z 0.000000 0.000000 3.256960 
# 
# 
# High freq. dielectric constant tensor:
#      x y z
#    x 1.666500 0.000000 0.000000 
#    y 0.000000 1.697250 0.000000 
#    z 0.000000 0.000000 1.699400 
# 
# From -- ./inp_files/9617.got.cif
#   From: 2010.03.12/outbox.cif.g09.slc.cpg/sg66_5_cif.got.tgz:9617.got - 2010.04.10 21:57:39.
