data_PCOD8275034
_publ_section_title
;
Structure prediction by ZEFSAII (Michael W. Deem and Ramdas Pophale) SiO2 
 PCOD8275034
Probable space group: C M M M
;
_chemical_formula_sum "Si O2"
_cell_formula_units_Z 72
_cell_length_a 30.117721
_cell_length_b 9.720336
_cell_length_c 17.525434
_cell_angle_alpha 90.000000
_cell_angle_beta 90.000000
_cell_angle_gamma 90.000000
_cell_volume 5130.647349
_symmetry_space_group_name_H-M "C M M M"
_symmetry_group_IT_number 65
_symmetry_cell_setting 'orthorhombic'
loop_
_space_group_symop_operation_xyz
x,y,z
-x,-y,z
x,-y,-z
-x,y,-z
-x,-y,-z
x,y,-z
-x,y,z
x,-y,z
1/2+x,1/2+y,z
1/2-x,1/2-y,z
1/2+x,1/2-y,-z
1/2-x,1/2+y,-z
1/2-x,1/2-y,-z
1/2+x,1/2+y,-z
1/2-x,1/2+y,z
1/2+x,1/2-y,z
loop_
_atom_site_type_symbol
_atom_site_label
_atom_site_fract_x
_atom_site_fract_y
_atom_site_fract_z
Si Si1 0.053022 0.655495 0.500000
Si Si2 0.787830 0.652159 0.909355
Si Si3 0.387096 0.839098 0.911686
Si Si4 0.051487 0.159591 0.805730
Si Si5 0.947248 0.847218 0.634256
O O1 0.071760 0.500000 0.500000
O O2 0.071365 0.734987 0.425311
O O3 0.000000 0.653834 0.500000
O O4 0.779846 0.500000 0.875814
O O5 0.750000 0.750000 0.873598
O O6 0.837084 0.704258 0.887475
O O7 0.783837 0.647080 0.000000
O O8 0.421385 0.752317 0.863318
O O9 0.394513 0.000000 0.895969
O O10 0.395425 0.804893 0.000000
O O11 0.067538 0.193500 0.719672
O O12 0.000000 0.196840 0.815781
O O13 0.059850 0.000000 0.824453
O O14 0.000000 0.851576 0.630646
O O15 0.929230 0.000000 0.613219
#
# Coordination Sequence:
#
# PCOD8275034 Si02
#       5
#     8  16  16  16  16
#     4   9  15  21  33  55  75  89 114 151 186 225
#     4   8  14  25  40  57  75  93 116 149 190 236
#     4   9  18  30  41  55  76 101 129 161 198 237
#     4   9  18  30  41  54  73 100 136 171 196 221
#     4   8  14  25  38  50  68  95 123 152 189 227
#
# _framework density 14.033318
#
# number of rings (size 3 to 8) (size 9 to 14) (size 15 to 20)
#    0.000    3.444    0.000    3.000    0.000    4.444 
#    0.000    6.667    0.000    0.000    0.000    0.000 
#    0.000    0.000    0.000    1.000    0.000   13.222 
#
# Total GULP energy -446150.577890 kJ/mol
# GULP energy per Si atom -12393.071608 kJ/mol
# Density = 1.400138 g / cm^3
# Si number density = 14.033318 Si / 1000 Ang^3
#
#
#
# Elastic Constant Matrix: (Units=GPa)
#
#
# Indices 1 2 3 4 5 6 
#
# 1 61.2844 50.3618 42.2187 0.0000 0.0000 0.0000
# 2 50.3618 97.8162 63.6272 0.0000 0.0000 0.0000
# 3 42.2187 63.6272 79.8141 0.0000 0.0000 0.0000
# 4 0.0000 0.0000 0.0000 22.3134 0.0000 0.0000
# 5 0.0000 0.0000 0.0000 0.0000 -0.8973 0.0000
# 6 0.0000 0.0000 0.0000 0.0000 0.0000 23.8834
#
#
#
# Elastic Compliance Matrix: (Units=1/GPa)
#
#
# Indices 1 2 3 4 5 6 
#
# 1 0.030279 -0.010741 -0.007454 0.000000 0.000000 0.000000
# 2 -0.010741 0.025045 -0.014284 0.000000 0.000000 0.000000
# 3 -0.007454 -0.014284 0.027859 0.000000 0.000000 0.000000
# 4 0.000000 0.000000 0.000000 0.044816 0.000000 0.000000
# 5 0.000000 0.000000 0.000000 0.000000 -1.114424 0.000000
# 6 0.000000 0.000000 0.000000 0.000000 0.000000 0.041870
#
#
# Mechanical properties :
#
#
# Convention : Reuss Voigt Hill
#
# Bulk Modulus (GPa) = 54.86903 61.25891 58.06397
# Shear Modulus (GPa) = -5.72395 14.57370 4.42487
#
# Velocity S-wave (km/s) = -2.02180 3.22608 1.77763
# Velocity P-wave (km/s) = 5.80808 7.59105 6.75862
#
# Compressibility (1/GPa) = 0.01822522
#
# Stress axis : x y z
#
# Youngs Moduli (GPa) = 33.02638 39.92867 35.89500
#
# Poissons Ratio (x) = 0.42887 0.26756
# Poissons Ratio (y) = 0.35473 0.51272
# Poissons Ratio (z) = 0.24618 0.57034
#
# Static dielectric constant tensor:
#      x y z
#    x 2.517850 0.000000 0.000000 
#    y 0.000000 2.958860 0.000000 
#    z 0.000000 0.000000 2.679890 
# 
# 
# High freq. dielectric constant tensor:
#      x y z
#    x 1.493900 0.000000 0.000000 
#    y 0.000000 1.544000 0.000000 
#    z 0.000000 0.000000 1.514080 
# 
# From -- ./inp_files/57144.got.cif
#   From: 2010.03.12/outbox.cif.g09.slc.cpg/sg65_29_cif.got.tgz:57144.got - 2010.04.10 20:52:16.
