data_PCOD8275018
_publ_section_title
;
Structure prediction by ZEFSAII (Michael W. Deem and Ramdas Pophale) SiO2 
 PCOD8275018
Probable space group: C M M M
;
_chemical_formula_sum "Si O2"
_cell_formula_units_Z 88
_cell_length_a 29.102167
_cell_length_b 9.677246
_cell_length_c 19.695884
_cell_angle_alpha 90.000000
_cell_angle_beta 90.000000
_cell_angle_gamma 90.000000
_cell_volume 5546.928751
_symmetry_space_group_name_H-M "C M M M"
_symmetry_group_IT_number 65
_symmetry_cell_setting 'orthorhombic'
loop_
_space_group_symop_operation_xyz
x,y,z
-x,-y,z
x,-y,-z
-x,y,-z
-x,-y,-z
x,y,-z
-x,y,z
x,-y,z
1/2+x,1/2+y,z
1/2-x,1/2-y,z
1/2+x,1/2-y,-z
1/2-x,1/2+y,-z
1/2-x,1/2-y,-z
1/2+x,1/2+y,-z
1/2-x,1/2+y,z
1/2+x,1/2-y,z
loop_
_atom_site_type_symbol
_atom_site_label
_atom_site_fract_x
_atom_site_fract_y
_atom_site_fract_z
Si Si1 0.391052 0.153050 0.181222
Si Si2 0.051315 0.665383 0.695749
Si Si3 0.292245 0.841931 0.199841
Si Si4 0.114064 0.664196 0.424461
Si Si5 0.291712 0.158004 0.360143
Si Si6 0.445945 0.000000 0.920698
O O1 0.420274 0.228782 0.240204
O O2 0.340378 0.217743 0.167422
O O3 0.422290 0.136751 0.112874
O O4 0.378957 0.000000 0.210477
O O5 0.049897 0.500000 0.700744
O O6 0.074136 0.717171 0.625735
O O7 0.000000 0.726140 0.698542
O O8 0.250000 0.750000 0.172278
O O9 0.298075 0.825490 0.280063
O O10 0.282090 0.000000 0.178307
O O11 0.105142 0.723644 0.500000
O O12 0.113800 0.500000 0.425450
O O13 0.162981 0.715856 0.396853
O O14 0.250000 0.250000 0.387401
O O15 0.281753 0.000000 0.380164
O O16 0.500000 0.000000 0.904141
O O17 0.435919 0.000000 0.000000
#
# Coordination Sequence:
#
# PCOD8275018 Si02
#       6
#    16  16  16  16  16   8
#     4   8  14  23  37  55  78 108 132 164 200 242
#     4   9  14  21  34  50  71 100 132 159 195 246
#     4   9  15  25  41  61  82 109 142 174 204 243
#     4   9  16  24  33  48  73 100 127 162 202 239
#     4   9  16  26  39  55  77 103 133 167 203 242
#     4   9  16  24  38  62  89 113 137 167 209 251
#
# _framework density 15.864635
#
# number of rings (size 3 to 8) (size 9 to 14) (size 15 to 20)
#    0.545    2.636    1.818    0.545    0.000    0.727 
#    0.000    1.818    0.000    0.545    0.000    0.000 
#    0.000    5.091    0.000    3.636    0.000    1.818 
#
# Total GULP energy -545096.335170 kJ/mol
# GULP energy per Si atom -12388.553072 kJ/mol
# Density = 1.582853 g / cm^3
# Si number density = 15.864635 Si / 1000 Ang^3
#
#
#
# Elastic Constant Matrix: (Units=GPa)
#
#
# Indices 1 2 3 4 5 6 
#
# 1 171.3923 28.5788 60.3266 0.0000 0.0000 0.0000
# 2 28.5788 20.7339 11.0610 0.0000 0.0000 0.0000
# 3 60.3266 11.0610 79.6248 0.0000 0.0000 0.0000
# 4 0.0000 0.0000 0.0000 4.7985 0.0000 0.0000
# 5 0.0000 0.0000 0.0000 0.0000 23.7855 0.0000
# 6 0.0000 0.0000 0.0000 0.0000 0.0000 18.5684
#
#
#
# Elastic Compliance Matrix: (Units=1/GPa)
#
#
# Indices 1 2 3 4 5 6 
#
# 1 0.009575 -0.010075 -0.005855 0.000000 0.000000 0.000000
# 2 -0.010075 0.062691 -0.001076 0.000000 0.000000 0.000000
# 3 -0.005855 -0.001076 0.017144 0.000000 0.000000 0.000000
# 4 0.000000 0.000000 0.000000 0.208397 0.000000 0.000000
# 5 0.000000 0.000000 0.000000 0.000000 0.042042 0.000000
# 6 0.000000 0.000000 0.000000 0.000000 0.000000 0.053855
#
#
# Mechanical properties :
#
#
# Convention : Reuss Voigt Hill
#
# Bulk Modulus (GPa) = 18.05069 52.40929 35.22999
# Shear Modulus (GPa) = 11.20617 20.88278 16.04447
#
# Velocity S-wave (km/s) = 2.66063 3.63203 3.18360
# Velocity P-wave (km/s) = 4.56522 7.12011 5.98068
#
# Compressibility (1/GPa) = 0.05539954
#
# Stress axis : x y z
#
# Youngs Moduli (GPa) = 104.43462 15.95130 58.32817
#
# Poissons Ratio (x) = 0.16071 0.34152
# Poissons Ratio (y) = 1.05216 0.06274
# Poissons Ratio (z) = 0.61148 0.01716
#
# Static dielectric constant tensor:
#      x y z
#    x 3.309500 0.000000 0.000000 
#    y 0.000000 2.428820 0.000000 
#    z 0.000000 0.000000 2.825700 
# 
# 
# High freq. dielectric constant tensor:
#      x y z
#    x 1.632410 0.000000 0.000000 
#    y 0.000000 1.526160 0.000000 
#    z 0.000000 0.000000 1.586610 
# 
# From -- ./inp_files/66231.got.cif
#   From: 2010.03.12/outbox.cif.g09.slc.cpg/sg65_34_cif.got.tgz:66231.got - 2010.04.10 20:52:16.
