data_PCOD8275748
_publ_section_title
;
Structure prediction by ZEFSAII (Michael W. Deem and Ramdas Pophale) SiO2 
 PCOD8275748
Probable space group: C C C M
;
_chemical_formula_sum "Si O2"
_cell_formula_units_Z 96
_cell_length_a 29.882411
_cell_length_b 33.175740
_cell_length_c 8.014680
_cell_angle_alpha 90.000000
_cell_angle_beta 90.000000
_cell_angle_gamma 90.000000
_cell_volume 7945.522111
_symmetry_space_group_name_H-M "C C C M"
_symmetry_group_IT_number 66
_symmetry_cell_setting 'orthorhombic'
loop_
_space_group_symop_operation_xyz
x,y,z
-x,-y,z
x,-y,1/2-z
-x,y,1/2-z
-x,-y,-z
x,y,-z
-x,y,1/2+z
x,-y,1/2+z
1/2+x,1/2+y,z
1/2-x,1/2-y,z
1/2+x,1/2-y,1/2-z
1/2-x,1/2+y,1/2-z
1/2-x,1/2-y,-z
1/2+x,1/2+y,-z
1/2-x,1/2+y,1/2+z
1/2+x,1/2-y,1/2+z
loop_
_atom_site_type_symbol
_atom_site_label
_atom_site_fract_x
_atom_site_fract_y
_atom_site_fract_z
Si Si1 0.449767 0.544440 0.195310
Si Si2 0.765796 0.814901 0.500000
Si Si3 0.403680 0.378069 0.190438
Si Si4 0.367201 0.257945 0.182596
Si Si5 0.178683 0.267330 0.500000
Si Si6 0.686927 0.339825 0.685860
Si Si7 0.949933 0.198011 0.189501
O O1 0.435028 0.500000 0.250000
O O2 0.500000 0.554238 0.250000
O O3 0.415981 0.575631 0.279659
O O4 0.445981 0.548774 0.000000
O O5 0.796354 0.775323 0.500000
O O6 0.713609 0.803958 0.500000
O O7 0.775709 0.840873 0.668152
O O8 0.351275 0.372382 0.233780
O O9 0.435068 0.348720 0.298500
O O10 0.412163 0.365707 0.000000
O O11 0.351788 0.228584 0.333091
O O12 0.335014 0.296141 0.182994
O O13 0.418056 0.272729 0.204721
O O14 0.363649 0.236436 0.000000
O O15 0.707257 0.348937 0.500000
O O16 0.000000 0.203564 0.250000
O O17 0.945772 0.211807 0.000000
#
# Coordination Sequence:
#
# PCOD8275748 Si02
#       7
#    16   8  16  16   8  16  16
#     4  11  21  32  43  53  68  87 109 139 169 205
#     4   9  16  24  40  52  72  83 114 126 158 199
#     4  10  19  30  41  54  69  87 109 134 172 208
#     4   9  16  27  37  49  69  89 110 134 163 194
#     4   9  16  26  36  54  66  94 104 134 158 195
#     4   8  16  26  38  53  70  86 104 134 161 195
#     4  11  19  27  38  53  69  87 114 142 171 203
#
# _framework density 12.082276999999999
#
# number of rings (size 3 to 8) (size 9 to 14) (size 15 to 20)
#    0.000    2.333    0.833    5.500    4.667    0.667 
#    0.000    3.333    0.000    0.000    0.000    0.000 
#    0.000    0.000    0.000    0.000    0.000    0.000 
#
# Total GULP energy -595010.003681 kJ/mol
# GULP energy per Si atom -12396.041743 kJ/mol
# Density = 1.205478 g / cm^3
# Si number density = 12.082277 Si / 1000 Ang^3
#
#
#
# Elastic Constant Matrix: (Units=GPa)
#
#
# Indices 1 2 3 4 5 6 
#
# 1 57.8972 30.7689 37.8266 0.0000 0.0000 0.0000
# 2 30.7689 29.3994 22.1035 0.0000 0.0000 0.0000
# 3 37.8266 22.1035 95.6183 0.0000 0.0000 0.0000
# 4 0.0000 0.0000 0.0000 12.1532 0.0000 0.0000
# 5 0.0000 0.0000 0.0000 0.0000 14.9615 0.0000
# 6 0.0000 0.0000 0.0000 0.0000 0.0000 18.2266
#
#
#
# Elastic Compliance Matrix: (Units=1/GPa)
#
#
# Indices 1 2 3 4 5 6 
#
# 1 0.043550 -0.039489 -0.008100 0.000000 0.000000 0.000000
# 2 -0.039489 0.076976 -0.002172 0.000000 0.000000 0.000000
# 3 -0.008100 -0.002172 0.014165 0.000000 0.000000 0.000000
# 4 0.000000 0.000000 0.000000 0.082283 0.000000 0.000000
# 5 0.000000 0.000000 0.000000 0.000000 0.066838 0.000000
# 6 0.000000 0.000000 0.000000 0.000000 0.000000 0.054865
#
#
# Mechanical properties :
#
#
# Convention : Reuss Voigt Hill
#
# Bulk Modulus (GPa) = 28.43459 40.47921 34.45690
# Shear Modulus (GPa) = 11.11305 15.21597 13.16451
#
# Velocity S-wave (km/s) = 3.03608 3.55260 3.30445
# Velocity P-wave (km/s) = 5.98962 7.09955 6.56808
#
# Compressibility (1/GPa) = 0.03516843
#
# Stress axis : x y z
#
# Youngs Moduli (GPa) = 22.96215 12.99111 70.59770
#
# Poissons Ratio (x) = 0.51300 0.57184
# Poissons Ratio (y) = 0.90675 0.15336
# Poissons Ratio (z) = 0.18599 0.02822
#
# Static dielectric constant tensor:
#      x y z
#    x 2.402850 0.000000 0.000000 
#    y 0.000000 2.108770 0.000000 
#    z 0.000000 0.000000 2.853330 
# 
# 
# High freq. dielectric constant tensor:
#      x y z
#    x 1.433210 0.000000 0.000000 
#    y 0.000000 1.396250 0.000000 
#    z 0.000000 0.000000 1.486600 
# 
# From -- ./inp_files/11844.got.cif
#   From: 2010.03.12/outbox.cif.g09.slc.cpg/sg66_6_cif.got.tgz:11844.got - 2010.04.10 21:57:39.
