data_PCOD8275921
_publ_section_title
;
Structure prediction by ZEFSAII (Michael W. Deem and Ramdas Pophale) SiO2 
 PCOD8275921
Probable space group: C C C M
;
_chemical_formula_sum "Si O2"
_cell_formula_units_Z 104
_cell_length_a 8.824773
_cell_length_b 20.123655
_cell_length_c 28.789108
_cell_angle_alpha 90.000000
_cell_angle_beta 90.000000
_cell_angle_gamma 90.000000
_cell_volume 5112.562320
_symmetry_space_group_name_H-M "C C C M"
_symmetry_group_IT_number 66
_symmetry_cell_setting 'orthorhombic'
loop_
_space_group_symop_operation_xyz
x,y,z
-x,-y,z
x,-y,1/2-z
-x,y,1/2-z
-x,-y,-z
x,y,-z
-x,y,1/2+z
x,-y,1/2+z
1/2+x,1/2+y,z
1/2-x,1/2-y,z
1/2+x,1/2-y,1/2-z
1/2-x,1/2+y,1/2-z
1/2-x,1/2-y,-z
1/2+x,1/2+y,-z
1/2-x,1/2+y,1/2+z
1/2+x,1/2-y,1/2+z
loop_
_atom_site_type_symbol
_atom_site_label
_atom_site_fract_x
_atom_site_fract_y
_atom_site_fract_z
Si Si1 0.416945 0.256109 0.052349
Si Si2 0.537178 0.137641 0.199180
Si Si3 0.050150 0.148319 0.378644
Si Si4 0.971873 0.609903 0.053547
Si Si5 0.199672 0.448668 0.626541
Si Si6 0.771487 0.601656 0.865224
Si Si7 0.250000 0.750000 0.178929
O O1 0.250000 0.250000 0.076830
O O2 0.514129 0.314967 0.073670
O O3 0.516203 0.188038 0.055458
O O4 0.387427 0.277799 0.000000
O O5 0.500000 0.109066 0.250000
O O6 0.647692 0.087358 0.173288
O O7 0.386835 0.144056 0.167069
O O8 0.624131 0.208186 0.207494
O O9 0.138432 0.080040 0.389454
O O10 0.154738 0.197697 0.350257
O O11 0.894606 0.128613 0.352644
O O12 0.808651 0.608450 0.079514
O O13 0.086076 0.563363 0.082966
O O14 0.960565 0.584885 0.000000
O O15 0.212493 0.523518 0.644045
#
# Coordination Sequence:
#
# PCOD8275921 Si02
#       7
#    16  16  16  16  16  16   8
#     4  10  19  32  54  83 112 149 201 242 283 349
#     4  10  22  41  64  88 118 153 189 238 295 350
#     4  11  21  38  59  83 121 154 191 247 298 340
#     4  10  20  36  58  84 115 154 199 246 292 346
#     4  10  23  39  56  88 118 153 202 244 283 350
#     4  11  22  37  62  85 114 160 203 233 289 352
#     4  10  24  38  59  94 122 142 193 244 298 364
#
# _framework density 20.342048999999999
#
# number of rings (size 3 to 8) (size 9 to 14) (size 15 to 20)
#    0.000    1.692    1.538    5.077    0.000    4.308 
#    0.000    4.231    0.000    6.462    0.000    0.000 
#    0.000    0.000    0.000    0.000    0.000    0.000 
#
# Total GULP energy -644351.111508 kJ/mol
# GULP energy per Si atom -12391.367529 kJ/mol
# Density = 2.029575 g / cm^3
# Si number density = 20.342049 Si / 1000 Ang^3
#
#
#
# Elastic Constant Matrix: (Units=GPa)
#
#
# Indices 1 2 3 4 5 6 
#
# 1 123.7749 41.0248 32.9186 0.0000 0.0000 0.0000
# 2 41.0248 89.9655 25.9957 0.0000 0.0000 0.0000
# 3 32.9186 25.9957 107.2432 0.0000 0.0000 0.0000
# 4 0.0000 0.0000 0.0000 14.6964 0.0000 0.0000
# 5 0.0000 0.0000 0.0000 0.0000 15.7607 0.0000
# 6 0.0000 0.0000 0.0000 0.0000 0.0000 38.3168
#
#
#
# Elastic Compliance Matrix: (Units=1/GPa)
#
#
# Indices 1 2 3 4 5 6 
#
# 1 0.009939 -0.003925 -0.002099 0.000000 0.000000 0.000000
# 2 -0.003925 0.013503 -0.002068 0.000000 0.000000 0.000000
# 3 -0.002099 -0.002068 0.010470 0.000000 0.000000 0.000000
# 4 0.000000 0.000000 0.000000 0.068044 0.000000 0.000000
# 5 0.000000 0.000000 0.000000 0.000000 0.063449 0.000000
# 6 0.000000 0.000000 0.000000 0.000000 0.000000 0.026098
#
#
# Mechanical properties :
#
#
# Convention : Reuss Voigt Hill
#
# Bulk Modulus (GPa) = 56.41358 57.87352 57.14355
# Shear Modulus (GPa) = 23.40855 28.49109 25.94982
#
# Velocity S-wave (km/s) = 3.39595 3.74652 3.57553
# Velocity P-wave (km/s) = 6.57033 6.87220 6.72296
#
# Compressibility (1/GPa) = 0.01772623
#
# Stress axis : x y z
#
# Youngs Moduli (GPa) = 100.61842 74.05753 95.50863
#
# Poissons Ratio (x) = 0.29071 0.20048
# Poissons Ratio (y) = 0.39498 0.19753
# Poissons Ratio (z) = 0.21121 0.15316
#
# Static dielectric constant tensor:
#      x y z
#    x 4.133490 0.000000 0.000000 
#    y 0.000000 3.914660 0.000000 
#    z 0.000000 0.000000 3.418720 
# 
# 
# High freq. dielectric constant tensor:
#      x y z
#    x 1.795850 0.000000 0.000000 
#    y 0.000000 1.804080 0.000000 
#    z 0.000000 0.000000 1.768290 
# 
# From -- ./inp_files/62664.got.cif
#   From: 2010.03.12/outbox.cif.g09.slc.cpg/sg66_32_cif.got.tgz:62664.got - 2010.04.10 21:57:39.
