data_PCOD8275361
_publ_section_title
;
Structure prediction by ZEFSAII (Michael W. Deem and Ramdas Pophale) SiO2 
 PCOD8275361
Probable space group: C C C M
;
_chemical_formula_sum "Si O2"
_cell_formula_units_Z 88
_cell_length_a 8.288222
_cell_length_b 16.417527
_cell_length_c 29.975193
_cell_angle_alpha 90.000000
_cell_angle_beta 90.000000
_cell_angle_gamma 90.000000
_cell_volume 4078.787713
_symmetry_space_group_name_H-M "C C C M"
_symmetry_group_IT_number 66
_symmetry_cell_setting 'orthorhombic'
loop_
_space_group_symop_operation_xyz
x,y,z
-x,-y,z
x,-y,1/2-z
-x,y,1/2-z
-x,-y,-z
x,y,-z
-x,y,1/2+z
x,-y,1/2+z
1/2+x,1/2+y,z
1/2-x,1/2-y,z
1/2+x,1/2-y,1/2-z
1/2-x,1/2+y,1/2-z
1/2-x,1/2-y,-z
1/2+x,1/2+y,-z
1/2-x,1/2+y,1/2+z
1/2+x,1/2-y,1/2+z
loop_
_atom_site_type_symbol
_atom_site_label
_atom_site_fract_x
_atom_site_fract_y
_atom_site_fract_z
Si Si1 0.500000 0.656688 0.250000
Si Si2 0.197822 0.439735 0.714155
Si Si3 0.856838 0.321053 0.911970
Si Si4 0.189321 0.015037 0.619133
Si Si5 0.382436 0.924640 0.548531
Si Si6 0.074226 0.718933 0.184669
O O1 0.644291 0.598645 0.263693
O O2 0.548670 0.717467 0.208393
O O3 0.120036 0.500000 0.750000
O O4 0.242225 0.489821 0.669206
O O5 0.059108 0.373412 0.702861
O O6 0.750000 0.250000 0.935297
O O7 0.738939 0.396914 0.900705
O O8 0.940289 0.280708 0.868478
O O9 0.006564 0.345439 0.943002
O O10 0.257999 0.941191 0.588653
O O11 0.000000 0.000000 0.619829
O O12 0.295888 0.913731 0.500000
O O13 0.500000 0.000000 0.546235
O O14 0.250000 0.750000 0.199422
#
# Coordination Sequence:
#
# PCOD8275361 Si02
#       6
#     8  16  16  16  16  16
#     4  10  17  30  49  68  98 138 178 214 263 324
#     4  10  19  31  48  74 105 138 181 226 267 322
#     4   9  18  35  57  79 107 142 185 234 286 349
#     4  10  20  35  55  80 111 147 185 231 285 338
#     4   9  19  36  58  83 111 147 190 236 292 351
#     4   8  17  30  45  68 100 136 171 215 272 329
#
# _framework density 21.575036999999998
#
# number of rings (size 3 to 8) (size 9 to 14) (size 15 to 20)
#    0.000    2.727    0.000    2.455    0.000    2.182 
#    0.000    5.000    0.000    1.091    0.000    0.000 
#    0.000    0.000    0.000    0.000    0.000    0.000 
#
# Total GULP energy -545156.224910 kJ/mol
# GULP energy per Si atom -12389.914202 kJ/mol
# Density = 2.152593 g / cm^3
# Si number density = 21.575037 Si / 1000 Ang^3
#
#
#
# Elastic Constant Matrix: (Units=GPa)
#
#
# Indices 1 2 3 4 5 6 
#
# 1 48.5196 29.3432 35.4051 0.0000 0.0000 0.0000
# 2 29.3432 90.1464 48.4501 0.0000 0.0000 0.0000
# 3 35.4051 48.4501 127.8260 0.0000 0.0000 0.0000
# 4 0.0000 0.0000 0.0000 3.1523 0.0000 0.0000
# 5 0.0000 0.0000 0.0000 0.0000 20.2786 0.0000
# 6 0.0000 0.0000 0.0000 0.0000 0.0000 26.6309
#
#
#
# Elastic Compliance Matrix: (Units=1/GPa)
#
#
# Indices 1 2 3 4 5 6 
#
# 1 0.028425 -0.006305 -0.005483 0.000000 0.000000 0.000000
# 2 -0.006305 0.015330 -0.004064 0.000000 0.000000 0.000000
# 3 -0.005483 -0.004064 0.010882 0.000000 0.000000 0.000000
# 4 0.000000 0.000000 0.000000 0.317228 0.000000 0.000000
# 5 0.000000 0.000000 0.000000 0.000000 0.049313 0.000000
# 6 0.000000 0.000000 0.000000 0.000000 0.000000 0.037550
#
#
# Mechanical properties :
#
#
# Convention : Reuss Voigt Hill
#
# Bulk Modulus (GPa) = 43.60797 54.76542 49.18670
# Shear Modulus (GPa) = 10.03861 20.23194 15.13527
#
# Velocity S-wave (km/s) = 2.15939 3.06559 2.65149
# Velocity P-wave (km/s) = 5.14523 6.16192 5.67638
#
# Compressibility (1/GPa) = 0.02293159
#
# Stress axis : x y z
#
# Youngs Moduli (GPa) = 35.18075 65.23255 91.89324
#
# Poissons Ratio (x) = 0.41132 0.50385
# Poissons Ratio (y) = 0.22183 0.37345
# Poissons Ratio (z) = 0.19290 0.26510
#
# Static dielectric constant tensor:
#      x y z
#    x 3.546940 0.000000 0.000000 
#    y 0.000000 4.429090 0.000000 
#    z 0.000000 0.000000 4.281730 
# 
# 
# High freq. dielectric constant tensor:
#      x y z
#    x 1.812520 0.000000 0.000000 
#    y 0.000000 1.850730 0.000000 
#    z 0.000000 0.000000 1.843020 
# 
# From -- ./inp_files/68175.got.cif
#   From: 2010.03.12/outbox.cif.g09.slc.cpg/sg66_35_cif.got.tgz:68175.got - 2010.04.10 21:57:39.
