data_PCOD8275927
_publ_section_title
;
Structure prediction by ZEFSAII (Michael W. Deem and Ramdas Pophale) SiO2 
 PCOD8275927
Probable space group: C C C M
;
_chemical_formula_sum "Si O2"
_cell_formula_units_Z 96
_cell_length_a 16.255124
_cell_length_b 15.328363
_cell_length_c 20.835333
_cell_angle_alpha 90.000000
_cell_angle_beta 90.000000
_cell_angle_gamma 90.000000
_cell_volume 5191.424106
_symmetry_space_group_name_H-M "C C C M"
_symmetry_group_IT_number 66
_symmetry_cell_setting 'orthorhombic'
loop_
_space_group_symop_operation_xyz
x,y,z
-x,-y,z
x,-y,1/2-z
-x,y,1/2-z
-x,-y,-z
x,y,-z
-x,y,1/2+z
x,-y,1/2+z
1/2+x,1/2+y,z
1/2-x,1/2-y,z
1/2+x,1/2-y,1/2-z
1/2-x,1/2+y,1/2-z
1/2-x,1/2-y,-z
1/2+x,1/2+y,-z
1/2-x,1/2+y,1/2+z
1/2+x,1/2-y,1/2+z
loop_
_atom_site_type_symbol
_atom_site_label
_atom_site_fract_x
_atom_site_fract_y
_atom_site_fract_z
Si Si1 0.376517 0.264215 0.637908
Si Si2 0.832062 0.691973 0.000000
Si Si3 0.255982 0.995847 0.500000
Si Si4 0.073694 0.066477 0.000000
Si Si5 0.237710 0.398699 0.626608
Si Si6 0.209443 0.000000 0.250000
Si Si7 0.588280 0.347568 0.267770
Si Si8 0.943779 0.782828 0.902990
O O1 0.323021 0.347054 0.614143
O O2 0.334052 0.171342 0.632673
O O3 0.389756 0.278579 0.713132
O O4 0.459493 0.259364 0.595876
O O5 0.750000 0.750000 0.000000
O O6 0.806274 0.592933 0.000000
O O7 0.888552 0.710140 0.937784
O O8 0.158546 0.984802 0.500000
O O9 0.282787 0.045650 0.564029
O O10 0.068689 0.124211 0.936390
O O11 0.000000 0.000000 0.000000
O O12 0.238335 0.460375 0.690395
O O13 0.153383 0.923749 0.278719
O O14 0.500000 0.390341 0.250000
O O15 0.587628 0.289139 0.330946
#
# Coordination Sequence:
#
# PCOD8275927 Si02
#       8
#    16   8   8   8  16   8  16  16
#     4   9  20  39  57  85 113 155 199 232 296 350
#     4  11  24  41  55  86 114 149 198 234 294 366
#     4  12  23  38  56  85 117 142 189 245 289 345
#     4  11  21  33  55  88 115 145 185 231 306 368
#     4  10  22  37  58  85 120 151 196 243 287 353
#     4  10  19  32  54  86 117 152 182 238 296 345
#     4   9  18  33  56  84 113 146 190 240 292 351
#     4  10  20  37  59  78 116 155 189 242 290 351
#
# _framework density 18.492035000000001
#
# number of rings (size 3 to 8) (size 9 to 14) (size 15 to 20)
#    0.000    2.000    1.667    2.250    0.000    7.333 
#    3.000    1.667    0.000    0.000    0.000    0.000 
#    0.000    0.000    0.000    0.000    0.000    0.000 
#
# Total GULP energy -595140.186803 kJ/mol
# GULP energy per Si atom -12398.753892 kJ/mol
# Density = 1.844995 g / cm^3
# Si number density = 18.492035 Si / 1000 Ang^3
#
#
#
# Elastic Constant Matrix: (Units=GPa)
#
#
# Indices 1 2 3 4 5 6 
#
# 1 80.1178 43.9660 30.0473 0.0000 0.0000 0.0000
# 2 43.9660 119.1770 57.7912 0.0000 0.0000 0.0000
# 3 30.0473 57.7912 110.5012 0.0000 0.0000 0.0000
# 4 0.0000 0.0000 0.0000 22.9257 0.0000 0.0000
# 5 0.0000 0.0000 0.0000 0.0000 17.4293 0.0000
# 6 0.0000 0.0000 0.0000 0.0000 0.0000 33.1060
#
#
#
# Elastic Compliance Matrix: (Units=1/GPa)
#
#
# Indices 1 2 3 4 5 6 
#
# 1 0.015879 -0.005043 -0.001680 0.000000 0.000000 0.000000
# 2 -0.005043 0.012844 -0.005346 0.000000 0.000000 0.000000
# 3 -0.001680 -0.005346 0.012302 0.000000 0.000000 0.000000
# 4 0.000000 0.000000 0.000000 0.043619 0.000000 0.000000
# 5 0.000000 0.000000 0.000000 0.000000 0.057375 0.000000
# 6 0.000000 0.000000 0.000000 0.000000 0.000000 0.030206
#
#
# Mechanical properties :
#
#
# Convention : Reuss Voigt Hill
#
# Bulk Modulus (GPa) = 59.21817 63.71165 61.46491
# Shear Modulus (GPa) = 24.75334 26.55830 25.65582
#
# Velocity S-wave (km/s) = 3.66265 3.79384 3.72882
# Velocity P-wave (km/s) = 7.06964 7.32934 7.20066
#
# Compressibility (1/GPa) = 0.01688671
#
# Stress axis : x y z
#
# Youngs Moduli (GPa) = 62.97464 77.85923 81.28515
#
# Poissons Ratio (x) = 0.39267 0.13658
# Poissons Ratio (y) = 0.31760 0.43453
# Poissons Ratio (z) = 0.10582 0.41622
#
# Static dielectric constant tensor:
#      x y z
#    x 3.501940 0.000000 0.000000 
#    y 0.000000 3.439660 0.000000 
#    z 0.000000 0.000000 3.608460 
# 
# 
# High freq. dielectric constant tensor:
#      x y z
#    x 1.714710 0.000000 0.000000 
#    y 0.000000 1.708380 0.000000 
#    z 0.000000 0.000000 1.729500 
# 
# From -- ./inp_files/49961.got.cif
#   From: 2010.03.12/outbox.cif.g09.slc.cpg/sg66_25_cif.got.tgz:49961.got - 2010.04.10 21:57:39.
