data_PCOD8275094
_publ_section_title
;
Structure prediction by ZEFSAII (Michael W. Deem and Ramdas Pophale) SiO2 
 PCOD8275094
Probable space group: C M M M
;
_chemical_formula_sum "Si O2"
_cell_formula_units_Z 104
_cell_length_a 27.043037
_cell_length_b 25.930016
_cell_length_c 11.850802
_cell_angle_alpha 90.000000
_cell_angle_beta 90.000000
_cell_angle_gamma 90.000000
_cell_volume 8310.095011
_symmetry_space_group_name_H-M "C M M M"
_symmetry_group_IT_number 65
_symmetry_cell_setting 'orthorhombic'
loop_
_space_group_symop_operation_xyz
x,y,z
-x,-y,z
x,-y,-z
-x,y,-z
-x,-y,-z
x,y,-z
-x,y,z
x,-y,z
1/2+x,1/2+y,z
1/2-x,1/2-y,z
1/2+x,1/2-y,-z
1/2-x,1/2+y,-z
1/2-x,1/2-y,-z
1/2+x,1/2+y,-z
1/2-x,1/2+y,z
1/2+x,1/2-y,z
loop_
_atom_site_type_symbol
_atom_site_label
_atom_site_fract_x
_atom_site_fract_y
_atom_site_fract_z
Si Si1 0.278721 0.303776 0.373714
Si Si2 0.770993 0.332275 0.000000
Si Si3 0.387806 0.898781 0.631340
Si Si4 0.696655 0.850932 0.761842
Si Si5 0.360388 0.256319 0.237559
Si Si6 0.944791 0.500000 0.633750
Si Si7 0.672465 0.724631 0.000000
Si Si8 0.942791 0.707004 0.629831
O O1 0.288606 0.322950 0.500000
O O2 0.250000 0.250000 0.372642
O O3 0.246654 0.347150 0.310810
O O4 0.331254 0.298226 0.311969
O O5 0.788170 0.364670 0.890323
O O6 0.711716 0.322655 0.000000
O O7 0.796798 0.277036 0.000000
O O8 0.372362 0.902740 0.500000
O O9 0.338452 0.894282 0.707180
O O10 0.415930 0.949406 0.675009
O O11 0.424267 0.850915 0.651134
O O12 0.668683 0.796981 0.757273
O O13 0.414749 0.247700 0.289543
O O14 0.362997 0.277513 0.109555
O O15 0.948777 0.500000 0.500000
O O16 0.000000 0.500000 0.686043
O O17 0.933229 0.722648 0.500000
O O18 0.000000 0.709545 0.661888
#
# Coordination Sequence:
#
# PCOD8275094 Si02
#       8
#    16   8  16  16  16   8   8  16
#     4   9  14  19  29  46  67  86 102 124 160 205
#     4   9  14  22  34  47  65  88 108 127 158 200
#     4   9  16  25  37  53  69  84 107 144 187 224
#     4   9  15  22  33  49  67  84 105 132 167 209
#     4   9  15  22  32  46  64  87 110 134 165 200
#     4   9  16  26  40  55  69  87 113 146 188 233
#     4   9  14  22  33  46  64  86 111 134 156 194
#     4   9  16  25  35  47  65  88 115 147 180 212
#
# _framework density 12.514899
#
# number of rings (size 3 to 8) (size 9 to 14) (size 15 to 20)
#    0.000    3.000    1.538    1.385    0.000    5.538 
#    0.000    0.385    0.000    0.462    0.000    2.154 
#    0.000    0.000    0.000    0.000    0.000    0.000 
#
# Total GULP energy -644543.161656 kJ/mol
# GULP energy per Si atom -12395.060801 kJ/mol
# Density = 1.248641 g / cm^3
# Si number density = 12.514899 Si / 1000 Ang^3
#
#
#
# Elastic Constant Matrix: (Units=GPa)
#
#
# Indices 1 2 3 4 5 6 
#
# 1 90.1911 39.7147 55.2182 0.0000 0.0000 0.0000
# 2 39.7147 31.1287 27.1554 0.0000 0.0000 0.0000
# 3 55.2182 27.1554 104.2539 0.0000 0.0000 0.0000
# 4 0.0000 0.0000 0.0000 7.6000 0.0000 0.0000
# 5 0.0000 0.0000 0.0000 0.0000 16.0522 0.0000
# 6 0.0000 0.0000 0.0000 0.0000 0.0000 18.1001
#
#
#
# Elastic Compliance Matrix: (Units=1/GPa)
#
#
# Indices 1 2 3 4 5 6 
#
# 1 0.029181 -0.030729 -0.007452 0.000000 0.000000 0.000000
# 2 -0.030729 0.073931 -0.002981 0.000000 0.000000 0.000000
# 3 -0.007452 -0.002981 0.014315 0.000000 0.000000 0.000000
# 4 0.000000 0.000000 0.000000 0.131578 0.000000 0.000000
# 5 0.000000 0.000000 0.000000 0.000000 0.062297 0.000000
# 6 0.000000 0.000000 0.000000 0.000000 0.000000 0.055248
#
#
# Mechanical properties :
#
#
# Convention : Reuss Voigt Hill
#
# Bulk Modulus (GPa) = 28.48789 52.19448 40.34119
# Shear Modulus (GPa) = 10.85599 15.24949 13.05274
#
# Velocity S-wave (km/s) = 2.94844 3.49450 3.23302
# Velocity P-wave (km/s) = 5.86546 7.62092 6.80008
#
# Compressibility (1/GPa) = 0.03510263
#
# Stress axis : x y z
#
# Youngs Moduli (GPa) = 34.26882 13.52620 69.85586
#
# Poissons Ratio (x) = 0.41565 0.52053
# Poissons Ratio (y) = 1.05306 0.20825
# Poissons Ratio (z) = 0.25536 0.04032
#
# Static dielectric constant tensor:
#      x y z
#    x 2.542000 0.000000 0.000000 
#    y 0.000000 2.159210 0.000000 
#    z 0.000000 0.000000 2.708840 
# 
# 
# High freq. dielectric constant tensor:
#      x y z
#    x 1.464330 0.000000 0.000000 
#    y 0.000000 1.412380 0.000000 
#    z 0.000000 0.000000 1.479050 
# 
# From -- ./inp_files/31517.got.cif
#   From: 2010.03.12/outbox.cif.g09.slc.cpg/sg65_16_cif.got.tgz:31517.got - 2010.04.10 20:52:16.
