data_PCOD8275451
_publ_section_title
;
Structure prediction by ZEFSAII (Michael W. Deem and Ramdas Pophale) SiO2 
 PCOD8275451
Probable space group: C C C M
;
_chemical_formula_sum "Si O2"
_cell_formula_units_Z 80
_cell_length_a 24.650026
_cell_length_b 22.596731
_cell_length_c 9.422450
_cell_angle_alpha 90.000000
_cell_angle_beta 90.000000
_cell_angle_gamma 90.000000
_cell_volume 5248.398937
_symmetry_space_group_name_H-M "C C C M"
_symmetry_group_IT_number 66
_symmetry_cell_setting 'orthorhombic'
loop_
_space_group_symop_operation_xyz
x,y,z
-x,-y,z
x,-y,1/2-z
-x,y,1/2-z
-x,-y,-z
x,y,-z
-x,y,1/2+z
x,-y,1/2+z
1/2+x,1/2+y,z
1/2-x,1/2-y,z
1/2+x,1/2-y,1/2-z
1/2-x,1/2+y,1/2-z
1/2-x,1/2-y,-z
1/2+x,1/2+y,-z
1/2-x,1/2+y,1/2+z
1/2+x,1/2-y,1/2+z
loop_
_atom_site_type_symbol
_atom_site_label
_atom_site_fract_x
_atom_site_fract_y
_atom_site_fract_z
Si Si1 0.766308 0.942616 0.657815
Si Si2 0.177418 0.227111 0.168189
Si Si3 0.281105 0.823621 0.168130
Si Si4 0.122159 0.114842 0.255782
Si Si5 0.427476 0.446969 0.000000
Si Si6 0.547645 0.415243 0.000000
O O1 0.762091 0.966948 0.500000
O O2 0.718120 0.894799 0.687658
O O3 0.823556 0.909414 0.672238
O O4 0.757612 0.000000 0.750000
O O5 0.229019 0.198715 0.245158
O O6 0.168351 0.290335 0.251683
O O7 0.128158 0.181333 0.193345
O O8 0.186415 0.237038 0.000000
O O9 0.278572 0.807387 0.000000
O O10 0.108465 0.068051 0.134861
O O11 0.072073 0.117210 0.363618
O O12 0.482838 0.408838 0.000000
O O13 0.437528 0.516126 0.000000
#
# Coordination Sequence:
#
# PCOD8275451 Si02
#       6
#    16  16  16  16   8   8
#     4  10  20  30  44  65  88 115 144 177 212 253
#     4  10  18  29  44  62  83 105 137 178 217 252
#     4   9  18  29  44  63  84 108 138 172 210 252
#     4  11  21  32  46  65  81 108 149 187 220 261
#     4  11  22  36  44  63  82 108 145 190 227 271
#     4  11  22  34  50  57  82 114 143 182 237 265
#
# _framework density 15.242744
#
# number of rings (size 3 to 8) (size 9 to 14) (size 15 to 20)
#    0.000    1.800    2.000    4.800    4.200    3.200 
#    0.000    0.000    0.000    0.000    0.000    0.000 
#    0.000    0.000    0.000    0.000    0.000    6.000 
#
# Total GULP energy -495553.212431 kJ/mol
# GULP energy per Si atom -12388.830311 kJ/mol
# Density = 1.520805 g / cm^3
# Si number density = 15.242744 Si / 1000 Ang^3
#
#
#
# Elastic Constant Matrix: (Units=GPa)
#
#
# Indices 1 2 3 4 5 6 
#
# 1 27.0326 26.8543 16.6454 0.0000 0.0000 0.0000
# 2 26.8543 93.5266 48.1950 0.0000 0.0000 0.0000
# 3 16.6454 48.1950 125.0210 0.0000 0.0000 0.0000
# 4 0.0000 0.0000 0.0000 27.7335 0.0000 0.0000
# 5 0.0000 0.0000 0.0000 0.0000 11.4922 0.0000
# 6 0.0000 0.0000 0.0000 0.0000 0.0000 20.8410
#
#
#
# Elastic Compliance Matrix: (Units=1/GPa)
#
#
# Indices 1 2 3 4 5 6 
#
# 1 0.051966 -0.014171 -0.001456 0.000000 0.000000 0.000000
# 2 -0.014171 0.017207 -0.004746 0.000000 0.000000 0.000000
# 3 -0.001456 -0.004746 0.010022 0.000000 0.000000 0.000000
# 4 0.000000 0.000000 0.000000 0.036057 0.000000 0.000000
# 5 0.000000 0.000000 0.000000 0.000000 0.087016 0.000000
# 6 0.000000 0.000000 0.000000 0.000000 0.000000 0.047982
#
#
# Mechanical properties :
#
#
# Convention : Reuss Voigt Hill
#
# Bulk Modulus (GPa) = 26.00857 47.66327 36.83592
# Shear Modulus (GPa) = 16.45746 22.27238 19.36492
#
# Velocity S-wave (km/s) = 3.28943 3.82668 3.56818
# Velocity P-wave (km/s) = 5.61490 7.13176 6.41830
#
# Compressibility (1/GPa) = 0.03844887
#
# Stress axis : x y z
#
# Youngs Moduli (GPa) = 19.24324 58.11633 99.77796
#
# Poissons Ratio (x) = 0.82355 0.14529
# Poissons Ratio (y) = 0.27269 0.47359
# Poissons Ratio (z) = 0.02802 0.27585
#
# Static dielectric constant tensor:
#      x y z
#    x 2.850970 0.000000 0.000000 
#    y 0.000000 3.599130 0.000000 
#    z 0.000000 0.000000 3.071020 
# 
# 
# High freq. dielectric constant tensor:
#      x y z
#    x 1.522210 0.000000 0.000000 
#    y 0.000000 1.581790 0.000000 
#    z 0.000000 0.000000 1.609950 
# 
# From -- ./inp_files/9093.got.cif
#   From: 2010.03.12/outbox.cif.g09.slc.cpg/sg66_5_cif.got.tgz:9093.got - 2010.04.10 21:57:39.
