data_PCOD8275706
_publ_section_title
;
Structure prediction by ZEFSAII (Michael W. Deem and Ramdas Pophale) SiO2 
 PCOD8275706
Probable space group: C C C M
;
_chemical_formula_sum "Si O2"
_cell_formula_units_Z 80
_cell_length_a 23.189288
_cell_length_b 29.121821
_cell_length_c 8.868672
_cell_angle_alpha 90.000000
_cell_angle_beta 90.000000
_cell_angle_gamma 90.000000
_cell_volume 5989.140973
_symmetry_space_group_name_H-M "C C C M"
_symmetry_group_IT_number 66
_symmetry_cell_setting 'orthorhombic'
loop_
_space_group_symop_operation_xyz
x,y,z
-x,-y,z
x,-y,1/2-z
-x,y,1/2-z
-x,-y,-z
x,y,-z
-x,y,1/2+z
x,-y,1/2+z
1/2+x,1/2+y,z
1/2-x,1/2-y,z
1/2+x,1/2-y,1/2-z
1/2-x,1/2+y,1/2-z
1/2-x,1/2-y,-z
1/2+x,1/2+y,-z
1/2-x,1/2+y,1/2+z
1/2+x,1/2-y,1/2+z
loop_
_atom_site_type_symbol
_atom_site_label
_atom_site_fract_x
_atom_site_fract_y
_atom_site_fract_z
Si Si1 0.236577 0.315323 0.325203
Si Si2 0.438776 0.046879 0.677860
Si Si3 0.559353 0.778396 0.173497
Si Si4 0.124313 0.361574 0.324669
Si Si5 0.672713 0.732226 0.825941
O O1 0.252924 0.315047 0.500000
O O2 0.192874 0.357211 0.285767
O O3 0.297144 0.315738 0.229685
O O4 0.200611 0.270292 0.281192
O O5 0.500000 0.059730 0.750000
O O6 0.446639 0.040434 0.500000
O O7 0.393892 0.086981 0.718083
O O8 0.414361 0.000000 0.750000
O O9 0.500000 0.763982 0.250000
O O10 0.585021 0.825843 0.234790
O O11 0.603752 0.735544 0.197508
O O12 0.546508 0.787039 0.000000
O O13 0.113858 0.350944 0.500000
O O14 0.688260 0.741439 0.000000
#
# Coordination Sequence:
#
# PCOD8275706 Si02
#       5
#    16  16  16  16  16
#     4   9  15  24  38  53  67  87 112 140 173 208
#     4  10  19  30  41  53  69  90 116 147 181 218
#     4  10  19  27  37  52  71  94 120 148 178 209
#     4   9  18  29  40  54  71  89 115 149 182 214
#     4   9  16  25  35  50  70  90 112 141 173 205
#
# _framework density 13.357509
#
# number of rings (size 3 to 8) (size 9 to 14) (size 15 to 20)
#    0.000    2.600    0.000    4.800    0.000    6.400 
#    0.000    0.000    0.000    0.000    0.000    0.000 
#    0.000    0.000    0.000    0.000    0.000    1.000 
#
# Total GULP energy -495544.477023 kJ/mol
# GULP energy per Si atom -12388.611926 kJ/mol
# Density = 1.332711 g / cm^3
# Si number density = 13.357509 Si / 1000 Ang^3
#
#
#
# Elastic Constant Matrix: (Units=GPa)
#
#
# Indices 1 2 3 4 5 6 
#
# 1 105.3531 54.1823 47.9920 0.0000 0.0000 0.0000
# 2 54.1823 59.5527 31.0873 0.0000 0.0000 0.0000
# 3 47.9920 31.0873 64.8542 0.0000 0.0000 0.0000
# 4 0.0000 0.0000 0.0000 13.3360 0.0000 0.0000
# 5 0.0000 0.0000 0.0000 0.0000 22.0494 0.0000
# 6 0.0000 0.0000 0.0000 0.0000 0.0000 23.2787
#
#
#
# Elastic Compliance Matrix: (Units=1/GPa)
#
#
# Indices 1 2 3 4 5 6 
#
# 1 0.020803 -0.014526 -0.008432 0.000000 0.000000 0.000000
# 2 -0.014526 0.032538 -0.004848 0.000000 0.000000 0.000000
# 3 -0.008432 -0.004848 0.023982 0.000000 0.000000 0.000000
# 4 0.000000 0.000000 0.000000 0.074985 0.000000 0.000000
# 5 0.000000 0.000000 0.000000 0.000000 0.045353 0.000000
# 6 0.000000 0.000000 0.000000 0.000000 0.000000 0.042958
#
#
# Mechanical properties :
#
#
# Convention : Reuss Voigt Hill
#
# Bulk Modulus (GPa) = 46.05445 55.14257 50.59851
# Shear Modulus (GPa) = 16.47619 18.16604 17.32112
#
# Velocity S-wave (km/s) = 3.51590 3.69180 3.60492
# Velocity P-wave (km/s) = 7.14390 7.71649 7.43571
#
# Compressibility (1/GPa) = 0.02171343
#
# Stress axis : x y z
#
# Youngs Moduli (GPa) = 48.06926 30.73284 41.69740
#
# Poissons Ratio (x) = 0.44642 0.35157
# Poissons Ratio (y) = 0.69825 0.20214
# Poissons Ratio (z) = 0.40530 0.14899
#
# Static dielectric constant tensor:
#      x y z
#    x 3.133850 0.000000 0.000000 
#    y 0.000000 2.599450 0.000000 
#    z 0.000000 0.000000 2.805690 
# 
# 
# High freq. dielectric constant tensor:
#      x y z
#    x 1.503360 0.000000 0.000000 
#    y 0.000000 1.456950 0.000000 
#    z 0.000000 0.000000 1.528370 
# 
# From -- ./inp_files/9481.got.cif
#   From: 2010.03.12/outbox.cif.g09.slc.cpg/sg66_5_cif.got.tgz:9481.got - 2010.04.10 21:57:39.
