data_PCOD8275719
_publ_section_title
;
Structure prediction by ZEFSAII (Michael W. Deem and Ramdas Pophale) SiO2 
 PCOD8275719
Probable space group: C C C M
;
_chemical_formula_sum "Si O2"
_cell_formula_units_Z 96
_cell_length_a 23.810632
_cell_length_b 20.614211
_cell_length_c 9.974317
_cell_angle_alpha 90.000000
_cell_angle_beta 90.000000
_cell_angle_gamma 90.000000
_cell_volume 4895.767744
_symmetry_space_group_name_H-M "C C C M"
_symmetry_group_IT_number 66
_symmetry_cell_setting 'orthorhombic'
loop_
_space_group_symop_operation_xyz
x,y,z
-x,-y,z
x,-y,1/2-z
-x,y,1/2-z
-x,-y,-z
x,y,-z
-x,y,1/2+z
x,-y,1/2+z
1/2+x,1/2+y,z
1/2-x,1/2-y,z
1/2+x,1/2-y,1/2-z
1/2-x,1/2+y,1/2-z
1/2-x,1/2-y,-z
1/2+x,1/2+y,-z
1/2-x,1/2+y,1/2+z
1/2+x,1/2-y,1/2+z
loop_
_atom_site_type_symbol
_atom_site_label
_atom_site_fract_x
_atom_site_fract_y
_atom_site_fract_z
Si Si1 0.752220 0.592680 0.351586
Si Si2 0.449895 0.327629 0.347373
Si Si3 0.210650 0.307987 0.146081
Si Si4 0.628187 0.553934 0.349687
Si Si5 0.622852 0.947111 0.648221
Si Si6 0.385873 0.800263 0.153574
O O1 0.751473 0.626431 0.500000
O O2 0.752033 0.641811 0.228809
O O3 0.695665 0.551516 0.335413
O O4 0.809299 0.550963 0.340949
O O5 0.500000 0.347828 0.250000
O O6 0.470186 0.337135 0.500000
O O7 0.396780 0.374594 0.316615
O O8 0.435184 0.251681 0.323533
O O9 0.250000 0.250000 0.108755
O O10 0.160764 0.281785 0.238568
O O11 0.189869 0.336286 0.000000
O O12 0.602529 0.500000 0.250000
O O13 0.610703 0.533901 0.500000
O O14 0.603873 0.968139 0.500000
O O15 0.597405 0.875520 0.681077
O O16 0.597339 0.000000 0.750000
O O17 0.363142 0.794636 0.000000
#
# Coordination Sequence:
#
# PCOD8275719 Si02
#       6
#    16  16  16  16  16  16
#     4   9  18  32  49  71 103 145 183 208 242 299
#     4  10  22  40  60  79 100 131 175 226 277 325
#     4  10  19  28  43  73 108 137 169 212 257 300
#     4  10  21  36  55  79 106 139 178 220 266 315
#     4   9  17  29  49  78 109 140 171 203 241 292
#     4   9  19  36  55  74 100 137 176 211 254 312
#
# _framework density 19.608772999999999
#
# number of rings (size 3 to 8) (size 9 to 14) (size 15 to 20)
#    0.000    2.500    0.000    3.000    0.000    7.667 
#    0.000    1.667    0.000    0.500    0.000    3.500 
#    0.000    0.000    0.000    0.000    0.000    0.000 
#
# Total GULP energy -594667.590198 kJ/mol
# GULP energy per Si atom -12388.908129 kJ/mol
# Density = 1.956414 g / cm^3
# Si number density = 19.608773 Si / 1000 Ang^3
#
#
#
# Elastic Constant Matrix: (Units=GPa)
#
#
# Indices 1 2 3 4 5 6 
#
# 1 34.4923 17.5376 23.6180 0.0000 0.0000 0.0000
# 2 17.5376 94.3140 52.1806 0.0000 0.0000 0.0000
# 3 23.6180 52.1806 137.9982 0.0000 0.0000 0.0000
# 4 0.0000 0.0000 0.0000 38.2000 0.0000 0.0000
# 5 0.0000 0.0000 0.0000 0.0000 42.0076 0.0000
# 6 0.0000 0.0000 0.0000 0.0000 0.0000 13.6732
#
#
#
# Elastic Compliance Matrix: (Units=1/GPa)
#
#
# Indices 1 2 3 4 5 6 
#
# 1 0.033948 -0.003918 -0.004329 0.000000 0.000000 0.000000
# 2 -0.003918 0.013860 -0.004570 0.000000 0.000000 0.000000
# 3 -0.004329 -0.004570 0.009715 0.000000 0.000000 0.000000
# 4 0.000000 0.000000 0.000000 0.026178 0.000000 0.000000
# 5 0.000000 0.000000 0.000000 0.000000 0.023805 0.000000
# 6 0.000000 0.000000 0.000000 0.000000 0.000000 0.073136
#
#
# Mechanical properties :
#
#
# Convention : Reuss Voigt Hill
#
# Bulk Modulus (GPa) = 31.35783 50.38633 40.87208
# Shear Modulus (GPa) = 23.05147 30.34069 26.69608
#
# Velocity S-wave (km/s) = 3.43238 3.93784 3.69377
# Velocity P-wave (km/s) = 5.63336 6.81374 6.25147
#
# Compressibility (1/GPa) = 0.03188996
#
# Stress axis : x y z
#
# Youngs Moduli (GPa) = 29.45690 72.15037 102.92870
#
# Poissons Ratio (x) = 0.28266 0.44555
# Poissons Ratio (y) = 0.11540 0.47041
# Poissons Ratio (z) = 0.12751 0.32975
#
# Static dielectric constant tensor:
#      x y z
#    x 3.141800 0.000000 0.000000 
#    y 0.000000 3.474640 0.000000 
#    z 0.000000 0.000000 3.824000 
# 
# 
# High freq. dielectric constant tensor:
#      x y z
#    x 1.717490 0.000000 0.000000 
#    y 0.000000 1.754510 0.000000 
#    z 0.000000 0.000000 1.782800 
# 
# From -- ./inp_files/9124.got.cif
#   From: 2010.03.12/outbox.cif.g09.slc.cpg/sg66_5_cif.got.tgz:9124.got - 2010.04.10 21:57:39.
