data_PCOD8275956
_publ_section_title
;
Structure prediction by ZEFSAII (Michael W. Deem and Ramdas Pophale) SiO2 
 PCOD8275956
Probable space group: C C C M
;
_chemical_formula_sum "Si O2"
_cell_formula_units_Z 88
_cell_length_a 5.020143
_cell_length_b 30.910668
_cell_length_c 28.469805
_cell_angle_alpha 90.000000
_cell_angle_beta 90.000000
_cell_angle_gamma 90.000000
_cell_volume 4417.829709
_symmetry_space_group_name_H-M "C C C M"
_symmetry_group_IT_number 66
_symmetry_cell_setting 'orthorhombic'
loop_
_space_group_symop_operation_xyz
x,y,z
-x,-y,z
x,-y,1/2-z
-x,y,1/2-z
-x,-y,-z
x,y,-z
-x,y,1/2+z
x,-y,1/2+z
1/2+x,1/2+y,z
1/2-x,1/2-y,z
1/2+x,1/2-y,1/2-z
1/2-x,1/2+y,1/2-z
1/2-x,1/2-y,-z
1/2+x,1/2+y,-z
1/2-x,1/2+y,1/2+z
1/2+x,1/2-y,1/2+z
loop_
_atom_site_type_symbol
_atom_site_label
_atom_site_fract_x
_atom_site_fract_y
_atom_site_fract_z
Si Si1 0.754864 0.797229 0.782729
Si Si2 0.571728 0.544862 0.111760
Si Si3 0.005228 0.279550 0.500000
Si Si4 0.038873 0.139303 0.860918
Si Si5 0.916048 0.439463 0.052291
Si Si6 0.038519 0.346334 0.580889
O O1 0.500000 0.808656 0.750000
O O2 0.750000 0.750000 0.809497
O O3 0.828076 0.837359 0.816269
O O4 0.000000 0.789871 0.750000
O O5 0.500000 0.500000 0.139917
O O6 0.523481 0.586758 0.145674
O O7 0.371499 0.543620 0.067633
O O8 0.868620 0.544473 0.090453
O O9 0.750000 0.250000 0.500000
O O10 0.250000 0.250000 0.500000
O O11 0.033708 0.305512 0.547883
O O12 0.235183 0.148371 0.903529
O O13 0.747253 0.158385 0.875085
O O14 0.886065 0.387857 0.050546
O O15 0.984985 0.456327 0.000000
#
# Coordination Sequence:
#
# PCOD8275956 Si02
#       6
#    16  16   8  16  16  16
#     4  10  21  38  61  89 114 137 175 230 286 348
#     4  10  21  33  50  80 109 142 189 230 277 331
#     4  12  24  36  52  76 109 152 199 248 284 316
#     4  10  21  37  60  80 110 152 181 226 290 341
#     4  10  19  33  52  70 104 149 188 238 281 315
#     4  10  21  37  52  76 109 150 196 228 273 338
#
# _framework density 19.919281999999999
#
# number of rings (size 3 to 8) (size 9 to 14) (size 15 to 20)
#    0.000    1.818    0.909    3.273    0.000    4.364 
#    0.000    0.000    0.000    0.545    0.000    1.273 
#    0.000    0.000    0.000    0.000    0.000    0.000 
#
# Total GULP energy -545089.857009 kJ/mol
# GULP energy per Si atom -12388.405841 kJ/mol
# Density = 1.987394 g / cm^3
# Si number density = 19.919282 Si / 1000 Ang^3
#
#
#
# Elastic Constant Matrix: (Units=GPa)
#
#
# Indices 1 2 3 4 5 6 
#
# 1 108.7219 34.3189 5.7891 0.0000 0.0000 0.0000
# 2 34.3189 168.2853 50.0032 0.0000 0.0000 0.0000
# 3 5.7891 50.0032 50.4946 0.0000 0.0000 0.0000
# 4 0.0000 0.0000 0.0000 -8.4730 0.0000 0.0000
# 5 0.0000 0.0000 0.0000 0.0000 10.4535 0.0000
# 6 0.0000 0.0000 0.0000 0.0000 0.0000 27.8164
#
#
#
# Elastic Compliance Matrix: (Units=1/GPa)
#
#
# Indices 1 2 3 4 5 6 
#
# 1 0.009884 -0.002379 0.001223 0.000000 0.000000 0.000000
# 2 -0.002379 0.008992 -0.008632 0.000000 0.000000 0.000000
# 3 0.001223 -0.008632 0.028212 0.000000 0.000000 0.000000
# 4 0.000000 0.000000 0.000000 -0.118022 0.000000 0.000000
# 5 0.000000 0.000000 0.000000 0.000000 0.095661 0.000000
# 6 0.000000 0.000000 0.000000 0.000000 0.000000 0.035950
#
#
# Mechanical properties :
#
#
# Convention : Reuss Voigt Hill
#
# Bulk Modulus (GPa) = 36.34883 56.41381 46.38132
# Shear Modulus (GPa) = 55.91323 21.78544 38.84933
#
# Velocity S-wave (km/s) = 5.30385 3.31068 4.42105
# Velocity P-wave (km/s) = 7.46964 6.55720 7.02824
#
# Compressibility (1/GPa) = 0.02751120
#
# Stress axis : x y z
#
# Youngs Moduli (GPa) = 101.17789 111.20636 35.44593
#
# Poissons Ratio (x) = 0.26454 -0.04334
# Poissons Ratio (y) = 0.24069 0.30597
# Poissons Ratio (z) = -0.12370 0.95994
#
# Static dielectric constant tensor:
#      x y z
#    x 3.865310 0.000000 0.000000 
#    y 0.000000 4.553360 0.000000 
#    z 0.000000 0.000000 3.095280 
# 
# 
# High freq. dielectric constant tensor:
#      x y z
#    x 1.803350 0.000000 0.000000 
#    y 0.000000 1.797610 0.000000 
#    z 0.000000 0.000000 1.719490 
# 
# From -- ./inp_files/61664.got.cif
#   From: 2010.03.12/outbox.cif.g09.slc.cpg/sg66_31_cif.got.tgz:61664.got - 2010.04.10 21:57:39.
