data_PCOD8275792
_publ_section_title
;
Structure prediction by ZEFSAII (Michael W. Deem and Ramdas Pophale) SiO2 
 PCOD8275792
Probable space group: C C C M
;
_chemical_formula_sum "Si O2"
_cell_formula_units_Z 80
_cell_length_a 37.058827
_cell_length_b 5.190429
_cell_length_c 21.754473
_cell_angle_alpha 90.000000
_cell_angle_beta 90.000000
_cell_angle_gamma 90.000000
_cell_volume 4184.499212
_symmetry_space_group_name_H-M "C C C M"
_symmetry_group_IT_number 66
_symmetry_cell_setting 'orthorhombic'
loop_
_space_group_symop_operation_xyz
x,y,z
-x,-y,z
x,-y,1/2-z
-x,y,1/2-z
-x,-y,-z
x,y,-z
-x,y,1/2+z
x,-y,1/2+z
1/2+x,1/2+y,z
1/2-x,1/2-y,z
1/2+x,1/2-y,1/2-z
1/2-x,1/2+y,1/2-z
1/2-x,1/2-y,-z
1/2+x,1/2+y,-z
1/2-x,1/2+y,1/2+z
1/2+x,1/2-y,1/2+z
loop_
_atom_site_type_symbol
_atom_site_label
_atom_site_fract_x
_atom_site_fract_y
_atom_site_fract_z
Si Si1 0.708620 0.657455 0.376180
Si Si2 0.478088 0.758433 0.570963
Si Si3 0.357256 0.882025 0.927741
Si Si4 0.774332 0.000000 0.750000
Si Si5 0.225942 0.993910 0.500000
Si Si6 0.099047 0.885434 0.571616
O O1 0.750000 0.750000 0.374201
O O2 0.679287 0.881546 0.386635
O O3 0.700783 0.517744 0.311184
O O4 0.702473 0.478150 0.437058
O O5 0.500000 0.500000 0.579609
O O6 0.471728 0.831997 0.500000
O O7 0.439127 0.699864 0.602368
O O8 0.500000 0.000000 0.601448
O O9 0.384596 0.656407 0.904256
O O10 0.373202 0.159567 0.913854
O O11 0.347885 0.846360 0.000000
O O12 0.750000 0.750000 0.758286
O O13 0.250000 0.750000 0.500000
O O14 0.250000 0.250000 0.500000
O O15 0.091621 0.922678 0.500000
#
# Coordination Sequence:
#
# PCOD8275792 Si02
#       6
#    16  16  16   8   8  16
#     4  10  21  37  53  74  96 130 171 213 255 303
#     4   9  15  24  40  60  85 123 163 194 226 281
#     4  10  19  31  45  66  94 127 159 205 251 289
#     4  10  22  38  54  72  96 124 163 216 265 304
#     4  10  20  32  50  72  94 118 158 210 248 292
#     4   9  18  29  42  64  95 125 161 200 245 290
#
# _framework density 19.118176999999999
#
# number of rings (size 3 to 8) (size 9 to 14) (size 15 to 20)
#    0.000    2.400    1.000    1.800    0.000   11.200 
#    0.000    0.000    0.000    0.000    0.000    0.000 
#    0.000    0.000    0.000   13.500    0.000    7.000 
#
# Total GULP energy -495530.462134 kJ/mol
# GULP energy per Si atom -12388.261553 kJ/mol
# Density = 1.907466 g / cm^3
# Si number density = 19.118177 Si / 1000 Ang^3
#
#
#
# Elastic Constant Matrix: (Units=GPa)
#
#
# Indices 1 2 3 4 5 6 
#
# 1 76.4960 -11.1327 2.1109 0.0000 0.0000 0.0000
# 2 -11.1327 64.1465 -2.8883 0.0000 0.0000 0.0000
# 3 2.1109 -2.8883 99.7562 0.0000 0.0000 0.0000
# 4 0.0000 0.0000 0.0000 9.8749 0.0000 0.0000
# 5 0.0000 0.0000 0.0000 0.0000 3.4777 0.0000
# 6 0.0000 0.0000 0.0000 0.0000 0.0000 21.0510
#
#
#
# Elastic Compliance Matrix: (Units=1/GPa)
#
#
# Indices 1 2 3 4 5 6 
#
# 1 0.013416 0.002319 -0.000217 0.000000 0.000000 0.000000
# 2 0.002319 0.016010 0.000414 0.000000 0.000000 0.000000
# 3 -0.000217 0.000414 0.010041 0.000000 0.000000 0.000000
# 4 0.000000 0.000000 0.000000 0.101267 0.000000 0.000000
# 5 0.000000 0.000000 0.000000 0.000000 0.287542 0.000000
# 6 0.000000 0.000000 0.000000 0.000000 0.000000 0.047504
#
#
# Mechanical properties :
#
#
# Convention : Reuss Voigt Hill
#
# Bulk Modulus (GPa) = 22.47188 24.06429 23.26808
# Shear Modulus (GPa) = 10.29695 23.70131 16.99913
#
# Velocity S-wave (km/s) = 2.32328 3.52480 2.98511
# Velocity P-wave (km/s) = 4.35621 5.40185 4.90696
#
# Compressibility (1/GPa) = 0.04450005
#
# Stress axis : x y z
#
# Youngs Moduli (GPa) = 74.53792 62.45948 99.59137
#
# Poissons Ratio (x) = -0.14482 0.02159
# Poissons Ratio (y) = -0.17282 -0.04128
# Poissons Ratio (z) = 0.01616 -0.02589
#
# Static dielectric constant tensor:
#      x y z
#    x 3.739290 0.000000 0.000000 
#    y 0.000000 3.495100 0.000000 
#    z 0.000000 0.000000 3.087540 
# 
# 
# High freq. dielectric constant tensor:
#      x y z
#    x 1.744480 0.000000 0.000000 
#    y 0.000000 1.753780 0.000000 
#    z 0.000000 0.000000 1.671300 
# 
# From -- ./inp_files/60375.got.cif
#   From: 2010.03.12/outbox.cif.g09.slc.cpg/sg66_31_cif.got.tgz:60375.got - 2010.04.10 21:57:39.
