data_PCOD8275070
_publ_section_title
;
Structure prediction by ZEFSAII (Michael W. Deem and Ramdas Pophale) SiO2 
 PCOD8275070
Probable space group: C M M M
;
_chemical_formula_sum "Si O2"
_cell_formula_units_Z 88
_cell_length_a 9.196078
_cell_length_b 20.151769
_cell_length_c 27.820093
_cell_angle_alpha 90.000000
_cell_angle_beta 90.000000
_cell_angle_gamma 90.000000
_cell_volume 5155.542839
_symmetry_space_group_name_H-M "C M M M"
_symmetry_group_IT_number 65
_symmetry_cell_setting 'orthorhombic'
loop_
_space_group_symop_operation_xyz
x,y,z
-x,-y,z
x,-y,-z
-x,y,-z
-x,-y,-z
x,y,-z
-x,y,z
x,-y,z
1/2+x,1/2+y,z
1/2-x,1/2-y,z
1/2+x,1/2-y,-z
1/2-x,1/2+y,-z
1/2-x,1/2-y,-z
1/2+x,1/2+y,-z
1/2-x,1/2+y,z
1/2+x,1/2-y,z
loop_
_atom_site_type_symbol
_atom_site_label
_atom_site_fract_x
_atom_site_fract_y
_atom_site_fract_z
Si Si1 0.330182 0.923937 0.187055
Si Si2 0.836000 0.078869 0.907551
Si Si3 0.327274 0.926291 0.446410
Si Si4 0.835314 0.420784 0.000000
Si Si5 0.171382 0.683410 0.626301
Si Si6 0.669436 0.183874 0.735914
O O1 0.500000 0.917357 0.175058
O O2 0.242407 0.897538 0.141022
O O3 0.283510 0.878882 0.232069
O O4 0.290049 0.000000 0.199659
O O5 0.747597 0.107053 0.953120
O O6 0.000000 0.107079 0.908720
O O7 0.837417 0.000000 0.909862
O O8 0.276836 0.904871 0.500000
O O9 0.500000 0.927217 0.443910
O O10 0.265660 0.875306 0.407050
O O11 0.267649 0.000000 0.434549
O O12 0.835485 0.500000 0.000000
O O13 0.000000 0.393636 0.000000
O O14 0.250000 0.750000 0.609321
O O15 0.212107 0.666246 0.681235
O O16 0.000000 0.693017 0.619618
O O17 0.500000 0.198512 0.740838
O O18 0.750000 0.250000 0.753860
#
# Coordination Sequence:
#
# PCOD8275070 Si02
#       6
#    16  16  16   8  16  16
#     4   9  17  29  44  63  87 113 144 183 224 264
#     4   9  16  25  38  59  87 116 146 181 221 264
#     4   8  14  25  42  65  91 117 147 184 223 263
#     4   9  15  23  37  57  84 119 152 181 218 261
#     4   9  17  29  45  65  88 114 146 184 224 265
#     4   9  18  31  46  64  87 116 148 183 223 267
#
# _framework density 17.069006999999999
#
# number of rings (size 3 to 8) (size 9 to 14) (size 15 to 20)
#    0.000    3.182    0.000    1.364    0.000    5.091 
#    0.000    3.636    0.000    0.545    0.000    7.000 
#    0.000    0.000    0.000    0.000    0.000    0.000 
#
# Total GULP energy -545487.532067 kJ/mol
# GULP energy per Si atom -12397.443911 kJ/mol
# Density = 1.703016 g / cm^3
# Si number density = 17.069007 Si / 1000 Ang^3
#
#
#
# Elastic Constant Matrix: (Units=GPa)
#
#
# Indices 1 2 3 4 5 6 
#
# 1 59.9262 35.9031 49.1243 0.0000 0.0000 0.0000
# 2 35.9031 93.2334 81.8602 0.0000 0.0000 0.0000
# 3 49.1243 81.8602 136.1786 0.0000 0.0000 0.0000
# 4 0.0000 0.0000 0.0000 10.0238 0.0000 0.0000
# 5 0.0000 0.0000 0.0000 0.0000 18.1526 0.0000
# 6 0.0000 0.0000 0.0000 0.0000 0.0000 19.9549
#
#
#
# Elastic Compliance Matrix: (Units=1/GPa)
#
#
# Indices 1 2 3 4 5 6 
#
# 1 0.024223 -0.003507 -0.006630 0.000000 0.000000 0.000000
# 2 -0.003507 0.023222 -0.012694 0.000000 0.000000 0.000000
# 3 -0.006630 -0.012694 0.017366 0.000000 0.000000 0.000000
# 4 0.000000 0.000000 0.000000 0.099763 0.000000 0.000000
# 5 0.000000 0.000000 0.000000 0.000000 0.055088 0.000000
# 6 0.000000 0.000000 0.000000 0.000000 0.000000 0.050113
#
#
# Mechanical properties :
#
#
# Convention : Reuss Voigt Hill
#
# Bulk Modulus (GPa) = 52.22285 69.23481 60.72883
# Shear Modulus (GPa) = 15.53663 17.78965 16.66314
#
# Velocity S-wave (km/s) = 3.02027 3.23184 3.12784
# Velocity P-wave (km/s) = 6.54402 7.38757 6.97855
#
# Compressibility (1/GPa) = 0.01914871
#
# Stress axis : x y z
#
# Youngs Moduli (GPa) = 41.28275 43.06290 57.58426
#
# Poissons Ratio (x) = 0.15101 0.38180
# Poissons Ratio (y) = 0.14476 0.73099
# Poissons Ratio (z) = 0.27371 0.54665
#
# Static dielectric constant tensor:
#      x y z
#    x 3.068930 0.000000 0.000000 
#    y 0.000000 3.046560 0.000000 
#    z 0.000000 0.000000 3.384730 
# 
# 
# High freq. dielectric constant tensor:
#      x y z
#    x 1.641480 0.000000 0.000000 
#    y 0.000000 1.624790 0.000000 
#    z 0.000000 0.000000 1.667250 
# 
# From -- ./inp_files/76636.got.cif
#   From: 2010.03.12/outbox.cif.g09.slc.cpg/sg65_39_cif.got.tgz:76636.got - 2010.04.10 20:52:16.
