data_PCOD8275378
_publ_section_title
;
Structure prediction by ZEFSAII (Michael W. Deem and Ramdas Pophale) SiO2 
 PCOD8275378
Probable space group: C C C M
;
_chemical_formula_sum "Si O2"
_cell_formula_units_Z 52
_cell_length_a 21.346351
_cell_length_b 7.227161
_cell_length_c 17.378131
_cell_angle_alpha 90.000000
_cell_angle_beta 90.000000
_cell_angle_gamma 90.000000
_cell_volume 2680.985361
_symmetry_space_group_name_H-M "C C C M"
_symmetry_group_IT_number 66
_symmetry_cell_setting 'orthorhombic'
loop_
_space_group_symop_operation_xyz
x,y,z
-x,-y,z
x,-y,1/2-z
-x,y,1/2-z
-x,-y,-z
x,y,-z
-x,y,1/2+z
x,-y,1/2+z
1/2+x,1/2+y,z
1/2-x,1/2-y,z
1/2+x,1/2-y,1/2-z
1/2-x,1/2+y,1/2-z
1/2-x,1/2-y,-z
1/2+x,1/2+y,-z
1/2-x,1/2+y,1/2+z
1/2+x,1/2-y,1/2+z
loop_
_atom_site_type_symbol
_atom_site_label
_atom_site_fract_x
_atom_site_fract_y
_atom_site_fract_z
Si Si1 0.677297 0.210200 0.587674
Si Si2 0.000000 0.500000 0.250000
Si Si3 0.692853 0.871921 0.319693
Si Si4 0.592292 0.691320 0.218987
O O1 0.657562 0.246734 0.500000
O O2 0.750000 0.250000 0.602773
O O3 0.633792 0.339275 0.641932
O O4 0.666934 0.995745 0.610117
O O5 0.957256 0.643127 0.200470
O O6 0.750000 0.750000 0.350956
O O7 0.635596 0.749716 0.290336
O O8 0.718152 0.000000 0.250000
O O9 0.561065 0.500000 0.250000
#
# Coordination Sequence:
#
# PCOD8275378 Si02
#       4
#    16   4  16  16
#     4  10  20  35  56  88 127 154 185 240 299 352
#     4  12  22  40  62  90 108 152 208 246 280 334
#     4  10  17  31  54  84 115 152 194 240 288 339
#     4  11  21  38  62  85 114 152 201 243 285 342
#
# _framework density 19.395854
#
# number of rings (size 3 to 8) (size 9 to 14) (size 15 to 20)
#    0.000    1.538    4.615    6.923    0.000    0.615 
#    0.000    2.308    0.000    1.846    0.000    0.000 
#    0.000    0.000    0.000    0.000    0.000    0.000 
#
# Total GULP energy -322171.259758 kJ/mol
# GULP energy per Si atom -12391.202298 kJ/mol
# Density = 1.935171 g / cm^3
# Si number density = 19.395854 Si / 1000 Ang^3
#
#
#
# Elastic Constant Matrix: (Units=GPa)
#
#
# Indices 1 2 3 4 5 6 
#
# 1 83.0077 31.5386 37.8043 0.0000 0.0000 0.0000
# 2 31.5386 113.3893 36.5360 0.0000 0.0000 0.0000
# 3 37.8043 36.5360 100.9116 0.0000 0.0000 0.0000
# 4 0.0000 0.0000 0.0000 12.4818 0.0000 0.0000
# 5 0.0000 0.0000 0.0000 0.0000 9.4761 0.0000
# 6 0.0000 0.0000 0.0000 0.0000 0.0000 39.4056
#
#
#
# Elastic Compliance Matrix: (Units=1/GPa)
#
#
# Indices 1 2 3 4 5 6 
#
# 1 0.015229 -0.002714 -0.004723 0.000000 0.000000 0.000000
# 2 -0.002714 0.010468 -0.002773 0.000000 0.000000 0.000000
# 3 -0.004723 -0.002773 0.012683 0.000000 0.000000 0.000000
# 4 0.000000 0.000000 0.000000 0.080117 0.000000 0.000000
# 5 0.000000 0.000000 0.000000 0.000000 0.105529 0.000000
# 6 0.000000 0.000000 0.000000 0.000000 0.000000 0.025377
#
#
# Mechanical properties :
#
#
# Convention : Reuss Voigt Hill
#
# Bulk Modulus (GPa) = 55.67941 56.56294 56.12117
# Shear Modulus (GPa) = 18.12852 25.03467 21.58159
#
# Velocity S-wave (km/s) = 3.06054 3.59656 3.33932
# Velocity P-wave (km/s) = 6.42327 6.81709 6.62311
#
# Compressibility (1/GPa) = 0.01795996
#
# Stress axis : x y z
#
# Youngs Moduli (GPa) = 65.66357 95.53237 78.84634
#
# Poissons Ratio (x) = 0.25930 0.37236
# Poissons Ratio (y) = 0.17822 0.21865
# Poissons Ratio (z) = 0.31010 0.26492
#
# Static dielectric constant tensor:
#      x y z
#    x 3.600530 0.000000 0.000000 
#    y 0.000000 3.822940 0.000000 
#    z 0.000000 0.000000 3.273860 
# 
# 
# High freq. dielectric constant tensor:
#      x y z
#    x 1.747790 0.000000 0.000000 
#    y 0.000000 1.765570 0.000000 
#    z 0.000000 0.000000 1.711070 
# 
# From -- ./inp_files/42314.got.cif
#   From: 2010.03.12/outbox.cif.g09.slc.cpg/sg66_22_cif.got.tgz:42314.got - 2010.04.10 21:57:39.
