data_PCOD8275881
_publ_section_title
;
Structure prediction by ZEFSAII (Michael W. Deem and Ramdas Pophale) SiO2 
 PCOD8275881
Probable space group: C C C M
;
_chemical_formula_sum "Si O2"
_cell_formula_units_Z 80
_cell_length_a 8.185648
_cell_length_b 26.527110
_cell_length_c 17.976141
_cell_angle_alpha 90.000000
_cell_angle_beta 90.000000
_cell_angle_gamma 90.000000
_cell_volume 3903.367747
_symmetry_space_group_name_H-M "C C C M"
_symmetry_group_IT_number 66
_symmetry_cell_setting 'orthorhombic'
loop_
_space_group_symop_operation_xyz
x,y,z
-x,-y,z
x,-y,1/2-z
-x,y,1/2-z
-x,-y,-z
x,y,-z
-x,y,1/2+z
x,-y,1/2+z
1/2+x,1/2+y,z
1/2-x,1/2-y,z
1/2+x,1/2-y,1/2-z
1/2-x,1/2+y,1/2-z
1/2-x,1/2-y,-z
1/2+x,1/2+y,-z
1/2-x,1/2+y,1/2+z
1/2+x,1/2-y,1/2+z
loop_
_atom_site_type_symbol
_atom_site_label
_atom_site_fract_x
_atom_site_fract_y
_atom_site_fract_z
Si Si1 0.391493 0.951817 0.913525
Si Si2 0.556407 0.749116 0.332546
Si Si3 0.437200 0.844100 0.081737
Si Si4 0.942471 0.947191 0.664510
Si Si5 0.047523 0.151596 0.416557
O O1 0.502074 0.900999 0.902961
O O2 0.251340 0.948384 0.850899
O O3 0.500000 0.000000 0.895216
O O4 0.325898 0.953306 0.000000
O O5 0.500000 0.740866 0.250000
O O6 0.750000 0.750000 0.339943
O O7 0.488741 0.802977 0.361712
O O8 0.480610 0.702618 0.378580
O O9 0.242130 0.848233 0.086484
O O10 0.488974 0.825378 0.000000
O O11 0.021127 0.898278 0.624720
O O12 0.000000 0.944574 0.750000
O O13 0.000000 0.000000 0.628525
O O14 0.979738 0.150369 0.500000
#
# Coordination Sequence:
#
# PCOD8275881 Si02
#       5
#    16  16  16  16  16
#     4   9  18  35  58  81 105 137 180 226 266 309
#     4  10  19  32  51  75 103 133 166 206 257 313
#     4   8  15  30  53  78 100 127 171 219 257 301
#     4  10  20  34  51  78 112 141 172 212 264 320
#     4   9  17  31  54  78  99 130 173 217 255 301
#
# _framework density 20.495123
#
# number of rings (size 3 to 8) (size 9 to 14) (size 15 to 20)
#    0.000    2.800    0.000    3.000    0.000    4.000 
#    0.000   16.000    0.000    4.800    0.000    0.000 
#    0.000    0.000    0.000    0.000    0.000    0.000 
#
# Total GULP energy -495577.001946 kJ/mol
# GULP energy per Si atom -12389.425049 kJ/mol
# Density = 2.044848 g / cm^3
# Si number density = 20.495123 Si / 1000 Ang^3
#
#
#
# Elastic Constant Matrix: (Units=GPa)
#
#
# Indices 1 2 3 4 5 6 
#
# 1 23.0670 22.3357 27.7826 0.0000 0.0000 0.0000
# 2 22.3357 225.4394 90.6355 0.0000 0.0000 0.0000
# 3 27.7826 90.6355 143.3964 0.0000 0.0000 0.0000
# 4 0.0000 0.0000 0.0000 81.3497 0.0000 0.0000
# 5 0.0000 0.0000 0.0000 0.0000 15.0192 0.0000
# 6 0.0000 0.0000 0.0000 0.0000 0.0000 23.1401
#
#
#
# Elastic Compliance Matrix: (Units=1/GPa)
#
#
# Indices 1 2 3 4 5 6 
#
# 1 0.056985 -0.001618 -0.010018 0.000000 0.000000 0.000000
# 2 -0.001618 0.005993 -0.003474 0.000000 0.000000 0.000000
# 3 -0.010018 -0.003474 0.011111 0.000000 0.000000 0.000000
# 4 0.000000 0.000000 0.000000 0.012293 0.000000 0.000000
# 5 0.000000 0.000000 0.000000 0.000000 0.066581 0.000000
# 6 0.000000 0.000000 0.000000 0.000000 0.000000 0.043215
#
#
# Mechanical properties :
#
#
# Convention : Reuss Voigt Hill
#
# Bulk Modulus (GPa) = 22.79599 74.82337 48.80968
# Shear Modulus (GPa) = 20.74514 40.64507 30.69511
#
# Velocity S-wave (km/s) = 3.18496 4.45810 3.87418
# Velocity P-wave (km/s) = 4.96710 7.94271 6.62415
#
# Compressibility (1/GPa) = 0.04386737
#
# Stress axis : x y z
#
# Youngs Moduli (GPa) = 17.54861 166.86251 90.00419
#
# Poissons Ratio (x) = 0.27004 0.90163
# Poissons Ratio (y) = 0.02840 0.31271
# Poissons Ratio (z) = 0.17580 0.57974
#
# Static dielectric constant tensor:
#      x y z
#    x 3.079080 0.000000 0.000000 
#    y 0.000000 4.504510 0.000000 
#    z 0.000000 0.000000 3.602280 
# 
# 
# High freq. dielectric constant tensor:
#      x y z
#    x 1.737130 0.000000 0.000000 
#    y 0.000000 1.838040 0.000000 
#    z 0.000000 0.000000 1.796120 
# 
# From -- ./inp_files/36997.got.cif
#   From: 2010.03.12/outbox.cif.g09.slc.cpg/sg66_19_cif.got.tgz:36997.got - 2010.04.10 21:57:39.
