data_PCOD8275162
_publ_section_title
;
Structure prediction by ZEFSAII (Michael W. Deem and Ramdas Pophale) SiO2 
 PCOD8275162
Probable space group: C M M M
;
_chemical_formula_sum "Si O2"
_cell_formula_units_Z 88
_cell_length_a 41.997662
_cell_length_b 9.624075
_cell_length_c 13.507626
_cell_angle_alpha 90.000000
_cell_angle_beta 90.000000
_cell_angle_gamma 90.000000
_cell_volume 5459.629103
_symmetry_space_group_name_H-M "C M M M"
_symmetry_group_IT_number 65
_symmetry_cell_setting 'orthorhombic'
loop_
_space_group_symop_operation_xyz
x,y,z
-x,-y,z
x,-y,-z
-x,y,-z
-x,-y,-z
x,y,-z
-x,y,z
x,-y,z
1/2+x,1/2+y,z
1/2-x,1/2-y,z
1/2+x,1/2-y,-z
1/2-x,1/2+y,-z
1/2-x,1/2-y,-z
1/2+x,1/2+y,-z
1/2-x,1/2+y,z
1/2+x,1/2-y,z
loop_
_atom_site_type_symbol
_atom_site_label
_atom_site_fract_x
_atom_site_fract_y
_atom_site_fract_z
Si Si1 0.000000 0.665054 0.111111
Si Si2 0.127476 0.660297 0.886601
Si Si3 0.062693 0.661516 0.223252
Si Si4 0.407742 0.338921 0.613907
Si Si5 0.156466 0.838919 0.724642
Si Si6 0.220299 0.160944 0.614565
O O1 0.968925 0.717218 0.169495
O O2 0.000000 0.500000 0.104098
O O3 0.000000 0.727732 0.000000
O O4 0.136547 0.500000 0.871801
O O5 0.091563 0.689073 0.851827
O O6 0.152334 0.751280 0.824549
O O7 0.130218 0.706140 0.000000
O O8 0.059890 0.500000 0.251846
O O9 0.067321 0.747863 0.323882
O O10 0.411009 0.295585 0.500000
O O11 0.416011 0.500000 0.630252
O O12 0.371781 0.306290 0.647727
O O13 0.189270 0.792310 0.674566
O O14 0.156887 0.000000 0.753799
O O15 0.213490 0.192779 0.500000
O O16 0.250000 0.250000 0.654048
O O17 0.228255 0.000000 0.631681
#
# Coordination Sequence:
#
# PCOD8275162 Si02
#       6
#     8  16  16  16  16  16
#     4   9  16  28  48  69  88 114 147 181 220 267
#     4   9  17  29  45  66  91 115 141 179 225 265
#     4   9  17  29  46  68  90 113 145 183 220 260
#     4   9  17  30  47  65  88 119 150 179 215 259
#     4   9  17  29  46  67  89 115 148 182 214 254
#     4   9  17  29  45  66  92 119 145 175 213 257
#
# _framework density 16.118310999999999
#
# number of rings (size 3 to 8) (size 9 to 14) (size 15 to 20)
#    0.000    3.000    0.000    1.091    0.000    5.818 
#    0.000    0.909    0.000    8.727    0.000    0.000 
#    0.000    0.000    0.000    0.000    0.000    0.000 
#
# Total GULP energy -545654.008623 kJ/mol
# GULP energy per Si atom -12401.227469 kJ/mol
# Density = 1.608162 g / cm^3
# Si number density = 16.118311 Si / 1000 Ang^3
#
#
#
# Elastic Constant Matrix: (Units=GPa)
#
#
# Indices 1 2 3 4 5 6 
#
# 1 120.5778 50.6745 72.0174 0.0000 0.0000 0.0000
# 2 50.6745 53.9230 60.5333 0.0000 0.0000 0.0000
# 3 72.0174 60.5333 142.1173 0.0000 0.0000 0.0000
# 4 0.0000 0.0000 0.0000 29.1953 0.0000 0.0000
# 5 0.0000 0.0000 0.0000 0.0000 25.6025 0.0000
# 6 0.0000 0.0000 0.0000 0.0000 0.0000 24.3564
#
#
#
# Elastic Compliance Matrix: (Units=1/GPa)
#
#
# Indices 1 2 3 4 5 6 
#
# 1 0.014312 -0.010172 -0.002920 0.000000 0.000000 0.000000
# 2 -0.010172 0.042767 -0.013061 0.000000 0.000000 0.000000
# 3 -0.002920 -0.013061 0.014079 0.000000 0.000000 0.000000
# 4 0.000000 0.000000 0.000000 0.034252 0.000000 0.000000
# 5 0.000000 0.000000 0.000000 0.000000 0.039059 0.000000
# 6 0.000000 0.000000 0.000000 0.000000 0.000000 0.041057
#
#
# Mechanical properties :
#
#
# Convention : Reuss Voigt Hill
#
# Bulk Modulus (GPa) = 53.04585 75.89650 64.47118
# Shear Modulus (GPa) = 20.48192 24.72368 22.60280
#
# Velocity S-wave (km/s) = 3.56859 3.92074 3.74880
# Velocity P-wave (km/s) = 7.06835 8.22713 7.66965
#
# Compressibility (1/GPa) = 0.01885162
#
# Stress axis : x y z
#
# Youngs Moduli (GPa) = 69.86914 23.38259 71.02528
#
# Poissons Ratio (x) = 0.23785 0.20740
# Poissons Ratio (y) = 0.71072 0.92768
# Poissons Ratio (z) = 0.20402 0.30541
#
# Static dielectric constant tensor:
#      x y z
#    x 3.036520 0.000000 0.000000 
#    y 0.000000 2.968320 0.000000 
#    z 0.000000 0.000000 3.057510 
# 
# 
# High freq. dielectric constant tensor:
#      x y z
#    x 1.611180 0.000000 0.000000 
#    y 0.000000 1.609160 0.000000 
#    z 0.000000 0.000000 1.616090 
# 
# From -- ./inp_files/33653.got.cif
#   From: 2010.03.12/outbox.cif.g09.slc.cpg/sg65_17_cif.got.tgz:33653.got - 2010.04.10 20:52:16.
