data_PCOD8275227
_publ_section_title
;
Structure prediction by ZEFSAII (Michael W. Deem and Ramdas Pophale) SiO2 
 PCOD8275227
Probable space group: C C C M
;
_chemical_formula_sum "Si O2"
_cell_formula_units_Z 96
_cell_length_a 17.097228
_cell_length_b 21.114734
_cell_length_c 17.629315
_cell_angle_alpha 90.000000
_cell_angle_beta 90.000000
_cell_angle_gamma 90.000000
_cell_volume 6364.243031
_symmetry_space_group_name_H-M "C C C M"
_symmetry_group_IT_number 66
_symmetry_cell_setting 'orthorhombic'
loop_
_space_group_symop_operation_xyz
x,y,z
-x,-y,z
x,-y,1/2-z
-x,y,1/2-z
-x,-y,-z
x,y,-z
-x,y,1/2+z
x,-y,1/2+z
1/2+x,1/2+y,z
1/2-x,1/2-y,z
1/2+x,1/2-y,1/2-z
1/2-x,1/2+y,1/2-z
1/2-x,1/2-y,-z
1/2+x,1/2+y,-z
1/2-x,1/2+y,1/2+z
1/2+x,1/2-y,1/2+z
loop_
_atom_site_type_symbol
_atom_site_label
_atom_site_fract_x
_atom_site_fract_y
_atom_site_fract_z
Si Si1 0.020563 0.680627 0.584063
Si Si2 0.128264 0.739857 0.873139
Si Si3 0.307004 0.941777 0.799505
Si Si4 0.765184 0.851743 0.586828
Si Si5 0.090120 0.334602 0.232425
Si Si6 0.934525 0.551911 0.583562
O O1 0.057029 0.675627 0.500000
O O2 0.091677 0.687759 0.644000
O O3 0.957561 0.737708 0.588260
O O4 0.970742 0.618781 0.607878
O O5 0.162116 0.809568 0.885237
O O6 0.184722 0.687925 0.911921
O O7 0.119161 0.724251 0.783747
O O8 0.240446 0.909212 0.852360
O O9 0.350224 0.892681 0.743357
O O10 0.370277 0.970600 0.857068
O O11 0.271752 0.000000 0.750000
O O12 0.779169 0.874986 0.500000
O O13 0.000000 0.353127 0.250000
O O14 0.896036 0.557974 0.500000
O O15 0.000000 0.500000 0.582886
#
# Coordination Sequence:
#
# PCOD8275227 Si02
#       6
#    16  16  16  16  16  16
#     4  10  16  25  38  58  84 110 137 169 208 249
#     4   9  16  25  43  60  79 105 138 179 223 249
#     4  11  20  26  38  53  80 116 146 170 206 246
#     4  10  17  28  42  59  78 103 142 186 218 244
#     4   9  16  26  37  58  84 110 136 167 205 246
#     4  10  18  25  35  52  78 113 147 172 195 232
#
# _framework density 15.084277
#
# number of rings (size 3 to 8) (size 9 to 14) (size 15 to 20)
#    0.000    2.167    5.000    3.500    0.000    0.000 
#    0.000    0.833    0.000    0.000    0.000   11.667 
#    0.000    6.000    0.000   15.500    0.000    0.000 
#
# Total GULP energy -594806.772300 kJ/mol
# GULP energy per Si atom -12391.807756 kJ/mol
# Density = 1.504994 g / cm^3
# Si number density = 15.084277 Si / 1000 Ang^3
#
#
#
# Elastic Constant Matrix: (Units=GPa)
#
#
# Indices 1 2 3 4 5 6 
#
# 1 31.1938 27.2089 29.7317 0.0000 0.0000 0.0000
# 2 27.2089 65.0432 48.6089 0.0000 0.0000 0.0000
# 3 29.7317 48.6089 127.1215 0.0000 0.0000 0.0000
# 4 0.0000 0.0000 0.0000 26.1309 0.0000 0.0000
# 5 0.0000 0.0000 0.0000 0.0000 15.5552 0.0000
# 6 0.0000 0.0000 0.0000 0.0000 0.0000 17.6604
#
#
#
# Elastic Compliance Matrix: (Units=1/GPa)
#
#
# Indices 1 2 3 4 5 6 
#
# 1 0.053081 -0.018099 -0.005494 0.000000 0.000000 0.000000
# 2 -0.018099 0.027697 -0.006358 0.000000 0.000000 0.000000
# 3 -0.005494 -0.006358 0.011583 0.000000 0.000000 0.000000
# 4 0.000000 0.000000 0.000000 0.038269 0.000000 0.000000
# 5 0.000000 0.000000 0.000000 0.000000 0.064287 0.000000
# 6 0.000000 0.000000 0.000000 0.000000 0.000000 0.056624
#
#
# Mechanical properties :
#
#
# Convention : Reuss Voigt Hill
#
# Bulk Modulus (GPa) = 30.80816 48.27305 39.54060
# Shear Modulus (GPa) = 15.51535 19.72324 17.61929
#
# Velocity S-wave (km/s) = 3.21062 3.61991 3.42139
# Velocity P-wave (km/s) = 5.84915 7.03870 6.47132
#
# Compressibility (1/GPa) = 0.03245894
#
# Stress axis : x y z
#
# Youngs Moduli (GPa) = 18.83911 36.10516 86.33677
#
# Poissons Ratio (x) = 0.65347 0.47435
# Poissons Ratio (y) = 0.34097 0.54890
# Poissons Ratio (z) = 0.10350 0.22955
#
# Static dielectric constant tensor:
#      x y z
#    x 2.649510 0.000000 0.000000 
#    y 0.000000 2.866290 0.000000 
#    z 0.000000 0.000000 3.343270 
# 
# 
# High freq. dielectric constant tensor:
#      x y z
#    x 1.523160 0.000000 0.000000 
#    y 0.000000 1.541180 0.000000 
#    z 0.000000 0.000000 1.600140 
# 
# From -- ./inp_files/41914.got.cif
#   From: 2010.03.12/outbox.cif.g09.slc.cpg/sg66_21_cif.got.tgz:41914.got - 2010.04.10 21:57:39.
