data_PCOD8275502
_publ_section_title
;
Structure prediction by ZEFSAII (Michael W. Deem and Ramdas Pophale) SiO2 
 PCOD8275502
Probable space group: C C C M
;
_chemical_formula_sum "Si O2"
_cell_formula_units_Z 80
_cell_length_a 17.864613
_cell_length_b 13.328264
_cell_length_c 17.941406
_cell_angle_alpha 90.000000
_cell_angle_beta 90.000000
_cell_angle_gamma 90.000000
_cell_volume 4271.925528
_symmetry_space_group_name_H-M "C C C M"
_symmetry_group_IT_number 66
_symmetry_cell_setting 'orthorhombic'
loop_
_space_group_symop_operation_xyz
x,y,z
-x,-y,z
x,-y,1/2-z
-x,y,1/2-z
-x,-y,-z
x,y,-z
-x,y,1/2+z
x,-y,1/2+z
1/2+x,1/2+y,z
1/2-x,1/2-y,z
1/2+x,1/2-y,1/2-z
1/2-x,1/2+y,1/2-z
1/2-x,1/2-y,-z
1/2+x,1/2+y,-z
1/2-x,1/2+y,1/2+z
1/2+x,1/2-y,1/2+z
loop_
_atom_site_type_symbol
_atom_site_label
_atom_site_fract_x
_atom_site_fract_y
_atom_site_fract_z
Si Si1 0.859327 0.218109 0.759814
Si Si2 0.278489 0.903292 0.290610
Si Si3 0.892278 0.180528 0.083680
Si Si4 0.965231 0.105708 0.339387
Si Si5 0.820490 0.965524 0.083053
O O1 0.795038 0.134079 0.753542
O O2 0.840701 0.315312 0.709392
O O3 0.863598 0.250384 0.847772
O O4 0.939408 0.169049 0.735166
O O5 0.255429 0.936737 0.373465
O O6 0.312846 0.000000 0.250000
O O7 0.978646 0.158084 0.102669
O O8 0.840592 0.082424 0.086047
O O9 0.887170 0.229024 0.000000
O O10 0.889054 0.097447 0.385019
O O11 0.000000 0.000000 0.313218
O O12 0.804874 0.929645 0.000000
#
# Coordination Sequence:
#
# PCOD8275502 Si02
#       5
#    16  16  16  16  16
#     4  10  20  32  51  79 101 140 181 209 265 316
#     4  10  19  35  51  70 106 144 179 216 248 314
#     4  10  18  30  49  77 107 130 168 223 272 313
#     4   9  18  30  50  76 106 135 169 218 268 320
#     4   9  17  30  50  77 105 138 172 212 269 312
#
# _framework density 18.726918000000001
#
# number of rings (size 3 to 8) (size 9 to 14) (size 15 to 20)
#    0.000    2.400    2.000    1.200    0.000    4.800 
#    0.000   12.000    0.000    2.400    0.000    1.400 
#    0.000    0.000    0.000    0.000    0.000    0.000 
#
# Total GULP energy -495615.983904 kJ/mol
# GULP energy per Si atom -12390.399598 kJ/mol
# Density = 1.868429 g / cm^3
# Si number density = 18.726918 Si / 1000 Ang^3
#
#
#
# Elastic Constant Matrix: (Units=GPa)
#
#
# Indices 1 2 3 4 5 6 
#
# 1 62.2586 29.9290 30.3016 0.0000 0.0000 0.0000
# 2 29.9290 63.6786 21.4765 0.0000 0.0000 0.0000
# 3 30.3016 21.4765 160.7730 0.0000 0.0000 0.0000
# 4 0.0000 0.0000 0.0000 20.0565 0.0000 0.0000
# 5 0.0000 0.0000 0.0000 0.0000 16.5055 0.0000
# 6 0.0000 0.0000 0.0000 0.0000 0.0000 26.8779
#
#
#
# Elastic Compliance Matrix: (Units=1/GPa)
#
#
# Indices 1 2 3 4 5 6 
#
# 1 0.021962 -0.009347 -0.002891 0.000000 0.000000 0.000000
# 2 -0.009347 0.020423 -0.000966 0.000000 0.000000 0.000000
# 3 -0.002891 -0.000966 0.006894 0.000000 0.000000 0.000000
# 4 0.000000 0.000000 0.000000 0.049859 0.000000 0.000000
# 5 0.000000 0.000000 0.000000 0.000000 0.060586 0.000000
# 6 0.000000 0.000000 0.000000 0.000000 0.000000 0.037205
#
#
# Mechanical properties :
#
#
# Convention : Reuss Voigt Hill
#
# Bulk Modulus (GPa) = 43.72481 50.01380 46.86930
# Shear Modulus (GPa) = 21.64858 26.35488 24.00173
#
# Velocity S-wave (km/s) = 3.40371 3.75550 3.58393
# Velocity P-wave (km/s) = 6.23268 6.75055 6.49678
#
# Compressibility (1/GPa) = 0.02287031
#
# Stress axis : x y z
#
# Youngs Moduli (GPa) = 45.53225 48.96413 145.05638
#
# Poissons Ratio (x) = 0.45769 0.41931
# Poissons Ratio (y) = 0.42561 0.14019
# Poissons Ratio (z) = 0.13162 0.04732
#
# Static dielectric constant tensor:
#      x y z
#    x 3.294380 0.000000 0.000000 
#    y 0.000000 3.057050 0.000000 
#    z 0.000000 0.000000 3.767470 
# 
# 
# High freq. dielectric constant tensor:
#      x y z
#    x 1.709640 0.000000 0.000000 
#    y 0.000000 1.675420 0.000000 
#    z 0.000000 0.000000 1.742750 
# 
# From -- ./inp_files/40240.got.cif
#   From: 2010.03.12/outbox.cif.g09.slc.cpg/sg66_21_cif.got.tgz:40240.got - 2010.04.10 21:57:39.
