data_PCOD8275528
_publ_section_title
;
Structure prediction by ZEFSAII (Michael W. Deem and Ramdas Pophale) SiO2 
 PCOD8275528
Probable space group: C C C M
;
_chemical_formula_sum "Si O2"
_cell_formula_units_Z 64
_cell_length_a 16.734839
_cell_length_b 7.808898
_cell_length_c 24.070143
_cell_angle_alpha 90.000000
_cell_angle_beta 90.000000
_cell_angle_gamma 90.000000
_cell_volume 3145.501952
_symmetry_space_group_name_H-M "C C C M"
_symmetry_group_IT_number 66
_symmetry_cell_setting 'orthorhombic'
loop_
_space_group_symop_operation_xyz
x,y,z
-x,-y,z
x,-y,1/2-z
-x,y,1/2-z
-x,-y,-z
x,y,-z
-x,y,1/2+z
x,-y,1/2+z
1/2+x,1/2+y,z
1/2-x,1/2-y,z
1/2+x,1/2-y,1/2-z
1/2-x,1/2+y,1/2-z
1/2-x,1/2-y,-z
1/2+x,1/2+y,-z
1/2-x,1/2+y,1/2+z
1/2+x,1/2-y,1/2+z
loop_
_atom_site_type_symbol
_atom_site_label
_atom_site_fract_x
_atom_site_fract_y
_atom_site_fract_z
Si Si1 0.841972 0.705668 0.000000
Si Si2 0.086574 0.801979 0.883972
Si Si3 0.595689 0.991995 0.813151
Si Si4 0.578155 0.124623 0.000000
Si Si5 0.597186 0.323428 0.382923
O O1 0.750000 0.750000 0.000000
O O2 0.845654 0.500227 0.000000
O O3 0.888248 0.776538 0.053316
O O4 0.128968 0.658079 0.845988
O O5 0.995238 0.826441 0.867086
O O6 0.131991 0.984051 0.873885
O O7 0.085733 0.748227 0.947915
O O8 0.633724 0.821541 0.841848
O O9 0.500000 0.000000 0.817569
O O10 0.625512 0.000000 0.750000
O O11 0.500000 0.000000 0.000000
#
# Coordination Sequence:
#
# PCOD8275528 Si02
#       5
#     8  16  16   8  16
#     4  12  23  35  53  82 113 144 178 234 278 326
#     4  10  18  30  56  80 105 141 180 221 272 335
#     4   9  17  30  50  80 111 137 172 224 276 321
#     4  12  17  33  57  76 108 147 182 217 278 344
#     4  10  19  33  51  80 110 140 178 223 275 330
#
# _framework density 20.346516000000001
#
# number of rings (size 3 to 8) (size 9 to 14) (size 15 to 20)
#    0.000    1.750    5.000    1.500    0.000    3.000 
#    0.000    7.500    0.000    0.000    6.500    0.000 
#    0.000    0.000    0.000    0.000    0.000    0.000 
#
# Total GULP energy -396515.790098 kJ/mol
# GULP energy per Si atom -12391.118441 kJ/mol
# Density = 2.030021 g / cm^3
# Si number density = 20.346516 Si / 1000 Ang^3
#
#
#
# Elastic Constant Matrix: (Units=GPa)
#
#
# Indices 1 2 3 4 5 6 
#
# 1 20.9580 9.0612 -6.3889 0.0000 0.0000 0.0000
# 2 9.0612 233.7841 103.2682 0.0000 0.0000 0.0000
# 3 -6.3889 103.2682 173.5224 0.0000 0.0000 0.0000
# 4 0.0000 0.0000 0.0000 19.3759 0.0000 0.0000
# 5 0.0000 0.0000 0.0000 0.0000 -0.3191 0.0000
# 6 0.0000 0.0000 0.0000 0.0000 0.0000 12.0278
#
#
#
# Elastic Compliance Matrix: (Units=1/GPa)
#
#
# Indices 1 2 3 4 5 6 
#
# 1 0.050601 -0.003777 0.004111 0.000000 0.000000 0.000000
# 2 -0.003777 0.006085 -0.003760 0.000000 0.000000 0.000000
# 3 0.004111 -0.003760 0.008152 0.000000 0.000000 0.000000
# 4 0.000000 0.000000 0.000000 0.051611 0.000000 0.000000
# 5 0.000000 0.000000 0.000000 0.000000 -3.133490 0.000000
# 6 0.000000 0.000000 0.000000 0.000000 0.000000 0.083141
#
#
# Mechanical properties :
#
#
# Convention : Reuss Voigt Hill
#
# Bulk Modulus (GPa) = 17.24589 71.12726 44.18657
# Shear Modulus (GPa) = -1.71956 27.70518 12.99281
#
# Velocity S-wave (km/s) = -0.92031 3.69408 2.52975
# Velocity P-wave (km/s) = 2.71389 7.29581 5.50427
#
# Compressibility (1/GPa) = 0.05798484
#
# Stress axis : x y z
#
# Youngs Moduli (GPa) = 19.76252 164.34131 122.66613
#
# Poissons Ratio (x) = 0.62074 -0.50428
# Poissons Ratio (y) = 0.07465 0.46127
# Poissons Ratio (z) = -0.08124 0.61798
#
# Static dielectric constant tensor:
#      x y z
#    x 3.014020 0.000000 0.000000 
#    y 0.000000 4.290260 0.000000 
#    z 0.000000 0.000000 3.653890 
# 
# 
# High freq. dielectric constant tensor:
#      x y z
#    x 1.716650 0.000000 0.000000 
#    y 0.000000 1.823370 0.000000 
#    z 0.000000 0.000000 1.792370 
# 
# From -- ./inp_files/59245.got.cif
#   From: 2010.03.12/outbox.cif.g09.slc.cpg/sg66_30_cif.got.tgz:59245.got - 2010.04.10 21:57:39.
