data_PCOD8275211
_publ_section_title
;
Structure prediction by ZEFSAII (Michael W. Deem and Ramdas Pophale) SiO2 
 PCOD8275211
Probable space group: C M M M
;
_chemical_formula_sum "Si O2"
_cell_formula_units_Z 44
_cell_length_a 9.000000
_cell_length_b 18.000000
_cell_length_c 30.000000
_cell_angle_alpha 90.000000
_cell_angle_beta 90.000000
_cell_angle_gamma 90.000000
_cell_volume 4860.000000
_symmetry_space_group_name_H-M "C M M M"
_symmetry_group_IT_number 65
_symmetry_cell_setting 'orthorhombic'
loop_
_space_group_symop_operation_xyz
x,y,z
-x,-y,z
x,-y,-z
-x,y,-z
-x,-y,-z
x,y,-z
-x,y,z
x,-y,z
1/2+x,1/2+y,z
1/2-x,1/2-y,z
1/2+x,1/2-y,-z
1/2-x,1/2+y,-z
1/2-x,1/2-y,-z
1/2+x,1/2+y,-z
1/2-x,1/2+y,z
1/2+x,1/2-y,z
loop_
_atom_site_type_symbol
_atom_site_label
_atom_site_fract_x
_atom_site_fract_y
_atom_site_fract_z
Si Si1 0.325675 0.412847 0.415692
Si Si2 0.320594 0.168294 0.500000
Si Si3 0.325903 0.328541 0.325870
Si Si4 0.825103 0.171048 0.949900
Si Si5 0.676555 0.416655 0.137821
Si Si6 0.675216 0.328786 0.225481
O O1 0.500000 0.397790 0.424133
O O2 0.289405 0.500000 0.416969
O O3 0.233123 0.373605 0.455133
O O4 0.277794 0.383498 0.366250
O O5 0.500000 0.172590 0.500000
O O6 0.250000 0.250000 0.500000
O O7 0.500000 0.314652 0.328016
O O8 0.250000 0.250000 0.334582
O O9 0.284453 0.359757 0.275744
O O10 0.750000 0.250000 0.944214
O O11 0.765956 0.121034 0.908456
O O12 0.000000 0.181908 0.945378
O O13 0.787822 0.138329 0.000000
O O14 0.500000 0.416436 0.137749
O O15 0.739820 0.500000 0.137684
O O16 0.733757 0.379517 0.184292
O O17 0.500000 0.318782 0.221434
O O18 0.750000 0.250000 0.218676
#
# Coordination Sequence:
#
# PCOD8275211 Si02
#       6
#    16   8  16  16  16  16
#     4  10  21  37  56  79 108 138 167 203 249 298
#     4  12  25  40  59  81 105 135 173 212 249 292
#     4   9  18  32  51  75 100 129 165 203 243 288
#     4   9  17  29  46  67  90 119 156 196 237 283
#     4   9  17  28  44  68  95 122 155 197 242 286
#     4   9  17  30  49  71  95 125 162 202 241 284
#
# _framework density 9.0534979999999994
#
# number of rings (size 3 to 8) (size 9 to 14) (size 15 to 20)
#    0.000    2.545    0.000    2.182    0.000    4.727 
#    0.000    5.455    0.000    2.182    0.000    7.636 
#    0.000    0.000    0.000    0.000    0.000    0.000 
#
# Total GULP energy -545178.965031 kJ/mol
# GULP energy per Si atom -12390.431023 kJ/mol
# Density = 0.903289 g / cm^3
# Si number density = 9.053498 Si / 1000 Ang^3
#
#
#
# Elastic Constant Matrix: (Units=GPa)
#
#
# Indices 1 2 3 4 5 6 
#
# 1 40.6751 32.2405 41.2738 0.0000 0.0000 0.0000
# 2 32.2405 128.7226 99.8241 0.0000 0.0000 0.0000
# 3 41.2738 99.8241 233.6713 0.0000 0.0000 0.0000
# 4 0.0000 0.0000 0.0000 38.8166 0.0000 0.0000
# 5 0.0000 0.0000 0.0000 0.0000 23.6779 0.0000
# 6 0.0000 0.0000 0.0000 0.0000 0.0000 23.9591
#
#
#
# Elastic Compliance Matrix: (Units=1/GPa)
#
#
# Indices 1 2 3 4 5 6 
#
# 1 0.032357 -0.005491 -0.003369 0.000000 0.000000 0.000000
# 2 -0.005491 0.012549 -0.004391 0.000000 0.000000 0.000000
# 3 -0.003369 -0.004391 0.006751 0.000000 0.000000 0.000000
# 4 0.000000 0.000000 0.000000 0.025762 0.000000 0.000000
# 5 0.000000 0.000000 0.000000 0.000000 0.042234 0.000000
# 6 0.000000 0.000000 0.000000 0.000000 0.000000 0.041738
#
#
# Mechanical properties :
#
#
# Convention : Reuss Voigt Hill
#
# Bulk Modulus (GPa) = 39.75676 83.30510 61.53093
# Shear Modulus (GPa) = 25.47413 32.60610 29.04011
#
# Velocity S-wave (km/s) = 3.75489 4.24812 4.00910
# Velocity P-wave (km/s) = 6.38774 8.37670 7.44890
#
# Compressibility (1/GPa) = 0.02515295
#
# Stress axis : x y z
#
# Youngs Moduli (GPa) = 30.90564 79.68565 148.13645
#
# Poissons Ratio (x) = 0.43757 0.49912
# Poissons Ratio (y) = 0.16971 0.65049
# Poissons Ratio (z) = 0.10413 0.34991
#
# Static dielectric constant tensor:
#      x y z
#    x 3.185630 0.000000 0.000000 
#    y 0.000000 3.405640 0.000000 
#    z 0.000000 0.000000 4.235260 
# 
# 
# High freq. dielectric constant tensor:
#      x y z
#    x 1.679610 0.000000 0.000000 
#    y 0.000000 1.695590 0.000000 
#    z 0.000000 0.000000 1.752400 
# 
# From -- ./inp_files/76604.got.cif
#   From: 2010.03.12/outbox.ucp.g09.slc.cvg/sg65_39_cif.got.tgz:76604.got - 2010.05.04 19:44:54.
