data_PCOD8275556
_publ_section_title
;
Structure prediction by ZEFSAII (Michael W. Deem and Ramdas Pophale) SiO2 
 PCOD8275556
Probable space group: C C C M
;
_chemical_formula_sum "Si O2"
_cell_formula_units_Z 80
_cell_length_a 18.871160
_cell_length_b 13.217004
_cell_length_c 17.987764
_cell_angle_alpha 90.000000
_cell_angle_beta 90.000000
_cell_angle_gamma 90.000000
_cell_volume 4486.511644
_symmetry_space_group_name_H-M "C C C M"
_symmetry_group_IT_number 66
_symmetry_cell_setting 'orthorhombic'
loop_
_space_group_symop_operation_xyz
x,y,z
-x,-y,z
x,-y,1/2-z
-x,y,1/2-z
-x,-y,-z
x,y,-z
-x,y,1/2+z
x,-y,1/2+z
1/2+x,1/2+y,z
1/2-x,1/2-y,z
1/2+x,1/2-y,1/2-z
1/2-x,1/2+y,1/2-z
1/2-x,1/2-y,-z
1/2+x,1/2+y,-z
1/2-x,1/2+y,1/2+z
1/2+x,1/2-y,1/2+z
loop_
_atom_site_type_symbol
_atom_site_label
_atom_site_fract_x
_atom_site_fract_y
_atom_site_fract_z
Si Si1 0.584940 0.901413 0.913128
Si Si2 0.326509 0.701182 0.919930
Si Si3 0.570521 0.128152 0.133602
Si Si4 0.151182 0.677322 0.726366
Si Si5 0.695264 0.610976 0.727671
O O1 0.511950 0.853646 0.882907
O O2 0.644644 0.852072 0.860229
O O3 0.590162 0.021082 0.902518
O O4 0.597328 0.874430 0.000000
O O5 0.250000 0.750000 0.915536
O O6 0.385123 0.786601 0.907802
O O7 0.328198 0.614563 0.858305
O O8 0.339898 0.650290 0.000000
O O9 0.586920 0.133544 0.222446
O O10 0.221176 0.626735 0.761120
O O11 0.154152 0.799486 0.729101
O O12 0.669822 0.500000 0.750000
#
# Coordination Sequence:
#
# PCOD8275556 Si02
#       5
#    16  16  16  16  16
#     4  11  21  31  49  78 110 138 162 205 258 318
#     4  10  18  31  53  80 101 128 172 222 260 293
#     4  10  18  34  52  77 106 133 169 209 260 310
#     4  10  20  34  52  74 100 139 170 205 256 312
#     4  10  19  36  52  74 102 134 173 214 253 306
#
# _framework density 17.831226000000001
#
# number of rings (size 3 to 8) (size 9 to 14) (size 15 to 20)
#    0.000    1.800    4.000    4.800    0.000    1.600 
#    0.000    3.000    0.000    9.600    0.000    7.000 
#    0.000    0.000    0.000    0.000    0.000    0.000 
#
# Total GULP energy -495751.755833 kJ/mol
# GULP energy per Si atom -12393.793896 kJ/mol
# Density = 1.779064 g / cm^3
# Si number density = 17.831226 Si / 1000 Ang^3
#
#
#
# Elastic Constant Matrix: (Units=GPa)
#
#
# Indices 1 2 3 4 5 6 
#
# 1 59.5620 29.8272 39.3537 0.0000 0.0000 0.0000
# 2 29.8272 90.0939 50.2822 0.0000 0.0000 0.0000
# 3 39.3537 50.2822 168.8949 0.0000 0.0000 0.0000
# 4 0.0000 0.0000 0.0000 17.5844 0.0000 0.0000
# 5 0.0000 0.0000 0.0000 0.0000 66.5475 0.0000
# 6 0.0000 0.0000 0.0000 0.0000 0.0000 18.8501
#
#
#
# Elastic Compliance Matrix: (Units=1/GPa)
#
#
# Indices 1 2 3 4 5 6 
#
# 1 0.021727 -0.005238 -0.003503 0.000000 0.000000 0.000000
# 2 -0.005238 0.014574 -0.003118 0.000000 0.000000 0.000000
# 3 -0.003503 -0.003118 0.007665 0.000000 0.000000 0.000000
# 4 0.000000 0.000000 0.000000 0.056868 0.000000 0.000000
# 5 0.000000 0.000000 0.000000 0.000000 0.015027 0.000000
# 6 0.000000 0.000000 0.000000 0.000000 0.000000 0.053050
#
#
# Mechanical properties :
#
#
# Convention : Reuss Voigt Hill
#
# Bulk Modulus (GPa) = 49.38891 61.94189 55.66540
# Shear Modulus (GPa) = 25.07776 33.86893 29.47335
#
# Velocity S-wave (km/s) = 3.75426 4.36296 4.07001
# Velocity P-wave (km/s) = 6.82281 7.75847 7.30563
#
# Compressibility (1/GPa) = 0.02024746
#
# Stress axis : x y z
#
# Youngs Moduli (GPa) = 46.02604 68.61508 130.45502
#
# Poissons Ratio (x) = 0.35940 0.45700
# Poissons Ratio (y) = 0.24108 0.40681
# Poissons Ratio (z) = 0.16123 0.21397
#
# Static dielectric constant tensor:
#      x y z
#    x 3.253340 0.000000 0.000000 
#    y 0.000000 3.165170 0.000000 
#    z 0.000000 0.000000 3.712900 
# 
# 
# High freq. dielectric constant tensor:
#      x y z
#    x 1.674020 0.000000 0.000000 
#    y 0.000000 1.666220 0.000000 
#    z 0.000000 0.000000 1.702630 
# 
# From -- ./inp_files/40423.got.cif
#   From: 2010.03.12/outbox.cif.g09.slc.cpg/sg66_21_cif.got.tgz:40423.got - 2010.04.10 21:57:39.
