data_PCOD8275730
_publ_section_title
;
Structure prediction by ZEFSAII (Michael W. Deem and Ramdas Pophale) SiO2 
 PCOD8275730
Probable space group: C C C M
;
_chemical_formula_sum "Si O2"
_cell_formula_units_Z 104
_cell_length_a 14.828201
_cell_length_b 24.077966
_cell_length_c 17.211565
_cell_angle_alpha 90.000000
_cell_angle_beta 90.000000
_cell_angle_gamma 90.000000
_cell_volume 6145.095301
_symmetry_space_group_name_H-M "C C C M"
_symmetry_group_IT_number 66
_symmetry_cell_setting 'orthorhombic'
loop_
_space_group_symop_operation_xyz
x,y,z
-x,-y,z
x,-y,1/2-z
-x,y,1/2-z
-x,-y,-z
x,y,-z
-x,y,1/2+z
x,-y,1/2+z
1/2+x,1/2+y,z
1/2-x,1/2-y,z
1/2+x,1/2-y,1/2-z
1/2-x,1/2+y,1/2-z
1/2-x,1/2-y,-z
1/2+x,1/2+y,-z
1/2-x,1/2+y,1/2+z
1/2+x,1/2-y,1/2+z
loop_
_atom_site_type_symbol
_atom_site_label
_atom_site_fract_x
_atom_site_fract_y
_atom_site_fract_z
Si Si1 0.439049 0.875304 0.681570
Si Si2 0.751689 0.173115 0.174531
Si Si3 0.250000 0.750000 0.314290
Si Si4 0.935353 0.448872 0.915262
Si Si5 0.117192 0.252508 0.408648
Si Si6 0.803022 0.556396 0.716798
Si Si7 0.090080 0.728362 0.408814
O O1 0.500000 0.848337 0.750000
O O2 0.508220 0.898793 0.619181
O O3 0.372257 0.921218 0.717857
O O4 0.385488 0.829738 0.632450
O O5 0.730624 0.197193 0.259539
O O6 0.841566 0.199077 0.136305
O O7 0.665858 0.190728 0.120615
O O8 0.761905 0.106526 0.186726
O O9 0.164614 0.767830 0.368480
O O10 0.854140 0.465324 0.859112
O O11 0.000000 0.500000 0.925103
O O12 0.897422 0.431159 0.000000
O O13 0.134744 0.245903 0.500000
O O14 0.011395 0.252854 0.389281
O O15 0.753909 0.500000 0.750000
O O16 0.107194 0.725064 0.500000
#
# Coordination Sequence:
#
# PCOD8275730 Si02
#       7
#    16  16   8  16  16  16  16
#     4  10  19  29  47  69  99 135 169 208 244 309
#     4  10  20  32  53  75 103 139 176 223 256 304
#     4  10  21  34  49  78 104 134 172 206 269 318
#     4  10  19  29  43  66  95 132 176 211 245 299
#     4   9  19  34  54  80 105 134 174 222 270 316
#     4  11  20  33  47  68 102 142 179 214 254 305
#     4  11  21  34  52  75 105 136 166 208 265 323
#
# _framework density 16.924066
#
# number of rings (size 3 to 8) (size 9 to 14) (size 15 to 20)
#    0.000    2.000    3.077    3.462    2.154    2.462 
#    0.000    0.000    0.000    0.000    0.000    2.154 
#    0.000    2.462    0.000    0.000    0.000    0.000 
#
# Total GULP energy -644244.157606 kJ/mol
# GULP energy per Si atom -12389.310723 kJ/mol
# Density = 1.688555 g / cm^3
# Si number density = 16.924066 Si / 1000 Ang^3
#
#
#
# Elastic Constant Matrix: (Units=GPa)
#
#
# Indices 1 2 3 4 5 6 
#
# 1 78.7631 19.4226 45.0711 0.0000 0.0000 0.0000
# 2 19.4226 88.1028 38.0242 0.0000 0.0000 0.0000
# 3 45.0711 38.0242 120.4775 0.0000 0.0000 0.0000
# 4 0.0000 0.0000 0.0000 17.8043 0.0000 0.0000
# 5 0.0000 0.0000 0.0000 0.0000 19.5265 0.0000
# 6 0.0000 0.0000 0.0000 0.0000 0.0000 14.1134
#
#
#
# Elastic Compliance Matrix: (Units=1/GPa)
#
#
# Indices 1 2 3 4 5 6 
#
# 1 0.016248 -0.001110 -0.005728 0.000000 0.000000 0.000000
# 2 -0.001110 0.013216 -0.003756 0.000000 0.000000 0.000000
# 3 -0.005728 -0.003756 0.011629 0.000000 0.000000 0.000000
# 4 0.000000 0.000000 0.000000 0.056166 0.000000 0.000000
# 5 0.000000 0.000000 0.000000 0.000000 0.051212 0.000000
# 6 0.000000 0.000000 0.000000 0.000000 0.000000 0.070855
#
#
# Mechanical properties :
#
#
# Convention : Reuss Voigt Hill
#
# Bulk Modulus (GPa) = 50.23899 54.70878 52.47388
# Shear Modulus (GPa) = 20.23075 22.61053 21.42064
#
# Velocity S-wave (km/s) = 3.46118 3.65910 3.56152
# Velocity P-wave (km/s) = 6.76184 7.08860 6.92714
#
# Compressibility (1/GPa) = 0.01990486
#
# Stress axis : x y z
#
# Youngs Moduli (GPa) = 61.54682 75.66545 85.99442
#
# Poissons Ratio (x) = 0.08397 0.49259
# Poissons Ratio (y) = 0.06830 0.32300
# Poissons Ratio (z) = 0.35255 0.28420
#
# Static dielectric constant tensor:
#      x y z
#    x 2.943060 0.000000 0.000000 
#    y 0.000000 3.089400 0.000000 
#    z 0.000000 0.000000 3.602290 
# 
# 
# High freq. dielectric constant tensor:
#      x y z
#    x 1.614050 0.000000 0.000000 
#    y 0.000000 1.630950 0.000000 
#    z 0.000000 0.000000 1.678140 
# 
# From -- ./inp_files/40660.got.cif
#   From: 2010.03.12/outbox.cif.g09.slc.cpg/sg66_21_cif.got.tgz:40660.got - 2010.04.10 21:57:39.
