data_PCOD8275257
_publ_section_title
;
Structure prediction by ZEFSAII (Michael W. Deem and Ramdas Pophale) SiO2 
 PCOD8275257
Probable space group: C C C M
;
_chemical_formula_sum "Si O2"
_cell_formula_units_Z 64
_cell_length_a 8.666449
_cell_length_b 18.654038
_cell_length_c 21.123566
_cell_angle_alpha 90.000000
_cell_angle_beta 90.000000
_cell_angle_gamma 90.000000
_cell_volume 3414.925855
_symmetry_space_group_name_H-M "C C C M"
_symmetry_group_IT_number 66
_symmetry_cell_setting 'orthorhombic'
loop_
_space_group_symop_operation_xyz
x,y,z
-x,-y,z
x,-y,1/2-z
-x,y,1/2-z
-x,-y,-z
x,y,-z
-x,y,1/2+z
x,-y,1/2+z
1/2+x,1/2+y,z
1/2-x,1/2-y,z
1/2+x,1/2-y,1/2-z
1/2-x,1/2+y,1/2-z
1/2-x,1/2-y,-z
1/2+x,1/2+y,-z
1/2-x,1/2+y,1/2+z
1/2+x,1/2-y,1/2+z
loop_
_atom_site_type_symbol
_atom_site_label
_atom_site_fract_x
_atom_site_fract_y
_atom_site_fract_z
Si Si1 0.605722 0.800818 0.689640
Si Si2 0.608469 0.802916 0.072237
Si Si3 0.829356 0.466047 0.811250
Si Si4 0.830998 0.533110 0.932085
O O1 0.500000 0.784804 0.750000
O O2 0.750000 0.750000 0.694845
O O3 0.522633 0.783936 0.623076
O O4 0.667067 0.881418 0.692947
O O5 0.750000 0.750000 0.083504
O O6 0.663830 0.883403 0.085515
O O7 0.544544 0.795516 0.000000
O O8 0.743667 0.500000 0.750000
O O9 0.741463 0.491294 0.875624
O O10 0.000000 0.500000 0.814377
O O11 0.000000 0.500000 0.938577
O O12 0.745465 0.522658 0.000000
#
# Coordination Sequence:
#
# PCOD8275257 Si02
#       4
#    16  16  16  16
#     4  12  23  36  56  86 114 144 184 231 280 326
#     4  10  20  35  56  84 115 147 181 224 278 331
#     4  10  16  31  55  77  98 135 188 230 254 305
#     4   9  15  27  52  80 100 132 189 227 249 306
#
# _framework density 18.741257000000001
#
# number of rings (size 3 to 8) (size 9 to 14) (size 15 to 20)
#    0.000    1.750    7.500    0.750    0.000    0.500 
#    0.000    0.000    0.000    5.250    0.000    5.250 
#    0.000    0.000    0.000    0.000    0.000    0.000 
#
# Total GULP energy -396511.627768 kJ/mol
# GULP energy per Si atom -12390.988368 kJ/mol
# Density = 1.869860 g / cm^3
# Si number density = 18.741257 Si / 1000 Ang^3
#
#
#
# Elastic Constant Matrix: (Units=GPa)
#
#
# Indices 1 2 3 4 5 6 
#
# 1 45.8305 60.7554 55.2312 0.0000 0.0000 0.0000
# 2 60.7554 158.7392 63.9153 0.0000 0.0000 0.0000
# 3 55.2312 63.9153 207.7131 0.0000 0.0000 0.0000
# 4 0.0000 0.0000 0.0000 27.4351 0.0000 0.0000
# 5 0.0000 0.0000 0.0000 0.0000 18.0970 0.0000
# 6 0.0000 0.0000 0.0000 0.0000 0.0000 24.7430
#
#
#
# Elastic Compliance Matrix: (Units=1/GPa)
#
#
# Indices 1 2 3 4 5 6 
#
# 1 0.057554 -0.018110 -0.009731 0.000000 0.000000 0.000000
# 2 -0.018110 0.012889 0.000849 0.000000 0.000000 0.000000
# 3 -0.009731 0.000849 0.007140 0.000000 0.000000 0.000000
# 4 0.000000 0.000000 0.000000 0.036450 0.000000 0.000000
# 5 0.000000 0.000000 0.000000 0.000000 0.055258 0.000000
# 6 0.000000 0.000000 0.000000 0.000000 0.000000 0.040415
#
#
# Mechanical properties :
#
#
# Convention : Reuss Voigt Hill
#
# Bulk Modulus (GPa) = 42.37224 85.78738 64.07981
# Shear Modulus (GPa) = 18.41234 29.54709 23.97972
#
# Velocity S-wave (km/s) = 3.13781 3.97492 3.58091
# Velocity P-wave (km/s) = 5.98213 8.18173 7.16682
#
# Compressibility (1/GPa) = 0.02360036
#
# Stress axis : x y z
#
# Youngs Moduli (GPa) = 17.37486 77.58551 140.04629
#
# Poissons Ratio (x) = 1.40507 1.36282
# Poissons Ratio (y) = 0.31466 -0.11896
# Poissons Ratio (z) = 0.16908 -0.06590
#
# Static dielectric constant tensor:
#      x y z
#    x 2.602840 0.000000 0.000000 
#    y 0.000000 3.254220 0.000000 
#    z 0.000000 0.000000 6.348830 
# 
# 
# High freq. dielectric constant tensor:
#      x y z
#    x 1.643670 0.000000 0.000000 
#    y 0.000000 1.741340 0.000000 
#    z 0.000000 0.000000 1.772400 
# 
# From -- ./inp_files/54950.got.cif
#   From: 2010.03.12/outbox.cif.g09.slc.cpg/sg66_28_cif.got.tgz:54950.got - 2010.04.10 21:57:39.
