data_PCOD8275220
_publ_section_title
;
Structure prediction by ZEFSAII (Michael W. Deem and Ramdas Pophale) SiO2 
 PCOD8275220
Probable space group: C C C M
;
_chemical_formula_sum "Si O2"
_cell_formula_units_Z 128
_cell_length_a 20.424127
_cell_length_b 24.145125
_cell_length_c 17.409618
_cell_angle_alpha 90.000000
_cell_angle_beta 90.000000
_cell_angle_gamma 90.000000
_cell_volume 8585.432980
_symmetry_space_group_name_H-M "C C C M"
_symmetry_group_IT_number 66
_symmetry_cell_setting 'orthorhombic'
loop_
_space_group_symop_operation_xyz
x,y,z
-x,-y,z
x,-y,1/2-z
-x,y,1/2-z
-x,-y,-z
x,y,-z
-x,y,1/2+z
x,-y,1/2+z
1/2+x,1/2+y,z
1/2-x,1/2-y,z
1/2+x,1/2-y,1/2-z
1/2-x,1/2+y,1/2-z
1/2-x,1/2-y,-z
1/2+x,1/2+y,-z
1/2-x,1/2+y,1/2+z
1/2+x,1/2-y,1/2+z
loop_
_atom_site_type_symbol
_atom_site_label
_atom_site_fract_x
_atom_site_fract_y
_atom_site_fract_z
Si Si1 0.840850 0.940456 0.772624
Si Si2 0.571964 0.594889 0.911903
Si Si3 0.354101 0.234468 0.776341
Si Si4 0.067785 0.224867 0.913497
Si Si5 0.237913 0.161701 0.742495
Si Si6 0.927861 0.778410 0.644312
Si Si7 0.791082 0.804956 0.584042
Si Si8 0.545385 0.399455 0.817904
O O1 0.881772 0.938945 0.852857
O O2 0.782023 0.896247 0.781567
O O3 0.884639 0.927535 0.696550
O O4 0.810883 0.000000 0.750000
O O5 0.582406 0.660273 0.896870
O O6 0.493967 0.583047 0.895698
O O7 0.587679 0.578206 0.000000
O O8 0.388095 0.236603 0.859152
O O9 0.310290 0.178914 0.770751
O O10 0.311825 0.289696 0.764609
O O11 0.408471 0.232850 0.708682
O O12 0.991516 0.240862 0.902490
O O13 0.087818 0.239741 0.000000
O O14 0.232645 0.152857 0.650063
O O15 0.868029 0.790080 0.586496
O O16 0.944938 0.834099 0.690005
O O17 0.776216 0.830561 0.500000
O O18 0.750000 0.750000 0.598883
O O19 0.500000 0.420784 0.750000
#
# Coordination Sequence:
#
# PCOD8275220 Si02
#       8
#    16  16  16  16  16  16  16  16
#     4  11  20  33  48  61  82 117 158 195 226 263
#     4   9  18  31  45  64  90 117 149 193 225 251
#     4  10  16  29  48  62  85 120 150 179 217 275
#     4  10  18  27  43  71  98 116 144 184 224 264
#     4  10  18  32  45  63  83 116 156 186 220 270
#     4  10  15  26  44  65  90 120 143 174 215 266
#     4  10  17  26  42  65  89 116 147 180 217 259
#     4   9  16  27  42  60  84 115 150 180 215 255
#
# _framework density 14.908975
#
# number of rings (size 3 to 8) (size 9 to 14) (size 15 to 20)
#    0.000    2.125    6.250    2.250    0.000    2.750 
#    0.000    3.750    0.000    0.000    0.000    0.000 
#    0.000    2.000    0.000    1.125    0.000    0.000 
#
# Total GULP energy -792986.811557 kJ/mol
# GULP energy per Si atom -12390.418931 kJ/mol
# Density = 1.487504 g / cm^3
# Si number density = 14.908975 Si / 1000 Ang^3
#
#
#
# Elastic Constant Matrix: (Units=GPa)
#
#
# Indices 1 2 3 4 5 6 
#
# 1 52.2479 29.1156 27.8871 0.0000 0.0000 0.0000
# 2 29.1156 55.2124 20.0428 0.0000 0.0000 0.0000
# 3 27.8871 20.0428 86.4848 0.0000 0.0000 0.0000
# 4 0.0000 0.0000 0.0000 13.6821 0.0000 0.0000
# 5 0.0000 0.0000 0.0000 0.0000 16.9411 0.0000
# 6 0.0000 0.0000 0.0000 0.0000 0.0000 15.7438
#
#
#
# Elastic Compliance Matrix: (Units=1/GPa)
#
#
# Indices 1 2 3 4 5 6 
#
# 1 0.030204 -0.013531 -0.006604 0.000000 0.000000 0.000000
# 2 -0.013531 0.025837 -0.001625 0.000000 0.000000 0.000000
# 3 -0.006604 -0.001625 0.014069 0.000000 0.000000 0.000000
# 4 0.000000 0.000000 0.000000 0.073088 0.000000 0.000000
# 5 0.000000 0.000000 0.000000 0.000000 0.059028 0.000000
# 6 0.000000 0.000000 0.000000 0.000000 0.000000 0.063517
#
#
# Mechanical properties :
#
#
# Convention : Reuss Voigt Hill
#
# Bulk Modulus (GPa) = 37.60569 38.67065 38.13817
# Shear Modulus (GPa) = 15.71708 17.06670 16.39189
#
# Velocity S-wave (km/s) = 3.25037 3.38705 3.31941
# Velocity P-wave (km/s) = 6.27414 6.42575 6.35040
#
# Compressibility (1/GPa) = 0.02659172
#
# Stress axis : x y z
#
# Youngs Moduli (GPa) = 33.10790 38.70437 71.08021
#
# Poissons Ratio (x) = 0.52369 0.46939
# Poissons Ratio (y) = 0.44797 0.11549
# Poissons Ratio (z) = 0.21863 0.06288
#
# Static dielectric constant tensor:
#      x y z
#    x 2.978910 0.000000 0.000000 
#    y 0.000000 2.507100 0.000000 
#    z 0.000000 0.000000 3.003680 
# 
# 
# High freq. dielectric constant tensor:
#      x y z
#    x 1.555600 0.000000 0.000000 
#    y 0.000000 1.512860 0.000000 
#    z 0.000000 0.000000 1.576950 
# 
# From -- ./inp_files/43213.got.cif
#   From: 2010.03.12/outbox.cif.g09.slc.cpg/sg66_22_cif.got.tgz:43213.got - 2010.04.10 21:57:39.
