data_PCOD8275630
_publ_section_title
;
Structure prediction by ZEFSAII (Michael W. Deem and Ramdas Pophale) SiO2 
 PCOD8275630
Probable space group: C C C M
;
_chemical_formula_sum "Si O2"
_cell_formula_units_Z 68
_cell_length_a 9.171632
_cell_length_b 19.920639
_cell_length_c 19.705167
_cell_angle_alpha 90.000000
_cell_angle_beta 90.000000
_cell_angle_gamma 90.000000
_cell_volume 3600.228007
_symmetry_space_group_name_H-M "C C C M"
_symmetry_group_IT_number 66
_symmetry_cell_setting 'orthorhombic'
loop_
_space_group_symop_operation_xyz
x,y,z
-x,-y,z
x,-y,1/2-z
-x,y,1/2-z
-x,-y,-z
x,y,-z
-x,y,1/2+z
x,-y,1/2+z
1/2+x,1/2+y,z
1/2-x,1/2-y,z
1/2+x,1/2-y,1/2-z
1/2-x,1/2+y,1/2-z
1/2-x,1/2-y,-z
1/2+x,1/2+y,-z
1/2-x,1/2+y,1/2+z
1/2+x,1/2-y,1/2+z
loop_
_atom_site_type_symbol
_atom_site_label
_atom_site_fract_x
_atom_site_fract_y
_atom_site_fract_z
Si Si1 0.670405 0.921543 0.423220
Si Si2 0.143378 0.565654 0.372694
Si Si3 0.169488 0.182341 0.330151
Si Si4 0.831190 0.182666 0.672167
Si Si5 0.000000 0.500000 0.750000
O O1 0.710333 0.902005 0.500000
O O2 0.500237 0.906070 0.410057
O O3 0.770475 0.879804 0.372463
O O4 0.703503 0.000274 0.411455
O O5 0.267986 0.621678 0.372314
O O6 0.101935 0.547084 0.295606
O O7 0.250000 0.250000 0.353401
O O8 0.196932 0.167634 0.251190
O O9 0.999628 0.191296 0.345506
O O10 0.750000 0.250000 0.649684
#
# Coordination Sequence:
#
# PCOD8275630 Si02
#       5
#    16  16  16  16   4
#     4  10  21  37  56  77 108 148 182 215 259 316
#     4  10  18  33  55  80 107 139 181 223 264 314
#     4  10  21  36  56  82 111 141 174 219 273 323
#     4  10  20  35  57  84 109 135 175 226 275 319
#     4   8  16  28  54  82 104 136 172 222 276 316
#
# _framework density 18.887692999999999
#
# number of rings (size 3 to 8) (size 9 to 14) (size 15 to 20)
#    0.000    2.353    0.000    5.647    0.000    5.176 
#    0.000    5.882    0.000    4.941    0.000    0.000 
#    0.000    0.000    0.000    0.000    0.000    0.000 
#
# Total GULP energy -421662.938153 kJ/mol
# GULP energy per Si atom -12401.851122 kJ/mol
# Density = 1.884470 g / cm^3
# Si number density = 18.887693 Si / 1000 Ang^3
#
#
#
# Elastic Constant Matrix: (Units=GPa)
#
#
# Indices 1 2 3 4 5 6 
#
# 1 122.7405 83.1488 31.9297 0.0000 0.0000 0.0000
# 2 83.1488 105.7634 32.3977 0.0000 0.0000 0.0000
# 3 31.9297 32.3977 72.5783 0.0000 0.0000 0.0000
# 4 0.0000 0.0000 0.0000 2.6128 0.0000 0.0000
# 5 0.0000 0.0000 0.0000 0.0000 -0.0743 0.0000
# 6 0.0000 0.0000 0.0000 0.0000 0.0000 46.1258
#
#
#
# Elastic Compliance Matrix: (Units=1/GPa)
#
#
# Indices 1 2 3 4 5 6 
#
# 1 0.017635 -0.013307 -0.001818 0.000000 0.000000 0.000000
# 2 -0.013307 0.020994 -0.003517 0.000000 0.000000 0.000000
# 3 -0.001818 -0.003517 0.016148 0.000000 0.000000 0.000000
# 4 0.000000 0.000000 0.000000 0.382732 0.000000 0.000000
# 5 0.000000 0.000000 0.000000 0.000000-13.449931 0.000000
# 6 0.000000 0.000000 0.000000 0.000000 0.000000 0.021680
#
#
# Mechanical properties :
#
#
# Convention : Reuss Voigt Hill
#
# Bulk Modulus (GPa) = 57.16806 66.22606 61.69706
# Shear Modulus (GPa) = -0.38617 19.97325 9.79354
#
# Velocity S-wave (km/s) = -0.45266 3.25541 2.27956
# Velocity P-wave (km/s) = 5.48269 7.01922 6.29799
#
# Compressibility (1/GPa) = 0.01749228
#
# Stress axis : x y z
#
# Youngs Moduli (GPa) = 56.70481 47.63152 61.92685
#
# Poissons Ratio (x) = 0.63386 0.11259
# Poissons Ratio (y) = 0.75460 0.21781
# Poissons Ratio (z) = 0.10310 0.16753
#
# Static dielectric constant tensor:
#      x y z
#    x 3.400020 0.000000 0.000000 
#    y 0.000000 3.440650 0.000000 
#    z 0.000000 0.000000 3.285560 
# 
# 
# High freq. dielectric constant tensor:
#      x y z
#    x 1.728130 0.000000 0.000000 
#    y 0.000000 1.737220 0.000000 
#    z 0.000000 0.000000 1.718530 
# 
# From -- ./inp_files/46754.got.cif
#   From: 2010.03.12/outbox.cif.g09.slc.cpg/sg66_24_cif.got.tgz:46754.got - 2010.04.10 21:57:39.
