data_PCOD8275393
_publ_section_title
;
Structure prediction by ZEFSAII (Michael W. Deem and Ramdas Pophale) SiO2 
 PCOD8275393
Probable space group: C C C M
;
_chemical_formula_sum "Si O2"
_cell_formula_units_Z 80
_cell_length_a 22.645187
_cell_length_b 10.568434
_cell_length_c 17.787495
_cell_angle_alpha 90.000000
_cell_angle_beta 90.000000
_cell_angle_gamma 90.000000
_cell_volume 4256.977375
_symmetry_space_group_name_H-M "C C C M"
_symmetry_group_IT_number 66
_symmetry_cell_setting 'orthorhombic'
loop_
_space_group_symop_operation_xyz
x,y,z
-x,-y,z
x,-y,1/2-z
-x,y,1/2-z
-x,-y,-z
x,y,-z
-x,y,1/2+z
x,-y,1/2+z
1/2+x,1/2+y,z
1/2-x,1/2-y,z
1/2+x,1/2-y,1/2-z
1/2-x,1/2+y,1/2-z
1/2-x,1/2-y,-z
1/2+x,1/2+y,-z
1/2-x,1/2+y,1/2+z
1/2+x,1/2-y,1/2+z
loop_
_atom_site_type_symbol
_atom_site_label
_atom_site_fract_x
_atom_site_fract_y
_atom_site_fract_z
Si Si1 0.793453 0.642862 0.160083
Si Si2 0.381775 0.458498 0.327861
Si Si3 0.749357 0.616769 0.673351
Si Si4 0.979084 0.144467 0.082966
Si Si5 0.894644 0.213012 0.588809
O O1 0.750000 0.750000 0.125689
O O2 0.786979 0.637773 0.250187
O O3 0.776669 0.502518 0.127922
O O4 0.859646 0.677985 0.134148
O O5 0.413010 0.500000 0.250000
O O6 0.318286 0.406032 0.304999
O O7 0.422500 0.345944 0.362350
O O8 0.373315 0.574258 0.385525
O O9 0.750000 0.750000 0.626929
O O10 0.035386 0.229527 0.107815
O O11 0.958422 0.185815 0.000000
O O12 0.000000 0.000000 0.082878
O O13 0.883020 0.225518 0.500000
#
# Coordination Sequence:
#
# PCOD8275393 Si02
#       5
#    16  16  16  16  16
#     4  10  17  33  52  77 105 144 183 223 278 328
#     4  11  17  31  52  80 114 145 183 231 290 337
#     4  10  19  32  51  77 114 142 177 230 287 334
#     4   8  17  31  48  75 109 142 176 227 280 324
#     4  10  20  34  54  81 110 143 191 233 272 334
#
# _framework density 18.792677000000001
#
# number of rings (size 3 to 8) (size 9 to 14) (size 15 to 20)
#    0.000    2.200    4.000    3.000    0.000    4.000 
#    0.000    0.000    0.000    6.600    0.000    8.400 
#    0.000    0.000    0.000    0.000    0.000    0.000 
#
# Total GULP energy -495535.813047 kJ/mol
# GULP energy per Si atom -12388.395326 kJ/mol
# Density = 1.874990 g / cm^3
# Si number density = 18.792677 Si / 1000 Ang^3
#
#
#
# Elastic Constant Matrix: (Units=GPa)
#
#
# Indices 1 2 3 4 5 6 
#
# 1 132.7067 49.5812 65.7878 0.0000 0.0000 0.0000
# 2 49.5812 127.2297 22.2064 0.0000 0.0000 0.0000
# 3 65.7878 22.2064 78.2683 0.0000 0.0000 0.0000
# 4 0.0000 0.0000 0.0000 13.3608 0.0000 0.0000
# 5 0.0000 0.0000 0.0000 0.0000 6.3909 0.0000
# 6 0.0000 0.0000 0.0000 0.0000 0.0000 25.4236
#
#
#
# Elastic Compliance Matrix: (Units=1/GPa)
#
#
# Indices 1 2 3 4 5 6 
#
# 1 0.014387 -0.003678 -0.011050 0.000000 0.000000 0.000000
# 2 -0.003678 0.009210 0.000479 0.000000 0.000000 0.000000
# 3 -0.011050 0.000479 0.021928 0.000000 0.000000 0.000000
# 4 0.000000 0.000000 0.000000 0.074846 0.000000 0.000000
# 5 0.000000 0.000000 0.000000 0.000000 0.156473 0.000000
# 6 0.000000 0.000000 0.000000 0.000000 0.000000 0.039333
#
#
# Mechanical properties :
#
#
# Convention : Reuss Voigt Hill
#
# Bulk Modulus (GPa) = 58.72947 68.15059 63.44003
# Shear Modulus (GPa) = 14.27138 22.41036 18.34087
#
# Velocity S-wave (km/s) = 2.75873 3.45701 3.12742
# Velocity P-wave (km/s) = 6.43945 7.23034 6.84632
#
# Compressibility (1/GPa) = 0.01702723
#
# Stress axis : x y z
#
# Youngs Moduli (GPa) = 69.50559 108.58214 45.60296
#
# Poissons Ratio (x) = 0.39938 0.50389
# Poissons Ratio (y) = 0.25565 -0.02183
# Poissons Ratio (z) = 0.76801 -0.05198
#
# Static dielectric constant tensor:
#      x y z
#    x 3.687190 0.000000 0.000000 
#    y 0.000000 3.680620 0.000000 
#    z 0.000000 0.000000 3.223180 
# 
# 
# High freq. dielectric constant tensor:
#      x y z
#    x 1.729150 0.000000 0.000000 
#    y 0.000000 1.696870 0.000000 
#    z 0.000000 0.000000 1.701970 
# 
# From -- ./inp_files/32086.got.cif
#   From: 2010.03.12/outbox.cif.g09.slc.cpg/sg66_17_cif.got.tgz:32086.got - 2010.04.10 21:57:39.
