data_PCOD8275064
_publ_section_title
;
Structure prediction by ZEFSAII (Michael W. Deem and Ramdas Pophale) SiO2 
 PCOD8275064
Probable space group: C M M M
;
_chemical_formula_sum "Si O2"
_cell_formula_units_Z 104
_cell_length_a 9.196532
_cell_length_b 30.616946
_cell_length_c 22.468003
_cell_angle_alpha 90.000000
_cell_angle_beta 90.000000
_cell_angle_gamma 90.000000
_cell_volume 6326.309395
_symmetry_space_group_name_H-M "C M M M"
_symmetry_group_IT_number 65
_symmetry_cell_setting 'orthorhombic'
loop_
_space_group_symop_operation_xyz
x,y,z
-x,-y,z
x,-y,-z
-x,y,-z
-x,-y,-z
x,y,-z
-x,y,z
x,-y,z
1/2+x,1/2+y,z
1/2-x,1/2-y,z
1/2+x,1/2-y,-z
1/2-x,1/2+y,-z
1/2-x,1/2-y,-z
1/2+x,1/2+y,-z
1/2-x,1/2+y,z
1/2+x,1/2-y,z
loop_
_atom_site_type_symbol
_atom_site_label
_atom_site_fract_x
_atom_site_fract_y
_atom_site_fract_z
Si Si1 0.827319 0.548442 0.066400
Si Si2 0.171027 0.622444 0.846032
Si Si3 0.664013 0.291880 0.705324
Si Si4 0.330670 0.950103 0.615744
Si Si5 0.664166 0.708373 0.153012
Si Si6 0.668786 0.122478 0.290726
Si Si7 0.336332 0.551885 0.500000
O O1 0.767904 0.500000 0.081934
O O2 0.767308 0.582465 0.114816
O O3 0.000000 0.547839 0.069012
O O4 0.775908 0.562013 0.000000
O O5 0.253572 0.665254 0.869101
O O6 0.208331 0.612113 0.777537
O O7 0.000000 0.630112 0.855173
O O8 0.500000 0.291119 0.680277
O O9 0.750000 0.250000 0.679397
O O10 0.664181 0.289798 0.776119
O O11 0.741527 0.336369 0.684184
O O12 0.500000 0.947165 0.600239
O O13 0.289544 0.920613 0.672323
O O14 0.244743 0.931235 0.558963
O O15 0.285948 0.000000 0.630784
O O16 0.500000 0.708600 0.128175
O O17 0.750000 0.750000 0.126993
O O18 0.500000 0.134619 0.297224
O O19 0.332747 0.500000 0.500000
O O20 0.500000 0.570191 0.500000
#
# Coordination Sequence:
#
# PCOD8275064 Si02
#       7
#    16  16  16  16  16  16   8
#     4   8  14  25  42  64  87 112 146 185 219 252
#     4   9  16  26  42  64  89 115 143 178 218 257
#     4   9  16  26  41  60  84 114 145 177 213 254
#     4   9  17  29  44  62  87 118 148 178 213 253
#     4   9  16  26  41  61  85 112 141 173 212 259
#     4   9  17  27  40  63  92 117 143 176 216 260
#     4   9  17  29  45  63  82 109 148 187 217 249
#
# _framework density 16.439285000000002
#
# number of rings (size 3 to 8) (size 9 to 14) (size 15 to 20)
#    0.000    3.154    0.000    1.615    0.000    5.846 
#    0.000    3.077    0.000    1.385    0.000    5.923 
#    0.000    0.000    0.000    0.000    0.000    0.000 
#
# Total GULP energy -644655.178661 kJ/mol
# GULP energy per Si atom -12397.214974 kJ/mol
# Density = 1.640187 g / cm^3
# Si number density = 16.439285 Si / 1000 Ang^3
#
#
#
# Elastic Constant Matrix: (Units=GPa)
#
#
# Indices 1 2 3 4 5 6 
#
# 1 76.6196 58.2407 35.7567 0.0000 0.0000 0.0000
# 2 58.2407 137.8298 64.2711 0.0000 0.0000 0.0000
# 3 35.7567 64.2711 69.8887 0.0000 0.0000 0.0000
# 4 0.0000 0.0000 0.0000 4.6485 0.0000 0.0000
# 5 0.0000 0.0000 0.0000 0.0000 9.9248 0.0000
# 6 0.0000 0.0000 0.0000 0.0000 0.0000 24.7786
#
#
#
# Elastic Compliance Matrix: (Units=1/GPa)
#
#
# Indices 1 2 3 4 5 6 
#
# 1 0.019937 -0.006422 -0.004295 0.000000 0.000000 0.000000
# 2 -0.006422 0.014771 -0.010298 0.000000 0.000000 0.000000
# 3 -0.004295 -0.010298 0.025976 0.000000 0.000000 0.000000
# 4 0.000000 0.000000 0.000000 0.215123 0.000000 0.000000
# 5 0.000000 0.000000 0.000000 0.000000 0.100758 0.000000
# 6 0.000000 0.000000 0.000000 0.000000 0.000000 0.040357
#
#
# Mechanical properties :
#
#
# Convention : Reuss Voigt Hill
#
# Bulk Modulus (GPa) = 53.60509 66.76392 60.18450
# Shear Modulus (GPa) = 10.74876 16.27501 13.51189
#
# Velocity S-wave (km/s) = 2.55981 3.14985 2.87004
# Velocity P-wave (km/s) = 6.43549 7.34366 6.90452
#
# Compressibility (1/GPa) = 0.01865494
#
# Stress axis : x y z
#
# Youngs Moduli (GPa) = 50.15747 67.69992 38.49704
#
# Poissons Ratio (x) = 0.43477 0.16533
# Poissons Ratio (y) = 0.32211 0.39645
# Poissons Ratio (z) = 0.21540 0.69718
#
# Static dielectric constant tensor:
#      x y z
#    x 3.069370 0.000000 0.000000 
#    y 0.000000 3.236170 0.000000 
#    z 0.000000 0.000000 2.864490 
# 
# 
# High freq. dielectric constant tensor:
#      x y z
#    x 1.622490 0.000000 0.000000 
#    y 0.000000 1.633170 0.000000 
#    z 0.000000 0.000000 1.593060 
# 
# From -- ./inp_files/68531.got.cif
#   From: 2010.03.12/outbox.cif.g09.slc.cpg/sg65_35_cif.got.tgz:68531.got - 2010.04.10 20:52:16.
