data_PCOD8275422
_publ_section_title
;
Structure prediction by ZEFSAII (Michael W. Deem and Ramdas Pophale) SiO2 
 PCOD8275422
Probable space group: C C C M
;
_chemical_formula_sum "Si O2"
_cell_formula_units_Z 96
_cell_length_a 28.201670
_cell_length_b 10.068004
_cell_length_c 17.183744
_cell_angle_alpha 90.000000
_cell_angle_beta 90.000000
_cell_angle_gamma 90.000000
_cell_volume 4879.058214
_symmetry_space_group_name_H-M "C C C M"
_symmetry_group_IT_number 66
_symmetry_cell_setting 'orthorhombic'
loop_
_space_group_symop_operation_xyz
x,y,z
-x,-y,z
x,-y,1/2-z
-x,y,1/2-z
-x,-y,-z
x,y,-z
-x,y,1/2+z
x,-y,1/2+z
1/2+x,1/2+y,z
1/2-x,1/2-y,z
1/2+x,1/2-y,1/2-z
1/2-x,1/2+y,1/2-z
1/2-x,1/2-y,-z
1/2+x,1/2+y,-z
1/2-x,1/2+y,1/2+z
1/2+x,1/2-y,1/2+z
loop_
_atom_site_type_symbol
_atom_site_label
_atom_site_fract_x
_atom_site_fract_y
_atom_site_fract_z
Si Si1 0.753526 0.593699 0.824810
Si Si2 0.913821 0.240815 0.672227
Si Si3 0.146161 0.514414 0.657902
Si Si4 0.101738 0.757832 0.855733
Si Si5 0.002588 0.847481 0.911152
Si Si6 0.344913 0.511568 0.657867
O O1 0.754106 0.500000 0.750000
O O2 0.750000 0.750000 0.801288
O O3 0.801719 0.560609 0.873002
O O4 0.706633 0.556331 0.875253
O O5 0.891958 0.374174 0.636601
O O6 0.912044 0.239352 0.765251
O O7 0.967902 0.235424 0.644501
O O8 0.884952 0.118112 0.635651
O O9 0.150016 0.500000 0.750000
O O10 0.127381 0.378704 0.619344
O O11 0.054472 0.783391 0.904685
O O12 0.139799 0.870991 0.877743
O O13 0.985432 0.836725 0.000000
O O14 0.000000 0.000000 0.882800
O O15 0.340553 0.500000 0.750000
#
# Coordination Sequence:
#
# PCOD8275422 Si02
#       6
#    16  16  16  16  16  16
#     4  10  18  27  44  76 115 146 173 213 263 314
#     4  10  18  34  54  78 106 141 174 214 263 315
#     4   9  19  31  49  77 114 141 171 217 262 309
#     4  10  20  34  53  80 107 140 178 216 265 315
#     4  11  23  37  55  79 103 134 179 228 273 319
#     4   9  17  27  48  74 106 141 174 206 255 314
#
# _framework density 19.675929
#
# number of rings (size 3 to 8) (size 9 to 14) (size 15 to 20)
#    0.000    2.167    3.333    0.500    7.000    1.333 
#    0.000    4.167    0.000    0.000    0.000    7.000 
#    0.000    0.000    0.000    0.000    0.000    0.000 
#
# Total GULP energy -594998.216455 kJ/mol
# GULP energy per Si atom -12395.796176 kJ/mol
# Density = 1.963115 g / cm^3
# Si number density = 19.675929 Si / 1000 Ang^3
#
#
#
# Elastic Constant Matrix: (Units=GPa)
#
#
# Indices 1 2 3 4 5 6 
#
# 1 150.6528 66.7796 13.6395 0.0000 0.0000 0.0000
# 2 66.7796 166.3627 12.7291 0.0000 0.0000 0.0000
# 3 13.6395 12.7291 20.6249 0.0000 0.0000 0.0000
# 4 0.0000 0.0000 0.0000 9.2147 0.0000 0.0000
# 5 0.0000 0.0000 0.0000 0.0000 2.9022 0.0000
# 6 0.0000 0.0000 0.0000 0.0000 0.0000 39.2468
#
#
#
# Elastic Compliance Matrix: (Units=1/GPa)
#
#
# Indices 1 2 3 4 5 6 
#
# 1 0.008323 -0.003065 -0.003613 0.000000 0.000000 0.000000
# 2 -0.003065 0.007437 -0.002563 0.000000 0.000000 0.000000
# 3 -0.003613 -0.002563 0.052456 0.000000 0.000000 0.000000
# 4 0.000000 0.000000 0.000000 0.108522 0.000000 0.000000
# 5 0.000000 0.000000 0.000000 0.000000 0.344567 0.000000
# 6 0.000000 0.000000 0.000000 0.000000 0.000000 0.025480
#
#
# Mechanical properties :
#
#
# Convention : Reuss Voigt Hill
#
# Bulk Modulus (GPa) = 20.10653 58.21521 39.16087
# Shear Modulus (GPa) = 8.59334 26.57222 17.58278
#
# Velocity S-wave (km/s) = 2.09211 3.67889 2.99259
# Velocity P-wave (km/s) = 4.00960 6.90630 5.64685
#
# Compressibility (1/GPa) = 0.04973509
#
# Stress axis : x y z
#
# Youngs Moduli (GPa) = 120.14428 134.45791 19.06347
#
# Poissons Ratio (x) = 0.41206 0.06887
# Poissons Ratio (y) = 0.36820 0.04887
# Poissons Ratio (z) = 0.43407 0.34467
#
# Static dielectric constant tensor:
#      x y z
#    x 4.053150 0.000000 0.000000 
#    y 0.000000 3.851550 0.000000 
#    z 0.000000 0.000000 2.841850 
# 
# 
# High freq. dielectric constant tensor:
#      x y z
#    x 1.788110 0.000000 0.000000 
#    y 0.000000 1.778760 0.000000 
#    z 0.000000 0.000000 1.690900 
# 
# From -- ./inp_files/52933.got.cif
#   From: 2010.03.12/outbox.cif.g09.slc.cpg/sg66_27_cif.got.tgz:52933.got - 2010.04.10 21:57:39.
