data_PCOD8275343
_publ_section_title
;
Structure prediction by ZEFSAII (Michael W. Deem and Ramdas Pophale) SiO2 
 PCOD8275343
Probable space group: C C C M
;
_chemical_formula_sum "Si O2"
_cell_formula_units_Z 96
_cell_length_a 23.179702
_cell_length_b 16.365984
_cell_length_c 15.357024
_cell_angle_alpha 90.000000
_cell_angle_beta 90.000000
_cell_angle_gamma 90.000000
_cell_volume 5825.819617
_symmetry_space_group_name_H-M "C C C M"
_symmetry_group_IT_number 66
_symmetry_cell_setting 'orthorhombic'
loop_
_space_group_symop_operation_xyz
x,y,z
-x,-y,z
x,-y,1/2-z
-x,y,1/2-z
-x,-y,-z
x,y,-z
-x,y,1/2+z
x,-y,1/2+z
1/2+x,1/2+y,z
1/2-x,1/2-y,z
1/2+x,1/2-y,1/2-z
1/2-x,1/2+y,1/2-z
1/2-x,1/2-y,-z
1/2+x,1/2+y,-z
1/2-x,1/2+y,1/2+z
1/2+x,1/2-y,1/2+z
loop_
_atom_site_type_symbol
_atom_site_label
_atom_site_fract_x
_atom_site_fract_y
_atom_site_fract_z
Si Si1 0.530448 0.635080 0.338669
Si Si2 0.714652 0.571598 0.307932
Si Si3 0.295899 0.178952 0.596360
Si Si4 0.916921 0.812760 0.901548
Si Si5 0.394057 0.499851 0.902188
Si Si6 0.358933 0.719483 0.232047
O O1 0.500000 0.608264 0.250000
O O2 0.486527 0.693725 0.393037
O O3 0.547476 0.552173 0.389164
O O4 0.588367 0.685486 0.323924
O O5 0.743413 0.500000 0.250000
O O6 0.762700 0.595148 0.379366
O O7 0.657235 0.532353 0.344865
O O8 0.694122 0.654774 0.258578
O O9 0.325584 0.167703 0.500000
O O10 0.250000 0.250000 0.586361
O O11 0.339336 0.201143 0.676053
O O12 0.881540 0.758325 0.830439
O O13 0.905026 0.906702 0.876270
O O14 0.897836 0.789005 0.000000
O O15 0.372990 0.506850 0.000000
#
# Coordination Sequence:
#
# PCOD8275343 Si02
#       6
#    16  16  16  16  16  16
#     4   9  18  26  39  59  89 124 157 189 222 262
#     4  10  17  29  46  64  86 115 150 194 239 273
#     4   9  18  31  48  66  85 113 155 200 240 275
#     4  10  18  27  39  60  90 125 157 184 217 268
#     4  10  18  26  39  60  87 119 155 188 222 263
#     4   9  18  30  43  61  90 123 156 190 230 269
#
# _framework density 16.478369000000001
#
# number of rings (size 3 to 8) (size 9 to 14) (size 15 to 20)
#    0.000    2.500    1.667    1.500    0.000    8.000 
#    0.000    0.000    0.000    6.500    0.000    0.000 
#    0.000    6.000    0.000   15.000    0.000    1.000 
#
# Total GULP energy -594666.521902 kJ/mol
# GULP energy per Si atom -12388.885873 kJ/mol
# Density = 1.644086 g / cm^3
# Si number density = 16.478369 Si / 1000 Ang^3
#
#
#
# Elastic Constant Matrix: (Units=GPa)
#
#
# Indices 1 2 3 4 5 6 
#
# 1 47.1910 19.3429 34.9587 0.0000 0.0000 0.0000
# 2 19.3429 32.8246 23.5418 0.0000 0.0000 0.0000
# 3 34.9587 23.5418 107.8563 0.0000 0.0000 0.0000
# 4 0.0000 0.0000 0.0000 15.6866 0.0000 0.0000
# 5 0.0000 0.0000 0.0000 0.0000 21.1403 0.0000
# 6 0.0000 0.0000 0.0000 0.0000 0.0000 15.0454
#
#
#
# Elastic Compliance Matrix: (Units=1/GPa)
#
#
# Indices 1 2 3 4 5 6 
#
# 1 0.032357 -0.013688 -0.007500 0.000000 0.000000 0.000000
# 2 -0.013688 0.041910 -0.004711 0.000000 0.000000 0.000000
# 3 -0.007500 -0.004711 0.012731 0.000000 0.000000 0.000000
# 4 0.000000 0.000000 0.000000 0.063749 0.000000 0.000000
# 5 0.000000 0.000000 0.000000 0.000000 0.047303 0.000000
# 6 0.000000 0.000000 0.000000 0.000000 0.000000 0.066466
#
#
# Mechanical properties :
#
#
# Convention : Reuss Voigt Hill
#
# Bulk Modulus (GPa) = 28.40971 38.17318 33.29144
# Shear Modulus (GPa) = 15.24173 17.70969 16.47571
#
# Velocity S-wave (km/s) = 3.04461 3.28185 3.16545
# Velocity P-wave (km/s) = 5.44404 6.12998 5.79716
#
# Compressibility (1/GPa) = 0.03519923
#
# Stress axis : x y z
#
# Youngs Moduli (GPa) = 30.90526 23.86065 78.55003
#
# Poissons Ratio (x) = 0.32661 0.58911
# Poissons Ratio (y) = 0.42304 0.37005
# Poissons Ratio (z) = 0.23179 0.11241
#
# Static dielectric constant tensor:
#      x y z
#    x 3.131370 0.000000 0.000000 
#    y 0.000000 2.780120 0.000000 
#    z 0.000000 0.000000 3.335680 
# 
# 
# High freq. dielectric constant tensor:
#      x y z
#    x 1.617140 0.000000 0.000000 
#    y 0.000000 1.570680 0.000000 
#    z 0.000000 0.000000 1.645870 
# 
# From -- ./inp_files/42996.got.cif
#   From: 2010.03.12/outbox.cif.g09.slc.cpg/sg66_22_cif.got.tgz:42996.got - 2010.04.10 21:57:39.
