data_PCOD8275981
_publ_section_title
;
Structure prediction by ZEFSAII (Michael W. Deem and Ramdas Pophale) SiO2 
 PCOD8275981
Probable space group: C C C M
;
_chemical_formula_sum "Si O2"
_cell_formula_units_Z 120
_cell_length_a 10.887135
_cell_length_b 20.785385
_cell_length_c 26.415833
_cell_angle_alpha 90.000000
_cell_angle_beta 90.000000
_cell_angle_gamma 90.000000
_cell_volume 5977.725824
_symmetry_space_group_name_H-M "C C C M"
_symmetry_group_IT_number 66
_symmetry_cell_setting 'orthorhombic'
loop_
_space_group_symop_operation_xyz
x,y,z
-x,-y,z
x,-y,1/2-z
-x,y,1/2-z
-x,-y,-z
x,y,-z
-x,y,1/2+z
x,-y,1/2+z
1/2+x,1/2+y,z
1/2-x,1/2-y,z
1/2+x,1/2-y,1/2-z
1/2-x,1/2+y,1/2-z
1/2-x,1/2-y,-z
1/2+x,1/2+y,-z
1/2-x,1/2+y,1/2+z
1/2+x,1/2-y,1/2+z
loop_
_atom_site_type_symbol
_atom_site_label
_atom_site_fract_x
_atom_site_fract_y
_atom_site_fract_z
Si Si1 0.551759 0.897666 0.371723
Si Si2 0.861042 0.570042 0.734805
Si Si3 0.280352 0.959192 0.057809
Si Si4 0.250000 0.750000 0.608917
Si Si5 0.398095 0.550236 0.610016
Si Si6 0.214836 0.622132 0.331047
Si Si7 0.577886 0.360333 0.057464
Si Si8 0.505758 0.778750 0.558708
O O1 0.644455 0.904969 0.323294
O O2 0.595010 0.955350 0.408980
O O3 0.410675 0.905720 0.355717
O O4 0.562174 0.830610 0.402630
O O5 0.802352 0.500000 0.750000
O O6 0.797422 0.624810 0.770084
O O7 0.000000 0.565135 0.750000
O O8 0.204764 0.894536 0.073062
O O9 0.194465 0.020647 0.068304
O O10 0.321448 0.961105 0.000000
O O11 0.257189 0.689720 0.646626
O O12 0.367093 0.758214 0.572745
O O13 0.500000 0.500000 0.628043
O O14 0.319588 0.569669 0.658504
O O15 0.461167 0.613848 0.588167
O O16 0.591520 0.283992 0.064857
O O17 0.549156 0.379102 0.000000
O O18 0.507959 0.803286 0.500000
#
# Coordination Sequence:
#
# PCOD8275981 Si02
#       8
#    16  16  16   8  16  16  16  16
#     4  10  21  35  54  84 115 147 190 242 292 354
#     4   9  18  35  59  81 105 142 186 233 292 357
#     4  10  20  34  52  79 116 152 191 239 291 350
#     4  10  19  34  56  84 118 150 197 250 286 354
#     4  10  19  34  57  83 111 150 194 239 284 346
#     4  10  20  36  59  84 110 149 192 243 296 349
#     4   9  18  33  53  76 110 159 201 228 276 350
#     4  10  19  33  54  82 119 158 197 240 296 358
#
# _framework density 20.074524
#
# number of rings (size 3 to 8) (size 9 to 14) (size 15 to 20)
#    0.000    2.267    1.333    1.800    0.000    3.733 
#    0.000    6.000    0.000    9.200    0.000    0.000 
#    0.000    0.000    0.000    0.000    0.000    0.000 
#
# Total GULP energy -743445.556203 kJ/mol
# GULP energy per Si atom -12390.759270 kJ/mol
# Density = 2.002883 g / cm^3
# Si number density = 20.074524 Si / 1000 Ang^3
#
#
#
# Elastic Constant Matrix: (Units=GPa)
#
#
# Indices 1 2 3 4 5 6 
#
# 1 57.4351 26.3207 41.1320 0.0000 0.0000 0.0000
# 2 26.3207 79.3710 51.2147 0.0000 0.0000 0.0000
# 3 41.1320 51.2147 146.4046 0.0000 0.0000 0.0000
# 4 0.0000 0.0000 0.0000 21.8388 0.0000 0.0000
# 5 0.0000 0.0000 0.0000 0.0000 21.0139 0.0000
# 6 0.0000 0.0000 0.0000 0.0000 0.0000 18.4921
#
#
#
# Elastic Compliance Matrix: (Units=1/GPa)
#
#
# Indices 1 2 3 4 5 6 
#
# 1 0.022956 -0.004457 -0.004890 0.000000 0.000000 0.000000
# 2 -0.004457 0.017137 -0.004743 0.000000 0.000000 0.000000
# 3 -0.004890 -0.004743 0.009863 0.000000 0.000000 0.000000
# 4 0.000000 0.000000 0.000000 0.045790 0.000000 0.000000
# 5 0.000000 0.000000 0.000000 0.000000 0.047588 0.000000
# 6 0.000000 0.000000 0.000000 0.000000 0.000000 0.054077
#
#
# Mechanical properties :
#
#
# Convention : Reuss Voigt Hill
#
# Bulk Modulus (GPa) = 45.92125 57.83841 51.87983
# Shear Modulus (GPa) = 21.47308 23.23850 22.35579
#
# Velocity S-wave (km/s) = 3.27413 3.40606 3.34074
# Velocity P-wave (km/s) = 6.10068 6.65903 6.38596
#
# Compressibility (1/GPa) = 0.02177641
#
# Stress axis : x y z
#
# Youngs Moduli (GPa) = 43.56247 58.35203 101.38530
#
# Poissons Ratio (x) = 0.26008 0.49579
# Poissons Ratio (y) = 0.19416 0.48084
# Poissons Ratio (z) = 0.21303 0.27675
#
# Static dielectric constant tensor:
#      x y z
#    x 3.582500 0.000000 0.000000 
#    y 0.000000 3.695050 0.000000 
#    z 0.000000 0.000000 3.827760 
# 
# 
# High freq. dielectric constant tensor:
#      x y z
#    x 1.774570 0.000000 0.000000 
#    y 0.000000 1.780300 0.000000 
#    z 0.000000 0.000000 1.775090 
# 
# From -- ./inp_files/57241.got.cif
#   From: 2010.03.12/outbox.cif.g09.slc.cpg/sg66_29_cif.got.tgz:57241.got - 2010.04.10 21:57:39.
