data_PCOD8275133
_publ_section_title
;
Structure prediction by ZEFSAII (Michael W. Deem and Ramdas Pophale) SiO2 
 PCOD8275133
Probable space group: C M M M
;
_chemical_formula_sum "Si O2"
_cell_formula_units_Z 104
_cell_length_a 14.926671
_cell_length_b 18.167314
_cell_length_c 19.059515
_cell_angle_alpha 90.000000
_cell_angle_beta 90.000000
_cell_angle_gamma 90.000000
_cell_volume 5168.511992
_symmetry_space_group_name_H-M "C M M M"
_symmetry_group_IT_number 65
_symmetry_cell_setting 'orthorhombic'
loop_
_space_group_symop_operation_xyz
x,y,z
-x,-y,z
x,-y,-z
-x,y,-z
-x,-y,-z
x,y,-z
-x,y,z
x,-y,z
1/2+x,1/2+y,z
1/2-x,1/2-y,z
1/2+x,1/2-y,-z
1/2-x,1/2+y,-z
1/2-x,1/2-y,-z
1/2+x,1/2+y,-z
1/2-x,1/2+y,z
1/2+x,1/2-y,z
loop_
_atom_site_type_symbol
_atom_site_label
_atom_site_fract_x
_atom_site_fract_y
_atom_site_fract_z
Si Si1 0.898553 0.849320 0.324655
Si Si2 0.756798 0.337120 0.577787
Si Si3 0.606735 0.854276 0.155022
Si Si4 0.393547 0.418146 0.179703
Si Si5 0.898321 0.676190 0.690232
Si Si6 0.892855 0.791533 0.920615
Si Si7 0.606984 0.000000 0.079459
O O1 0.835081 0.869495 0.390070
O O2 0.864366 0.894747 0.257664
O O3 0.890770 0.763861 0.305373
O O4 0.000000 0.870226 0.345717
O O5 0.771173 0.370821 0.500000
O O6 0.750000 0.250000 0.572425
O O7 0.839846 0.358508 0.627625
O O8 0.500000 0.851346 0.152544
O O9 0.638557 0.854439 0.235823
O O10 0.645034 0.783468 0.113730
O O11 0.644423 0.927802 0.118649
O O12 0.500000 0.416316 0.175371
O O13 0.356824 0.500000 0.163294
O O14 0.353942 0.361197 0.122657
O O15 0.000000 0.651218 0.676305
O O16 0.000000 0.791372 0.918373
O O17 0.857556 0.797152 0.000000
O O18 0.500000 0.000000 0.080642
O O19 0.642646 0.000000 0.000000
#
# Coordination Sequence:
#
# PCOD8275133 Si02
#       7
#    16  16  16  16  16  16   8
#     4   9  16  29  48  70  99 132 166 205 250 299
#     4   9  18  30  47  76 105 127 163 209 251 302
#     4   9  15  25  41  64  95 131 171 209 250 303
#     4   9  16  26  42  66  95 128 169 210 249 300
#     4   9  16  28  48  71 100 136 169 203 245 297
#     4   9  15  23  38  63  97 132 164 204 253 300
#     4   9  16  24  38  66 101 131 166 219 265 295
#
# _framework density 20.121845
#
# number of rings (size 3 to 8) (size 9 to 14) (size 15 to 20)
#    0.000    3.000    1.538    0.462    0.000    2.769 
#    0.000    4.615    1.692    0.462    0.000    5.385 
#    0.000    3.077    0.000    0.000    0.000    0.000 
#
# Total GULP energy -644688.762721 kJ/mol
# GULP energy per Si atom -12397.860822 kJ/mol
# Density = 2.007605 g / cm^3
# Si number density = 20.121845 Si / 1000 Ang^3
#
#
#
# Elastic Constant Matrix: (Units=GPa)
#
#
# Indices 1 2 3 4 5 6 
#
# 1 49.3316 23.7887 53.9353 0.0000 0.0000 0.0000
# 2 23.7887 111.1460 78.6672 0.0000 0.0000 0.0000
# 3 53.9353 78.6672 213.0486 0.0000 0.0000 0.0000
# 4 0.0000 0.0000 0.0000 18.5115 0.0000 0.0000
# 5 0.0000 0.0000 0.0000 0.0000 4.4680 0.0000
# 6 0.0000 0.0000 0.0000 0.0000 0.0000 7.9128
#
#
#
# Elastic Compliance Matrix: (Units=1/GPa)
#
#
# Indices 1 2 3 4 5 6 
#
# 1 0.028173 -0.001329 -0.006642 0.000000 0.000000 0.000000
# 2 -0.001329 0.012243 -0.004184 0.000000 0.000000 0.000000
# 3 -0.006642 -0.004184 0.007920 0.000000 0.000000 0.000000
# 4 0.000000 0.000000 0.000000 0.054021 0.000000 0.000000
# 5 0.000000 0.000000 0.000000 0.000000 0.223815 0.000000
# 6 0.000000 0.000000 0.000000 0.000000 0.000000 0.126378
#
#
# Mechanical properties :
#
#
# Convention : Reuss Voigt Hill
#
# Bulk Modulus (GPa) = 41.62038 76.25649 58.93843
# Shear Modulus (GPa) = 10.31205 20.65411 15.48308
#
# Velocity S-wave (km/s) = 2.26626 3.20730 2.77693
# Velocity P-wave (km/s) = 5.25138 7.18995 6.29573
#
# Compressibility (1/GPa) = 0.02402669
#
# Stress axis : x y z
#
# Youngs Moduli (GPa) = 35.49460 81.67799 126.26024
#
# Poissons Ratio (x) = 0.10857 0.83856
# Poissons Ratio (y) = 0.04718 0.52830
# Poissons Ratio (z) = 0.23574 0.34176
#
# Static dielectric constant tensor:
#      x y z
#    x 3.340560 0.000000 0.000000 
#    y 0.000000 3.553670 0.000000 
#    z 0.000000 0.000000 3.857770 
# 
# 
# High freq. dielectric constant tensor:
#      x y z
#    x 1.759060 0.000000 0.000000 
#    y 0.000000 1.756050 0.000000 
#    z 0.000000 0.000000 1.787080 
# 
# From -- ./inp_files/53301.got.cif
#   From: 2010.03.12/outbox.cif.g09.slc.cpg/sg65_27_cif.got.tgz:53301.got - 2010.04.10 20:52:16.
