data_PCOD8275903
_publ_section_title
;
Structure prediction by ZEFSAII (Michael W. Deem and Ramdas Pophale) SiO2 
 PCOD8275903
Probable space group: C C C M
;
_chemical_formula_sum "Si O2"
_cell_formula_units_Z 80
_cell_length_a 22.019551
_cell_length_b 12.466196
_cell_length_c 14.074469
_cell_angle_alpha 90.000000
_cell_angle_beta 90.000000
_cell_angle_gamma 90.000000
_cell_volume 3863.442284
_symmetry_space_group_name_H-M "C C C M"
_symmetry_group_IT_number 66
_symmetry_cell_setting 'orthorhombic'
loop_
_space_group_symop_operation_xyz
x,y,z
-x,-y,z
x,-y,1/2-z
-x,y,1/2-z
-x,-y,-z
x,y,-z
-x,y,1/2+z
x,-y,1/2+z
1/2+x,1/2+y,z
1/2-x,1/2-y,z
1/2+x,1/2-y,1/2-z
1/2-x,1/2+y,1/2-z
1/2-x,1/2-y,-z
1/2+x,1/2+y,-z
1/2-x,1/2+y,1/2+z
1/2+x,1/2-y,1/2+z
loop_
_atom_site_type_symbol
_atom_site_label
_atom_site_fract_x
_atom_site_fract_y
_atom_site_fract_z
Si Si1 0.225985 0.554429 0.612037
Si Si2 0.638817 0.459336 0.390747
Si Si3 0.015033 0.114580 0.141664
Si Si4 0.303583 0.833673 0.793965
Si Si5 0.394732 0.692026 0.894108
O O1 0.213584 0.580010 0.500000
O O2 0.295513 0.579302 0.645223
O O3 0.188284 0.631709 0.683121
O O4 0.209904 0.432203 0.635249
O O5 0.646981 0.484819 0.500000
O O6 0.587463 0.366771 0.373834
O O7 0.620197 0.575094 0.345412
O O8 0.000000 0.110045 0.250000
O O9 0.968807 0.203091 0.098121
O O10 0.000000 0.000000 0.092114
O O11 0.250000 0.750000 0.810142
O O12 0.367535 0.782598 0.825781
O O13 0.367195 0.704999 0.000000
#
# Coordination Sequence:
#
# PCOD8275903 Si02
#       5
#    16  16  16  16  16
#     4  10  22  37  55  82 118 158 198 248 301 352
#     4   9  17  31  51  76 109 149 190 236 296 354
#     4   9  18  28  48  76 112 150 186 230 287 349
#     4  11  22  34  57  82 118 159 207 244 290 358
#     4  10  19  32  52  79 113 153 198 243 285 346
#
# _framework density 20.706923
#
# number of rings (size 3 to 8) (size 9 to 14) (size 15 to 20)
#    0.000    2.200    2.000    1.200    2.800    5.200 
#    0.000    0.000    0.000    0.000    0.000    2.800 
#    0.000    8.000    0.000    0.000    0.000    0.000 
#
# Total GULP energy -495538.665102 kJ/mol
# GULP energy per Si atom -12388.466628 kJ/mol
# Density = 2.065979 g / cm^3
# Si number density = 20.706923 Si / 1000 Ang^3
#
#
#
# Elastic Constant Matrix: (Units=GPa)
#
#
# Indices 1 2 3 4 5 6 
#
# 1 117.8993 55.1921 46.3968 0.0000 0.0000 0.0000
# 2 55.1921 74.2657 34.8905 0.0000 0.0000 0.0000
# 3 46.3968 34.8905 111.3080 0.0000 0.0000 0.0000
# 4 0.0000 0.0000 0.0000 39.7270 0.0000 0.0000
# 5 0.0000 0.0000 0.0000 0.0000 19.6281 0.0000
# 6 0.0000 0.0000 0.0000 0.0000 0.0000 33.9339
#
#
#
# Elastic Compliance Matrix: (Units=1/GPa)
#
#
# Indices 1 2 3 4 5 6 
#
# 1 0.013799 -0.008857 -0.002976 0.000000 0.000000 0.000000
# 2 -0.008857 0.021476 -0.003040 0.000000 0.000000 0.000000
# 3 -0.002976 -0.003040 0.011177 0.000000 0.000000 0.000000
# 4 0.000000 0.000000 0.000000 0.025172 0.000000 0.000000
# 5 0.000000 0.000000 0.000000 0.000000 0.050947 0.000000
# 6 0.000000 0.000000 0.000000 0.000000 0.000000 0.029469
#
#
# Mechanical properties :
#
#
# Convention : Reuss Voigt Hill
#
# Bulk Modulus (GPa) = 59.85518 64.04799 61.95158
# Shear Modulus (GPa) = 26.68745 29.79071 28.23908
#
# Velocity S-wave (km/s) = 3.59391 3.79711 3.69691
# Velocity P-wave (km/s) = 6.79633 7.08674 6.94306
#
# Compressibility (1/GPa) = 0.01670699
#
# Stress axis : x y z
#
# Youngs Moduli (GPa) = 72.46872 46.56440 89.46757
#
# Poissons Ratio (x) = 0.41243 0.26622
# Poissons Ratio (y) = 0.64186 0.27196
# Poissons Ratio (z) = 0.21563 0.14155
#
# Static dielectric constant tensor:
#      x y z
#    x 4.163510 0.000000 0.000000 
#    y 0.000000 3.477500 0.000000 
#    z 0.000000 0.000000 3.883820 
# 
# 
# High freq. dielectric constant tensor:
#      x y z
#    x 1.798860 0.000000 0.000000 
#    y 0.000000 1.750550 0.000000 
#    z 0.000000 0.000000 1.829340 
# 
# From -- ./inp_files/32083.got.cif
#   From: 2010.03.12/outbox.cif.g09.slc.cpg/sg66_17_cif.got.tgz:32083.got - 2010.04.10 21:57:39.
