data_PCOD8275136
_publ_section_title
;
Structure prediction by ZEFSAII (Michael W. Deem and Ramdas Pophale) SiO2 
 PCOD8275136
Probable space group: C M M M
;
_chemical_formula_sum "Si O2"
_cell_formula_units_Z 88
_cell_length_a 22.517763
_cell_length_b 22.940490
_cell_length_c 9.420663
_cell_angle_alpha 90.000000
_cell_angle_beta 90.000000
_cell_angle_gamma 90.000000
_cell_volume 4866.417914
_symmetry_space_group_name_H-M "C M M M"
_symmetry_group_IT_number 65
_symmetry_cell_setting 'orthorhombic'
loop_
_space_group_symop_operation_xyz
x,y,z
-x,-y,z
x,-y,-z
-x,y,-z
-x,-y,-z
x,y,-z
-x,y,z
x,-y,z
1/2+x,1/2+y,z
1/2-x,1/2-y,z
1/2+x,1/2-y,-z
1/2-x,1/2+y,-z
1/2-x,1/2-y,-z
1/2+x,1/2+y,-z
1/2-x,1/2+y,z
1/2+x,1/2-y,z
loop_
_atom_site_type_symbol
_atom_site_label
_atom_site_fract_x
_atom_site_fract_y
_atom_site_fract_z
Si Si1 0.433845 0.714682 0.666971
Si Si2 0.712170 0.000000 0.843479
Si Si3 0.500000 0.933354 0.331247
Si Si4 0.849415 0.886530 0.667456
Si Si5 0.352736 0.500000 0.160341
Si Si6 0.785671 0.606624 0.339264
Si Si7 0.406249 0.840229 0.336593
O O1 0.422977 0.719380 0.500000
O O2 0.500000 0.692518 0.702789
O O3 0.386979 0.667919 0.727238
O O4 0.424528 0.778850 0.736347
O O5 0.689894 0.943813 0.761022
O O6 0.782572 0.000000 0.848699
O O7 0.684241 0.000000 0.000000
O O8 0.500000 0.939259 0.500000
O O9 0.442223 0.896431 0.275674
O O10 0.500000 0.000000 0.267990
O O11 0.859442 0.897730 0.500000
O O12 0.780338 0.871837 0.701275
O O13 0.872806 0.942945 0.752533
O O14 0.379695 0.500000 0.000000
O O15 0.785021 0.582669 0.500000
O O16 0.834764 0.656711 0.319615
O O17 0.425108 0.837002 0.500000
#
# Coordination Sequence:
#
# PCOD8275136 Si02
#       7
#    16   8   8  16   8  16  16
#     4   9  16  28  45  65  93 128 159 188 230 281
#     4   9  17  29  45  65  93 127 157 184 225 284
#     4   9  16  24  36  60  96 129 156 189 227 268
#     4   9  17  29  47  71  98 122 149 191 238 279
#     4   9  17  31  50  70  94 123 154 188 229 280
#     4   9  17  27  43  70  96 119 149 193 239 275
#     4   9  16  26  41  64  96 127 156 191 230 273
#
# _framework density 18.083116
#
# number of rings (size 3 to 8) (size 9 to 14) (size 15 to 20)
#    0.000    3.000    0.909    0.545    1.273    2.909 
#    0.000    4.091    0.000    4.364    0.000    6.364 
#    0.000    0.000    0.000    0.000    0.000    0.000 
#
# Total GULP energy -545179.853019 kJ/mol
# GULP energy per Si atom -12390.451205 kJ/mol
# Density = 1.804196 g / cm^3
# Si number density = 18.083116 Si / 1000 Ang^3
#
#
#
# Elastic Constant Matrix: (Units=GPa)
#
#
# Indices 1 2 3 4 5 6 
#
# 1 104.3594 71.1798 18.7787 0.0000 0.0000 0.0000
# 2 71.1798 147.8815 26.4875 0.0000 0.0000 0.0000
# 3 18.7787 26.4875 41.7841 0.0000 0.0000 0.0000
# 4 0.0000 0.0000 0.0000 -3.6934 0.0000 0.0000
# 5 0.0000 0.0000 0.0000 0.0000 6.2242 0.0000
# 6 0.0000 0.0000 0.0000 0.0000 0.0000 29.0013
#
#
#
# Elastic Compliance Matrix: (Units=1/GPa)
#
#
# Indices 1 2 3 4 5 6 
#
# 1 0.014468 -0.006542 -0.002355 0.000000 0.000000 0.000000
# 2 -0.006542 0.010586 -0.003771 0.000000 0.000000 0.000000
# 3 -0.002355 -0.003771 0.027381 0.000000 0.000000 0.000000
# 4 0.000000 0.000000 0.000000 -0.270752 0.000000 0.000000
# 5 0.000000 0.000000 0.000000 0.000000 0.160663 0.000000
# 6 0.000000 0.000000 0.000000 0.000000 0.000000 0.034481
#
#
# Mechanical properties :
#
#
# Convention : Reuss Voigt Hill
#
# Bulk Modulus (GPa) = 36.90044 58.54632 47.72338
# Shear Modulus (GPa) = 446.50740 18.14501 232.32620
#
# Velocity S-wave (km/s) = 15.73072 3.17112 11.34706
# Velocity P-wave (km/s) = 18.71874 6.77160 14.07561
#
# Compressibility (1/GPa) = 0.02709994
#
# Stress axis : x y z
#
# Youngs Moduli (GPa) = 69.11693 94.45999 36.52119
#
# Poissons Ratio (x) = 0.61797 0.08601
# Poissons Ratio (y) = 0.45217 0.13771
# Poissons Ratio (z) = 0.16278 0.35618
#
# Static dielectric constant tensor:
#      x y z
#    x 3.270150 0.000000 0.000000 
#    y 0.000000 3.524830 0.000000 
#    z 0.000000 0.000000 3.011720 
# 
# 
# High freq. dielectric constant tensor:
#      x y z
#    x 1.696000 0.000000 0.000000 
#    y 0.000000 1.700440 0.000000 
#    z 0.000000 0.000000 1.638880 
# 
# From -- ./inp_files/14071.got.cif
#   From: 2010.03.12/outbox.cif.g09.slc.cpg/sg65_8_cif.got.tgz:14071.got - 2010.04.10 20:52:16.
