data_PCOD8275175
_publ_section_title
;
Structure prediction by ZEFSAII (Michael W. Deem and Ramdas Pophale) SiO2 
 PCOD8275175
Probable space group: C M M M
;
_chemical_formula_sum "Si O2"
_cell_formula_units_Z 88
_cell_length_a 19.298703
_cell_length_b 9.392075
_cell_length_c 27.816382
_cell_angle_alpha 90.000000
_cell_angle_beta 90.000000
_cell_angle_gamma 90.000000
_cell_volume 5041.854591
_symmetry_space_group_name_H-M "C M M M"
_symmetry_group_IT_number 65
_symmetry_cell_setting 'orthorhombic'
loop_
_space_group_symop_operation_xyz
x,y,z
-x,-y,z
x,-y,-z
-x,y,-z
-x,-y,-z
x,y,-z
-x,y,z
x,-y,z
1/2+x,1/2+y,z
1/2-x,1/2-y,z
1/2+x,1/2-y,-z
1/2-x,1/2+y,-z
1/2-x,1/2-y,-z
1/2+x,1/2+y,-z
1/2-x,1/2+y,z
1/2+x,1/2-y,z
loop_
_atom_site_type_symbol
_atom_site_label
_atom_site_fract_x
_atom_site_fract_y
_atom_site_fract_z
Si Si1 0.922825 0.168572 0.364271
Si Si2 0.681285 0.333946 0.445117
Si Si3 0.920107 0.164843 0.908890
Si Si4 0.417520 0.161323 0.000000
Si Si5 0.818714 0.833241 0.716679
Si Si6 0.817272 0.835228 0.174092
O O1 0.881769 0.219343 0.411788
O O2 0.881962 0.218959 0.316643
O O3 0.000000 0.236529 0.364286
O O4 0.929260 0.000000 0.364398
O O5 0.660167 0.301351 0.500000
O O6 0.696732 0.500000 0.436942
O O7 0.750000 0.250000 0.430057
O O8 0.889807 0.258096 0.952698
O O9 0.880420 0.207156 0.860364
O O10 0.000000 0.200321 0.899131
O O11 0.909681 0.000000 0.922534
O O12 0.500000 0.166360 0.000000
O O13 0.389405 0.000000 0.000000
O O14 0.750000 0.750000 0.700865
O O15 0.839109 0.796347 0.771512
O O16 0.803901 0.000000 0.709520
O O17 0.750000 0.750000 0.157423
O O18 0.798381 0.000000 0.169625
#
# Coordination Sequence:
#
# PCOD8275175 Si02
#       6
#    16  16  16   8  16  16
#     4   9  17  28  44  68  94 118 148 189 232 269
#     4   9  17  29  46  67  90 119 155 191 226 268
#     4   9  17  30  48  68  90 117 149 184 221 262
#     4   9  17  29  46  69  94 119 149 183 220 263
#     4   9  17  30  48  67  88 117 151 185 222 267
#     4   9  18  31  47  68  92 118 148 183 224 268
#
# _framework density 17.453894999999999
#
# number of rings (size 3 to 8) (size 9 to 14) (size 15 to 20)
#    0.000    3.000    0.000    0.818    0.000    2.909 
#    0.000    5.909    0.000    2.182    0.000    7.636 
#    0.000    0.000    0.000    0.000    0.000    0.000 
#
# Total GULP energy -545564.171603 kJ/mol
# GULP energy per Si atom -12399.185718 kJ/mol
# Density = 1.741417 g / cm^3
# Si number density = 17.453895 Si / 1000 Ang^3
#
#
#
# Elastic Constant Matrix: (Units=GPa)
#
#
# Indices 1 2 3 4 5 6 
#
# 1 133.2737 42.2934 89.5029 0.0000 0.0000 0.0000
# 2 42.2934 44.7075 42.9482 0.0000 0.0000 0.0000
# 3 89.5029 42.9482 133.5587 0.0000 0.0000 0.0000
# 4 0.0000 0.0000 0.0000 18.5812 0.0000 0.0000
# 5 0.0000 0.0000 0.0000 0.0000 30.9072 0.0000
# 6 0.0000 0.0000 0.0000 0.0000 0.0000 23.0218
#
#
#
# Elastic Compliance Matrix: (Units=1/GPa)
#
#
# Indices 1 2 3 4 5 6 
#
# 1 0.014840 -0.006490 -0.007858 0.000000 0.000000 0.000000
# 2 -0.006490 0.035204 -0.006971 0.000000 0.000000 0.000000
# 3 -0.007858 -0.006971 0.014995 0.000000 0.000000 0.000000
# 4 0.000000 0.000000 0.000000 0.053818 0.000000 0.000000
# 5 0.000000 0.000000 0.000000 0.000000 0.032355 0.000000
# 6 0.000000 0.000000 0.000000 0.000000 0.000000 0.043437
#
#
# Mechanical properties :
#
#
# Convention : Reuss Voigt Hill
#
# Bulk Modulus (GPa) = 44.64143 73.44766 59.04454
# Shear Modulus (GPa) = 20.42861 23.62172 22.02516
#
# Velocity S-wave (km/s) = 3.42487 3.68282 3.55618
# Velocity P-wave (km/s) = 6.42432 7.76251 7.12490
#
# Compressibility (1/GPa) = 0.02240072
#
# Stress axis : x y z
#
# Youngs Moduli (GPa) = 67.38505 28.40569 66.68877
#
# Poissons Ratio (x) = 0.18435 0.52404
# Poissons Ratio (y) = 0.43733 0.46491
# Poissons Ratio (z) = 0.52951 0.19803
#
# Static dielectric constant tensor:
#      x y z
#    x 3.275310 0.000000 0.000000 
#    y 0.000000 3.087990 0.000000 
#    z 0.000000 0.000000 3.440560 
# 
# 
# High freq. dielectric constant tensor:
#      x y z
#    x 1.658990 0.000000 0.000000 
#    y 0.000000 1.650960 0.000000 
#    z 0.000000 0.000000 1.687690 
# 
# From -- ./inp_files/77918.got.cif
#   From: 2010.03.12/outbox.cif.g09.slc.cpg/sg65_39_cif.got.tgz:77918.got - 2010.04.10 20:52:16.
