data_PCOD8275093
_publ_section_title
;
Structure prediction by ZEFSAII (Michael W. Deem and Ramdas Pophale) SiO2 
 PCOD8275093
Probable space group: C M M M
;
_chemical_formula_sum "Si O2"
_cell_formula_units_Z 72
_cell_length_a 14.580439
_cell_length_b 30.484144
_cell_length_c 9.096791
_cell_angle_alpha 90.000000
_cell_angle_beta 90.000000
_cell_angle_gamma 90.000000
_cell_volume 4043.270727
_symmetry_space_group_name_H-M "C M M M"
_symmetry_group_IT_number 65
_symmetry_cell_setting 'orthorhombic'
loop_
_space_group_symop_operation_xyz
x,y,z
-x,-y,z
x,-y,-z
-x,y,-z
-x,-y,-z
x,y,-z
-x,y,z
x,-y,z
1/2+x,1/2+y,z
1/2-x,1/2-y,z
1/2+x,1/2-y,-z
1/2-x,1/2+y,-z
1/2-x,1/2-y,-z
1/2+x,1/2+y,-z
1/2-x,1/2+y,z
1/2+x,1/2-y,z
loop_
_atom_site_type_symbol
_atom_site_label
_atom_site_fract_x
_atom_site_fract_y
_atom_site_fract_z
Si Si1 0.000000 0.240293 0.824987
Si Si2 0.306747 0.127389 0.174184
Si Si3 0.000000 0.340189 0.824630
Si Si4 0.807353 0.208831 0.824919
Si Si5 0.681502 0.549915 0.827272
Si Si6 0.000000 0.052098 0.665582
O O1 0.000000 0.290281 0.765561
O O2 0.911315 0.213975 0.766524
O O3 0.000000 0.242459 0.000000
O O4 0.409631 0.134609 0.236254
O O5 0.238061 0.164466 0.237862
O O6 0.268241 0.079674 0.220594
O O7 0.309867 0.131892 0.000000
O O8 0.000000 0.340234 0.000000
O O9 0.750000 0.250000 0.765397
O O10 0.806223 0.208360 0.000000
O O11 0.703905 0.500000 0.780016
O O12 0.590959 0.568779 0.748212
O O13 0.662468 0.553265 0.000000
O O14 0.000000 0.070402 0.500000
O O15 0.000000 0.000000 0.668760
#
# Coordination Sequence:
#
# PCOD8275093 Si02
#       6
#     8  16   8  16  16   8
#     4   9  14  19  29  44  68 103 142 179 215 258
#     4   9  16  24  36  54  80 116 152 180 215 263
#     4   9  14  22  34  49  73 112 152 179 209 254
#     4   9  14  20  30  47  72 107 146 179 215 262
#     4   9  17  29  44  64  92 122 147 175 216 265
#     4   9  17  30  49  69  87 113 148 183 221 263
#
# _framework density 17.807365999999998
#
# number of rings (size 3 to 8) (size 9 to 14) (size 15 to 20)
#    0.000    3.000    2.222    0.333    0.000    2.222 
#    0.000    3.889    0.000    3.333    0.000    0.778 
#    0.000    4.444    0.000    0.000    0.444    0.000 
#
# Total GULP energy -446174.425955 kJ/mol
# GULP energy per Si atom -12393.734054 kJ/mol
# Density = 1.776684 g / cm^3
# Si number density = 17.807366 Si / 1000 Ang^3
#
#
#
# Elastic Constant Matrix: (Units=GPa)
#
#
# Indices 1 2 3 4 5 6 
#
# 1 194.5630 85.1017 16.0623 0.0000 0.0000 0.0000
# 2 85.1017 111.0156 13.2908 0.0000 0.0000 0.0000
# 3 16.0623 13.2908 16.6951 0.0000 0.0000 0.0000
# 4 0.0000 0.0000 0.0000 3.5785 0.0000 0.0000
# 5 0.0000 0.0000 0.0000 0.0000 2.5030 0.0000
# 6 0.0000 0.0000 0.0000 0.0000 0.0000 33.1015
#
#
#
# Elastic Compliance Matrix: (Units=1/GPa)
#
#
# Indices 1 2 3 4 5 6 
#
# 1 0.007871 -0.005668 -0.003061 0.000000 0.000000 0.000000
# 2 -0.005668 0.014037 -0.005722 0.000000 0.000000 0.000000
# 3 -0.003061 -0.005722 0.067398 0.000000 0.000000 0.000000
# 4 0.000000 0.000000 0.000000 0.279443 0.000000 0.000000
# 5 0.000000 0.000000 0.000000 0.000000 0.399520 0.000000
# 6 0.000000 0.000000 0.000000 0.000000 0.000000 0.030210
#
#
# Mechanical properties :
#
#
# Convention : Reuss Voigt Hill
#
# Bulk Modulus (GPa) = 16.55487 61.24257 38.89872
# Shear Modulus (GPa) = 5.89958 21.69120 13.79539
#
# Velocity S-wave (km/s) = 1.82214 3.49392 2.78637
# Velocity P-wave (km/s) = 3.70726 7.12341 5.67832
#
# Compressibility (1/GPa) = 0.06040519
#
# Stress axis : x y z
#
# Youngs Moduli (GPa) = 127.04188 71.23825 14.83715
#
# Poissons Ratio (x) = 0.40375 0.04542
# Poissons Ratio (y) = 0.72002 0.08490
# Poissons Ratio (z) = 0.38890 0.40765
#
# Static dielectric constant tensor:
#      x y z
#    x 3.671370 0.000000 0.000000 
#    y 0.000000 3.333570 0.000000 
#    z 0.000000 0.000000 2.593730 
# 
# 
# High freq. dielectric constant tensor:
#      x y z
#    x 1.701450 0.000000 0.000000 
#    y 0.000000 1.681640 0.000000 
#    z 0.000000 0.000000 1.606220 
# 
# From -- ./inp_files/7737.got.cif
#   From: 2010.03.12/outbox.cif.g09.slc.cpg/sg65_4_cif.got.tgz:7737.got - 2010.04.10 20:52:16.
