data_PCOD8275663
_publ_section_title
;
Structure prediction by ZEFSAII (Michael W. Deem and Ramdas Pophale) SiO2 
 PCOD8275663
Probable space group: C C C M
;
_chemical_formula_sum "Si O2"
_cell_formula_units_Z 84
_cell_length_a 11.498629
_cell_length_b 16.114212
_cell_length_c 21.310905
_cell_angle_alpha 90.000000
_cell_angle_beta 90.000000
_cell_angle_gamma 90.000000
_cell_volume 3948.726259
_symmetry_space_group_name_H-M "C C C M"
_symmetry_group_IT_number 66
_symmetry_cell_setting 'orthorhombic'
loop_
_space_group_symop_operation_xyz
x,y,z
-x,-y,z
x,-y,1/2-z
-x,y,1/2-z
-x,-y,-z
x,y,-z
-x,y,1/2+z
x,-y,1/2+z
1/2+x,1/2+y,z
1/2-x,1/2-y,z
1/2+x,1/2-y,1/2-z
1/2-x,1/2+y,1/2-z
1/2-x,1/2-y,-z
1/2+x,1/2+y,-z
1/2-x,1/2+y,1/2+z
1/2+x,1/2-y,1/2+z
loop_
_atom_site_type_symbol
_atom_site_label
_atom_site_fract_x
_atom_site_fract_y
_atom_site_fract_z
Si Si1 0.809596 0.054618 0.431267
Si Si2 0.365914 0.901369 0.747292
Si Si3 0.343565 0.180497 0.884067
Si Si4 0.327970 0.405260 0.659947
Si Si5 0.009288 0.812476 0.926122
Si Si6 0.500000 0.500000 0.250000
O O1 0.831745 0.016345 0.500000
O O2 0.689357 0.107178 0.432500
O O3 0.917769 0.113578 0.412406
O O4 0.791408 0.982033 0.382571
O O5 0.500000 0.875308 0.750000
O O6 0.323135 0.858641 0.684125
O O7 0.285794 0.867950 0.804476
O O8 0.349696 0.000000 0.750000
O O9 0.250000 0.250000 0.895374
O O10 0.467062 0.222106 0.900670
O O11 0.377216 0.333074 0.614952
O O12 0.421800 0.437336 0.709867
O O13 0.037923 0.805901 0.000000
#
# Coordination Sequence:
#
# PCOD8275663 Si02
#       6
#    16  16  16  16  16   4
#     4  10  18  34  58  91 131 174 217 264 332 409
#     4  11  24  42  62  84 123 172 227 271 324 410
#     4  10  21  38  60  92 129 174 215 269 337 397
#     4  12  21  36  62  93 130 168 218 283 337 394
#     4  10  21  36  60  97 136 170 217 278 345 410
#     4  12  20  32  56  92 132 164 206 272 332 396
#
# _framework density 21.272683000000001
#
# number of rings (size 3 to 8) (size 9 to 14) (size 15 to 20)
#    0.000    1.333    4.762    1.143    2.667    5.333 
#    0.000    0.000    0.000    6.857    0.000    0.000 
#    0.000    0.000    0.000    0.000    0.000    0.000 
#
# Total GULP energy -520516.063252 kJ/mol
# GULP energy per Si atom -12393.239601 kJ/mol
# Density = 2.122427 g / cm^3
# Si number density = 21.272683 Si / 1000 Ang^3
#
#
#
# Elastic Constant Matrix: (Units=GPa)
#
#
# Indices 1 2 3 4 5 6 
#
# 1 114.6545 34.7372 57.4361 0.0000 0.0000 0.0000
# 2 34.7372 60.1491 42.0052 0.0000 0.0000 0.0000
# 3 57.4361 42.0052 143.5009 0.0000 0.0000 0.0000
# 4 0.0000 0.0000 0.0000 35.4128 0.0000 0.0000
# 5 0.0000 0.0000 0.0000 0.0000 16.7773 0.0000
# 6 0.0000 0.0000 0.0000 0.0000 0.0000 -387.1304
#
#
#
# Elastic Compliance Matrix: (Units=1/GPa)
#
#
# Indices 1 2 3 4 5 6 
#
# 1 0.011771 -0.004409 -0.003421 0.000000 0.000000 0.000000
# 2 -0.004409 0.022549 -0.004836 0.000000 0.000000 0.000000
# 3 -0.003421 -0.004836 0.009753 0.000000 0.000000 0.000000
# 4 0.000000 0.000000 0.000000 0.028238 0.000000 0.000000
# 5 0.000000 0.000000 0.000000 0.000000 0.059604 0.000000
# 6 0.000000 0.000000 0.000000 0.000000 0.000000 -0.002583
#
#
# Mechanical properties :
#
#
# Convention : Reuss Voigt Hill
#
# Bulk Modulus (GPa) = 53.35609 65.18461 59.27035
# Shear Modulus (GPa) = 31.07293 -54.71299 -11.82003
#
# Velocity S-wave (km/s) = 3.82605 -5.07697 -2.35977
# Velocity P-wave (km/s) = 6.68241 1.91276 4.52747
#
# Compressibility (1/GPa) = 0.01874200
#
# Stress axis : x y z
#
# Youngs Moduli (GPa) = 84.95165 44.34840 102.52990
#
# Poissons Ratio (x) = 0.19554 0.35074
# Poissons Ratio (y) = 0.37457 0.49579
# Poissons Ratio (z) = 0.29061 0.21445
#
# Static dielectric constant tensor:
#      x y z
#    x 3.937090 0.000000 0.000000 
#    y 0.000000 3.860470 0.000000 
#    z 0.000000 0.000000 3.947460 
# 
# 
# High freq. dielectric constant tensor:
#      x y z
#    x 1.815190 0.000000 0.000000 
#    y 0.000000 1.819860 0.000000 
#    z 0.000000 0.000000 1.846760 
# 
# From -- ./inp_files/48466.got.cif
#   From: 2010.03.12/outbox.cif.g09.slc.cpg/sg66_25_cif.got.tgz:48466.got - 2010.04.10 21:57:39.
