data_PCOD8275797
_publ_section_title
;
Structure prediction by ZEFSAII (Michael W. Deem and Ramdas Pophale) SiO2 
 PCOD8275797
Probable space group: C C C M
;
_chemical_formula_sum "Si O2"
_cell_formula_units_Z 80
_cell_length_a 17.639458
_cell_length_b 19.155781
_cell_length_c 14.365828
_cell_angle_alpha 90.000000
_cell_angle_beta 90.000000
_cell_angle_gamma 90.000000
_cell_volume 4854.178723
_symmetry_space_group_name_H-M "C C C M"
_symmetry_group_IT_number 66
_symmetry_cell_setting 'orthorhombic'
loop_
_space_group_symop_operation_xyz
x,y,z
-x,-y,z
x,-y,1/2-z
-x,y,1/2-z
-x,-y,-z
x,y,-z
-x,y,1/2+z
x,-y,1/2+z
1/2+x,1/2+y,z
1/2-x,1/2-y,z
1/2+x,1/2-y,1/2-z
1/2-x,1/2+y,1/2-z
1/2-x,1/2-y,-z
1/2+x,1/2+y,-z
1/2-x,1/2+y,1/2+z
1/2+x,1/2-y,1/2+z
loop_
_atom_site_type_symbol
_atom_site_label
_atom_site_fract_x
_atom_site_fract_y
_atom_site_fract_z
Si Si1 0.165551 0.642196 0.895626
Si Si2 0.088378 0.739976 0.750000
Si Si3 0.087146 0.500000 0.859810
Si Si4 0.720008 0.671609 0.750000
Si Si5 0.165551 0.357803 0.895626
O O1 0.110797 0.695852 0.841524
O O2 0.126464 0.567453 0.902468
O O3 0.246692 0.634235 0.842411
O O4 0.179828 0.670286 0.000000
O O5 0.128921 0.817294 0.750000
O O6 0.110797 0.695852 0.658476
O O7 0.000000 0.754949 0.750000
O O8 0.096479 0.500000 0.750000
O O9 0.126464 0.432546 0.902468
O O10 0.000000 0.500000 0.890404
O O11 0.750000 0.750000 0.749999
O O12 0.753308 0.634236 0.842411
O O13 0.179828 0.329714 0.000000
#
# Coordination Sequence:
#
# PCOD8275797 Si02
#       5
#    16  16  16  16  16
#     4  10  19  31  47  67  93 125 153 180 219 267
#     4  10  20  32  46  67  92 119 154 193 226 262
#     4  11  19  29  45  68  99 124 146 178 218 269
#     4   8  18  32  46  63  88 121 155 191 218 264
#     4  10  19  31  47  67  93 125 153 180 219 267
#
# _framework density 16.480646
#
# number of rings (size 3 to 8) (size 9 to 14) (size 15 to 20)
#    0.000    2.600    4.000    1.800    0.000   11.200 
#    0.000    0.000    0.000    0.000    0.000    2.800 
#    0.000    3.200    0.000    0.000    0.000    0.000 
#
# Total GULP energy -495674.023833 kJ/mol
# GULP energy per Si atom -12391.850596 kJ/mol
# Density = 1.644314 g / cm^3
# Si number density = 16.480646 Si / 1000 Ang^3
#
#
#
# Elastic Constant Matrix: (Units=GPa)
#
#
# Indices 1 2 3 4 5 6 
#
# 1 134.7705 44.6639 48.3338 0.0000 0.0000 0.0000
# 2 44.6639 52.6450 23.1914 0.0000 0.0000 0.0000
# 3 48.3338 23.1914 150.5537 0.0000 0.0000 0.0000
# 4 0.0000 0.0000 0.0000 3.1930 0.0000 0.0000
# 5 0.0000 0.0000 0.0000 0.0000 2.0918 0.0000
# 6 0.0000 0.0000 0.0000 0.0000 0.0000 27.9985
#
#
#
# Elastic Compliance Matrix: (Units=1/GPa)
#
#
# Indices 1 2 3 4 5 6 
#
# 1 0.010986 -0.008332 -0.002243 0.000000 0.000000 0.000000
# 2 -0.008332 0.026697 -0.001438 0.000000 0.000000 0.000000
# 3 -0.002243 -0.001438 0.007584 0.000000 0.000000 0.000000
# 4 0.000000 0.000000 0.000000 0.313180 0.000000 0.000000
# 5 0.000000 0.000000 0.000000 0.000000 0.478056 0.000000
# 6 0.000000 0.000000 0.000000 0.000000 0.000000 0.035716
#
#
# Mechanical properties :
#
#
# Convention : Reuss Voigt Hill
#
# Bulk Modulus (GPa) = 47.07895 63.37194 55.22544
# Shear Modulus (GPa) = 5.53510 21.44201 13.48855
#
# Velocity S-wave (km/s) = 1.83462 3.61091 2.86396
# Velocity P-wave (km/s) = 5.75465 7.47801 6.67221
#
# Compressibility (1/GPa) = 0.02124092
#
# Stress axis : x y z
#
# Youngs Moduli (GPa) = 91.02552 37.45683 131.85968
#
# Poissons Ratio (x) = 0.31210 0.29582
# Poissons Ratio (y) = 0.75844 0.18955
# Poissons Ratio (z) = 0.20421 0.05385
#
# Static dielectric constant tensor:
#      x y z
#    x 3.780210 0.000000 0.000000 
#    y 0.000000 3.118600 0.000000 
#    z 0.000000 0.000000 3.252450 
# 
# 
# High freq. dielectric constant tensor:
#      x y z
#    x 1.616130 0.000000 0.000000 
#    y 0.000000 1.603840 0.000000 
#    z 0.000000 0.000000 1.647580 
# 
# From -- ./inp_files/29931.got.cif
#   From: 2010.03.12/outbox.cif.g09.slc.cpg/sg66_15_cif.got.tgz:29931.got - 2010.04.10 21:57:39.
