data_PCOD8275477
_publ_section_title
;
Structure prediction by ZEFSAII (Michael W. Deem and Ramdas Pophale) SiO2 
 PCOD8275477
Probable space group: C C C M
;
_chemical_formula_sum "Si O2"
_cell_formula_units_Z 80
_cell_length_a 16.714757
_cell_length_b 8.527643
_cell_length_c 28.997997
_cell_angle_alpha 90.000000
_cell_angle_beta 90.000000
_cell_angle_gamma 90.000000
_cell_volume 4133.301433
_symmetry_space_group_name_H-M "C C C M"
_symmetry_group_IT_number 66
_symmetry_cell_setting 'orthorhombic'
loop_
_space_group_symop_operation_xyz
x,y,z
-x,-y,z
x,-y,1/2-z
-x,y,1/2-z
-x,-y,-z
x,y,-z
-x,y,1/2+z
x,-y,1/2+z
1/2+x,1/2+y,z
1/2-x,1/2-y,z
1/2+x,1/2-y,1/2-z
1/2-x,1/2+y,1/2-z
1/2-x,1/2-y,-z
1/2+x,1/2+y,-z
1/2-x,1/2+y,1/2+z
1/2+x,1/2-y,1/2+z
loop_
_atom_site_type_symbol
_atom_site_label
_atom_site_fract_x
_atom_site_fract_y
_atom_site_fract_z
Si Si1 0.411735 0.449756 0.891521
Si Si2 0.767488 0.931163 0.552942
Si Si3 0.826730 0.352713 0.380741
Si Si4 0.663140 0.932534 0.298510
Si Si5 0.353006 0.420517 0.702322
O O1 0.500000 0.500000 0.906303
O O2 0.353615 0.546071 0.924531
O O3 0.396184 0.263832 0.898783
O O4 0.396408 0.486036 0.837981
O O5 0.769168 0.983836 0.500000
O O6 0.750000 0.750000 0.559257
O O7 0.699515 0.033731 0.577842
O O8 0.750000 0.250000 0.363479
O O9 0.865621 0.453895 0.339501
O O10 0.622686 0.761835 0.301896
O O11 0.758306 0.929286 0.302750
O O12 0.634441 0.000000 0.250000
O O13 0.381396 0.500000 0.750000
#
# Coordination Sequence:
#
# PCOD8275477 Si02
#       5
#    16  16  16  16  16
#     4  11  23  37  56  84 118 150 182 229 284 335
#     4  10  21  40  64  85 108 141 185 233 281 339
#     4  10  19  34  56  83 112 144 190 230 277 335
#     4  10  18  29  55  83 107 144 195 242 270 318
#     4  10  19  32  53  79 115 150 187 232 281 328
#
# _framework density 19.354989
#
# number of rings (size 3 to 8) (size 9 to 14) (size 15 to 20)
#    0.000    1.800    4.000    2.400    2.800    4.400 
#    0.000    4.000    0.000    3.600    0.000    0.000 
#    0.000    0.000    0.000    0.000    0.000    0.000 
#
# Total GULP energy -496023.027659 kJ/mol
# GULP energy per Si atom -12400.575691 kJ/mol
# Density = 1.931094 g / cm^3
# Si number density = 19.354989 Si / 1000 Ang^3
#
#
#
# Elastic Constant Matrix: (Units=GPa)
#
#
# Indices 1 2 3 4 5 6 
#
# 1 74.1307 36.5410 41.7901 0.0000 0.0000 0.0000
# 2 36.5410 104.7383 59.6492 0.0000 0.0000 0.0000
# 3 41.7901 59.6492 144.9599 0.0000 0.0000 0.0000
# 4 0.0000 0.0000 0.0000 33.8137 0.0000 0.0000
# 5 0.0000 0.0000 0.0000 0.0000 6.9044 0.0000
# 6 0.0000 0.0000 0.0000 0.0000 0.0000 21.7839
#
#
#
# Elastic Compliance Matrix: (Units=1/GPa)
#
#
# Indices 1 2 3 4 5 6 
#
# 1 0.017417 -0.004201 -0.003292 0.000000 0.000000 0.000000
# 2 -0.004201 0.013483 -0.004337 0.000000 0.000000 0.000000
# 3 -0.003292 -0.004337 0.009632 0.000000 0.000000 0.000000
# 4 0.000000 0.000000 0.000000 0.029574 0.000000 0.000000
# 5 0.000000 0.000000 0.000000 0.000000 0.144834 0.000000
# 6 0.000000 0.000000 0.000000 0.000000 0.000000 0.045905
#
#
# Mechanical properties :
#
#
# Convention : Reuss Voigt Hill
#
# Bulk Modulus (GPa) = 59.27340 66.64327 62.95834
# Shear Modulus (GPa) = 17.23363 24.89032 21.06197
#
# Velocity S-wave (km/s) = 2.98719 3.58996 3.30236
# Velocity P-wave (km/s) = 6.52599 7.18962 6.86583
#
# Compressibility (1/GPa) = 0.01687097
#
# Stress axis : x y z
#
# Youngs Moduli (GPa) = 57.41665 74.16561 103.81862
#
# Poissons Ratio (x) = 0.31160 0.34179
# Poissons Ratio (y) = 0.24123 0.45026
# Poissons Ratio (z) = 0.18903 0.32166
#
# Static dielectric constant tensor:
#      x y z
#    x 3.149250 0.000000 0.000000 
#    y 0.000000 3.905920 0.000000 
#    z 0.000000 0.000000 3.598960 
# 
# 
# High freq. dielectric constant tensor:
#      x y z
#    x 1.702790 0.000000 0.000000 
#    y 0.000000 1.775650 0.000000 
#    z 0.000000 0.000000 1.754450 
# 
# From -- ./inp_files/65030.got.cif
#   From: 2010.03.12/outbox.cif.g09.slc.cpg/sg66_33_cif.got.tgz:65030.got - 2010.04.10 21:57:39.
