data_PCOD8275770
_publ_section_title
;
Structure prediction by ZEFSAII (Michael W. Deem and Ramdas Pophale) SiO2 
 PCOD8275770
Probable space group: C C C M
;
_chemical_formula_sum "Si O2"
_cell_formula_units_Z 64
_cell_length_a 37.400879
_cell_length_b 9.773487
_cell_length_c 10.294866
_cell_angle_alpha 90.000000
_cell_angle_beta 90.000000
_cell_angle_gamma 90.000000
_cell_volume 3763.154481
_symmetry_space_group_name_H-M "C C C M"
_symmetry_group_IT_number 66
_symmetry_cell_setting 'orthorhombic'
loop_
_space_group_symop_operation_xyz
x,y,z
-x,-y,z
x,-y,1/2-z
-x,y,1/2-z
-x,-y,-z
x,y,-z
-x,y,1/2+z
x,-y,1/2+z
1/2+x,1/2+y,z
1/2-x,1/2-y,z
1/2+x,1/2-y,1/2-z
1/2-x,1/2+y,1/2-z
1/2-x,1/2-y,-z
1/2+x,1/2+y,-z
1/2-x,1/2+y,1/2+z
1/2+x,1/2-y,1/2+z
loop_
_atom_site_type_symbol
_atom_site_label
_atom_site_fract_x
_atom_site_fract_y
_atom_site_fract_z
Si Si1 0.896634 0.610097 0.351328
Si Si2 0.271954 0.614809 0.148155
Si Si3 0.854875 0.886254 0.352434
Si Si4 0.479308 0.855898 0.138554
O O1 0.880673 0.500000 0.250000
O O2 0.889801 0.562006 0.500000
O O3 0.877487 0.752139 0.322393
O O4 0.938437 0.625387 0.322316
O O5 0.259267 0.500000 0.250000
O O6 0.250000 0.750000 0.180850
O O7 0.313454 0.649741 0.168416
O O8 0.264543 0.565319 0.000000
O O9 0.861735 0.938118 0.500000
O O10 0.867677 0.000000 0.250000
O O11 0.500000 0.768487 0.250000
O O12 0.500000 0.000000 0.128190
O O13 0.481879 0.778915 0.000000
#
# Coordination Sequence:
#
# PCOD8275770 Si02
#       4
#    16  16  16  16
#     4  10  19  30  47  73  99 123 157 202 245 284
#     4   9  18  33  52  73  98 129 163 199 240 285
#     4   9  19  35  51  69  98 133 164 196 239 290
#     4   9  15  25  42  65  91 118 150 190 237 285
#
# _framework density 17.007007999999999
#
# number of rings (size 3 to 8) (size 9 to 14) (size 15 to 20)
#    0.000    2.750    2.500    0.000    0.000    2.500 
#    0.000    0.000    0.000    0.750    0.000    5.250 
#    0.000    0.000    0.000    0.000    0.000    0.000 
#
# Total GULP energy -396534.910138 kJ/mol
# GULP energy per Si atom -12391.715942 kJ/mol
# Density = 1.696830 g / cm^3
# Si number density = 17.007008 Si / 1000 Ang^3
#
#
#
# Elastic Constant Matrix: (Units=GPa)
#
#
# Indices 1 2 3 4 5 6 
#
# 1 65.0393 55.1237 46.9465 0.0000 0.0000 0.0000
# 2 55.1237 100.6486 84.1534 0.0000 0.0000 0.0000
# 3 46.9465 84.1534 152.2356 0.0000 0.0000 0.0000
# 4 0.0000 0.0000 0.0000 31.4858 0.0000 0.0000
# 5 0.0000 0.0000 0.0000 0.0000 22.2029 0.0000
# 6 0.0000 0.0000 0.0000 0.0000 0.0000 18.2667
#
#
#
# Elastic Compliance Matrix: (Units=1/GPa)
#
#
# Indices 1 2 3 4 5 6 
#
# 1 0.028703 -0.015469 -0.000300 0.000000 0.000000 0.000000
# 2 -0.015469 0.026811 -0.010050 0.000000 0.000000 0.000000
# 3 -0.000300 -0.010050 0.012217 0.000000 0.000000 0.000000
# 4 0.000000 0.000000 0.000000 0.031760 0.000000 0.000000
# 5 0.000000 0.000000 0.000000 0.000000 0.045039 0.000000
# 6 0.000000 0.000000 0.000000 0.000000 0.000000 0.054744
#
#
# Mechanical properties :
#
#
# Convention : Reuss Voigt Hill
#
# Bulk Modulus (GPa) = 62.14490 76.70785 69.42638
# Shear Modulus (GPa) = 19.51014 23.17109 21.34061
#
# Velocity S-wave (km/s) = 3.39068 3.69513 3.54618
# Velocity P-wave (km/s) = 7.20757 7.96285 7.59460
#
# Compressibility (1/GPa) = 0.01609142
#
# Stress axis : x y z
#
# Youngs Moduli (GPa) = 34.83998 37.29856 81.85295
#
# Poissons Ratio (x) = 0.57696 0.02459
# Poissons Ratio (y) = 0.53893 0.82264
# Poissons Ratio (z) = 0.01047 0.37486
#
# Static dielectric constant tensor:
#      x y z
#    x 3.212220 0.000000 0.000000 
#    y 0.000000 2.754640 0.000000 
#    z 0.000000 0.000000 4.732780 
# 
# 
# High freq. dielectric constant tensor:
#      x y z
#    x 1.658360 0.000000 0.000000 
#    y 0.000000 1.609300 0.000000 
#    z 0.000000 0.000000 1.681260 
# 
# From -- ./inp_files/13568.got.cif
#   From: 2010.03.12/outbox.cif.g09.slc.cpg/sg66_7_cif.got.tgz:13568.got - 2010.04.10 21:57:39.
