data_PCOD8275834
_publ_section_title
;
Structure prediction by ZEFSAII (Michael W. Deem and Ramdas Pophale) SiO2 
 PCOD8275834
Probable space group: C C C M
;
_chemical_formula_sum "Si O2"
_cell_formula_units_Z 48
_cell_length_a 13.700293
_cell_length_b 7.787022
_cell_length_c 18.690919
_cell_angle_alpha 90.000000
_cell_angle_beta 90.000000
_cell_angle_gamma 90.000000
_cell_volume 1994.031030
_symmetry_space_group_name_H-M "C C C M"
_symmetry_group_IT_number 66
_symmetry_cell_setting 'orthorhombic'
loop_
_space_group_symop_operation_xyz
x,y,z
-x,-y,z
x,-y,1/2-z
-x,y,1/2-z
-x,-y,-z
x,y,-z
-x,y,1/2+z
x,-y,1/2+z
1/2+x,1/2+y,z
1/2-x,1/2-y,z
1/2+x,1/2-y,1/2-z
1/2-x,1/2+y,1/2-z
1/2-x,1/2-y,-z
1/2+x,1/2+y,-z
1/2-x,1/2+y,1/2+z
1/2+x,1/2-y,1/2+z
loop_
_atom_site_type_symbol
_atom_site_label
_atom_site_fract_x
_atom_site_fract_y
_atom_site_fract_z
Si Si1 0.308426 0.070983 0.672492
Si Si2 0.035988 0.730633 0.919418
Si Si3 0.150942 0.916674 0.580446
O O1 0.250000 0.250000 0.677181
O O2 0.411658 0.091902 0.631288
O O3 0.333194 0.000000 0.750000
O O4 0.245499 0.925568 0.631002
O O5 0.926472 0.773967 0.891344
O O6 0.099342 0.900983 0.919459
O O7 0.031683 0.656920 0.000000
O O8 0.184947 0.872523 0.500000
#
# Coordination Sequence:
#
# PCOD8275834 Si02
#       3
#    16  16  16
#     4  10  19  31  50  80 119 158 194 239 300 362
#     4   8  14  27  50  80 111 147 196 249 296 347
#     4   8  14  27  50  79 108 144 197 252 295 343
#
# _framework density 24.071842
#
# number of rings (size 3 to 8) (size 9 to 14) (size 15 to 20)
#    0.000    3.333    0.000    3.000    0.000    4.000 
#    0.000   13.333    0.000    8.000    0.000    4.667 
#    0.000   10.667    0.000   24.000    0.000   28.000 
#
# Total GULP energy -297511.629156 kJ/mol
# GULP energy per Si atom -12396.317882 kJ/mol
# Density = 2.401705 g / cm^3
# Si number density = 24.071842 Si / 1000 Ang^3
#
#
#
# Elastic Constant Matrix: (Units=GPa)
#
#
# Indices 1 2 3 4 5 6 
#
# 1 178.7714 62.4450 108.3330 0.0000 0.0000 0.0000
# 2 62.4450 74.0157 41.0194 0.0000 0.0000 0.0000
# 3 108.3330 41.0194 181.8807 0.0000 0.0000 0.0000
# 4 0.0000 0.0000 0.0000 22.0248 0.0000 0.0000
# 5 0.0000 0.0000 0.0000 0.0000 21.8670 0.0000
# 6 0.0000 0.0000 0.0000 0.0000 0.0000 17.0448
#
#
#
# Elastic Compliance Matrix: (Units=1/GPa)
#
#
# Indices 1 2 3 4 5 6 
#
# 1 0.010877 -0.006384 -0.005039 0.000000 0.000000 0.000000
# 2 -0.006384 0.019188 -0.000525 0.000000 0.000000 0.000000
# 3 -0.005039 -0.000525 0.008618 0.000000 0.000000 0.000000
# 4 0.000000 0.000000 0.000000 0.045403 0.000000 0.000000
# 5 0.000000 0.000000 0.000000 0.000000 0.045731 0.000000
# 6 0.000000 0.000000 0.000000 0.000000 0.000000 0.058669
#
#
# Mechanical properties :
#
#
# Convention : Reuss Voigt Hill
#
# Bulk Modulus (GPa) = 67.62777 95.36250 81.49513
# Shear Modulus (GPa) = 23.00848 27.04534 25.02691
#
# Velocity S-wave (km/s) = 3.09500 3.35554 3.22790
# Velocity P-wave (km/s) = 6.39743 7.39694 6.91527
#
# Compressibility (1/GPa) = 0.01478683
#
# Stress axis : x y z
#
# Youngs Moduli (GPa) = 91.93426 52.11665 116.03891
#
# Poissons Ratio (x) = 0.33273 0.58472
# Poissons Ratio (y) = 0.58694 0.06089
# Poissons Ratio (z) = 0.46326 0.02735
#
# Static dielectric constant tensor:
#      x y z
#    x 4.633400 0.000000 0.000000 
#    y 0.000000 4.373020 0.000000 
#    z 0.000000 0.000000 4.208130 
# 
# 
# High freq. dielectric constant tensor:
#      x y z
#    x 1.964210 0.000000 0.000000 
#    y 0.000000 1.968950 0.000000 
#    z 0.000000 0.000000 1.927850 
# 
# From -- ./inp_files/29282.got.cif
#   From: 2010.03.12/outbox.cif.g09.slc.cpg/sg66_15_cif.got.tgz:29282.got - 2010.04.10 21:57:39.
