data_PCOD8275675
_publ_section_title
;
Structure prediction by ZEFSAII (Michael W. Deem and Ramdas Pophale) SiO2 
 PCOD8275675
Probable space group: C C C M
;
_chemical_formula_sum "Si O2"
_cell_formula_units_Z 96
_cell_length_a 15.013339
_cell_length_b 21.836935
_cell_length_c 14.129140
_cell_angle_alpha 90.000000
_cell_angle_beta 90.000000
_cell_angle_gamma 90.000000
_cell_volume 4632.172253
_symmetry_space_group_name_H-M "C C C M"
_symmetry_group_IT_number 66
_symmetry_cell_setting 'orthorhombic'
loop_
_space_group_symop_operation_xyz
x,y,z
-x,-y,z
x,-y,1/2-z
-x,y,1/2-z
-x,-y,-z
x,y,-z
-x,y,1/2+z
x,-y,1/2+z
1/2+x,1/2+y,z
1/2-x,1/2-y,z
1/2+x,1/2-y,1/2-z
1/2-x,1/2+y,1/2-z
1/2-x,1/2-y,-z
1/2+x,1/2+y,-z
1/2-x,1/2+y,1/2+z
1/2+x,1/2-y,1/2+z
loop_
_atom_site_type_symbol
_atom_site_label
_atom_site_fract_x
_atom_site_fract_y
_atom_site_fract_z
Si Si1 0.150436 0.225064 0.697542
Si Si2 0.411236 0.610584 0.303164
Si Si3 0.914315 0.356389 0.194292
Si Si4 0.858602 0.401119 0.000000
Si Si5 0.274007 0.969532 0.500000
Si Si6 0.303828 0.687725 0.000000
Si Si7 0.424248 0.551622 0.500000
Si Si8 0.223910 0.563734 0.706507
O O1 0.250000 0.250000 0.716177
O O2 0.114999 0.181519 0.782007
O O3 0.085456 0.283077 0.691572
O O4 0.140279 0.187215 0.598012
O O5 0.500000 0.589561 0.250000
O O6 0.430536 0.598760 0.413058
O O7 0.328514 0.568963 0.269225
O O8 0.918621 0.383267 0.089164
O O9 0.824835 0.379641 0.244761
O O10 0.000000 0.381027 0.250000
O O11 0.763406 0.368412 0.000000
O O12 0.837577 0.472306 0.000000
O O13 0.168827 0.986060 0.500000
O O14 0.295441 0.930919 0.594363
O O15 0.250000 0.750000 0.000000
O O16 0.500000 0.500000 0.500000
O O17 0.188635 0.500000 0.750000
#
# Coordination Sequence:
#
# PCOD8275675 Si02
#       8
#    16  16  16   8   8   8   8  16
#     4  11  20  42  67  99 135 172 220 273 338 402
#     4  11  25  41  67  99 134 176 220 276 344 410
#     4  12  25  41  66  96 131 174 221 278 329 392
#     4  12  20  41  65  95 123 170 222 277 335 377
#     4  10  24  41  64  90 130 170 215 273 329 404
#     4  10  18  34  70 100 121 161 221 280 327 388
#     4  10  26  44  62 100 139 172 224 275 340 422
#     4  11  23  42  64  93 130 172 220 268 340 401
#
# _framework density 20.724619000000001
#
# number of rings (size 3 to 8) (size 9 to 14) (size 15 to 20)
#    0.000    1.000    6.667    0.500    4.667    1.667 
#    0.000    4.583    0.000    0.000    0.000    0.000 
#    0.000    0.000    0.000    0.000    0.000    0.000 
#
# Total GULP energy -595172.952284 kJ/mol
# GULP energy per Si atom -12399.436506 kJ/mol
# Density = 2.067745 g / cm^3
# Si number density = 20.724619 Si / 1000 Ang^3
#
#
#
# Elastic Constant Matrix: (Units=GPa)
#
#
# Indices 1 2 3 4 5 6 
#
# 1 86.8454 23.3882 64.6818 0.0000 0.0000 0.0000
# 2 23.3882 82.6469 54.1558 0.0000 0.0000 0.0000
# 3 64.6818 54.1558 177.5858 0.0000 0.0000 0.0000
# 4 0.0000 0.0000 0.0000 31.3713 0.0000 0.0000
# 5 0.0000 0.0000 0.0000 0.0000 28.8654 0.0000
# 6 0.0000 0.0000 0.0000 0.0000 0.0000 29.3483
#
#
#
# Elastic Compliance Matrix: (Units=1/GPa)
#
#
# Indices 1 2 3 4 5 6 
#
# 1 0.015852 -0.000878 -0.005506 0.000000 0.000000 0.000000
# 2 -0.000878 0.015170 -0.004306 0.000000 0.000000 0.000000
# 3 -0.005506 -0.004306 0.008950 0.000000 0.000000 0.000000
# 4 0.000000 0.000000 0.000000 0.031876 0.000000 0.000000
# 5 0.000000 0.000000 0.000000 0.000000 0.034644 0.000000
# 6 0.000000 0.000000 0.000000 0.000000 0.000000 0.034074
#
#
# Mechanical properties :
#
#
# Convention : Reuss Voigt Hill
#
# Bulk Modulus (GPa) = 53.78967 70.16996 61.97981
# Shear Modulus (GPa) = 29.73662 31.57381 30.65521
#
# Velocity S-wave (km/s) = 3.79204 3.90743 3.85017
# Velocity P-wave (km/s) = 6.72188 7.36811 7.05240
#
# Compressibility (1/GPa) = 0.01859093
#
# Stress axis : x y z
#
# Youngs Moduli (GPa) = 63.08355 65.91982 111.73482
#
# Poissons Ratio (x) = 0.05788 0.61521
# Poissons Ratio (y) = 0.05539 0.48117
# Poissons Ratio (z) = 0.34734 0.28387
#
# Static dielectric constant tensor:
#      x y z
#    x 3.599540 0.000000 0.000000 
#    y 0.000000 3.587410 0.000000 
#    z 0.000000 0.000000 4.178640 
# 
# 
# High freq. dielectric constant tensor:
#      x y z
#    x 1.798580 0.000000 0.000000 
#    y 0.000000 1.805710 0.000000 
#    z 0.000000 0.000000 1.821030 
# 
# From -- ./inp_files/28486.got.cif
#   From: 2010.03.12/outbox.cif.g09.slc.cpg/sg66_15_cif.got.tgz:28486.got - 2010.04.10 21:57:39.
