data_PCOD8275614
_publ_section_title
;
Structure prediction by ZEFSAII (Michael W. Deem and Ramdas Pophale) SiO2 
 PCOD8275614
Probable space group: C C C M
;
_chemical_formula_sum "Si O2"
_cell_formula_units_Z 48
_cell_length_a 23.835305
_cell_length_b 9.022088
_cell_length_c 9.162518
_cell_angle_alpha 90.000000
_cell_angle_beta 90.000000
_cell_angle_gamma 90.000000
_cell_volume 1970.346529
_symmetry_space_group_name_H-M "C C C M"
_symmetry_group_IT_number 66
_symmetry_cell_setting 'orthorhombic'
loop_
_space_group_symop_operation_xyz
x,y,z
-x,-y,z
x,-y,1/2-z
-x,y,1/2-z
-x,-y,-z
x,y,-z
-x,y,1/2+z
x,-y,1/2+z
1/2+x,1/2+y,z
1/2-x,1/2-y,z
1/2+x,1/2-y,1/2-z
1/2-x,1/2+y,1/2-z
1/2-x,1/2-y,-z
1/2+x,1/2+y,-z
1/2-x,1/2+y,1/2+z
1/2+x,1/2-y,1/2+z
loop_
_atom_site_type_symbol
_atom_site_label
_atom_site_fract_x
_atom_site_fract_y
_atom_site_fract_z
Si Si1 0.943901 0.409374 0.000000
Si Si2 0.970082 0.819099 0.000000
Si Si3 0.816043 0.239851 0.500000
Si Si4 0.390949 0.209468 0.752734
Si Si5 0.387850 0.562094 0.000000
O O1 0.906631 0.431323 0.145749
O O2 0.000000 0.500000 0.000000
O O3 0.963673 0.231959 0.000000
O O4 0.944065 0.742361 0.143991
O O5 0.047417 0.007105 0.000000
O O6 0.750000 0.250000 0.500000
O O7 0.837206 0.324703 0.646014
O O8 0.844314 0.076517 0.500000
O O9 0.375855 0.347765 0.647765
#
# Coordination Sequence:
#
# PCOD8275614 Si02
#       5
#     8   8   8  16   8
#     4  11  23  38  58  83 130 178 197 241 312 375
#     4  10  18  32  58  88 118 161 199 236 305 370
#     4  10  19  37  67  87 120 160 206 277 332 366
#     4   9  20  37  60  91 118 156 210 249 305 387
#     4   9  18  38  63  90 125 149 199 265 308 373
#
# _framework density 24.361197000000001
#
# number of rings (size 3 to 8) (size 9 to 14) (size 15 to 20)
#    0.000    2.667    0.000    5.000    0.000    5.333 
#    0.000   19.167   44.000    2.000    0.000    0.000 
#    0.000    0.000    0.000    0.000    0.000    0.000 
#
# Total GULP energy -297368.025245 kJ/mol
# GULP energy per Si atom -12390.334385 kJ/mol
# Density = 2.430575 g / cm^3
# Si number density = 24.361197 Si / 1000 Ang^3
#
#
#
# Elastic Constant Matrix: (Units=GPa)
#
#
# Indices 1 2 3 4 5 6 
#
# 1 160.4022 27.2771 80.3407 0.0000 0.0000 0.0000
# 2 27.2771 43.2884 36.1830 0.0000 0.0000 0.0000
# 3 80.3407 36.1830 233.5048 0.0000 0.0000 0.0000
# 4 0.0000 0.0000 0.0000 -18.3657 0.0000 0.0000
# 5 0.0000 0.0000 0.0000 0.0000 27.0859 0.0000
# 6 0.0000 0.0000 0.0000 0.0000 0.0000 25.6970
#
#
#
# Elastic Compliance Matrix: (Units=1/GPa)
#
#
# Indices 1 2 3 4 5 6 
#
# 1 0.007879 -0.003100 -0.002230 0.000000 0.000000 0.000000
# 2 -0.003100 0.027758 -0.003235 0.000000 0.000000 0.000000
# 3 -0.002230 -0.003235 0.005551 0.000000 0.000000 0.000000
# 4 0.000000 0.000000 0.000000 -0.054449 0.000000 0.000000
# 5 0.000000 0.000000 0.000000 0.000000 0.036920 0.000000
# 6 0.000000 0.000000 0.000000 0.000000 0.000000 0.038915
#
#
# Mechanical properties :
#
#
# Convention : Reuss Voigt Hill
#
# Bulk Modulus (GPa) = 41.56708 80.53302 61.05005
# Shear Modulus (GPa) = 56.99765 26.44307 41.72036
#
# Velocity S-wave (km/s) = 4.84228 3.29820 4.14282
# Velocity P-wave (km/s) = 6.95438 6.90173 6.92811
#
# Compressibility (1/GPa) = 0.02405750
#
# Stress axis : x y z
#
# Youngs Moduli (GPa) = 126.92500 36.02547 180.14200
#
# Poissons Ratio (x) = 0.11169 0.40178
# Poissons Ratio (y) = 0.39350 0.58269
# Poissons Ratio (z) = 0.28309 0.11653
#
# Static dielectric constant tensor:
#      x y z
#    x 3.958760 0.000000 0.000000 
#    y 0.000000 5.319430 0.000000 
#    z 0.000000 0.000000 8.944670 
# 
# 
# High freq. dielectric constant tensor:
#      x y z
#    x 1.913170 0.000000 0.000000 
#    y 0.000000 1.997840 0.000000 
#    z 0.000000 0.000000 2.005600 
# 
# From -- ./inp_files/9766.got.cif
#   From: 2010.03.12/outbox.cif.g09.slc.cpg/sg66_5_cif.got.tgz:9766.got - 2010.04.10 21:57:39.
