data_PCOD8275740
_publ_section_title
;
Structure prediction by ZEFSAII (Michael W. Deem and Ramdas Pophale) SiO2 
 PCOD8275740
Probable space group: C C C M
;
_chemical_formula_sum "Si O2"
_cell_formula_units_Z 84
_cell_length_a 23.410088
_cell_length_b 12.282643
_cell_length_c 14.484829
_cell_angle_alpha 90.000000
_cell_angle_beta 90.000000
_cell_angle_gamma 90.000000
_cell_volume 4164.935191
_symmetry_space_group_name_H-M "C C C M"
_symmetry_group_IT_number 66
_symmetry_cell_setting 'orthorhombic'
loop_
_space_group_symop_operation_xyz
x,y,z
-x,-y,z
x,-y,1/2-z
-x,y,1/2-z
-x,-y,-z
x,y,-z
-x,y,1/2+z
x,-y,1/2+z
1/2+x,1/2+y,z
1/2-x,1/2-y,z
1/2+x,1/2-y,1/2-z
1/2-x,1/2+y,1/2-z
1/2-x,1/2-y,-z
1/2+x,1/2+y,-z
1/2-x,1/2+y,1/2+z
1/2+x,1/2-y,1/2+z
loop_
_atom_site_type_symbol
_atom_site_label
_atom_site_fract_x
_atom_site_fract_y
_atom_site_fract_z
Si Si1 0.186860 0.247386 0.794611
Si Si2 0.817509 0.544726 0.894891
Si Si3 0.500000 0.000000 0.250000
Si Si4 0.652842 0.696621 0.602458
Si Si5 0.920732 0.387771 0.103288
Si Si6 0.686997 0.539805 0.104716
O O1 0.250000 0.250000 0.838074
O O2 0.156555 0.356620 0.832473
O O3 0.190871 0.247267 0.683944
O O4 0.159004 0.135099 0.832557
O O5 0.858897 0.442724 0.879850
O O6 0.752733 0.511574 0.865392
O O7 0.818600 0.584896 0.000000
O O8 0.463878 0.922007 0.183267
O O9 0.679709 0.719818 0.500000
O O10 0.591006 0.757210 0.609267
O O11 0.647655 0.567013 0.617522
O O12 0.944033 0.417375 0.000000
O O13 0.685578 0.580947 0.000000
#
# Coordination Sequence:
#
# PCOD8275740 Si02
#       6
#    16  16   4  16  16  16
#     4  10  19  29  46  73 107 146 186 215 245 299
#     4   9  18  33  52  76 107 142 179 218 261 316
#     4  12  22  40  60  78 106 136 178 240 292 322
#     4  10  21  34  48  73 108 146 180 215 261 318
#     4  10  22  37  56  80 104 134 177 226 282 335
#     4   9  18  32  51  75 110 150 181 212 253 310
#
# _framework density 20.168379999999999
#
# number of rings (size 3 to 8) (size 9 to 14) (size 15 to 20)
#    0.000    2.286    0.000    2.571    2.667    2.667 
#    0.000    0.000    0.000    0.000    0.000   10.667 
#    0.000   36.571    0.000    0.000    0.000    0.000 
#
# Total GULP energy -520371.222404 kJ/mol
# GULP energy per Si atom -12389.791010 kJ/mol
# Density = 2.012248 g / cm^3
# Si number density = 20.168380 Si / 1000 Ang^3
#
#
#
# Elastic Constant Matrix: (Units=GPa)
#
#
# Indices 1 2 3 4 5 6 
#
# 1 44.6614 37.3445 30.9066 0.0000 0.0000 0.0000
# 2 37.3445 131.5075 66.4207 0.0000 0.0000 0.0000
# 3 30.9066 66.4207 135.2754 0.0000 0.0000 0.0000
# 4 0.0000 0.0000 0.0000 22.4347 0.0000 0.0000
# 5 0.0000 0.0000 0.0000 0.0000 25.5634 0.0000
# 6 0.0000 0.0000 0.0000 0.0000 0.0000 19.0105
#
#
#
# Elastic Compliance Matrix: (Units=1/GPa)
#
#
# Indices 1 2 3 4 5 6 
#
# 1 0.030646 -0.006870 -0.003629 0.000000 0.000000 0.000000
# 2 -0.006870 0.011652 -0.004151 0.000000 0.000000 0.000000
# 3 -0.003629 -0.004151 0.010260 0.000000 0.000000 0.000000
# 4 0.000000 0.000000 0.000000 0.044574 0.000000 0.000000
# 5 0.000000 0.000000 0.000000 0.000000 0.039118 0.000000
# 6 0.000000 0.000000 0.000000 0.000000 0.000000 0.052602
#
#
# Mechanical properties :
#
#
# Convention : Reuss Voigt Hill
#
# Bulk Modulus (GPa) = 42.99661 64.53200 53.76431
# Shear Modulus (GPa) = 22.13319 25.18657 23.65988
#
# Velocity S-wave (km/s) = 3.31633 3.53769 3.42880
# Velocity P-wave (km/s) = 6.00243 6.98234 6.51085
#
# Compressibility (1/GPa) = 0.02325765
#
# Stress axis : x y z
#
# Youngs Moduli (GPa) = 32.63041 85.82358 97.46825
#
# Poissons Ratio (x) = 0.58961 0.35367
# Poissons Ratio (y) = 0.22417 0.40464
# Poissons Ratio (z) = 0.11840 0.35629
#
# Static dielectric constant tensor:
#      x y z
#    x 3.052500 0.000000 0.000000 
#    y 0.000000 3.844220 0.000000 
#    z 0.000000 0.000000 3.940870 
# 
# 
# High freq. dielectric constant tensor:
#      x y z
#    x 1.699660 0.000000 0.000000 
#    y 0.000000 1.797570 0.000000 
#    z 0.000000 0.000000 1.817330 
# 
# From -- ./inp_files/32200.got.cif
#   From: 2010.03.12/outbox.cif.g09.slc.cpg/sg66_17_cif.got.tgz:32200.got - 2010.04.10 21:57:39.
