data_PCOD8275264
_publ_section_title
;
Structure prediction by ZEFSAII (Michael W. Deem and Ramdas Pophale) SiO2 
 PCOD8275264
Probable space group: C C C M
;
_chemical_formula_sum "Si O2"
_cell_formula_units_Z 120
_cell_length_a 25.671406
_cell_length_b 8.937191
_cell_length_c 26.842125
_cell_angle_alpha 90.000000
_cell_angle_beta 90.000000
_cell_angle_gamma 90.000000
_cell_volume 6158.395682
_symmetry_space_group_name_H-M "C C C M"
_symmetry_group_IT_number 66
_symmetry_cell_setting 'orthorhombic'
loop_
_space_group_symop_operation_xyz
x,y,z
-x,-y,z
x,-y,1/2-z
-x,y,1/2-z
-x,-y,-z
x,y,-z
-x,y,1/2+z
x,-y,1/2+z
1/2+x,1/2+y,z
1/2-x,1/2-y,z
1/2+x,1/2-y,1/2-z
1/2-x,1/2+y,1/2-z
1/2-x,1/2-y,-z
1/2+x,1/2+y,-z
1/2-x,1/2+y,1/2+z
1/2+x,1/2-y,1/2+z
loop_
_atom_site_type_symbol
_atom_site_label
_atom_site_fract_x
_atom_site_fract_y
_atom_site_fract_z
Si Si1 0.143626 0.809527 0.629819
Si Si2 0.860783 0.778166 0.443801
Si Si3 0.750000 0.750000 0.690495
Si Si4 0.656908 0.678553 0.243111
Si Si5 0.228140 0.954961 0.896826
Si Si6 0.334288 0.949886 0.556449
Si Si7 0.944579 0.042931 0.883421
Si Si8 0.951363 0.159263 0.223788
O O1 0.160085 0.770010 0.685938
O O2 0.139567 0.662988 0.595597
O O3 0.188975 0.907801 0.606376
O O4 0.088374 0.895046 0.630580
O O5 0.858914 0.836706 0.500000
O O6 0.804754 0.816295 0.419307
O O7 0.868387 0.600507 0.440254
O O8 0.910713 0.853574 0.419028
O O9 0.700327 0.764928 0.725856
O O10 0.751905 0.900731 0.657209
O O11 0.663270 0.500000 0.250000
O O12 0.603042 0.741911 0.266166
O O13 0.274511 0.011705 0.931408
O O14 0.336567 0.885073 0.500000
O O15 0.959917 0.138429 0.834778
O O16 0.000000 0.000000 0.909035
O O17 0.000000 0.246310 0.250000
O O18 0.946753 0.000000 0.250000
#
# Coordination Sequence:
#
# PCOD8275264 Si02
#       8
#    16  16   8  16  16  16  16  16
#     4  11  23  37  58  89 123 156 204 250 304 366
#     4  10  22  40  62  87 119 160 207 257 309 360
#     4  12  22  32  57  88 127 166 198 244 304 368
#     4  11  20  34  53  86 130 160 192 244 304 372
#     4  11  21  38  61  85 114 160 212 247 288 365
#     4  11  24  41  60  84 119 162 203 254 309 358
#     4  11  20  37  66  94 117 154 207 258 299 363
#     4  10  16  32  61  91 114 148 197 246 300 345
#
# _framework density 19.485595
#
# number of rings (size 3 to 8) (size 9 to 14) (size 15 to 20)
#    0.000    1.200    6.667    1.600    1.867    4.533 
#    0.000    0.667    0.000    1.600    0.000    0.933 
#    0.000    0.000    0.000    0.000    0.000    0.000 
#
# Total GULP energy -743953.227680 kJ/mol
# GULP energy per Si atom -12399.220461 kJ/mol
# Density = 1.944125 g / cm^3
# Si number density = 19.485595 Si / 1000 Ang^3
#
#
#
# Elastic Constant Matrix: (Units=GPa)
#
#
# Indices 1 2 3 4 5 6 
#
# 1 138.9408 27.8268 57.5547 0.0000 0.0000 0.0000
# 2 27.8268 58.5046 45.6616 0.0000 0.0000 0.0000
# 3 57.5547 45.6616 141.9978 0.0000 0.0000 0.0000
# 4 0.0000 0.0000 0.0000 27.1080 0.0000 0.0000
# 5 0.0000 0.0000 0.0000 0.0000 -28.0341 0.0000
# 6 0.0000 0.0000 0.0000 0.0000 0.0000 13.6451
#
#
#
# Elastic Compliance Matrix: (Units=1/GPa)
#
#
# Indices 1 2 3 4 5 6 
#
# 1 0.008800 -0.001872 -0.002965 0.000000 0.000000 0.000000
# 2 -0.001872 0.023218 -0.006707 0.000000 0.000000 0.000000
# 3 -0.002965 -0.006707 0.010401 0.000000 0.000000 0.000000
# 4 0.000000 0.000000 0.000000 0.036889 0.000000 0.000000
# 5 0.000000 0.000000 0.000000 0.000000 -0.035671 0.000000
# 6 0.000000 0.000000 0.000000 0.000000 0.000000 0.073287
#
#
# Mechanical properties :
#
#
# Convention : Reuss Voigt Hill
#
# Bulk Modulus (GPa) = 51.73035 66.83661 59.28348
# Shear Modulus (GPa) = 34.13976 16.43713 25.28845
#
# Velocity S-wave (km/s) = 4.19029 2.90755 3.60641
# Velocity P-wave (km/s) = 7.07227 6.75624 6.91606
#
# Compressibility (1/GPa) = 0.01933101
#
# Stress axis : x y z
#
# Youngs Moduli (GPa) = 113.63087 43.07026 96.14359
#
# Poissons Ratio (x) = 0.08061 0.28508
# Poissons Ratio (y) = 0.21266 0.64488
# Poissons Ratio (z) = 0.33694 0.28889
#
# Static dielectric constant tensor:
#      x y z
#    x 5.238790 0.000000 0.000000 
#    y 0.000000 3.275130 0.000000 
#    z 0.000000 0.000000 3.650060 
# 
# 
# High freq. dielectric constant tensor:
#      x y z
#    x 1.763830 0.000000 0.000000 
#    y 0.000000 1.722340 0.000000 
#    z 0.000000 0.000000 1.769040 
# 
# From -- ./inp_files/66323.got.cif
#   From: 2010.03.12/outbox.cif.g09.slc.cpg/sg66_34_cif.got.tgz:66323.got - 2010.04.10 21:57:39.
