data_PCOD8275212
_publ_section_title
;
Structure prediction by ZEFSAII (Michael W. Deem and Ramdas Pophale) SiO2 
 PCOD8275212
Probable space group: C M M M
;
_chemical_formula_sum "Si O2"
_cell_formula_units_Z 60
_cell_length_a 27.000000
_cell_length_b 9.000000
_cell_length_c 27.000000
_cell_angle_alpha 90.000000
_cell_angle_beta 90.000000
_cell_angle_gamma 90.000000
_cell_volume 6561.000000
_symmetry_space_group_name_H-M "C M M M"
_symmetry_group_IT_number 65
_symmetry_cell_setting 'orthorhombic'
loop_
_space_group_symop_operation_xyz
x,y,z
-x,-y,z
x,-y,-z
-x,y,-z
-x,-y,-z
x,y,-z
-x,y,z
x,-y,z
1/2+x,1/2+y,z
1/2-x,1/2-y,z
1/2+x,1/2-y,-z
1/2-x,1/2+y,-z
1/2-x,1/2-y,-z
1/2+x,1/2+y,-z
1/2-x,1/2+y,z
1/2+x,1/2-y,z
loop_
_atom_site_type_symbol
_atom_site_label
_atom_site_fract_x
_atom_site_fract_y
_atom_site_fract_z
Si Si1 0.945462 0.823288 0.754306
Si Si2 0.602914 0.326688 0.853663
Si Si3 0.299324 0.672428 0.202196
Si Si4 0.697733 0.175800 0.500000
Si Si5 0.055963 0.675147 0.944492
Si Si6 0.356759 0.174244 0.598986
Si Si7 0.943562 0.169180 0.556508
Si Si8 0.649609 0.675649 0.698521
O O1 0.931987 0.764813 0.809368
O O2 0.905999 0.770247 0.713175
O O3 0.000000 0.765053 0.739520
O O4 0.942905 0.000000 0.756663
O O5 0.593834 0.500000 0.861619
O O6 0.659112 0.291545 0.838319
O O7 0.592817 0.246601 0.905194
O O8 0.289125 0.500000 0.205421
O O9 0.250000 0.750000 0.183670
O O10 0.314707 0.728250 0.257068
O O11 0.750000 0.250000 0.500000
O O12 0.670385 0.231800 0.450511
O O13 0.702624 0.000000 0.500000
O O14 0.059152 0.500000 0.939303
O O15 0.000000 0.729580 0.933964
O O16 0.071853 0.723727 0.000000
O O17 0.413462 0.225887 0.593603
O O18 0.332867 0.246689 0.647888
O O19 0.353223 0.000000 0.604912
O O20 0.937321 0.223965 0.500000
O O21 0.000000 0.181256 0.573385
O O22 0.924935 0.000000 0.561790
O O23 0.651567 0.500000 0.690778
#
# Coordination Sequence:
#
# PCOD8275212 Si02
#       8
#    16  16  16   8  16  16  16  16
#     4   8  14  27  48  72  99 130 162 199 242 286
#     4   9  17  30  50  76 101 130 173 219 258 299
#     4   9  19  35  54  76 102 130 167 215 265 313
#     4  10  24  42  57  74  95 123 158 197 245 298
#     4   9  18  31  46  70 108 148 179 208 248 299
#     4  11  22  37  54  76 105 131 159 201 252 299
#     4   9  18  33  54  78 100 128 167 200 230 281
#     4   9  19  34  51  74 101 130 164 200 242 297
#
# _framework density 9.1449470000000002
#
# number of rings (size 3 to 8) (size 9 to 14) (size 15 to 20)
#    0.000    2.800    0.667    3.200    0.000    4.533 
#    0.000    7.333    0.000    1.200    0.000    0.000 
#    0.000    0.000    0.000    0.000    0.000    0.000 
#
# Total GULP energy -743777.887646 kJ/mol
# GULP energy per Si atom -12396.298127 kJ/mol
# Density = 0.912413 g / cm^3
# Si number density = 9.144947 Si / 1000 Ang^3
#
#
#
# Elastic Constant Matrix: (Units=GPa)
#
#
# Indices 1 2 3 4 5 6 
#
# 1 79.8618 32.3818 40.0886 0.0000 0.0000 0.0000
# 2 32.3818 30.1864 42.8322 0.0000 0.0000 0.0000
# 3 40.0886 42.8322 132.3106 0.0000 0.0000 0.0000
# 4 0.0000 0.0000 0.0000 28.6962 0.0000 0.0000
# 5 0.0000 0.0000 0.0000 0.0000 18.3339 0.0000
# 6 0.0000 0.0000 0.0000 0.0000 0.0000 23.4826
#
#
#
# Elastic Compliance Matrix: (Units=1/GPa)
#
#
# Indices 1 2 3 4 5 6 
#
# 1 0.022399 -0.026631 0.001834 0.000000 0.000000 0.000000
# 2 -0.026631 0.092935 -0.022016 0.000000 0.000000 0.000000
# 3 0.001834 -0.022016 0.014129 0.000000 0.000000 0.000000
# 4 0.000000 0.000000 0.000000 0.034848 0.000000 0.000000
# 5 0.000000 0.000000 0.000000 0.000000 0.054544 0.000000
# 6 0.000000 0.000000 0.000000 0.000000 0.000000 0.042585
#
#
# Mechanical properties :
#
#
# Convention : Reuss Voigt Hill
#
# Bulk Modulus (GPa) = 27.90377 52.55157 40.22767
# Shear Modulus (GPa) = 13.62357 22.57296 18.09827
#
# Velocity S-wave (km/s) = 2.73219 3.51690 3.14908
# Velocity P-wave (km/s) = 5.02421 6.72951 5.93839
#
# Compressibility (1/GPa) = 0.03583745
#
# Stress axis : x y z
#
# Youngs Moduli (GPa) = 44.64512 10.76022 70.77430
#
# Poissons Ratio (x) = 0.28655 -0.12983
# Poissons Ratio (y) = 1.18894 1.55820
# Poissons Ratio (z) = -0.08190 0.23690
#
# Static dielectric constant tensor:
#      x y z
#    x 3.239500 0.000000 0.000000 
#    y 0.000000 3.050330 0.000000 
#    z 0.000000 0.000000 3.436190 
# 
# 
# High freq. dielectric constant tensor:
#      x y z
#    x 1.695800 0.000000 0.000000 
#    y 0.000000 1.680610 0.000000 
#    z 0.000000 0.000000 1.706470 
# 
# From -- ./inp_files/76096.got.cif
#   From: 2010.03.12/outbox.ucp.g09.slc.cvg/sg65_39_cif.got.tgz:76096.got - 2010.05.04 19:44:54.
