data_PCOD8275513
_publ_section_title
;
Structure prediction by ZEFSAII (Michael W. Deem and Ramdas Pophale) SiO2 
 PCOD8275513
Probable space group: C C C M
;
_chemical_formula_sum "Si O2"
_cell_formula_units_Z 80
_cell_length_a 23.704923
_cell_length_b 20.302272
_cell_length_c 10.191113
_cell_angle_alpha 90.000000
_cell_angle_beta 90.000000
_cell_angle_gamma 90.000000
_cell_volume 4904.613712
_symmetry_space_group_name_H-M "C C C M"
_symmetry_group_IT_number 66
_symmetry_cell_setting 'orthorhombic'
loop_
_space_group_symop_operation_xyz
x,y,z
-x,-y,z
x,-y,1/2-z
-x,y,1/2-z
-x,-y,-z
x,y,-z
-x,y,1/2+z
x,-y,1/2+z
1/2+x,1/2+y,z
1/2-x,1/2-y,z
1/2+x,1/2-y,1/2-z
1/2-x,1/2+y,1/2-z
1/2-x,1/2-y,-z
1/2+x,1/2+y,-z
1/2-x,1/2+y,1/2+z
1/2+x,1/2-y,1/2+z
loop_
_atom_site_type_symbol
_atom_site_label
_atom_site_fract_x
_atom_site_fract_y
_atom_site_fract_z
Si Si1 0.779076 0.853475 0.267887
Si Si2 0.431316 0.341380 0.000000
Si Si3 0.332466 0.566646 0.000000
Si Si4 0.062742 0.760171 0.241176
Si Si5 0.327730 0.785692 0.155886
Si Si6 0.557199 0.642673 0.500000
Si Si7 0.181549 0.087084 0.000000
O O1 0.805241 0.903523 0.370650
O O2 0.712012 0.844813 0.294698
O O3 0.808746 0.783092 0.280530
O O4 0.786568 0.882822 0.124199
O O5 0.422442 0.294620 0.123477
O O6 0.384577 0.397242 0.000000
O O7 0.491611 0.379289 0.000000
O O8 0.316342 0.490934 0.000000
O O9 0.400243 0.580447 0.000000
O O10 0.107999 0.702620 0.206801
O O11 0.000000 0.729035 0.250000
O O12 0.068412 0.814598 0.128546
O O13 0.324081 0.779843 0.000000
#
# Coordination Sequence:
#
# PCOD8275513 Si02
#       7
#    16   8   8  16  16   8   8
#     4  11  21  34  51  77  95 133 177 210 268 293
#     4  10  20  32  43  72 102 136 170 215 255 286
#     4  12  20  37  52  69 100 142 184 214 236 307
#     4  10  18  30  51  75 101 129 165 211 255 299
#     4  11  18  34  59  71  99 132 175 212 246 332
#     4  10  18  32  51  64  98 138 186 207 233 298
#     4  12  24  33  48  73 110 132 172 224 260 291
#
# _framework density 16.311173
#
# number of rings (size 3 to 8) (size 9 to 14) (size 15 to 20)
#    0.000    1.200    7.000    1.200    0.000    2.800 
#    0.000    0.000    0.000    6.000    0.000    0.000 
#    0.000    4.800    0.000    0.000    0.000    0.000 
#
# Total GULP energy -495897.271480 kJ/mol
# GULP energy per Si atom -12397.431787 kJ/mol
# Density = 1.627405 g / cm^3
# Si number density = 16.311173 Si / 1000 Ang^3
#
#
#
# Elastic Constant Matrix: (Units=GPa)
#
#
# Indices 1 2 3 4 5 6 
#
# 1 134.1004 47.6612 39.2087 0.0000 0.0000 0.0000
# 2 47.6612 50.9536 30.3217 0.0000 0.0000 0.0000
# 3 39.2087 30.3217 128.8486 0.0000 0.0000 0.0000
# 4 0.0000 0.0000 0.0000 17.3818 0.0000 0.0000
# 5 0.0000 0.0000 0.0000 0.0000 30.0689 0.0000
# 6 0.0000 0.0000 0.0000 0.0000 0.0000 19.7237
#
#
#
# Elastic Compliance Matrix: (Units=1/GPa)
#
#
# Indices 1 2 3 4 5 6 
#
# 1 0.011305 -0.009916 -0.001107 0.000000 0.000000 0.000000
# 2 -0.009916 0.031519 -0.004400 0.000000 0.000000 0.000000
# 3 -0.001107 -0.004400 0.009133 0.000000 0.000000 0.000000
# 4 0.000000 0.000000 0.000000 0.057531 0.000000 0.000000
# 5 0.000000 0.000000 0.000000 0.000000 0.033257 0.000000
# 6 0.000000 0.000000 0.000000 0.000000 0.000000 0.050700
#
#
# Mechanical properties :
#
#
# Convention : Reuss Voigt Hill
#
# Bulk Modulus (GPa) = 47.36540 60.92064 54.14302
# Shear Modulus (GPa) = 21.61426 26.54893 24.08160
#
# Velocity S-wave (km/s) = 3.64417 4.03880 3.84655
# Velocity P-wave (km/s) = 6.84166 7.69281 7.27968
#
# Compressibility (1/GPa) = 0.02111246
#
# Stress axis : x y z
#
# Youngs Moduli (GPa) = 88.45714 31.72663 109.49045
#
# Poissons Ratio (x) = 0.31460 0.12116
# Poissons Ratio (y) = 0.87713 0.48175
# Poissons Ratio (z) = 0.09789 0.13960
#
# Static dielectric constant tensor:
#      x y z
#    x 3.687670 0.000000 0.000000 
#    y 0.000000 2.676580 0.000000 
#    z 0.000000 0.000000 3.412770 
# 
# 
# High freq. dielectric constant tensor:
#      x y z
#    x 1.643320 0.000000 0.000000 
#    y 0.000000 1.565870 0.000000 
#    z 0.000000 0.000000 1.651600 
# 
# From -- ./inp_files/8950.got.cif
#   From: 2010.03.12/outbox.cif.g09.slc.cpg/sg66_5_cif.got.tgz:8950.got - 2010.04.10 21:57:39.
