data_PCOD8275251
_publ_section_title
;
Structure prediction by ZEFSAII (Michael W. Deem and Ramdas Pophale) SiO2 
 PCOD8275251
Probable space group: C C C M
;
_chemical_formula_sum "Si O2"
_cell_formula_units_Z 80
_cell_length_a 18.084088
_cell_length_b 14.882803
_cell_length_c 18.022623
_cell_angle_alpha 90.000000
_cell_angle_beta 90.000000
_cell_angle_gamma 90.000000
_cell_volume 4850.643342
_symmetry_space_group_name_H-M "C C C M"
_symmetry_group_IT_number 66
_symmetry_cell_setting 'orthorhombic'
loop_
_space_group_symop_operation_xyz
x,y,z
-x,-y,z
x,-y,1/2-z
-x,y,1/2-z
-x,-y,-z
x,y,-z
-x,y,1/2+z
x,-y,1/2+z
1/2+x,1/2+y,z
1/2-x,1/2-y,z
1/2+x,1/2-y,1/2-z
1/2-x,1/2+y,1/2-z
1/2-x,1/2-y,-z
1/2+x,1/2+y,-z
1/2-x,1/2+y,1/2+z
1/2+x,1/2-y,1/2+z
loop_
_atom_site_type_symbol
_atom_site_label
_atom_site_fract_x
_atom_site_fract_y
_atom_site_fract_z
Si Si1 0.213917 0.489353 0.587155
Si Si2 0.073987 0.450585 0.325749
Si Si3 0.578973 0.239929 0.765849
Si Si4 0.712934 0.661992 0.329666
Si Si5 0.794044 0.667657 0.176870
O O1 0.222696 0.494042 0.500000
O O2 0.134513 0.451010 0.609832
O O3 0.280029 0.424989 0.617653
O O4 0.216808 0.588943 0.619071
O O5 0.103136 0.500000 0.250000
O O6 0.056769 0.346170 0.314883
O O7 0.000000 0.500000 0.353426
O O8 0.500000 0.287781 0.750000
O O9 0.628104 0.314375 0.809295
O O10 0.621868 0.201403 0.692765
O O11 0.750000 0.750000 0.368099
O O12 0.760143 0.639422 0.256204
O O13 0.750000 0.750000 0.140884
#
# Coordination Sequence:
#
# PCOD8275251 Si02
#       5
#    16  16  16  16  16
#     4  12  21  31  48  73 111 143 169 205 257 323
#     4  11  17  29  52  74 104 135 170 209 259 309
#     4  10  16  29  54  79  97 126 171 225 264 297
#     4   9  18  32  51  72 100 134 175 212 246 307
#     4   9  18  33  54  72  93 130 176 224 254 292
#
# _framework density 16.492657000000001
#
# number of rings (size 3 to 8) (size 9 to 14) (size 15 to 20)
#    0.000    2.200    8.000    0.600    0.000    1.200 
#    0.000    0.000    0.000   10.800    0.000    5.600 
#    0.000    0.000    0.000    0.000    0.000    0.000 
#
# Total GULP energy -495625.807434 kJ/mol
# GULP energy per Si atom -12390.645186 kJ/mol
# Density = 1.645512 g / cm^3
# Si number density = 16.492657 Si / 1000 Ang^3
#
#
#
# Elastic Constant Matrix: (Units=GPa)
#
#
# Indices 1 2 3 4 5 6 
#
# 1 128.0418 54.8024 33.7439 0.0000 0.0000 0.0000
# 2 54.8024 78.5386 44.2109 0.0000 0.0000 0.0000
# 3 33.7439 44.2109 79.6626 0.0000 0.0000 0.0000
# 4 0.0000 0.0000 0.0000 12.0234 0.0000 0.0000
# 5 0.0000 0.0000 0.0000 0.0000 14.6986 0.0000
# 6 0.0000 0.0000 0.0000 0.0000 0.0000 24.4971
#
#
#
# Elastic Compliance Matrix: (Units=1/GPa)
#
#
# Indices 1 2 3 4 5 6 
#
# 1 0.011155 -0.007452 -0.000589 0.000000 0.000000 0.000000
# 2 -0.007452 0.023496 -0.009883 0.000000 0.000000 0.000000
# 3 -0.000589 -0.009883 0.018288 0.000000 0.000000 0.000000
# 4 0.000000 0.000000 0.000000 0.083171 0.000000 0.000000
# 5 0.000000 0.000000 0.000000 0.000000 0.068033 0.000000
# 6 0.000000 0.000000 0.000000 0.000000 0.000000 0.040821
#
#
# Mechanical properties :
#
#
# Convention : Reuss Voigt Hill
#
# Bulk Modulus (GPa) = 58.51600 61.30639 59.91119
# Shear Modulus (GPa) = 17.45150 20.47621 18.96385
#
# Velocity S-wave (km/s) = 3.25643 3.52736 3.39460
# Velocity P-wave (km/s) = 7.04955 7.33774 7.19509
#
# Compressibility (1/GPa) = 0.01708934
#
# Stress axis : x y z
#
# Youngs Moduli (GPa) = 89.64899 42.56124 54.68211
#
# Poissons Ratio (x) = 0.31715 0.03223
# Poissons Ratio (y) = 0.66803 0.54043
# Poissons Ratio (z) = 0.05284 0.42064
#
# Static dielectric constant tensor:
#      x y z
#    x 3.303520 0.000000 0.000000 
#    y 0.000000 3.182740 0.000000 
#    z 0.000000 0.000000 2.697590 
# 
# 
# High freq. dielectric constant tensor:
#      x y z
#    x 1.632680 0.000000 0.000000 
#    y 0.000000 1.635880 0.000000 
#    z 0.000000 0.000000 1.585560 
# 
# From -- ./inp_files/42857.got.cif
#   From: 2010.03.12/outbox.cif.g09.slc.cpg/sg66_22_cif.got.tgz:42857.got - 2010.04.10 21:57:39.
