data_PCOD8275365
_publ_section_title
;
Structure prediction by ZEFSAII (Michael W. Deem and Ramdas Pophale) SiO2 
 PCOD8275365
Probable space group: C C C M
;
_chemical_formula_sum "Si O2"
_cell_formula_units_Z 80
_cell_length_a 21.994947
_cell_length_b 11.681078
_cell_length_c 15.670581
_cell_angle_alpha 90.000000
_cell_angle_beta 90.000000
_cell_angle_gamma 90.000000
_cell_volume 4026.159189
_symmetry_space_group_name_H-M "C C C M"
_symmetry_group_IT_number 66
_symmetry_cell_setting 'orthorhombic'
loop_
_space_group_symop_operation_xyz
x,y,z
-x,-y,z
x,-y,1/2-z
-x,y,1/2-z
-x,-y,-z
x,y,-z
-x,y,1/2+z
x,-y,1/2+z
1/2+x,1/2+y,z
1/2-x,1/2-y,z
1/2+x,1/2-y,1/2-z
1/2-x,1/2+y,1/2-z
1/2-x,1/2-y,-z
1/2+x,1/2+y,-z
1/2-x,1/2+y,1/2+z
1/2+x,1/2-y,1/2+z
loop_
_atom_site_type_symbol
_atom_site_label
_atom_site_fract_x
_atom_site_fract_y
_atom_site_fract_z
Si Si1 0.379781 0.746529 0.757700
Si Si2 0.771300 0.994602 0.403651
Si Si3 0.567521 0.047949 0.162241
Si Si4 0.149712 0.620692 0.594031
Si Si5 0.637655 0.500000 0.750000
Si Si6 0.750000 0.750000 0.342806
O O1 0.424363 0.814673 0.824481
O O2 0.381836 0.793268 0.660769
O O3 0.403012 0.614615 0.759912
O O4 0.309684 0.750178 0.784628
O O5 0.794966 0.017616 0.500000
O O6 0.748491 0.863526 0.400390
O O7 0.717572 0.083327 0.380602
O O8 0.822755 0.020097 0.334873
O O9 0.500000 0.000000 0.148940
O O10 0.596059 0.000000 0.250000
O O11 0.609461 0.996578 0.087989
O O12 0.148889 0.677626 0.500000
#
# Coordination Sequence:
#
# PCOD8275365 Si02
#       6
#    16  16  16  16   8   8
#     4  10  19  33  53  75 108 146 185 225 276 333
#     4  10  19  30  47  76 111 150 189 221 265 330
#     4   9  18  33  54  75  98 133 183 235 280 316
#     4  10  19  31  51  77 105 138 179 231 280 321
#     4  10  22  34  50  77 111 154 184 220 272 340
#     4  10  17  30  51  74 112 152 187 218 266 330
#
# _framework density 19.870055000000001
#
# number of rings (size 3 to 8) (size 9 to 14) (size 15 to 20)
#    0.000    2.200    2.000    2.700    1.400    1.200 
#    0.000    2.500    0.000    9.600    0.000    1.400 
#    0.000    0.000    0.000    0.000    0.000    0.000 
#
# Total GULP energy -495563.373950 kJ/mol
# GULP energy per Si atom -12389.084349 kJ/mol
# Density = 1.982483 g / cm^3
# Si number density = 19.870055 Si / 1000 Ang^3
#
#
#
# Elastic Constant Matrix: (Units=GPa)
#
#
# Indices 1 2 3 4 5 6 
#
# 1 51.2852 32.4171 18.2787 0.0000 0.0000 0.0000
# 2 32.4171 128.7023 17.5702 0.0000 0.0000 0.0000
# 3 18.2787 17.5702 74.4694 0.0000 0.0000 0.0000
# 4 0.0000 0.0000 0.0000 18.6129 0.0000 0.0000
# 5 0.0000 0.0000 0.0000 0.0000 6.1000 0.0000
# 6 0.0000 0.0000 0.0000 0.0000 0.0000 26.6426
#
#
#
# Elastic Compliance Matrix: (Units=1/GPa)
#
#
# Indices 1 2 3 4 5 6 
#
# 1 0.024717 -0.005577 -0.004751 0.000000 0.000000 0.000000
# 2 -0.005577 0.009287 -0.000822 0.000000 0.000000 0.000000
# 3 -0.004751 -0.000822 0.014789 0.000000 0.000000 0.000000
# 4 0.000000 0.000000 0.000000 0.053726 0.000000 0.000000
# 5 0.000000 0.000000 0.000000 0.000000 0.163933 0.000000
# 6 0.000000 0.000000 0.000000 0.000000 0.000000 0.037534
#
#
# Mechanical properties :
#
#
# Convention : Reuss Voigt Hill
#
# Bulk Modulus (GPa) = 37.74737 43.44322 40.59529
# Shear Modulus (GPa) = 14.92013 22.68383 18.80198
#
# Velocity S-wave (km/s) = 2.74320 3.38244 3.07945
# Velocity P-wave (km/s) = 5.39184 6.09636 5.75489
#
# Compressibility (1/GPa) = 0.02649191
#
# Stress axis : x y z
#
# Youngs Moduli (GPa) = 40.45727 107.67903 67.62007
#
# Poissons Ratio (x) = 0.60054 0.32127
# Poissons Ratio (y) = 0.22564 0.05560
# Poissons Ratio (z) = 0.19222 0.08853
#
# Static dielectric constant tensor:
#      x y z
#    x 3.153330 0.000000 0.000000 
#    y 0.000000 4.075380 0.000000 
#    z 0.000000 0.000000 3.531070 
# 
# 
# High freq. dielectric constant tensor:
#      x y z
#    x 1.729670 0.000000 0.000000 
#    y 0.000000 1.778680 0.000000 
#    z 0.000000 0.000000 1.768290 
# 
# From -- ./inp_files/32135.got.cif
#   From: 2010.03.12/outbox.cif.g09.slc.cpg/sg66_17_cif.got.tgz:32135.got - 2010.04.10 21:57:39.
