data_PCOD8275114
_publ_section_title
;
Structure prediction by ZEFSAII (Michael W. Deem and Ramdas Pophale) SiO2 
 PCOD8275114
Probable space group: C M M M
;
_chemical_formula_sum "Si O2"
_cell_formula_units_Z 80
_cell_length_a 20.724248
_cell_length_b 28.751030
_cell_length_c 7.599039
_cell_angle_alpha 90.000000
_cell_angle_beta 90.000000
_cell_angle_gamma 90.000000
_cell_volume 4527.837812
_symmetry_space_group_name_H-M "C M M M"
_symmetry_group_IT_number 65
_symmetry_cell_setting 'orthorhombic'
loop_
_space_group_symop_operation_xyz
x,y,z
-x,-y,z
x,-y,-z
-x,y,-z
-x,-y,-z
x,y,-z
-x,y,z
x,-y,z
1/2+x,1/2+y,z
1/2-x,1/2-y,z
1/2+x,1/2-y,-z
1/2-x,1/2+y,-z
1/2-x,1/2-y,-z
1/2+x,1/2+y,-z
1/2-x,1/2+y,z
1/2+x,1/2-y,z
loop_
_atom_site_type_symbol
_atom_site_label
_atom_site_fract_x
_atom_site_fract_y
_atom_site_fract_z
Si Si1 0.311189 0.722048 0.709091
Si Si2 0.876227 0.448300 0.000000
Si Si3 0.223914 0.879547 0.699706
Si Si4 0.776964 0.948066 0.000000
Si Si5 0.623708 0.880042 0.699762
Si Si6 0.928607 0.281479 0.291016
O O1 0.309025 0.726014 0.500000
O O2 0.250000 0.750000 0.787834
O O3 0.309113 0.668160 0.765386
O O4 0.377017 0.744589 0.785459
O O5 0.799554 0.451205 0.000000
O O6 0.899830 0.421881 0.175475
O O7 0.906330 0.500000 0.000000
O O8 0.203824 0.892145 0.500000
O O9 0.300152 0.871867 0.713187
O O10 0.199512 0.921023 0.825266
O O11 0.806988 0.000000 0.000000
O O12 0.603430 0.892385 0.500000
O O13 0.589764 0.833373 0.768936
O O14 0.927117 0.279516 0.500000
O O15 0.000000 0.269139 0.218811
#
# Coordination Sequence:
#
# PCOD8275114 Si02
#       6
#    16   8  16   8  16  16
#     4   9  14  24  43  66  93 122 151 185 222 267
#     4   9  18  30  44  64  86 110 149 198 240 273
#     4   9  16  27  45  66  89 120 154 184 221 271
#     4   9  18  30  42  64  95 117 145 193 237 271
#     4   9  16  28  45  63  86 118 152 185 224 270
#     4   9  16  26  43  67  93 122 153 184 222 268
#
# _framework density 17.668478
#
# number of rings (size 3 to 8) (size 9 to 14) (size 15 to 20)
#    0.000    3.000    2.000    0.000    0.000    0.800 
#    0.000    6.000    0.000    1.200    0.000    2.800 
#    0.000    1.600    0.000    7.800    0.000    0.200 
#
# Total GULP energy -495826.332241 kJ/mol
# GULP energy per Si atom -12395.658306 kJ/mol
# Density = 1.762826 g / cm^3
# Si number density = 17.668478 Si / 1000 Ang^3
#
#
#
# Elastic Constant Matrix: (Units=GPa)
#
#
# Indices 1 2 3 4 5 6 
#
# 1 67.6196 56.9385 17.7717 0.0000 0.0000 0.0000
# 2 56.9385 162.7782 61.0877 0.0000 0.0000 0.0000
# 3 17.7717 61.0877 78.7537 0.0000 0.0000 0.0000
# 4 0.0000 0.0000 0.0000 5.7280 0.0000 0.0000
# 5 0.0000 0.0000 0.0000 0.0000 2.5243 0.0000
# 6 0.0000 0.0000 0.0000 0.0000 0.0000 12.9771
#
#
#
# Elastic Compliance Matrix: (Units=1/GPa)
#
#
# Indices 1 2 3 4 5 6 
#
# 1 0.021065 -0.007878 0.001357 0.000000 0.000000 0.000000
# 2 -0.007878 0.011612 -0.007229 0.000000 0.000000 0.000000
# 3 0.001357 -0.007229 0.017999 0.000000 0.000000 0.000000
# 4 0.000000 0.000000 0.000000 0.174582 0.000000 0.000000
# 5 0.000000 0.000000 0.000000 0.000000 0.396154 0.000000
# 6 0.000000 0.000000 0.000000 0.000000 0.000000 0.077059
#
#
# Mechanical properties :
#
#
# Convention : Reuss Voigt Hill
#
# Bulk Modulus (GPa) = 43.14772 64.52748 53.83760
# Shear Modulus (GPa) = 6.81480 15.80277 11.30879
#
# Velocity S-wave (km/s) = 1.96607 2.99390 2.53267
# Velocity P-wave (km/s) = 5.44313 6.96791 6.25218
#
# Compressibility (1/GPa) = 0.02317620
#
# Stress axis : x y z
#
# Youngs Moduli (GPa) = 47.47130 86.11791 55.55749
#
# Poissons Ratio (x) = 0.67841 -0.07539
# Poissons Ratio (y) = 0.37397 0.40165
# Poissons Ratio (z) = -0.06442 0.62259
#
# Static dielectric constant tensor:
#      x y z
#    x 3.133280 0.000000 0.000000 
#    y 0.000000 3.435060 0.000000 
#    z 0.000000 0.000000 3.209000 
# 
# 
# High freq. dielectric constant tensor:
#      x y z
#    x 1.634270 0.000000 0.000000 
#    y 0.000000 1.676720 0.000000 
#    z 0.000000 0.000000 1.675770 
# 
# From -- ./inp_files/11608.got.cif
#   From: 2010.03.12/outbox.cif.g09.slc.cpg/sg65_6_cif.got.tgz:11608.got - 2010.04.10 20:52:16.
