data_PCOD8275248
_publ_section_title
;
Structure prediction by ZEFSAII (Michael W. Deem and Ramdas Pophale) SiO2 
 PCOD8275248
Probable space group: C C C M
;
_chemical_formula_sum "Si O2"
_cell_formula_units_Z 104
_cell_length_a 9.377846
_cell_length_b 28.944554
_cell_length_c 22.566265
_cell_angle_alpha 90.000000
_cell_angle_beta 90.000000
_cell_angle_gamma 90.000000
_cell_volume 6125.332134
_symmetry_space_group_name_H-M "C C C M"
_symmetry_group_IT_number 66
_symmetry_cell_setting 'orthorhombic'
loop_
_space_group_symop_operation_xyz
x,y,z
-x,-y,z
x,-y,1/2-z
-x,y,1/2-z
-x,-y,-z
x,y,-z
-x,y,1/2+z
x,-y,1/2+z
1/2+x,1/2+y,z
1/2-x,1/2-y,z
1/2+x,1/2-y,1/2-z
1/2-x,1/2+y,1/2-z
1/2-x,1/2-y,-z
1/2+x,1/2+y,-z
1/2-x,1/2+y,1/2+z
1/2+x,1/2-y,1/2+z
loop_
_atom_site_type_symbol
_atom_site_label
_atom_site_fract_x
_atom_site_fract_y
_atom_site_fract_z
Si Si1 0.978960 0.948717 0.179764
Si Si2 0.808844 0.127162 0.178989
Si Si3 0.234094 0.383916 0.811092
Si Si4 0.081696 0.742235 0.567270
Si Si5 0.000000 0.272667 0.750000
Si Si6 0.032750 0.662527 0.854531
Si Si7 0.442916 0.304404 0.169717
O O1 0.100103 0.915468 0.152082
O O2 0.000000 0.948208 0.250000
O O3 0.820986 0.928690 0.164256
O O4 0.000000 0.000000 0.153374
O O5 0.731189 0.113271 0.240102
O O6 0.686632 0.139682 0.130584
O O7 0.917891 0.168795 0.193855
O O8 0.307674 0.337262 0.834574
O O9 0.074843 0.379427 0.837013
O O10 0.028101 0.746222 0.500000
O O11 0.250000 0.750000 0.572315
O O12 0.013343 0.783706 0.605485
O O13 0.030860 0.692183 0.591467
O O14 0.075743 0.305388 0.702037
O O15 0.102722 0.238321 0.787446
#
# Coordination Sequence:
#
# PCOD8275248 Si02
#       7
#    16  16  16  16   8  16  16
#     4   8  16  30  48  64  92 131 153 173 223 294
#     4  10  18  29  44  70  98 117 151 198 235 271
#     4  10  16  29  44  69  96 120 157 189 227 278
#     4  10  21  34  46  61  91 131 170 196 219 271
#     4  10  18  24  42  62  94 116 154 186 232 252
#     4  11  20  28  44  69  96 121 156 197 236 262
#     4  10  18  29  45  65  89 125 163 191 225 264
#
# _framework density 16.978672
#
# number of rings (size 3 to 8) (size 9 to 14) (size 15 to 20)
#    0.000    2.154    4.615    0.923    0.000    3.692 
#    0.000    2.308    0.000    3.692    0.000    0.000 
#    0.000   23.385    0.000    0.000    0.000    0.000 
#
# Total GULP energy -644235.927765 kJ/mol
# GULP energy per Si atom -12389.152457 kJ/mol
# Density = 1.694003 g / cm^3
# Si number density = 16.978672 Si / 1000 Ang^3
#
#
#
# Elastic Constant Matrix: (Units=GPa)
#
#
# Indices 1 2 3 4 5 6 
#
# 1 87.7904 38.4101 3.3934 0.0000 0.0000 0.0000
# 2 38.4101 102.3614 16.6426 0.0000 0.0000 0.0000
# 3 3.3934 16.6426 58.2868 0.0000 0.0000 0.0000
# 4 0.0000 0.0000 0.0000 9.6972 0.0000 0.0000
# 5 0.0000 0.0000 0.0000 0.0000 10.8477 0.0000
# 6 0.0000 0.0000 0.0000 0.0000 0.0000 12.8254
#
#
#
# Elastic Compliance Matrix: (Units=1/GPa)
#
#
# Indices 1 2 3 4 5 6 
#
# 1 0.013655 -0.005238 0.000701 0.000000 0.000000 0.000000
# 2 -0.005238 0.012254 -0.003194 0.000000 0.000000 0.000000
# 3 0.000701 -0.003194 0.018028 0.000000 0.000000 0.000000
# 4 0.000000 0.000000 0.000000 0.103122 0.000000 0.000000
# 5 0.000000 0.000000 0.000000 0.000000 0.092185 0.000000
# 6 0.000000 0.000000 0.000000 0.000000 0.000000 0.077970
#
#
# Mechanical properties :
#
#
# Convention : Reuss Voigt Hill
#
# Bulk Modulus (GPa) = 35.11908 40.59233 37.85570
# Shear Modulus (GPa) = 14.61265 19.34023 16.97644
#
# Velocity S-wave (km/s) = 2.93686 3.37870 3.16550
# Velocity P-wave (km/s) = 5.67709 6.25944 5.97536
#
# Compressibility (1/GPa) = 0.02847455
#
# Stress axis : x y z
#
# Youngs Moduli (GPa) = 73.23106 81.60538 55.47015
#
# Poissons Ratio (x) = 0.42745 -0.03886
# Poissons Ratio (y) = 0.38358 0.17717
# Poissons Ratio (z) = -0.05130 0.26064
#
# Static dielectric constant tensor:
#      x y z
#    x 3.130180 0.000000 0.000000 
#    y 0.000000 3.313710 0.000000 
#    z 0.000000 0.000000 2.850740 
# 
# 
# High freq. dielectric constant tensor:
#      x y z
#    x 1.652390 0.000000 0.000000 
#    y 0.000000 1.638550 0.000000 
#    z 0.000000 0.000000 1.598550 
# 
# From -- ./inp_files/55944.got.cif
#   From: 2010.03.12/outbox.cif.g09.slc.cpg/sg66_28_cif.got.tgz:55944.got - 2010.04.10 21:57:39.
