data_PCOD8275252
_publ_section_title
;
Structure prediction by ZEFSAII (Michael W. Deem and Ramdas Pophale) SiO2 
 PCOD8275252
Probable space group: C C C M
;
_chemical_formula_sum "Si O2"
_cell_formula_units_Z 88
_cell_length_a 14.436793
_cell_length_b 13.256521
_cell_length_c 22.049994
_cell_angle_alpha 90.000000
_cell_angle_beta 90.000000
_cell_angle_gamma 90.000000
_cell_volume 4219.964225
_symmetry_space_group_name_H-M "C C C M"
_symmetry_group_IT_number 66
_symmetry_cell_setting 'orthorhombic'
loop_
_space_group_symop_operation_xyz
x,y,z
-x,-y,z
x,-y,1/2-z
-x,y,1/2-z
-x,-y,-z
x,y,-z
-x,y,1/2+z
x,-y,1/2+z
1/2+x,1/2+y,z
1/2-x,1/2-y,z
1/2+x,1/2-y,1/2-z
1/2-x,1/2+y,1/2-z
1/2-x,1/2-y,-z
1/2+x,1/2+y,-z
1/2-x,1/2+y,1/2+z
1/2+x,1/2-y,1/2+z
loop_
_atom_site_type_symbol
_atom_site_label
_atom_site_fract_x
_atom_site_fract_y
_atom_site_fract_z
Si Si1 0.658359 0.969028 0.818563
Si Si2 0.549275 0.860975 0.000000
Si Si3 0.153400 0.364342 0.500000
Si Si4 0.755860 0.054136 0.500000
Si Si5 0.336591 0.188096 0.369661
Si Si6 0.806386 0.848302 0.121150
Si Si7 0.538478 0.210361 0.367753
O O1 0.754948 0.909205 0.825472
O O2 0.575638 0.896092 0.840752
O O3 0.640035 0.000000 0.750000
O O4 0.667854 0.067965 0.859804
O O5 0.545436 0.791744 0.940374
O O6 0.449284 0.921819 0.000000
O O7 0.647103 0.916823 0.000000
O O8 0.244727 0.434261 0.500000
O O9 0.160828 0.292652 0.441486
O O10 0.813010 0.087005 0.440564
O O11 0.250000 0.250000 0.340455
O O12 0.434412 0.227029 0.342264
O O13 0.750000 0.750000 0.101014
O O14 0.903297 0.810456 0.150237
#
# Coordination Sequence:
#
# PCOD8275252 Si02
#       7
#    16   8   8   8  16  16  16
#     4  11  23  39  60  87 116 151 196 244 296 345
#     4  10  16  29  55  92 121 144 186 234 295 347
#     4  10  20  33  55  84 122 161 187 233 290 367
#     4  12  15  29  59  91 119 144 192 235 305 343
#     4  11  23  40  60  84 118 161 196 238 292 355
#     4  10  19  33  58  89 120 147 184 245 295 348
#     4  10  21  37  61  90 120 148 194 245 297 344
#
# _framework density 20.853258
#
# number of rings (size 3 to 8) (size 9 to 14) (size 15 to 20)
#    0.000    1.455    5.455    1.909    0.000    6.545 
#    0.000    0.909    0.000    2.182    0.000    0.000 
#    0.000    0.000    0.000    0.000    0.000    0.000 
#
# Total GULP energy -545146.083101 kJ/mol
# GULP energy per Si atom -12389.683707 kJ/mol
# Density = 2.080579 g / cm^3
# Si number density = 20.853258 Si / 1000 Ang^3
#
#
#
# Elastic Constant Matrix: (Units=GPa)
#
#
# Indices 1 2 3 4 5 6 
#
# 1 171.1174 74.2785 18.9220 0.0000 0.0000 0.0000
# 2 74.2785 63.8515 6.6803 0.0000 0.0000 0.0000
# 3 18.9220 6.6803 71.0677 0.0000 0.0000 0.0000
# 4 0.0000 0.0000 0.0000 9.4257 0.0000 0.0000
# 5 0.0000 0.0000 0.0000 0.0000 5.8390 0.0000
# 6 0.0000 0.0000 0.0000 0.0000 0.0000 34.4513
#
#
#
# Elastic Compliance Matrix: (Units=1/GPa)
#
#
# Indices 1 2 3 4 5 6 
#
# 1 0.012057 -0.013826 -0.001911 0.000000 0.000000 0.000000
# 2 -0.013826 0.031671 0.000704 0.000000 0.000000 0.000000
# 3 -0.001911 0.000704 0.014514 0.000000 0.000000 0.000000
# 4 0.000000 0.000000 0.000000 0.106093 0.000000 0.000000
# 5 0.000000 0.000000 0.000000 0.000000 0.171263 0.000000
# 6 0.000000 0.000000 0.000000 0.000000 0.000000 0.029026
#
#
# Mechanical properties :
#
#
# Convention : Reuss Voigt Hill
#
# Bulk Modulus (GPa) = 35.48981 56.19981 45.84481
# Shear Modulus (GPa) = 12.37381 23.68693 18.03037
#
# Velocity S-wave (km/s) = 2.43857 3.37395 2.94365
# Velocity P-wave (km/s) = 4.99846 6.49513 5.79531
#
# Compressibility (1/GPa) = 0.02817710
#
# Stress axis : x y z
#
# Youngs Moduli (GPa) = 82.94217 31.57466 68.90098
#
# Poissons Ratio (x) = 0.43654 0.13164
# Poissons Ratio (y) = 1.14672 -0.04851
# Poissons Ratio (z) = 0.15846 -0.02223
#
# Static dielectric constant tensor:
#      x y z
#    x 4.229430 0.000000 0.000000 
#    y 0.000000 3.626730 0.000000 
#    z 0.000000 0.000000 3.534900 
# 
# 
# High freq. dielectric constant tensor:
#      x y z
#    x 1.813540 0.000000 0.000000 
#    y 0.000000 1.789330 0.000000 
#    z 0.000000 0.000000 1.797890 
# 
# From -- ./inp_files/58038.got.cif
#   From: 2010.03.12/outbox.cif.g09.slc.cpg/sg66_30_cif.got.tgz:58038.got - 2010.04.10 21:57:39.
