data_PCOD8275235
_publ_section_title
;
Structure prediction by ZEFSAII (Michael W. Deem and Ramdas Pophale) SiO2 
 PCOD8275235
Probable space group: C C C M
;
_chemical_formula_sum "Si O2"
_cell_formula_units_Z 96
_cell_length_a 11.527357
_cell_length_b 24.787380
_cell_length_c 19.471672
_cell_angle_alpha 90.000000
_cell_angle_beta 90.000000
_cell_angle_gamma 90.000000
_cell_volume 5563.698834
_symmetry_space_group_name_H-M "C C C M"
_symmetry_group_IT_number 66
_symmetry_cell_setting 'orthorhombic'
loop_
_space_group_symop_operation_xyz
x,y,z
-x,-y,z
x,-y,1/2-z
-x,y,1/2-z
-x,-y,-z
x,y,-z
-x,y,1/2+z
x,-y,1/2+z
1/2+x,1/2+y,z
1/2-x,1/2-y,z
1/2+x,1/2-y,1/2-z
1/2-x,1/2+y,1/2-z
1/2-x,1/2-y,-z
1/2+x,1/2+y,-z
1/2-x,1/2+y,1/2+z
1/2+x,1/2-y,1/2+z
loop_
_atom_site_type_symbol
_atom_site_label
_atom_site_fract_x
_atom_site_fract_y
_atom_site_fract_z
Si Si1 0.002649 0.139804 0.829397
Si Si2 0.790239 0.927458 0.815611
Si Si3 0.029741 0.437791 0.172547
Si Si4 0.340960 0.902546 0.922421
Si Si5 0.333570 0.454191 0.665964
Si Si6 0.322818 0.698711 0.078977
O O1 0.947220 0.081500 0.845461
O O2 0.939967 0.185670 0.876199
O O3 0.000000 0.158105 0.750000
O O4 0.138663 0.125124 0.843883
O O5 0.662964 0.926919 0.847888
O O6 0.772174 0.928310 0.733265
O O7 0.862821 0.982549 0.830126
O O8 0.000000 0.500000 0.159200
O O9 0.000000 0.421138 0.250000
O O10 0.957697 0.399374 0.121965
O O11 0.257777 0.950154 0.896178
O O12 0.269729 0.848074 0.913826
O O13 0.377143 0.914274 0.000000
O O14 0.250000 0.750000 0.106590
O O15 0.363230 0.707131 0.000000
#
# Coordination Sequence:
#
# PCOD8275235 Si02
#       6
#    16  16  16  16  16  16
#     4   9  18  29  52  79 104 123 162 216 260 294
#     4  10  16  27  47  72 104 137 168 198 243 298
#     4  11  18  30  47  70 104 145 178 195 232 304
#     4  10  19  31  48  72  96 127 173 213 242 287
#     4   9  15  29  45  70 100 137 168 196 237 301
#     4   9  19  38  60  73  92 131 175 211 251 312
#
# _framework density 17.254708000000001
#
# number of rings (size 3 to 8) (size 9 to 14) (size 15 to 20)
#    0.000    2.333    3.333    1.500    0.000    2.333 
#    0.000    2.500    0.000    4.000    0.000    3.500 
#    0.000    0.000    0.000    0.000    0.000    0.000 
#
# Total GULP energy -594628.804851 kJ/mol
# GULP energy per Si atom -12388.100101 kJ/mol
# Density = 1.721544 g / cm^3
# Si number density = 17.254708 Si / 1000 Ang^3
#
#
#
# Elastic Constant Matrix: (Units=GPa)
#
#
# Indices 1 2 3 4 5 6 
#
# 1 104.7763 33.4171 46.8838 0.0000 0.0000 0.0000
# 2 33.4171 50.4321 33.3621 0.0000 0.0000 0.0000
# 3 46.8838 33.3621 86.0643 0.0000 0.0000 0.0000
# 4 0.0000 0.0000 0.0000 20.1785 0.0000 0.0000
# 5 0.0000 0.0000 0.0000 0.0000 29.7290 0.0000
# 6 0.0000 0.0000 0.0000 0.0000 0.0000 25.4482
#
#
#
# Elastic Compliance Matrix: (Units=1/GPa)
#
#
# Indices 1 2 3 4 5 6 
#
# 1 0.013691 -0.005565 -0.005301 0.000000 0.000000 0.000000
# 2 -0.005565 0.028929 -0.008182 0.000000 0.000000 0.000000
# 3 -0.005301 -0.008182 0.017679 0.000000 0.000000 0.000000
# 4 0.000000 0.000000 0.000000 0.049558 0.000000 0.000000
# 5 0.000000 0.000000 0.000000 0.000000 0.033637 0.000000
# 6 0.000000 0.000000 0.000000 0.000000 0.000000 0.039296
#
#
# Mechanical properties :
#
#
# Convention : Reuss Voigt Hill
#
# Bulk Modulus (GPa) = 45.04149 52.06650 48.55399
# Shear Modulus (GPa) = 21.90223 23.57845 22.74034
#
# Velocity S-wave (km/s) = 3.56666 3.70062 3.63426
# Velocity P-wave (km/s) = 6.56673 6.96421 6.76839
#
# Compressibility (1/GPa) = 0.02220175
#
# Stress axis : x y z
#
# Youngs Moduli (GPa) = 73.04014 34.56726 56.56494
#
# Poissons Ratio (x) = 0.19237 0.29985
# Poissons Ratio (y) = 0.40648 0.46284
# Poissons Ratio (z) = 0.38718 0.28284
#
# Static dielectric constant tensor:
#      x y z
#    x 3.337370 0.000000 0.000000 
#    y 0.000000 2.993360 0.000000 
#    z 0.000000 0.000000 3.231540 
# 
# 
# High freq. dielectric constant tensor:
#      x y z
#    x 1.670700 0.000000 0.000000 
#    y 0.000000 1.629590 0.000000 
#    z 0.000000 0.000000 1.647640 
# 
# From -- ./inp_files/44225.got.cif
#   From: 2010.03.12/outbox.cif.g09.slc.cpg/sg66_23_cif.got.tgz:44225.got - 2010.04.10 21:57:39.
