data_PCOD8275017
_publ_section_title
;
Structure prediction by ZEFSAII (Michael W. Deem and Ramdas Pophale) SiO2 
 PCOD8275017
Probable space group: C M M M
;
_chemical_formula_sum "Si O2"
_cell_formula_units_Z 80
_cell_length_a 23.605281
_cell_length_b 17.783318
_cell_length_c 13.903368
_cell_angle_alpha 90.000000
_cell_angle_beta 90.000000
_cell_angle_gamma 90.000000
_cell_volume 5836.358857
_symmetry_space_group_name_H-M "C M M M"
_symmetry_group_IT_number 65
_symmetry_cell_setting 'orthorhombic'
loop_
_space_group_symop_operation_xyz
x,y,z
-x,-y,z
x,-y,-z
-x,y,-z
-x,-y,-z
x,y,-z
-x,y,z
x,-y,z
1/2+x,1/2+y,z
1/2-x,1/2-y,z
1/2+x,1/2-y,-z
1/2-x,1/2+y,-z
1/2-x,1/2-y,-z
1/2+x,1/2+y,-z
1/2-x,1/2+y,z
1/2+x,1/2-y,z
loop_
_atom_site_type_symbol
_atom_site_label
_atom_site_fract_x
_atom_site_fract_y
_atom_site_fract_z
Si Si1 0.194926 0.199057 0.394334
Si Si2 0.936225 0.588217 0.229997
Si Si3 0.667972 0.910964 0.893875
Si Si4 0.737811 0.087530 0.285269
Si Si5 0.366728 0.156120 0.387806
O O1 0.182635 0.163634 0.500000
O O2 0.250000 0.250000 0.401611
O O3 0.205546 0.133084 0.316363
O O4 0.144389 0.255440 0.363691
O O5 0.928848 0.500000 0.249298
O O6 0.893039 0.615695 0.146947
O O7 0.922073 0.630914 0.329235
O O8 0.000000 0.608174 0.197759
O O9 0.718256 0.885895 0.821600
O O10 0.667747 0.000000 0.901170
O O11 0.677557 0.875423 0.000000
O O12 0.686651 0.104054 0.358703
O O13 0.753003 0.000000 0.287516
O O14 0.378425 0.144307 0.500000
#
# Coordination Sequence:
#
# PCOD8275017 Si02
#       5
#    16  16  16  16  16
#     4   8  14  23  34  48  67  93 118 137 165 207
#     4   9  17  26  36  52  69  87 117 152 179 201
#     4   8  14  24  36  50  69  92 117 144 174 208
#     4   9  15  22  35  53  69  87 115 148 173 195
#     4   9  16  25  35  47  69  98 117 134 169 212
#
# _framework density 13.707177
#
# number of rings (size 3 to 8) (size 9 to 14) (size 15 to 20)
#    0.000    3.400    0.000    3.600    0.000    3.600 
#    0.000    3.000    0.000   15.000    0.000    0.000 
#    0.000    0.800    0.000    4.400    0.000    0.200 
#
# Total GULP energy -495615.247656 kJ/mol
# GULP energy per Si atom -12390.381191 kJ/mol
# Density = 1.367598 g / cm^3
# Si number density = 13.707177 Si / 1000 Ang^3
#
#
#
# Elastic Constant Matrix: (Units=GPa)
#
#
# Indices 1 2 3 4 5 6 
#
# 1 29.3684 22.0064 26.8330 0.0000 0.0000 0.0000
# 2 22.0064 48.4304 35.9053 0.0000 0.0000 0.0000
# 3 26.8330 35.9053 108.0829 0.0000 0.0000 0.0000
# 4 0.0000 0.0000 0.0000 9.6189 0.0000 0.0000
# 5 0.0000 0.0000 0.0000 0.0000 11.2792 0.0000
# 6 0.0000 0.0000 0.0000 0.0000 0.0000 17.9249
#
#
#
# Elastic Compliance Matrix: (Units=1/GPa)
#
#
# Indices 1 2 3 4 5 6 
#
# 1 0.055522 -0.019914 -0.007169 0.000000 0.000000 0.000000
# 2 -0.019914 0.034538 -0.006530 0.000000 0.000000 0.000000
# 3 -0.007169 -0.006530 0.013201 0.000000 0.000000 0.000000
# 4 0.000000 0.000000 0.000000 0.103962 0.000000 0.000000
# 5 0.000000 0.000000 0.000000 0.000000 0.088659 0.000000
# 6 0.000000 0.000000 0.000000 0.000000 0.000000 0.055788
#
#
# Mechanical properties :
#
#
# Convention : Reuss Voigt Hill
#
# Bulk Modulus (GPa) = 27.74981 39.48570 33.61776
# Shear Modulus (GPa) = 11.60344 14.50707 13.05525
#
# Velocity S-wave (km/s) = 2.91266 3.25677 3.08951
# Velocity P-wave (km/s) = 5.62140 6.55829 6.10784
#
# Compressibility (1/GPa) = 0.03603628
#
# Stress axis : x y z
#
# Youngs Moduli (GPa) = 18.01088 28.95364 75.75191
#
# Poissons Ratio (x) = 0.57659 0.54303
# Poissons Ratio (y) = 0.35867 0.49463
# Poissons Ratio (z) = 0.12911 0.18906
#
# Static dielectric constant tensor:
#      x y z
#    x 2.550890 0.000000 0.000000 
#    y 0.000000 2.696350 0.000000 
#    z 0.000000 0.000000 3.008960 
# 
# 
# High freq. dielectric constant tensor:
#      x y z
#    x 1.480760 0.000000 0.000000 
#    y 0.000000 1.492190 0.000000 
#    z 0.000000 0.000000 1.526080 
# 
# From -- ./inp_files/42617.got.cif
#   From: 2010.03.12/outbox.cif.g09.slc.cpg/sg65_22_cif.got.tgz:42617.got - 2010.04.10 20:52:16.
