data_PCOD8275699
_publ_section_title
;
Structure prediction by ZEFSAII (Michael W. Deem and Ramdas Pophale) SiO2 
 PCOD8275699
Probable space group: C C C M
;
_chemical_formula_sum "Si O2"
_cell_formula_units_Z 56
_cell_length_a 21.424963
_cell_length_b 9.562327
_cell_length_c 14.364662
_cell_angle_alpha 90.000000
_cell_angle_beta 90.000000
_cell_angle_gamma 90.000000
_cell_volume 2942.924247
_symmetry_space_group_name_H-M "C C C M"
_symmetry_group_IT_number 66
_symmetry_cell_setting 'orthorhombic'
loop_
_space_group_symop_operation_xyz
x,y,z
-x,-y,z
x,-y,1/2-z
-x,y,1/2-z
-x,-y,-z
x,y,-z
-x,y,1/2+z
x,-y,1/2+z
1/2+x,1/2+y,z
1/2-x,1/2-y,z
1/2+x,1/2-y,1/2-z
1/2-x,1/2+y,1/2-z
1/2-x,1/2-y,-z
1/2+x,1/2+y,-z
1/2-x,1/2+y,1/2+z
1/2+x,1/2-y,1/2+z
loop_
_atom_site_type_symbol
_atom_site_label
_atom_site_fract_x
_atom_site_fract_y
_atom_site_fract_z
Si Si1 0.153117 0.002039 0.500000
Si Si2 0.924372 0.721613 0.000000
Si Si3 0.737219 0.101153 0.896473
Si Si4 0.431905 0.228252 0.500000
Si Si5 0.109055 0.505491 0.853861
O O1 0.198071 0.014169 0.591790
O O2 0.103882 0.126356 0.500000
O O3 0.119676 0.855186 0.500000
O O4 0.910273 0.633967 0.092568
O O5 0.995615 0.768580 0.000000
O O6 0.750000 0.250000 0.845558
O O7 0.684564 0.012585 0.843886
O O8 0.708824 0.135986 0.000000
O O9 0.417286 0.141107 0.593299
O O10 0.080611 0.500000 0.750000
#
# Coordination Sequence:
#
# PCOD8275699 Si02
#       5
#     8   8  16   8  16
#     4  10  18  38  62  83 116 149 186 233 284 345
#     4  11  24  36  57  90 109 150 194 243 265 321
#     4   9  15  35  62  77 113 151 176 226 295 335
#     4  11  20  41  61  75 120 158 186 223 292 331
#     4  11  21  38  61  86 110 148 194 232 279 338
#
# _framework density 19.028691999999999
#
# number of rings (size 3 to 8) (size 9 to 14) (size 15 to 20)
#    0.857    0.857    5.714    2.143    0.000    4.571 
#    5.143    1.429    0.000    3.429    0.000    0.000 
#    0.000    0.000    0.000    0.000    0.000    0.000 
#
# Total GULP energy -347014.552248 kJ/mol
# GULP energy per Si atom -12393.376866 kJ/mol
# Density = 1.898538 g / cm^3
# Si number density = 19.028692 Si / 1000 Ang^3
#
#
#
# Elastic Constant Matrix: (Units=GPa)
#
#
# Indices 1 2 3 4 5 6 
#
# 1 124.4009 28.5581 13.2965 0.0000 0.0000 0.0000
# 2 28.5581 78.3367 24.0318 0.0000 0.0000 0.0000
# 3 13.2965 24.0318 105.7855 0.0000 0.0000 0.0000
# 4 0.0000 0.0000 0.0000 4.9400 0.0000 0.0000
# 5 0.0000 0.0000 0.0000 0.0000 -19.6735 0.0000
# 6 0.0000 0.0000 0.0000 0.0000 0.0000 16.8829
#
#
#
# Elastic Compliance Matrix: (Units=1/GPa)
#
#
# Indices 1 2 3 4 5 6 
#
# 1 0.008789 -0.003080 -0.000405 0.000000 0.000000 0.000000
# 2 -0.003080 0.014801 -0.002975 0.000000 0.000000 0.000000
# 3 -0.000405 -0.002975 0.010180 0.000000 0.000000 0.000000
# 4 0.000000 0.000000 0.000000 0.202428 0.000000 0.000000
# 5 0.000000 0.000000 0.000000 0.000000 -0.050830 0.000000
# 6 0.000000 0.000000 0.000000 0.000000 0.000000 0.059232
#
#
# Mechanical properties :
#
#
# Convention : Reuss Voigt Hill
#
# Bulk Modulus (GPa) = 47.96289 48.92175 48.44232
# Shear Modulus (GPa) = 18.90576 16.60566 17.75571
#
# Velocity S-wave (km/s) = 3.15547 2.95729 3.05799
# Velocity P-wave (km/s) = 6.20776 6.11768 6.16288
#
# Compressibility (1/GPa) = 0.02084945
#
# Stress axis : x y z
#
# Youngs Moduli (GPa) = 113.78084 67.56343 98.23262
#
# Poissons Ratio (x) = 0.20808 0.03979
# Poissons Ratio (y) = 0.35042 0.29227
# Poissons Ratio (z) = 0.04609 0.20102
#
# Static dielectric constant tensor:
#      x y z
#    x 3.672000 0.000000 0.000000 
#    y 0.000000 3.344950 0.000000 
#    z 0.000000 0.000000 3.128090 
# 
# 
# High freq. dielectric constant tensor:
#      x y z
#    x 1.755650 0.000000 0.000000 
#    y 0.000000 1.727140 0.000000 
#    z 0.000000 0.000000 1.703660 
# 
# From -- ./inp_files/31853.got.cif
#   From: 2010.03.12/outbox.cif.g09.slc.cpg/sg66_16_cif.got.tgz:31853.got - 2010.04.10 21:57:39.
