data_PCOD8275072
_publ_section_title
;
Structure prediction by ZEFSAII (Michael W. Deem and Ramdas Pophale) SiO2 
 PCOD8275072
Probable space group: C M M M
;
_chemical_formula_sum "Si O2"
_cell_formula_units_Z 88
_cell_length_a 30.249395
_cell_length_b 9.126511
_cell_length_c 17.610089
_cell_angle_alpha 90.000000
_cell_angle_beta 90.000000
_cell_angle_gamma 90.000000
_cell_volume 4861.642562
_symmetry_space_group_name_H-M "C M M M"
_symmetry_group_IT_number 65
_symmetry_cell_setting 'orthorhombic'
loop_
_space_group_symop_operation_xyz
x,y,z
-x,-y,z
x,-y,-z
-x,y,-z
-x,-y,-z
x,y,-z
-x,y,z
x,-y,z
1/2+x,1/2+y,z
1/2-x,1/2-y,z
1/2+x,1/2-y,-z
1/2-x,1/2+y,-z
1/2-x,1/2-y,-z
1/2+x,1/2+y,-z
1/2-x,1/2+y,z
1/2+x,1/2-y,z
loop_
_atom_site_type_symbol
_atom_site_label
_atom_site_fract_x
_atom_site_fract_y
_atom_site_fract_z
Si Si1 0.950922 0.173982 0.084234
Si Si2 0.620406 0.672497 0.798114
Si Si3 0.292672 0.834954 0.619991
Si Si4 0.450354 0.673236 0.500000
Si Si5 0.207890 0.664588 0.800440
Si Si6 0.618935 0.328006 0.376054
O O1 0.918542 0.235305 0.148897
O O2 0.000000 0.235849 0.100407
O O3 0.951920 0.000000 0.088471
O O4 0.935199 0.223566 0.000000
O O5 0.627673 0.500000 0.807746
O O6 0.664325 0.751500 0.827306
O O7 0.608721 0.712254 0.711250
O O8 0.250000 0.750000 0.586666
O O9 0.289829 0.836817 0.710149
O O10 0.337447 0.754346 0.593734
O O11 0.292857 0.000000 0.587535
O O12 0.454894 0.500000 0.500000
O O13 0.500000 0.742499 0.500000
O O14 0.423348 0.723742 0.425176
O O15 0.207597 0.500000 0.832969
O O16 0.250000 0.750000 0.834235
O O17 0.628011 0.500000 0.386185
#
# Coordination Sequence:
#
# PCOD8275072 Si02
#       6
#    16  16  16   8  16  16
#     4   8  14  25  42  66  94 119 144 180 226 269
#     4   9  16  26  44  69  92 116 149 186 220 259
#     4   9  16  27  45  68  93 119 147 181 223 268
#     4   9  18  32  48  65  88 119 152 189 230 263
#     4   9  16  26  42  65  93 122 150 182 220 262
#     4   9  17  29  45  66  91 118 151 187 221 261
#
# _framework density 18.100878999999999
#
# number of rings (size 3 to 8) (size 9 to 14) (size 15 to 20)
#    0.000    3.182    0.000    1.636    0.000    5.091 
#    0.000    4.545    0.000    2.727    0.000    6.364 
#    0.000    0.000    0.000    0.000    0.000    0.000 
#
# Total GULP energy -545411.699133 kJ/mol
# GULP energy per Si atom -12395.720435 kJ/mol
# Density = 1.805968 g / cm^3
# Si number density = 18.100879 Si / 1000 Ang^3
#
#
#
# Elastic Constant Matrix: (Units=GPa)
#
#
# Indices 1 2 3 4 5 6 
#
# 1 185.3457 55.2705 75.0394 0.0000 0.0000 0.0000
# 2 55.2705 66.6680 26.1242 0.0000 0.0000 0.0000
# 3 75.0394 26.1242 79.9867 0.0000 0.0000 0.0000
# 4 0.0000 0.0000 0.0000 5.6191 0.0000 0.0000
# 5 0.0000 0.0000 0.0000 0.0000 2.7880 0.0000
# 6 0.0000 0.0000 0.0000 0.0000 0.0000 23.8274
#
#
#
# Elastic Compliance Matrix: (Units=1/GPa)
#
#
# Indices 1 2 3 4 5 6 
#
# 1 0.010135 -0.005363 -0.007756 0.000000 0.000000 0.000000
# 2 -0.005363 0.020039 -0.001514 0.000000 0.000000 0.000000
# 3 -0.007756 -0.001514 0.020273 0.000000 0.000000 0.000000
# 4 0.000000 0.000000 0.000000 0.177965 0.000000 0.000000
# 5 0.000000 0.000000 0.000000 0.000000 0.358686 0.000000
# 6 0.000000 0.000000 0.000000 0.000000 0.000000 0.041968
#
#
# Mechanical properties :
#
#
# Convention : Reuss Voigt Hill
#
# Bulk Modulus (GPa) = 47.21236 71.65208 59.43222
# Shear Modulus (GPa) = 7.51436 18.15131 12.83284
#
# Velocity S-wave (km/s) = 2.03970 3.17012 2.66552
# Velocity P-wave (km/s) = 5.62910 7.28494 6.50988
#
# Compressibility (1/GPa) = 0.02118089
#
# Stress axis : x y z
#
# Youngs Moduli (GPa) = 98.66998 49.90319 49.32630
#
# Poissons Ratio (x) = 0.26762 0.38260
# Poissons Ratio (y) = 0.52914 0.07467
# Poissons Ratio (z) = 0.76533 0.07554
#
# Static dielectric constant tensor:
#      x y z
#    x 3.629540 0.000000 0.000000 
#    y 0.000000 3.158930 0.000000 
#    z 0.000000 0.000000 3.174530 
# 
# 
# High freq. dielectric constant tensor:
#      x y z
#    x 1.707890 0.000000 0.000000 
#    y 0.000000 1.672180 0.000000 
#    z 0.000000 0.000000 1.673320 
# 
# From -- ./inp_files/58020.got.cif
#   From: 2010.03.12/outbox.cif.g09.slc.cpg/sg65_30_cif.got.tgz:58020.got - 2010.04.10 20:52:16.
