data_PCOD8275693
_publ_section_title
;
Structure prediction by ZEFSAII (Michael W. Deem and Ramdas Pophale) SiO2 
 PCOD8275693
Probable space group: C C C M
;
_chemical_formula_sum "Si O2"
_cell_formula_units_Z 64
_cell_length_a 27.621906
_cell_length_b 9.174461
_cell_length_c 14.088766
_cell_angle_alpha 90.000000
_cell_angle_beta 90.000000
_cell_angle_gamma 90.000000
_cell_volume 3570.320124
_symmetry_space_group_name_H-M "C C C M"
_symmetry_group_IT_number 66
_symmetry_cell_setting 'orthorhombic'
loop_
_space_group_symop_operation_xyz
x,y,z
-x,-y,z
x,-y,1/2-z
-x,y,1/2-z
-x,-y,-z
x,y,-z
-x,y,1/2+z
x,-y,1/2+z
1/2+x,1/2+y,z
1/2-x,1/2-y,z
1/2+x,1/2-y,1/2-z
1/2-x,1/2+y,1/2-z
1/2-x,1/2-y,-z
1/2+x,1/2+y,-z
1/2-x,1/2+y,1/2+z
1/2+x,1/2-y,1/2+z
loop_
_atom_site_type_symbol
_atom_site_label
_atom_site_fract_x
_atom_site_fract_y
_atom_site_fract_z
Si Si1 0.348615 0.971301 0.000000
Si Si2 0.894365 0.191053 0.000000
Si Si3 0.391628 0.288843 0.000000
Si Si4 0.732847 0.918120 0.348717
Si Si5 0.806096 0.998296 0.500000
Si Si6 0.942994 0.988999 0.858662
O O1 0.317289 0.939735 0.094323
O O2 0.378587 0.120764 0.000000
O O3 0.395005 0.864373 0.000000
O O4 0.837671 0.148156 0.000000
O O5 0.920172 0.130439 0.906774
O O6 0.339190 0.360923 0.000000
O O7 0.421963 0.341133 0.906969
O O8 0.750000 0.750000 0.336856
O O9 0.773900 0.003876 0.405945
O O10 0.726190 0.000000 0.250000
O O11 0.927290 0.000000 0.750000
O O12 0.000000 0.000000 0.872503
#
# Coordination Sequence:
#
# PCOD8275693 Si02
#       6
#     8   8   8  16   8  16
#     4  11  23  40  50  82 120 143 184 239 270 320
#     4  10  18  36  59  78 111 148 175 227 282 322
#     4  10  22  34  59  84 109 144 186 222 274 328
#     4  11  23  37  56  77 111 152 193 229 278 318
#     4   9  19  38  56  72 110 145 189 225 272 323
#     4   9  19  38  62  85 108 139 182 223 271 342
#
# _framework density 17.925564000000001
#
# number of rings (size 3 to 8) (size 9 to 14) (size 15 to 20)
#    0.000    2.250    2.500    2.250    3.500    7.000 
#    0.000    2.500    0.000    3.000    0.000    0.000 
#    0.000    0.000    0.000    0.000    0.000    0.000 
#
# Total GULP energy -396565.969925 kJ/mol
# GULP energy per Si atom -12392.686560 kJ/mol
# Density = 1.788476 g / cm^3
# Si number density = 17.925564 Si / 1000 Ang^3
#
#
#
# Elastic Constant Matrix: (Units=GPa)
#
#
# Indices 1 2 3 4 5 6 
#
# 1 94.2172 57.7641 63.2382 0.0000 0.0000 0.0000
# 2 57.7641 160.3490 66.6015 0.0000 0.0000 0.0000
# 3 63.2382 66.6015 176.0759 0.0000 0.0000 0.0000
# 4 0.0000 0.0000 0.0000 5.0536 0.0000 0.0000
# 5 0.0000 0.0000 0.0000 0.0000 8.4281 0.0000
# 6 0.0000 0.0000 0.0000 0.0000 0.0000 15.1840
#
#
#
# Elastic Compliance Matrix: (Units=1/GPa)
#
#
# Indices 1 2 3 4 5 6 
#
# 1 0.015865 -0.003973 -0.004195 0.000000 0.000000 0.000000
# 2 -0.003973 0.008394 -0.001748 0.000000 0.000000 0.000000
# 3 -0.004195 -0.001748 0.007847 0.000000 0.000000 0.000000
# 4 0.000000 0.000000 0.000000 0.197879 0.000000 0.000000
# 5 0.000000 0.000000 0.000000 0.000000 0.118651 0.000000
# 6 0.000000 0.000000 0.000000 0.000000 0.000000 0.065859
#
#
# Mechanical properties :
#
#
# Convention : Reuss Voigt Hill
#
# Bulk Modulus (GPa) = 81.47377 89.53885 85.50631
# Shear Modulus (GPa) = 11.40460 21.93569 16.67014
#
# Velocity S-wave (km/s) = 2.52508 3.50195 3.05284
# Velocity P-wave (km/s) = 7.35195 8.14926 7.76085
#
# Compressibility (1/GPa) = 0.01227389
#
# Stress axis : x y z
#
# Youngs Moduli (GPa) = 63.03026 119.13801 127.43120
#
# Poissons Ratio (x) = 0.47331 0.53462
# Poissons Ratio (y) = 0.25041 0.22276
# Poissons Ratio (z) = 0.26444 0.20826
#
# Static dielectric constant tensor:
#      x y z
#    x 3.368750 0.000000 0.000000 
#    y 0.000000 3.264660 0.000000 
#    z 0.000000 0.000000 3.396230 
# 
# 
# High freq. dielectric constant tensor:
#      x y z
#    x 1.698980 0.000000 0.000000 
#    y 0.000000 1.684040 0.000000 
#    z 0.000000 0.000000 1.700750 
# 
# From -- ./inp_files/33602.got.cif
#   From: 2010.03.12/outbox.cif.g09.slc.cpg/sg66_17_cif.got.tgz:33602.got - 2010.04.10 21:57:39.
