data_PCOD8275659
_publ_section_title
;
Structure prediction by ZEFSAII (Michael W. Deem and Ramdas Pophale) SiO2 
 PCOD8275659
Probable space group: C C C M
;
_chemical_formula_sum "Si O2"
_cell_formula_units_Z 104
_cell_length_a 15.336443
_cell_length_b 16.183476
_cell_length_c 20.627109
_cell_angle_alpha 90.000000
_cell_angle_beta 90.000000
_cell_angle_gamma 90.000000
_cell_volume 5119.585690
_symmetry_space_group_name_H-M "C C C M"
_symmetry_group_IT_number 66
_symmetry_cell_setting 'orthorhombic'
loop_
_space_group_symop_operation_xyz
x,y,z
-x,-y,z
x,-y,1/2-z
-x,y,1/2-z
-x,-y,-z
x,y,-z
-x,y,1/2+z
x,-y,1/2+z
1/2+x,1/2+y,z
1/2-x,1/2-y,z
1/2+x,1/2-y,1/2-z
1/2-x,1/2+y,1/2-z
1/2-x,1/2-y,-z
1/2+x,1/2+y,-z
1/2-x,1/2+y,1/2+z
1/2+x,1/2-y,1/2+z
loop_
_atom_site_type_symbol
_atom_site_label
_atom_site_fract_x
_atom_site_fract_y
_atom_site_fract_z
Si Si1 0.303212 0.075583 0.925791
Si Si2 0.701075 0.575945 0.429517
Si Si3 0.883697 0.842163 0.074748
Si Si4 0.463971 0.416212 0.343321
Si Si5 0.250000 0.750000 0.106195
Si Si6 0.089810 0.311557 0.839641
Si Si7 0.908537 0.257572 0.801455
O O1 0.208423 0.114845 0.913939
O O2 0.372389 0.103826 0.870600
O O3 0.287333 0.977983 0.913260
O O4 0.336012 0.092921 0.000000
O O5 0.665105 0.547137 0.500000
O O6 0.627094 0.561260 0.376816
O O7 0.729615 0.670939 0.437057
O O8 0.876823 0.754513 0.109000
O O9 0.963945 0.893880 0.103311
O O10 0.904204 0.826607 0.000000
O O11 0.500000 0.500000 0.307428
O O12 0.444572 0.337883 0.295966
O O13 0.168835 0.729337 0.150405
O O14 0.125997 0.288993 0.768109
O O15 0.985442 0.314601 0.830999
#
# Coordination Sequence:
#
# PCOD8275659 Si02
#       7
#    16  16  16  16   8  16  16
#     4  10  20  33  56  89 120 148 191 241 294 358
#     4  10  20  35  58  89 120 156 195 244 299 356
#     4  10  19  30  53  87 120 156 188 227 299 367
#     4  10  18  34  58  85 123 155 190 242 295 360
#     4  10  21  40  60  78 115 158 204 244 282 364
#     4  10  20  38  55  79 116 154 191 249 289 345
#     4   9  22  38  59  80 109 162 204 237 294 353
#
# _framework density 20.314143999999999
#
# number of rings (size 3 to 8) (size 9 to 14) (size 15 to 20)
#    0.000    2.154    1.538    1.615    2.154    1.846 
#    0.000   10.000    0.000    3.692    0.000    0.000 
#    0.000    0.000    0.000    0.000    0.000    0.000 
#
# Total GULP energy -644320.745020 kJ/mol
# GULP energy per Si atom -12390.783558 kJ/mol
# Density = 2.026791 g / cm^3
# Si number density = 20.314144 Si / 1000 Ang^3
#
#
#
# Elastic Constant Matrix: (Units=GPa)
#
#
# Indices 1 2 3 4 5 6 
#
# 1 68.4815 30.4577 38.3946 0.0000 0.0000 0.0000
# 2 30.4577 89.0303 35.8311 0.0000 0.0000 0.0000
# 3 38.3946 35.8311 113.3766 0.0000 0.0000 0.0000
# 4 0.0000 0.0000 0.0000 50.4092 0.0000 0.0000
# 5 0.0000 0.0000 0.0000 0.0000 22.7323 0.0000
# 6 0.0000 0.0000 0.0000 0.0000 0.0000 32.4969
#
#
#
# Elastic Compliance Matrix: (Units=1/GPa)
#
#
# Indices 1 2 3 4 5 6 
#
# 1 0.019547 -0.004609 -0.005163 0.000000 0.000000 0.000000
# 2 -0.004609 0.013956 -0.002850 0.000000 0.000000 0.000000
# 3 -0.005163 -0.002850 0.011469 0.000000 0.000000 0.000000
# 4 0.000000 0.000000 0.000000 0.019838 0.000000 0.000000
# 5 0.000000 0.000000 0.000000 0.000000 0.043990 0.000000
# 6 0.000000 0.000000 0.000000 0.000000 0.000000 0.030772
#
#
# Mechanical properties :
#
#
# Convention : Reuss Voigt Hill
#
# Bulk Modulus (GPa) = 50.68810 53.36170 52.02490
# Shear Modulus (GPa) = 29.17291 32.20802 30.69047
#
# Velocity S-wave (km/s) = 3.79369 3.98615 3.89111
# Velocity P-wave (km/s) = 6.64799 6.89283 6.77152
#
# Compressibility (1/GPa) = 0.01972850
#
# Stress axis : x y z
#
# Youngs Moduli (GPa) = 51.15849 71.65443 87.19060
#
# Poissons Ratio (x) = 0.33028 0.45015
# Poissons Ratio (y) = 0.23581 0.24846
# Poissons Ratio (z) = 0.26412 0.20419
#
# Static dielectric constant tensor:
#      x y z
#    x 3.278780 0.000000 0.000000 
#    y 0.000000 3.907760 0.000000 
#    z 0.000000 0.000000 3.586370 
# 
# 
# High freq. dielectric constant tensor:
#      x y z
#    x 1.784450 0.000000 0.000000 
#    y 0.000000 1.789600 0.000000 
#    z 0.000000 0.000000 1.792680 
# 
# From -- ./inp_files/51119.got.cif
#   From: 2010.03.12/outbox.cif.g09.slc.cpg/sg66_26_cif.got.tgz:51119.got - 2010.04.10 21:57:39.
