data_PCOD8275718
_publ_section_title
;
Structure prediction by ZEFSAII (Michael W. Deem and Ramdas Pophale) SiO2 
 PCOD8275718
Probable space group: C C C M
;
_chemical_formula_sum "Si O2"
_cell_formula_units_Z 96
_cell_length_a 31.142578
_cell_length_b 20.970806
_cell_length_c 8.711232
_cell_angle_alpha 90.000000
_cell_angle_beta 90.000000
_cell_angle_gamma 90.000000
_cell_volume 5689.174616
_symmetry_space_group_name_H-M "C C C M"
_symmetry_group_IT_number 66
_symmetry_cell_setting 'orthorhombic'
loop_
_space_group_symop_operation_xyz
x,y,z
-x,-y,z
x,-y,1/2-z
-x,y,1/2-z
-x,-y,-z
x,y,-z
-x,y,1/2+z
x,-y,1/2+z
1/2+x,1/2+y,z
1/2-x,1/2-y,z
1/2+x,1/2-y,1/2-z
1/2-x,1/2+y,1/2-z
1/2-x,1/2-y,-z
1/2+x,1/2+y,-z
1/2-x,1/2+y,1/2+z
1/2+x,1/2-y,1/2+z
loop_
_atom_site_type_symbol
_atom_site_label
_atom_site_fract_x
_atom_site_fract_y
_atom_site_fract_z
Si Si1 0.251000 0.435481 0.680707
Si Si2 0.366596 0.263170 0.673112
Si Si3 0.346626 0.591952 0.826175
Si Si4 0.543376 0.303223 0.817302
Si Si5 0.932943 0.935325 0.179397
Si Si6 0.215854 0.302081 0.684134
O O1 0.230297 0.500000 0.750000
O O2 0.245677 0.436893 0.500000
O O3 0.300788 0.433503 0.729059
O O4 0.227281 0.372577 0.746199
O O5 0.374020 0.240694 0.500000
O O6 0.344522 0.331937 0.679260
O O7 0.414421 0.265937 0.749434
O O8 0.332047 0.214942 0.749550
O O9 0.381749 0.564654 0.709407
O O10 0.358044 0.570010 0.000000
O O11 0.500000 0.271300 0.750000
O O12 0.544923 0.376499 0.765184
O O13 0.542970 0.301376 0.000000
O O14 0.952858 0.000000 0.250000
O O15 0.942675 0.930865 0.000000
O O16 0.215915 0.299696 0.500000
O O17 0.250000 0.250000 0.746210
#
# Coordination Sequence:
#
# PCOD8275718 Si02
#       6
#    16  16  16  16  16  16
#     4  10  19  28  43  66  95 127 159 195 234 275
#     4   8  14  26  46  69  89 111 150 196 227 260
#     4   9  16  28  44  64  88 118 154 195 235 270
#     4  10  20  34  50  68  89 112 142 186 236 281
#     4  11  21  32  45  62  85 117 155 193 232 275
#     4   9  14  25  47  71  91 119 161 198 226 264
#
# _framework density 16.874151000000001
#
# number of rings (size 3 to 8) (size 9 to 14) (size 15 to 20)
#    0.000    2.500    1.667    3.500    0.000    2.333 
#    0.000    1.667    0.000    5.500    0.000    0.000 
#    0.000    0.667    0.000    8.333    0.000    0.000 
#
# Total GULP energy -594838.185206 kJ/mol
# GULP energy per Si atom -12392.462192 kJ/mol
# Density = 1.683575 g / cm^3
# Si number density = 16.874151 Si / 1000 Ang^3
#
#
#
# Elastic Constant Matrix: (Units=GPa)
#
#
# Indices 1 2 3 4 5 6 
#
# 1 115.8733 54.8799 20.4756 0.0000 0.0000 0.0000
# 2 54.8799 84.3696 11.6223 0.0000 0.0000 0.0000
# 3 20.4756 11.6223 40.4773 0.0000 0.0000 0.0000
# 4 0.0000 0.0000 0.0000 14.5975 0.0000 0.0000
# 5 0.0000 0.0000 0.0000 0.0000 8.2067 0.0000
# 6 0.0000 0.0000 0.0000 0.0000 0.0000 7.4758
#
#
#
# Elastic Compliance Matrix: (Units=1/GPa)
#
#
# Indices 1 2 3 4 5 6 
#
# 1 0.013178 -0.007969 -0.004378 0.000000 0.000000 0.000000
# 2 -0.007969 0.017159 -0.000896 0.000000 0.000000 0.000000
# 3 -0.004378 -0.000896 0.027177 0.000000 0.000000 0.000000
# 4 0.000000 0.000000 0.000000 0.068505 0.000000 0.000000
# 5 0.000000 0.000000 0.000000 0.000000 0.121851 0.000000
# 6 0.000000 0.000000 0.000000 0.000000 0.000000 0.133766
#
#
# Mechanical properties :
#
#
# Convention : Reuss Voigt Hill
#
# Bulk Modulus (GPa) = 32.22794 46.07510 39.15152
# Shear Modulus (GPa) = 11.94844 16.30549 14.12696
#
# Velocity S-wave (km/s) = 2.66388 3.11191 2.89657
# Velocity P-wave (km/s) = 5.34810 6.34637 5.86850
#
# Compressibility (1/GPa) = 0.03102897
#
# Stress axis : x y z
#
# Youngs Moduli (GPa) = 75.88459 58.27686 36.79564
#
# Poissons Ratio (x) = 0.46439 0.16109
# Poissons Ratio (y) = 0.60470 0.03297
# Poissons Ratio (z) = 0.33223 0.05222
#
# Static dielectric constant tensor:
#      x y z
#    x 3.415970 0.000000 0.000000 
#    y 0.000000 3.136080 0.000000 
#    z 0.000000 0.000000 2.824180 
# 
# 
# High freq. dielectric constant tensor:
#      x y z
#    x 1.648070 0.000000 0.000000 
#    y 0.000000 1.616330 0.000000 
#    z 0.000000 0.000000 1.618970 
# 
# From -- ./inp_files/10465.got.cif
#   From: 2010.03.12/outbox.cif.g09.slc.cpg/sg66_6_cif.got.tgz:10465.got - 2010.04.10 21:57:39.
