data_PCOD8275767
_publ_section_title
;
Structure prediction by ZEFSAII (Michael W. Deem and Ramdas Pophale) SiO2 
 PCOD8275767
Probable space group: C C C M
;
_chemical_formula_sum "Si O2"
_cell_formula_units_Z 112
_cell_length_a 33.447069
_cell_length_b 5.065929
_cell_length_c 34.175656
_cell_angle_alpha 90.000000
_cell_angle_beta 90.000000
_cell_angle_gamma 90.000000
_cell_volume 5790.739448
_symmetry_space_group_name_H-M "C C C M"
_symmetry_group_IT_number 66
_symmetry_cell_setting 'orthorhombic'
loop_
_space_group_symop_operation_xyz
x,y,z
-x,-y,z
x,-y,1/2-z
-x,y,1/2-z
-x,-y,-z
x,y,-z
-x,y,1/2+z
x,-y,1/2+z
1/2+x,1/2+y,z
1/2-x,1/2-y,z
1/2+x,1/2-y,1/2-z
1/2-x,1/2+y,1/2-z
1/2-x,1/2-y,-z
1/2+x,1/2+y,-z
1/2-x,1/2+y,1/2+z
1/2+x,1/2-y,1/2+z
loop_
_atom_site_type_symbol
_atom_site_label
_atom_site_fract_x
_atom_site_fract_y
_atom_site_fract_z
Si Si1 0.091052 0.555690 0.207040
Si Si2 0.707014 0.817507 0.455594
Si Si3 0.863855 0.959301 0.182215
Si Si4 0.655097 0.300214 0.455585
Si Si5 0.046664 0.525463 0.870847
Si Si6 0.725103 0.499025 0.704021
Si Si7 0.592360 0.519497 0.895044
O O1 0.072379 0.500000 0.250000
O O2 0.122598 0.331924 0.194573
O O3 0.055881 0.586699 0.174977
O O4 0.115420 0.828159 0.210683
O O5 0.715906 0.910226 0.500000
O O6 0.750000 0.750000 0.435135
O O7 0.682416 0.553181 0.453715
O O8 0.680318 0.054768 0.436378
O O9 0.816723 0.988721 0.182508
O O10 0.874069 0.027708 0.137540
O O11 0.642985 0.226894 0.500000
O O12 0.613755 0.373929 0.434033
O O13 0.067071 0.746323 0.899190
O O14 0.000000 0.500000 0.877963
O O15 0.061865 0.237956 0.880868
O O16 0.716979 0.500000 0.750000
O O17 0.750000 0.750000 0.690064
O O18 0.750000 0.250000 0.690170
#
# Coordination Sequence:
#
# PCOD8275767 Si02
#       7
#    16  16  16  16  16  16  16
#     4  10  19  32  54  79 101 130 166 207 254 307
#     4   9  17  30  50  78 109 138 171 214 263 308
#     4  10  20  34  50  71 102 136 172 211 255 305
#     4  10  19  33  55  79 105 140 181 222 259 305
#     4  10  21  37  57  79 105 136 165 204 261 320
#     4  10  19  30  46  67  93 129 171 212 247 280
#     4  10  21  37  56  77 103 136 173 210 259 321
#
# _framework density 19.341225999999999
#
# number of rings (size 3 to 8) (size 9 to 14) (size 15 to 20)
#    0.000    2.143    0.000    3.857    0.000    3.143 
#    0.000    2.143    0.000    7.714    0.000    0.000 
#    0.000    0.000    0.000    0.000    0.000    0.000 
#
# Total GULP energy -694246.904106 kJ/mol
# GULP energy per Si atom -12397.266145 kJ/mol
# Density = 1.929720 g / cm^3
# Si number density = 19.341226 Si / 1000 Ang^3
#
#
#
# Elastic Constant Matrix: (Units=GPa)
#
#
# Indices 1 2 3 4 5 6 
#
# 1 127.6482 30.0712 29.8484 0.0000 0.0000 0.0000
# 2 30.0712 107.4753 9.3352 0.0000 0.0000 0.0000
# 3 29.8484 9.3352 53.5435 0.0000 0.0000 0.0000
# 4 0.0000 0.0000 0.0000 -23.5722 0.0000 0.0000
# 5 0.0000 0.0000 0.0000 0.0000 -13.5336 0.0000
# 6 0.0000 0.0000 0.0000 0.0000 0.0000 24.7930
#
#
#
# Elastic Compliance Matrix: (Units=1/GPa)
#
#
# Indices 1 2 3 4 5 6 
#
# 1 0.009509 -0.002234 -0.004911 0.000000 0.000000 0.000000
# 2 -0.002234 0.009972 -0.000493 0.000000 0.000000 0.000000
# 3 -0.004911 -0.000493 0.021500 0.000000 0.000000 0.000000
# 4 0.000000 0.000000 0.000000 -0.042423 0.000000 0.000000
# 5 0.000000 0.000000 0.000000 0.000000 -0.073890 0.000000
# 6 0.000000 0.000000 0.000000 0.000000 0.000000 0.040334
#
#
# Mechanical properties :
#
#
# Convention : Reuss Voigt Hill
#
# Bulk Modulus (GPa) = 38.90402 47.46407 43.18404
# Shear Modulus (GPa) = -448.33151 12.16492 -218.08329
#
# Velocity S-wave (km/s) = -15.24153 2.51063 -10.63017
# Velocity P-wave (km/s) = 17.01707 5.74439 11.32658
#
# Compressibility (1/GPa) = 0.02570429
#
# Stress axis : x y z
#
# Youngs Moduli (GPa) = 105.16671 100.27724 46.51111
#
# Poissons Ratio (x) = 0.22401 0.22843
# Poissons Ratio (y) = 0.23493 0.02295
# Poissons Ratio (z) = 0.51650 0.04947
#
# Static dielectric constant tensor:
#      x y z
#    x 3.428830 0.000000 0.000000 
#    y 0.000000 3.811720 0.000000 
#    z 0.000000 0.000000 3.451370 
# 
# 
# High freq. dielectric constant tensor:
#      x y z
#    x 1.743270 0.000000 0.000000 
#    y 0.000000 1.777790 0.000000 
#    z 0.000000 0.000000 1.717580 
# 
# From -- ./inp_files/70687.got.cif
#   From: 2010.03.12/outbox.cif.g09.slc.cpg/sg66_36_cif.got.tgz:70687.got - 2010.04.10 21:57:39.
