data_PCOD8275703
_publ_section_title
;
Structure prediction by ZEFSAII (Michael W. Deem and Ramdas Pophale) SiO2 
 PCOD8275703
Probable space group: C C C M
;
_chemical_formula_sum "Si O2"
_cell_formula_units_Z 56
_cell_length_a 10.355462
_cell_length_b 9.845976
_cell_length_c 24.038421
_cell_angle_alpha 90.000000
_cell_angle_beta 90.000000
_cell_angle_gamma 90.000000
_cell_volume 2450.948519
_symmetry_space_group_name_H-M "C C C M"
_symmetry_group_IT_number 66
_symmetry_cell_setting 'orthorhombic'
loop_
_space_group_symop_operation_xyz
x,y,z
-x,-y,z
x,-y,1/2-z
-x,y,1/2-z
-x,-y,-z
x,y,-z
-x,y,1/2+z
x,-y,1/2+z
1/2+x,1/2+y,z
1/2-x,1/2-y,z
1/2+x,1/2-y,1/2-z
1/2-x,1/2+y,1/2-z
1/2-x,1/2-y,-z
1/2+x,1/2+y,-z
1/2-x,1/2+y,1/2+z
1/2+x,1/2-y,1/2+z
loop_
_atom_site_type_symbol
_atom_site_label
_atom_site_fract_x
_atom_site_fract_y
_atom_site_fract_z
Si Si1 0.141867 0.649507 0.729376
Si Si2 0.120849 0.600864 0.500000
Si Si3 0.950089 0.845958 0.500000
Si Si4 0.250000 0.250000 0.591202
Si Si5 0.148715 0.523407 0.384309
O O1 0.169865 0.500000 0.750000
O O2 0.250000 0.750000 0.753461
O O3 0.162066 0.638876 0.662720
O O4 0.000000 0.698568 0.750000
O O5 0.206298 0.571738 0.444293
O O6 0.000000 0.500000 0.500000
O O7 0.080161 0.757314 0.500000
O O8 0.868717 0.804044 0.554269
O O9 0.000000 0.000000 0.500000
O O10 0.210165 0.376268 0.631103
O O11 0.000000 0.500000 0.393586
#
# Coordination Sequence:
#
# PCOD8275703 Si02
#       5
#    16   8   8   8  16
#     4  11  26  48  74 103 138 182 234 294 354 418
#     4  10  18  39  67  91 144 183 214 279 348 415
#     4  11  22  36  60  99 137 181 233 272 329 413
#     4  11  22  40  64  92 138 180 216 291 340 392
#     4  11  21  42  71  97 133 183 227 276 355 416
#
# _framework density 22.848298
#
# number of rings (size 3 to 8) (size 9 to 14) (size 15 to 20)
#    0.000    1.143    8.571    0.857    2.000    2.857 
#    0.000    2.143    0.000    0.000    0.000    0.000 
#    0.000    0.000    0.000    0.000    0.000    0.000 
#
# Total GULP energy -346912.284328 kJ/mol
# GULP energy per Si atom -12389.724440 kJ/mol
# Density = 2.279629 g / cm^3
# Si number density = 22.848298 Si / 1000 Ang^3
#
#
#
# Elastic Constant Matrix: (Units=GPa)
#
#
# Indices 1 2 3 4 5 6 
#
# 1 94.3844 71.0984 27.2271 0.0000 0.0000 0.0000
# 2 71.0984 126.9093 5.1996 0.0000 0.0000 0.0000
# 3 27.2271 5.1996 88.2217 0.0000 0.0000 0.0000
# 4 0.0000 0.0000 0.0000 17.7254 0.0000 0.0000
# 5 0.0000 0.0000 0.0000 0.0000 -66.0522 0.0000
# 6 0.0000 0.0000 0.0000 0.0000 0.0000 54.9163
#
#
#
# Elastic Compliance Matrix: (Units=1/GPa)
#
#
# Indices 1 2 3 4 5 6 
#
# 1 0.020905 -0.011475 -0.005775 0.000000 0.000000 0.000000
# 2 -0.011475 0.014197 0.002705 0.000000 0.000000 0.000000
# 3 -0.005775 0.002705 0.012958 0.000000 0.000000 0.000000
# 4 0.000000 0.000000 0.000000 0.056416 0.000000 0.000000
# 5 0.000000 0.000000 0.000000 0.000000 -0.015140 0.000000
# 6 0.000000 0.000000 0.000000 0.000000 0.000000 0.018210
#
#
# Mechanical properties :
#
#
# Convention : Reuss Voigt Hill
#
# Bulk Modulus (GPa) = 52.71741 57.39615 55.05678
# Shear Modulus (GPa) = 34.97456 15.05057 25.01256
#
# Velocity S-wave (km/s) = 3.91670 2.56933 3.31225
# Velocity P-wave (km/s) = 6.60128 5.82898 6.22712
#
# Compressibility (1/GPa) = 0.01896907
#
# Stress axis : x y z
#
# Youngs Moduli (GPa) = 47.83565 70.43526 77.17183
#
# Poissons Ratio (x) = 0.80824 0.44570
# Poissons Ratio (y) = 0.54891 -0.20872
# Poissons Ratio (z) = 0.27627 -0.19050
#
# Static dielectric constant tensor:
#      x y z
#    x 3.886610 0.000000 0.000000 
#    y 0.000000 4.169010 0.000000 
#    z 0.000000 0.000000 5.875430 
# 
# 
# High freq. dielectric constant tensor:
#      x y z
#    x 1.878500 0.000000 0.000000 
#    y 0.000000 1.903810 0.000000 
#    z 0.000000 0.000000 1.907790 
# 
# From -- ./inp_files/63269.got.cif
#   From: 2010.03.12/outbox.cif.g09.slc.cpg/sg66_32_cif.got.tgz:63269.got - 2010.04.10 21:57:39.
