data_PCOD8275390
_publ_section_title
;
Structure prediction by ZEFSAII (Michael W. Deem and Ramdas Pophale) SiO2 
 PCOD8275390
Probable space group: C C C M
;
_chemical_formula_sum "Si O2"
_cell_formula_units_Z 96
_cell_length_a 26.494030
_cell_length_b 9.361527
_cell_length_c 19.922539
_cell_angle_alpha 90.000000
_cell_angle_beta 90.000000
_cell_angle_gamma 90.000000
_cell_volume 4941.279312
_symmetry_space_group_name_H-M "C C C M"
_symmetry_group_IT_number 66
_symmetry_cell_setting 'orthorhombic'
loop_
_space_group_symop_operation_xyz
x,y,z
-x,-y,z
x,-y,1/2-z
-x,y,1/2-z
-x,-y,-z
x,y,-z
-x,y,1/2+z
x,-y,1/2+z
1/2+x,1/2+y,z
1/2-x,1/2-y,z
1/2+x,1/2-y,1/2-z
1/2-x,1/2+y,1/2-z
1/2-x,1/2-y,-z
1/2+x,1/2+y,-z
1/2-x,1/2+y,1/2+z
1/2+x,1/2-y,1/2+z
loop_
_atom_site_type_symbol
_atom_site_label
_atom_site_fract_x
_atom_site_fract_y
_atom_site_fract_z
Si Si1 0.785729 0.132251 0.699682
Si Si2 0.899834 0.837904 0.182039
Si Si3 0.079876 0.148288 0.662151
Si Si4 0.751373 0.481079 0.924991
Si Si5 0.832961 0.255743 0.074821
Si Si6 0.490228 0.157092 0.171112
O O1 0.750000 0.250000 0.736490
O O2 0.840192 0.193517 0.677707
O O3 0.793642 0.000000 0.750000
O O4 0.754842 0.098939 0.632028
O O5 0.915424 0.851825 0.258622
O O6 0.932914 0.705988 0.153033
O O7 0.914993 0.981854 0.140505
O O8 0.123891 0.242840 0.629912
O O9 0.027379 0.221883 0.640144
O O10 0.805728 0.407506 0.915635
O O11 0.707191 0.368157 0.913895
O O12 0.747725 0.547847 0.000000
O O13 0.856193 0.244747 0.000000
O O14 0.500000 0.146889 0.250000
O O15 0.500000 0.000000 0.139087
#
# Coordination Sequence:
#
# PCOD8275390 Si02
#       6
#    16  16  16  16  16  16
#     4  12  25  37  55  86 120 153 185 235 290 337
#     4  10  19  34  51  78 108 147 178 219 284 329
#     4  10  17  32  56  76 107 140 179 229 270 334
#     4   9  19  36  55  79 114 156 197 232 274 339
#     4   9  17  31  58  84 106 147 193 232 275 326
#     4   9  19  33  52  79 105 136 182 226 278 337
#
# _framework density 19.428166999999998
#
# number of rings (size 3 to 8) (size 9 to 14) (size 15 to 20)
#    0.000    2.167    3.333    1.500    4.667    3.667 
#    3.000    0.000    0.000    3.500    0.000    0.000 
#    0.000    0.000    0.000    0.000    0.000    0.000 
#
# Total GULP energy -594894.856771 kJ/mol
# GULP energy per Si atom -12393.642849 kJ/mol
# Density = 1.938395 g / cm^3
# Si number density = 19.428167 Si / 1000 Ang^3
#
#
#
# Elastic Constant Matrix: (Units=GPa)
#
#
# Indices 1 2 3 4 5 6 
#
# 1 138.6467 70.6709 20.4117 0.0000 0.0000 0.0000
# 2 70.6709 93.8026 9.9526 0.0000 0.0000 0.0000
# 3 20.4117 9.9526 42.4246 0.0000 0.0000 0.0000
# 4 0.0000 0.0000 0.0000 15.5462 0.0000 0.0000
# 5 0.0000 0.0000 0.0000 0.0000 -11.1450 0.0000
# 6 0.0000 0.0000 0.0000 0.0000 0.0000 29.6032
#
#
#
# Elastic Compliance Matrix: (Units=1/GPa)
#
#
# Indices 1 2 3 4 5 6 
#
# 1 0.012289 -0.008852 -0.003836 0.000000 0.000000 0.000000
# 2 -0.008852 0.017308 0.000198 0.000000 0.000000 0.000000
# 3 -0.003836 0.000198 0.025370 0.000000 0.000000 0.000000
# 4 0.000000 0.000000 0.000000 0.064324 0.000000 0.000000
# 5 0.000000 0.000000 0.000000 0.000000 -0.089727 0.000000
# 6 0.000000 0.000000 0.000000 0.000000 0.000000 0.033780
#
#
# Mechanical properties :
#
#
# Convention : Reuss Voigt Hill
#
# Bulk Modulus (GPa) = 33.34546 52.99380 43.16963
# Shear Modulus (GPa) = 50.85373 18.39014 34.62193
#
# Velocity S-wave (km/s) = 5.12173 3.07998 4.22601
# Velocity P-wave (km/s) = 7.22335 6.32332 6.78827
#
# Compressibility (1/GPa) = 0.02998909
#
# Stress axis : x y z
#
# Youngs Moduli (GPa) = 81.37225 57.77510 39.41606
#
# Poissons Ratio (x) = 0.51141 0.15120
# Poissons Ratio (y) = 0.72028 -0.00782
# Poissons Ratio (z) = 0.31215 -0.01146
#
# Static dielectric constant tensor:
#      x y z
#    x 3.657800 0.000000 0.000000 
#    y 0.000000 3.775080 0.000000 
#    z 0.000000 0.000000 3.282450 
# 
# 
# High freq. dielectric constant tensor:
#      x y z
#    x 1.758000 0.000000 0.000000 
#    y 0.000000 1.748150 0.000000 
#    z 0.000000 0.000000 1.713570 
# 
# From -- ./inp_files/52980.got.cif
#   From: 2010.03.12/outbox.cif.g09.slc.cpg/sg66_27_cif.got.tgz:52980.got - 2010.04.10 21:57:39.
