data_PCOD8275733
_publ_section_title
;
Structure prediction by ZEFSAII (Michael W. Deem and Ramdas Pophale) SiO2 
 PCOD8275733
Probable space group: C C C M
;
_chemical_formula_sum "Si O2"
_cell_formula_units_Z 88
_cell_length_a 28.408358
_cell_length_b 19.358942
_cell_length_c 9.821720
_cell_angle_alpha 90.000000
_cell_angle_beta 90.000000
_cell_angle_gamma 90.000000
_cell_volume 5401.511436
_symmetry_space_group_name_H-M "C C C M"
_symmetry_group_IT_number 66
_symmetry_cell_setting 'orthorhombic'
loop_
_space_group_symop_operation_xyz
x,y,z
-x,-y,z
x,-y,1/2-z
-x,y,1/2-z
-x,-y,-z
x,y,-z
-x,y,1/2+z
x,-y,1/2+z
1/2+x,1/2+y,z
1/2-x,1/2-y,z
1/2+x,1/2-y,1/2-z
1/2-x,1/2+y,1/2-z
1/2-x,1/2-y,-z
1/2+x,1/2+y,-z
1/2-x,1/2+y,1/2+z
1/2+x,1/2-y,1/2+z
loop_
_atom_site_type_symbol
_atom_site_label
_atom_site_fract_x
_atom_site_fract_y
_atom_site_fract_z
Si Si1 0.456168 0.133501 0.344636
Si Si2 0.594056 0.000000 0.250000
Si Si3 0.776703 0.060722 0.656919
Si Si4 0.639358 0.803100 0.346253
Si Si5 0.710990 0.308488 0.154953
Si Si6 0.172869 0.589956 0.645058
O O1 0.500000 0.150548 0.250000
O O2 0.472108 0.144082 0.500000
O O3 0.415176 0.188107 0.302038
O O4 0.438746 0.054780 0.327421
O O5 0.628349 0.038603 0.355158
O O6 0.796313 0.060548 0.500000
O O7 0.787242 0.133255 0.730351
O O8 0.720905 0.046818 0.654634
O O9 0.799788 0.000000 0.750000
O O10 0.644135 0.829724 0.500000
O O11 0.658789 0.725519 0.330600
O O12 0.672902 0.853836 0.262827
O O13 0.750000 0.250000 0.183353
O O14 0.717387 0.337604 0.000000
O O15 0.171156 0.629334 0.500000
#
# Coordination Sequence:
#
# PCOD8275733 Si02
#       6
#    16   8  16  16  16  16
#     4  10  21  34  49  67  92 125 165 210 252 296
#     4  10  19  32  46  64  92 130 172 208 253 290
#     4  11  22  33  47  70 101 134 169 206 247 294
#     4   9  19  34  50  68  91 123 160 200 248 298
#     4  10  19  33  53  73  96 129 167 206 252 303
#     4  10  19  29  44  66  91 123 164 207 242 281
#
# _framework density 16.291736
#
# number of rings (size 3 to 8) (size 9 to 14) (size 15 to 20)
#    0.000    2.000    2.727    1.364    0.000    6.909 
#    0.000    0.000    0.000    0.000    0.000    0.000 
#    0.000    0.727    0.000    8.364    0.000    2.545 
#
# Total GULP energy -545277.940329 kJ/mol
# GULP energy per Si atom -12392.680462 kJ/mol
# Density = 1.625466 g / cm^3
# Si number density = 16.291736 Si / 1000 Ang^3
#
#
#
# Elastic Constant Matrix: (Units=GPa)
#
#
# Indices 1 2 3 4 5 6 
#
# 1 63.1695 26.9576 29.0380 0.0000 0.0000 0.0000
# 2 26.9576 72.6122 53.4280 0.0000 0.0000 0.0000
# 3 29.0380 53.4280 113.4584 0.0000 0.0000 0.0000
# 4 0.0000 0.0000 0.0000 26.0705 0.0000 0.0000
# 5 0.0000 0.0000 0.0000 0.0000 15.7076 0.0000
# 6 0.0000 0.0000 0.0000 0.0000 0.0000 16.2389
#
#
#
# Elastic Compliance Matrix: (Units=1/GPa)
#
#
# Indices 1 2 3 4 5 6 
#
# 1 0.019224 -0.005381 -0.002386 0.000000 0.000000 0.000000
# 2 -0.005381 0.022580 -0.009256 0.000000 0.000000 0.000000
# 3 -0.002386 -0.009256 0.013783 0.000000 0.000000 0.000000
# 4 0.000000 0.000000 0.000000 0.038358 0.000000 0.000000
# 5 0.000000 0.000000 0.000000 0.000000 0.063663 0.000000
# 6 0.000000 0.000000 0.000000 0.000000 0.000000 0.061581
#
#
# Mechanical properties :
#
#
# Convention : Reuss Voigt Hill
#
# Bulk Modulus (GPa) = 46.42371 52.00971 49.21671
# Shear Modulus (GPa) = 19.20016 20.92448 20.06232
#
# Velocity S-wave (km/s) = 3.43668 3.58769 3.51300
# Velocity P-wave (km/s) = 6.65619 7.01108 6.83594
#
# Compressibility (1/GPa) = 0.02154072
#
# Stress axis : x y z
#
# Youngs Moduli (GPa) = 52.01919 44.28696 72.55301
#
# Poissons Ratio (x) = 0.23832 0.17311
# Poissons Ratio (y) = 0.27993 0.67153
# Poissons Ratio (z) = 0.12412 0.40991
#
# Static dielectric constant tensor:
#      x y z
#    x 3.007440 0.000000 0.000000 
#    y 0.000000 2.906490 0.000000 
#    z 0.000000 0.000000 3.239020 
# 
# 
# High freq. dielectric constant tensor:
#      x y z
#    x 1.598430 0.000000 0.000000 
#    y 0.000000 1.594950 0.000000 
#    z 0.000000 0.000000 1.644120 
# 
# From -- ./inp_files/11413.got.cif
#   From: 2010.03.12/outbox.cif.g09.slc.cpg/sg66_6_cif.got.tgz:11413.got - 2010.04.10 21:57:39.
