data_PCOD8275676
_publ_section_title
;
Structure prediction by ZEFSAII (Michael W. Deem and Ramdas Pophale) SiO2 
 PCOD8275676
Probable space group: C C C M
;
_chemical_formula_sum "Si O2"
_cell_formula_units_Z 96
_cell_length_a 24.539697
_cell_length_b 11.442825
_cell_length_c 17.482811
_cell_angle_alpha 90.000000
_cell_angle_beta 90.000000
_cell_angle_gamma 90.000000
_cell_volume 4909.233790
_symmetry_space_group_name_H-M "C C C M"
_symmetry_group_IT_number 66
_symmetry_cell_setting 'orthorhombic'
loop_
_space_group_symop_operation_xyz
x,y,z
-x,-y,z
x,-y,1/2-z
-x,y,1/2-z
-x,-y,-z
x,y,-z
-x,y,1/2+z
x,-y,1/2+z
1/2+x,1/2+y,z
1/2-x,1/2-y,z
1/2+x,1/2-y,1/2-z
1/2-x,1/2+y,1/2-z
1/2-x,1/2-y,-z
1/2+x,1/2+y,-z
1/2-x,1/2+y,1/2+z
1/2+x,1/2-y,1/2+z
loop_
_atom_site_type_symbol
_atom_site_label
_atom_site_fract_x
_atom_site_fract_y
_atom_site_fract_z
Si Si1 0.175364 0.447719 0.670996
Si Si2 0.794555 0.106582 0.166056
Si Si3 0.374195 0.250251 0.414122
Si Si4 0.563013 0.522810 0.411519
Si Si5 0.695083 0.816750 0.088992
Si Si6 0.150639 0.117635 0.825824
O O1 0.153689 0.500000 0.750000
O O2 0.230910 0.370927 0.686069
O O3 0.127119 0.365123 0.639361
O O4 0.191127 0.548158 0.611288
O O5 0.815659 0.184117 0.095517
O O6 0.837529 0.133781 0.235367
O O7 0.801172 0.969204 0.143912
O O8 0.378936 0.204045 0.500000
O O9 0.423098 0.340312 0.394763
O O10 0.500000 0.500000 0.398240
O O11 0.579914 0.493853 0.500000
O O12 0.593580 0.442709 0.349172
O O13 0.750000 0.750000 0.113537
O O14 0.649142 0.743789 0.134084
O O15 0.684081 0.805823 0.000000
#
# Coordination Sequence:
#
# PCOD8275676 Si02
#       6
#    16  16  16  16  16  16
#     4  12  21  34  51  74 112 158 192 228 279 348
#     4  10  19  33  52  75 109 151 189 231 285 341
#     4  10  22  36  54  82 113 147 198 250 294 347
#     4   9  19  38  64  88 112 145 187 246 309 351
#     4  11  21  31  47  73 109 149 186 225 271 335
#     4  10  18  35  51  80 110 145 190 233 280 348
#
# _framework density 19.554986
#
# number of rings (size 3 to 8) (size 9 to 14) (size 15 to 20)
#    0.000    1.667    3.333    2.500    0.000    2.667 
#    0.000    6.667    0.000    1.000    0.000    5.833 
#    0.000    0.000    0.000    0.000    0.000    0.000 
#
# Total GULP energy -594795.872329 kJ/mol
# GULP energy per Si atom -12391.580674 kJ/mol
# Density = 1.951048 g / cm^3
# Si number density = 19.554986 Si / 1000 Ang^3
#
#
#
# Elastic Constant Matrix: (Units=GPa)
#
#
# Indices 1 2 3 4 5 6 
#
# 1 90.8928 40.2106 45.1983 0.0000 0.0000 0.0000
# 2 40.2106 95.5901 43.3286 0.0000 0.0000 0.0000
# 3 45.1983 43.3286 83.5529 0.0000 0.0000 0.0000
# 4 0.0000 0.0000 0.0000 39.0992 0.0000 0.0000
# 5 0.0000 0.0000 0.0000 0.0000 21.1586 0.0000
# 6 0.0000 0.0000 0.0000 0.0000 0.0000 22.3844
#
#
#
# Elastic Compliance Matrix: (Units=1/GPa)
#
#
# Indices 1 2 3 4 5 6 
#
# 1 0.015976 -0.003664 -0.006742 0.000000 0.000000 0.000000
# 2 -0.003664 0.014516 -0.005546 0.000000 0.000000 0.000000
# 3 -0.006742 -0.005546 0.018491 0.000000 0.000000 0.000000
# 4 0.000000 0.000000 0.000000 0.025576 0.000000 0.000000
# 5 0.000000 0.000000 0.000000 0.000000 0.047262 0.000000
# 6 0.000000 0.000000 0.000000 0.000000 0.000000 0.044674
#
#
# Mechanical properties :
#
#
# Convention : Reuss Voigt Hill
#
# Bulk Modulus (GPa) = 58.54889 58.61231 58.58060
# Shear Modulus (GPa) = 24.49874 25.94834 25.22354
#
# Velocity S-wave (km/s) = 3.54335 3.64667 3.59538
# Velocity P-wave (km/s) = 6.83711 6.91152 6.87442
#
# Compressibility (1/GPa) = 0.01707974
#
# Stress axis : x y z
#
# Youngs Moduli (GPa) = 62.59564 68.88719 54.07946
#
# Poissons Ratio (x) = 0.25243 0.36459
# Poissons Ratio (y) = 0.22937 0.29991
# Poissons Ratio (z) = 0.42201 0.38203
#
# Static dielectric constant tensor:
#      x y z
#    x 3.112410 0.000000 0.000000 
#    y 0.000000 3.728180 0.000000 
#    z 0.000000 0.000000 3.561990 
# 
# 
# High freq. dielectric constant tensor:
#      x y z
#    x 1.702170 0.000000 0.000000 
#    y 0.000000 1.771380 0.000000 
#    z 0.000000 0.000000 1.766150 
# 
# From -- ./inp_files/44241.got.cif
#   From: 2010.03.12/outbox.cif.g09.slc.cpg/sg66_23_cif.got.tgz:44241.got - 2010.04.10 21:57:39.
