data_PCOD8275997
_publ_section_title
;
Structure prediction by ZEFSAII (Michael W. Deem and Ramdas Pophale) SiO2 
 PCOD8275997
Probable space group: C C C M
;
_chemical_formula_sum "Si O2"
_cell_formula_units_Z 80
_cell_length_a 8.983197
_cell_length_b 22.398002
_cell_length_c 20.604862
_cell_angle_alpha 90.000000
_cell_angle_beta 90.000000
_cell_angle_gamma 90.000000
_cell_volume 4145.814948
_symmetry_space_group_name_H-M "C C C M"
_symmetry_group_IT_number 66
_symmetry_cell_setting 'orthorhombic'
loop_
_space_group_symop_operation_xyz
x,y,z
-x,-y,z
x,-y,1/2-z
-x,y,1/2-z
-x,-y,-z
x,y,-z
-x,y,1/2+z
x,-y,1/2+z
1/2+x,1/2+y,z
1/2-x,1/2-y,z
1/2+x,1/2-y,1/2-z
1/2-x,1/2+y,1/2-z
1/2-x,1/2-y,-z
1/2+x,1/2+y,-z
1/2-x,1/2+y,1/2+z
1/2+x,1/2-y,1/2+z
loop_
_atom_site_type_symbol
_atom_site_label
_atom_site_fract_x
_atom_site_fract_y
_atom_site_fract_z
Si Si1 0.490605 0.835619 0.820622
Si Si2 0.750000 0.750000 0.857341
Si Si3 0.430323 0.064415 0.576059
Si Si4 0.250000 0.250000 0.633132
Si Si5 0.511724 0.678428 0.925175
Si Si6 0.408874 0.555237 0.077245
O O1 0.500000 0.867650 0.750000
O O2 0.624663 0.786794 0.818293
O O3 0.505448 0.884141 0.878895
O O4 0.332193 0.800749 0.824523
O O5 0.668768 0.701677 0.901326
O O6 0.446188 0.083654 0.500000
O O7 0.261730 0.055790 0.598818
O O8 0.500000 0.000000 0.588406
O O9 0.375206 0.277451 0.587000
O O10 0.482709 0.614334 0.892331
O O11 0.526867 0.667316 0.000000
O O12 0.500000 0.500000 0.107540
O O13 0.417451 0.552996 0.000000
#
# Coordination Sequence:
#
# PCOD8275997 Si02
#       6
#    16   8  16   8  16  16
#     4  11  23  41  62  86 119 162 201 245 296 357
#     4  10  24  36  54  88 119 156 195 244 297 352
#     4  10  22  39  62  90 119 153 198 249 298 351
#     4  10  20  36  58  82 115 158 203 240 289 356
#     4  10  19  33  55  86 119 152 191 242 299 354
#     4   9  18  33  55  82 114 150 188 234 293 350
#
# _framework density 19.296567
#
# number of rings (size 3 to 8) (size 9 to 14) (size 15 to 20)
#    0.000    2.000    2.000    1.200    2.800    4.400 
#    0.000    0.000    0.000    0.000    0.000    0.000 
#    0.000    0.000    0.000    0.000    0.000    0.000 
#
# Total GULP energy -495691.039617 kJ/mol
# GULP energy per Si atom -12392.275990 kJ/mol
# Density = 1.925265 g / cm^3
# Si number density = 19.296567 Si / 1000 Ang^3
#
#
#
# Elastic Constant Matrix: (Units=GPa)
#
#
# Indices 1 2 3 4 5 6 
#
# 1 100.9740 37.1704 21.4808 0.0000 0.0000 0.0000
# 2 37.1704 114.1805 39.0699 0.0000 0.0000 0.0000
# 3 21.4808 39.0699 80.9331 0.0000 0.0000 0.0000
# 4 0.0000 0.0000 0.0000 18.8040 0.0000 0.0000
# 5 0.0000 0.0000 0.0000 0.0000 9.0942 0.0000
# 6 0.0000 0.0000 0.0000 0.0000 0.0000 34.3235
#
#
#
# Elastic Compliance Matrix: (Units=1/GPa)
#
#
# Indices 1 2 3 4 5 6 
#
# 1 0.011398 -0.003205 -0.001478 0.000000 0.000000 0.000000
# 2 -0.003205 0.011392 -0.004649 0.000000 0.000000 0.000000
# 3 -0.001478 -0.004649 0.014992 0.000000 0.000000 0.000000
# 4 0.000000 0.000000 0.000000 0.053180 0.000000 0.000000
# 5 0.000000 0.000000 0.000000 0.000000 0.109961 0.000000
# 6 0.000000 0.000000 0.000000 0.000000 0.000000 0.029135
#
#
# Mechanical properties :
#
#
# Convention : Reuss Voigt Hill
#
# Bulk Modulus (GPa) = 52.30421 54.61441 53.45931
# Shear Modulus (GPa) = 19.60067 25.66878 22.63473
#
# Velocity S-wave (km/s) = 3.19056 3.65118 3.42861
# Velocity P-wave (km/s) = 6.38257 6.79256 6.59075
#
# Compressibility (1/GPa) = 0.01911892
#
# Stress axis : x y z
#
# Youngs Moduli (GPa) = 87.73728 87.78064 66.70053
#
# Poissons Ratio (x) = 0.28131 0.09859
# Poissons Ratio (y) = 0.28117 0.31008
# Poissons Ratio (z) = 0.12968 0.40808
#
# Static dielectric constant tensor:
#      x y z
#    x 3.629780 0.000000 0.000000 
#    y 0.000000 3.634350 0.000000 
#    z 0.000000 0.000000 3.155650 
# 
# 
# High freq. dielectric constant tensor:
#      x y z
#    x 1.763820 0.000000 0.000000 
#    y 0.000000 1.758550 0.000000 
#    z 0.000000 0.000000 1.712930 
# 
# From -- ./inp_files/55381.got.cif
#   From: 2010.03.12/outbox.cif.g09.slc.cpg/sg66_28_cif.got.tgz:55381.got - 2010.04.10 21:57:39.
