data_PCOD8275051
_publ_section_title
;
Structure prediction by ZEFSAII (Michael W. Deem and Ramdas Pophale) SiO2 
 PCOD8275051
Probable space group: C M M M
;
_chemical_formula_sum "Si O2"
_cell_formula_units_Z 72
_cell_length_a 17.301978
_cell_length_b 23.222744
_cell_length_c 9.632003
_cell_angle_alpha 90.000000
_cell_angle_beta 90.000000
_cell_angle_gamma 90.000000
_cell_volume 3870.133082
_symmetry_space_group_name_H-M "C M M M"
_symmetry_group_IT_number 65
_symmetry_cell_setting 'orthorhombic'
loop_
_space_group_symop_operation_xyz
x,y,z
-x,-y,z
x,-y,-z
-x,y,-z
-x,-y,-z
x,y,-z
-x,y,z
x,-y,z
1/2+x,1/2+y,z
1/2-x,1/2-y,z
1/2+x,1/2-y,-z
1/2-x,1/2+y,-z
1/2-x,1/2-y,-z
1/2+x,1/2+y,-z
1/2-x,1/2+y,z
1/2+x,1/2-y,z
loop_
_atom_site_type_symbol
_atom_site_label
_atom_site_fract_x
_atom_site_fract_y
_atom_site_fract_z
Si Si1 0.909718 0.660920 0.847062
Si Si2 0.168278 0.773028 0.835863
Si Si3 0.408109 0.063207 0.345691
Si Si4 0.909143 0.890117 0.162720
Si Si5 0.408464 0.500000 0.658956
O O1 0.893557 0.724668 0.788985
O O2 0.870690 0.611961 0.751681
O O3 0.000000 0.650609 0.854637
O O4 0.872252 0.654340 0.000000
O O5 0.250000 0.750000 0.775640
O O6 0.139755 0.835047 0.780603
O O7 0.172192 0.778614 0.000000
O O8 0.374808 0.071922 0.500000
O O9 0.500000 0.069010 0.349562
O O10 0.384631 0.000000 0.289028
O O11 0.000000 0.877365 0.184410
O O12 0.880526 0.943693 0.256205
O O13 0.893070 0.903205 0.000000
O O14 0.500000 0.500000 0.654431
O O15 0.375780 0.500000 0.500000
#
# Coordination Sequence:
#
# PCOD8275051 Si02
#       5
#    16  16  16  16   8
#     4   9  16  26  43  67  90 111 142 185 226 261
#     4   9  17  29  46  67  93 122 151 185 227 272
#     4   8  14  25  41  61  85 113 144 178 216 257
#     4   9  16  28  49  74  96 121 156 193 229 276
#     4   9  17  29  47  73 101 123 148 191 242 282
#
# _framework density 18.604012000000001
#
# number of rings (size 3 to 8) (size 9 to 14) (size 15 to 20)
#    0.000    3.222    0.000    1.667    0.000    4.444 
#    0.000    3.333    2.444    8.000    0.000    0.000 
#    0.000    0.000    0.000    0.000    0.000    0.000 
#
# Total GULP energy -446039.708465 kJ/mol
# GULP energy per Si atom -12389.991902 kJ/mol
# Density = 1.856167 g / cm^3
# Si number density = 18.604012 Si / 1000 Ang^3
#
#
#
# Elastic Constant Matrix: (Units=GPa)
#
#
# Indices 1 2 3 4 5 6 
#
# 1 30.7728 33.4283 16.7649 0.0000 0.0000 0.0000
# 2 33.4283 203.2626 82.3421 0.0000 0.0000 0.0000
# 3 16.7649 82.3421 79.5661 0.0000 0.0000 0.0000
# 4 0.0000 0.0000 0.0000 7.0476 0.0000 0.0000
# 5 0.0000 0.0000 0.0000 0.0000 6.7732 0.0000
# 6 0.0000 0.0000 0.0000 0.0000 0.0000 14.9708
#
#
#
# Elastic Compliance Matrix: (Units=1/GPa)
#
#
# Indices 1 2 3 4 5 6 
#
# 1 0.039919 -0.005437 -0.002784 0.000000 0.000000 0.000000
# 2 -0.005437 0.009212 -0.008387 0.000000 0.000000 0.000000
# 3 -0.002784 -0.008387 0.021835 0.000000 0.000000 0.000000
# 4 0.000000 0.000000 0.000000 0.141893 0.000000 0.000000
# 5 0.000000 0.000000 0.000000 0.000000 0.147640 0.000000
# 6 0.000000 0.000000 0.000000 0.000000 0.000000 0.066797
#
#
# Mechanical properties :
#
#
# Convention : Reuss Voigt Hill
#
# Bulk Modulus (GPa) = 26.49132 64.29691 45.39411
# Shear Modulus (GPa) = 10.56867 17.82940 14.19903
#
# Velocity S-wave (km/s) = 2.38604 3.09910 2.76565
# Velocity P-wave (km/s) = 4.67562 6.88780 5.88656
#
# Compressibility (1/GPa) = 0.03774822
#
# Stress axis : x y z
#
# Youngs Moduli (GPa) = 25.05044 108.55723 45.79811
#
# Poissons Ratio (x) = 0.59025 0.12751
# Poissons Ratio (y) = 0.13620 0.38413
# Poissons Ratio (z) = 0.06975 0.91052
#
# Static dielectric constant tensor:
#      x y z
#    x 3.042610 0.000000 0.000000 
#    y 0.000000 3.745640 0.000000 
#    z 0.000000 0.000000 3.501390 
# 
# 
# High freq. dielectric constant tensor:
#      x y z
#    x 1.677760 0.000000 0.000000 
#    y 0.000000 1.739220 0.000000 
#    z 0.000000 0.000000 1.690420 
# 
# From -- ./inp_files/11235.got.cif
#   From: 2010.03.12/outbox.cif.g09.slc.cpg/sg65_6_cif.got.tgz:11235.got - 2010.04.10 20:52:16.
