data_PCOD8275975
_publ_section_title
;
Structure prediction by ZEFSAII (Michael W. Deem and Ramdas Pophale) SiO2 
 PCOD8275975
Probable space group: C C C M
;
_chemical_formula_sum "Si O2"
_cell_formula_units_Z 96
_cell_length_a 10.222485
_cell_length_b 21.575768
_cell_length_c 22.011165
_cell_angle_alpha 90.000000
_cell_angle_beta 90.000000
_cell_angle_gamma 90.000000
_cell_volume 4854.737754
_symmetry_space_group_name_H-M "C C C M"
_symmetry_group_IT_number 66
_symmetry_cell_setting 'orthorhombic'
loop_
_space_group_symop_operation_xyz
x,y,z
-x,-y,z
x,-y,1/2-z
-x,y,1/2-z
-x,-y,-z
x,y,-z
-x,y,1/2+z
x,-y,1/2+z
1/2+x,1/2+y,z
1/2-x,1/2-y,z
1/2+x,1/2-y,1/2-z
1/2-x,1/2+y,1/2-z
1/2-x,1/2-y,-z
1/2+x,1/2+y,-z
1/2-x,1/2+y,1/2+z
1/2+x,1/2-y,1/2+z
loop_
_atom_site_type_symbol
_atom_site_label
_atom_site_fract_x
_atom_site_fract_y
_atom_site_fract_z
Si Si1 0.140466 0.981022 0.839434
Si Si2 0.731851 0.388873 0.645267
Si Si3 0.623785 0.793388 0.928928
Si Si4 0.120292 0.782439 0.114035
Si Si5 0.355540 0.638114 0.770140
Si Si6 0.976345 0.098465 0.067079
O O1 0.202387 0.923563 0.802826
O O2 0.108260 0.959513 0.908745
O O3 0.246397 0.037127 0.841183
O O4 0.000000 0.000000 0.809946
O O5 0.845136 0.359992 0.602784
O O6 0.729771 0.350434 0.709024
O O7 0.593243 0.383190 0.611874
O O8 0.750000 0.750000 0.921436
O O9 0.503233 0.763395 0.892789
O O10 0.590282 0.803500 0.000000
O O11 0.250000 0.750000 0.091154
O O12 0.141327 0.803420 0.184480
O O13 0.110855 0.839983 0.068075
O O14 0.500000 0.621270 0.750000
O O15 0.027873 0.083766 0.000000
#
# Coordination Sequence:
#
# PCOD8275975 Si02
#       6
#    16  16  16  16  16  16
#     4   9  18  29  52  83 120 148 188 234 298 353
#     4  11  20  32  55  86 117 152 185 236 305 361
#     4  11  22  39  58  82 119 155 193 246 302 355
#     4  11  24  39  58  83 112 158 205 248 296 359
#     4  11  18  34  56  85 118 152 195 246 298 354
#     4  10  19  33  53  80 113 148 192 241 283 342
#
# _framework density 19.774497
#
# number of rings (size 3 to 8) (size 9 to 14) (size 15 to 20)
#    0.000    1.500    6.667    1.500    0.000    7.000 
#    0.000    0.000    0.000    4.000    0.000   10.500 
#    0.000    0.000    0.000    0.000    0.000    0.000 
#
# Total GULP energy -594738.058663 kJ/mol
# GULP energy per Si atom -12390.376222 kJ/mol
# Density = 1.972949 g / cm^3
# Si number density = 19.774497 Si / 1000 Ang^3
#
#
#
# Elastic Constant Matrix: (Units=GPa)
#
#
# Indices 1 2 3 4 5 6 
#
# 1 63.0222 36.6013 23.0847 0.0000 0.0000 0.0000
# 2 36.6013 85.0408 33.2794 0.0000 0.0000 0.0000
# 3 23.0847 33.2794 144.0301 0.0000 0.0000 0.0000
# 4 0.0000 0.0000 0.0000 20.1732 0.0000 0.0000
# 5 0.0000 0.0000 0.0000 0.0000 9.0051 0.0000
# 6 0.0000 0.0000 0.0000 0.0000 0.0000 23.8728
#
#
#
# Elastic Compliance Matrix: (Units=1/GPa)
#
#
# Indices 1 2 3 4 5 6 
#
# 1 0.021421 -0.008659 -0.001433 0.000000 0.000000 0.000000
# 2 -0.008659 0.016428 -0.002408 0.000000 0.000000 0.000000
# 3 -0.001433 -0.002408 0.007729 0.000000 0.000000 0.000000
# 4 0.000000 0.000000 0.000000 0.049571 0.000000 0.000000
# 5 0.000000 0.000000 0.000000 0.000000 0.111048 0.000000
# 6 0.000000 0.000000 0.000000 0.000000 0.000000 0.041889
#
#
# Mechanical properties :
#
#
# Convention : Reuss Voigt Hill
#
# Bulk Modulus (GPa) = 48.59298 53.11377 50.85338
# Shear Modulus (GPa) = 17.86070 23.88540 20.87305
#
# Velocity S-wave (km/s) = 3.00862 3.47924 3.25245
# Velocity P-wave (km/s) = 6.05772 6.56187 6.31483
#
# Compressibility (1/GPa) = 0.02057910
#
# Stress axis : x y z
#
# Youngs Moduli (GPa) = 46.68314 60.87095 129.38279
#
# Poissons Ratio (x) = 0.52708 0.18535
# Poissons Ratio (y) = 0.40423 0.31156
# Poissons Ratio (z) = 0.06688 0.14658
#
# Static dielectric constant tensor:
#      x y z
#    x 3.084130 0.000000 0.000000 
#    y 0.000000 3.846930 0.000000 
#    z 0.000000 0.000000 3.926350 
# 
# 
# High freq. dielectric constant tensor:
#      x y z
#    x 1.699780 0.000000 0.000000 
#    y 0.000000 1.778100 0.000000 
#    z 0.000000 0.000000 1.787260 
# 
# From -- ./inp_files/55668.got.cif
#   From: 2010.03.12/outbox.cif.g09.slc.cpg/sg66_28_cif.got.tgz:55668.got - 2010.04.10 21:57:39.
