data_PCOD8275922
_publ_section_title
;
Structure prediction by ZEFSAII (Michael W. Deem and Ramdas Pophale) SiO2 
 PCOD8275922
Probable space group: C C C M
;
_chemical_formula_sum "Si O2"
_cell_formula_units_Z 80
_cell_length_a 16.455405
_cell_length_b 8.263449
_cell_length_c 29.585681
_cell_angle_alpha 90.000000
_cell_angle_beta 90.000000
_cell_angle_gamma 90.000000
_cell_volume 4023.013565
_symmetry_space_group_name_H-M "C C C M"
_symmetry_group_IT_number 66
_symmetry_cell_setting 'orthorhombic'
loop_
_space_group_symop_operation_xyz
x,y,z
-x,-y,z
x,-y,1/2-z
-x,y,1/2-z
-x,-y,-z
x,y,-z
-x,y,1/2+z
x,-y,1/2+z
1/2+x,1/2+y,z
1/2-x,1/2-y,z
1/2+x,1/2-y,1/2-z
1/2-x,1/2+y,1/2-z
1/2-x,1/2-y,-z
1/2+x,1/2+y,-z
1/2-x,1/2+y,1/2+z
1/2+x,1/2-y,1/2+z
loop_
_atom_site_type_symbol
_atom_site_label
_atom_site_fract_x
_atom_site_fract_y
_atom_site_fract_z
Si Si1 0.176638 0.370041 0.872986
Si Si2 0.409043 0.559925 0.951405
Si Si3 0.175075 0.368548 0.449343
Si Si4 0.091805 0.936257 0.641079
Si Si5 0.766750 0.938124 0.300469
O O1 0.250000 0.250000 0.884331
O O2 0.160115 0.482220 0.916137
O O3 0.098071 0.260050 0.858900
O O4 0.196571 0.477237 0.829437
O O5 0.500000 0.500000 0.950970
O O6 0.405187 0.755187 0.947461
O O7 0.366283 0.484859 0.907256
O O8 0.368280 0.508549 0.000000
O O9 0.188743 0.437089 0.500000
O O10 0.250000 0.250000 0.435217
O O11 0.143867 0.018533 0.680660
O O12 0.000000 0.000000 0.645867
O O13 0.750000 0.750000 0.302524
O O14 0.760344 0.000000 0.250000
#
# Coordination Sequence:
#
# PCOD8275922 Si02
#       5
#    16  16  16  16  16
#     4  10  20  35  57  85 115 149 191 230 281 343
#     4   9  18  34  53  75 110 152 186 222 276 332
#     4  10  19  32  54  83 113 149 195 242 281 323
#     4  10  21  37  58  84 114 149 188 234 283 329
#     4  11  22  40  63  84 111 147 186 228 282 345
#
# _framework density 19.885591000000002
#
# number of rings (size 3 to 8) (size 9 to 14) (size 15 to 20)
#    0.000    2.000    0.000    6.000    0.000    1.600 
#    0.000    9.000    0.000   12.000    0.000    0.000 
#    0.000    0.000    0.000    0.000    0.000    0.000 
#
# Total GULP energy -495566.896046 kJ/mol
# GULP energy per Si atom -12389.172401 kJ/mol
# Density = 1.984033 g / cm^3
# Si number density = 19.885591 Si / 1000 Ang^3
#
#
#
# Elastic Constant Matrix: (Units=GPa)
#
#
# Indices 1 2 3 4 5 6 
#
# 1 80.9899 69.6777 35.6591 0.0000 0.0000 0.0000
# 2 69.6777 173.2743 81.1787 0.0000 0.0000 0.0000
# 3 35.6591 81.1787 157.6757 0.0000 0.0000 0.0000
# 4 0.0000 0.0000 0.0000 43.5710 0.0000 0.0000
# 5 0.0000 0.0000 0.0000 0.0000 4.8692 0.0000
# 6 0.0000 0.0000 0.0000 0.0000 0.0000 39.4987
#
#
#
# Elastic Compliance Matrix: (Units=1/GPa)
#
#
# Indices 1 2 3 4 5 6 
#
# 1 0.018905 -0.007379 -0.000476 0.000000 0.000000 0.000000
# 2 -0.007379 0.010486 -0.003730 0.000000 0.000000 0.000000
# 3 -0.000476 -0.003730 0.008370 0.000000 0.000000 0.000000
# 4 0.000000 0.000000 0.000000 0.022951 0.000000 0.000000
# 5 0.000000 0.000000 0.000000 0.000000 0.205371 0.000000
# 6 0.000000 0.000000 0.000000 0.000000 0.000000 0.025317
#
#
# Mechanical properties :
#
#
# Convention : Reuss Voigt Hill
#
# Bulk Modulus (GPa) = 68.53647 87.21899 77.87773
# Shear Modulus (GPa) = 15.65265 32.61608 24.13436
#
# Velocity S-wave (km/s) = 2.80864 4.05432 3.48754
# Velocity P-wave (km/s) = 6.71254 8.11617 7.44750
#
# Compressibility (1/GPa) = 0.01459077
#
# Stress axis : x y z
#
# Youngs Moduli (GPa) = 52.89486 95.36591 119.47194
#
# Poissons Ratio (x) = 0.70372 0.05692
# Poissons Ratio (y) = 0.39032 0.44561
# Poissons Ratio (z) = 0.02520 0.35570
#
# Static dielectric constant tensor:
#      x y z
#    x 3.482840 0.000000 0.000000 
#    y 0.000000 4.057850 0.000000 
#    z 0.000000 0.000000 4.099300 
# 
# 
# High freq. dielectric constant tensor:
#      x y z
#    x 1.750650 0.000000 0.000000 
#    y 0.000000 1.780440 0.000000 
#    z 0.000000 0.000000 1.788360 
# 
# From -- ./inp_files/65073.got.cif
#   From: 2010.03.12/outbox.cif.g09.slc.cpg/sg66_33_cif.got.tgz:65073.got - 2010.04.10 21:57:39.
