data_PCOD8275526
_publ_section_title
;
Structure prediction by ZEFSAII (Michael W. Deem and Ramdas Pophale) SiO2 
 PCOD8275526
Probable space group: C C C M
;
_chemical_formula_sum "Si O2"
_cell_formula_units_Z 96
_cell_length_a 18.151637
_cell_length_b 18.263613
_cell_length_c 16.227240
_cell_angle_alpha 90.000000
_cell_angle_beta 90.000000
_cell_angle_gamma 90.000000
_cell_volume 5379.564925
_symmetry_space_group_name_H-M "C C C M"
_symmetry_group_IT_number 66
_symmetry_cell_setting 'orthorhombic'
loop_
_space_group_symop_operation_xyz
x,y,z
-x,-y,z
x,-y,1/2-z
-x,y,1/2-z
-x,-y,-z
x,y,-z
-x,y,1/2+z
x,-y,1/2+z
1/2+x,1/2+y,z
1/2-x,1/2-y,z
1/2+x,1/2-y,1/2-z
1/2-x,1/2+y,1/2-z
1/2-x,1/2-y,-z
1/2+x,1/2+y,-z
1/2-x,1/2+y,1/2+z
1/2+x,1/2-y,1/2+z
loop_
_atom_site_type_symbol
_atom_site_label
_atom_site_fract_x
_atom_site_fract_y
_atom_site_fract_z
Si Si1 0.418205 0.365385 0.716198
Si Si2 0.180380 0.932059 0.906707
Si Si3 0.699826 0.082648 0.233611
Si Si4 0.585401 0.798026 0.758203
Si Si5 0.332595 0.746561 0.591780
Si Si6 0.321395 0.407899 0.143423
O O1 0.500000 0.374240 0.750000
O O2 0.397227 0.396325 0.625491
O O3 0.395405 0.279652 0.715827
O O4 0.371597 0.417080 0.776184
O O5 0.247560 0.909935 0.846445
O O6 0.173597 0.019733 0.911074
O O7 0.194906 0.904061 0.000000
O O8 0.631292 0.136502 0.216418
O O9 0.739739 0.106385 0.318953
O O10 0.671670 0.000000 0.250000
O O11 0.500000 0.818213 0.750000
O O12 0.608283 0.790760 0.854197
O O13 0.336547 0.779747 0.500000
O O14 0.250000 0.750000 0.628350
O O15 0.351206 0.659935 0.589684
#
# Coordination Sequence:
#
# PCOD8275526 Si02
#       6
#    16  16  16  16  16  16
#     4   9  19  34  51  71 102 142 176 209 254 309
#     4  10  20  33  51  78 106 137 175 215 254 302
#     4   9  18  34  54  76 101 134 173 211 256 316
#     4  10  20  36  54  76 104 139 173 209 258 318
#     4  10  18  30  54  83 102 127 171 223 266 298
#     4   9  17  31  52  75 103 133 171 213 255 312
#
# _framework density 17.845309
#
# number of rings (size 3 to 8) (size 9 to 14) (size 15 to 20)
#    0.000    2.500    1.667    2.000    0.000    1.667 
#    0.000   11.667    0.000    0.000    0.000    3.500 
#    0.000    0.000    0.000    0.000    0.000    0.000 
#
# Total GULP energy -594745.003945 kJ/mol
# GULP energy per Si atom -12390.520916 kJ/mol
# Density = 1.780469 g / cm^3
# Si number density = 17.845309 Si / 1000 Ang^3
#
#
#
# Elastic Constant Matrix: (Units=GPa)
#
#
# Indices 1 2 3 4 5 6 
#
# 1 109.6662 48.0734 46.8544 0.0000 0.0000 0.0000
# 2 48.0734 67.7967 31.3705 0.0000 0.0000 0.0000
# 3 46.8544 31.3705 92.5870 0.0000 0.0000 0.0000
# 4 0.0000 0.0000 0.0000 15.3131 0.0000 0.0000
# 5 0.0000 0.0000 0.0000 0.0000 16.7039 0.0000
# 6 0.0000 0.0000 0.0000 0.0000 0.0000 28.6754
#
#
#
# Elastic Compliance Matrix: (Units=1/GPa)
#
#
# Indices 1 2 3 4 5 6 
#
# 1 0.014745 -0.008305 -0.004648 0.000000 0.000000 0.000000
# 2 -0.008305 0.022170 -0.003309 0.000000 0.000000 0.000000
# 3 -0.004648 -0.003309 0.014274 0.000000 0.000000 0.000000
# 4 0.000000 0.000000 0.000000 0.065304 0.000000 0.000000
# 5 0.000000 0.000000 0.000000 0.000000 0.059866 0.000000
# 6 0.000000 0.000000 0.000000 0.000000 0.000000 0.034873
#
#
# Mechanical properties :
#
#
# Convention : Reuss Voigt Hill
#
# Bulk Modulus (GPa) = 53.57501 58.07183 55.82342
# Shear Modulus (GPa) = 20.00190 21.72192 20.86191
#
# Velocity S-wave (km/s) = 3.35154 3.49267 3.42283
# Velocity P-wave (km/s) = 6.71299 6.99124 6.85353
#
# Compressibility (1/GPa) = 0.01866542
#
# Stress axis : x y z
#
# Youngs Moduli (GPa) = 67.82048 45.10657 70.05778
#
# Poissons Ratio (x) = 0.37459 0.32562
# Poissons Ratio (y) = 0.56322 0.23182
# Poissons Ratio (z) = 0.31523 0.14926
#
# Static dielectric constant tensor:
#      x y z
#    x 3.184490 0.000000 0.000000 
#    y 0.000000 3.328310 0.000000 
#    z 0.000000 0.000000 3.148490 
# 
# 
# High freq. dielectric constant tensor:
#      x y z
#    x 1.670490 0.000000 0.000000 
#    y 0.000000 1.693990 0.000000 
#    z 0.000000 0.000000 1.671720 
# 
# From -- ./inp_files/41726.got.cif
#   From: 2010.03.12/outbox.cif.g09.slc.cpg/sg66_21_cif.got.tgz:41726.got - 2010.04.10 21:57:39.
