data_PCOD8275173
_publ_section_title
;
Structure prediction by ZEFSAII (Michael W. Deem and Ramdas Pophale) SiO2 
 PCOD8275173
Probable space group: C M M M
;
_chemical_formula_sum "Si O2"
_cell_formula_units_Z 96
_cell_length_a 25.134251
_cell_length_b 17.513765
_cell_length_c 13.044371
_cell_angle_alpha 90.000000
_cell_angle_beta 90.000000
_cell_angle_gamma 90.000000
_cell_volume 5742.071660
_symmetry_space_group_name_H-M "C M M M"
_symmetry_group_IT_number 65
_symmetry_cell_setting 'orthorhombic'
loop_
_space_group_symop_operation_xyz
x,y,z
-x,-y,z
x,-y,-z
-x,y,-z
-x,-y,-z
x,y,-z
-x,y,z
x,-y,z
1/2+x,1/2+y,z
1/2-x,1/2-y,z
1/2+x,1/2-y,-z
1/2-x,1/2+y,-z
1/2-x,1/2-y,-z
1/2+x,1/2+y,-z
1/2-x,1/2+y,z
1/2+x,1/2-y,z
loop_
_atom_site_type_symbol
_atom_site_label
_atom_site_fract_x
_atom_site_fract_y
_atom_site_fract_z
Si Si1 0.061762 0.821563 0.300460
Si Si2 0.062845 0.500000 0.388233
Si Si3 0.152487 0.666636 0.886159
Si Si4 0.254906 0.586109 0.879060
Si Si5 0.362006 0.341860 0.883677
Si Si6 0.936744 0.912283 0.500000
Si Si7 0.938396 0.648516 0.265628
O O1 0.089502 0.850592 0.195876
O O2 0.084252 0.867961 0.398641
O O3 0.071027 0.730787 0.320191
O O4 0.000000 0.839394 0.284211
O O5 0.089272 0.500000 0.500000
O O6 0.081171 0.421390 0.335645
O O7 0.000000 0.500000 0.396115
O O8 0.205579 0.633636 0.831146
O O9 0.159344 0.756544 0.887590
O O10 0.097544 0.642003 0.834481
O O11 0.148604 0.632227 0.000000
O O12 0.244160 0.500000 0.847146
O O13 0.312844 0.609976 0.837492
O O14 0.256957 0.600023 0.000000
O O15 0.379368 0.367397 0.000000
O O16 0.000000 0.910037 0.500000
O O17 0.916078 0.000000 0.500000
O O18 0.000000 0.639699 0.233133
#
# Coordination Sequence:
#
# PCOD8275173 Si02
#       7
#    16   8  16  16  16   8  16
#     4   9  18  31  49  72  97 126 157 191 234 283
#     4   9  18  30  45  65  91 123 160 200 234 269
#     4   9  17  29  46  67  95 128 158 189 228 277
#     4   9  17  28  44  66  90 120 160 198 231 271
#     4   9  17  30  47  70  97 125 157 193 234 279
#     4   9  18  32  50  71  94 121 159 200 232 274
#     4   9  18  30  45  70  97 124 158 191 231 280
#
# _framework density 16.718705
#
# number of rings (size 3 to 8) (size 9 to 14) (size 15 to 20)
#    0.000    3.000    0.000    0.500    2.333    3.333 
#    0.000    3.333    0.000    1.500    2.167    7.000 
#    0.000    0.000    0.000    0.000    0.000    0.000 
#
# Total GULP energy -594856.624202 kJ/mol
# GULP energy per Si atom -12392.846338 kJ/mol
# Density = 1.668065 g / cm^3
# Si number density = 16.718705 Si / 1000 Ang^3
#
#
#
# Elastic Constant Matrix: (Units=GPa)
#
#
# Indices 1 2 3 4 5 6 
#
# 1 72.7706 33.0879 41.3417 0.0000 0.0000 0.0000
# 2 33.0879 71.2249 40.9939 0.0000 0.0000 0.0000
# 3 41.3417 40.9939 86.6910 0.0000 0.0000 0.0000
# 4 0.0000 0.0000 0.0000 21.1451 0.0000 0.0000
# 5 0.0000 0.0000 0.0000 0.0000 4.1438 0.0000
# 6 0.0000 0.0000 0.0000 0.0000 0.0000 19.9515
#
#
#
# Elastic Compliance Matrix: (Units=1/GPa)
#
#
# Indices 1 2 3 4 5 6 
#
# 1 0.020194 -0.005274 -0.007136 0.000000 0.000000 0.000000
# 2 -0.005274 0.020667 -0.007258 0.000000 0.000000 0.000000
# 3 -0.007136 -0.007258 0.018371 0.000000 0.000000 0.000000
# 4 0.000000 0.000000 0.000000 0.047292 0.000000 0.000000
# 5 0.000000 0.000000 0.000000 0.000000 0.241324 0.000000
# 6 0.000000 0.000000 0.000000 0.000000 0.000000 0.050122
#
#
# Mechanical properties :
#
#
# Convention : Reuss Voigt Hill
#
# Bulk Modulus (GPa) = 50.26265 51.28150 50.77208
# Shear Modulus (GPa) = 11.26282 16.73228 13.99755
#
# Velocity S-wave (km/s) = 2.59832 3.16699 2.89665
# Velocity P-wave (km/s) = 6.25545 6.64175 6.45149
#
# Compressibility (1/GPa) = 0.01989549
#
# Stress axis : x y z
#
# Youngs Moduli (GPa) = 49.51958 48.38522 54.43470
#
# Poissons Ratio (x) = 0.25518 0.38847
# Poissons Ratio (y) = 0.26116 0.39509
# Poissons Ratio (z) = 0.35339 0.35118
#
# Static dielectric constant tensor:
#      x y z
#    x 3.043200 0.000000 0.000000 
#    y 0.000000 3.281030 0.000000 
#    z 0.000000 0.000000 3.087590 
# 
# 
# High freq. dielectric constant tensor:
#      x y z
#    x 1.628880 0.000000 0.000000 
#    y 0.000000 1.652550 0.000000 
#    z 0.000000 0.000000 1.614050 
# 
# From -- ./inp_files/32486.got.cif
#   From: 2010.03.12/outbox.cif.g09.slc.cpg/sg65_17_cif.got.tgz:32486.got - 2010.04.10 20:52:16.
