data_PCOD8275954
_publ_section_title
;
Structure prediction by ZEFSAII (Michael W. Deem and Ramdas Pophale) SiO2 
 PCOD8275954
Probable space group: C C C M
;
_chemical_formula_sum "Si O2"
_cell_formula_units_Z 72
_cell_length_a 16.947180
_cell_length_b 23.323397
_cell_length_c 9.602392
_cell_angle_alpha 90.000000
_cell_angle_beta 90.000000
_cell_angle_gamma 90.000000
_cell_volume 3795.497225
_symmetry_space_group_name_H-M "C C C M"
_symmetry_group_IT_number 66
_symmetry_cell_setting 'orthorhombic'
loop_
_space_group_symop_operation_xyz
x,y,z
-x,-y,z
x,-y,1/2-z
-x,y,1/2-z
-x,-y,-z
x,y,-z
-x,y,1/2+z
x,-y,1/2+z
1/2+x,1/2+y,z
1/2-x,1/2-y,z
1/2+x,1/2-y,1/2-z
1/2-x,1/2+y,1/2-z
1/2-x,1/2-y,-z
1/2+x,1/2+y,-z
1/2-x,1/2+y,1/2+z
1/2+x,1/2-y,1/2+z
loop_
_atom_site_type_symbol
_atom_site_label
_atom_site_fract_x
_atom_site_fract_y
_atom_site_fract_z
Si Si1 0.500000 0.646931 0.250000
Si Si2 0.394627 0.450747 0.347463
Si Si3 0.698345 0.163158 0.665820
Si Si4 0.142692 0.782178 0.657029
Si Si5 0.787216 0.555627 0.334228
O O1 0.552908 0.606775 0.348312
O O2 0.442413 0.688340 0.335236
O O3 0.430967 0.500000 0.250000
O O4 0.396395 0.477965 0.500000
O O5 0.305656 0.436319 0.304417
O O6 0.693120 0.148033 0.500000
O O7 0.787383 0.178602 0.718765
O O8 0.642631 0.216680 0.713703
O O9 0.670212 0.109508 0.759904
O O10 0.169172 0.774337 0.500000
O O11 0.817754 0.500000 0.250000
O O12 0.806554 0.551955 0.500000
#
# Coordination Sequence:
#
# PCOD8275954 Si02
#       5
#     8  16  16  16  16
#     4  12  19  32  50  74 103 134 176 212 250 296
#     4  10  22  34  46  68 101 138 173 208 246 290
#     4   9  17  35  54  72  97 134 175 214 254 300
#     4   9  19  32  51  72  98 136 176 212 255 301
#     4  10  19  33  51  76 101 132 170 210 255 300
#
# _framework density 18.969847000000001
#
# number of rings (size 3 to 8) (size 9 to 14) (size 15 to 20)
#    0.000    2.222    2.222    3.000    0.000    3.556 
#    0.000    4.444    0.000    0.000    0.000    0.778 
#    0.000    5.333    0.000    0.000    0.000    0.000 
#
# Total GULP energy -446007.700638 kJ/mol
# GULP energy per Si atom -12389.102795 kJ/mol
# Density = 1.892667 g / cm^3
# Si number density = 18.969847 Si / 1000 Ang^3
#
#
#
# Elastic Constant Matrix: (Units=GPa)
#
#
# Indices 1 2 3 4 5 6 
#
# 1 31.2822 23.7322 6.2152 0.0000 0.0000 0.0000
# 2 23.7322 161.1084 63.4712 0.0000 0.0000 0.0000
# 3 6.2152 63.4712 93.4036 0.0000 0.0000 0.0000
# 4 0.0000 0.0000 0.0000 33.7239 0.0000 0.0000
# 5 0.0000 0.0000 0.0000 0.0000 -2.3695 0.0000
# 6 0.0000 0.0000 0.0000 0.0000 0.0000 33.0674
#
#
#
# Elastic Compliance Matrix: (Units=1/GPa)
#
#
# Indices 1 2 3 4 5 6 
#
# 1 0.036176 -0.005982 0.001658 0.000000 0.000000 0.000000
# 2 -0.005982 0.009465 -0.006034 0.000000 0.000000 0.000000
# 3 0.001658 -0.006034 0.014696 0.000000 0.000000 0.000000
# 4 0.000000 0.000000 0.000000 0.029653 0.000000 0.000000
# 5 0.000000 0.000000 0.000000 0.000000 -0.422027 0.000000
# 6 0.000000 0.000000 0.000000 0.000000 0.000000 0.030241
#
#
# Mechanical properties :
#
#
# Convention : Reuss Voigt Hill
#
# Bulk Modulus (GPa) = 25.23907 52.51460 38.87683
# Shear Modulus (GPa) = -18.66562 25.70940 3.52189
#
# Velocity S-wave (km/s) = -3.14022 3.68540 1.36404
# Velocity P-wave (km/s) = 0.43097 6.77148 4.79784
#
# Compressibility (1/GPa) = 0.03962112
#
# Stress axis : x y z
#
# Youngs Moduli (GPa) = 27.64265 105.64798 68.04453
#
# Poissons Ratio (x) = 0.63199 -0.11281
# Poissons Ratio (y) = 0.16536 0.41058
# Poissons Ratio (z) = -0.04583 0.63748
#
# Static dielectric constant tensor:
#      x y z
#    x 3.010550 0.000000 0.000000 
#    y 0.000000 3.602110 0.000000 
#    z 0.000000 0.000000 3.264690 
# 
# 
# High freq. dielectric constant tensor:
#      x y z
#    x 1.688060 0.000000 0.000000 
#    y 0.000000 1.750880 0.000000 
#    z 0.000000 0.000000 1.721340 
# 
# From -- ./inp_files/6489.got.cif
#   From: 2010.03.12/outbox.cif.g09.slc.cpg/sg66_4_cif.got.tgz:6489.got - 2010.04.10 21:57:39.
