data_PCOD8275603
_publ_section_title
;
Structure prediction by ZEFSAII (Michael W. Deem and Ramdas Pophale) SiO2 
 PCOD8275603
Probable space group: C C C M
;
_chemical_formula_sum "Si O2"
_cell_formula_units_Z 128
_cell_length_a 16.666197
_cell_length_b 24.609866
_cell_length_c 17.406172
_cell_angle_alpha 90.000000
_cell_angle_beta 90.000000
_cell_angle_gamma 90.000000
_cell_volume 7139.191487
_symmetry_space_group_name_H-M "C C C M"
_symmetry_group_IT_number 66
_symmetry_cell_setting 'orthorhombic'
loop_
_space_group_symop_operation_xyz
x,y,z
-x,-y,z
x,-y,1/2-z
-x,y,1/2-z
-x,-y,-z
x,y,-z
-x,y,1/2+z
x,-y,1/2+z
1/2+x,1/2+y,z
1/2-x,1/2-y,z
1/2+x,1/2-y,1/2-z
1/2-x,1/2+y,1/2-z
1/2-x,1/2-y,-z
1/2+x,1/2+y,-z
1/2-x,1/2+y,1/2+z
1/2+x,1/2-y,1/2+z
loop_
_atom_site_type_symbol
_atom_site_label
_atom_site_fract_x
_atom_site_fract_y
_atom_site_fract_z
Si Si1 0.168082 0.718307 0.913397
Si Si2 0.588151 0.475034 0.671137
Si Si3 0.259464 0.506832 0.915230
Si Si4 0.411979 0.859541 0.714888
Si Si5 0.193238 0.389773 0.912092
Si Si6 0.212146 0.390338 0.327735
Si Si7 0.091948 0.241949 0.737656
Si Si8 0.333098 0.634392 0.297670
O O1 0.250000 0.750000 0.916189
O O2 0.187140 0.657211 0.886321
O O3 0.110595 0.750885 0.853754
O O4 0.130082 0.716948 0.000000
O O5 0.500000 0.500000 0.652557
O O6 0.619958 0.500000 0.750000
O O7 0.648656 0.494525 0.606267
O O8 0.595692 0.408822 0.679448
O O9 0.204247 0.454134 0.908778
O O10 0.215274 0.552267 0.867673
O O11 0.264323 0.530000 0.000000
O O12 0.500000 0.866583 0.750000
O O13 0.394341 0.875832 0.625956
O O14 0.356052 0.898619 0.764361
O O15 0.381933 0.797674 0.721946
O O16 0.266000 0.362205 0.864478
O O17 0.194239 0.368558 0.000000
O O18 0.296550 0.381266 0.285061
O O19 0.135860 0.194839 0.784188
O O20 0.000000 0.229331 0.750000
#
# Coordination Sequence:
#
# PCOD8275603 Si02
#       8
#    16  16  16  16  16  16  16  16
#     4  10  19  33  54  79 107 137 178 225 270 319
#     4  10  20  32  51  77 108 143 183 211 255 310
#     4  10  20  35  53  79 107 137 179 222 267 314
#     4   9  20  37  56  79 105 137 178 218 274 332
#     4   9  20  37  58  79 107 142 181 227 268 315
#     4  10  18  32  56  79 104 139 177 216 266 320
#     4  10  21  36  54  81 109 143 180 223 272 323
#     4  10  19  33  56  78 109 144 186 222 255 315
#
# _framework density 17.929202
#
# number of rings (size 3 to 8) (size 9 to 14) (size 15 to 20)
#    0.000    2.250    2.500    0.375    1.750    0.250 
#    0.000    9.375    0.000    1.500    0.000    0.000 
#    0.000    0.000    0.000    0.000    0.000    0.000 
#
# Total GULP energy -792936.001885 kJ/mol
# GULP energy per Si atom -12389.625029 kJ/mol
# Density = 1.788839 g / cm^3
# Si number density = 17.929202 Si / 1000 Ang^3
#
#
#
# Elastic Constant Matrix: (Units=GPa)
#
#
# Indices 1 2 3 4 5 6 
#
# 1 85.4226 45.9150 51.3601 0.0000 0.0000 0.0000
# 2 45.9150 91.2533 55.3523 0.0000 0.0000 0.0000
# 3 51.3601 55.3523 128.4008 0.0000 0.0000 0.0000
# 4 0.0000 0.0000 0.0000 24.5217 0.0000 0.0000
# 5 0.0000 0.0000 0.0000 0.0000 21.2743 0.0000
# 6 0.0000 0.0000 0.0000 0.0000 0.0000 21.7604
#
#
#
# Elastic Compliance Matrix: (Units=1/GPa)
#
#
# Indices 1 2 3 4 5 6 
#
# 1 0.017702 -0.006245 -0.004389 0.000000 0.000000 0.000000
# 2 -0.006245 0.017042 -0.004849 0.000000 0.000000 0.000000
# 3 -0.004389 -0.004849 0.011634 0.000000 0.000000 0.000000
# 4 0.000000 0.000000 0.000000 0.040780 0.000000 0.000000
# 5 0.000000 0.000000 0.000000 0.000000 0.047005 0.000000
# 6 0.000000 0.000000 0.000000 0.000000 0.000000 0.045955
#
#
# Mechanical properties :
#
#
# Convention : Reuss Voigt Hill
#
# Bulk Modulus (GPa) = 64.87947 67.81460 66.34704
# Shear Modulus (GPa) = 23.12470 23.67458 23.39964
#
# Velocity S-wave (km/s) = 3.59524 3.63774 3.61655
# Velocity P-wave (km/s) = 7.31433 7.45318 7.38408
#
# Compressibility (1/GPa) = 0.01541320
#
# Stress axis : x y z
#
# Youngs Moduli (GPa) = 56.49161 58.67969 85.95694
#
# Poissons Ratio (x) = 0.36644 0.37723
# Poissons Ratio (y) = 0.35278 0.41677
# Poissons Ratio (z) = 0.24792 0.28451
#
# Static dielectric constant tensor:
#      x y z
#    x 3.207910 0.000000 0.000000 
#    y 0.000000 3.424000 0.000000 
#    z 0.000000 0.000000 3.680280 
# 
# 
# High freq. dielectric constant tensor:
#      x y z
#    x 1.678220 0.000000 0.000000 
#    y 0.000000 1.697340 0.000000 
#    z 0.000000 0.000000 1.695550 
# 
# From -- ./inp_files/42176.got.cif
#   From: 2010.03.12/outbox.cif.g09.slc.cpg/sg66_22_cif.got.tgz:42176.got - 2010.04.10 21:57:39.
