data_PCOD8275384
_publ_section_title
;
Structure prediction by ZEFSAII (Michael W. Deem and Ramdas Pophale) SiO2 
 PCOD8275384
Probable space group: C C C M
;
_chemical_formula_sum "Si O2"
_cell_formula_units_Z 80
_cell_length_a 9.747971
_cell_length_b 16.907093
_cell_length_c 25.392926
_cell_angle_alpha 90.000000
_cell_angle_beta 90.000000
_cell_angle_gamma 90.000000
_cell_volume 4185.004382
_symmetry_space_group_name_H-M "C C C M"
_symmetry_group_IT_number 66
_symmetry_cell_setting 'orthorhombic'
loop_
_space_group_symop_operation_xyz
x,y,z
-x,-y,z
x,-y,1/2-z
-x,y,1/2-z
-x,-y,-z
x,y,-z
-x,y,1/2+z
x,-y,1/2+z
1/2+x,1/2+y,z
1/2-x,1/2-y,z
1/2+x,1/2-y,1/2-z
1/2-x,1/2+y,1/2-z
1/2-x,1/2-y,-z
1/2+x,1/2+y,-z
1/2-x,1/2+y,1/2+z
1/2+x,1/2-y,1/2+z
loop_
_atom_site_type_symbol
_atom_site_label
_atom_site_fract_x
_atom_site_fract_y
_atom_site_fract_z
Si Si1 0.338378 0.014156 0.809805
Si Si2 0.022004 0.407831 0.440119
Si Si3 0.303263 0.561787 0.904205
Si Si4 0.418743 0.397972 0.060123
Si Si5 0.201254 0.332250 0.128514
O O1 0.292406 0.102758 0.825428
O O2 0.500000 0.000000 0.817900
O O3 0.294471 0.000000 0.750000
O O4 0.250384 0.953496 0.845091
O O5 0.971148 0.395483 0.500000
O O6 0.184564 0.391541 0.435737
O O7 0.000000 0.500000 0.422072
O O8 0.943908 0.346186 0.401631
O O9 0.443689 0.611387 0.904403
O O10 0.341082 0.481633 0.935185
O O11 0.314534 0.334803 0.082546
O O12 0.456716 0.380591 0.000000
O O13 0.250000 0.250000 0.155604
#
# Coordination Sequence:
#
# PCOD8275384 Si02
#       5
#    16  16  16  16  16
#     4  10  19  37  66  86 102 143 202 247 290 343
#     4  11  18  30  54  82 112 153 201 231 265 339
#     4  10  17  32  53  83 110 143 196 245 277 322
#     4  10  19  31  52  83 119 154 183 230 287 335
#     4  11  22  37  55  84 119 148 188 242 297 343
#
# _framework density 19.115870999999999
#
# number of rings (size 3 to 8) (size 9 to 14) (size 15 to 20)
#    0.000    1.600    6.000    3.000    0.000    1.600 
#    0.000    9.000    8.800    2.400    0.000    0.000 
#    0.000    0.000    0.000    0.000    0.000    0.000 
#
# Total GULP energy -495579.809570 kJ/mol
# GULP energy per Si atom -12389.495239 kJ/mol
# Density = 1.907236 g / cm^3
# Si number density = 19.115871 Si / 1000 Ang^3
#
#
#
# Elastic Constant Matrix: (Units=GPa)
#
#
# Indices 1 2 3 4 5 6 
#
# 1 130.5976 28.7637 41.3410 0.0000 0.0000 0.0000
# 2 28.7637 59.3521 21.9778 0.0000 0.0000 0.0000
# 3 41.3410 21.9778 133.5850 0.0000 0.0000 0.0000
# 4 0.0000 0.0000 0.0000 13.0250 0.0000 0.0000
# 5 0.0000 0.0000 0.0000 0.0000 29.6751 0.0000
# 6 0.0000 0.0000 0.0000 0.0000 0.0000 23.8219
#
#
#
# Elastic Compliance Matrix: (Units=1/GPa)
#
#
# Indices 1 2 3 4 5 6 
#
# 1 0.009162 -0.003610 -0.002241 0.000000 0.000000 0.000000
# 2 -0.003610 0.019364 -0.002069 0.000000 0.000000 0.000000
# 3 -0.002241 -0.002069 0.008520 0.000000 0.000000 0.000000
# 4 0.000000 0.000000 0.000000 0.076776 0.000000 0.000000
# 5 0.000000 0.000000 0.000000 0.000000 0.033698 0.000000
# 6 0.000000 0.000000 0.000000 0.000000 0.000000 0.041978
#
#
# Mechanical properties :
#
#
# Convention : Reuss Voigt Hill
#
# Bulk Modulus (GPa) = 47.15737 56.41109 51.78423
# Shear Modulus (GPa) = 23.53977 28.73453 26.13715
#
# Velocity S-wave (km/s) = 3.51297 3.88129 3.70172
# Velocity P-wave (km/s) = 6.41696 7.04699 6.73934
#
# Compressibility (1/GPa) = 0.02120559
#
# Stress axis : x y z
#
# Youngs Moduli (GPa) = 109.14977 51.64186 117.37292
#
# Poissons Ratio (x) = 0.18643 0.26308
# Poissons Ratio (y) = 0.39404 0.24280
# Poissons Ratio (z) = 0.24465 0.10683
#
# Static dielectric constant tensor:
#      x y z
#    x 3.955160 0.000000 0.000000 
#    y 0.000000 3.321520 0.000000 
#    z 0.000000 0.000000 3.504180 
# 
# 
# High freq. dielectric constant tensor:
#      x y z
#    x 1.760070 0.000000 0.000000 
#    y 0.000000 1.692930 0.000000 
#    z 0.000000 0.000000 1.731190 
# 
# From -- ./inp_files/68136.got.cif
#   From: 2010.03.12/outbox.cif.g09.slc.cpg/sg66_35_cif.got.tgz:68136.got - 2010.04.10 21:57:39.
