data_PCOD8275298
_publ_section_title
;
Structure prediction by ZEFSAII (Michael W. Deem and Ramdas Pophale) SiO2 
 PCOD8275298
Probable space group: C C C M
;
_chemical_formula_sum "Si O2"
_cell_formula_units_Z 112
_cell_length_a 22.615635
_cell_length_b 17.257837
_cell_length_c 18.249781
_cell_angle_alpha 90.000000
_cell_angle_beta 90.000000
_cell_angle_gamma 90.000000
_cell_volume 7122.833725
_symmetry_space_group_name_H-M "C C C M"
_symmetry_group_IT_number 66
_symmetry_cell_setting 'orthorhombic'
loop_
_space_group_symop_operation_xyz
x,y,z
-x,-y,z
x,-y,1/2-z
-x,y,1/2-z
-x,-y,-z
x,y,-z
-x,y,1/2+z
x,-y,1/2+z
1/2+x,1/2+y,z
1/2-x,1/2-y,z
1/2+x,1/2-y,1/2-z
1/2-x,1/2+y,1/2-z
1/2-x,1/2-y,-z
1/2+x,1/2+y,-z
1/2-x,1/2+y,1/2+z
1/2+x,1/2-y,1/2+z
loop_
_atom_site_type_symbol
_atom_site_label
_atom_site_fract_x
_atom_site_fract_y
_atom_site_fract_z
Si Si1 0.713054 0.326332 0.586452
Si Si2 0.545410 0.343022 0.084907
Si Si3 0.591514 0.509137 0.665219
Si Si4 0.339768 0.736855 0.086346
Si Si5 0.273356 0.513783 0.665567
Si Si6 0.917487 0.144559 0.416683
Si Si7 0.263175 0.126890 0.586405
O O1 0.721957 0.345108 0.500000
O O2 0.750000 0.250000 0.608696
O O3 0.735287 0.398038 0.636656
O O4 0.643208 0.310961 0.605664
O O5 0.555594 0.418982 0.133301
O O6 0.592662 0.278208 0.110956
O O7 0.478870 0.307243 0.094795
O O8 0.556741 0.365187 0.000000
O O9 0.577193 0.500000 0.750000
O O10 0.660939 0.516549 0.649266
O O11 0.568823 0.431724 0.628254
O O12 0.318649 0.821136 0.114289
O O13 0.296614 0.668972 0.115703
O O14 0.332364 0.737121 0.000000
O O15 0.257218 0.500000 0.750000
O O16 0.229656 0.458112 0.620646
O O17 0.910120 0.118420 0.500000
O O18 0.262378 0.116553 0.500000
#
# Coordination Sequence:
#
# PCOD8275298 Si02
#       7
#    16  16  16  16  16  16  16
#     4   9  18  34  51  65  85 117 156 190 218 257
#     4  10  17  27  42  61  86 113 141 176 215 257
#     4  10  19  28  38  57  87 121 148 174 206 250
#     4   8  15  25  41  64  86 111 141 171 212 261
#     4  10  19  30  43  67  91 116 149 184 225 260
#     4   9  18  29  43  61  81 111 148 180 213 254
#     4   9  15  27  44  62  85 115 146 175 213 264
#
# _framework density 15.724078
#
# number of rings (size 3 to 8) (size 9 to 14) (size 15 to 20)
#    0.000    2.714    1.429    2.143    0.000    3.429 
#    2.571    0.000    0.000    0.000    0.000    1.000 
#    0.000    8.000    0.000    0.000    0.000    0.000 
#
# Total GULP energy -693746.656621 kJ/mol
# GULP energy per Si atom -12388.333154 kJ/mol
# Density = 1.568829 g / cm^3
# Si number density = 15.724078 Si / 1000 Ang^3
#
#
#
# Elastic Constant Matrix: (Units=GPa)
#
#
# Indices 1 2 3 4 5 6 
#
# 1 106.6675 68.5253 30.7844 0.0000 0.0000 0.0000
# 2 68.5253 98.7073 40.1537 0.0000 0.0000 0.0000
# 3 30.7844 40.1537 47.9620 0.0000 0.0000 0.0000
# 4 0.0000 0.0000 0.0000 4.9207 0.0000 0.0000
# 5 0.0000 0.0000 0.0000 0.0000 11.1564 0.0000
# 6 0.0000 0.0000 0.0000 0.0000 0.0000 21.8108
#
#
#
# Elastic Compliance Matrix: (Units=1/GPa)
#
#
# Indices 1 2 3 4 5 6 
#
# 1 0.016999 -0.011165 -0.001563 0.000000 0.000000 0.000000
# 2 -0.011165 0.022697 -0.011835 0.000000 0.000000 0.000000
# 3 -0.001563 -0.011835 0.031762 0.000000 0.000000 0.000000
# 4 0.000000 0.000000 0.000000 0.203222 0.000000 0.000000
# 5 0.000000 0.000000 0.000000 0.000000 0.089634 0.000000
# 6 0.000000 0.000000 0.000000 0.000000 0.000000 0.045849
#
#
# Mechanical properties :
#
#
# Convention : Reuss Voigt Hill
#
# Bulk Modulus (GPa) = 44.78313 59.14039 51.96176
# Shear Modulus (GPa) = 10.71277 15.16915 12.94096
#
# Velocity S-wave (km/s) = 2.61300 3.10935 2.87191
# Velocity P-wave (km/s) = 6.13564 7.11222 6.64191
#
# Compressibility (1/GPa) = 0.02232984
#
# Stress axis : x y z
#
# Youngs Moduli (GPa) = 58.82781 44.05945 31.48454
#
# Poissons Ratio (x) = 0.49193 0.04922
# Poissons Ratio (y) = 0.65682 0.37263
# Poissons Ratio (z) = 0.09196 0.52145
#
# Static dielectric constant tensor:
#      x y z
#    x 3.218690 0.000000 0.000000 
#    y 0.000000 2.900470 0.000000 
#    z 0.000000 0.000000 2.910680 
# 
# 
# High freq. dielectric constant tensor:
#      x y z
#    x 1.595380 0.000000 0.000000 
#    y 0.000000 1.571400 0.000000 
#    z 0.000000 0.000000 1.592790 
# 
# From -- ./inp_files/43146.got.cif
#   From: 2010.03.12/outbox.cif.g09.slc.cpg/sg66_22_cif.got.tgz:43146.got - 2010.04.10 21:57:39.
