data_PCOD8275957
_publ_section_title
;
Structure prediction by ZEFSAII (Michael W. Deem and Ramdas Pophale) SiO2 
 PCOD8275957
Probable space group: C C C M
;
_chemical_formula_sum "Si O2"
_cell_formula_units_Z 96
_cell_length_a 19.154192
_cell_length_b 27.875099
_cell_length_c 9.160288
_cell_angle_alpha 90.000000
_cell_angle_beta 90.000000
_cell_angle_gamma 90.000000
_cell_volume 4890.906755
_symmetry_space_group_name_H-M "C C C M"
_symmetry_group_IT_number 66
_symmetry_cell_setting 'orthorhombic'
loop_
_space_group_symop_operation_xyz
x,y,z
-x,-y,z
x,-y,1/2-z
-x,y,1/2-z
-x,-y,-z
x,y,-z
-x,y,1/2+z
x,-y,1/2+z
1/2+x,1/2+y,z
1/2-x,1/2-y,z
1/2+x,1/2-y,1/2-z
1/2-x,1/2+y,1/2-z
1/2-x,1/2-y,-z
1/2+x,1/2+y,-z
1/2-x,1/2+y,1/2+z
1/2+x,1/2-y,1/2+z
loop_
_atom_site_type_symbol
_atom_site_label
_atom_site_fract_x
_atom_site_fract_y
_atom_site_fract_z
Si Si1 0.719457 0.801969 0.329935
Si Si2 0.563424 0.803716 0.659228
Si Si3 0.681006 0.951347 0.163208
Si Si4 0.938464 0.413224 0.840932
Si Si5 0.695393 0.617730 0.162479
Si Si6 0.573835 0.549265 0.176151
O O1 0.714345 0.814961 0.500000
O O2 0.750000 0.750000 0.299316
O O3 0.640294 0.801517 0.264351
O O4 0.772174 0.840798 0.262158
O O5 0.500000 0.778624 0.750000
O O6 0.567040 0.778125 0.500000
O O7 0.541105 0.858351 0.635735
O O8 0.632229 0.914396 0.249046
O O9 0.757129 0.929355 0.159151
O O10 0.681990 0.000000 0.250000
O O11 0.652198 0.959892 0.000000
O O12 0.000000 0.439682 0.750000
O O13 0.930039 0.438030 0.000000
O O14 0.621766 0.595604 0.216459
O O15 0.688387 0.639594 0.000000
O O16 0.602912 0.500000 0.250000
O O17 0.500000 0.561060 0.250000
O O18 0.568339 0.542691 0.000000
#
# Coordination Sequence:
#
# PCOD8275957 Si02
#       6
#    16  16  16  16  16  16
#     4  10  21  38  60  86 114 146 188 235 288 344
#     4   9  18  33  55  81 107 142 183 225 272 326
#     4  11  22  35  52  77 108 144 183 225 271 323
#     4  10  19  33  52  75 104 141 182 224 268 316
#     4  10  22  38  57  82 113 146 185 230 281 337
#     4  10  20  36  58  87 118 153 193 233 282 344
#
# _framework density 19.628261999999999
#
# number of rings (size 3 to 8) (size 9 to 14) (size 15 to 20)
#    0.000    2.000    1.667    2.500    0.000    4.000 
#    0.000    2.500    0.000    4.000    0.000    0.000 
#    0.000    0.000    0.000    0.000    0.000    0.000 
#
# Total GULP energy -594793.203895 kJ/mol
# GULP energy per Si atom -12391.525081 kJ/mol
# Density = 1.958359 g / cm^3
# Si number density = 19.628262 Si / 1000 Ang^3
#
#
#
# Elastic Constant Matrix: (Units=GPa)
#
#
# Indices 1 2 3 4 5 6 
#
# 1 127.0591 48.3738 56.5411 0.0000 0.0000 0.0000
# 2 48.3738 50.3400 38.5665 0.0000 0.0000 0.0000
# 3 56.5411 38.5665 125.1728 0.0000 0.0000 0.0000
# 4 0.0000 0.0000 0.0000 19.6368 0.0000 0.0000
# 5 0.0000 0.0000 0.0000 0.0000 31.9763 0.0000
# 6 0.0000 0.0000 0.0000 0.0000 0.0000 -92.1294
#
#
#
# Elastic Compliance Matrix: (Units=1/GPa)
#
#
# Indices 1 2 3 4 5 6 
#
# 1 0.013054 -0.010507 -0.002659 0.000000 0.000000 0.000000
# 2 -0.010507 0.034459 -0.005871 0.000000 0.000000 0.000000
# 3 -0.002659 -0.005871 0.010999 0.000000 0.000000 0.000000
# 4 0.000000 0.000000 0.000000 0.050925 0.000000 0.000000
# 5 0.000000 0.000000 0.000000 0.000000 0.031273 0.000000
# 6 0.000000 0.000000 0.000000 0.000000 0.000000 -0.010854
#
#
# Mechanical properties :
#
#
# Convention : Reuss Voigt Hill
#
# Bulk Modulus (GPa) = 48.92874 65.50385 57.21630
# Shear Modulus (GPa) = 28.61352 2.50277 15.55815
#
# Velocity S-wave (km/s) = 3.82222 1.13042 2.81844
# Velocity P-wave (km/s) = 6.66791 5.92861 6.30910
#
# Compressibility (1/GPa) = 0.02043789
#
# Stress axis : x y z
#
# Youngs Moduli (GPa) = 76.60618 29.01991 90.91627
#
# Poissons Ratio (x) = 0.30490 0.24178
# Poissons Ratio (y) = 0.80487 0.53379
# Poissons Ratio (z) = 0.20372 0.17038
#
# Static dielectric constant tensor:
#      x y z
#    x 3.930160 0.000000 0.000000 
#    y 0.000000 3.175140 0.000000 
#    z 0.000000 0.000000 3.934750 
# 
# 
# High freq. dielectric constant tensor:
#      x y z
#    x 1.773760 0.000000 0.000000 
#    y 0.000000 1.729440 0.000000 
#    z 0.000000 0.000000 1.771190 
# 
# From -- ./inp_files/7979.got.cif
#   From: 2010.03.12/outbox.cif.g09.slc.cpg/sg66_4_cif.got.tgz:7979.got - 2010.04.10 21:57:39.
