data_PCOD8275454
_publ_section_title
;
Structure prediction by ZEFSAII (Michael W. Deem and Ramdas Pophale) SiO2 
 PCOD8275454
Probable space group: C C C M
;
_chemical_formula_sum "Si O2"
_cell_formula_units_Z 80
_cell_length_a 23.943686
_cell_length_b 23.193262
_cell_length_c 9.143755
_cell_angle_alpha 90.000000
_cell_angle_beta 90.000000
_cell_angle_gamma 90.000000
_cell_volume 5077.821422
_symmetry_space_group_name_H-M "C C C M"
_symmetry_group_IT_number 66
_symmetry_cell_setting 'orthorhombic'
loop_
_space_group_symop_operation_xyz
x,y,z
-x,-y,z
x,-y,1/2-z
-x,y,1/2-z
-x,-y,-z
x,y,-z
-x,y,1/2+z
x,-y,1/2+z
1/2+x,1/2+y,z
1/2-x,1/2-y,z
1/2+x,1/2-y,1/2-z
1/2-x,1/2+y,1/2-z
1/2-x,1/2-y,-z
1/2+x,1/2+y,-z
1/2-x,1/2+y,1/2+z
1/2+x,1/2-y,1/2+z
loop_
_atom_site_type_symbol
_atom_site_label
_atom_site_fract_x
_atom_site_fract_y
_atom_site_fract_z
Si Si1 0.445322 0.115495 0.170237
Si Si2 0.337480 0.272548 0.668099
Si Si3 0.829876 0.559730 0.826682
Si Si4 0.270311 0.841258 0.831446
Si Si5 0.555379 0.248953 0.328705
O O1 0.500000 0.090390 0.250000
O O2 0.391496 0.079998 0.222907
O O3 0.435859 0.182019 0.212112
O O4 0.455797 0.107961 0.000000
O O5 0.356571 0.269774 0.500000
O O6 0.308431 0.212772 0.713576
O O7 0.294441 0.324899 0.692922
O O8 0.391313 0.283752 0.768688
O O9 0.815707 0.500000 0.750000
O O10 0.784252 0.605665 0.773366
O O11 0.825430 0.553370 0.000000
O O12 0.281038 0.858174 0.000000
O O13 0.500000 0.272814 0.250000
O O14 0.549488 0.259498 0.500000
#
# Coordination Sequence:
#
# PCOD8275454 Si02
#       5
#    16  16  16  16  16
#     4   9  19  32  45  62  86 118 157 198 236 274
#     4   9  17  30  49  71  94 120 151 188 233 284
#     4  11  22  35  48  66  90 120 160 201 240 279
#     4   9  18  32  49  69  92 120 153 190 235 282
#     4  10  18  29  45  68  95 124 156 191 233 277
#
# _framework density 15.754788
#
# number of rings (size 3 to 8) (size 9 to 14) (size 15 to 20)
#    0.000    2.400    2.000    2.400    0.000    3.600 
#    0.000    4.000    0.000    0.000    0.000    0.000 
#    0.000    0.800    0.000    8.400    0.000    3.600 
#
# Total GULP energy -496074.442262 kJ/mol
# GULP energy per Si atom -12401.861057 kJ/mol
# Density = 1.571893 g / cm^3
# Si number density = 15.754788 Si / 1000 Ang^3
#
#
#
# Elastic Constant Matrix: (Units=GPa)
#
#
# Indices 1 2 3 4 5 6 
#
# 1 105.4062 39.4569 55.7839 0.0000 0.0000 0.0000
# 2 39.4569 61.8059 34.6255 0.0000 0.0000 0.0000
# 3 55.7839 34.6255 74.8166 0.0000 0.0000 0.0000
# 4 0.0000 0.0000 0.0000 18.1962 0.0000 0.0000
# 5 0.0000 0.0000 0.0000 0.0000 32.7776 0.0000
# 6 0.0000 0.0000 0.0000 0.0000 0.0000 18.7076
#
#
#
# Elastic Compliance Matrix: (Units=1/GPa)
#
#
# Indices 1 2 3 4 5 6 
#
# 1 0.016737 -0.004986 -0.010171 0.000000 0.000000 0.000000
# 2 -0.004986 0.023329 -0.007079 0.000000 0.000000 0.000000
# 3 -0.010171 -0.007079 0.024226 0.000000 0.000000 0.000000
# 4 0.000000 0.000000 0.000000 0.054957 0.000000 0.000000
# 5 0.000000 0.000000 0.000000 0.000000 0.030509 0.000000
# 6 0.000000 0.000000 0.000000 0.000000 0.000000 0.053454
#
#
# Mechanical properties :
#
#
# Convention : Reuss Voigt Hill
#
# Bulk Modulus (GPa) = 50.45812 55.75127 53.10470
# Shear Modulus (GPa) = 19.66263 21.41376 20.53819
#
# Velocity S-wave (km/s) = 3.53660 3.69072 3.61448
# Velocity P-wave (km/s) = 6.98379 7.32295 7.15538
#
# Compressibility (1/GPa) = 0.01981842
#
# Stress axis : x y z
#
# Youngs Moduli (GPa) = 59.74940 42.86557 41.27825
#
# Poissons Ratio (x) = 0.21375 0.41985
# Poissons Ratio (y) = 0.29794 0.29220
# Poissons Ratio (z) = 0.60772 0.30343
#
# Static dielectric constant tensor:
#      x y z
#    x 3.029130 0.000000 0.000000 
#    y 0.000000 2.672190 0.000000 
#    z 0.000000 0.000000 2.959940 
# 
# 
# High freq. dielectric constant tensor:
#      x y z
#    x 1.604510 0.000000 0.000000 
#    y 0.000000 1.559980 0.000000 
#    z 0.000000 0.000000 1.611870 
# 
# From -- ./inp_files/8212.got.cif
#   From: 2010.03.12/outbox.cif.g09.slc.cpg/sg66_5_cif.got.tgz:8212.got - 2010.04.10 21:57:39.
