data_PCOD8275664
_publ_section_title
;
Structure prediction by ZEFSAII (Michael W. Deem and Ramdas Pophale) SiO2 
 PCOD8275664
Probable space group: C C C M
;
_chemical_formula_sum "Si O2"
_cell_formula_units_Z 116
_cell_length_a 22.634336
_cell_length_b 27.490779
_cell_length_c 9.275649
_cell_angle_alpha 90.000000
_cell_angle_beta 90.000000
_cell_angle_gamma 90.000000
_cell_volume 5771.638360
_symmetry_space_group_name_H-M "C C C M"
_symmetry_group_IT_number 66
_symmetry_cell_setting 'orthorhombic'
loop_
_space_group_symop_operation_xyz
x,y,z
-x,-y,z
x,-y,1/2-z
-x,y,1/2-z
-x,-y,-z
x,y,-z
-x,y,1/2+z
x,-y,1/2+z
1/2+x,1/2+y,z
1/2-x,1/2-y,z
1/2+x,1/2-y,1/2-z
1/2-x,1/2+y,1/2-z
1/2-x,1/2-y,-z
1/2+x,1/2+y,-z
1/2-x,1/2+y,1/2+z
1/2+x,1/2-y,1/2+z
loop_
_atom_site_type_symbol
_atom_site_label
_atom_site_fract_x
_atom_site_fract_y
_atom_site_fract_z
Si Si1 0.941942 0.788116 0.327717
Si Si2 0.811933 0.453202 0.331853
Si Si3 0.734536 0.806344 0.333269
Si Si4 0.398098 0.186907 0.335397
Si Si5 0.657707 0.653025 0.169237
Si Si6 0.088738 0.581809 0.158611
Si Si7 0.821497 0.954063 0.164540
Si Si8 0.500000 0.000000 0.750000
O O1 0.947465 0.793860 0.500000
O O2 0.933765 0.732593 0.270404
O O3 0.886897 0.818651 0.270852
O O4 0.000000 0.809037 0.250000
O O5 0.836614 0.500000 0.250000
O O6 0.818321 0.460290 0.500000
O O7 0.859630 0.414537 0.277514
O O8 0.745339 0.442363 0.282880
O O9 0.742714 0.823168 0.500000
O O10 0.750000 0.750000 0.317129
O O11 0.668565 0.816488 0.272395
O O12 0.776595 0.837215 0.227587
O O13 0.387872 0.201641 0.500000
O O14 0.436794 0.136919 0.319981
O O15 0.642217 0.595485 0.186860
O O16 0.653535 0.667704 0.000000
O O17 0.040979 0.537987 0.162909
O O18 0.117690 0.578664 0.000000
O O19 0.848869 0.000000 0.250000
O O20 0.820585 0.970743 0.000000
#
# Coordination Sequence:
#
# PCOD8275664 Si02
#       8
#    16  16  16  16  16  16  16   4
#     4  11  23  42  63  86 117 156 202 245 292 355
#     4  10  19  34  55  79 110 145 184 232 285 345
#     4  10  18  34  59  88 120 155 197 244 300 368
#     4   9  20  38  60  83 113 153 196 245 302 365
#     4  11  22  37  59  91 127 160 195 243 298 353
#     4  11  23  39  56  75 104 145 195 248 302 352
#     4   9  20  36  57  88 123 154 189 231 283 350
#     4  12  26  36  56  78 110 144 206 260 310 340
#
# _framework density 20.098279999999999
#
# number of rings (size 3 to 8) (size 9 to 14) (size 15 to 20)
#    0.000    1.793    2.069    2.276    0.966    2.483 
#    0.000    1.379    0.000    0.414    0.000    2.897 
#    0.000    0.000    0.000    0.000    0.000    0.000 
#
# Total GULP energy -718552.898171 kJ/mol
# GULP energy per Si atom -12388.843072 kJ/mol
# Density = 2.005254 g / cm^3
# Si number density = 20.098280 Si / 1000 Ang^3
#
#
#
# Elastic Constant Matrix: (Units=GPa)
#
#
# Indices 1 2 3 4 5 6 
#
# 1 64.8537 23.7116 24.2497 0.0000 0.0000 0.0000
# 2 23.7116 116.5366 39.4894 0.0000 0.0000 0.0000
# 3 24.2497 39.4894 91.4045 0.0000 0.0000 0.0000
# 4 0.0000 0.0000 0.0000 27.4298 0.0000 0.0000
# 5 0.0000 0.0000 0.0000 0.0000 25.6847 0.0000
# 6 0.0000 0.0000 0.0000 0.0000 0.0000 18.8819
#
#
#
# Elastic Compliance Matrix: (Units=1/GPa)
#
#
# Indices 1 2 3 4 5 6 
#
# 1 0.017649 -0.002348 -0.003668 0.000000 0.000000 0.000000
# 2 -0.002348 0.010365 -0.003855 0.000000 0.000000 0.000000
# 3 -0.003668 -0.003855 0.013579 0.000000 0.000000 0.000000
# 4 0.000000 0.000000 0.000000 0.036457 0.000000 0.000000
# 5 0.000000 0.000000 0.000000 0.000000 0.038934 0.000000
# 6 0.000000 0.000000 0.000000 0.000000 0.000000 0.052961
#
#
# Mechanical properties :
#
#
# Convention : Reuss Voigt Hill
#
# Bulk Modulus (GPa) = 45.76421 49.74399 47.75410
# Shear Modulus (GPa) = 25.38453 26.75557 26.07005
#
# Velocity S-wave (km/s) = 3.55775 3.65257 3.60547
# Velocity P-wave (km/s) = 6.30051 6.52629 6.41440
#
# Compressibility (1/GPa) = 0.02185114
#
# Stress axis : x y z
#
# Youngs Moduli (GPa) = 56.65933 96.47764 73.64331
#
# Poissons Ratio (x) = 0.22655 0.27012
# Poissons Ratio (y) = 0.13305 0.28390
# Poissons Ratio (z) = 0.20782 0.37193
#
# Static dielectric constant tensor:
#      x y z
#    x 3.422200 0.000000 0.000000 
#    y 0.000000 3.865090 0.000000 
#    z 0.000000 0.000000 3.547750 
# 
# 
# High freq. dielectric constant tensor:
#      x y z
#    x 1.758600 0.000000 0.000000 
#    y 0.000000 1.794710 0.000000 
#    z 0.000000 0.000000 1.774110 
# 
# From -- ./inp_files/9438.got.cif
#   From: 2010.03.12/outbox.cif.g09.slc.cpg/sg66_5_cif.got.tgz:9438.got - 2010.04.10 21:57:39.
