data_PCOD8275617
_publ_section_title
;
Structure prediction by ZEFSAII (Michael W. Deem and Ramdas Pophale) SiO2 
 PCOD8275617
Probable space group: C C C M
;
_chemical_formula_sum "Si O2"
_cell_formula_units_Z 116
_cell_length_a 11.384014
_cell_length_b 16.699507
_cell_length_c 31.515495
_cell_angle_alpha 90.000000
_cell_angle_beta 90.000000
_cell_angle_gamma 90.000000
_cell_volume 5991.329491
_symmetry_space_group_name_H-M "C C C M"
_symmetry_group_IT_number 66
_symmetry_cell_setting 'orthorhombic'
loop_
_space_group_symop_operation_xyz
x,y,z
-x,-y,z
x,-y,1/2-z
-x,y,1/2-z
-x,-y,-z
x,y,-z
-x,y,1/2+z
x,-y,1/2+z
1/2+x,1/2+y,z
1/2-x,1/2-y,z
1/2+x,1/2-y,1/2-z
1/2-x,1/2+y,1/2-z
1/2-x,1/2-y,-z
1/2+x,1/2+y,-z
1/2-x,1/2+y,1/2+z
1/2+x,1/2-y,1/2+z
loop_
_atom_site_type_symbol
_atom_site_label
_atom_site_fract_x
_atom_site_fract_y
_atom_site_fract_z
Si Si1 0.492476 0.190940 0.132611
Si Si2 0.134697 0.698935 0.452191
Si Si3 0.867081 0.485851 0.547222
Si Si4 0.138851 0.907046 0.748088
Si Si5 0.500000 0.000000 0.750000
Si Si6 0.846897 0.814605 0.332365
Si Si7 0.295658 0.066817 0.625837
Si Si8 0.670376 0.084293 0.685378
O O1 0.462522 0.216275 0.083996
O O2 0.528648 0.271673 0.158647
O O3 0.592784 0.123791 0.133414
O O4 0.379144 0.155215 0.156046
O O5 0.086068 0.718219 0.500000
O O6 0.250000 0.750000 0.442386
O O7 0.170012 0.606075 0.449899
O O8 0.852154 0.520287 0.500000
O O9 0.784430 0.537482 0.577600
O O10 0.000000 0.500000 0.563206
O O11 0.180284 0.851008 0.786290
O O12 0.208554 0.879553 0.705792
O O13 0.000000 0.897436 0.750000
O O14 0.175962 0.000000 0.750000
O O15 0.420785 0.940140 0.722168
O O16 0.750000 0.750000 0.342587
O O17 0.826515 0.887288 0.365337
O O18 0.304381 0.992185 0.656913
#
# Coordination Sequence:
#
# PCOD8275617 Si02
#       8
#    16  16  16  16   4  16  16  16
#     4  11  22  37  61  94 127 159 210 267 321 370
#     4  10  21  37  60  93 131 162 200 263 327 381
#     4  10  18  32  62  94 120 157 211 263 306 367
#     4  11  24  42  59  81 118 167 215 254 316 384
#     4  12  20  32  58  92 118 148 210 270 312 352
#     4  10  24  40  57  86 130 163 198 264 324 372
#     4  11  18  38  59  92 123 160 205 259 315 376
#     4  12  21  36  67  90 114 160 220 264 311 375
#
# _framework density 19.361312000000002
#
# number of rings (size 3 to 8) (size 9 to 14) (size 15 to 20)
#    0.000    1.241    6.207    0.000    1.931    2.207 
#    0.000    0.690    0.000    2.483    0.000    2.897 
#    0.000    0.000    0.000    0.000    0.000    0.000 
#
# Total GULP energy -718830.950471 kJ/mol
# GULP energy per Si atom -12393.637077 kJ/mol
# Density = 1.931724 g / cm^3
# Si number density = 19.361312 Si / 1000 Ang^3
#
#
#
# Elastic Constant Matrix: (Units=GPa)
#
#
# Indices 1 2 3 4 5 6 
#
# 1 78.0702 43.6578 41.6638 0.0000 0.0000 0.0000
# 2 43.6578 102.7935 54.4173 0.0000 0.0000 0.0000
# 3 41.6638 54.4173 129.3729 0.0000 0.0000 0.0000
# 4 0.0000 0.0000 0.0000 30.1656 0.0000 0.0000
# 5 0.0000 0.0000 0.0000 0.0000 22.0809 0.0000
# 6 0.0000 0.0000 0.0000 0.0000 0.0000 18.9631
#
#
#
# Elastic Compliance Matrix: (Units=1/GPa)
#
#
# Indices 1 2 3 4 5 6 
#
# 1 0.017823 -0.005829 -0.003288 0.000000 0.000000 0.000000
# 2 -0.005829 0.014421 -0.004189 0.000000 0.000000 0.000000
# 3 -0.003288 -0.004189 0.010550 0.000000 0.000000 0.000000
# 4 0.000000 0.000000 0.000000 0.033150 0.000000 0.000000
# 5 0.000000 0.000000 0.000000 0.000000 0.045288 0.000000
# 6 0.000000 0.000000 0.000000 0.000000 0.000000 0.052734
#
#
# Mechanical properties :
#
#
# Convention : Reuss Voigt Hill
#
# Bulk Modulus (GPa) = 61.79212 65.52382 63.65797
# Shear Modulus (GPa) = 24.27489 25.60844 24.94167
#
# Velocity S-wave (km/s) = 3.54472 3.64079 3.59307
# Velocity P-wave (km/s) = 6.98126 7.18261 7.08265
#
# Compressibility (1/GPa) = 0.01618329
#
# Stress axis : x y z
#
# Youngs Moduli (GPa) = 56.10573 69.34117 94.78345
#
# Poissons Ratio (x) = 0.40421 0.31165
# Poissons Ratio (y) = 0.32705 0.39702
# Poissons Ratio (z) = 0.18448 0.29045
#
# Static dielectric constant tensor:
#      x y z
#    x 3.483030 0.000000 0.000000 
#    y 0.000000 3.708850 0.000000 
#    z 0.000000 0.000000 3.825790 
# 
# 
# High freq. dielectric constant tensor:
#      x y z
#    x 1.726480 0.000000 0.000000 
#    y 0.000000 1.754110 0.000000 
#    z 0.000000 0.000000 1.762960 
# 
# From -- ./inp_files/63853.got.cif
#   From: 2010.03.12/outbox.cif.g09.slc.cpg/sg66_32_cif.got.tgz:63853.got - 2010.04.10 21:57:39.
