data_PCOD8275985
_publ_section_title
;
Structure prediction by ZEFSAII (Michael W. Deem and Ramdas Pophale) SiO2 
 PCOD8275985
Probable space group: C C C M
;
_chemical_formula_sum "Si O2"
_cell_formula_units_Z 116
_cell_length_a 22.035458
_cell_length_b 27.450029
_cell_length_c 9.556615
_cell_angle_alpha 90.000000
_cell_angle_beta 90.000000
_cell_angle_gamma 90.000000
_cell_volume 5780.547570
_symmetry_space_group_name_H-M "C C C M"
_symmetry_group_IT_number 66
_symmetry_cell_setting 'orthorhombic'
loop_
_space_group_symop_operation_xyz
x,y,z
-x,-y,z
x,-y,1/2-z
-x,y,1/2-z
-x,-y,-z
x,y,-z
-x,y,1/2+z
x,-y,1/2+z
1/2+x,1/2+y,z
1/2-x,1/2-y,z
1/2+x,1/2-y,1/2-z
1/2-x,1/2+y,1/2-z
1/2-x,1/2-y,-z
1/2+x,1/2+y,-z
1/2-x,1/2+y,1/2+z
1/2+x,1/2-y,1/2+z
loop_
_atom_site_type_symbol
_atom_site_label
_atom_site_fract_x
_atom_site_fract_y
_atom_site_fract_z
Si Si1 0.766027 0.804085 0.839154
Si Si2 0.327295 0.044643 0.341829
Si Si3 0.410023 0.581830 0.654222
Si Si4 0.092557 0.811239 0.342745
Si Si5 0.500000 0.500000 0.750000
Si Si6 0.313234 0.546062 0.161809
Si Si7 0.165263 0.650745 0.837865
Si Si8 0.556322 0.221668 0.833789
O O1 0.750000 0.750000 0.785880
O O2 0.835835 0.816287 0.813746
O O3 0.726053 0.841553 0.750001
O O4 0.746900 0.810275 0.000000
O O5 0.337238 0.027493 0.500000
O O6 0.256970 0.056635 0.311363
O O7 0.360658 0.095841 0.309242
O O8 0.352460 0.000000 0.250000
O O9 0.379736 0.577852 0.500000
O O10 0.440002 0.635761 0.667931
O O11 0.458006 0.537307 0.662527
O O12 0.357957 0.586029 0.773200
O O13 0.082374 0.789564 0.500000
O O14 0.064527 0.776070 0.225785
O O15 0.334916 0.500000 0.250000
O O16 0.328305 0.538482 0.000000
O O17 0.114299 0.689248 0.795085
O O18 0.183478 0.655402 0.000000
O O19 0.500000 0.197819 0.750000
O O20 0.544455 0.223331 0.000000
#
# Coordination Sequence:
#
# PCOD8275985 Si02
#       8
#    16  16  16  16   4  16  16  16
#     4  10  19  33  57  89 123 153 188 236 295 358
#     4   9  19  35  56  87 120 149 183 227 277 341
#     4  11  24  40  57  76 104 143 192 246 296 341
#     4  10  22  40  60  85 116 151 192 243 297 357
#     4  12  26  40  56  78 106 144 202 256 302 328
#     4  10  19  33  55  79 109 144 181 225 280 340
#     4  10  21  37  59  87 121 156 194 238 288 345
#     4  11  24  41  61  85 114 154 196 239 286 343
#
# _framework density 20.067302999999999
#
# number of rings (size 3 to 8) (size 9 to 14) (size 15 to 20)
#    0.000    1.793    2.069    1.862    0.966    3.586 
#    0.000    0.000    0.000    0.414    0.000    2.897 
#    0.000    0.000    0.000    0.000    0.000    0.000 
#
# Total GULP energy -718841.470877 kJ/mol
# GULP energy per Si atom -12393.818463 kJ/mol
# Density = 2.002163 g / cm^3
# Si number density = 20.067303 Si / 1000 Ang^3
#
#
#
# Elastic Constant Matrix: (Units=GPa)
#
#
# Indices 1 2 3 4 5 6 
#
# 1 49.4201 19.3587 27.6406 0.0000 0.0000 0.0000
# 2 19.3587 115.0818 39.7470 0.0000 0.0000 0.0000
# 3 27.6406 39.7470 102.7543 0.0000 0.0000 0.0000
# 4 0.0000 0.0000 0.0000 32.3073 0.0000 0.0000
# 5 0.0000 0.0000 0.0000 0.0000 23.4670 0.0000
# 6 0.0000 0.0000 0.0000 0.0000 0.0000 15.0978
#
#
#
# Elastic Compliance Matrix: (Units=1/GPa)
#
#
# Indices 1 2 3 4 5 6 
#
# 1 0.024253 -0.002108 -0.005709 0.000000 0.000000 0.000000
# 2 -0.002108 0.010213 -0.003383 0.000000 0.000000 0.000000
# 3 -0.005709 -0.003383 0.012576 0.000000 0.000000 0.000000
# 4 0.000000 0.000000 0.000000 0.030953 0.000000 0.000000
# 5 0.000000 0.000000 0.000000 0.000000 0.042613 0.000000
# 6 0.000000 0.000000 0.000000 0.000000 0.000000 0.066235
#
#
# Mechanical properties :
#
#
# Convention : Reuss Voigt Hill
#
# Bulk Modulus (GPa) = 40.58108 48.97209 44.77659
# Shear Modulus (GPa) = 22.99306 26.20842 24.60074
#
# Velocity S-wave (km/s) = 3.38864 3.61782 3.50510
# Velocity P-wave (km/s) = 5.96463 6.47367 6.22436
#
# Compressibility (1/GPa) = 0.02464203
#
# Stress axis : x y z
#
# Youngs Moduli (GPa) = 41.23153 97.91789 79.51494
#
# Poissons Ratio (x) = 0.20643 0.45392
# Poissons Ratio (y) = 0.08692 0.26902
# Poissons Ratio (z) = 0.23537 0.33129
#
# Static dielectric constant tensor:
#      x y z
#    x 3.456170 0.000000 0.000000 
#    y 0.000000 3.804390 0.000000 
#    z 0.000000 0.000000 3.656760 
# 
# 
# High freq. dielectric constant tensor:
#      x y z
#    x 1.755660 0.000000 0.000000 
#    y 0.000000 1.791050 0.000000 
#    z 0.000000 0.000000 1.785840 
# 
# From -- ./inp_files/9419.got.cif
#   From: 2010.03.12/outbox.cif.g09.slc.cpg/sg66_5_cif.got.tgz:9419.got - 2010.04.10 21:57:39.
