data_PCOD8275854
_publ_section_title
;
Structure prediction by ZEFSAII (Michael W. Deem and Ramdas Pophale) SiO2 
 PCOD8275854
Probable space group: C C C M
;
_chemical_formula_sum "Si O2"
_cell_formula_units_Z 80
_cell_length_a 34.244964
_cell_length_b 4.997571
_cell_length_c 27.285645
_cell_angle_alpha 90.000000
_cell_angle_beta 90.000000
_cell_angle_gamma 90.000000
_cell_volume 4669.710006
_symmetry_space_group_name_H-M "C C C M"
_symmetry_group_IT_number 66
_symmetry_cell_setting 'orthorhombic'
loop_
_space_group_symop_operation_xyz
x,y,z
-x,-y,z
x,-y,1/2-z
-x,y,1/2-z
-x,-y,-z
x,y,-z
-x,y,1/2+z
x,-y,1/2+z
1/2+x,1/2+y,z
1/2-x,1/2-y,z
1/2+x,1/2-y,1/2-z
1/2-x,1/2+y,1/2-z
1/2-x,1/2-y,-z
1/2+x,1/2+y,-z
1/2-x,1/2+y,1/2+z
1/2+x,1/2-y,1/2+z
loop_
_atom_site_type_symbol
_atom_site_label
_atom_site_fract_x
_atom_site_fract_y
_atom_site_fract_z
Si Si1 0.092262 0.476639 0.944618
Si Si2 0.825469 0.372707 0.404778
Si Si3 0.205618 0.847731 0.146312
Si Si4 0.542235 0.459843 0.944565
Si Si5 0.776346 0.000000 0.750000
Si Si6 0.722257 0.002514 0.500000
O O1 0.128434 0.360298 0.913852
O O2 0.071566 0.739615 0.920360
O O3 0.060438 0.249180 0.943917
O O4 0.106539 0.541774 0.000000
O O5 0.820613 0.586592 0.361340
O O6 0.804578 0.495354 0.452201
O O7 0.806950 0.085820 0.390546
O O8 0.250000 0.750000 0.137232
O O9 0.197752 0.936601 0.202290
O O10 0.500000 0.500000 0.918134
O O11 0.535044 0.355250 0.000000
O O12 0.750000 0.750000 0.765275
O O13 0.750000 0.250000 0.500000
O O14 0.750000 0.750000 0.500000
#
# Coordination Sequence:
#
# PCOD8275854 Si02
#       6
#    16  16  16  16   8   8
#     4  10  19  32  46  66  99 131 163 197 239 285
#     4  12  22  35  49  71  99 135 165 206 243 288
#     4  11  22  36  54  71  94 124 170 213 257 299
#     4   9  17  29  48  68  89 124 168 203 233 278
#     4  10  20  36  56  74  90 116 159 218 271 306
#     4  12  24  34  46  64  93 134 177 204 226 266
#
# _framework density 17.131682999999999
#
# number of rings (size 3 to 8) (size 9 to 14) (size 15 to 20)
#    0.000    1.400    1.000    7.800    0.000    2.400 
#    0.000    0.000    0.000    0.000    0.000    0.000 
#    0.000    0.000    0.000   63.000    0.000    0.000 
#
# Total GULP energy -495821.573606 kJ/mol
# GULP energy per Si atom -12395.539340 kJ/mol
# Density = 1.709269 g / cm^3
# Si number density = 17.131683 Si / 1000 Ang^3
#
#
#
# Elastic Constant Matrix: (Units=GPa)
#
#
# Indices 1 2 3 4 5 6 
#
# 1 100.4626 30.0345 28.7224 0.0000 0.0000 0.0000
# 2 30.0345 104.0481 12.6022 0.0000 0.0000 0.0000
# 3 28.7224 12.6022 52.8790 0.0000 0.0000 0.0000
# 4 0.0000 0.0000 0.0000 23.7426 0.0000 0.0000
# 5 0.0000 0.0000 0.0000 0.0000 7.7794 0.0000
# 6 0.0000 0.0000 0.0000 0.0000 0.0000 29.3194
#
#
#
# Elastic Compliance Matrix: (Units=1/GPa)
#
#
# Indices 1 2 3 4 5 6 
#
# 1 0.012572 -0.002885 -0.006141 0.000000 0.000000 0.000000
# 2 -0.002885 0.010559 -0.000949 0.000000 0.000000 0.000000
# 3 -0.006141 -0.000949 0.022473 0.000000 0.000000 0.000000
# 4 0.000000 0.000000 0.000000 0.042118 0.000000 0.000000
# 5 0.000000 0.000000 0.000000 0.000000 0.128544 0.000000
# 6 0.000000 0.000000 0.000000 0.000000 0.000000 0.034107
#
#
# Mechanical properties :
#
#
# Convention : Reuss Voigt Hill
#
# Bulk Modulus (GPa) = 38.98232 44.45642 41.71937
# Shear Modulus (GPa) = 17.92909 24.57032 21.24971
#
# Velocity S-wave (km/s) = 3.23855 3.79120 3.52572
# Velocity P-wave (km/s) = 6.06532 6.72089 6.40151
#
# Compressibility (1/GPa) = 0.02565265
#
# Stress axis : x y z
#
# Youngs Moduli (GPa) = 79.53952 94.70795 44.49765
#
# Poissons Ratio (x) = 0.27326 0.27327
# Poissons Ratio (y) = 0.22950 0.04224
# Poissons Ratio (z) = 0.48848 0.08989
#
# Static dielectric constant tensor:
#      x y z
#    x 3.192310 0.000000 0.000000 
#    y 0.000000 3.359210 0.000000 
#    z 0.000000 0.000000 2.985710 
# 
# 
# High freq. dielectric constant tensor:
#      x y z
#    x 1.651360 0.000000 0.000000 
#    y 0.000000 1.689830 0.000000 
#    z 0.000000 0.000000 1.611480 
# 
# From -- ./inp_files/60361.got.cif
#   From: 2010.03.12/outbox.cif.g09.slc.cpg/sg66_31_cif.got.tgz:60361.got - 2010.04.10 21:57:39.
