data_PCOD8275381
_publ_section_title
;
Structure prediction by ZEFSAII (Michael W. Deem and Ramdas Pophale) SiO2 
 PCOD8275381
Probable space group: C C C M
;
_chemical_formula_sum "Si O2"
_cell_formula_units_Z 116
_cell_length_a 23.461520
_cell_length_b 9.705611
_cell_length_c 31.782202
_cell_angle_alpha 90.000000
_cell_angle_beta 90.000000
_cell_angle_gamma 90.000000
_cell_volume 7237.073940
_symmetry_space_group_name_H-M "C C C M"
_symmetry_group_IT_number 66
_symmetry_cell_setting 'orthorhombic'
loop_
_space_group_symop_operation_xyz
x,y,z
-x,-y,z
x,-y,1/2-z
-x,y,1/2-z
-x,-y,-z
x,y,-z
-x,y,1/2+z
x,-y,1/2+z
1/2+x,1/2+y,z
1/2-x,1/2-y,z
1/2+x,1/2-y,1/2-z
1/2-x,1/2+y,1/2-z
1/2-x,1/2-y,-z
1/2+x,1/2+y,-z
1/2-x,1/2+y,1/2+z
1/2+x,1/2-y,1/2+z
loop_
_atom_site_type_symbol
_atom_site_label
_atom_site_fract_x
_atom_site_fract_y
_atom_site_fract_z
Si Si1 0.700823 0.846060 0.302060
Si Si2 0.527121 0.215959 0.454300
Si Si3 0.498084 0.658521 0.371100
Si Si4 0.801237 0.343407 0.293477
Si Si5 0.090162 0.552591 0.046176
Si Si6 0.927432 0.629152 0.821231
Si Si7 0.899760 0.639996 0.633555
Si Si8 0.000000 0.500000 0.750000
O O1 0.750000 0.750000 0.320734
O O2 0.685195 0.800281 0.254652
O O3 0.648116 0.825536 0.332833
O O4 0.722092 0.002548 0.299595
O O5 0.531304 0.289195 0.500000
O O6 0.527709 0.331533 0.418286
O O7 0.470092 0.127556 0.451178
O O8 0.580303 0.111346 0.448964
O O9 0.500000 0.500000 0.357488
O O10 0.456209 0.736393 0.339827
O O11 0.560286 0.726390 0.368160
O O12 0.750000 0.250000 0.312150
O O13 0.860990 0.330651 0.317553
O O14 0.126124 0.607756 0.086597
O O15 0.118825 0.582790 0.000000
O O16 0.935077 0.494899 0.851180
O O17 0.957715 0.595912 0.777005
#
# Coordination Sequence:
#
# PCOD8275381 Si02
#       8
#    16  16  16  16  16  16  16   4
#     4   9  18  32  52  71  88 117 160 202 247 283
#     4   8  14  26  43  65  95 130 161 192 232 287
#     4  11  21  30  43  72 106 130 155 199 251 295
#     4   9  19  34  51  70  92 121 164 209 240 279
#     4   8  13  23  45  70  90 120 163 200 230 271
#     4  11  20  33  53  70  93 132 170 199 239 296
#     4  10  17  32  50  69  96 130 165 199 235 292
#     4  12  20  32  58  72  94 132 178 206 240 304
#
# _framework density 16.028576999999999
#
# number of rings (size 3 to 8) (size 9 to 14) (size 15 to 20)
#    0.000    2.483    2.759    2.483    0.000    1.379 
#    0.000    0.345    0.000    0.414    0.000    0.000 
#    0.000   13.793    0.000    0.000    0.000    0.000 
#
# Total GULP energy -718722.090913 kJ/mol
# GULP energy per Si atom -12391.760188 kJ/mol
# Density = 1.599209 g / cm^3
# Si number density = 16.028577 Si / 1000 Ang^3
#
#
#
# Elastic Constant Matrix: (Units=GPa)
#
#
# Indices 1 2 3 4 5 6 
#
# 1 62.6061 39.2241 35.2343 0.0000 0.0000 0.0000
# 2 39.2241 98.3110 43.3433 0.0000 0.0000 0.0000
# 3 35.2343 43.3433 102.0827 0.0000 0.0000 0.0000
# 4 0.0000 0.0000 0.0000 18.3900 0.0000 0.0000
# 5 0.0000 0.0000 0.0000 0.0000 9.5194 0.0000
# 6 0.0000 0.0000 0.0000 0.0000 0.0000 24.0456
#
#
#
# Elastic Compliance Matrix: (Units=1/GPa)
#
#
# Indices 1 2 3 4 5 6 
#
# 1 0.023214 -0.007049 -0.005020 0.000000 0.000000 0.000000
# 2 -0.007049 0.014655 -0.003789 0.000000 0.000000 0.000000
# 3 -0.005020 -0.003789 0.013137 0.000000 0.000000 0.000000
# 4 0.000000 0.000000 0.000000 0.054377 0.000000 0.000000
# 5 0.000000 0.000000 0.000000 0.000000 0.105048 0.000000
# 6 0.000000 0.000000 0.000000 0.000000 0.000000 0.041588
#
#
# Mechanical properties :
#
#
# Convention : Reuss Voigt Hill
#
# Bulk Modulus (GPa) = 51.83834 55.40035 53.61935
# Shear Modulus (GPa) = 17.23154 20.07089 18.65121
#
# Velocity S-wave (km/s) = 3.28235 3.54247 3.41489
# Velocity P-wave (km/s) = 6.83934 7.16733 7.00526
#
# Compressibility (1/GPa) = 0.01929074
#
# Stress axis : x y z
#
# Youngs Moduli (GPa) = 43.07712 68.23693 76.11853
#
# Poissons Ratio (x) = 0.48100 0.38208
# Poissons Ratio (y) = 0.30365 0.28844
# Poissons Ratio (z) = 0.21623 0.25857
#
# Static dielectric constant tensor:
#      x y z
#    x 2.744770 0.000000 0.000000 
#    y 0.000000 2.890580 0.000000 
#    z 0.000000 0.000000 3.414410 
# 
# 
# High freq. dielectric constant tensor:
#      x y z
#    x 1.577000 0.000000 0.000000 
#    y 0.000000 1.597290 0.000000 
#    z 0.000000 0.000000 1.627400 
# 
# From -- ./inp_files/70597.got.cif
#   From: 2010.03.12/outbox.cif.g09.slc.cpg/sg66_36_cif.got.tgz:70597.got - 2010.04.10 21:57:39.
