data_PCOD8275137
_publ_section_title
;
Structure prediction by ZEFSAII (Michael W. Deem and Ramdas Pophale) SiO2 
 PCOD8275137
Probable space group: C M M M
;
_chemical_formula_sum "Si O2"
_cell_formula_units_Z 88
_cell_length_a 29.296038
_cell_length_b 14.589094
_cell_length_c 13.473471
_cell_angle_alpha 90.000000
_cell_angle_beta 90.000000
_cell_angle_gamma 90.000000
_cell_volume 5758.597240
_symmetry_space_group_name_H-M "C M M M"
_symmetry_group_IT_number 65
_symmetry_cell_setting 'orthorhombic'
loop_
_space_group_symop_operation_xyz
x,y,z
-x,-y,z
x,-y,-z
-x,y,-z
-x,-y,-z
x,y,-z
-x,y,z
x,-y,z
1/2+x,1/2+y,z
1/2-x,1/2-y,z
1/2+x,1/2-y,-z
1/2-x,1/2+y,-z
1/2-x,1/2-y,-z
1/2+x,1/2+y,-z
1/2-x,1/2+y,z
1/2+x,1/2-y,z
loop_
_atom_site_type_symbol
_atom_site_label
_atom_site_fract_x
_atom_site_fract_y
_atom_site_fract_z
Si Si1 0.318342 0.392772 0.890050
Si Si2 0.818701 0.400677 0.385774
Si Si3 0.859913 0.209289 0.384692
Si Si4 0.000000 0.108626 0.888414
Si Si5 0.230105 0.154006 0.700212
Si Si6 0.090361 0.107492 0.776108
O O1 0.309495 0.500000 0.891653
O O2 0.280718 0.349475 0.817302
O O3 0.369269 0.371685 0.853348
O O4 0.312226 0.350604 0.000000
O O5 0.807122 0.381125 0.500000
O O6 0.844159 0.500000 0.372658
O O7 0.849139 0.314330 0.348031
O O8 0.770378 0.415246 0.328871
O O9 0.872976 0.206175 0.500000
O O10 0.816856 0.141644 0.362003
O O11 0.902507 0.168842 0.322800
O O12 0.955715 0.142004 0.828386
O O13 0.000000 0.000000 0.896944
O O14 0.000000 0.150371 0.000000
O O15 0.250000 0.250000 0.667534
O O16 0.088210 0.000000 0.747460
#
# Coordination Sequence:
#
# PCOD8275137 Si02
#       6
#    16  16  16   8  16  16
#     4   9  16  25  36  51  74 103 132 162 196 232
#     4   9  16  26  41  59  78 104 140 178 208 232
#     4   9  17  28  40  57  83 111 137 166 201 241
#     4   9  16  28  47  67  86 107 131 161 195 234
#     4   9  16  25  37  54  77 104 136 171 202 236
#     4   9  17  28  42  61  83 106 132 160 193 237
#
# _framework density 15.281499
#
# number of rings (size 3 to 8) (size 9 to 14) (size 15 to 20)
#    0.000    3.000    0.000    1.636    0.000    5.818 
#    0.000    0.455    0.000    1.636    0.000    0.636 
#    0.000    3.636    0.000    0.000    0.000    0.000 
#
# Total GULP energy -545192.245719 kJ/mol
# GULP energy per Si atom -12390.732857 kJ/mol
# Density = 1.524672 g / cm^3
# Si number density = 15.281499 Si / 1000 Ang^3
#
#
#
# Elastic Constant Matrix: (Units=GPa)
#
#
# Indices 1 2 3 4 5 6 
#
# 1 70.3154 22.6538 43.9990 0.0000 0.0000 0.0000
# 2 22.6538 55.4526 30.4316 0.0000 0.0000 0.0000
# 3 43.9990 30.4316 97.6254 0.0000 0.0000 0.0000
# 4 0.0000 0.0000 0.0000 18.0620 0.0000 0.0000
# 5 0.0000 0.0000 0.0000 0.0000 22.8401 0.0000
# 6 0.0000 0.0000 0.0000 0.0000 0.0000 14.6960
#
#
#
# Elastic Compliance Matrix: (Units=1/GPa)
#
#
# Indices 1 2 3 4 5 6 
#
# 1 0.020514 -0.003989 -0.008002 0.000000 0.000000 0.000000
# 2 -0.003989 0.022531 -0.005225 0.000000 0.000000 0.000000
# 3 -0.008002 -0.005225 0.015479 0.000000 0.000000 0.000000
# 4 0.000000 0.000000 0.000000 0.055365 0.000000 0.000000
# 5 0.000000 0.000000 0.000000 0.000000 0.043783 0.000000
# 6 0.000000 0.000000 0.000000 0.000000 0.000000 0.068046
#
#
# Mechanical properties :
#
#
# Convention : Reuss Voigt Hill
#
# Bulk Modulus (GPa) = 41.51061 46.39580 43.95321
# Shear Modulus (GPa) = 18.64426 19.54025 19.09225
#
# Velocity S-wave (km/s) = 3.49672 3.57975 3.53848
# Velocity P-wave (km/s) = 6.59740 6.89296 6.74679
#
# Compressibility (1/GPa) = 0.02409023
#
# Stress axis : x y z
#
# Youngs Moduli (GPa) = 48.74724 44.38402 64.60569
#
# Poissons Ratio (x) = 0.17705 0.51698
# Poissons Ratio (y) = 0.19446 0.33759
# Poissons Ratio (z) = 0.39008 0.23192
#
# Static dielectric constant tensor:
#      x y z
#    x 2.799550 0.000000 0.000000 
#    y 0.000000 2.845980 0.000000 
#    z 0.000000 0.000000 3.025840 
# 
# 
# High freq. dielectric constant tensor:
#      x y z
#    x 1.555060 0.000000 0.000000 
#    y 0.000000 1.565490 0.000000 
#    z 0.000000 0.000000 1.586320 
# 
# From -- ./inp_files/46875.got.cif
#   From: 2010.03.12/outbox.cif.g09.slc.cpg/sg65_24_cif.got.tgz:46875.got - 2010.04.10 20:52:16.
