data_PCOD8275588
_publ_section_title
;
Structure prediction by ZEFSAII (Michael W. Deem and Ramdas Pophale) SiO2 
 PCOD8275588
Probable space group: C C C M
;
_chemical_formula_sum "Si O2"
_cell_formula_units_Z 80
_cell_length_a 16.802454
_cell_length_b 9.685788
_cell_length_c 25.188870
_cell_angle_alpha 90.000000
_cell_angle_beta 90.000000
_cell_angle_gamma 90.000000
_cell_volume 4099.362833
_symmetry_space_group_name_H-M "C C C M"
_symmetry_group_IT_number 66
_symmetry_cell_setting 'orthorhombic'
loop_
_space_group_symop_operation_xyz
x,y,z
-x,-y,z
x,-y,1/2-z
-x,y,1/2-z
-x,-y,-z
x,y,-z
-x,y,1/2+z
x,-y,1/2+z
1/2+x,1/2+y,z
1/2-x,1/2-y,z
1/2+x,1/2-y,1/2-z
1/2-x,1/2+y,1/2-z
1/2-x,1/2-y,-z
1/2+x,1/2+y,-z
1/2-x,1/2+y,1/2+z
1/2+x,1/2-y,1/2+z
loop_
_atom_site_type_symbol
_atom_site_label
_atom_site_fract_x
_atom_site_fract_y
_atom_site_fract_z
Si Si1 0.083405 0.453062 0.378768
Si Si2 0.149136 0.331078 0.807472
Si Si3 0.261908 0.087051 0.560632
Si Si4 0.685223 0.553385 0.843838
Si Si5 0.343929 0.268930 0.309950
O O1 0.087567 0.558389 0.329146
O O2 0.149983 0.467160 0.424316
O O3 0.097696 0.301232 0.353457
O O4 0.000000 0.500000 0.405497
O O5 0.235043 0.403019 0.812467
O O6 0.134869 0.194431 0.843999
O O7 0.134228 0.295186 0.746498
O O8 0.244715 0.047654 0.500000
O O9 0.250000 0.250000 0.569984
O O10 0.200006 0.001432 0.596621
O O11 0.640296 0.433293 0.810797
O O12 0.250000 0.250000 0.325104
#
# Coordination Sequence:
#
# PCOD8275588 Si02
#       5
#    16  16  16  16  16
#     4  11  23  38  52  79 118 153 185 225 279 346
#     4  10  21  29  54  84 112 141 180 227 282 324
#     4  10  19  36  62  85 103 137 193 244 285 331
#     4  10  18  32  52  85 108 135 180 237 283 318
#     4  12  18  32  55  81 110 148 187 226 271 335
#
# _framework density 19.515229000000001
#
# number of rings (size 3 to 8) (size 9 to 14) (size 15 to 20)
#    0.000    1.400    8.000    1.200    0.000    2.000 
#    0.000    9.000    0.000    2.400    0.000    2.800 
#    0.000    0.000    0.000    0.000    0.000    0.000 
#
# Total GULP energy -495565.012909 kJ/mol
# GULP energy per Si atom -12389.125323 kJ/mol
# Density = 1.947081 g / cm^3
# Si number density = 19.515229 Si / 1000 Ang^3
#
#
#
# Elastic Constant Matrix: (Units=GPa)
#
#
# Indices 1 2 3 4 5 6 
#
# 1 45.4739 9.6284 -2.1264 0.0000 0.0000 0.0000
# 2 9.6284 110.5439 15.6758 0.0000 0.0000 0.0000
# 3 -2.1264 15.6758 100.3365 0.0000 0.0000 0.0000
# 4 0.0000 0.0000 0.0000 15.3661 0.0000 0.0000
# 5 0.0000 0.0000 0.0000 0.0000 12.0641 0.0000
# 6 0.0000 0.0000 0.0000 0.0000 0.0000 24.7320
#
#
#
# Elastic Compliance Matrix: (Units=1/GPa)
#
#
# Indices 1 2 3 4 5 6 
#
# 1 0.022466 -0.002070 0.000800 0.000000 0.000000 0.000000
# 2 -0.002070 0.009442 -0.001519 0.000000 0.000000 0.000000
# 3 0.000800 -0.001519 0.010221 0.000000 0.000000 0.000000
# 4 0.000000 0.000000 0.000000 0.065078 0.000000 0.000000
# 5 0.000000 0.000000 0.000000 0.000000 0.082890 0.000000
# 6 0.000000 0.000000 0.000000 0.000000 0.000000 0.040433
#
#
# Mechanical properties :
#
#
# Convention : Reuss Voigt Hill
#
# Bulk Modulus (GPa) = 27.36003 33.63442 30.49723
# Shear Modulus (GPa) = 20.13745 25.97755 23.05750
#
# Velocity S-wave (km/s) = 3.21578 3.65244 3.44104
# Velocity P-wave (km/s) = 5.27623 5.92110 5.60794
#
# Compressibility (1/GPa) = 0.03654967
#
# Stress axis : x y z
#
# Youngs Moduli (GPa) = 44.51102 105.91092 97.84039
#
# Poissons Ratio (x) = 0.21926 -0.07823
# Poissons Ratio (y) = 0.09215 0.14862
# Poissons Ratio (z) = -0.03559 0.16088
#
# Static dielectric constant tensor:
#      x y z
#    x 3.357630 0.000000 0.000000 
#    y 0.000000 4.442790 0.000000 
#    z 0.000000 0.000000 3.533010 
# 
# 
# High freq. dielectric constant tensor:
#      x y z
#    x 1.703420 0.000000 0.000000 
#    y 0.000000 1.780450 0.000000 
#    z 0.000000 0.000000 1.746910 
# 
# From -- ./inp_files/69874.got.cif
#   From: 2010.03.12/outbox.cif.g09.slc.cpg/sg66_35_cif.got.tgz:69874.got - 2010.04.10 21:57:39.
