data_PCOD8275568
_publ_section_title
;
Structure prediction by ZEFSAII (Michael W. Deem and Ramdas Pophale) SiO2 
 PCOD8275568
Probable space group: C C C M
;
_chemical_formula_sum "Si O2"
_cell_formula_units_Z 116
_cell_length_a 9.357604
_cell_length_b 21.551777
_cell_length_c 28.423089
_cell_angle_alpha 90.000000
_cell_angle_beta 90.000000
_cell_angle_gamma 90.000000
_cell_volume 5732.169476
_symmetry_space_group_name_H-M "C C C M"
_symmetry_group_IT_number 66
_symmetry_cell_setting 'orthorhombic'
loop_
_space_group_symop_operation_xyz
x,y,z
-x,-y,z
x,-y,1/2-z
-x,y,1/2-z
-x,-y,-z
x,y,-z
-x,y,1/2+z
x,-y,1/2+z
1/2+x,1/2+y,z
1/2-x,1/2-y,z
1/2+x,1/2-y,1/2-z
1/2-x,1/2+y,1/2-z
1/2-x,1/2-y,-z
1/2+x,1/2+y,-z
1/2-x,1/2+y,1/2+z
1/2+x,1/2-y,1/2+z
loop_
_atom_site_type_symbol
_atom_site_label
_atom_site_fract_x
_atom_site_fract_y
_atom_site_fract_z
Si Si1 0.085645 0.756927 0.201770
Si Si2 0.727688 0.076378 0.372671
Si Si3 0.271253 0.642273 0.053268
Si Si4 0.015441 0.139817 0.372712
Si Si5 0.157125 0.002512 0.551161
Si Si6 0.926786 0.638694 0.359055
Si Si7 0.802727 0.046743 0.825551
Si Si8 0.500000 0.500000 0.750000
O O1 0.250000 0.750000 0.215468
O O2 0.034260 0.699377 0.170501
O O3 0.000000 0.761097 0.250000
O O4 0.063712 0.818627 0.171160
O O5 0.845275 0.131590 0.372076
O O6 0.573647 0.104943 0.368768
O O7 0.732353 0.040945 0.421844
O O8 0.756549 0.024751 0.332648
O O9 0.421926 0.665678 0.077255
O O10 0.271247 0.569099 0.047363
O O11 0.146371 0.658845 0.091151
O O12 0.251421 0.671534 0.000000
O O13 0.093468 0.072243 0.367018
O O14 0.140671 0.972010 0.500000
O O15 0.000000 0.000000 0.574999
O O16 0.833236 0.592777 0.325825
O O17 0.897309 0.047104 0.778467
#
# Coordination Sequence:
#
# PCOD8275568 Si02
#       8
#    16  16  16  16  16  16  16   4
#     4  12  28  48  71  92 123 170 227 277 323 391
#     4  12  21  38  63  95 137 170 197 267 335 387
#     4  10  20  38  65  97 132 174 219 263 321 390
#     4  11  22  41  69  91 130 170 224 273 316 391
#     4  10  18  31  59  98 132 171 215 249 303 390
#     4  11  26  43  62  94 140 169 217 271 336 391
#     4  11  22  39  62  92 123 167 212 267 340 393
#     4  12  24  36  66  92 118 164 230 260 358 412
#
# _framework density 20.236667000000001
#
# number of rings (size 3 to 8) (size 9 to 14) (size 15 to 20)
#    0.000    0.966    8.276    0.414    2.897    1.655 
#    0.000    3.448    0.000    0.000    0.000    2.897 
#    0.000    0.000    0.000    0.000    0.000    0.000 
#
# Total GULP energy -718713.930012 kJ/mol
# GULP energy per Si atom -12391.619483 kJ/mol
# Density = 2.019061 g / cm^3
# Si number density = 20.236667 Si / 1000 Ang^3
#
#
#
# Elastic Constant Matrix: (Units=GPa)
#
#
# Indices 1 2 3 4 5 6 
#
# 1 115.3669 29.4182 45.5914 0.0000 0.0000 0.0000
# 2 29.4182 59.3745 36.3469 0.0000 0.0000 0.0000
# 3 45.5914 36.3469 140.4685 0.0000 0.0000 0.0000
# 4 0.0000 0.0000 0.0000 25.0393 0.0000 0.0000
# 5 0.0000 0.0000 0.0000 0.0000 40.2367 0.0000
# 6 0.0000 0.0000 0.0000 0.0000 0.0000 26.0705
#
#
#
# Elastic Compliance Matrix: (Units=1/GPa)
#
#
# Indices 1 2 3 4 5 6 
#
# 1 0.010598 -0.003737 -0.002473 0.000000 0.000000 0.000000
# 2 -0.003737 0.021330 -0.004306 0.000000 0.000000 0.000000
# 3 -0.002473 -0.004306 0.009036 0.000000 0.000000 0.000000
# 4 0.000000 0.000000 0.000000 0.039937 0.000000 0.000000
# 5 0.000000 0.000000 0.000000 0.000000 0.024853 0.000000
# 6 0.000000 0.000000 0.000000 0.000000 0.000000 0.038357
#
#
# Mechanical properties :
#
#
# Convention : Reuss Voigt Hill
#
# Bulk Modulus (GPa) = 50.17194 59.76922 54.97058
# Shear Modulus (GPa) = 29.10559 31.85955 30.48257
#
# Velocity S-wave (km/s) = 3.79655 3.97211 3.88532
# Velocity P-wave (km/s) = 6.63814 7.11591 6.88117
#
# Compressibility (1/GPa) = 0.01993146
#
# Stress axis : x y z
#
# Youngs Moduli (GPa) = 94.35549 46.88210 110.67003
#
# Poissons Ratio (x) = 0.17521 0.27366
# Poissons Ratio (y) = 0.35264 0.47657
# Poissons Ratio (z) = 0.23332 0.20189
#
# Static dielectric constant tensor:
#      x y z
#    x 3.613780 0.000000 0.000000 
#    y 0.000000 3.602290 0.000000 
#    z 0.000000 0.000000 4.225730 
# 
# 
# High freq. dielectric constant tensor:
#      x y z
#    x 1.783910 0.000000 0.000000 
#    y 0.000000 1.774380 0.000000 
#    z 0.000000 0.000000 1.797550 
# 
# From -- ./inp_files/62887.got.cif
#   From: 2010.03.12/outbox.cif.g09.slc.cpg/sg66_32_cif.got.tgz:62887.got - 2010.04.10 21:57:39.
