data_PCOD8275221
_publ_section_title
;
Structure prediction by ZEFSAII (Michael W. Deem and Ramdas Pophale) SiO2 
 PCOD8275221
Probable space group: C C C M
;
_chemical_formula_sum "Si O2"
_cell_formula_units_Z 64
_cell_length_a 10.058179
_cell_length_b 21.557894
_cell_length_c 14.629958
_cell_angle_alpha 90.000000
_cell_angle_beta 90.000000
_cell_angle_gamma 90.000000
_cell_volume 3172.259976
_symmetry_space_group_name_H-M "C C C M"
_symmetry_group_IT_number 66
_symmetry_cell_setting 'orthorhombic'
loop_
_space_group_symop_operation_xyz
x,y,z
-x,-y,z
x,-y,1/2-z
-x,y,1/2-z
-x,-y,-z
x,y,-z
-x,y,1/2+z
x,-y,1/2+z
1/2+x,1/2+y,z
1/2-x,1/2-y,z
1/2+x,1/2-y,1/2-z
1/2-x,1/2+y,1/2-z
1/2-x,1/2-y,-z
1/2+x,1/2+y,-z
1/2-x,1/2+y,1/2+z
1/2+x,1/2-y,1/2+z
loop_
_atom_site_type_symbol
_atom_site_label
_atom_site_fract_x
_atom_site_fract_y
_atom_site_fract_z
Si Si1 0.726539 0.652923 0.356208
Si Si2 0.618576 0.854628 0.812351
Si Si3 0.196158 0.441645 0.500000
Si Si4 0.617557 0.923610 0.000000
Si Si5 0.463019 0.754969 0.897936
O O1 0.748009 0.642698 0.248001
O O2 0.733600 0.587914 0.410613
O O3 0.584200 0.686426 0.367949
O O4 0.841350 0.696495 0.397417
O O5 0.500000 0.885631 0.750000
O O6 0.578164 0.782541 0.832422
O O7 0.651492 0.887686 0.907121
O O8 0.211979 0.515823 0.500000
O O9 0.038954 0.432618 0.500000
O O10 0.520490 0.751265 0.000000
#
# Coordination Sequence:
#
# PCOD8275221 Si02
#       5
#    16  16   8   8  16
#     4  10  17  28  46  68  92 124 170 205 236 283
#     4  10  18  30  44  68  95 129 163 199 249 284
#     4  11  18  28  43  65  91 134 170 190 228 288
#     4  11  20  29  40  61  99 133 164 186 235 304
#     4  10  15  28  49  64  85 130 171 203 237 289
#
# _framework density 20.174890999999999
#
# number of rings (size 3 to 8) (size 9 to 14) (size 15 to 20)
#    0.000    1.750    8.750    0.750    0.000    1.000 
#    0.000    0.000    0.000   13.500    0.000    0.000 
#    0.000    0.000    0.000  254.250    0.000    0.000 
#
# Total GULP energy -396511.971223 kJ/mol
# GULP energy per Si atom -12390.999101 kJ/mol
# Density = 2.012897 g / cm^3
# Si number density = 20.174891 Si / 1000 Ang^3
#
#
#
# Elastic Constant Matrix: (Units=GPa)
#
#
# Indices 1 2 3 4 5 6 
#
# 1 19.7982 32.4368 29.7779 0.0000 0.0000 0.0000
# 2 32.4368 125.5630 70.3627 0.0000 0.0000 0.0000
# 3 29.7779 70.3627 194.2289 0.0000 0.0000 0.0000
# 4 0.0000 0.0000 0.0000 15.8409 0.0000 0.0000
# 5 0.0000 0.0000 0.0000 0.0000 6.0197 0.0000
# 6 0.0000 0.0000 0.0000 0.0000 0.0000 25.9498
#
#
#
# Elastic Compliance Matrix: (Units=1/GPa)
#
#
# Indices 1 2 3 4 5 6 
#
# 1 0.094792 -0.020507 -0.007104 0.000000 0.000000 0.000000
# 2 -0.020507 0.014429 -0.002083 0.000000 0.000000 0.000000
# 3 -0.007104 -0.002083 0.006992 0.000000 0.000000 0.000000
# 4 0.000000 0.000000 0.000000 0.063128 0.000000 0.000000
# 5 0.000000 0.000000 0.000000 0.000000 0.166122 0.000000
# 6 0.000000 0.000000 0.000000 0.000000 0.000000 0.038536
#
#
# Mechanical properties :
#
#
# Convention : Reuss Voigt Hill
#
# Bulk Modulus (GPa) = 17.59774 67.19385 42.39580
# Shear Modulus (GPa) = 10.81481 23.36294 17.08888
#
# Velocity S-wave (km/s) = 2.31779 3.40666 2.91355
# Velocity P-wave (km/s) = 3.98803 6.98940 5.69018
#
# Compressibility (1/GPa) = 0.05682548
#
# Stress axis : x y z
#
# Youngs Moduli (GPa) = 10.54943 69.30478 143.01309
#
# Poissons Ratio (x) = 1.42121 1.01596
# Poissons Ratio (y) = 0.21633 0.29792
# Poissons Ratio (z) = 0.07494 0.14438
#
# Static dielectric constant tensor:
#      x y z
#    x 3.187790 0.000000 0.000000 
#    y 0.000000 3.754380 0.000000 
#    z 0.000000 0.000000 3.917870 
# 
# 
# High freq. dielectric constant tensor:
#      x y z
#    x 1.717420 0.000000 0.000000 
#    y 0.000000 1.753710 0.000000 
#    z 0.000000 0.000000 1.813800 
# 
# From -- ./inp_files/24220.got.cif
#   From: 2010.03.12/outbox.cif.g09.slc.cpg/sg66_13_cif.got.tgz:24220.got - 2010.04.10 21:57:39.
