data_PCOD8275433
_publ_section_title
;
Structure prediction by ZEFSAII (Michael W. Deem and Ramdas Pophale) SiO2 
 PCOD8275433
Probable space group: C C C M
;
_chemical_formula_sum "Si O2"
_cell_formula_units_Z 96
_cell_length_a 25.985344
_cell_length_b 28.701118
_cell_length_c 9.075389
_cell_angle_alpha 90.000000
_cell_angle_beta 90.000000
_cell_angle_gamma 90.000000
_cell_volume 6768.501571
_symmetry_space_group_name_H-M "C C C M"
_symmetry_group_IT_number 66
_symmetry_cell_setting 'orthorhombic'
loop_
_space_group_symop_operation_xyz
x,y,z
-x,-y,z
x,-y,1/2-z
-x,y,1/2-z
-x,-y,-z
x,y,-z
-x,y,1/2+z
x,-y,1/2+z
1/2+x,1/2+y,z
1/2-x,1/2-y,z
1/2+x,1/2-y,1/2-z
1/2-x,1/2+y,1/2-z
1/2-x,1/2-y,-z
1/2+x,1/2+y,-z
1/2-x,1/2+y,1/2+z
1/2+x,1/2-y,1/2+z
loop_
_atom_site_type_symbol
_atom_site_label
_atom_site_fract_x
_atom_site_fract_y
_atom_site_fract_z
Si Si1 0.195786 0.275721 0.837530
Si Si2 0.601762 0.546197 0.671778
Si Si3 0.152750 0.804439 0.828541
Si Si4 0.721649 0.453053 0.173078
Si Si5 0.051911 0.859031 0.171358
Si Si6 0.241547 0.138874 0.825623
O O1 0.250000 0.250000 0.842864
O O2 0.158538 0.249503 0.722282
O O3 0.208309 0.328977 0.790920
O O4 0.170196 0.274134 0.000000
O O5 0.580196 0.500000 0.750000
O O6 0.593066 0.539440 0.500000
O O7 0.661555 0.554009 0.707770
O O8 0.571155 0.590962 0.732597
O O9 0.094435 0.819678 0.797368
O O10 0.189992 0.837938 0.737582
O O11 0.166980 0.809303 0.000000
O O12 0.741932 0.500000 0.250000
O O13 0.752023 0.410151 0.246268
O O14 0.733191 0.455165 0.000000
O O15 0.000000 0.843165 0.250000
O O16 0.040559 0.863549 0.000000
O O17 0.234100 0.132142 0.000000
#
# Coordination Sequence:
#
# PCOD8275433 Si02
#       6
#    16  16  16  16  16  16
#     4   8  16  28  41  61  83 101 126 157 194 242
#     4   9  18  32  44  56  74  95 127 168 208 247
#     4  10  18  30  44  59  80 101 128 167 204 243
#     4  10  18  29  43  60  82 106 135 167 202 243
#     4  10  21  34  44  58  77  99 131 170 209 252
#     4  10  18  28  43  62  83 105 130 161 198 240
#
# _framework density 14.183346
#
# number of rings (size 3 to 8) (size 9 to 14) (size 15 to 20)
#    0.000    2.500    1.667    2.500    0.000    6.667 
#    0.000    1.667    0.000    0.000    0.000    0.000 
#    0.000    0.000    0.000    0.000    0.000    0.833 
#
# Total GULP energy -595085.003882 kJ/mol
# GULP energy per Si atom -12397.604248 kJ/mol
# Density = 1.415106 g / cm^3
# Si number density = 14.183346 Si / 1000 Ang^3
#
#
#
# Elastic Constant Matrix: (Units=GPa)
#
#
# Indices 1 2 3 4 5 6 
#
# 1 41.1620 43.7912 30.8679 0.0000 0.0000 0.0000
# 2 43.7912 110.8364 55.6931 0.0000 0.0000 0.0000
# 3 30.8679 55.6931 74.5637 0.0000 0.0000 0.0000
# 4 0.0000 0.0000 0.0000 28.2032 0.0000 0.0000
# 5 0.0000 0.0000 0.0000 0.0000 17.8618 0.0000
# 6 0.0000 0.0000 0.0000 0.0000 0.0000 16.9011
#
#
#
# Elastic Compliance Matrix: (Units=1/GPa)
#
#
# Indices 1 2 3 4 5 6 
#
# 1 0.045099 -0.013506 -0.008582 0.000000 0.000000 0.000000
# 2 -0.013506 0.018488 -0.008218 0.000000 0.000000 0.000000
# 3 -0.008582 -0.008218 0.023102 0.000000 0.000000 0.000000
# 4 0.000000 0.000000 0.000000 0.035457 0.000000 0.000000
# 5 0.000000 0.000000 0.000000 0.000000 0.055985 0.000000
# 6 0.000000 0.000000 0.000000 0.000000 0.000000 0.059168
#
#
# Mechanical properties :
#
#
# Convention : Reuss Voigt Hill
#
# Bulk Modulus (GPa) = 38.34784 54.14071 46.24427
# Shear Modulus (GPa) = 16.30777 19.00722 17.65749
#
# Velocity S-wave (km/s) = 3.39452 3.66472 3.53221
# Velocity P-wave (km/s) = 6.51611 7.49412 7.02216
#
# Compressibility (1/GPa) = 0.02607709
#
# Stress axis : x y z
#
# Youngs Moduli (GPa) = 22.17356 54.09006 43.28634
#
# Poissons Ratio (x) = 0.73055 0.37148
# Poissons Ratio (y) = 0.29948 0.35571
# Poissons Ratio (z) = 0.19029 0.44449
#
# Static dielectric constant tensor:
#      x y z
#    x 2.455120 0.000000 0.000000 
#    y 0.000000 3.083230 0.000000 
#    z 0.000000 0.000000 2.854410 
# 
# 
# High freq. dielectric constant tensor:
#      x y z
#    x 1.483160 0.000000 0.000000 
#    y 0.000000 1.541530 0.000000 
#    z 0.000000 0.000000 1.553420 
# 
# From -- ./inp_files/9277.got.cif
#   From: 2010.03.12/outbox.cif.g09.slc.cpg/sg66_5_cif.got.tgz:9277.got - 2010.04.10 21:57:39.
