data_PCOD8275755
_publ_section_title
;
Structure prediction by ZEFSAII (Michael W. Deem and Ramdas Pophale) SiO2 
 PCOD8275755
Probable space group: C C C M
;
_chemical_formula_sum "Si O2"
_cell_formula_units_Z 128
_cell_length_a 17.588536
_cell_length_b 25.055927
_cell_length_c 18.431652
_cell_angle_alpha 90.000000
_cell_angle_beta 90.000000
_cell_angle_gamma 90.000000
_cell_volume 8122.775106
_symmetry_space_group_name_H-M "C C C M"
_symmetry_group_IT_number 66
_symmetry_cell_setting 'orthorhombic'
loop_
_space_group_symop_operation_xyz
x,y,z
-x,-y,z
x,-y,1/2-z
-x,y,1/2-z
-x,-y,-z
x,y,-z
-x,y,1/2+z
x,-y,1/2+z
1/2+x,1/2+y,z
1/2-x,1/2-y,z
1/2+x,1/2-y,1/2-z
1/2-x,1/2+y,1/2-z
1/2-x,1/2-y,-z
1/2+x,1/2+y,-z
1/2-x,1/2+y,1/2+z
1/2+x,1/2-y,1/2+z
loop_
_atom_site_type_symbol
_atom_site_label
_atom_site_fract_x
_atom_site_fract_y
_atom_site_fract_z
Si Si1 0.010711 0.916117 0.580660
Si Si2 0.335982 0.552097 0.084200
Si Si3 0.522283 0.291125 0.419504
Si Si4 0.868524 0.037688 0.315190
Si Si5 0.195567 0.874561 0.211940
Si Si6 0.075398 0.779456 0.793535
Si Si7 0.831951 0.275367 0.578331
Si Si8 0.810390 0.702432 0.771009
O O1 0.041253 0.932062 0.500000
O O2 0.020613 0.853879 0.592679
O O3 0.056208 0.943402 0.644672
O O4 0.924906 0.935339 0.587832
O O5 0.319753 0.495171 0.123974
O O6 0.295074 0.597022 0.133648
O O7 0.306939 0.552532 0.000000
O O8 0.500918 0.274546 0.500000
O O9 0.454158 0.265261 0.373681
O O10 0.606745 0.270344 0.399624
O O11 0.820558 0.085825 0.279597
O O12 0.895554 0.000000 0.250000
O O13 0.130246 0.830261 0.208233
O O14 0.277093 0.847295 0.226910
O O15 0.114214 0.724952 0.766881
O O16 0.000000 0.795504 0.750000
O O17 0.853721 0.302099 0.500000
O O18 0.750000 0.250000 0.568685
O O19 0.830545 0.316352 0.646139
O O20 0.750000 0.750000 0.776518
#
# Coordination Sequence:
#
# PCOD8275755 Si02
#       8
#    16  16  16  16  16  16  16  16
#     4  10  19  30  44  62  90 123 158 197 233 269
#     4  10  20  34  47  61  88 123 160 197 236 272
#     4  10  19  30  46  68  91 126 165 195 228 273
#     4  10  21  31  43  64  87 117 157 199 239 273
#     4  10  21  32  47  66  95 124 159 195 233 277
#     4  11  18  30  48  68  91 124 159 193 229 271
#     4   9  17  29  43  63  93 124 155 189 231 274
#     4   9  19  31  45  67  92 122 156 192 231 276
#
# _framework density 15.758160999999999
#
# number of rings (size 3 to 8) (size 9 to 14) (size 15 to 20)
#    0.000    2.125    2.500    1.500    3.500    4.000 
#    0.000    1.250    0.000    2.250    0.000    0.000 
#    0.000    4.500    0.000    1.125    0.000    0.000 
#
# Total GULP energy -792917.964989 kJ/mol
# GULP energy per Si atom -12389.343203 kJ/mol
# Density = 1.572229 g / cm^3
# Si number density = 15.758161 Si / 1000 Ang^3
#
#
#
# Elastic Constant Matrix: (Units=GPa)
#
#
# Indices 1 2 3 4 5 6 
#
# 1 53.0671 31.1382 40.0086 0.0000 0.0000 0.0000
# 2 31.1382 49.6133 51.1560 0.0000 0.0000 0.0000
# 3 40.0086 51.1560 137.1391 0.0000 0.0000 0.0000
# 4 0.0000 0.0000 0.0000 21.4787 0.0000 0.0000
# 5 0.0000 0.0000 0.0000 0.0000 38.4588 0.0000
# 6 0.0000 0.0000 0.0000 0.0000 0.0000 -36.8612
#
#
#
# Elastic Compliance Matrix: (Units=1/GPa)
#
#
# Indices 1 2 3 4 5 6 
#
# 1 0.030502 -0.016199 -0.002856 0.000000 0.000000 0.000000
# 2 -0.016199 0.041356 -0.010701 0.000000 0.000000 0.000000
# 3 -0.002856 -0.010701 0.012117 0.000000 0.000000 0.000000
# 4 0.000000 0.000000 0.000000 0.046558 0.000000 0.000000
# 5 0.000000 0.000000 0.000000 0.000000 0.026002 0.000000
# 6 0.000000 0.000000 0.000000 0.000000 0.000000 -0.027129
#
#
# Mechanical properties :
#
#
# Convention : Reuss Voigt Hill
#
# Bulk Modulus (GPa) = 40.87726 53.82502 47.35114
# Shear Modulus (GPa) = 25.37129 12.44970 18.91049
#
# Velocity S-wave (km/s) = 4.01688 2.81383 3.46792
# Velocity P-wave (km/s) = 6.89279 6.69238 6.79332
#
# Compressibility (1/GPa) = 0.02446348
#
# Stress axis : x y z
#
# Youngs Moduli (GPa) = 32.78433 24.18004 82.52973
#
# Poissons Ratio (x) = 0.39169 0.23572
# Poissons Ratio (y) = 0.53107 0.88316
# Poissons Ratio (z) = 0.09364 0.25875
#
# Static dielectric constant tensor:
#      x y z
#    x 2.835510 0.000000 0.000000 
#    y 0.000000 2.962110 0.000000 
#    z 0.000000 0.000000 3.639440 
# 
# 
# High freq. dielectric constant tensor:
#      x y z
#    x 1.564160 0.000000 0.000000 
#    y 0.000000 1.575180 0.000000 
#    z 0.000000 0.000000 1.634500 
# 
# From -- ./inp_files/42146.got.cif
#   From: 2010.03.12/outbox.cif.g09.slc.cpg/sg66_22_cif.got.tgz:42146.got - 2010.04.10 21:57:39.
