data_PCOD8275768
_publ_section_title
;
Structure prediction by ZEFSAII (Michael W. Deem and Ramdas Pophale) SiO2 
 PCOD8275768
Probable space group: C C C M
;
_chemical_formula_sum "Si O2"
_cell_formula_units_Z 96
_cell_length_a 17.789466
_cell_length_b 19.109188
_cell_length_c 16.857016
_cell_angle_alpha 90.000000
_cell_angle_beta 90.000000
_cell_angle_gamma 90.000000
_cell_volume 5730.411951
_symmetry_space_group_name_H-M "C C C M"
_symmetry_group_IT_number 66
_symmetry_cell_setting 'orthorhombic'
loop_
_space_group_symop_operation_xyz
x,y,z
-x,-y,z
x,-y,1/2-z
-x,y,1/2-z
-x,-y,-z
x,y,-z
-x,y,1/2+z
x,-y,1/2+z
1/2+x,1/2+y,z
1/2-x,1/2-y,z
1/2+x,1/2-y,1/2-z
1/2-x,1/2+y,1/2-z
1/2-x,1/2-y,-z
1/2+x,1/2+y,-z
1/2-x,1/2+y,1/2+z
1/2+x,1/2-y,1/2+z
loop_
_atom_site_type_symbol
_atom_site_label
_atom_site_fract_x
_atom_site_fract_y
_atom_site_fract_z
Si Si1 0.686408 0.920038 0.089320
Si Si2 0.092476 0.282618 0.910072
Si Si3 0.869490 0.544746 0.322478
Si Si4 0.834694 0.222424 0.260093
Si Si5 0.216926 0.075610 0.237858
Si Si6 0.949909 0.684280 0.326718
O O1 0.626927 0.858844 0.106587
O O2 0.758126 0.912791 0.146617
O O3 0.643631 0.993427 0.103363
O O4 0.716957 0.916915 0.000000
O O5 0.130425 0.229673 0.848033
O O6 0.002262 0.285663 0.896834
O O7 0.108226 0.257160 0.000000
O O8 0.906116 0.500000 0.250000
O O9 0.790965 0.576750 0.292113
O O10 0.920311 0.608233 0.352508
O O11 0.750000 0.250000 0.260152
O O12 0.837005 0.139765 0.238192
O O13 0.882164 0.262484 0.192819
O O14 0.175788 0.000000 0.250000
O O15 0.000000 0.673646 0.250000
#
# Coordination Sequence:
#
# PCOD8275768 Si02
#       6
#    16  16  16  16  16  16
#     4   9  17  28  43  68 101 132 157 183 227 289
#     4  10  21  32  45  72 105 132 156 190 242 293
#     4   9  16  27  43  65  95 129 163 195 227 273
#     4  11  17  31  54  76  91 124 166 203 241 277
#     4   9  17  30  48  73  98 118 153 204 246 279
#     4  10  19  30  46  67  96 130 165 202 236 279
#
# _framework density 16.752723
#
# number of rings (size 3 to 8) (size 9 to 14) (size 15 to 20)
#    0.000    2.667    3.333    3.000    0.000    4.000 
#    0.000    1.667    0.000    9.000    0.000    1.167 
#    0.000    0.000    0.000    0.000    0.000    0.000 
#
# Total GULP energy -594952.507588 kJ/mol
# GULP energy per Si atom -12394.843908 kJ/mol
# Density = 1.671459 g / cm^3
# Si number density = 16.752723 Si / 1000 Ang^3
#
#
#
# Elastic Constant Matrix: (Units=GPa)
#
#
# Indices 1 2 3 4 5 6 
#
# 1 53.3118 39.2800 12.1715 0.0000 0.0000 0.0000
# 2 39.2800 112.8709 13.4045 0.0000 0.0000 0.0000
# 3 12.1715 13.4045 52.1232 0.0000 0.0000 0.0000
# 4 0.0000 0.0000 0.0000 15.8579 0.0000 0.0000
# 5 0.0000 0.0000 0.0000 0.0000 14.9489 0.0000
# 6 0.0000 0.0000 0.0000 0.0000 0.0000 24.4758
#
#
#
# Elastic Compliance Matrix: (Units=1/GPa)
#
#
# Indices 1 2 3 4 5 6 
#
# 1 0.025956 -0.008575 -0.003856 0.000000 0.000000 0.000000
# 2 -0.008575 0.011972 -0.001076 0.000000 0.000000 0.000000
# 3 -0.003856 -0.001076 0.020363 0.000000 0.000000 0.000000
# 4 0.000000 0.000000 0.000000 0.063060 0.000000 0.000000
# 5 0.000000 0.000000 0.000000 0.000000 0.066894 0.000000
# 6 0.000000 0.000000 0.000000 0.000000 0.000000 0.040857
#
#
# Mechanical properties :
#
#
# Convention : Reuss Voigt Hill
#
# Bulk Modulus (GPa) = 31.97367 38.66866 35.32117
# Shear Modulus (GPa) = 18.75884 21.28651 20.02267
#
# Velocity S-wave (km/s) = 3.34990 3.56846 3.46090
# Velocity P-wave (km/s) = 5.83862 6.33330 6.09098
#
# Compressibility (1/GPa) = 0.03127573
#
# Stress axis : x y z
#
# Youngs Moduli (GPa) = 38.52690 83.53058 49.10980
#
# Poissons Ratio (x) = 0.71627 0.18936
# Poissons Ratio (y) = 0.33037 0.05286
# Poissons Ratio (z) = 0.14855 0.08991
#
# Static dielectric constant tensor:
#      x y z
#    x 3.042740 0.000000 0.000000 
#    y 0.000000 3.317550 0.000000 
#    z 0.000000 0.000000 3.048870 
# 
# 
# High freq. dielectric constant tensor:
#      x y z
#    x 1.617300 0.000000 0.000000 
#    y 0.000000 1.647200 0.000000 
#    z 0.000000 0.000000 1.625230 
# 
# From -- ./inp_files/41714.got.cif
#   From: 2010.03.12/outbox.cif.g09.slc.cpg/sg66_21_cif.got.tgz:41714.got - 2010.04.10 21:57:39.
