data_PCOD8275577
_publ_section_title
;
Structure prediction by ZEFSAII (Michael W. Deem and Ramdas Pophale) SiO2 
 PCOD8275577
Probable space group: C C C M
;
_chemical_formula_sum "Si O2"
_cell_formula_units_Z 96
_cell_length_a 30.390591
_cell_length_b 20.713156
_cell_length_c 8.899438
_cell_angle_alpha 90.000000
_cell_angle_beta 90.000000
_cell_angle_gamma 90.000000
_cell_volume 5602.063195
_symmetry_space_group_name_H-M "C C C M"
_symmetry_group_IT_number 66
_symmetry_cell_setting 'orthorhombic'
loop_
_space_group_symop_operation_xyz
x,y,z
-x,-y,z
x,-y,1/2-z
-x,y,1/2-z
-x,-y,-z
x,y,-z
-x,y,1/2+z
x,-y,1/2+z
1/2+x,1/2+y,z
1/2-x,1/2-y,z
1/2+x,1/2-y,1/2-z
1/2-x,1/2+y,1/2-z
1/2-x,1/2-y,-z
1/2+x,1/2+y,-z
1/2-x,1/2+y,1/2+z
1/2+x,1/2-y,1/2+z
loop_
_atom_site_type_symbol
_atom_site_label
_atom_site_fract_x
_atom_site_fract_y
_atom_site_fract_z
Si Si1 0.369146 0.234961 0.169905
Si Si2 0.430394 0.061473 0.322745
Si Si3 0.249841 0.564532 0.822176
Si Si4 0.956187 0.295912 0.825113
Si Si5 0.782520 0.193063 0.675806
Si Si6 0.659219 0.908136 0.825753
O O1 0.412365 0.241472 0.272744
O O2 0.333513 0.289770 0.207575
O O3 0.343395 0.168511 0.195156
O O4 0.386257 0.240168 0.000000
O O5 0.425454 0.053535 0.500000
O O6 0.454025 0.128405 0.280750
O O7 0.383535 0.058944 0.241796
O O8 0.456488 0.000000 0.250000
O O9 0.271562 0.500000 0.750000
O O10 0.274988 0.627776 0.766079
O O11 0.199463 0.566425 0.771091
O O12 0.253231 0.560486 0.000000
O O13 0.000000 0.266476 0.750000
O O14 0.960423 0.285347 0.000000
O O15 0.773371 0.180752 0.500000
O O16 0.750000 0.250000 0.732819
O O17 0.665167 0.927240 0.000000
#
# Coordination Sequence:
#
# PCOD8275577 Si02
#       6
#    16  16  16  16  16  16
#     4   9  18  33  55  76  99 131 166 207 257 309
#     4  10  20  32  45  65  90 123 164 211 258 308
#     4  12  24  35  49  72 104 141 179 220 261 304
#     4  10  21  35  51  70  95 123 162 210 259 308
#     4  10  19  36  57  79 106 138 175 213 260 314
#     4  10  18  32  50  69  95 131 171 213 259 306
#
# _framework density 17.136543
#
# number of rings (size 3 to 8) (size 9 to 14) (size 15 to 20)
#    0.000    1.833    1.667    3.500    0.000    4.000 
#    0.000    1.667    0.000    0.000    0.000    0.000 
#    0.000    0.667    0.000    7.000    0.000    3.000 
#
# Total GULP energy -595167.583560 kJ/mol
# GULP energy per Si atom -12399.324658 kJ/mol
# Density = 1.709754 g / cm^3
# Si number density = 17.136543 Si / 1000 Ang^3
#
#
#
# Elastic Constant Matrix: (Units=GPa)
#
#
# Indices 1 2 3 4 5 6 
#
# 1 80.9359 37.7488 48.2068 0.0000 0.0000 0.0000
# 2 37.7488 81.4712 46.9123 0.0000 0.0000 0.0000
# 3 48.2068 46.9123 100.2700 0.0000 0.0000 0.0000
# 4 0.0000 0.0000 0.0000 24.9329 0.0000 0.0000
# 5 0.0000 0.0000 0.0000 0.0000 25.9595 0.0000
# 6 0.0000 0.0000 0.0000 0.0000 0.0000 8.0011
#
#
#
# Elastic Compliance Matrix: (Units=1/GPa)
#
#
# Indices 1 2 3 4 5 6 
#
# 1 0.018560 -0.004738 -0.006706 0.000000 0.000000 0.000000
# 2 -0.004738 0.018010 -0.006148 0.000000 0.000000 0.000000
# 3 -0.006706 -0.006148 0.016074 0.000000 0.000000 0.000000
# 4 0.000000 0.000000 0.000000 0.040108 0.000000 0.000000
# 5 0.000000 0.000000 0.000000 0.000000 0.038522 0.000000
# 6 0.000000 0.000000 0.000000 0.000000 0.000000 0.124982
#
#
# Mechanical properties :
#
#
# Convention : Reuss Voigt Hill
#
# Bulk Modulus (GPa) = 57.27886 58.71254 57.99570
# Shear Modulus (GPa) = 16.82038 20.43265 18.62652
#
# Velocity S-wave (km/s) = 3.13637 3.45678 3.30046
# Velocity P-wave (km/s) = 6.82739 7.09002 6.95995
#
# Compressibility (1/GPa) = 0.01745845
#
# Stress axis : x y z
#
# Youngs Moduli (GPa) = 53.88069 55.52549 62.21334
#
# Poissons Ratio (x) = 0.26307 0.41722
# Poissons Ratio (y) = 0.25528 0.38250
# Poissons Ratio (z) = 0.36134 0.34138
#
# Static dielectric constant tensor:
#      x y z
#    x 3.095530 0.000000 0.000000 
#    y 0.000000 3.252790 0.000000 
#    z 0.000000 0.000000 3.216250 
# 
# 
# High freq. dielectric constant tensor:
#      x y z
#    x 1.647420 0.000000 0.000000 
#    y 0.000000 1.633380 0.000000 
#    z 0.000000 0.000000 1.670370 
# 
# From -- ./inp_files/10233.got.cif
#   From: 2010.03.12/outbox.cif.g09.slc.cpg/sg66_6_cif.got.tgz:10233.got - 2010.04.10 21:57:39.
