data_PCOD8275808
_publ_section_title
;
Structure prediction by ZEFSAII (Michael W. Deem and Ramdas Pophale) SiO2 
 PCOD8275808
Probable space group: C C C M
;
_chemical_formula_sum "Si O2"
_cell_formula_units_Z 96
_cell_length_a 31.452735
_cell_length_b 18.974508
_cell_length_c 8.977550
_cell_angle_alpha 90.000000
_cell_angle_beta 90.000000
_cell_angle_gamma 90.000000
_cell_volume 5357.803383
_symmetry_space_group_name_H-M "C C C M"
_symmetry_group_IT_number 66
_symmetry_cell_setting 'orthorhombic'
loop_
_space_group_symop_operation_xyz
x,y,z
-x,-y,z
x,-y,1/2-z
-x,y,1/2-z
-x,-y,-z
x,y,-z
-x,y,1/2+z
x,-y,1/2+z
1/2+x,1/2+y,z
1/2-x,1/2-y,z
1/2+x,1/2-y,1/2-z
1/2-x,1/2+y,1/2-z
1/2-x,1/2-y,-z
1/2+x,1/2+y,-z
1/2-x,1/2+y,1/2+z
1/2+x,1/2-y,1/2+z
loop_
_atom_site_type_symbol
_atom_site_label
_atom_site_fract_x
_atom_site_fract_y
_atom_site_fract_z
Si Si1 0.373108 0.281649 0.672920
Si Si2 0.742136 0.071804 0.824664
Si Si3 0.589170 0.074999 0.674363
Si Si4 0.839605 0.070216 0.173143
Si Si5 0.173475 0.340307 0.827098
Si Si6 0.957169 0.700024 0.674350
O O1 0.361168 0.271063 0.500000
O O2 0.368002 0.362974 0.721370
O O3 0.340435 0.236001 0.769153
O O4 0.421376 0.258861 0.705168
O O5 0.790968 0.085149 0.780038
O O6 0.715337 0.136887 0.761690
O O7 0.725388 0.000000 0.750000
O O8 0.735194 0.065889 0.000000
O O9 0.579077 0.069603 0.500000
O O10 0.636441 0.103329 0.704315
O O11 0.555126 0.126430 0.749673
O O12 0.584276 0.000000 0.750000
O O13 0.857702 0.000000 0.250000
O O14 0.842828 0.055863 0.000000
O O15 0.184574 0.334654 0.000000
O O16 0.964082 0.687276 0.500000
O O17 0.000000 0.728879 0.750000
#
# Coordination Sequence:
#
# PCOD8275808 Si02
#       6
#    16  16  16  16  16  16
#     4   9  19  36  55  74  99 131 164 200 248 301
#     4  10  19  31  48  70 100 136 173 211 248 288
#     4  10  20  33  49  71 100 134 172 209 244 283
#     4   9  19  35  54  76 100 129 165 204 248 297
#     4  10  20  32  48  72 102 136 174 212 247 286
#     4  10  20  35  55  76  99 127 160 200 246 297
#
# _framework density 17.91779
#
# number of rings (size 3 to 8) (size 9 to 14) (size 15 to 20)
#    0.000    2.333    0.000    2.500    0.000    6.333 
#    0.000    5.000    0.000    0.500    0.000    3.500 
#    0.000    0.000    0.000    0.000    0.000    0.000 
#
# Total GULP energy -595372.185993 kJ/mol
# GULP energy per Si atom -12403.587208 kJ/mol
# Density = 1.787701 g / cm^3
# Si number density = 17.917790 Si / 1000 Ang^3
#
#
#
# Elastic Constant Matrix: (Units=GPa)
#
#
# Indices 1 2 3 4 5 6 
#
# 1 71.3058 64.9075 43.3446 0.0000 0.0000 0.0000
# 2 64.9075 141.5629 58.2495 0.0000 0.0000 0.0000
# 3 43.3446 58.2495 88.5733 0.0000 0.0000 0.0000
# 4 0.0000 0.0000 0.0000 29.9277 0.0000 0.0000
# 5 0.0000 0.0000 0.0000 0.0000 25.5171 0.0000
# 6 0.0000 0.0000 0.0000 0.0000 0.0000 17.6260
#
#
#
# Elastic Compliance Matrix: (Units=1/GPa)
#
#
# Indices 1 2 3 4 5 6 
#
# 1 0.026838 -0.009461 -0.006911 0.000000 0.000000 0.000000
# 2 -0.009461 0.013020 -0.003933 0.000000 0.000000 0.000000
# 3 -0.006911 -0.003933 0.017258 0.000000 0.000000 0.000000
# 4 0.000000 0.000000 0.000000 0.033414 0.000000 0.000000
# 5 0.000000 0.000000 0.000000 0.000000 0.039189 0.000000
# 6 0.000000 0.000000 0.000000 0.000000 0.000000 0.056734
#
#
# Mechanical properties :
#
#
# Convention : Reuss Voigt Hill
#
# Bulk Modulus (GPa) = 60.58417 70.49391 65.53904
# Shear Modulus (GPa) = 21.49926 23.61020 22.55473
#
# Velocity S-wave (km/s) = 3.46769 3.63395 3.55179
# Velocity P-wave (km/s) = 7.06533 7.55221 7.31282
#
# Compressibility (1/GPa) = 0.01650596
#
# Stress axis : x y z
#
# Youngs Moduli (GPa) = 37.26109 76.80309 57.94290
#
# Poissons Ratio (x) = 0.72667 0.40045
# Poissons Ratio (y) = 0.35255 0.22787
# Poissons Ratio (z) = 0.25752 0.30204
#
# Static dielectric constant tensor:
#      x y z
#    x 3.269670 0.000000 0.000000 
#    y 0.000000 3.277630 0.000000 
#    z 0.000000 0.000000 3.385600 
# 
# 
# High freq. dielectric constant tensor:
#      x y z
#    x 1.679550 0.000000 0.000000 
#    y 0.000000 1.685630 0.000000 
#    z 0.000000 0.000000 1.704680 
# 
# From -- ./inp_files/10238.got.cif
#   From: 2010.03.12/outbox.cif.g09.slc.cpg/sg66_6_cif.got.tgz:10238.got - 2010.04.10 21:57:39.
