data_PCOD8275625
_publ_section_title
;
Structure prediction by ZEFSAII (Michael W. Deem and Ramdas Pophale) SiO2 
 PCOD8275625
Probable space group: C C C M
;
_chemical_formula_sum "Si O2"
_cell_formula_units_Z 128
_cell_length_a 23.077687
_cell_length_b 17.517113
_cell_length_c 16.404806
_cell_angle_alpha 90.000000
_cell_angle_beta 90.000000
_cell_angle_gamma 90.000000
_cell_volume 6631.715843
_symmetry_space_group_name_H-M "C C C M"
_symmetry_group_IT_number 66
_symmetry_cell_setting 'orthorhombic'
loop_
_space_group_symop_operation_xyz
x,y,z
-x,-y,z
x,-y,1/2-z
-x,y,1/2-z
-x,-y,-z
x,y,-z
-x,y,1/2+z
x,-y,1/2+z
1/2+x,1/2+y,z
1/2-x,1/2-y,z
1/2+x,1/2-y,1/2-z
1/2-x,1/2+y,1/2-z
1/2-x,1/2-y,-z
1/2+x,1/2+y,-z
1/2-x,1/2+y,1/2+z
1/2+x,1/2-y,1/2+z
loop_
_atom_site_type_symbol
_atom_site_label
_atom_site_fract_x
_atom_site_fract_y
_atom_site_fract_z
Si Si1 0.237924 0.449681 0.669286
Si Si2 0.116295 0.345064 0.844443
Si Si3 0.175801 0.945005 0.405074
Si Si4 0.885757 0.510067 0.653256
Si Si5 0.950828 0.646968 0.310021
Si Si6 0.255725 0.838411 0.301714
Si Si7 0.024511 0.235162 0.093790
Si Si8 0.955904 0.064058 0.403329
O O1 0.240271 0.500000 0.750000
O O2 0.290830 0.474753 0.610701
O O3 0.177662 0.463636 0.620909
O O4 0.244013 0.364784 0.706359
O O5 0.093343 0.427272 0.879957
O O6 0.102328 0.329039 0.748689
O O7 0.185122 0.353605 0.851441
O O8 0.086800 0.277577 0.896517
O O9 0.178441 0.923025 0.500000
O O10 0.204089 0.876512 0.353341
O O11 0.109459 0.955945 0.376090
O O12 0.881014 0.500000 0.750000
O O13 0.931297 0.577388 0.630634
O O14 0.000000 0.614335 0.250000
O O15 0.973810 0.719835 0.359262
O O16 0.250000 0.750000 0.297444
O O17 0.027886 0.149039 0.129016
O O18 0.007118 0.233514 0.000000
O O19 0.960457 0.064247 0.500000
O O20 0.000000 0.000000 0.367104
#
# Coordination Sequence:
#
# PCOD8275625 Si02
#       8
#    16  16  16  16  16  16  16  16
#     4   9  16  34  53  76 112 146 186 224 270 339
#     4  10  18  33  54  76 108 151 184 223 276 342
#     4  10  20  35  59  87 110 143 191 237 284 339
#     4   9  14  30  53  71  99 148 189 208 250 333
#     4   9  18  31  53  74 102 146 191 215 261 334
#     4  11  20  33  57  86 117 148 184 231 290 347
#     4  10  21  35  52  80 113 139 183 245 286 326
#     4   9  19  39  61  77 104 149 187 222 284 352
#
# _framework density 19.301189000000001
#
# number of rings (size 3 to 8) (size 9 to 14) (size 15 to 20)
#    0.000    2.375    5.000    0.750    0.000    6.500 
#    2.250    1.875    8.250    0.375    0.000    0.000 
#    0.000    0.000    0.000    0.000    0.000    0.000 
#
# Total GULP energy -792911.523873 kJ/mol
# GULP energy per Si atom -12389.242561 kJ/mol
# Density = 1.925726 g / cm^3
# Si number density = 19.301189 Si / 1000 Ang^3
#
#
#
# Elastic Constant Matrix: (Units=GPa)
#
#
# Indices 1 2 3 4 5 6 
#
# 1 128.7434 73.8702 22.7659 0.0000 0.0000 0.0000
# 2 73.8702 148.1991 32.4718 0.0000 0.0000 0.0000
# 3 22.7659 32.4718 32.9685 0.0000 0.0000 0.0000
# 4 0.0000 0.0000 0.0000 16.9376 0.0000 0.0000
# 5 0.0000 0.0000 0.0000 0.0000 19.8735 0.0000
# 6 0.0000 0.0000 0.0000 0.0000 0.0000 23.9906
#
#
#
# Elastic Compliance Matrix: (Units=1/GPa)
#
#
# Indices 1 2 3 4 5 6 
#
# 1 0.011081 -0.004905 -0.002820 0.000000 0.000000 0.000000
# 2 -0.004905 0.010776 -0.007226 0.000000 0.000000 0.000000
# 3 -0.002820 -0.007226 0.039397 0.000000 0.000000 0.000000
# 4 0.000000 0.000000 0.000000 0.059040 0.000000 0.000000
# 5 0.000000 0.000000 0.000000 0.000000 0.050318 0.000000
# 6 0.000000 0.000000 0.000000 0.000000 0.000000 0.041683
#
#
# Mechanical properties :
#
#
# Convention : Reuss Voigt Hill
#
# Bulk Modulus (GPa) = 31.89810 63.12520 47.51165
# Shear Modulus (GPa) = 19.79028 24.21387 22.00208
#
# Velocity S-wave (km/s) = 3.20557 3.54577 3.37995
# Velocity P-wave (km/s) = 5.50120 7.03844 6.31676
#
# Compressibility (1/GPa) = 0.03134983
#
# Stress axis : x y z
#
# Youngs Moduli (GPa) = 90.24775 92.79801 25.38262
#
# Poissons Ratio (x) = 0.45519 0.07159
# Poissons Ratio (y) = 0.44269 0.18343
# Poissons Ratio (z) = 0.25452 0.67060
#
# Static dielectric constant tensor:
#      x y z
#    x 2.961540 0.000000 0.000000 
#    y 0.000000 4.102560 0.000000 
#    z 0.000000 0.000000 3.487250 
# 
# 
# High freq. dielectric constant tensor:
#      x y z
#    x 1.756140 0.000000 0.000000 
#    y 0.000000 1.751780 0.000000 
#    z 0.000000 0.000000 1.698450 
# 
# From -- ./inp_files/43820.got.cif
#   From: 2010.03.12/outbox.cif.g09.slc.cpg/sg66_22_cif.got.tgz:43820.got - 2010.04.10 21:57:39.
