data_PCOD8275566
_publ_section_title
;
Structure prediction by ZEFSAII (Michael W. Deem and Ramdas Pophale) SiO2 
 PCOD8275566
Probable space group: C C C M
;
_chemical_formula_sum "Si O2"
_cell_formula_units_Z 84
_cell_length_a 9.934998
_cell_length_b 22.772216
_cell_length_c 18.289342
_cell_angle_alpha 90.000000
_cell_angle_beta 90.000000
_cell_angle_gamma 90.000000
_cell_volume 4137.815857
_symmetry_space_group_name_H-M "C C C M"
_symmetry_group_IT_number 66
_symmetry_cell_setting 'orthorhombic'
loop_
_space_group_symop_operation_xyz
x,y,z
-x,-y,z
x,-y,1/2-z
-x,y,1/2-z
-x,-y,-z
x,y,-z
-x,y,1/2+z
x,-y,1/2+z
1/2+x,1/2+y,z
1/2-x,1/2-y,z
1/2+x,1/2-y,1/2-z
1/2-x,1/2+y,1/2-z
1/2-x,1/2-y,-z
1/2+x,1/2+y,-z
1/2-x,1/2+y,1/2+z
1/2+x,1/2-y,1/2+z
loop_
_atom_site_type_symbol
_atom_site_label
_atom_site_fract_x
_atom_site_fract_y
_atom_site_fract_z
Si Si1 0.225195 0.429580 0.084130
Si Si2 0.500000 0.500000 0.250000
Si Si3 0.941630 0.611768 0.586451
Si Si4 0.536660 0.356987 0.582739
Si Si5 0.321185 0.445093 0.629281
Si Si6 0.398816 0.755750 0.914238
O O1 0.331127 0.384478 0.122363
O O2 0.285699 0.494160 0.090238
O O3 0.074934 0.421772 0.116143
O O4 0.212041 0.412810 0.000000
O O5 0.600175 0.542152 0.295399
O O6 0.911420 0.599433 0.500000
O O7 0.820031 0.589277 0.637621
O O8 0.963155 0.680914 0.600915
O O9 0.576986 0.343196 0.500000
O O10 0.417049 0.404744 0.580379
O O11 0.491387 0.295893 0.621281
O O12 0.250000 0.750000 0.879579
O O13 0.387447 0.742444 0.000000
#
# Coordination Sequence:
#
# PCOD8275566 Si02
#       6
#    16   4  16  16  16  16
#     4  10  20  33  54  88 121 146 175 220 287 351
#     4  12  28  40  56  80 100 148 210 250 270 316
#     4  10  20  34  57  90 124 146 172 220 287 359
#     4  10  18  31  57  86 115 148 181 222 279 347
#     4  12  21  38  55  77 107 148 190 239 280 320
#     4   9  16  28  50  87 121 148 177 207 264 347
#
# _framework density 20.300566
#
# number of rings (size 3 to 8) (size 9 to 14) (size 15 to 20)
#    0.000    1.714    3.810    2.286    0.000    3.810 
#    0.000    5.714    0.000    0.000    9.905    0.000 
#    0.000    0.000    0.000    0.000    0.000    0.000 
#
# Total GULP energy -520417.057195 kJ/mol
# GULP energy per Si atom -12390.882314 kJ/mol
# Density = 2.025436 g / cm^3
# Si number density = 20.300566 Si / 1000 Ang^3
#
#
#
# Elastic Constant Matrix: (Units=GPa)
#
#
# Indices 1 2 3 4 5 6 
#
# 1 163.6335 64.5842 24.7952 0.0000 0.0000 0.0000
# 2 64.5842 130.6847 18.3606 0.0000 0.0000 0.0000
# 3 24.7952 18.3606 26.0827 0.0000 0.0000 0.0000
# 4 0.0000 0.0000 0.0000 4.9069 0.0000 0.0000
# 5 0.0000 0.0000 0.0000 0.0000 17.8851 0.0000
# 6 0.0000 0.0000 0.0000 0.0000 0.0000 25.4889
#
#
#
# Elastic Compliance Matrix: (Units=1/GPa)
#
#
# Indices 1 2 3 4 5 6 
#
# 1 0.008251 -0.003302 -0.005519 0.000000 0.000000 0.000000
# 2 -0.003302 0.009813 -0.003769 0.000000 0.000000 0.000000
# 3 -0.005519 -0.003769 0.046239 0.000000 0.000000 0.000000
# 4 0.000000 0.000000 0.000000 0.203794 0.000000 0.000000
# 5 0.000000 0.000000 0.000000 0.000000 0.055913 0.000000
# 6 0.000000 0.000000 0.000000 0.000000 0.000000 0.039233
#
#
# Mechanical properties :
#
#
# Convention : Reuss Voigt Hill
#
# Bulk Modulus (GPa) = 25.56013 59.54232 42.55123
# Shear Modulus (GPa) = 12.45442 23.83357 18.14399
#
# Velocity S-wave (km/s) = 2.47958 3.43014 2.99284
# Velocity P-wave (km/s) = 4.56245 6.71430 5.74011
#
# Compressibility (1/GPa) = 0.03912343
#
# Stress axis : x y z
#
# Youngs Moduli (GPa) = 121.19974 101.90108 21.62659
#
# Poissons Ratio (x) = 0.33649 0.11936
# Poissons Ratio (y) = 0.40022 0.08151
# Poissons Ratio (z) = 0.66891 0.38405
#
# Static dielectric constant tensor:
#      x y z
#    x 4.210650 0.000000 0.000000 
#    y 0.000000 3.885250 0.000000 
#    z 0.000000 0.000000 2.969700 
# 
# 
# High freq. dielectric constant tensor:
#      x y z
#    x 1.812340 0.000000 0.000000 
#    y 0.000000 1.807560 0.000000 
#    z 0.000000 0.000000 1.705540 
# 
# From -- ./inp_files/47079.got.cif
#   From: 2010.03.12/outbox.cif.g09.slc.cpg/sg66_24_cif.got.tgz:47079.got - 2010.04.10 21:57:39.
