data_PCOD8275168
_publ_section_title
;
Structure prediction by ZEFSAII (Michael W. Deem and Ramdas Pophale) SiO2 
 PCOD8275168
Probable space group: C M M M
;
_chemical_formula_sum "Si O2"
_cell_formula_units_Z 72
_cell_length_a 28.553202
_cell_length_b 17.753983
_cell_length_c 7.803958
_cell_angle_alpha 90.000000
_cell_angle_beta 90.000000
_cell_angle_gamma 90.000000
_cell_volume 3956.084332
_symmetry_space_group_name_H-M "C M M M"
_symmetry_group_IT_number 65
_symmetry_cell_setting 'orthorhombic'
loop_
_space_group_symop_operation_xyz
x,y,z
-x,-y,z
x,-y,-z
-x,y,-z
-x,-y,-z
x,y,-z
-x,y,z
x,-y,z
1/2+x,1/2+y,z
1/2-x,1/2-y,z
1/2+x,1/2-y,-z
1/2-x,1/2+y,-z
1/2-x,1/2-y,-z
1/2+x,1/2+y,-z
1/2-x,1/2+y,z
1/2+x,1/2-y,z
loop_
_atom_site_type_symbol
_atom_site_label
_atom_site_fract_x
_atom_site_fract_y
_atom_site_fract_z
Si Si1 0.784312 0.319336 0.311413
Si Si2 0.052188 0.840463 0.699108
Si Si3 0.392249 0.195139 0.299774
Si Si4 0.784324 0.417952 0.000000
Si Si5 0.052550 0.000000 0.200667
Si Si6 0.104823 0.584649 0.000000
O O1 0.781892 0.357183 0.500000
O O2 0.750000 0.250000 0.301001
O O3 0.837020 0.292058 0.273862
O O4 0.766265 0.377903 0.171273
O O5 0.047424 0.828563 0.500000
O O6 0.083745 0.772005 0.768335
O O7 0.076642 0.921945 0.736573
O O8 0.000000 0.837338 0.783980
O O9 0.404113 0.176223 0.500000
O O10 0.410608 0.128200 0.174669
O O11 0.761368 0.500000 0.000000
O O12 0.839820 0.422670 0.000000
O O13 0.000000 0.000000 0.277997
O O14 0.052675 0.000000 0.000000
O O15 0.082776 0.500000 0.000000
#
# Coordination Sequence:
#
# PCOD8275168 Si02
#       6
#    16  16  16   8   8   8
#     4   9  17  30  49  69  91 122 155 188 229 277
#     4   9  17  30  48  68  92 123 157 192 229 272
#     4   9  18  31  49  72  94 121 157 193 232 278
#     4   9  17  29  47  70  93 116 150 195 233 269
#     4   9  17  27  43  69  95 121 155 193 229 267
#     4   9  18  31  48  72  95 118 152 194 237 278
#
# _framework density 18.199815000000001
#
# number of rings (size 3 to 8) (size 9 to 14) (size 15 to 20)
#    0.000    3.000    0.000    0.667    1.556    2.222 
#    0.000    4.444    2.444    1.333    0.000    3.111 
#    0.000    0.000    0.000    0.000    0.000    0.000 
#
# Total GULP energy -446073.460591 kJ/mol
# GULP energy per Si atom -12390.929461 kJ/mol
# Density = 1.815839 g / cm^3
# Si number density = 18.199815 Si / 1000 Ang^3
#
#
#
# Elastic Constant Matrix: (Units=GPa)
#
#
# Indices 1 2 3 4 5 6 
#
# 1 36.8598 38.3996 25.5821 0.0000 0.0000 0.0000
# 2 38.3996 166.0526 74.7383 0.0000 0.0000 0.0000
# 3 25.5821 74.7383 109.8837 0.0000 0.0000 0.0000
# 4 0.0000 0.0000 0.0000 39.6200 0.0000 0.0000
# 5 0.0000 0.0000 0.0000 0.0000 13.3240 0.0000
# 6 0.0000 0.0000 0.0000 0.0000 0.0000 21.4113
#
#
#
# Elastic Compliance Matrix: (Units=1/GPa)
#
#
# Indices 1 2 3 4 5 6 
#
# 1 0.036932 -0.006731 -0.004020 0.000000 0.000000 0.000000
# 2 -0.006731 0.009906 -0.005171 0.000000 0.000000 0.000000
# 3 -0.004020 -0.005171 0.013553 0.000000 0.000000 0.000000
# 4 0.000000 0.000000 0.000000 0.025240 0.000000 0.000000
# 5 0.000000 0.000000 0.000000 0.000000 0.075052 0.000000
# 6 0.000000 0.000000 0.000000 0.000000 0.000000 0.046704
#
#
# Mechanical properties :
#
#
# Convention : Reuss Voigt Hill
#
# Bulk Modulus (GPa) = 35.02869 65.58178 50.30524
# Shear Modulus (GPa) = 20.10072 26.47613 23.28842
#
# Velocity S-wave (km/s) = 3.32693 3.81825 3.58103
# Velocity P-wave (km/s) = 5.83493 7.45327 6.69319
#
# Compressibility (1/GPa) = 0.02854803
#
# Stress axis : x y z
#
# Youngs Moduli (GPa) = 27.07663 100.94911 73.78347
#
# Poissons Ratio (x) = 0.67951 0.29660
# Poissons Ratio (y) = 0.18226 0.38150
# Poissons Ratio (z) = 0.10885 0.52196
#
# Static dielectric constant tensor:
#      x y z
#    x 3.173550 0.000000 0.000000 
#    y 0.000000 3.765710 0.000000 
#    z 0.000000 0.000000 3.566630 
# 
# 
# High freq. dielectric constant tensor:
#      x y z
#    x 1.656680 0.000000 0.000000 
#    y 0.000000 1.705440 0.000000 
#    z 0.000000 0.000000 1.717140 
# 
# From -- ./inp_files/7755.got.cif
#   From: 2010.03.12/outbox.cif.g09.slc.cpg/sg65_4_cif.got.tgz:7755.got - 2010.04.10 20:52:16.
