data_PCOD8275187
_publ_section_title
;
Structure prediction by ZEFSAII (Michael W. Deem and Ramdas Pophale) SiO2 
 PCOD8275187
Probable space group: C M M M
;
_chemical_formula_sum "Si O2"
_cell_formula_units_Z 64
_cell_length_a 22.356048
_cell_length_b 16.744424
_cell_length_c 9.202945
_cell_angle_alpha 90.000000
_cell_angle_beta 90.000000
_cell_angle_gamma 90.000000
_cell_volume 3445.022578
_symmetry_space_group_name_H-M "C M M M"
_symmetry_group_IT_number 65
_symmetry_cell_setting 'orthorhombic'
loop_
_space_group_symop_operation_xyz
x,y,z
-x,-y,z
x,-y,-z
-x,y,-z
-x,-y,-z
x,y,-z
-x,y,z
x,-y,z
1/2+x,1/2+y,z
1/2-x,1/2-y,z
1/2+x,1/2-y,-z
1/2-x,1/2+y,-z
1/2-x,1/2-y,-z
1/2+x,1/2+y,-z
1/2-x,1/2+y,z
1/2+x,1/2-y,z
loop_
_atom_site_type_symbol
_atom_site_label
_atom_site_fract_x
_atom_site_fract_y
_atom_site_fract_z
Si Si1 0.737343 0.843423 0.336326
Si Si2 0.379140 0.176406 0.829270
Si Si3 0.646929 0.357584 0.169948
Si Si4 0.565527 0.500000 0.172409
Si Si5 0.500000 0.909048 0.827518
O O1 0.733786 0.876900 0.500000
O O2 0.750000 0.750000 0.334940
O O3 0.675700 0.865215 0.254869
O O4 0.792422 0.882615 0.251531
O O5 0.379134 0.270407 0.792204
O O6 0.440945 0.137545 0.772162
O O7 0.370192 0.161269 0.000000
O O8 0.598140 0.420197 0.225710
O O9 0.660766 0.364760 0.000000
O O10 0.500000 0.500000 0.243060
O O11 0.561538 0.500000 0.000000
O O12 0.500000 0.000000 0.767754
O O13 0.500000 0.909243 0.000000
#
# Coordination Sequence:
#
# PCOD8275187 Si02
#       5
#    16  16  16   8   8
#     4   9  17  31  51  73  98 128 164 203 242 286
#     4   9  17  30  52  75  97 127 163 200 242 293
#     4   9  17  30  50  75 100 128 162 199 241 288
#     4   9  18  30  47  75 107 130 157 202 245 283
#     4   9  18  32  49  74 102 126 157 201 247 291
#
# _framework density 18.577528000000001
#
# number of rings (size 3 to 8) (size 9 to 14) (size 15 to 20)
#    0.000    3.000    0.000    0.750    1.750    3.000 
#    2.250    1.250    0.000    2.250    0.000    0.000 
#    0.000    0.000    0.000    0.000    0.000    0.000 
#
# Total GULP energy -396720.693169 kJ/mol
# GULP energy per Si atom -12397.521662 kJ/mol
# Density = 1.853524 g / cm^3
# Si number density = 18.577528 Si / 1000 Ang^3
#
#
#
# Elastic Constant Matrix: (Units=GPa)
#
#
# Indices 1 2 3 4 5 6 
#
# 1 213.8254 78.2638 59.9852 0.0000 0.0000 0.0000
# 2 78.2638 87.9550 29.1499 0.0000 0.0000 0.0000
# 3 59.9852 29.1499 58.6632 0.0000 0.0000 0.0000
# 4 0.0000 0.0000 0.0000 8.8101 0.0000 0.0000
# 5 0.0000 0.0000 0.0000 0.0000 5.2941 0.0000
# 6 0.0000 0.0000 0.0000 0.0000 0.0000 22.5006
#
#
#
# Elastic Compliance Matrix: (Units=1/GPa)
#
#
# Indices 1 2 3 4 5 6 
#
# 1 0.008297 -0.005472 -0.005765 0.000000 0.000000 0.000000
# 2 -0.005472 0.017220 -0.002961 0.000000 0.000000 0.000000
# 3 -0.005765 -0.002961 0.024413 0.000000 0.000000 0.000000
# 4 0.000000 0.000000 0.000000 0.113506 0.000000 0.000000
# 5 0.000000 0.000000 0.000000 0.000000 0.188888 0.000000
# 6 0.000000 0.000000 0.000000 0.000000 0.000000 0.044443
#
#
# Mechanical properties :
#
#
# Convention : Reuss Voigt Hill
#
# Bulk Modulus (GPa) = 46.43977 77.24905 61.84441
# Shear Modulus (GPa) = 11.56496 20.19062 15.87779
#
# Velocity S-wave (km/s) = 2.49775 3.30029 2.92666
# Velocity P-wave (km/s) = 5.77671 7.49632 6.69198
#
# Compressibility (1/GPa) = 0.02153327
#
# Stress axis : x y z
#
# Youngs Moduli (GPa) = 120.52881 58.07192 40.96261
#
# Poissons Ratio (x) = 0.31777 0.23614
# Poissons Ratio (y) = 0.65954 0.12130
# Poissons Ratio (z) = 0.69481 0.17197
#
# Static dielectric constant tensor:
#      x y z
#    x 3.692380 0.000000 0.000000 
#    y 0.000000 3.295420 0.000000 
#    z 0.000000 0.000000 3.180980 
# 
# 
# High freq. dielectric constant tensor:
#      x y z
#    x 1.733010 0.000000 0.000000 
#    y 0.000000 1.704350 0.000000 
#    z 0.000000 0.000000 1.686400 
# 
# From -- ./inp_files/10822.got.cif
#   From: 2010.03.12/outbox.cif.g09.slc.cpg/sg65_6_cif.got.tgz:10822.got - 2010.04.10 20:52:16.
