data_PCOD8275434
_publ_section_title
;
Structure prediction by ZEFSAII (Michael W. Deem and Ramdas Pophale) SiO2 
 PCOD8275434
Probable space group: C C C M
;
_chemical_formula_sum "Si O2"
_cell_formula_units_Z 100
_cell_length_a 27.378025
_cell_length_b 27.945637
_cell_length_c 9.367000
_cell_angle_alpha 90.000000
_cell_angle_beta 90.000000
_cell_angle_gamma 90.000000
_cell_volume 7166.657496
_symmetry_space_group_name_H-M "C C C M"
_symmetry_group_IT_number 66
_symmetry_cell_setting 'orthorhombic'
loop_
_space_group_symop_operation_xyz
x,y,z
-x,-y,z
x,-y,1/2-z
-x,y,1/2-z
-x,-y,-z
x,y,-z
-x,y,1/2+z
x,-y,1/2+z
1/2+x,1/2+y,z
1/2-x,1/2-y,z
1/2+x,1/2-y,1/2-z
1/2-x,1/2+y,1/2-z
1/2-x,1/2-y,-z
1/2+x,1/2+y,-z
1/2-x,1/2+y,1/2+z
1/2+x,1/2-y,1/2+z
loop_
_atom_site_type_symbol
_atom_site_label
_atom_site_fract_x
_atom_site_fract_y
_atom_site_fract_z
Si Si1 0.286715 0.646068 0.334637
Si Si2 0.000000 0.000000 0.250000
Si Si3 0.648195 0.718566 0.665084
Si Si4 0.421812 0.428361 0.660545
Si Si5 0.953947 0.824168 0.336393
Si Si6 0.827401 0.044974 0.667078
Si Si7 0.205787 0.712761 0.342196
O O1 0.298013 0.658700 0.500000
O O2 0.325810 0.673672 0.238874
O O3 0.291689 0.589748 0.306043
O O4 0.230901 0.662183 0.297017
O O5 0.966231 0.034096 0.153242
O O6 0.663180 0.718487 0.500000
O O7 0.590402 0.712805 0.686448
O O8 0.664309 0.769514 0.732863
O O9 0.400222 0.423089 0.500000
O O10 0.439689 0.377029 0.718328
O O11 0.380995 0.446076 0.769934
O O12 0.969686 0.827095 0.500000
O O13 0.000000 0.804095 0.250000
O O14 0.833149 0.033272 0.500000
O O15 0.803628 0.000000 0.750000
O O16 0.182289 0.709144 0.500000
O O17 0.250000 0.750000 0.341481
#
# Coordination Sequence:
#
# PCOD8275434 Si02
#       7
#    16   4  16  16  16  16  16
#     4   9  18  31  45  61  81 106 132 160 201 251
#     4  12  22  32  48  58  70  96 142 184 218 252
#     4  10  18  28  43  64  84 102 128 167 208 245
#     4  11  22  34  44  57  75  98 132 176 217 252
#     4  10  21  33  43  58  80 105 134 170 210 252
#     4  11  22  33  46  61  79 104 134 169 209 250
#     4   8  15  28  44  62  82 103 128 157 194 247
#
# _framework density 13.953506000000001
#
# number of rings (size 3 to 8) (size 9 to 14) (size 15 to 20)
#    0.000    2.080    3.200    2.160    0.000    6.080 
#    0.000    0.000    0.000    0.000    0.000    0.000 
#    0.000    0.000    0.000    0.000    0.000    0.800 
#
# Total GULP energy -619858.067414 kJ/mol
# GULP energy per Si atom -12397.161348 kJ/mol
# Density = 1.392175 g / cm^3
# Si number density = 13.953506 Si / 1000 Ang^3
#
#
#
# Elastic Constant Matrix: (Units=GPa)
#
#
# Indices 1 2 3 4 5 6 
#
# 1 57.2279 49.3074 39.4239 0.0000 0.0000 0.0000
# 2 49.3074 75.8999 42.6827 0.0000 0.0000 0.0000
# 3 39.4239 42.6827 84.5436 0.0000 0.0000 0.0000
# 4 0.0000 0.0000 0.0000 17.7131 0.0000 0.0000
# 5 0.0000 0.0000 0.0000 0.0000 20.5462 0.0000
# 6 0.0000 0.0000 0.0000 0.0000 0.0000 25.4124
#
#
#
# Elastic Compliance Matrix: (Units=1/GPa)
#
#
# Indices 1 2 3 4 5 6 
#
# 1 0.043599 -0.023587 -0.008423 0.000000 0.000000 0.000000
# 2 -0.023587 0.031159 -0.004732 0.000000 0.000000 0.000000
# 3 -0.008423 -0.004732 0.018145 0.000000 0.000000 0.000000
# 4 0.000000 0.000000 0.000000 0.056455 0.000000 0.000000
# 5 0.000000 0.000000 0.000000 0.000000 0.048671 0.000000
# 6 0.000000 0.000000 0.000000 0.000000 0.000000 0.039351
#
#
# Mechanical properties :
#
#
# Convention : Reuss Voigt Hill
#
# Bulk Modulus (GPa) = 51.49453 53.38883 52.44168
# Shear Modulus (GPa) = 15.75615 18.48483 17.12049
#
# Velocity S-wave (km/s) = 3.36399 3.64365 3.50661
# Velocity P-wave (km/s) = 7.21616 7.48643 7.35254
#
# Compressibility (1/GPa) = 0.01941954
#
# Stress axis : x y z
#
# Youngs Moduli (GPa) = 22.93651 32.09318 55.11178
#
# Poissons Ratio (x) = 0.75697 0.46419
# Poissons Ratio (y) = 0.54100 0.26080
# Poissons Ratio (z) = 0.19319 0.15187
#
# Static dielectric constant tensor:
#      x y z
#    x 2.639500 0.000000 0.000000 
#    y 0.000000 2.935310 0.000000 
#    z 0.000000 0.000000 2.828850 
# 
# 
# High freq. dielectric constant tensor:
#      x y z
#    x 1.497460 0.000000 0.000000 
#    y 0.000000 1.510850 0.000000 
#    z 0.000000 0.000000 1.544180 
# 
# From -- ./inp_files/10870.got.cif
#   From: 2010.03.12/outbox.cif.g09.slc.cpg/sg66_6_cif.got.tgz:10870.got - 2010.04.10 21:57:39.
