data_PCOD8275111
_publ_section_title
;
Structure prediction by ZEFSAII (Michael W. Deem and Ramdas Pophale) SiO2 
 PCOD8275111
Probable space group: C M M M
;
_chemical_formula_sum "Si O2"
_cell_formula_units_Z 96
_cell_length_a 32.957742
_cell_length_b 18.110542
_cell_length_c 9.712324
_cell_angle_alpha 90.000000
_cell_angle_beta 90.000000
_cell_angle_gamma 90.000000
_cell_volume 5797.116917
_symmetry_space_group_name_H-M "C M M M"
_symmetry_group_IT_number 65
_symmetry_cell_setting 'orthorhombic'
loop_
_space_group_symop_operation_xyz
x,y,z
-x,-y,z
x,-y,-z
-x,y,-z
-x,-y,-z
x,y,-z
-x,y,z
x,-y,z
1/2+x,1/2+y,z
1/2-x,1/2-y,z
1/2+x,1/2-y,-z
1/2-x,1/2+y,-z
1/2-x,1/2-y,-z
1/2+x,1/2+y,-z
1/2-x,1/2+y,z
1/2+x,1/2-y,z
loop_
_atom_site_type_symbol
_atom_site_label
_atom_site_fract_x
_atom_site_fract_y
_atom_site_fract_z
Si Si1 0.157444 0.357850 0.342606
Si Si2 0.386538 0.294256 0.658339
Si Si3 0.909238 0.418294 0.157189
Si Si4 0.252674 0.167830 0.663272
Si Si5 0.674943 0.417360 0.336291
Si Si6 0.046363 0.271967 0.839381
O O1 0.150998 0.382249 0.500000
O O2 0.144835 0.272731 0.322277
O O3 0.130832 0.411276 0.248884
O O4 0.204091 0.367710 0.297214
O O5 0.400694 0.300382 0.500000
O O6 0.363612 0.368142 0.708478
O O7 0.426224 0.284145 0.752158
O O8 0.928144 0.500000 0.180197
O O9 0.942474 0.356831 0.197797
O O10 0.895601 0.407236 0.000000
O O11 0.248256 0.173586 0.500000
O O12 0.250000 0.250000 0.726867
O O13 0.216620 0.117155 0.724101
O O14 0.677814 0.418593 0.500000
O O15 0.669325 0.500000 0.277115
O O16 0.000000 0.258985 0.796743
O O17 0.053437 0.255889 0.000000
#
# Coordination Sequence:
#
# PCOD8275111 Si02
#       6
#    16  16  16  16  16  16
#     4   9  16  26  44  66  89 120 156 189 219 255
#     4   9  16  28  46  67  91 118 146 182 225 266
#     4   9  18  31  45  63  91 123 149 179 222 265
#     4   9  14  23  40  63  93 124 153 187 223 257
#     4   9  16  25  40  65  93 120 152 188 224 260
#     4   9  18  32  50  70  88 110 146 186 221 267
#
# _framework density 16.559954999999999
#
# number of rings (size 3 to 8) (size 9 to 14) (size 15 to 20)
#    0.000    3.000    1.667    0.000    0.000    1.667 
#    0.000    3.333    0.000    2.500    0.000    8.167 
#    0.000    0.000    0.000    0.000    0.000    0.000 
#
# Total GULP energy -595049.784178 kJ/mol
# GULP energy per Si atom -12396.870504 kJ/mol
# Density = 1.652226 g / cm^3
# Si number density = 16.559955 Si / 1000 Ang^3
#
#
#
# Elastic Constant Matrix: (Units=GPa)
#
#
# Indices 1 2 3 4 5 6 
#
# 1 139.8644 60.0041 46.0315 0.0000 0.0000 0.0000
# 2 60.0041 96.2880 23.8222 0.0000 0.0000 0.0000
# 3 46.0315 23.8222 37.8774 0.0000 0.0000 0.0000
# 4 0.0000 0.0000 0.0000 14.7470 0.0000 0.0000
# 5 0.0000 0.0000 0.0000 0.0000 12.6790 0.0000
# 6 0.0000 0.0000 0.0000 0.0000 0.0000 19.4601
#
#
#
# Elastic Compliance Matrix: (Units=1/GPa)
#
#
# Indices 1 2 3 4 5 6 
#
# 1 0.013877 -0.005300 -0.013531 0.000000 0.000000 0.000000
# 2 -0.005300 0.014324 -0.002567 0.000000 0.000000 0.000000
# 3 -0.013531 -0.002567 0.044459 0.000000 0.000000 0.000000
# 4 0.000000 0.000000 0.000000 0.067811 0.000000 0.000000
# 5 0.000000 0.000000 0.000000 0.000000 0.078870 0.000000
# 6 0.000000 0.000000 0.000000 0.000000 0.000000 0.051387
#
#
# Mechanical properties :
#
#
# Convention : Reuss Voigt Hill
#
# Bulk Modulus (GPa) = 33.48614 59.30505 46.39559
# Shear Modulus (GPa) = 15.45696 18.98868 17.22282
#
# Velocity S-wave (km/s) = 3.05846 3.38991 3.22845
# Velocity P-wave (km/s) = 5.72165 7.15626 6.47879
#
# Compressibility (1/GPa) = 0.02986310
#
# Stress axis : x y z
#
# Youngs Moduli (GPa) = 72.06279 69.81505 22.49248
#
# Poissons Ratio (x) = 0.37002 0.30434
# Poissons Ratio (y) = 0.38194 0.05775
# Poissons Ratio (z) = 0.97507 0.17925
#
# Static dielectric constant tensor:
#      x y z
#    x 3.101230 0.000000 0.000000 
#    y 0.000000 3.183720 0.000000 
#    z 0.000000 0.000000 2.805150 
# 
# 
# High freq. dielectric constant tensor:
#      x y z
#    x 1.633460 0.000000 0.000000 
#    y 0.000000 1.628810 0.000000 
#    z 0.000000 0.000000 1.597550 
# 
# From -- ./inp_files/32414.got.cif
#   From: 2010.03.12/outbox.cif.g09.slc.cpg/sg65_17_cif.got.tgz:32414.got - 2010.04.10 20:52:16.
