data_PCOD8275084
_publ_section_title
;
Structure prediction by ZEFSAII (Michael W. Deem and Ramdas Pophale) SiO2 
 PCOD8275084
Probable space group: C M M M
;
_chemical_formula_sum "Si O2"
_cell_formula_units_Z 72
_cell_length_a 10.258148
_cell_length_b 19.175029
_cell_length_c 22.145568
_cell_angle_alpha 90.000000
_cell_angle_beta 90.000000
_cell_angle_gamma 90.000000
_cell_volume 4356.039546
_symmetry_space_group_name_H-M "C M M M"
_symmetry_group_IT_number 65
_symmetry_cell_setting 'orthorhombic'
loop_
_space_group_symop_operation_xyz
x,y,z
-x,-y,z
x,-y,-z
-x,y,-z
-x,-y,-z
x,y,-z
-x,y,z
x,-y,z
1/2+x,1/2+y,z
1/2-x,1/2-y,z
1/2+x,1/2-y,-z
1/2-x,1/2+y,-z
1/2-x,1/2-y,-z
1/2+x,1/2+y,-z
1/2-x,1/2+y,z
1/2+x,1/2-y,z
loop_
_atom_site_type_symbol
_atom_site_label
_atom_site_fract_x
_atom_site_fract_y
_atom_site_fract_z
Si Si1 0.247573 0.417107 0.137750
Si Si2 0.500000 0.083338 0.932332
Si Si3 0.000000 0.083277 0.068996
Si Si4 0.652010 0.920330 0.734772
Si Si5 0.150360 0.314264 0.368746
Si Si6 0.355752 0.808440 0.500000
O O1 0.245149 0.500000 0.134159
O O2 0.376519 0.387314 0.105853
O O3 0.236697 0.394440 0.207813
O O4 0.126236 0.386179 0.100966
O O5 0.500000 0.000000 0.931276
O O6 0.500000 0.112149 0.000000
O O7 0.000000 0.000000 0.068069
O O8 0.000000 0.111237 0.000000
O O9 0.500000 0.913246 0.751639
O O10 0.692225 0.873606 0.678001
O O11 0.685605 0.000000 0.718158
O O12 0.250000 0.250000 0.361420
O O13 0.161618 0.349375 0.436268
O O14 0.000000 0.289957 0.357183
O O15 0.500000 0.774135 0.500000
O O16 0.250000 0.750000 0.500000
#
# Coordination Sequence:
#
# PCOD8275084 Si02
#       6
#    16   8   8  16  16   8
#     4   9  15  24  36  53  80 112 143 175 217 263
#     4   9  14  20  34  54  75 104 141 176 210 257
#     4   9  16  24  34  52  81 114 143 176 220 263
#     4   9  16  28  45  64  90 123 152 180 220 267
#     4   9  17  30  48  69  92 117 150 187 222 261
#     4   8  14  26  45  67  89 115 145 182 224 260
#
# _framework density 16.528776000000001
#
# number of rings (size 3 to 8) (size 9 to 14) (size 15 to 20)
#    0.000    3.111    1.111    0.667    0.000    2.667 
#    2.000    0.556    0.000    3.333    0.000    0.000 
#    0.000   14.222    0.000    0.000    0.000    0.000 
#
# Total GULP energy -445975.283582 kJ/mol
# GULP energy per Si atom -12388.202322 kJ/mol
# Density = 1.649116 g / cm^3
# Si number density = 16.528776 Si / 1000 Ang^3
#
#
#
# Elastic Constant Matrix: (Units=GPa)
#
#
# Indices 1 2 3 4 5 6 
#
# 1 107.8688 24.5065 76.1391 0.0000 0.0000 0.0000
# 2 24.5065 35.4259 50.2864 0.0000 0.0000 0.0000
# 3 76.1391 50.2864 187.5948 0.0000 0.0000 0.0000
# 4 0.0000 0.0000 0.0000 4.2439 0.0000 0.0000
# 5 0.0000 0.0000 0.0000 0.0000 27.6961 0.0000
# 6 0.0000 0.0000 0.0000 0.0000 0.0000 11.3957
#
#
#
# Elastic Compliance Matrix: (Units=1/GPa)
#
#
# Indices 1 2 3 4 5 6 
#
# 1 0.013123 -0.002450 -0.004670 0.000000 0.000000 0.000000
# 2 -0.002450 0.046023 -0.011343 0.000000 0.000000 0.000000
# 3 -0.004670 -0.011343 0.010266 0.000000 0.000000 0.000000
# 4 0.000000 0.000000 0.000000 0.235631 0.000000 0.000000
# 5 0.000000 0.000000 0.000000 0.000000 0.036106 0.000000
# 6 0.000000 0.000000 0.000000 0.000000 0.000000 0.087753
#
#
# Mechanical properties :
#
#
# Convention : Reuss Voigt Hill
#
# Bulk Modulus (GPa) = 30.77983 70.30595 50.54289
# Shear Modulus (GPa) = 10.48974 20.66431 15.57703
#
# Velocity S-wave (km/s) = 2.52193 3.53966 3.07321
# Velocity P-wave (km/s) = 5.20985 7.70282 6.57556
#
# Compressibility (1/GPa) = 0.03248881
#
# Stress axis : x y z
#
# Youngs Moduli (GPa) = 76.20147 21.72807 97.40516
#
# Poissons Ratio (x) = 0.05323 0.45484
# Poissons Ratio (y) = 0.18668 1.10484
# Poissons Ratio (z) = 0.35583 0.24646
#
# Static dielectric constant tensor:
#      x y z
#    x 3.285470 0.000000 0.000000 
#    y 0.000000 2.477800 0.000000 
#    z 0.000000 0.000000 3.587310 
# 
# 
# High freq. dielectric constant tensor:
#      x y z
#    x 1.640920 0.000000 0.000000 
#    y 0.000000 1.555490 0.000000 
#    z 0.000000 0.000000 1.661540 
# 
# From -- ./inp_files/61343.got.cif
#   From: 2010.03.12/outbox.cif.g09.slc.cpg/sg65_31_cif.got.tgz:61343.got - 2010.04.10 20:52:16.
