data_PCOD8275052
_publ_section_title
;
Structure prediction by ZEFSAII (Michael W. Deem and Ramdas Pophale) SiO2 
 PCOD8275052
Probable space group: C M M M
;
_chemical_formula_sum "Si O2"
_cell_formula_units_Z 88
_cell_length_a 7.948659
_cell_length_b 19.961277
_cell_length_c 29.998973
_cell_angle_alpha 90.000000
_cell_angle_beta 90.000000
_cell_angle_gamma 90.000000
_cell_volume 4759.798573
_symmetry_space_group_name_H-M "C M M M"
_symmetry_group_IT_number 65
_symmetry_cell_setting 'orthorhombic'
loop_
_space_group_symop_operation_xyz
x,y,z
-x,-y,z
x,-y,-z
-x,y,-z
-x,-y,-z
x,y,-z
-x,y,z
x,-y,z
1/2+x,1/2+y,z
1/2-x,1/2-y,z
1/2+x,1/2-y,-z
1/2-x,1/2+y,-z
1/2-x,1/2-y,-z
1/2+x,1/2+y,-z
1/2-x,1/2+y,z
1/2+x,1/2-y,z
loop_
_atom_site_type_symbol
_atom_site_label
_atom_site_fract_x
_atom_site_fract_y
_atom_site_fract_z
Si Si1 0.803175 0.177578 0.811180
Si Si2 0.695011 0.421624 0.111836
Si Si3 0.694069 0.574277 0.641256
Si Si4 0.699153 0.322939 0.287802
Si Si5 0.500000 0.920939 0.950519
Si Si6 0.807515 0.579191 0.547830
O O1 0.750000 0.250000 0.830485
O O2 0.746685 0.118844 0.844427
O O3 0.724021 0.165558 0.761953
O O4 0.000000 0.176292 0.806034
O O5 0.500000 0.405423 0.097994
O O6 0.714288 0.500000 0.122747
O O7 0.826339 0.398621 0.073647
O O8 0.500000 0.567426 0.652377
O O9 0.778506 0.500000 0.643793
O O10 0.778368 0.622353 0.678369
O O11 0.713483 0.606741 0.591746
O O12 0.500000 0.329401 0.287176
O O13 0.750000 0.250000 0.305543
O O14 0.500000 0.000000 0.954130
O O15 0.500000 0.888801 0.000000
O O16 0.735850 0.606969 0.500000
O O17 0.786599 0.500000 0.547075
O O18 0.000000 0.600729 0.552081
#
# Coordination Sequence:
#
# PCOD8275052 Si02
#       6
#    16  16  16  16   8  16
#     4   9  18  31  49  72  94 127 165 198 240 289
#     4   9  18  32  51  77 104 132 169 209 249 293
#     4   9  17  28  44  67  92 118 148 187 235 279
#     4   9  18  32  47  66  93 123 158 190 228 282
#     4   9  18  32  52  78 106 136 167 205 252 296
#     4   8  14  25  41  61  86 115 146 182 226 278
#
# _framework density 18.488178000000001
#
# number of rings (size 3 to 8) (size 9 to 14) (size 15 to 20)
#    0.000    3.182    0.000    0.545    1.273    2.182 
#    0.000    7.273    0.000    1.091    0.000    0.000 
#    0.000    0.000    0.000    0.000    0.000    0.000 
#
# Total GULP energy -545089.931683 kJ/mol
# GULP energy per Si atom -12388.407538 kJ/mol
# Density = 1.844610 g / cm^3
# Si number density = 18.488178 Si / 1000 Ang^3
#
#
#
# Elastic Constant Matrix: (Units=GPa)
#
#
# Indices 1 2 3 4 5 6 
#
# 1 43.6328 21.5216 41.2757 0.0000 0.0000 0.0000
# 2 21.5216 76.9457 75.9788 0.0000 0.0000 0.0000
# 3 41.2757 75.9788 159.5003 0.0000 0.0000 0.0000
# 4 0.0000 0.0000 0.0000 13.6123 0.0000 0.0000
# 5 0.0000 0.0000 0.0000 0.0000 20.5884 0.0000
# 6 0.0000 0.0000 0.0000 0.0000 0.0000 18.5134
#
#
#
# Elastic Compliance Matrix: (Units=1/GPa)
#
#
# Indices 1 2 3 4 5 6 
#
# 1 0.030426 -0.001388 -0.007212 0.000000 0.000000 0.000000
# 2 -0.001388 0.024602 -0.011360 0.000000 0.000000 0.000000
# 3 -0.007212 -0.011360 0.013547 0.000000 0.000000 0.000000
# 4 0.000000 0.000000 0.000000 0.073463 0.000000 0.000000
# 5 0.000000 0.000000 0.000000 0.000000 0.048571 0.000000
# 6 0.000000 0.000000 0.000000 0.000000 0.000000 0.054015
#
#
# Mechanical properties :
#
#
# Convention : Reuss Voigt Hill
#
# Bulk Modulus (GPa) = 34.89932 61.95897 48.42915
# Shear Modulus (GPa) = 17.00125 19.96301 18.48213
#
# Velocity S-wave (km/s) = 3.03574 3.28955 3.16519
# Velocity P-wave (km/s) = 5.58616 6.92919 6.29360
#
# Compressibility (1/GPa) = 0.02865385
#
# Stress axis : x y z
#
# Youngs Moduli (GPa) = 32.86657 40.64788 73.81565
#
# Poissons Ratio (x) = 0.05644 0.53238
# Poissons Ratio (y) = 0.04563 0.83853
# Poissons Ratio (z) = 0.23704 0.46175
#
# Static dielectric constant tensor:
#      x y z
#    x 3.284010 0.000000 0.000000 
#    y 0.000000 3.235300 0.000000 
#    z 0.000000 0.000000 3.845500 
# 
# 
# High freq. dielectric constant tensor:
#      x y z
#    x 1.705970 0.000000 0.000000 
#    y 0.000000 1.677790 0.000000 
#    z 0.000000 0.000000 1.722650 
# 
# From -- ./inp_files/76488.got.cif
#   From: 2010.03.12/outbox.cif.g09.slc.cpg/sg65_39_cif.got.tgz:76488.got - 2010.04.10 20:52:16.
