data_PCOD8275734
_publ_section_title
;
Structure prediction by ZEFSAII (Michael W. Deem and Ramdas Pophale) SiO2 
 PCOD8275734
Probable space group: C C C M
;
_chemical_formula_sum "Si O2"
_cell_formula_units_Z 80
_cell_length_a 5.053930
_cell_length_b 26.309794
_cell_length_c 34.562330
_cell_angle_alpha 90.000000
_cell_angle_beta 90.000000
_cell_angle_gamma 90.000000
_cell_volume 4595.678960
_symmetry_space_group_name_H-M "C C C M"
_symmetry_group_IT_number 66
_symmetry_cell_setting 'orthorhombic'
loop_
_space_group_symop_operation_xyz
x,y,z
-x,-y,z
x,-y,1/2-z
-x,y,1/2-z
-x,-y,-z
x,y,-z
-x,y,1/2+z
x,-y,1/2+z
1/2+x,1/2+y,z
1/2-x,1/2-y,z
1/2+x,1/2-y,1/2-z
1/2-x,1/2+y,1/2-z
1/2-x,1/2-y,-z
1/2+x,1/2+y,-z
1/2-x,1/2+y,1/2+z
1/2+x,1/2-y,1/2+z
loop_
_atom_site_type_symbol
_atom_site_label
_atom_site_fract_x
_atom_site_fract_y
_atom_site_fract_z
Si Si1 0.393385 0.600023 0.173240
Si Si2 0.008827 0.939681 0.591705
Si Si3 0.991591 0.440170 0.957191
Si Si4 0.416792 0.057390 0.790361
Si Si5 0.744876 0.307569 0.776576
O O1 0.492096 0.595747 0.129478
O O2 0.611788 0.571127 0.200291
O O3 0.316092 0.657079 0.186267
O O4 0.108618 0.573106 0.174737
O O5 0.781245 0.923710 0.562150
O O6 0.275458 0.922498 0.570817
O O7 0.000000 0.000000 0.602553
O O8 0.000000 0.500000 0.962148
O O9 0.015385 0.415248 0.000000
O O10 0.500000 0.085814 0.750000
O O11 0.500000 0.000000 0.784040
O O12 0.500000 0.317336 0.750000
O O13 0.750000 0.250000 0.792469
O O14 0.000000 0.320188 0.750000
#
# Coordination Sequence:
#
# PCOD8275734 Si02
#       5
#    16  16  16  16  16
#     4  12  21  33  50  70  98 127 162 207 255 292
#     4  10  19  29  44  68  96 125 156 193 238 287
#     4   9  17  30  46  64  91 127 161 190 225 278
#     4  11  22  33  46  66  95 133 169 196 231 289
#     4  10  21  37  55  73  94 126 171 219 263 304
#
# _framework density 17.407657
#
# number of rings (size 3 to 8) (size 9 to 14) (size 15 to 20)
#    0.000    1.600    0.000    7.200    0.000    5.600 
#    0.000    0.000    0.000    0.000    0.000    0.000 
#    0.000    4.800    0.000    0.000    0.000    0.000 
#
# Total GULP energy -495527.928536 kJ/mol
# GULP energy per Si atom -12388.198213 kJ/mol
# Density = 1.736804 g / cm^3
# Si number density = 17.407657 Si / 1000 Ang^3
#
#
#
# Elastic Constant Matrix: (Units=GPa)
#
#
# Indices 1 2 3 4 5 6 
#
# 1 99.2977 25.4887 26.5953 0.0000 0.0000 0.0000
# 2 25.4887 77.9494 38.7992 0.0000 0.0000 0.0000
# 3 26.5953 38.7992 123.7245 0.0000 0.0000 0.0000
# 4 0.0000 0.0000 0.0000 -73.3182 0.0000 0.0000
# 5 0.0000 0.0000 0.0000 0.0000 50.4537 0.0000
# 6 0.0000 0.0000 0.0000 0.0000 0.0000 19.4240
#
#
#
# Elastic Compliance Matrix: (Units=1/GPa)
#
#
# Indices 1 2 3 4 5 6 
#
# 1 0.011222 -0.002925 -0.001495 0.000000 0.000000 0.000000
# 2 -0.002925 0.015964 -0.004377 0.000000 0.000000 0.000000
# 3 -0.001495 -0.004377 0.009777 0.000000 0.000000 0.000000
# 4 0.000000 0.000000 0.000000 -0.013639 0.000000 0.000000
# 5 0.000000 0.000000 0.000000 0.000000 0.019820 0.000000
# 6 0.000000 0.000000 0.000000 0.000000 0.000000 0.051483
#
#
# Mechanical properties :
#
#
# Convention : Reuss Voigt Hill
#
# Bulk Modulus (GPa) = 51.63320 53.63756 52.63538
# Shear Modulus (GPa) = 42.13091 13.31780 27.72435
#
# Velocity S-wave (km/s) = 4.92494 2.76896 3.99514
# Velocity P-wave (km/s) = 7.87818 6.41111 7.18220
#
# Compressibility (1/GPa) = 0.01936738
#
# Stress axis : x y z
#
# Youngs Moduli (GPa) = 89.11047 62.63978 102.28559
#
# Poissons Ratio (x) = 0.18325 0.15290
# Poissons Ratio (y) = 0.26069 0.44775
# Poissons Ratio (z) = 0.13321 0.27420
#
# Static dielectric constant tensor:
#      x y z
#    x 3.790090 0.000000 0.000000 
#    y 0.000000 2.632510 0.000000 
#    z 0.000000 0.000000 3.328210 
# 
# 
# High freq. dielectric constant tensor:
#      x y z
#    x 1.699620 0.000000 0.000000 
#    y 0.000000 1.622580 0.000000 
#    z 0.000000 0.000000 1.664870 
# 
# From -- ./inp_files/67349.got.cif
#   From: 2010.03.12/outbox.cif.g09.slc.cpg/sg66_34_cif.got.tgz:67349.got - 2010.04.10 21:57:39.
