data_PCOD8275803
_publ_section_title
;
Structure prediction by ZEFSAII (Michael W. Deem and Ramdas Pophale) SiO2 
 PCOD8275803
Probable space group: C C C M
;
_chemical_formula_sum "Si O2"
_cell_formula_units_Z 128
_cell_length_a 28.027540
_cell_length_b 25.624547
_cell_length_c 10.162498
_cell_angle_alpha 90.000000
_cell_angle_beta 90.000000
_cell_angle_gamma 90.000000
_cell_volume 7298.635089
_symmetry_space_group_name_H-M "C C C M"
_symmetry_group_IT_number 66
_symmetry_cell_setting 'orthorhombic'
loop_
_space_group_symop_operation_xyz
x,y,z
-x,-y,z
x,-y,1/2-z
-x,y,1/2-z
-x,-y,-z
x,y,-z
-x,y,1/2+z
x,-y,1/2+z
1/2+x,1/2+y,z
1/2-x,1/2-y,z
1/2+x,1/2-y,1/2-z
1/2-x,1/2+y,1/2-z
1/2-x,1/2-y,-z
1/2+x,1/2+y,-z
1/2-x,1/2+y,1/2+z
1/2+x,1/2-y,1/2+z
loop_
_atom_site_type_symbol
_atom_site_label
_atom_site_fract_x
_atom_site_fract_y
_atom_site_fract_z
Si Si1 0.138845 0.044042 0.653131
Si Si2 0.541152 0.211935 0.848705
Si Si3 0.857077 0.546167 0.347127
Si Si4 0.644297 0.753554 0.655985
Si Si5 0.960292 0.409823 0.852013
Si Si6 0.701039 0.147439 0.843739
Si Si7 0.191642 0.851201 0.155979
Si Si8 0.028300 0.945309 0.139523
O O1 0.150008 0.030873 0.500000
O O2 0.162538 0.097870 0.698890
O O3 0.082655 0.046966 0.679574
O O4 0.160284 0.000000 0.750000
O O5 0.500000 0.231070 0.750000
O O6 0.588798 0.242361 0.805716
O O7 0.551615 0.150784 0.830562
O O8 0.526791 0.224242 0.000000
O O9 0.841583 0.500000 0.250000
O O10 0.846494 0.531895 0.500000
O O11 0.912688 0.557761 0.326886
O O12 0.826368 0.595536 0.299987
O O13 0.649433 0.754927 0.500000
O O14 0.674170 0.802020 0.715642
O O15 0.665259 0.699763 0.714510
O O16 0.000000 0.429841 0.750000
O O17 0.979560 0.419193 0.000000
O O18 0.754772 0.145903 0.787268
O O19 0.701413 0.151088 0.000000
O O20 0.193069 0.847085 0.000000
O O21 0.000000 0.911517 0.250000
O O22 0.025728 0.915458 0.000000
O O23 0.000000 0.000000 0.128194
#
# Coordination Sequence:
#
# PCOD8275803 Si02
#       8
#    16  16  16  16  16  16  16  16
#     4  10  19  31  47  70  99 128 159 197 241 287
#     4   9  16  28  49  74 101 132 163 195 240 296
#     4  10  20  33  49  72 102 132 165 205 247 296
#     4   9  15  28  51  75  99 126 160 205 249 289
#     4   9  17  30  47  69  97 131 166 200 240 290
#     4   9  16  30  50  71  97 129 161 200 253 298
#     4   9  18  29  47  76 100 121 161 211 249 286
#     4   9  15  25  43  64  86 119 160 192 222 272
#
# _framework density 17.537526
#
# number of rings (size 3 to 8) (size 9 to 14) (size 15 to 20)
#    0.000    2.750    2.500    0.375    0.000    2.750 
#    0.000    1.875    0.000    0.750    0.000    0.000 
#    0.000    3.000    0.000    0.000    0.000    0.000 
#
# Total GULP energy -793207.422180 kJ/mol
# GULP energy per Si atom -12393.865972 kJ/mol
# Density = 1.749761 g / cm^3
# Si number density = 17.537526 Si / 1000 Ang^3
#
#
#
# Elastic Constant Matrix: (Units=GPa)
#
#
# Indices 1 2 3 4 5 6 
#
# 1 118.4183 67.9146 39.0261 0.0000 0.0000 0.0000
# 2 67.9146 122.7740 43.3580 0.0000 0.0000 0.0000
# 3 39.0261 43.3580 67.1669 0.0000 0.0000 0.0000
# 4 0.0000 0.0000 0.0000 16.8970 0.0000 0.0000
# 5 0.0000 0.0000 0.0000 0.0000 6.7972 0.0000
# 6 0.0000 0.0000 0.0000 0.0000 0.0000 20.1338
#
#
#
# Elastic Compliance Matrix: (Units=1/GPa)
#
#
# Indices 1 2 3 4 5 6 
#
# 1 0.013074 -0.005893 -0.003792 0.000000 0.000000 0.000000
# 2 -0.005893 0.013206 -0.005101 0.000000 0.000000 0.000000
# 3 -0.003792 -0.005101 0.020385 0.000000 0.000000 0.000000
# 4 0.000000 0.000000 0.000000 0.059182 0.000000 0.000000
# 5 0.000000 0.000000 0.000000 0.000000 0.147120 0.000000
# 6 0.000000 0.000000 0.000000 0.000000 0.000000 0.049668
#
#
# Mechanical properties :
#
#
# Convention : Reuss Voigt Hill
#
# Bulk Modulus (GPa) = 58.50591 67.66185 63.08388
# Shear Modulus (GPa) = 14.79705 19.30297 17.05001
#
# Velocity S-wave (km/s) = 2.90787 3.32123 3.12140
# Velocity P-wave (km/s) = 6.68634 7.30564 7.00284
#
# Compressibility (1/GPa) = 0.01709229
#
# Stress axis : x y z
#
# Youngs Moduli (GPa) = 76.48689 75.72185 49.05642
#
# Poissons Ratio (x) = 0.44622 0.18605
# Poissons Ratio (y) = 0.45073 0.25024
# Poissons Ratio (z) = 0.29008 0.38626
#
# Static dielectric constant tensor:
#      x y z
#    x 3.373020 0.000000 0.000000 
#    y 0.000000 3.197930 0.000000 
#    z 0.000000 0.000000 3.767640 
# 
# 
# High freq. dielectric constant tensor:
#      x y z
#    x 1.685900 0.000000 0.000000 
#    y 0.000000 1.662190 0.000000 
#    z 0.000000 0.000000 1.638640 
# 
# From -- ./inp_files/20124.got.cif
#   From: 2010.03.12/outbox.cif.g09.slc.cpg/sg66_11_cif.got.tgz:20124.got - 2010.04.10 21:57:39.
