data_PCOD8275594
_publ_section_title
;
Structure prediction by ZEFSAII (Michael W. Deem and Ramdas Pophale) SiO2 
 PCOD8275594
Probable space group: C C C M
;
_chemical_formula_sum "Si O2"
_cell_formula_units_Z 116
_cell_length_a 14.909113
_cell_length_b 22.364550
_cell_length_c 18.473459
_cell_angle_alpha 90.000000
_cell_angle_beta 90.000000
_cell_angle_gamma 90.000000
_cell_volume 6159.708944
_symmetry_space_group_name_H-M "C C C M"
_symmetry_group_IT_number 66
_symmetry_cell_setting 'orthorhombic'
loop_
_space_group_symop_operation_xyz
x,y,z
-x,-y,z
x,-y,1/2-z
-x,y,1/2-z
-x,-y,-z
x,y,-z
-x,y,1/2+z
x,-y,1/2+z
1/2+x,1/2+y,z
1/2-x,1/2-y,z
1/2+x,1/2-y,1/2-z
1/2-x,1/2+y,1/2-z
1/2-x,1/2-y,-z
1/2+x,1/2+y,-z
1/2-x,1/2+y,1/2+z
1/2+x,1/2-y,1/2+z
loop_
_atom_site_type_symbol
_atom_site_label
_atom_site_fract_x
_atom_site_fract_y
_atom_site_fract_z
Si Si1 0.194034 0.310319 0.418189
Si Si2 0.000000 0.000000 0.250000
Si Si3 0.598670 0.168868 0.770395
Si Si4 0.833875 0.090947 0.880636
Si Si5 0.873341 0.962145 0.874033
Si Si6 0.981665 0.142445 0.420363
Si Si7 0.268926 0.604935 0.730687
Si Si8 0.909622 0.796281 0.209559
O O1 0.153093 0.306044 0.500000
O O2 0.250000 0.250000 0.400729
O O3 0.116651 0.317698 0.356572
O O4 0.256671 0.369585 0.417709
O O5 0.938791 0.039357 0.303506
O O6 0.500000 0.144966 0.750000
O O7 0.664281 0.118114 0.740504
O O8 0.614496 0.228112 0.723743
O O9 0.805598 0.069458 0.800533
O O10 0.923663 0.129674 0.882105
O O11 0.854184 0.025080 0.915229
O O12 0.921873 0.917597 0.929425
O O13 0.781460 0.932597 0.843067
O O14 0.000214 0.168374 0.500000
O O15 0.928278 0.192673 0.375531
O O16 0.323139 0.667028 0.734012
O O17 0.000000 0.816621 0.250000
#
# Coordination Sequence:
#
# PCOD8275594 Si02
#       8
#    16   4  16  16  16  16  16  16
#     4  10  22  37  56  84 116 144 179 236 297 348
#     4  12  16  32  50  84 110 160 182 224 264 342
#     4  10  21  36  57  80 107 146 196 242 289 322
#     4  11  18  32  52  80 115 150 177 217 279 337
#     4  11  20  30  53  78 118 149 194 221 273 334
#     4  11  22  32  48  81 122 152 178 215 267 345
#     4  10  18  32  54  79 109 144 192 236 272 324
#     4  10  19  33  54  78 106 149 187 224 276 334
#
# _framework density 18.832059000000001
#
# number of rings (size 3 to 8) (size 9 to 14) (size 15 to 20)
#    0.000    1.517    4.138    2.483    3.862    1.655 
#    0.000    0.000    0.000   16.552    0.000    0.966 
#    0.000    0.000    0.000    0.000    0.000    0.000 
#
# Total GULP energy -718621.013099 kJ/mol
# GULP energy per Si atom -12390.017467 kJ/mol
# Density = 1.878920 g / cm^3
# Si number density = 18.832059 Si / 1000 Ang^3
#
#
#
# Elastic Constant Matrix: (Units=GPa)
#
#
# Indices 1 2 3 4 5 6 
#
# 1 83.6946 14.1233 39.9643 0.0000 0.0000 0.0000
# 2 14.1233 50.5993 25.2631 0.0000 0.0000 0.0000
# 3 39.9643 25.2631 75.1554 0.0000 0.0000 0.0000
# 4 0.0000 0.0000 0.0000 7.1181 0.0000 0.0000
# 5 0.0000 0.0000 0.0000 0.0000 15.1310 0.0000
# 6 0.0000 0.0000 0.0000 0.0000 0.0000 18.4303
#
#
#
# Elastic Compliance Matrix: (Units=1/GPa)
#
#
# Indices 1 2 3 4 5 6 
#
# 1 0.016017 -0.000262 -0.008429 0.000000 0.000000 0.000000
# 2 -0.000262 0.023753 -0.007845 0.000000 0.000000 0.000000
# 3 -0.008429 -0.007845 0.020425 0.000000 0.000000 0.000000
# 4 0.000000 0.000000 0.000000 0.140486 0.000000 0.000000
# 5 0.000000 0.000000 0.000000 0.000000 0.066090 0.000000
# 6 0.000000 0.000000 0.000000 0.000000 0.000000 0.054259
#
#
# Mechanical properties :
#
#
# Convention : Reuss Voigt Hill
#
# Bulk Modulus (GPa) = 36.86951 40.90562 38.88756
# Shear Modulus (GPa) = 13.76865 16.80912 15.28889
#
# Velocity S-wave (km/s) = 2.70687 2.99085 2.85240
# Velocity P-wave (km/s) = 5.42126 5.80477 5.61629
#
# Compressibility (1/GPa) = 0.02712268
#
# Stress axis : x y z
#
# Youngs Moduli (GPa) = 62.43205 42.09969 48.95942
#
# Poissons Ratio (x) = 0.01104 0.41269
# Poissons Ratio (y) = 0.01638 0.38409
# Poissons Ratio (z) = 0.52625 0.33027
#
# Static dielectric constant tensor:
#      x y z
#    x 3.356240 0.000000 0.000000 
#    y 0.000000 3.287590 0.000000 
#    z 0.000000 0.000000 3.375570 
# 
# 
# High freq. dielectric constant tensor:
#      x y z
#    x 1.704760 0.000000 0.000000 
#    y 0.000000 1.719780 0.000000 
#    z 0.000000 0.000000 1.722430 
# 
# From -- ./inp_files/40794.got.cif
#   From: 2010.03.12/outbox.cif.g09.slc.cpg/sg66_21_cif.got.tgz:40794.got - 2010.04.10 21:57:39.
