data_PCOD8275453
_publ_section_title
;
Structure prediction by ZEFSAII (Michael W. Deem and Ramdas Pophale) SiO2 
 PCOD8275453
Probable space group: C C C M
;
_chemical_formula_sum "Si O2"
_cell_formula_units_Z 80
_cell_length_a 35.136767
_cell_length_b 14.138661
_cell_length_c 10.243932
_cell_angle_alpha 90.000000
_cell_angle_beta 90.000000
_cell_angle_gamma 90.000000
_cell_volume 5089.050579
_symmetry_space_group_name_H-M "C C C M"
_symmetry_group_IT_number 66
_symmetry_cell_setting 'orthorhombic'
loop_
_space_group_symop_operation_xyz
x,y,z
-x,-y,z
x,-y,1/2-z
-x,y,1/2-z
-x,-y,-z
x,y,-z
-x,y,1/2+z
x,-y,1/2+z
1/2+x,1/2+y,z
1/2-x,1/2-y,z
1/2+x,1/2-y,1/2-z
1/2-x,1/2+y,1/2-z
1/2-x,1/2-y,-z
1/2+x,1/2+y,-z
1/2-x,1/2+y,1/2+z
1/2+x,1/2-y,1/2+z
loop_
_atom_site_type_symbol
_atom_site_label
_atom_site_fract_x
_atom_site_fract_y
_atom_site_fract_z
Si Si1 0.589034 0.387773 0.252147
Si Si2 0.159582 0.215001 0.851076
Si Si3 0.956349 0.112786 0.000000
Si Si4 0.773662 0.921516 0.148055
Si Si5 0.041345 0.111313 0.000000
Si Si6 0.314131 0.080239 0.850416
O O1 0.596415 0.500000 0.250000
O O2 0.629429 0.335029 0.256198
O O3 0.566794 0.352317 0.125203
O O4 0.563443 0.353864 0.372697
O O5 0.201364 0.171691 0.827699
O O6 0.161439 0.326281 0.820398
O O7 0.146728 0.196947 0.000000
O O8 0.998943 0.155875 0.000000
O O9 0.960636 0.000950 0.000000
O O10 0.729961 0.894726 0.173784
O O11 0.787764 0.000000 0.250000
O O12 0.779262 0.959789 0.000000
O O13 0.328152 0.000000 0.750000
O O14 0.320476 0.046338 0.000000
#
# Coordination Sequence:
#
# PCOD8275453 Si02
#       6
#    16  16   8  16   8  16
#     4  10  18  29  44  67  96 124 152 183 215 262
#     4  10  18  30  47  66  91 123 154 184 227 274
#     4   9  18  28  44  66  92 123 155 181 214 252
#     4   9  17  30  47  67  90 120 154 186 223 269
#     4   9  16  30  46  62  90 129 155 175 210 266
#     4   9  18  33  50  65  85 116 157 197 230 268
#
# _framework density 15.720025
#
# number of rings (size 3 to 8) (size 9 to 14) (size 15 to 20)
#    0.000    2.600    1.000    1.800    0.000    4.800 
#    3.600    0.000    0.000    4.800    0.000    0.000 
#    0.000    4.800    0.000    0.000    0.000    0.000 
#
# Total GULP energy -495959.302954 kJ/mol
# GULP energy per Si atom -12398.982574 kJ/mol
# Density = 1.568425 g / cm^3
# Si number density = 15.720025 Si / 1000 Ang^3
#
#
#
# Elastic Constant Matrix: (Units=GPa)
#
#
# Indices 1 2 3 4 5 6 
#
# 1 75.6572 32.5849 40.3690 0.0000 0.0000 0.0000
# 2 32.5849 65.8872 40.7795 0.0000 0.0000 0.0000
# 3 40.3690 40.7795 104.9158 0.0000 0.0000 0.0000
# 4 0.0000 0.0000 0.0000 19.8170 0.0000 0.0000
# 5 0.0000 0.0000 0.0000 0.0000 24.4898 0.0000
# 6 0.0000 0.0000 0.0000 0.0000 0.0000 14.5990
#
#
#
# Elastic Compliance Matrix: (Units=1/GPa)
#
#
# Indices 1 2 3 4 5 6 
#
# 1 0.018375 -0.006204 -0.004659 0.000000 0.000000 0.000000
# 2 -0.006204 0.022080 -0.006195 0.000000 0.000000 0.000000
# 3 -0.004659 -0.006195 0.013732 0.000000 0.000000 0.000000
# 4 0.000000 0.000000 0.000000 0.050462 0.000000 0.000000
# 5 0.000000 0.000000 0.000000 0.000000 0.040833 0.000000
# 6 0.000000 0.000000 0.000000 0.000000 0.000000 0.068498
#
#
# Mechanical properties :
#
#
# Convention : Reuss Voigt Hill
#
# Bulk Modulus (GPa) = 49.82239 52.65854 51.24047
# Shear Modulus (GPa) = 19.62423 20.62962 20.12693
#
# Velocity S-wave (km/s) = 3.53705 3.62652 3.58206
# Velocity P-wave (km/s) = 6.96012 7.14884 7.05511
#
# Compressibility (1/GPa) = 0.02007130
#
# Stress axis : x y z
#
# Youngs Moduli (GPa) = 54.42031 45.28971 72.82232
#
# Poissons Ratio (x) = 0.28098 0.33928
# Poissons Ratio (y) = 0.33763 0.45114
# Poissons Ratio (z) = 0.25354 0.28057
#
# Static dielectric constant tensor:
#      x y z
#    x 2.941450 0.000000 0.000000 
#    y 0.000000 2.661310 0.000000 
#    z 0.000000 0.000000 3.130060 
# 
# 
# High freq. dielectric constant tensor:
#      x y z
#    x 1.598320 0.000000 0.000000 
#    y 0.000000 1.559930 0.000000 
#    z 0.000000 0.000000 1.608880 
# 
# From -- ./inp_files/21265.got.cif
#   From: 2010.03.12/outbox.cif.g09.slc.cpg/sg66_11_cif.got.tgz:21265.got - 2010.04.10 21:57:39.
