data_PCOD8275760
_publ_section_title
;
Structure prediction by ZEFSAII (Michael W. Deem and Ramdas Pophale) SiO2 
 PCOD8275760
Probable space group: C C C M
;
_chemical_formula_sum "Si O2"
_cell_formula_units_Z 80
_cell_length_a 19.584622
_cell_length_b 12.760316
_cell_length_c 19.751548
_cell_angle_alpha 90.000000
_cell_angle_beta 90.000000
_cell_angle_gamma 90.000000
_cell_volume 4936.029672
_symmetry_space_group_name_H-M "C C C M"
_symmetry_group_IT_number 66
_symmetry_cell_setting 'orthorhombic'
loop_
_space_group_symop_operation_xyz
x,y,z
-x,-y,z
x,-y,1/2-z
-x,y,1/2-z
-x,-y,-z
x,y,-z
-x,y,1/2+z
x,-y,1/2+z
1/2+x,1/2+y,z
1/2-x,1/2-y,z
1/2+x,1/2-y,1/2-z
1/2-x,1/2+y,1/2-z
1/2-x,1/2-y,-z
1/2+x,1/2+y,-z
1/2-x,1/2+y,1/2+z
1/2+x,1/2-y,1/2+z
loop_
_atom_site_type_symbol
_atom_site_label
_atom_site_fract_x
_atom_site_fract_y
_atom_site_fract_z
Si Si1 0.380962 0.000000 0.250000
Si Si2 0.177025 0.707029 0.311101
Si Si3 0.606448 0.386171 0.243428
Si Si4 0.001911 0.885986 0.863841
Si Si5 0.000000 0.500000 0.147194
Si Si6 0.436274 0.194461 0.923044
O O1 0.330708 0.093633 0.225397
O O2 0.433322 0.034466 0.309499
O O3 0.250000 0.750000 0.335974
O O4 0.157913 0.791799 0.254436
O O5 0.130708 0.707893 0.377727
O O6 0.643159 0.500000 0.250000
O O7 0.576664 0.367715 0.168187
O O8 0.548809 0.383021 0.300549
O O9 0.983437 0.797815 0.918281
O O10 0.000000 0.000000 0.899788
O O11 0.982078 0.597789 0.100463
O O12 0.412750 0.178029 0.000000
#
# Coordination Sequence:
#
# PCOD8275760 Si02
#       6
#     8  16  16  16   8  16
#     4   9  18  32  50  72  92 113 144 198 242 267
#     4  10  20  30  44  66  93 122 151 180 222 271
#     4   8  14  26  45  65  88 112 140 183 230 269
#     4   8  14  26  44  67  88 111 142 181 229 265
#     4   9  17  32  52  70  91 111 150 198 240 267
#     4  10  19  30  45  66  93 123 153 182 218 268
#
# _framework density 16.207357999999999
#
# number of rings (size 3 to 8) (size 9 to 14) (size 15 to 20)
#    0.000    3.000    0.000    2.700    1.400    5.600 
#    0.000    0.000    0.000    0.000    0.000    0.000 
#    0.000    7.200    0.000    0.000    0.000    0.000 
#
# Total GULP energy -495551.914822 kJ/mol
# GULP energy per Si atom -12388.797871 kJ/mol
# Density = 1.617047 g / cm^3
# Si number density = 16.207358 Si / 1000 Ang^3
#
#
#
# Elastic Constant Matrix: (Units=GPa)
#
#
# Indices 1 2 3 4 5 6 
#
# 1 71.3274 53.3201 28.2936 0.0000 0.0000 0.0000
# 2 53.3201 132.2990 49.5963 0.0000 0.0000 0.0000
# 3 28.2936 49.5963 78.2735 0.0000 0.0000 0.0000
# 4 0.0000 0.0000 0.0000 6.0480 0.0000 0.0000
# 5 0.0000 0.0000 0.0000 0.0000 8.5255 0.0000
# 6 0.0000 0.0000 0.0000 0.0000 0.0000 24.3881
#
#
#
# Elastic Compliance Matrix: (Units=1/GPa)
#
#
# Indices 1 2 3 4 5 6 
#
# 1 0.020541 -0.007207 -0.002858 0.000000 0.000000 0.000000
# 2 -0.007207 0.012442 -0.005279 0.000000 0.000000 0.000000
# 3 -0.002858 -0.005279 0.017154 0.000000 0.000000 0.000000
# 4 0.000000 0.000000 0.000000 0.165344 0.000000 0.000000
# 5 0.000000 0.000000 0.000000 0.000000 0.117296 0.000000
# 6 0.000000 0.000000 0.000000 0.000000 0.000000 0.041004
#
#
# Mechanical properties :
#
#
# Convention : Reuss Voigt Hill
#
# Bulk Modulus (GPa) = 51.41694 60.47999 55.94846
# Shear Modulus (GPa) = 12.16688 17.83830 15.00259
#
# Velocity S-wave (km/s) = 2.74286 3.32117 3.04578
# Velocity P-wave (km/s) = 6.46718 7.21833 6.85305
#
# Compressibility (1/GPa) = 0.01944884
#
# Stress axis : x y z
#
# Youngs Moduli (GPa) = 48.68230 80.37219 58.29684
#
# Poissons Ratio (x) = 0.57925 0.16664
# Poissons Ratio (y) = 0.35086 0.30772
# Poissons Ratio (z) = 0.13916 0.42425
#
# Static dielectric constant tensor:
#      x y z
#    x 3.006820 0.000000 0.000000 
#    y 0.000000 3.418150 0.000000 
#    z 0.000000 0.000000 2.800530 
# 
# 
# High freq. dielectric constant tensor:
#      x y z
#    x 1.594320 0.000000 0.000000 
#    y 0.000000 1.643230 0.000000 
#    z 0.000000 0.000000 1.593940 
# 
# From -- ./inp_files/42868.got.cif
#   From: 2010.03.12/outbox.cif.g09.slc.cpg/sg66_22_cif.got.tgz:42868.got - 2010.04.10 21:57:39.
