data_PCOD8275673
_publ_section_title
;
Structure prediction by ZEFSAII (Michael W. Deem and Ramdas Pophale) SiO2 
 PCOD8275673
Probable space group: C C C M
;
_chemical_formula_sum "Si O2"
_cell_formula_units_Z 64
_cell_length_a 18.716000
_cell_length_b 9.102330
_cell_length_c 17.884921
_cell_angle_alpha 90.000000
_cell_angle_beta 90.000000
_cell_angle_gamma 90.000000
_cell_volume 3046.860982
_symmetry_space_group_name_H-M "C C C M"
_symmetry_group_IT_number 66
_symmetry_cell_setting 'orthorhombic'
loop_
_space_group_symop_operation_xyz
x,y,z
-x,-y,z
x,-y,1/2-z
-x,y,1/2-z
-x,-y,-z
x,y,-z
-x,y,1/2+z
x,-y,1/2+z
1/2+x,1/2+y,z
1/2-x,1/2-y,z
1/2+x,1/2-y,1/2-z
1/2-x,1/2+y,1/2-z
1/2-x,1/2-y,-z
1/2+x,1/2+y,-z
1/2-x,1/2+y,1/2+z
1/2+x,1/2-y,1/2+z
loop_
_atom_site_type_symbol
_atom_site_label
_atom_site_fract_x
_atom_site_fract_y
_atom_site_fract_z
Si Si1 0.805658 0.882400 0.414054
Si Si2 0.409377 0.873881 0.588003
Si Si3 0.779999 0.603259 0.815337
Si Si4 0.061405 0.296001 0.588062
O O1 0.813187 0.936759 0.500000
O O2 0.750000 0.750000 0.410169
O O3 0.882659 0.825390 0.381070
O O4 0.779372 0.017473 0.363937
O O5 0.395575 0.864332 0.500000
O O6 0.340025 0.823678 0.632012
O O7 0.477897 0.771302 0.610038
O O8 0.419403 0.041233 0.615348
O O9 0.810739 0.500000 0.750000
O O10 0.750000 0.750000 0.775838
O O11 0.069930 0.294237 0.500000
#
# Coordination Sequence:
#
# PCOD8275673 Si02
#       4
#    16  16  16  16
#     4  10  18  34  63  92 118 151 194 247 307 364
#     4   9  17  34  61  92 118 146 195 249 298 357
#     4  12  26  40  57  80 121 167 207 252 302 364
#     4   8  15  30  60  95 118 141 184 248 299 349
#
# _framework density 21.005224999999999
#
# number of rings (size 3 to 8) (size 9 to 14) (size 15 to 20)
#    0.000    2.250    2.500    3.000    0.000    2.000 
#    0.000    3.750    0.000    6.000    0.000    0.000 
#    0.000    0.000    0.000    0.000    0.000    0.000 
#
# Total GULP energy -396430.409960 kJ/mol
# GULP energy per Si atom -12388.450311 kJ/mol
# Density = 2.095742 g / cm^3
# Si number density = 21.005225 Si / 1000 Ang^3
#
#
#
# Elastic Constant Matrix: (Units=GPa)
#
#
# Indices 1 2 3 4 5 6 
#
# 1 150.9522 42.7794 40.6100 0.0000 0.0000 0.0000
# 2 42.7794 66.9084 22.8718 0.0000 0.0000 0.0000
# 3 40.6100 22.8718 62.0206 0.0000 0.0000 0.0000
# 4 0.0000 0.0000 0.0000 26.9326 0.0000 0.0000
# 5 0.0000 0.0000 0.0000 0.0000 26.3542 0.0000
# 6 0.0000 0.0000 0.0000 0.0000 0.0000 27.8767
#
#
#
# Elastic Compliance Matrix: (Units=1/GPa)
#
#
# Indices 1 2 3 4 5 6 
#
# 1 0.008998 -0.004278 -0.004314 0.000000 0.000000 0.000000
# 2 -0.004278 0.019136 -0.004256 0.000000 0.000000 0.000000
# 3 -0.004314 -0.004256 0.020518 0.000000 0.000000 0.000000
# 4 0.000000 0.000000 0.000000 0.037130 0.000000 0.000000
# 5 0.000000 0.000000 0.000000 0.000000 0.037945 0.000000
# 6 0.000000 0.000000 0.000000 0.000000 0.000000 0.035872
#
#
# Mechanical properties :
#
#
# Convention : Reuss Voigt Hill
#
# Bulk Modulus (GPa) = 43.56162 54.71151 49.13657
# Shear Modulus (GPa) = 25.91416 27.80737 26.86077
#
# Velocity S-wave (km/s) = 3.51622 3.64240 3.57986
# Velocity P-wave (km/s) = 6.10480 6.61759 6.36636
#
# Compressibility (1/GPa) = 0.02295599
#
# Stress axis : x y z
#
# Youngs Moduli (GPa) = 111.14149 52.25781 48.73865
#
# Poissons Ratio (x) = 0.22357 0.21025
# Poissons Ratio (y) = 0.47548 0.20741
# Poissons Ratio (z) = 0.47943 0.22239
#
# Static dielectric constant tensor:
#      x y z
#    x 4.391050 0.000000 0.000000 
#    y 0.000000 3.614140 0.000000 
#    z 0.000000 0.000000 3.476150 
# 
# 
# High freq. dielectric constant tensor:
#      x y z
#    x 1.830780 0.000000 0.000000 
#    y 0.000000 1.796220 0.000000 
#    z 0.000000 0.000000 1.791480 
# 
# From -- ./inp_files/36298.got.cif
#   From: 2010.03.12/outbox.cif.g09.slc.cpg/sg66_19_cif.got.tgz:36298.got - 2010.04.10 21:57:39.
