data_PCOD8275752
_publ_section_title
;
Structure prediction by ZEFSAII (Michael W. Deem and Ramdas Pophale) SiO2 
 PCOD8275752
Probable space group: C C C M
;
_chemical_formula_sum "Si O2"
_cell_formula_units_Z 96
_cell_length_a 20.324907
_cell_length_b 18.912216
_cell_length_c 15.528680
_cell_angle_alpha 90.000000
_cell_angle_beta 90.000000
_cell_angle_gamma 90.000000
_cell_volume 5969.054264
_symmetry_space_group_name_H-M "C C C M"
_symmetry_group_IT_number 66
_symmetry_cell_setting 'orthorhombic'
loop_
_space_group_symop_operation_xyz
x,y,z
-x,-y,z
x,-y,1/2-z
-x,y,1/2-z
-x,-y,-z
x,y,-z
-x,y,1/2+z
x,-y,1/2+z
1/2+x,1/2+y,z
1/2-x,1/2-y,z
1/2+x,1/2-y,1/2-z
1/2-x,1/2+y,1/2-z
1/2-x,1/2-y,-z
1/2+x,1/2+y,-z
1/2-x,1/2+y,1/2+z
1/2+x,1/2-y,1/2+z
loop_
_atom_site_type_symbol
_atom_site_label
_atom_site_fract_x
_atom_site_fract_y
_atom_site_fract_z
Si Si1 0.411876 0.715779 0.093198
Si Si2 0.738516 0.635811 0.240708
Si Si3 0.825134 0.918212 0.597124
Si Si4 0.542059 0.682407 0.835681
Si Si5 0.351360 0.577304 0.401198
Si Si6 0.647055 0.769660 0.753001
O O1 0.381065 0.639504 0.115519
O O2 0.490723 0.705729 0.091634
O O3 0.388827 0.775302 0.160363
O O4 0.388949 0.742549 0.000000
O O5 0.730599 0.589327 0.328408
O O6 0.712901 0.596304 0.155492
O O7 0.699537 0.707639 0.253683
O O8 0.815742 0.656454 0.226718
O O9 0.794961 0.909514 0.500000
O O10 0.861297 0.993426 0.604970
O O11 0.500000 0.664759 0.750000
O O12 0.583067 0.613439 0.863593
O O13 0.591987 0.748742 0.823261
O O14 0.339210 0.601660 0.500000
#
# Coordination Sequence:
#
# PCOD8275752 Si02
#       6
#    16  16  16  16  16  16
#     4   9  16  27  42  61  84 112 142 175 211 246
#     4   9  16  29  44  58  81 113 144 178 216 247
#     4   9  18  29  43  64  88 113 145 177 208 248
#     4   9  17  29  42  58  85 117 145 176 208 242
#     4  10  19  30  43  63  89 117 146 175 205 247
#     4   8  16  28  41  58  80 108 146 181 209 248
#
# _framework density 16.08295
#
# number of rings (size 3 to 8) (size 9 to 14) (size 15 to 20)
#    0.000    3.000    0.000    2.000    0.000    1.333 
#    0.000   17.500    0.000    0.000    0.000    0.000 
#    0.000   24.000    0.000   39.000    0.000    2.167 
#
# Total GULP energy -594720.244426 kJ/mol
# GULP energy per Si atom -12390.005092 kJ/mol
# Density = 1.604634 g / cm^3
# Si number density = 16.082950 Si / 1000 Ang^3
#
#
#
# Elastic Constant Matrix: (Units=GPa)
#
#
# Indices 1 2 3 4 5 6 
#
# 1 76.9138 37.6485 36.0104 0.0000 0.0000 0.0000
# 2 37.6485 28.0052 23.9755 0.0000 0.0000 0.0000
# 3 36.0104 23.9755 93.1083 0.0000 0.0000 0.0000
# 4 0.0000 0.0000 0.0000 17.4582 0.0000 0.0000
# 5 0.0000 0.0000 0.0000 0.0000 14.0379 0.0000
# 6 0.0000 0.0000 0.0000 0.0000 0.0000 21.8833
#
#
#
# Elastic Compliance Matrix: (Units=1/GPa)
#
#
# Indices 1 2 3 4 5 6 
#
# 1 0.038307 -0.049790 -0.001995 0.000000 0.000000 0.000000
# 2 -0.049790 0.110521 -0.009202 0.000000 0.000000 0.000000
# 3 -0.001995 -0.009202 0.013881 0.000000 0.000000 0.000000
# 4 0.000000 0.000000 0.000000 0.057280 0.000000 0.000000
# 5 0.000000 0.000000 0.000000 0.000000 0.071236 0.000000
# 6 0.000000 0.000000 0.000000 0.000000 0.000000 0.045697
#
#
# Mechanical properties :
#
#
# Convention : Reuss Voigt Hill
#
# Bulk Modulus (GPa) = 24.54908 43.69954 34.12431
# Shear Modulus (GPa) = 10.58257 17.36872 13.97564
#
# Velocity S-wave (km/s) = 2.56793 3.28982 2.95103
# Velocity P-wave (km/s) = 4.90811 6.45452 5.73369
#
# Compressibility (1/GPa) = 0.04073473
#
# Stress axis : x y z
#
# Youngs Moduli (GPa) = 26.10469 9.04806 72.03971
#
# Poissons Ratio (x) = 0.45051 0.14369
# Poissons Ratio (y) = 1.29976 0.66294
# Poissons Ratio (z) = 0.05207 0.08326
#
# Static dielectric constant tensor:
#      x y z
#    x 3.210530 0.000000 0.000000 
#    y 0.000000 2.859830 0.000000 
#    z 0.000000 0.000000 3.258260 
# 
# 
# High freq. dielectric constant tensor:
#      x y z
#    x 1.598350 0.000000 0.000000 
#    y 0.000000 1.575090 0.000000 
#    z 0.000000 0.000000 1.631100 
# 
# From -- ./inp_files/31452.got.cif
#   From: 2010.03.12/outbox.cif.g09.slc.cpg/sg66_16_cif.got.tgz:31452.got - 2010.04.10 21:57:39.
