data_PCOD8275290
_publ_section_title
;
Structure prediction by ZEFSAII (Michael W. Deem and Ramdas Pophale) SiO2 
 PCOD8275290
Probable space group: C C C M
;
_chemical_formula_sum "Si O2"
_cell_formula_units_Z 80
_cell_length_a 18.550092
_cell_length_b 26.219911
_cell_length_c 8.773370
_cell_angle_alpha 90.000000
_cell_angle_beta 90.000000
_cell_angle_gamma 90.000000
_cell_volume 4267.207153
_symmetry_space_group_name_H-M "C C C M"
_symmetry_group_IT_number 66
_symmetry_cell_setting 'orthorhombic'
loop_
_space_group_symop_operation_xyz
x,y,z
-x,-y,z
x,-y,1/2-z
-x,y,1/2-z
-x,-y,-z
x,y,-z
-x,y,1/2+z
x,-y,1/2+z
1/2+x,1/2+y,z
1/2-x,1/2-y,z
1/2+x,1/2-y,1/2-z
1/2-x,1/2+y,1/2-z
1/2-x,1/2-y,-z
1/2+x,1/2+y,-z
1/2-x,1/2+y,1/2+z
1/2+x,1/2-y,1/2+z
loop_
_atom_site_type_symbol
_atom_site_label
_atom_site_fract_x
_atom_site_fract_y
_atom_site_fract_z
Si Si1 0.849207 0.153748 0.180329
Si Si2 0.423150 0.242371 0.680412
Si Si3 0.306997 0.951748 0.822425
Si Si4 0.313051 0.159973 0.676766
Si Si5 0.349789 0.449280 0.820295
O O1 0.898315 0.201262 0.228718
O O2 0.767994 0.163727 0.243949
O O3 0.884236 0.103251 0.256361
O O4 0.846863 0.145091 0.000000
O O5 0.500000 0.229861 0.750000
O O6 0.428056 0.236951 0.500000
O O7 0.366518 0.201402 0.751045
O O8 0.346118 0.897181 0.798231
O O9 0.232893 0.949275 0.730646
O O10 0.351411 0.000000 0.750000
O O11 0.291345 0.961366 0.000000
O O12 0.306954 0.173317 0.500000
O O13 0.388011 0.500000 0.750000
O O14 0.358066 0.450801 0.000000
#
# Coordination Sequence:
#
# PCOD8275290 Si02
#       5
#    16  16  16  16  16
#     4   9  17  31  51  72  94 124 162 199 234 276
#     4  10  20  34  51  70  95 126 160 198 241 287
#     4   9  15  25  43  68  97 125 156 193 236 281
#     4   8  15  29  50  72  93 124 163 197 230 277
#     4  10  17  26  43  69 100 127 153 189 235 282
#
# _framework density 18.747626
#
# number of rings (size 3 to 8) (size 9 to 14) (size 15 to 20)
#    0.000    2.800    0.000    5.400    0.000    3.200 
#    0.000    5.000    0.000    7.200    0.000    8.400 
#    0.000    0.000    0.000    0.000    0.000    0.000 
#
# Total GULP energy -495610.972088 kJ/mol
# GULP energy per Si atom -12390.274302 kJ/mol
# Density = 1.870496 g / cm^3
# Si number density = 18.747626 Si / 1000 Ang^3
#
#
#
# Elastic Constant Matrix: (Units=GPa)
#
#
# Indices 1 2 3 4 5 6 
#
# 1 31.7639 5.4794 5.0576 0.0000 0.0000 0.0000
# 2 5.4794 106.2735 34.5261 0.0000 0.0000 0.0000
# 3 5.0576 34.5261 64.4208 0.0000 0.0000 0.0000
# 4 0.0000 0.0000 0.0000 26.7079 0.0000 0.0000
# 5 0.0000 0.0000 0.0000 0.0000 17.5057 0.0000
# 6 0.0000 0.0000 0.0000 0.0000 0.0000 5.3628
#
#
#
# Elastic Compliance Matrix: (Units=1/GPa)
#
#
# Indices 1 2 3 4 5 6 
#
# 1 0.031970 -0.001009 -0.001969 0.000000 0.000000 0.000000
# 2 -0.001009 0.011425 -0.006044 0.000000 0.000000 0.000000
# 3 -0.001969 -0.006044 0.018917 0.000000 0.000000 0.000000
# 4 0.000000 0.000000 0.000000 0.037442 0.000000 0.000000
# 5 0.000000 0.000000 0.000000 0.000000 0.057124 0.000000
# 6 0.000000 0.000000 0.000000 0.000000 0.000000 0.186471
#
#
# Mechanical properties :
#
#
# Convention : Reuss Voigt Hill
#
# Bulk Modulus (GPa) = 22.58980 32.50941 27.54960
# Shear Modulus (GPa) = 13.29259 20.40828 16.85044
#
# Velocity S-wave (km/s) = 2.66565 3.30294 3.00126
# Velocity P-wave (km/s) = 4.64218 5.65014 5.17078
#
# Compressibility (1/GPa) = 0.04426777
#
# Stress axis : x y z
#
# Youngs Moduli (GPa) = 31.27953 87.52494 52.86278
#
# Poissons Ratio (x) = 0.08827 0.10411
# Poissons Ratio (y) = 0.03155 0.31951
# Poissons Ratio (z) = 0.06160 0.52902
#
# Static dielectric constant tensor:
#      x y z
#    x 2.991750 0.000000 0.000000 
#    y 0.000000 4.486480 0.000000 
#    z 0.000000 0.000000 3.241700 
# 
# 
# High freq. dielectric constant tensor:
#      x y z
#    x 1.662790 0.000000 0.000000 
#    y 0.000000 1.761640 0.000000 
#    z 0.000000 0.000000 1.706290 
# 
# From -- ./inp_files/6646.got.cif
#   From: 2010.03.12/outbox.cif.g09.slc.cpg/sg66_4_cif.got.tgz:6646.got - 2010.04.10 21:57:39.
