data_PCOD8275976
_publ_section_title
;
Structure prediction by ZEFSAII (Michael W. Deem and Ramdas Pophale) SiO2 
 PCOD8275976
Probable space group: C C C M
;
_chemical_formula_sum "Si O2"
_cell_formula_units_Z 64
_cell_length_a 12.422360
_cell_length_b 12.576877
_cell_length_c 18.897185
_cell_angle_alpha 90.000000
_cell_angle_beta 90.000000
_cell_angle_gamma 90.000000
_cell_volume 2952.392132
_symmetry_space_group_name_H-M "C C C M"
_symmetry_group_IT_number 66
_symmetry_cell_setting 'orthorhombic'
loop_
_space_group_symop_operation_xyz
x,y,z
-x,-y,z
x,-y,1/2-z
-x,y,1/2-z
-x,-y,-z
x,y,-z
-x,y,1/2+z
x,-y,1/2+z
1/2+x,1/2+y,z
1/2-x,1/2-y,z
1/2+x,1/2-y,1/2-z
1/2-x,1/2+y,1/2-z
1/2-x,1/2-y,-z
1/2+x,1/2+y,-z
1/2-x,1/2+y,1/2+z
1/2+x,1/2-y,1/2+z
loop_
_atom_site_type_symbol
_atom_site_label
_atom_site_fract_x
_atom_site_fract_y
_atom_site_fract_z
Si Si1 0.387719 0.166276 0.280182
Si Si2 0.883081 0.452899 0.078711
Si Si3 0.205626 0.132240 0.076136
Si Si4 0.661152 0.613395 0.773815
O O1 0.500000 0.119042 0.250000
O O2 0.365716 0.137522 0.362011
O O3 0.390999 0.294740 0.274285
O O4 0.291611 0.119456 0.231973
O O5 0.799976 0.548074 0.089024
O O6 0.000000 0.500000 0.089033
O O7 0.871016 0.401889 0.000000
O O8 0.250000 0.250000 0.073271
O O9 0.126514 0.126169 0.143634
O O10 0.147958 0.108526 0.000000
O O11 0.615901 0.500000 0.750000
#
# Coordination Sequence:
#
# PCOD8275976 Si02
#       4
#    16  16  16  16
#     4  11  23  37  60  87 115 157 193 245 298 344
#     4  10  21  36  58  89 118 149 194 250 303 353
#     4  10  19  33  53  82 116 152 186 233 292 351
#     4  11  22  39  58  86 119 152 202 241 291 361
#
# _framework density 21.677336
#
# number of rings (size 3 to 8) (size 9 to 14) (size 15 to 20)
#    0.000    1.500    5.000    1.500    0.000    0.500 
#    0.000    3.750    0.000    0.000    0.000    3.500 
#    0.000    0.000    0.000    0.000    0.000    0.000 
#
# Total GULP energy -396586.772306 kJ/mol
# GULP energy per Si atom -12393.336635 kJ/mol
# Density = 2.162800 g / cm^3
# Si number density = 21.677336 Si / 1000 Ang^3
#
#
#
# Elastic Constant Matrix: (Units=GPa)
#
#
# Indices 1 2 3 4 5 6 
#
# 1 48.2989 -3.3108 14.3665 0.0000 0.0000 0.0000
# 2 -3.3108 137.1810 87.4941 0.0000 0.0000 0.0000
# 3 14.3665 87.4941 225.9975 0.0000 0.0000 0.0000
# 4 0.0000 0.0000 0.0000 39.5272 0.0000 0.0000
# 5 0.0000 0.0000 0.0000 0.0000 18.0939 0.0000
# 6 0.0000 0.0000 0.0000 0.0000 0.0000 6.1347
#
#
#
# Elastic Compliance Matrix: (Units=1/GPa)
#
#
# Indices 1 2 3 4 5 6 
#
# 1 0.021448 0.001842 -0.002077 0.000000 0.000000 0.000000
# 2 0.001842 0.009838 -0.003926 0.000000 0.000000 0.000000
# 3 -0.002077 -0.003926 0.006077 0.000000 0.000000 0.000000
# 4 0.000000 0.000000 0.000000 0.025299 0.000000 0.000000
# 5 0.000000 0.000000 0.000000 0.000000 0.055267 0.000000
# 6 0.000000 0.000000 0.000000 0.000000 0.000000 0.163007
#
#
# Mechanical properties :
#
#
# Convention : Reuss Voigt Hill
#
# Bulk Modulus (GPa) = 34.43247 67.61967 51.02607
# Shear Modulus (GPa) = 16.72591 33.61302 25.16946
#
# Velocity S-wave (km/s) = 2.78076 3.94205 3.41118
# Velocity P-wave (km/s) = 5.12140 7.20979 6.25339
#
# Compressibility (1/GPa) = 0.02904235
#
# Stress axis : x y z
#
# Youngs Moduli (GPa) = 46.62364 101.64658 164.56259
#
# Poissons Ratio (x) = -0.18724 0.34173
# Poissons Ratio (y) = -0.08589 0.64605
# Poissons Ratio (z) = 0.09682 0.39905
#
# Static dielectric constant tensor:
#      x y z
#    x 3.612440 0.000000 0.000000 
#    y 0.000000 3.936000 0.000000 
#    z 0.000000 0.000000 4.715450 
# 
# 
# High freq. dielectric constant tensor:
#      x y z
#    x 1.811430 0.000000 0.000000 
#    y 0.000000 1.849290 0.000000 
#    z 0.000000 0.000000 1.874700 
# 
# From -- ./inp_files/39969.got.cif
#   From: 2010.03.12/outbox.cif.g09.slc.cpg/sg66_20_cif.got.tgz:39969.got - 2010.04.10 21:57:39.
