data_PCOD8275059
_publ_section_title
;
Structure prediction by ZEFSAII (Michael W. Deem and Ramdas Pophale) SiO2 
 PCOD8275059
Probable space group: C M M M
;
_chemical_formula_sum "Si O2"
_cell_formula_units_Z 96
_cell_length_a 28.235526
_cell_length_b 9.693628
_cell_length_c 21.118969
_cell_angle_alpha 90.000000
_cell_angle_beta 90.000000
_cell_angle_gamma 90.000000
_cell_volume 5780.360767
_symmetry_space_group_name_H-M "C M M M"
_symmetry_group_IT_number 65
_symmetry_cell_setting 'orthorhombic'
loop_
_space_group_symop_operation_xyz
x,y,z
-x,-y,z
x,-y,-z
-x,y,-z
-x,-y,-z
x,y,-z
-x,y,z
x,-y,z
1/2+x,1/2+y,z
1/2-x,1/2-y,z
1/2+x,1/2-y,-z
1/2-x,1/2+y,-z
1/2-x,1/2-y,-z
1/2+x,1/2+y,-z
1/2-x,1/2+y,z
1/2+x,1/2-y,z
loop_
_atom_site_type_symbol
_atom_site_label
_atom_site_fract_x
_atom_site_fract_y
_atom_site_fract_z
Si Si1 0.373709 0.839205 0.602769
Si Si2 0.552815 0.335953 0.831374
Si Si3 0.295960 0.842461 0.500000
Si Si4 0.795696 0.842020 0.829851
Si Si5 0.871723 0.164249 0.070728
Si Si6 0.125017 0.157991 0.273500
Si Si7 0.552958 0.835983 0.500000
O O1 0.326619 0.811129 0.562311
O O2 0.370228 0.753840 0.666325
O O3 0.419331 0.787305 0.562883
O O4 0.378401 0.000000 0.619639
O O5 0.500000 0.272212 0.831821
O O6 0.551034 0.500000 0.834781
O O7 0.581768 0.279978 0.892384
O O8 0.579550 0.292380 0.767057
O O9 0.250000 0.750000 0.500000
O O10 0.279127 0.000000 0.500000
O O11 0.750000 0.750000 0.820656
O O12 0.824541 0.790457 0.891699
O O13 0.827988 0.825963 0.768100
O O14 0.779773 0.000000 0.838435
O O15 0.873768 0.000000 0.068857
O O16 0.870752 0.227162 0.000000
O O17 0.118745 0.000000 0.295387
O O18 0.500000 0.773130 0.500000
O O19 0.552038 0.000000 0.500000
#
# Coordination Sequence:
#
# PCOD8275059 Si02
#       7
#    16  16   8  16  16  16   8
#     4   9  18  32  49  69  91 115 147 184 217 256
#     4   8  14  25  41  62  89 119 148 179 218 263
#     4   9  19  34  49  67  91 116 144 182 224 262
#     4   9  18  31  45  63  89 119 149 183 223 263
#     4   8  14  25  41  62  88 116 147 184 223 262
#     4   9  18  31  45  64  92 121 146 178 222 264
#     4   8  15  30  50  69  91 118 145 177 219 261
#
# _framework density 16.607959999999999
#
# number of rings (size 3 to 8) (size 9 to 14) (size 15 to 20)
#    0.000    3.417    0.000    3.000    0.000    3.333 
#    0.000    6.250    0.000    0.500    0.000    0.000 
#    0.000    0.000    0.000    7.333    0.000    7.333 
#
# Total GULP energy -594958.593612 kJ/mol
# GULP energy per Si atom -12394.970700 kJ/mol
# Density = 1.657016 g / cm^3
# Si number density = 16.607960 Si / 1000 Ang^3
#
#
#
# Elastic Constant Matrix: (Units=GPa)
#
#
# Indices 1 2 3 4 5 6 
#
# 1 133.1747 46.2154 52.4513 0.0000 0.0000 0.0000
# 2 46.2154 44.8868 49.5644 0.0000 0.0000 0.0000
# 3 52.4513 49.5644 136.3422 0.0000 0.0000 0.0000
# 4 0.0000 0.0000 0.0000 18.5448 0.0000 0.0000
# 5 0.0000 0.0000 0.0000 0.0000 10.8626 0.0000
# 6 0.0000 0.0000 0.0000 0.0000 0.0000 19.3140
#
#
#
# Elastic Compliance Matrix: (Units=1/GPa)
#
#
# Indices 1 2 3 4 5 6 
#
# 1 0.011687 -0.011808 -0.000203 0.000000 0.000000 0.000000
# 2 -0.011808 0.049149 -0.013324 0.000000 0.000000 0.000000
# 3 -0.000203 -0.013324 0.012257 0.000000 0.000000 0.000000
# 4 0.000000 0.000000 0.000000 0.053923 0.000000 0.000000
# 5 0.000000 0.000000 0.000000 0.000000 0.092059 0.000000
# 6 0.000000 0.000000 0.000000 0.000000 0.000000 0.051776
#
#
# Mechanical properties :
#
#
# Convention : Reuss Voigt Hill
#
# Bulk Modulus (GPa) = 44.60238 67.87399 56.23819
# Shear Modulus (GPa) = 15.19778 20.82246 18.01012
#
# Velocity S-wave (km/s) = 3.02833 3.54469 3.29664
# Velocity P-wave (km/s) = 6.25636 7.59672 6.95889
#
# Compressibility (1/GPa) = 0.02242033
#
# Stress axis : x y z
#
# Youngs Moduli (GPa) = 85.56677 20.34639 81.58929
#
# Poissons Ratio (x) = 0.24025 0.01659
# Poissons Ratio (y) = 1.01039 1.08713
# Poissons Ratio (z) = 0.01740 0.27110
#
# Static dielectric constant tensor:
#      x y z
#    x 3.333440 0.000000 0.000000 
#    y 0.000000 2.685390 0.000000 
#    z 0.000000 0.000000 3.207710 
# 
# 
# High freq. dielectric constant tensor:
#      x y z
#    x 1.646290 0.000000 0.000000 
#    y 0.000000 1.593660 0.000000 
#    z 0.000000 0.000000 1.644770 
# 
# From -- ./inp_files/57510.got.cif
#   From: 2010.03.12/outbox.cif.g09.slc.cpg/sg65_29_cif.got.tgz:57510.got - 2010.04.10 20:52:16.
