data_PCOD8275571
_publ_section_title
;
Structure prediction by ZEFSAII (Michael W. Deem and Ramdas Pophale) SiO2 
 PCOD8275571
Probable space group: C C C M
;
_chemical_formula_sum "Si O2"
_cell_formula_units_Z 128
_cell_length_a 20.480183
_cell_length_b 18.480322
_cell_length_c 18.525324
_cell_angle_alpha 90.000000
_cell_angle_beta 90.000000
_cell_angle_gamma 90.000000
_cell_volume 7011.471602
_symmetry_space_group_name_H-M "C C C M"
_symmetry_group_IT_number 66
_symmetry_cell_setting 'orthorhombic'
loop_
_space_group_symop_operation_xyz
x,y,z
-x,-y,z
x,-y,1/2-z
-x,y,1/2-z
-x,-y,-z
x,y,-z
-x,y,1/2+z
x,-y,1/2+z
1/2+x,1/2+y,z
1/2-x,1/2-y,z
1/2+x,1/2-y,1/2-z
1/2-x,1/2+y,1/2-z
1/2-x,1/2-y,-z
1/2+x,1/2+y,-z
1/2-x,1/2+y,1/2+z
1/2+x,1/2-y,1/2+z
loop_
_atom_site_type_symbol
_atom_site_label
_atom_site_fract_x
_atom_site_fract_y
_atom_site_fract_z
Si Si1 0.468378 0.682356 0.174005
Si Si2 0.662020 0.393610 0.803658
Si Si3 0.433449 0.032441 0.413789
Si Si4 0.198920 0.519393 0.579501
Si Si5 0.958174 0.070039 0.416020
Si Si6 0.678250 0.442501 0.654326
Si Si7 0.400343 0.807122 0.083896
Si Si8 0.241914 0.354129 0.420376
O O1 0.500000 0.706867 0.250000
O O2 0.413507 0.622050 0.185278
O O3 0.521810 0.643200 0.124787
O O4 0.437283 0.750664 0.134180
O O5 0.675533 0.382763 0.718166
O O6 0.676554 0.476441 0.817482
O O7 0.705292 0.342363 0.856437
O O8 0.430818 0.028248 0.500000
O O9 0.427323 0.115412 0.390112
O O10 0.500000 0.000000 0.381714
O O11 0.372967 0.983764 0.383270
O O12 0.192737 0.552584 0.500000
O O13 0.250562 0.570571 0.619621
O O14 0.222891 0.437273 0.575673
O O15 0.971481 0.081499 0.500000
O O16 0.880822 0.062658 0.402598
O O17 0.000000 0.000000 0.389101
O O18 0.321710 0.804676 0.095629
O O19 0.416957 0.792218 0.000000
O O20 0.270974 0.332824 0.500000
#
# Coordination Sequence:
#
# PCOD8275571 Si02
#       8
#    16  16  16  16  16  16  16  16
#     4  12  23  36  50  70 107 150 189 219 268 330
#     4  10  20  31  51  71 101 145 181 214 270 328
#     4   8  14  29  56  85 107 129 162 209 274 339
#     4   8  14  26  48  78 107 132 163 213 268 315
#     4  11  22  34  52  76 100 138 193 241 270 307
#     4  10  18  32  48  73 105 141 181 224 267 315
#     4   9  19  36  56  80 108 135 173 227 279 329
#     4   8  16  32  53  77 103 129 168 223 273 323
#
# _framework density 18.255797999999999
#
# number of rings (size 3 to 8) (size 9 to 14) (size 15 to 20)
#    0.000    2.500    2.500    2.250    0.000    2.250 
#    0.000    2.500    0.000    1.875    0.000    0.000 
#    0.000    6.000    0.000    0.000    0.000    0.000 
#
# Total GULP energy -793009.178444 kJ/mol
# GULP energy per Si atom -12390.768413 kJ/mol
# Density = 1.821425 g / cm^3
# Si number density = 18.255798 Si / 1000 Ang^3
#
#
#
# Elastic Constant Matrix: (Units=GPa)
#
#
# Indices 1 2 3 4 5 6 
#
# 1 127.3223 25.5647 48.7362 0.0000 0.0000 0.0000
# 2 25.5647 39.1933 32.6208 0.0000 0.0000 0.0000
# 3 48.7362 32.6208 93.8824 0.0000 0.0000 0.0000
# 4 0.0000 0.0000 0.0000 16.0670 0.0000 0.0000
# 5 0.0000 0.0000 0.0000 0.0000 25.3598 0.0000
# 6 0.0000 0.0000 0.0000 0.0000 0.0000 18.4069
#
#
#
# Elastic Compliance Matrix: (Units=1/GPa)
#
#
# Indices 1 2 3 4 5 6 
#
# 1 0.010066 -0.003118 -0.004142 0.000000 0.000000 0.000000
# 2 -0.003118 0.036861 -0.011189 0.000000 0.000000 0.000000
# 3 -0.004142 -0.011189 0.016690 0.000000 0.000000 0.000000
# 4 0.000000 0.000000 0.000000 0.062239 0.000000 0.000000
# 5 0.000000 0.000000 0.000000 0.000000 0.039433 0.000000
# 6 0.000000 0.000000 0.000000 0.000000 0.000000 0.054327
#
#
# Mechanical properties :
#
#
# Convention : Reuss Voigt Hill
#
# Bulk Modulus (GPa) = 37.42803 52.69351 45.06077
# Shear Modulus (GPa) = 18.83803 22.19848 20.51826
#
# Velocity S-wave (km/s) = 3.21579 3.49086 3.35614
# Velocity P-wave (km/s) = 5.85960 6.72122 6.30515
#
# Compressibility (1/GPa) = 0.02671794
#
# Stress axis : x y z
#
# Youngs Moduli (GPa) = 99.34862 27.12859 59.91764
#
# Poissons Ratio (x) = 0.08460 0.24816
# Poissons Ratio (y) = 0.30980 0.67044
# Poissons Ratio (z) = 0.41148 0.30355
#
# Static dielectric constant tensor:
#      x y z
#    x 3.683720 0.000000 0.000000 
#    y 0.000000 3.039520 0.000000 
#    z 0.000000 0.000000 3.627420 
# 
# 
# High freq. dielectric constant tensor:
#      x y z
#    x 1.715510 0.000000 0.000000 
#    y 0.000000 1.670440 0.000000 
#    z 0.000000 0.000000 1.694730 
# 
# From -- ./inp_files/43191.got.cif
#   From: 2010.03.12/outbox.cif.g09.slc.cpg/sg66_22_cif.got.tgz:43191.got - 2010.04.10 21:57:39.
