data_PCOD8275184
_publ_section_title
;
Structure prediction by ZEFSAII (Michael W. Deem and Ramdas Pophale) SiO2 
 PCOD8275184
Probable space group: C M M M
;
_chemical_formula_sum "Si O2"
_cell_formula_units_Z 80
_cell_length_a 19.236053
_cell_length_b 19.236070
_cell_length_c 14.377323
_cell_angle_alpha 90.000000
_cell_angle_beta 90.000000
_cell_angle_gamma 90.000000
_cell_volume 5319.984212
_symmetry_space_group_name_H-M "C M M M"
_symmetry_group_IT_number 65
_symmetry_cell_setting 'orthorhombic'
loop_
_space_group_symop_operation_xyz
x,y,z
-x,-y,z
x,-y,-z
-x,y,-z
-x,-y,-z
x,y,-z
-x,y,z
x,-y,z
1/2+x,1/2+y,z
1/2-x,1/2-y,z
1/2+x,1/2-y,-z
1/2-x,1/2+y,-z
1/2-x,1/2-y,-z
1/2+x,1/2+y,-z
1/2-x,1/2+y,z
1/2+x,1/2-y,z
loop_
_atom_site_type_symbol
_atom_site_label
_atom_site_fract_x
_atom_site_fract_y
_atom_site_fract_z
Si Si1 0.690677 0.421344 0.606920
Si Si2 0.311085 0.919371 0.750878
Si Si3 0.919371 0.688915 0.249122
Si Si4 0.421344 0.690677 0.606920
Si Si5 0.691887 0.808113 0.106969
O O1 0.710836 0.407956 0.500000
O O2 0.664484 0.500000 0.622426
O O3 0.758851 0.406059 0.666417
O O4 0.628572 0.371428 0.639616
O O5 0.385492 0.885492 0.722187
O O6 0.282243 0.879387 0.842843
O O7 0.321141 0.000000 0.774286
O O8 0.906059 0.741148 0.333584
O O9 0.879387 0.717757 0.157158
O O10 0.000000 0.678859 0.225714
O O11 0.407956 0.710836 0.500000
O O12 0.500000 0.664484 0.622426
O O13 0.750000 0.750000 0.118945
O O14 0.675850 0.824149 0.000000
#
# Coordination Sequence:
#
# PCOD8275184 Si02
#       5
#    16  16  16  16  16
#     4   9  17  29  46  69  96 125 158 195 235 281
#     4   9  19  32  47  68  93 123 157 195 233 276
#     4   9  19  32  47  68  93 123 157 195 233 276
#     4   9  17  29  46  69  96 125 158 195 235 281
#     4   9  18  32  50  70  92 119 152 192 236 280
#
# _framework density 15.037639
#
# number of rings (size 3 to 8) (size 9 to 14) (size 15 to 20)
#    1.200    1.800    0.000    1.200    0.000    2.400 
#    0.000    4.000    0.000    1.200    0.000    5.600 
#    0.000    0.000    0.000   37.200    0.000    0.400 
#
# Total GULP energy -495681.724495 kJ/mol
# GULP energy per Si atom -12392.043112 kJ/mol
# Density = 1.500341 g / cm^3
# Si number density = 15.037639 Si / 1000 Ang^3
#
#
#
# Elastic Constant Matrix: (Units=GPa)
#
#
# Indices 1 2 3 4 5 6 
#
# 1 104.6295 65.6423 55.1310 0.0000 0.0000 0.0000
# 2 65.6423 104.6296 55.1312 0.0000 0.0000 0.0000
# 3 55.1310 55.1312 85.1770 0.0000 0.0000 0.0000
# 4 0.0000 0.0000 0.0000 22.2714 0.0000 0.0000
# 5 0.0000 0.0000 0.0000 0.0000 22.2712 0.0000
# 6 0.0000 0.0000 0.0000 0.0000 0.0000 25.9495
#
#
#
# Elastic Compliance Matrix: (Units=1/GPa)
#
#
# Indices 1 2 3 4 5 6 
#
# 1 0.017880 -0.007769 -0.006544 0.000000 0.000000 0.000000
# 2 -0.007769 0.017880 -0.006544 0.000000 0.000000 0.000000
# 3 -0.006544 -0.006544 0.020212 0.000000 0.000000 0.000000
# 4 0.000000 0.000000 0.000000 0.044901 0.000000 0.000000
# 5 0.000000 0.000000 0.000000 0.000000 0.044901 0.000000
# 6 0.000000 0.000000 0.000000 0.000000 0.000000 0.038536
#
#
# Mechanical properties :
#
#
# Convention : Reuss Voigt Hill
#
# Bulk Modulus (GPa) = 70.14380 71.80504 70.97442
# Shear Modulus (GPa) = 21.66584 22.00050 21.83317
#
# Velocity S-wave (km/s) = 3.79987 3.82911 3.81452
# Velocity P-wave (km/s) = 8.12396 8.20995 8.16707
#
# Compressibility (1/GPa) = 0.01425643
#
# Stress axis : x y z
#
# Youngs Moduli (GPa) = 55.92809 55.92798 49.47596
#
# Poissons Ratio (x) = 0.43452 0.32378
# Poissons Ratio (y) = 0.43452 0.32378
# Poissons Ratio (z) = 0.36601 0.36601
#
# Static dielectric constant tensor:
#      x y z
#    x 2.836690 0.000000 0.000000 
#    y 0.000000 2.836700 0.000000 
#    z 0.000000 0.000000 2.845880 
# 
# 
# High freq. dielectric constant tensor:
#      x y z
#    x 1.572790 0.000000 0.000000 
#    y 0.000000 1.572790 0.000000 
#    z 0.000000 0.000000 1.570990 
# 
# From -- ./inp_files/42627.got.cif
#   From: 2010.03.12/outbox.cif.g09.slc.cpg/sg65_22_cif.got.tgz:42627.got - 2010.04.10 20:52:16.
