data_PCOD8275244
_publ_section_title
;
Structure prediction by ZEFSAII (Michael W. Deem and Ramdas Pophale) SiO2 
 PCOD8275244
Probable space group: C C C M
;
_chemical_formula_sum "Si O2"
_cell_formula_units_Z 128
_cell_length_a 20.681753
_cell_length_b 18.916034
_cell_length_c 19.518500
_cell_angle_alpha 90.000000
_cell_angle_beta 90.000000
_cell_angle_gamma 90.000000
_cell_volume 7635.963997
_symmetry_space_group_name_H-M "C C C M"
_symmetry_group_IT_number 66
_symmetry_cell_setting 'orthorhombic'
loop_
_space_group_symop_operation_xyz
x,y,z
-x,-y,z
x,-y,1/2-z
-x,y,1/2-z
-x,-y,-z
x,y,-z
-x,y,1/2+z
x,-y,1/2+z
1/2+x,1/2+y,z
1/2-x,1/2-y,z
1/2+x,1/2-y,1/2-z
1/2-x,1/2+y,1/2-z
1/2-x,1/2-y,-z
1/2+x,1/2+y,-z
1/2-x,1/2+y,1/2+z
1/2+x,1/2-y,1/2+z
loop_
_atom_site_type_symbol
_atom_site_label
_atom_site_fract_x
_atom_site_fract_y
_atom_site_fract_z
Si Si1 0.657921 0.243738 0.607800
Si Si2 0.240595 0.072620 0.782312
Si Si3 0.059853 0.284938 0.708183
Si Si4 0.813292 0.782899 0.742827
Si Si5 0.985452 0.291159 0.425811
Si Si6 0.256001 0.370366 0.926550
Si Si7 0.611273 0.073682 0.720435
Si Si8 0.444753 0.945589 0.575015
O O1 0.680556 0.240351 0.686082
O O2 0.580879 0.243476 0.601945
O O3 0.684960 0.314632 0.573679
O O4 0.688373 0.172911 0.575517
O O5 0.194755 0.133461 0.752110
O O6 0.236692 0.072932 0.865373
O O7 0.314248 0.084652 0.758839
O O8 0.214041 0.000000 0.750000
O O9 0.120693 0.232555 0.703690
O O10 0.072844 0.361190 0.744712
O O11 0.000000 0.250795 0.750000
O O12 0.042622 0.285311 0.628470
O O13 0.750000 0.750000 0.705162
O O14 0.003108 0.256181 0.500000
O O15 0.979854 0.373171 0.438638
O O16 0.258197 0.410513 0.000000
O O17 0.605580 0.067475 0.637530
O O18 0.584159 0.000000 0.750000
O O19 0.413515 0.968519 0.500000
O O20 0.500000 0.000000 0.598582
#
# Coordination Sequence:
#
# PCOD8275244 Si02
#       8
#    16  16  16  16  16  16  16  16
#     4  10  16  28  49  80 110 133 156 204 274 334
#     4  10  21  35  51  74 104 140 176 215 266 309
#     4  12  21  32  54  80 101 137 181 210 260 315
#     4  11  18  35  55  78 109 137 172 222 263 312
#     4  11  21  31  45  71 106 133 168 215 256 304
#     4  10  17  27  48  76 107 136 164 202 264 334
#     4  11  21  32  48  73 103 140 180 214 248 306
#     4  10  20  31  42  63 103 148 174 204 252 301
#
# _framework density 16.762781
#
# number of rings (size 3 to 8) (size 9 to 14) (size 15 to 20)
#    0.000    1.375    6.250    3.000    0.000    1.500 
#    0.000    0.000    0.000    2.250    0.000    0.000 
#    0.000    3.250    0.000    0.000    0.000    0.000 
#
# Total GULP energy -792950.528402 kJ/mol
# GULP energy per Si atom -12389.852006 kJ/mol
# Density = 1.672463 g / cm^3
# Si number density = 16.762781 Si / 1000 Ang^3
#
#
#
# Elastic Constant Matrix: (Units=GPa)
#
#
# Indices 1 2 3 4 5 6 
#
# 1 90.2508 38.3819 39.0041 0.0000 0.0000 0.0000
# 2 38.3819 66.4846 41.0107 0.0000 0.0000 0.0000
# 3 39.0041 41.0107 107.1815 0.0000 0.0000 0.0000
# 4 0.0000 0.0000 0.0000 13.7817 0.0000 0.0000
# 5 0.0000 0.0000 0.0000 0.0000 5.0572 0.0000
# 6 0.0000 0.0000 0.0000 0.0000 0.0000 16.8343
#
#
#
# Elastic Compliance Matrix: (Units=1/GPa)
#
#
# Indices 1 2 3 4 5 6 
#
# 1 0.015332 -0.007081 -0.002870 0.000000 0.000000 0.000000
# 2 -0.007081 0.022958 -0.006208 0.000000 0.000000 0.000000
# 3 -0.002870 -0.006208 0.012750 0.000000 0.000000 0.000000
# 4 0.000000 0.000000 0.000000 0.072560 0.000000 0.000000
# 5 0.000000 0.000000 0.000000 0.000000 0.197739 0.000000
# 6 0.000000 0.000000 0.000000 0.000000 0.000000 0.059403
#
#
# Mechanical properties :
#
#
# Convention : Reuss Voigt Hill
#
# Bulk Modulus (GPa) = 53.41161 55.63450 54.52305
# Shear Modulus (GPa) = 11.92467 16.83597 14.38032
#
# Velocity S-wave (km/s) = 2.67006 3.17261 2.93212
# Velocity P-wave (km/s) = 6.43724 6.83242 6.63777
#
# Compressibility (1/GPa) = 0.01872252
#
# Stress axis : x y z
#
# Youngs Moduli (GPa) = 65.22322 43.55777 78.43370
#
# Poissons Ratio (x) = 0.30843 0.22511
# Poissons Ratio (y) = 0.46183 0.48689
# Poissons Ratio (z) = 0.18720 0.27039
#
# Static dielectric constant tensor:
#      x y z
#    x 3.222140 0.000000 0.000000 
#    y 0.000000 3.024850 0.000000 
#    z 0.000000 0.000000 3.490250 
# 
# 
# High freq. dielectric constant tensor:
#      x y z
#    x 1.631940 0.000000 0.000000 
#    y 0.000000 1.611260 0.000000 
#    z 0.000000 0.000000 1.648820 
# 
# From -- ./inp_files/52056.got.cif
#   From: 2010.03.12/outbox.cif.g09.slc.cpg/sg66_27_cif.got.tgz:52056.got - 2010.04.10 21:57:39.
