data_PCOD8275185
_publ_section_title
;
Structure prediction by ZEFSAII (Michael W. Deem and Ramdas Pophale) SiO2 
 PCOD8275185
Probable space group: C M M M
;
_chemical_formula_sum "Si O2"
_cell_formula_units_Z 64
_cell_length_a 21.054677
_cell_length_b 17.565496
_cell_length_c 9.343978
_cell_angle_alpha 90.000000
_cell_angle_beta 90.000000
_cell_angle_gamma 90.000000
_cell_volume 3455.737996
_symmetry_space_group_name_H-M "C M M M"
_symmetry_group_IT_number 65
_symmetry_cell_setting 'orthorhombic'
loop_
_space_group_symop_operation_xyz
x,y,z
-x,-y,z
x,-y,-z
-x,y,-z
-x,-y,-z
x,y,-z
-x,y,z
x,-y,z
1/2+x,1/2+y,z
1/2-x,1/2-y,z
1/2+x,1/2-y,-z
1/2-x,1/2+y,-z
1/2-x,1/2-y,-z
1/2+x,1/2+y,-z
1/2-x,1/2+y,z
1/2+x,1/2-y,z
loop_
_atom_site_type_symbol
_atom_site_label
_atom_site_fract_x
_atom_site_fract_y
_atom_site_fract_z
Si Si1 0.574916 0.000000 0.661672
Si Si2 0.117742 0.084960 0.837090
Si Si3 0.500000 0.590349 0.342138
Si Si4 0.818083 0.235020 0.835070
Si Si5 0.073469 0.650416 0.169412
O O1 0.596703 0.074757 0.748383
O O2 0.500000 0.000000 0.652056
O O3 0.603721 0.000000 0.500000
O O4 0.061591 0.118183 0.740969
O O5 0.174320 0.144231 0.815551
O O6 0.140033 0.000000 0.791186
O O7 0.093168 0.084375 0.000000
O O8 0.500000 0.500000 0.347539
O O9 0.500000 0.626349 0.500000
O O10 0.750000 0.250000 0.758462
O O11 0.878528 0.282906 0.775609
O O12 0.812956 0.258341 0.000000
O O13 0.000000 0.672048 0.208065
O O14 0.078907 0.635836 0.000000
#
# Coordination Sequence:
#
# PCOD8275185 Si02
#       5
#     8  16   8  16  16
#     4   9  17  31  51  75 103 129 162 211 256 298
#     4   9  17  30  50  74 101 133 168 206 249 296
#     4   9  17  29  47  73 101 128 163 206 249 293
#     4   9  18  32  49  75 108 134 165 210 253 295
#     4   9  17  30  51  76 101 132 167 204 249 301
#
# _framework density 18.519922000000001
#
# number of rings (size 3 to 8) (size 9 to 14) (size 15 to 20)
#    0.000    3.000    0.000    0.750    1.750    3.000 
#    2.250    1.250    0.000    3.000    0.000    0.000 
#    0.000    0.000    0.000    0.000    0.000    0.000 
#
# Total GULP energy -396484.744546 kJ/mol
# GULP energy per Si atom -12390.148267 kJ/mol
# Density = 1.847777 g / cm^3
# Si number density = 18.519922 Si / 1000 Ang^3
#
#
#
# Elastic Constant Matrix: (Units=GPa)
#
#
# Indices 1 2 3 4 5 6 
#
# 1 120.7065 66.8675 29.3912 0.0000 0.0000 0.0000
# 2 66.8675 121.3773 31.0880 0.0000 0.0000 0.0000
# 3 29.3912 31.0880 55.7391 0.0000 0.0000 0.0000
# 4 0.0000 0.0000 0.0000 10.6086 0.0000 0.0000
# 5 0.0000 0.0000 0.0000 0.0000 52.5539 0.0000
# 6 0.0000 0.0000 0.0000 0.0000 0.0000 21.5242
#
#
#
# Elastic Compliance Matrix: (Units=1/GPa)
#
#
# Indices 1 2 3 4 5 6 
#
# 1 0.012388 -0.006010 -0.003180 0.000000 0.000000 0.000000
# 2 -0.006010 0.012528 -0.003818 0.000000 0.000000 0.000000
# 3 -0.003180 -0.003818 0.021747 0.000000 0.000000 0.000000
# 4 0.000000 0.000000 0.000000 0.094264 0.000000 0.000000
# 5 0.000000 0.000000 0.000000 0.000000 0.019028 0.000000
# 6 0.000000 0.000000 0.000000 0.000000 0.000000 0.046459
#
#
# Mechanical properties :
#
#
# Convention : Reuss Voigt Hill
#
# Bulk Modulus (GPa) = 48.43497 61.39067 54.91282
# Shear Modulus (GPa) = 20.89309 28.30241 24.59775
#
# Velocity S-wave (km/s) = 3.36243 3.91348 3.64837
# Velocity P-wave (km/s) = 6.42528 7.32399 6.88931
#
# Compressibility (1/GPa) = 0.02064624
#
# Stress axis : x y z
#
# Youngs Moduli (GPa) = 80.72037 79.82244 45.98308
#
# Poissons Ratio (x) = 0.47976 0.14624
# Poissons Ratio (y) = 0.48516 0.17556
# Poissons Ratio (z) = 0.25671 0.30476
#
# Static dielectric constant tensor:
#      x y z
#    x 3.397980 0.000000 0.000000 
#    y 0.000000 3.423350 0.000000 
#    z 0.000000 0.000000 3.356360 
# 
# 
# High freq. dielectric constant tensor:
#      x y z
#    x 1.696980 0.000000 0.000000 
#    y 0.000000 1.721720 0.000000 
#    z 0.000000 0.000000 1.684850 
# 
# From -- ./inp_files/8819.got.cif
#   From: 2010.03.12/outbox.cif.g09.slc.cpg/sg65_5_cif.got.tgz:8819.got - 2010.04.10 20:52:16.
