data_PCOD8275258
_publ_section_title
;
Structure prediction by ZEFSAII (Michael W. Deem and Ramdas Pophale) SiO2 
 PCOD8275258
Probable space group: C C C M
;
_chemical_formula_sum "Si O2"
_cell_formula_units_Z 88
_cell_length_a 25.302880
_cell_length_b 20.122667
_cell_length_c 8.967964
_cell_angle_alpha 90.000000
_cell_angle_beta 90.000000
_cell_angle_gamma 90.000000
_cell_volume 4566.141360
_symmetry_space_group_name_H-M "C C C M"
_symmetry_group_IT_number 66
_symmetry_cell_setting 'orthorhombic'
loop_
_space_group_symop_operation_xyz
x,y,z
-x,-y,z
x,-y,1/2-z
-x,y,1/2-z
-x,-y,-z
x,y,-z
-x,y,1/2+z
x,-y,1/2+z
1/2+x,1/2+y,z
1/2-x,1/2-y,z
1/2+x,1/2-y,1/2-z
1/2-x,1/2+y,1/2-z
1/2-x,1/2-y,-z
1/2+x,1/2+y,-z
1/2-x,1/2+y,1/2+z
1/2+x,1/2-y,1/2+z
loop_
_atom_site_type_symbol
_atom_site_label
_atom_site_fract_x
_atom_site_fract_y
_atom_site_fract_z
Si Si1 0.360358 0.704953 0.665278
Si Si2 0.226610 0.393082 0.664182
Si Si3 0.891219 0.429556 0.822539
Si Si4 0.750000 0.250000 0.753402
Si Si5 0.172552 0.934139 0.323547
Si Si6 0.054847 0.307409 0.820358
O O1 0.381945 0.694610 0.500000
O O2 0.301556 0.735540 0.654003
O O3 0.358025 0.631295 0.740325
O O4 0.401502 0.754895 0.743240
O O5 0.235308 0.424332 0.500000
O O6 0.167766 0.407099 0.721755
O O7 0.236897 0.314258 0.647527
O O8 0.265823 0.428487 0.779594
O O9 0.903916 0.500000 0.750000
O O10 0.931982 0.379013 0.747298
O O11 0.899738 0.431310 0.000000
O O12 0.168249 0.938784 0.500000
O O13 0.147270 0.000000 0.250000
O O14 0.000000 0.283012 0.750000
O O15 0.053018 0.311173 0.000000
#
# Coordination Sequence:
#
# PCOD8275258 Si02
#       6
#    16  16  16   8  16  16
#     4   9  19  34  57  85 115 148 186 230 282 339
#     4  10  20  32  51  81 118 154 189 230 278 333
#     4  11  23  39  57  83 113 151 193 238 285 334
#     4  10  16  32  54  86 115 148 185 230 285 332
#     4  10  20  34  53  81 116 154 190 227 275 337
#     4  11  23  42  63  86 112 147 189 239 286 336
#
# _framework density 19.272290000000002
#
# number of rings (size 3 to 8) (size 9 to 14) (size 15 to 20)
#    0.000    1.818    1.818    2.727    0.000    4.000 
#    0.000    4.545    0.000    0.545    0.000    3.818 
#    0.000    0.000    0.000    0.000    0.000    0.000 
#
# Total GULP energy -545385.130416 kJ/mol
# GULP energy per Si atom -12395.116600 kJ/mol
# Density = 1.922843 g / cm^3
# Si number density = 19.272290 Si / 1000 Ang^3
#
#
#
# Elastic Constant Matrix: (Units=GPa)
#
#
# Indices 1 2 3 4 5 6 
#
# 1 104.2997 59.6228 27.1002 0.0000 0.0000 0.0000
# 2 59.6228 150.4672 37.3733 0.0000 0.0000 0.0000
# 3 27.1002 37.3733 82.9990 0.0000 0.0000 0.0000
# 4 0.0000 0.0000 0.0000 25.0763 0.0000 0.0000
# 5 0.0000 0.0000 0.0000 0.0000 21.1159 0.0000
# 6 0.0000 0.0000 0.0000 0.0000 0.0000 21.9515
#
#
#
# Elastic Compliance Matrix: (Units=1/GPa)
#
#
# Indices 1 2 3 4 5 6 
#
# 1 0.012719 -0.004513 -0.002121 0.000000 0.000000 0.000000
# 2 -0.004513 0.009084 -0.002617 0.000000 0.000000 0.000000
# 3 -0.002121 -0.002617 0.013919 0.000000 0.000000 0.000000
# 4 0.000000 0.000000 0.000000 0.039878 0.000000 0.000000
# 5 0.000000 0.000000 0.000000 0.000000 0.047358 0.000000
# 6 0.000000 0.000000 0.000000 0.000000 0.000000 0.045555
#
#
# Mechanical properties :
#
#
# Convention : Reuss Voigt Hill
#
# Bulk Modulus (GPa) = 58.06945 65.10652 61.58798
# Shear Modulus (GPa) = 25.93972 27.87337 26.90655
#
# Velocity S-wave (km/s) = 3.67271 3.80714 3.74053
# Velocity P-wave (km/s) = 6.94129 7.29257 7.11910
#
# Compressibility (1/GPa) = 0.01722076
#
# Stress axis : x y z
#
# Youngs Moduli (GPa) = 78.62480 110.08035 71.84358
#
# Poissons Ratio (x) = 0.49680 0.15235
# Poissons Ratio (y) = 0.35484 0.18801
# Poissons Ratio (z) = 0.16673 0.28808
#
# Static dielectric constant tensor:
#      x y z
#    x 3.383300 0.000000 0.000000 
#    y 0.000000 3.867700 0.000000 
#    z 0.000000 0.000000 3.309140 
# 
# 
# High freq. dielectric constant tensor:
#      x y z
#    x 1.721210 0.000000 0.000000 
#    y 0.000000 1.765590 0.000000 
#    z 0.000000 0.000000 1.740140 
# 
# From -- ./inp_files/8984.got.cif
#   From: 2010.03.12/outbox.cif.g09.slc.cpg/sg66_5_cif.got.tgz:8984.got - 2010.04.10 21:57:39.
