data_PCOD8275431
_publ_section_title
;
Structure prediction by ZEFSAII (Michael W. Deem and Ramdas Pophale) SiO2 
 PCOD8275431
Probable space group: C C C M
;
_chemical_formula_sum "Si O2"
_cell_formula_units_Z 96
_cell_length_a 26.208991
_cell_length_b 28.592311
_cell_length_c 8.896375
_cell_angle_alpha 90.000000
_cell_angle_beta 90.000000
_cell_angle_gamma 90.000000
_cell_volume 6666.726546
_symmetry_space_group_name_H-M "C C C M"
_symmetry_group_IT_number 66
_symmetry_cell_setting 'orthorhombic'
loop_
_space_group_symop_operation_xyz
x,y,z
-x,-y,z
x,-y,1/2-z
-x,y,1/2-z
-x,-y,-z
x,y,-z
-x,y,1/2+z
x,-y,1/2+z
1/2+x,1/2+y,z
1/2-x,1/2-y,z
1/2+x,1/2-y,1/2-z
1/2-x,1/2+y,1/2-z
1/2-x,1/2-y,-z
1/2+x,1/2+y,-z
1/2-x,1/2+y,1/2+z
1/2+x,1/2-y,1/2+z
loop_
_atom_site_type_symbol
_atom_site_label
_atom_site_fract_x
_atom_site_fract_y
_atom_site_fract_z
Si Si1 0.787476 0.546100 0.324092
Si Si2 0.553501 0.143533 0.676963
Si Si3 0.603242 0.953056 0.177559
Si Si4 0.247293 0.354155 0.326937
Si Si5 0.644304 0.197667 0.823670
Si Si6 0.197327 0.777602 0.330493
O O1 0.761873 0.500000 0.250000
O O2 0.796965 0.537880 0.500000
O O3 0.841302 0.556096 0.246315
O O4 0.750475 0.590273 0.296417
O O5 0.500000 0.156681 0.750000
O O6 0.549962 0.149895 0.500000
O O7 0.567615 0.090394 0.721090
O O8 0.594900 0.179500 0.738558
O O9 0.579057 0.000000 0.250000
O O10 0.608395 0.959388 0.000000
O O11 0.256784 0.341710 0.500000
O O12 0.191538 0.335617 0.278937
O O13 0.292439 0.329678 0.232978
O O14 0.655488 0.250611 0.769180
O O15 0.633677 0.197523 0.000000
O O16 0.176969 0.781485 0.500000
O O17 0.250000 0.750000 0.320962
#
# Coordination Sequence:
#
# PCOD8275431 Si02
#       6
#    16  16  16  16  16  16
#     4  10  18  28  42  61  83 109 139 170 207 250
#     4  11  23  35  47  62  79 103 136 174 217 260
#     4  10  20  32  46  60  76 100 133 174 217 259
#     4   9  17  28  43  62  83 108 135 165 204 248
#     4  10  18  31  47  61  82 106 131 167 209 252
#     4   9  17  27  42  64  85 104 130 163 201 244
#
# _framework density 14.399870999999999
#
# number of rings (size 3 to 8) (size 9 to 14) (size 15 to 20)
#    0.000    2.167    1.667    3.500    0.000    6.333 
#    0.000    1.667    0.000    0.000    0.000    0.000 
#    0.000    0.000    0.000    0.000    0.000    0.833 
#
# Total GULP energy -595183.096587 kJ/mol
# GULP energy per Si atom -12399.647846 kJ/mol
# Density = 1.436710 g / cm^3
# Si number density = 14.399871 Si / 1000 Ang^3
#
#
#
# Elastic Constant Matrix: (Units=GPa)
#
#
# Indices 1 2 3 4 5 6 
#
# 1 47.6342 45.2480 29.6152 0.0000 0.0000 0.0000
# 2 45.2480 92.2375 42.3865 0.0000 0.0000 0.0000
# 3 29.6152 42.3865 74.0587 0.0000 0.0000 0.0000
# 4 0.0000 0.0000 0.0000 23.9852 0.0000 0.0000
# 5 0.0000 0.0000 0.0000 0.0000 18.6642 0.0000
# 6 0.0000 0.0000 0.0000 0.0000 0.0000 16.7093
#
#
#
# Elastic Compliance Matrix: (Units=1/GPa)
#
#
# Indices 1 2 3 4 5 6 
#
# 1 0.041647 -0.017337 -0.006732 0.000000 0.000000 0.000000
# 2 -0.017337 0.021928 -0.005617 0.000000 0.000000 0.000000
# 3 -0.006732 -0.005617 0.019410 0.000000 0.000000 0.000000
# 4 0.000000 0.000000 0.000000 0.041692 0.000000 0.000000
# 5 0.000000 0.000000 0.000000 0.000000 0.053578 0.000000
# 6 0.000000 0.000000 0.000000 0.000000 0.000000 0.059847
#
#
# Mechanical properties :
#
#
# Convention : Reuss Voigt Hill
#
# Bulk Modulus (GPa) = 42.34976 49.82553 46.08765
# Shear Modulus (GPa) = 16.37498 18.31713 17.34606
#
# Velocity S-wave (km/s) = 3.37584 3.57043 3.47450
# Velocity P-wave (km/s) = 6.68347 7.18845 6.94055
#
# Compressibility (1/GPa) = 0.02361288
#
# Stress axis : x y z
#
# Youngs Moduli (GPa) = 24.01142 45.60453 51.52087
#
# Poissons Ratio (x) = 0.79064 0.34681
# Poissons Ratio (y) = 0.41628 0.28940
# Poissons Ratio (z) = 0.16163 0.25617
#
# Static dielectric constant tensor:
#      x y z
#    x 2.431980 0.000000 0.000000 
#    y 0.000000 2.813610 0.000000 
#    z 0.000000 0.000000 2.947030 
# 
# 
# High freq. dielectric constant tensor:
#      x y z
#    x 1.493480 0.000000 0.000000 
#    y 0.000000 1.546750 0.000000 
#    z 0.000000 0.000000 1.570020 
# 
# From -- ./inp_files/9294.got.cif
#   From: 2010.03.12/outbox.cif.g09.slc.cpg/sg66_5_cif.got.tgz:9294.got - 2010.04.10 21:57:39.
