data_PCOD8275193
_publ_section_title
;
Structure prediction by ZEFSAII (Michael W. Deem and Ramdas Pophale) SiO2 
 PCOD8275193
Probable space group: C M M M
;
_chemical_formula_sum "Si O2"
_cell_formula_units_Z 44
_cell_length_a 27.000000
_cell_length_b 9.000000
_cell_length_c 21.000000
_cell_angle_alpha 90.000000
_cell_angle_beta 90.000000
_cell_angle_gamma 90.000000
_cell_volume 5103.000000
_symmetry_space_group_name_H-M "C M M M"
_symmetry_group_IT_number 65
_symmetry_cell_setting 'orthorhombic'
loop_
_space_group_symop_operation_xyz
x,y,z
-x,-y,z
x,-y,-z
-x,y,-z
-x,-y,-z
x,y,-z
-x,y,z
x,-y,z
1/2+x,1/2+y,z
1/2-x,1/2-y,z
1/2+x,1/2-y,-z
1/2-x,1/2+y,-z
1/2-x,1/2-y,-z
1/2+x,1/2+y,-z
1/2-x,1/2+y,z
1/2+x,1/2-y,z
loop_
_atom_site_type_symbol
_atom_site_label
_atom_site_fract_x
_atom_site_fract_y
_atom_site_fract_z
Si Si1 0.199628 0.830413 0.130496
Si Si2 0.556705 0.171725 0.188865
Si Si3 0.695704 0.320112 0.500000
Si Si4 0.856222 0.826542 0.258543
Si Si5 0.401548 0.326351 0.072702
Si Si6 0.196143 0.321422 0.626668
O O1 0.250000 0.750000 0.112641
O O2 0.184327 0.802875 0.203531
O O3 0.155062 0.774860 0.085145
O O4 0.210670 0.000000 0.116836
O O5 0.500000 0.189658 0.210591
O O6 0.590130 0.270688 0.235698
O O7 0.561891 0.230859 0.116600
O O8 0.573410 0.000000 0.191746
O O9 0.695823 0.500000 0.500000
O O10 0.750000 0.250000 0.500000
O O11 0.670883 0.252598 0.436298
O O12 0.840127 0.722966 0.316612
O O13 0.859698 0.000000 0.278029
O O14 0.406887 0.500000 0.091022
O O15 0.416253 0.296331 0.000000
O O16 0.200584 0.500000 0.620524
O O17 0.250000 0.250000 0.639056
#
# Coordination Sequence:
#
# PCOD8275193 Si02
#       6
#    16  16   8  16  16  16
#     4   9  18  30  45  66  93 124 158 196 235 279
#     4  10  21  36  53  74  98 121 151 199 255 304
#     4  10  18  30  46  68 101 140 179 212 242 280
#     4  10  20  34  51  72  97 128 166 204 244 293
#     4   9  19  35  51  68  93 125 161 198 238 292
#     4  11  20  31  48  73 106 141 174 207 245 286
#
# _framework density 8.6223790000000005
#
# number of rings (size 3 to 8) (size 9 to 14) (size 15 to 20)
#    0.000    2.182    0.000    6.273    0.000    7.636 
#    0.000    1.818    0.000    0.000    0.000    0.636 
#    0.000    5.091    0.000    0.000    0.000    0.000 
#
# Total GULP energy -545514.051403 kJ/mol
# GULP energy per Si atom -12398.046623 kJ/mol
# Density = 0.860275 g / cm^3
# Si number density = 8.622379 Si / 1000 Ang^3
#
#
#
# Elastic Constant Matrix: (Units=GPa)
#
#
# Indices 1 2 3 4 5 6 
#
# 1 64.8271 29.4264 18.0244 0.0000 0.0000 0.0000
# 2 29.4264 120.8033 35.5534 0.0000 0.0000 0.0000
# 3 18.0244 35.5534 84.0002 0.0000 0.0000 0.0000
# 4 0.0000 0.0000 0.0000 31.5557 0.0000 0.0000
# 5 0.0000 0.0000 0.0000 0.0000 12.0047 0.0000
# 6 0.0000 0.0000 0.0000 0.0000 0.0000 29.4328
#
#
#
# Elastic Compliance Matrix: (Units=1/GPa)
#
#
# Indices 1 2 3 4 5 6 
#
# 1 0.017710 -0.003650 -0.002255 0.000000 0.000000 0.000000
# 2 -0.003650 0.010208 -0.003537 0.000000 0.000000 0.000000
# 3 -0.002255 -0.003537 0.013886 0.000000 0.000000 0.000000
# 4 0.000000 0.000000 0.000000 0.031690 0.000000 0.000000
# 5 0.000000 0.000000 0.000000 0.000000 0.083301 0.000000
# 6 0.000000 0.000000 0.000000 0.000000 0.000000 0.033976
#
#
# Mechanical properties :
#
#
# Convention : Reuss Voigt Hill
#
# Bulk Modulus (GPa) = 43.63342 48.40432 46.01887
# Shear Modulus (GPa) = 23.01024 27.04039 25.02532
#
# Velocity S-wave (km/s) = 3.65681 3.96414 3.81357
# Velocity P-wave (km/s) = 6.57169 7.00589 6.79226
#
# Compressibility (1/GPa) = 0.02291822
#
# Stress axis : x y z
#
# Youngs Moduli (GPa) = 56.46673 97.96098 72.01578
#
# Poissons Ratio (x) = 0.35757 0.16240
# Poissons Ratio (y) = 0.20611 0.25475
# Poissons Ratio (z) = 0.12734 0.34653
#
# Static dielectric constant tensor:
#      x y z
#    x 2.984970 0.000000 0.000000 
#    y 0.000000 3.388160 0.000000 
#    z 0.000000 0.000000 3.517440 
# 
# 
# High freq. dielectric constant tensor:
#      x y z
#    x 1.640390 0.000000 0.000000 
#    y 0.000000 1.684270 0.000000 
#    z 0.000000 0.000000 1.663660 
# 
# From -- ./inp_files/65769.got.cif
#   From: 2010.03.12/outbox.ucp.g09.slc.cvg/sg65_33_cif.got.tgz:65769.got - 2010.05.04 19:44:54.
