data_PCOD8275066
_publ_section_title
;
Structure prediction by ZEFSAII (Michael W. Deem and Ramdas Pophale) SiO2 
 PCOD8275066
Probable space group: C M M M
;
_chemical_formula_sum "Si O2"
_cell_formula_units_Z 104
_cell_length_a 17.839764
_cell_length_b 34.945287
_cell_length_c 9.381328
_cell_angle_alpha 90.000000
_cell_angle_beta 90.000000
_cell_angle_gamma 90.000000
_cell_volume 5848.466909
_symmetry_space_group_name_H-M "C M M M"
_symmetry_group_IT_number 65
_symmetry_cell_setting 'orthorhombic'
loop_
_space_group_symop_operation_xyz
x,y,z
-x,-y,z
x,-y,-z
-x,y,-z
-x,-y,-z
x,y,-z
-x,y,z
x,-y,z
1/2+x,1/2+y,z
1/2-x,1/2-y,z
1/2+x,1/2-y,-z
1/2-x,1/2+y,-z
1/2-x,1/2-y,-z
1/2+x,1/2+y,-z
1/2-x,1/2+y,z
1/2+x,1/2-y,z
loop_
_atom_site_type_symbol
_atom_site_label
_atom_site_fract_x
_atom_site_fract_y
_atom_site_fract_z
Si Si1 0.083200 0.741831 0.667776
Si Si2 0.872965 0.898277 0.167165
Si Si3 0.307366 0.823037 0.336066
Si Si4 0.798401 0.602173 0.167476
Si Si5 0.632847 0.322627 0.663883
Si Si6 0.082610 0.542416 0.830835
Si Si7 0.500000 0.456561 0.831235
O O1 0.096223 0.744990 0.500000
O O2 0.144088 0.712015 0.728810
O O3 0.093242 0.784838 0.728179
O O4 0.000000 0.727073 0.706610
O O5 0.787218 0.909004 0.204797
O O6 0.894954 0.859169 0.246936
O O7 0.926042 0.933164 0.219233
O O8 0.883985 0.890820 0.000000
O O9 0.329278 0.830948 0.500000
O O10 0.326875 0.859941 0.244228
O O11 0.220426 0.813606 0.320052
O O12 0.851665 0.569048 0.229492
O O13 0.808402 0.608467 0.000000
O O14 0.610999 0.330615 0.500000
O O15 0.095437 0.500000 0.768442
O O16 0.000000 0.557501 0.784664
O O17 0.087638 0.541039 0.000000
O O18 0.500000 0.500000 0.766730
O O19 0.500000 0.459906 0.000000
#
# Coordination Sequence:
#
# PCOD8275066 Si02
#       7
#    16  16  16  16  16  16   8
#     4   9  17  28  44  67  90 114 151 192 223 257
#     4   9  18  31  47  68  92 117 148 185 224 267
#     4   9  17  30  46  64  89 119 149 181 222 269
#     4   9  17  29  46  68  91 116 148 185 223 265
#     4   9  17  30  49  68  87 116 151 186 223 265
#     4   8  14  25  42  65  90 114 143 181 221 258
#     4   9  18  32  49  69  95 125 153 185 229 277
#
# _framework density 17.782437999999999
#
# number of rings (size 3 to 8) (size 9 to 14) (size 15 to 20)
#    0.000    3.154    0.000    0.923    1.077    3.077 
#    0.000    3.846    0.000    6.000    0.000    5.385 
#    0.000    0.000    0.000    0.000    0.000    0.000 
#
# Total GULP energy -644540.052027 kJ/mol
# GULP energy per Si atom -12395.001001 kJ/mol
# Density = 1.774196 g / cm^3
# Si number density = 17.782438 Si / 1000 Ang^3
#
#
#
# Elastic Constant Matrix: (Units=GPa)
#
#
# Indices 1 2 3 4 5 6 
#
# 1 98.3054 83.5965 20.9246 0.0000 0.0000 0.0000
# 2 83.5965 151.3811 30.9466 0.0000 0.0000 0.0000
# 3 20.9246 30.9466 24.3260 0.0000 0.0000 0.0000
# 4 0.0000 0.0000 0.0000 -47.1857 0.0000 0.0000
# 5 0.0000 0.0000 0.0000 0.0000 13.2456 0.0000
# 6 0.0000 0.0000 0.0000 0.0000 0.0000 36.9645
#
#
#
# Elastic Compliance Matrix: (Units=1/GPa)
#
#
# Indices 1 2 3 4 5 6 
#
# 1 0.019484 -0.009911 -0.004151 0.000000 0.000000 0.000000
# 2 -0.009911 0.013969 -0.009246 0.000000 0.000000 0.000000
# 3 -0.004151 -0.009246 0.056441 0.000000 0.000000 0.000000
# 4 0.000000 0.000000 0.000000 -0.021193 0.000000 0.000000
# 5 0.000000 0.000000 0.000000 0.000000 0.075496 0.000000
# 6 0.000000 0.000000 0.000000 0.000000 0.000000 0.027053
#
#
# Mechanical properties :
#
#
# Convention : Reuss Voigt Hill
#
# Bulk Modulus (GPa) = 23.10624 60.54975 41.82800
# Shear Modulus (GPa) = 21.52454 9.84122 15.68288
#
# Velocity S-wave (km/s) = 3.48291 2.35505 2.97295
# Velocity P-wave (km/s) = 5.40336 6.44354 5.94624
#
# Compressibility (1/GPa) = 0.04327835
#
# Stress axis : x y z
#
# Youngs Moduli (GPa) = 51.32422 71.58710 17.71751
#
# Poissons Ratio (x) = 0.70949 0.07355
# Poissons Ratio (y) = 0.50867 0.16381
# Poissons Ratio (z) = 0.21306 0.66188
#
# Static dielectric constant tensor:
#      x y z
#    x 3.448530 0.000000 0.000000 
#    y 0.000000 3.525560 0.000000 
#    z 0.000000 0.000000 2.894250 
# 
# 
# High freq. dielectric constant tensor:
#      x y z
#    x 1.697560 0.000000 0.000000 
#    y 0.000000 1.690910 0.000000 
#    z 0.000000 0.000000 1.636660 
# 
# From -- ./inp_files/27726.got.cif
#   From: 2010.03.12/outbox.cif.g09.slc.cpg/sg65_14_cif.got.tgz:27726.got - 2010.04.10 20:52:16.
