data_PCOD8275871
_publ_section_title
;
Structure prediction by ZEFSAII (Michael W. Deem and Ramdas Pophale) SiO2 
 PCOD8275871
Probable space group: C C C M
;
_chemical_formula_sum "Si O2"
_cell_formula_units_Z 96
_cell_length_a 25.848007
_cell_length_b 10.984670
_cell_length_c 19.141854
_cell_angle_alpha 90.000000
_cell_angle_beta 90.000000
_cell_angle_gamma 90.000000
_cell_volume 5434.981579
_symmetry_space_group_name_H-M "C C C M"
_symmetry_group_IT_number 66
_symmetry_cell_setting 'orthorhombic'
loop_
_space_group_symop_operation_xyz
x,y,z
-x,-y,z
x,-y,1/2-z
-x,y,1/2-z
-x,-y,-z
x,y,-z
-x,y,1/2+z
x,-y,1/2+z
1/2+x,1/2+y,z
1/2-x,1/2-y,z
1/2+x,1/2-y,1/2-z
1/2-x,1/2+y,1/2-z
1/2-x,1/2-y,-z
1/2+x,1/2+y,-z
1/2-x,1/2+y,1/2+z
1/2+x,1/2-y,1/2+z
loop_
_atom_site_type_symbol
_atom_site_label
_atom_site_fract_x
_atom_site_fract_y
_atom_site_fract_z
Si Si1 0.621482 0.747610 0.077586
Si Si2 0.686844 0.571500 0.850962
Si Si3 0.357794 0.076653 0.320182
Si Si4 0.210712 0.439335 0.922522
Si Si5 0.940732 0.524763 0.917981
Si Si6 0.802822 0.813843 0.703451
O O1 0.631308 0.629173 0.125868
O O2 0.674709 0.821872 0.081523
O O3 0.574705 0.836067 0.102874
O O4 0.608995 0.701175 0.000000
O O5 0.730307 0.599234 0.909026
O O6 0.706105 0.634365 0.780440
O O7 0.680283 0.426044 0.845518
O O8 0.349557 0.216706 0.298727
O O9 0.366388 0.000000 0.250000
O O10 0.306885 0.033338 0.362362
O O11 0.407371 0.067462 0.371069
O O12 0.206272 0.498098 0.000000
O O13 0.000000 0.500000 0.900664
O O14 0.927921 0.503108 0.000000
O O15 0.750000 0.750000 0.677927
#
# Coordination Sequence:
#
# PCOD8275871 Si02
#       6
#    16  16  16  16  16  16
#     4   9  17  30  50  74  97 128 170 215 261 309
#     4  11  20  31  48  69 105 145 183 215 254 314
#     4  11  20  34  54  78 107 138 176 222 271 321
#     4  10  19  32  50  73 102 139 183 222 257 305
#     4   9  19  37  60  82 103 129 168 225 282 322
#     4  11  21  32  46  72 105 147 182 212 261 316
#
# _framework density 17.663354000000002
#
# number of rings (size 3 to 8) (size 9 to 14) (size 15 to 20)
#    0.000    1.833    1.667    6.500    0.000    1.667 
#    0.000    4.167    0.000    1.000    0.000    5.833 
#    0.000    0.000    0.000    0.000    0.000    0.000 
#
# Total GULP energy -595009.130635 kJ/mol
# GULP energy per Si atom -12396.023555 kJ/mol
# Density = 1.762315 g / cm^3
# Si number density = 17.663354 Si / 1000 Ang^3
#
#
#
# Elastic Constant Matrix: (Units=GPa)
#
#
# Indices 1 2 3 4 5 6 
#
# 1 99.2618 53.0140 32.9526 0.0000 0.0000 0.0000
# 2 53.0140 121.5310 38.3654 0.0000 0.0000 0.0000
# 3 32.9526 38.3654 77.4946 0.0000 0.0000 0.0000
# 4 0.0000 0.0000 0.0000 25.4242 0.0000 0.0000
# 5 0.0000 0.0000 0.0000 0.0000 18.2566 0.0000
# 6 0.0000 0.0000 0.0000 0.0000 0.0000 22.5522
#
#
#
# Elastic Compliance Matrix: (Units=1/GPa)
#
#
# Indices 1 2 3 4 5 6 
#
# 1 0.013867 -0.004963 -0.003439 0.000000 0.000000 0.000000
# 2 -0.004963 0.011529 -0.003597 0.000000 0.000000 0.000000
# 3 -0.003439 -0.003597 0.016148 0.000000 0.000000 0.000000
# 4 0.000000 0.000000 0.000000 0.039333 0.000000 0.000000
# 5 0.000000 0.000000 0.000000 0.000000 0.054775 0.000000
# 6 0.000000 0.000000 0.000000 0.000000 0.000000 0.044342
#
#
# Mechanical properties :
#
#
# Convention : Reuss Voigt Hill
#
# Bulk Modulus (GPa) = 57.00029 60.77240 58.88635
# Shear Modulus (GPa) = 23.82770 24.84363 24.33566
#
# Velocity S-wave (km/s) = 3.67685 3.75441 3.71583
# Velocity P-wave (km/s) = 7.09690 7.29896 7.19864
#
# Compressibility (1/GPa) = 0.01754377
#
# Stress axis : x y z
#
# Youngs Moduli (GPa) = 72.11382 86.73789 61.92908
#
# Poissons Ratio (x) = 0.43050 0.21300
# Poissons Ratio (y) = 0.35792 0.22277
# Poissons Ratio (z) = 0.24803 0.31201
#
# Static dielectric constant tensor:
#      x y z
#    x 3.021170 0.000000 0.000000 
#    y 0.000000 3.311170 0.000000 
#    z 0.000000 0.000000 3.376330 
# 
# 
# High freq. dielectric constant tensor:
#      x y z
#    x 1.645790 0.000000 0.000000 
#    y 0.000000 1.671350 0.000000 
#    z 0.000000 0.000000 1.690190 
# 
# From -- ./inp_files/44250.got.cif
#   From: 2010.03.12/outbox.cif.g09.slc.cpg/sg66_23_cif.got.tgz:44250.got - 2010.04.10 21:57:39.
