data_PCOD8275712
_publ_section_title
;
Structure prediction by ZEFSAII (Michael W. Deem and Ramdas Pophale) SiO2 
 PCOD8275712
Probable space group: C C C M
;
_chemical_formula_sum "Si O2"
_cell_formula_units_Z 96
_cell_length_a 31.197872
_cell_length_b 27.375828
_cell_length_c 8.836137
_cell_angle_alpha 90.000000
_cell_angle_beta 90.000000
_cell_angle_gamma 90.000000
_cell_volume 7546.658125
_symmetry_space_group_name_H-M "C C C M"
_symmetry_group_IT_number 66
_symmetry_cell_setting 'orthorhombic'
loop_
_space_group_symop_operation_xyz
x,y,z
-x,-y,z
x,-y,1/2-z
-x,y,1/2-z
-x,-y,-z
x,y,-z
-x,y,1/2+z
x,-y,1/2+z
1/2+x,1/2+y,z
1/2-x,1/2-y,z
1/2+x,1/2-y,1/2-z
1/2-x,1/2+y,1/2-z
1/2-x,1/2-y,-z
1/2+x,1/2+y,-z
1/2-x,1/2+y,1/2+z
1/2+x,1/2-y,1/2+z
loop_
_atom_site_type_symbol
_atom_site_label
_atom_site_fract_x
_atom_site_fract_y
_atom_site_fract_z
Si Si1 0.249091 0.863107 0.669843
Si Si2 0.205302 0.552534 0.176806
Si Si3 0.705864 0.279487 0.829366
Si Si4 0.954479 0.551340 0.819886
Si Si5 0.336988 0.804357 0.329789
Si Si6 0.119296 0.389799 0.323199
O O1 0.234149 0.875011 0.500000
O O2 0.256965 0.913640 0.757326
O O3 0.211802 0.832234 0.751594
O O4 0.291970 0.831635 0.669562
O O5 0.208502 0.500000 0.250000
O O6 0.159081 0.575121 0.215148
O O7 0.212651 0.547945 0.000000
O O8 0.750000 0.250000 0.826802
O O9 0.669252 0.249362 0.740927
O O10 0.690102 0.287771 0.000000
O O11 0.938899 0.500000 0.750000
O O12 0.920807 0.592676 0.774960
O O13 0.000000 0.566351 0.750000
O O14 0.958023 0.546563 0.000000
O O15 0.354928 0.799284 0.500000
O O16 0.370391 0.834576 0.227589
O O17 0.107974 0.390508 0.500000
#
# Coordination Sequence:
#
# PCOD8275712 Si02
#       6
#    16  16  16  16  16  16
#     4   9  16  25  36  49  66  87 111 137 165 199
#     4  10  19  28  38  51  68  89 113 141 173 208
#     4   9  15  23  35  50  68  88 109 133 162 197
#     4  11  21  33  46  58  71  88 111 139 172 211
#     4   9  16  25  37  53  70  88 109 133 164 201
#     4  10  19  30  42  56  72  89 110 138 173 211
#
# _framework density 12.720862
#
# number of rings (size 3 to 8) (size 9 to 14) (size 15 to 20)
#    0.000    2.333    0.000    5.000    0.000    9.333 
#    0.000    0.000    0.000    0.000    0.000    0.000 
#    0.000    0.000    0.000    0.000    0.000    0.000 
#
# Total GULP energy -595206.223498 kJ/mol
# GULP energy per Si atom -12400.129656 kJ/mol
# Density = 1.269191 g / cm^3
# Si number density = 12.720862 Si / 1000 Ang^3
#
#
#
# Elastic Constant Matrix: (Units=GPa)
#
#
# Indices 1 2 3 4 5 6 
#
# 1 34.6135 37.8507 28.4492 0.0000 0.0000 0.0000
# 2 37.8507 74.3201 50.3016 0.0000 0.0000 0.0000
# 3 28.4492 50.3016 105.0065 0.0000 0.0000 0.0000
# 4 0.0000 0.0000 0.0000 25.4857 0.0000 0.0000
# 5 0.0000 0.0000 0.0000 0.0000 16.3440 0.0000
# 6 0.0000 0.0000 0.0000 0.0000 0.0000 17.0693
#
#
#
# Elastic Compliance Matrix: (Units=1/GPa)
#
#
# Indices 1 2 3 4 5 6 
#
# 1 0.065688 -0.031681 -0.002621 0.000000 0.000000 0.000000
# 2 -0.031681 0.035190 -0.008274 0.000000 0.000000 0.000000
# 3 -0.002621 -0.008274 0.014197 0.000000 0.000000 0.000000
# 4 0.000000 0.000000 0.000000 0.039238 0.000000 0.000000
# 5 0.000000 0.000000 0.000000 0.000000 0.061185 0.000000
# 6 0.000000 0.000000 0.000000 0.000000 0.000000 0.058585
#
#
# Mechanical properties :
#
#
# Convention : Reuss Voigt Hill
#
# Bulk Modulus (GPa) = 33.41785 49.68257 41.55021
# Shear Modulus (GPa) = 13.54251 18.26904 15.90578
#
# Velocity S-wave (km/s) = 3.26635 3.79377 3.53989
# Velocity P-wave (km/s) = 6.36808 7.63747 7.03148
#
# Compressibility (1/GPa) = 0.02992413
#
# Stress axis : x y z
#
# Youngs Moduli (GPa) = 15.22348 28.41694 70.43864
#
# Poissons Ratio (x) = 0.90027 0.18459
# Poissons Ratio (y) = 0.48229 0.58282
# Poissons Ratio (z) = 0.03989 0.23512
#
# Static dielectric constant tensor:
#      x y z
#    x 2.249250 0.000000 0.000000 
#    y 0.000000 2.559750 0.000000 
#    z 0.000000 0.000000 2.798040 
# 
# 
# High freq. dielectric constant tensor:
#      x y z
#    x 1.424960 0.000000 0.000000 
#    y 0.000000 1.469600 0.000000 
#    z 0.000000 0.000000 1.508450 
# 
# From -- ./inp_files/9269.got.cif
#   From: 2010.03.12/outbox.cif.g09.slc.cpg/sg66_5_cif.got.tgz:9269.got - 2010.04.10 21:57:39.
