data_PCOD8275181
_publ_section_title
;
Structure prediction by ZEFSAII (Michael W. Deem and Ramdas Pophale) SiO2 
 PCOD8275181
Probable space group: C M M M
;
_chemical_formula_sum "Si O2"
_cell_formula_units_Z 96
_cell_length_a 27.536924
_cell_length_b 21.797942
_cell_length_c 9.380154
_cell_angle_alpha 90.000000
_cell_angle_beta 90.000000
_cell_angle_gamma 90.000000
_cell_volume 5630.421232
_symmetry_space_group_name_H-M "C M M M"
_symmetry_group_IT_number 65
_symmetry_cell_setting 'orthorhombic'
loop_
_space_group_symop_operation_xyz
x,y,z
-x,-y,z
x,-y,-z
-x,y,-z
-x,-y,-z
x,y,-z
-x,y,z
x,-y,z
1/2+x,1/2+y,z
1/2-x,1/2-y,z
1/2+x,1/2-y,-z
1/2-x,1/2+y,-z
1/2-x,1/2-y,-z
1/2+x,1/2+y,-z
1/2-x,1/2+y,z
1/2+x,1/2-y,z
loop_
_atom_site_type_symbol
_atom_site_label
_atom_site_fract_x
_atom_site_fract_y
_atom_site_fract_z
Si Si1 0.326001 0.661823 0.163932
Si Si2 0.910194 0.070405 0.836929
Si Si3 0.442503 0.000000 0.661092
Si Si4 0.855314 0.702516 0.834852
Si Si5 0.444307 0.118859 0.834315
Si Si6 0.000000 0.926865 0.659767
Si Si7 0.735645 0.820664 0.339191
O O1 0.361858 0.606784 0.197899
O O2 0.353187 0.725404 0.203933
O O3 0.278977 0.645340 0.257179
O O4 0.309494 0.663779 0.000000
O O5 0.952642 0.098247 0.739594
O O6 0.899559 0.000000 0.799998
O O7 0.926633 0.078684 0.000000
O O8 0.425089 0.060865 0.743829
O O9 0.500000 0.000000 0.658052
O O10 0.421357 0.000000 0.500000
O O11 0.909008 0.676335 0.799272
O O12 0.815137 0.667127 0.740910
O O13 0.842524 0.691523 0.000000
O O14 0.500000 0.136901 0.794261
O O15 0.441168 0.100587 0.000000
O O16 0.000000 0.901178 0.500000
O O17 0.000000 0.000000 0.665078
O O18 0.731229 0.845785 0.500000
O O19 0.750000 0.750000 0.336483
#
# Coordination Sequence:
#
# PCOD8275181 Si02
#       7
#    16  16   8  16  16   8  16
#     4   9  17  30  48  71  94 122 159 199 240 282
#     4   9  17  30  48  69  94 125 161 199 239 281
#     4   9  17  29  47  69  91 121 157 187 219 268
#     4   9  17  30  48  71  96 123 155 194 237 278
#     4   9  17  30  48  70  96 124 155 191 231 276
#     4   9  17  29  45  65  89 121 161 198 233 276
#     4   9  17  29  47  69  91 120 155 193 234 281
#
# _framework density 17.050234
#
# number of rings (size 3 to 8) (size 9 to 14) (size 15 to 20)
#    0.000    3.000    0.000    1.000    0.000    5.333 
#    1.500    0.000    1.833    0.000    0.000    0.000 
#    0.000    0.000    0.000    0.000    0.000    0.000 
#
# Total GULP energy -595078.017859 kJ/mol
# GULP energy per Si atom -12397.458705 kJ/mol
# Density = 1.701143 g / cm^3
# Si number density = 17.050234 Si / 1000 Ang^3
#
#
#
# Elastic Constant Matrix: (Units=GPa)
#
#
# Indices 1 2 3 4 5 6 
#
# 1 120.3831 46.1989 66.1814 0.0000 0.0000 0.0000
# 2 46.1989 54.4518 35.4814 0.0000 0.0000 0.0000
# 3 66.1814 35.4814 95.6511 0.0000 0.0000 0.0000
# 4 0.0000 0.0000 0.0000 15.8526 0.0000 0.0000
# 5 0.0000 0.0000 0.0000 0.0000 14.6162 0.0000
# 6 0.0000 0.0000 0.0000 0.0000 0.0000 20.0374
#
#
#
# Elastic Compliance Matrix: (Units=1/GPa)
#
#
# Indices 1 2 3 4 5 6 
#
# 1 0.015813 -0.008291 -0.007865 0.000000 0.000000 0.000000
# 2 -0.008291 0.028566 -0.004860 0.000000 0.000000 0.000000
# 3 -0.007865 -0.004860 0.017700 0.000000 0.000000 0.000000
# 4 0.000000 0.000000 0.000000 0.063081 0.000000 0.000000
# 5 0.000000 0.000000 0.000000 0.000000 0.068417 0.000000
# 6 0.000000 0.000000 0.000000 0.000000 0.000000 0.049907
#
#
# Mechanical properties :
#
#
# Convention : Reuss Voigt Hill
#
# Bulk Modulus (GPa) = 49.88587 62.91216 56.39901
# Shear Modulus (GPa) = 17.11174 18.27619 17.69396
#
# Velocity S-wave (km/s) = 3.17141 3.27754 3.22492
# Velocity P-wave (km/s) = 6.53698 7.16249 6.85687
#
# Compressibility (1/GPa) = 0.02004576
#
# Stress axis : x y z
#
# Youngs Moduli (GPa) = 63.24080 35.00669 56.49872
#
# Poissons Ratio (x) = 0.29024 0.44438
# Poissons Ratio (y) = 0.52432 0.27458
# Poissons Ratio (z) = 0.49741 0.17013
#
# Static dielectric constant tensor:
#      x y z
#    x 3.185130 0.000000 0.000000 
#    y 0.000000 2.938750 0.000000 
#    z 0.000000 0.000000 3.346510 
# 
# 
# High freq. dielectric constant tensor:
#      x y z
#    x 1.653890 0.000000 0.000000 
#    y 0.000000 1.624260 0.000000 
#    z 0.000000 0.000000 1.660890 
# 
# From -- ./inp_files/14432.got.cif
#   From: 2010.03.12/outbox.cif.g09.slc.cpg/sg65_8_cif.got.tgz:14432.got - 2010.04.10 20:52:16.
