data_PCOD8275923
_publ_section_title
;
Structure prediction by ZEFSAII (Michael W. Deem and Ramdas Pophale) SiO2 
 PCOD8275923
Probable space group: C C C M
;
_chemical_formula_sum "Si O2"
_cell_formula_units_Z 80
_cell_length_a 8.393063
_cell_length_b 16.362639
_cell_length_c 29.366185
_cell_angle_alpha 90.000000
_cell_angle_beta 90.000000
_cell_angle_gamma 90.000000
_cell_volume 4032.936299
_symmetry_space_group_name_H-M "C C C M"
_symmetry_group_IT_number 66
_symmetry_cell_setting 'orthorhombic'
loop_
_space_group_symop_operation_xyz
x,y,z
-x,-y,z
x,-y,1/2-z
-x,y,1/2-z
-x,-y,-z
x,y,-z
-x,y,1/2+z
x,-y,1/2+z
1/2+x,1/2+y,z
1/2-x,1/2-y,z
1/2+x,1/2-y,1/2-z
1/2-x,1/2+y,1/2-z
1/2-x,1/2-y,-z
1/2+x,1/2+y,-z
1/2-x,1/2+y,1/2+z
1/2+x,1/2-y,1/2+z
loop_
_atom_site_type_symbol
_atom_site_label
_atom_site_fract_x
_atom_site_fract_y
_atom_site_fract_z
Si Si1 0.569565 0.590588 0.049318
Si Si2 0.936342 0.764026 0.199561
Si Si3 0.635738 0.174564 0.872523
Si Si4 0.441562 0.592696 0.857779
Si Si5 0.054835 0.588683 0.448169
O O1 0.500000 0.500000 0.047814
O O2 0.491699 0.633475 0.093231
O O3 0.757003 0.592430 0.057371
O O4 0.530060 0.632670 0.000000
O O5 0.750000 0.750000 0.198133
O O6 0.000000 0.753694 0.250000
O O7 0.019513 0.694964 0.169067
O O8 0.977950 0.854898 0.182063
O O9 0.750000 0.250000 0.884208
O O10 0.748881 0.098808 0.856487
O O11 0.530545 0.155083 0.916669
O O12 0.500000 0.500000 0.852556
O O13 0.001382 0.605733 0.500000
O O14 0.000000 0.500000 0.431925
#
# Coordination Sequence:
#
# PCOD8275923 Si02
#       5
#    16  16  16  16  16
#     4   9  17  30  50  79 114 150 187 230 282 333
#     4  11  23  42  63  83 113 151 189 234 293 351
#     4  10  22  38  58  86 119 153 192 233 287 348
#     4  10  20  36  60  87 115 151 193 238 285 335
#     4  10  19  32  54  84 117 155 197 239 282 332
#
# _framework density 19.836662
#
# number of rings (size 3 to 8) (size 9 to 14) (size 15 to 20)
#    0.000    2.000    0.000    5.400    0.000    3.200 
#    0.000    3.000    0.000   15.000    0.000    0.000 
#    0.000    0.000    0.000    0.000    0.000    0.000 
#
# Total GULP energy -495810.423393 kJ/mol
# GULP energy per Si atom -12395.260585 kJ/mol
# Density = 1.979151 g / cm^3
# Si number density = 19.836662 Si / 1000 Ang^3
#
#
#
# Elastic Constant Matrix: (Units=GPa)
#
#
# Indices 1 2 3 4 5 6 
#
# 1 157.4292 48.9746 70.6684 0.0000 0.0000 0.0000
# 2 48.9746 67.0143 47.8172 0.0000 0.0000 0.0000
# 3 70.6684 47.8172 156.2407 0.0000 0.0000 0.0000
# 4 0.0000 0.0000 0.0000 26.3919 0.0000 0.0000
# 5 0.0000 0.0000 0.0000 0.0000 39.3968 0.0000
# 6 0.0000 0.0000 0.0000 0.0000 0.0000 36.1291
#
#
#
# Elastic Compliance Matrix: (Units=1/GPa)
#
#
# Indices 1 2 3 4 5 6 
#
# 1 0.008994 -0.004695 -0.002631 0.000000 0.000000 0.000000
# 2 -0.004695 0.021543 -0.004469 0.000000 0.000000 0.000000
# 3 -0.002631 -0.004469 0.008958 0.000000 0.000000 0.000000
# 4 0.000000 0.000000 0.000000 0.037890 0.000000 0.000000
# 5 0.000000 0.000000 0.000000 0.000000 0.025383 0.000000
# 6 0.000000 0.000000 0.000000 0.000000 0.000000 0.027679
#
#
# Mechanical properties :
#
#
# Convention : Reuss Voigt Hill
#
# Bulk Modulus (GPa) = 62.88012 79.51162 71.19587
# Shear Modulus (GPa) = 31.37967 34.59849 32.98908
#
# Velocity S-wave (km/s) = 3.98163 4.18086 4.08246
# Velocity P-wave (km/s) = 7.27362 7.96720 7.62830
#
# Compressibility (1/GPa) = 0.01590328
#
# Stress axis : x y z
#
# Youngs Moduli (GPa) = 111.18835 46.41939 111.62995
#
# Poissons Ratio (x) = 0.21796 0.29368
# Poissons Ratio (y) = 0.52208 0.49891
# Poissons Ratio (z) = 0.29252 0.20746
#
# Static dielectric constant tensor:
#      x y z
#    x 3.917830 0.000000 0.000000 
#    y 0.000000 3.374240 0.000000 
#    z 0.000000 0.000000 3.960550 
# 
# 
# High freq. dielectric constant tensor:
#      x y z
#    x 1.793520 0.000000 0.000000 
#    y 0.000000 1.748710 0.000000 
#    z 0.000000 0.000000 1.780040 
# 
# From -- ./inp_files/62434.got.cif
#   From: 2010.03.12/outbox.cif.g09.slc.cpg/sg66_32_cif.got.tgz:62434.got - 2010.04.10 21:57:39.
