data_PCOD8275598
_publ_section_title
;
Structure prediction by ZEFSAII (Michael W. Deem and Ramdas Pophale) SiO2 
 PCOD8275598
Probable space group: C C C M
;
_chemical_formula_sum "Si O2"
_cell_formula_units_Z 88
_cell_length_a 25.466632
_cell_length_b 20.141012
_cell_length_c 9.025381
_cell_angle_alpha 90.000000
_cell_angle_beta 90.000000
_cell_angle_gamma 90.000000
_cell_volume 4629.332184
_symmetry_space_group_name_H-M "C C C M"
_symmetry_group_IT_number 66
_symmetry_cell_setting 'orthorhombic'
loop_
_space_group_symop_operation_xyz
x,y,z
-x,-y,z
x,-y,1/2-z
-x,y,1/2-z
-x,-y,-z
x,y,-z
-x,y,1/2+z
x,-y,1/2+z
1/2+x,1/2+y,z
1/2-x,1/2-y,z
1/2+x,1/2-y,1/2-z
1/2-x,1/2+y,1/2-z
1/2-x,1/2-y,-z
1/2+x,1/2+y,-z
1/2-x,1/2+y,1/2+z
1/2+x,1/2-y,1/2+z
loop_
_atom_site_type_symbol
_atom_site_label
_atom_site_fract_x
_atom_site_fract_y
_atom_site_fract_z
Si Si1 0.359798 0.705022 0.665752
Si Si2 0.225058 0.392690 0.665312
Si Si3 0.880713 0.431451 0.674488
Si Si4 0.750000 0.250000 0.758089
Si Si5 0.172781 0.934838 0.322667
Si Si6 0.054780 0.304426 0.826165
O O1 0.379661 0.697343 0.500000
O O2 0.301524 0.736400 0.659725
O O3 0.358581 0.630637 0.734924
O O4 0.401951 0.753457 0.744605
O O5 0.221931 0.423628 0.500000
O O6 0.171254 0.402625 0.751409
O O7 0.238331 0.314830 0.644058
O O8 0.268178 0.431046 0.761271
O O9 0.897977 0.500000 0.750000
O O10 0.870969 0.441185 0.500000
O O11 0.927259 0.379529 0.706113
O O12 0.173783 0.939505 0.500000
O O13 0.145779 0.000000 0.250000
O O14 0.000000 0.289412 0.750000
O O15 0.048568 0.293117 0.000000
#
# Coordination Sequence:
#
# PCOD8275598 Si02
#       6
#    16  16  16   8  16  16
#     4   9  18  34  58  84 111 146 186 227 277 336
#     4  11  21  33  51  80 117 151 187 228 277 332
#     4  11  23  39  58  80 110 147 191 235 281 332
#     4  10  18  32  54  84 115 144 183 232 283 326
#     4  10  20  34  54  80 114 152 185 224 273 332
#     4  10  22  41  61  84 110 144 189 235 281 332
#
# _framework density 19.009222000000001
#
# number of rings (size 3 to 8) (size 9 to 14) (size 15 to 20)
#    0.000    1.818    1.818    2.727    0.000    3.273 
#    0.000    3.636    0.000    0.545    0.000    3.818 
#    0.000    0.000    0.000    0.000    0.000    0.000 
#
# Total GULP energy -545330.998215 kJ/mol
# GULP energy per Si atom -12393.886323 kJ/mol
# Density = 1.896596 g / cm^3
# Si number density = 19.009222 Si / 1000 Ang^3
#
#
#
# Elastic Constant Matrix: (Units=GPa)
#
#
# Indices 1 2 3 4 5 6 
#
# 1 118.2924 65.6817 32.1633 0.0000 0.0000 0.0000
# 2 65.6817 154.4571 43.5696 0.0000 0.0000 0.0000
# 3 32.1633 43.5696 85.9322 0.0000 0.0000 0.0000
# 4 0.0000 0.0000 0.0000 24.7028 0.0000 0.0000
# 5 0.0000 0.0000 0.0000 0.0000 22.5191 0.0000
# 6 0.0000 0.0000 0.0000 0.0000 0.0000 19.3465
#
#
#
# Elastic Compliance Matrix: (Units=1/GPa)
#
#
# Indices 1 2 3 4 5 6 
#
# 1 0.011385 -0.004247 -0.002108 0.000000 0.000000 0.000000
# 2 -0.004247 0.009139 -0.003044 0.000000 0.000000 0.000000
# 3 -0.002108 -0.003044 0.013970 0.000000 0.000000 0.000000
# 4 0.000000 0.000000 0.000000 0.040481 0.000000 0.000000
# 5 0.000000 0.000000 0.000000 0.000000 0.044407 0.000000
# 6 0.000000 0.000000 0.000000 0.000000 0.000000 0.051689
#
#
# Mechanical properties :
#
#
# Convention : Reuss Voigt Hill
#
# Bulk Modulus (GPa) = 63.71248 71.27902 67.49575
# Shear Modulus (GPa) = 25.62796 27.79815 26.71306
#
# Velocity S-wave (km/s) = 3.67575 3.82822 3.75276
# Velocity P-wave (km/s) = 7.18361 7.55770 7.37303
#
# Compressibility (1/GPa) = 0.01569551
#
# Stress axis : x y z
#
# Youngs Moduli (GPa) = 87.83698 109.42311 71.58437
#
# Poissons Ratio (x) = 0.46468 0.15090
# Poissons Ratio (y) = 0.37301 0.21791
# Poissons Ratio (z) = 0.18516 0.33310
#
# Static dielectric constant tensor:
#      x y z
#    x 3.329490 0.000000 0.000000 
#    y 0.000000 3.963940 0.000000 
#    z 0.000000 0.000000 3.286170 
# 
# 
# High freq. dielectric constant tensor:
#      x y z
#    x 1.705660 0.000000 0.000000 
#    y 0.000000 1.759860 0.000000 
#    z 0.000000 0.000000 1.727980 
# 
# From -- ./inp_files/8994.got.cif
#   From: 2010.03.12/outbox.cif.g09.slc.cpg/sg66_5_cif.got.tgz:8994.got - 2010.04.10 21:57:39.
