data_PCOD8275823
_publ_section_title
;
Structure prediction by ZEFSAII (Michael W. Deem and Ramdas Pophale) SiO2 
 PCOD8275823
Probable space group: C C C M
;
_chemical_formula_sum "Si O2"
_cell_formula_units_Z 116
_cell_length_a 26.523982
_cell_length_b 26.308208
_cell_length_c 9.225887
_cell_angle_alpha 90.000000
_cell_angle_beta 90.000000
_cell_angle_gamma 90.000000
_cell_volume 6437.809514
_symmetry_space_group_name_H-M "C C C M"
_symmetry_group_IT_number 66
_symmetry_cell_setting 'orthorhombic'
loop_
_space_group_symop_operation_xyz
x,y,z
-x,-y,z
x,-y,1/2-z
-x,y,1/2-z
-x,-y,-z
x,y,-z
-x,y,1/2+z
x,-y,1/2+z
1/2+x,1/2+y,z
1/2-x,1/2-y,z
1/2+x,1/2-y,1/2-z
1/2-x,1/2+y,1/2-z
1/2-x,1/2-y,-z
1/2+x,1/2+y,-z
1/2-x,1/2+y,1/2+z
1/2+x,1/2-y,1/2+z
loop_
_atom_site_type_symbol
_atom_site_label
_atom_site_fract_x
_atom_site_fract_y
_atom_site_fract_z
Si Si1 0.925109 0.321639 0.337692
Si Si2 0.500000 0.000000 0.250000
Si Si3 0.817394 0.715958 0.165824
Si Si4 0.251363 0.644993 0.165208
Si Si5 0.184151 0.449956 0.669364
Si Si6 0.646141 0.687856 0.333002
Si Si7 0.049705 0.207778 0.172634
Si Si8 0.575309 0.917058 0.338762
O O1 0.944423 0.330336 0.500000
O O2 0.864560 0.322519 0.327752
O O3 0.944680 0.266968 0.281865
O O4 0.947220 0.368590 0.246531
O O5 0.535889 0.963651 0.344610
O O6 0.768273 0.687204 0.222722
O O7 0.826844 0.762221 0.273054
O O8 0.809273 0.734769 0.000000
O O9 0.226788 0.591373 0.205640
O O10 0.312383 0.642599 0.180200
O O11 0.236463 0.660064 0.000000
O O12 0.202716 0.500000 0.750000
O O13 0.180175 0.461637 0.500000
O O14 0.128873 0.433987 0.729839
O O15 0.629925 0.696178 0.500000
O O16 0.596793 0.675841 0.236560
O O17 0.000000 0.185965 0.250000
O O18 0.047853 0.200596 0.000000
O O19 0.585222 0.897521 0.500000
#
# Coordination Sequence:
#
# PCOD8275823 Si02
#       8
#    16   4  16  16  16  16  16  16
#     4   9  20  35  51  72  97 126 166 211 255 306
#     4  12  26  40  48  74  94 120 172 238 284 316
#     4  10  19  31  49  75 104 134 168 211 259 314
#     4  10  20  34  52  75 102 134 172 212 262 320
#     4  10  21  38  56  75  97 130 172 217 270 327
#     4  10  20  33  51  75 105 138 171 211 254 307
#     4  10  21  37  54  77 106 139 173 209 250 300
#     4  11  23  38  55  69  90 126 169 221 275 320
#
# _framework density 18.018550999999999
#
# number of rings (size 3 to 8) (size 9 to 14) (size 15 to 20)
#    0.000    1.931    2.069    2.690    0.966    7.724 
#    0.000    0.000    0.000    0.000    0.000    0.000 
#    0.000    0.552    0.000    6.345    0.000    1.931 
#
# Total GULP energy -719070.990020 kJ/mol
# GULP energy per Si atom -12397.775690 kJ/mol
# Density = 1.797754 g / cm^3
# Si number density = 18.018551 Si / 1000 Ang^3
#
#
#
# Elastic Constant Matrix: (Units=GPa)
#
#
# Indices 1 2 3 4 5 6 
#
# 1 121.0109 36.3925 42.9740 0.0000 0.0000 0.0000
# 2 36.3925 45.2818 21.0840 0.0000 0.0000 0.0000
# 3 42.9740 21.0840 79.7416 0.0000 0.0000 0.0000
# 4 0.0000 0.0000 0.0000 21.0019 0.0000 0.0000
# 5 0.0000 0.0000 0.0000 0.0000 21.4640 0.0000
# 6 0.0000 0.0000 0.0000 0.0000 0.0000 24.8646
#
#
#
# Elastic Compliance Matrix: (Units=1/GPa)
#
#
# Indices 1 2 3 4 5 6 
#
# 1 0.012184 -0.007680 -0.004536 0.000000 0.000000 0.000000
# 2 -0.007680 0.030026 -0.003800 0.000000 0.000000 0.000000
# 3 -0.004536 -0.003800 0.015989 0.000000 0.000000 0.000000
# 4 0.000000 0.000000 0.000000 0.047615 0.000000 0.000000
# 5 0.000000 0.000000 0.000000 0.000000 0.046590 0.000000
# 6 0.000000 0.000000 0.000000 0.000000 0.000000 0.040218
#
#
# Mechanical properties :
#
#
# Convention : Reuss Voigt Hill
#
# Bulk Modulus (GPa) = 38.21477 49.65948 43.93712
# Shear Modulus (GPa) = 21.42464 23.17167 22.29815
#
# Velocity S-wave (km/s) = 3.45198 3.58996 3.52164
# Velocity P-wave (km/s) = 6.09449 6.69356 6.40104
#
# Compressibility (1/GPa) = 0.02616789
#
# Stress axis : x y z
#
# Youngs Moduli (GPa) = 82.07347 33.30454 62.54118
#
# Poissons Ratio (x) = 0.25580 0.28366
# Poissons Ratio (y) = 0.63037 0.23765
# Poissons Ratio (z) = 0.37224 0.12655
#
# Static dielectric constant tensor:
#      x y z
#    x 3.470980 0.000000 0.000000 
#    y 0.000000 2.982650 0.000000 
#    z 0.000000 0.000000 3.303600 
# 
# 
# High freq. dielectric constant tensor:
#      x y z
#    x 1.700700 0.000000 0.000000 
#    y 0.000000 1.647680 0.000000 
#    z 0.000000 0.000000 1.704390 
# 
# From -- ./inp_files/9619.got.cif
#   From: 2010.03.12/outbox.cif.g09.slc.cpg/sg66_5_cif.got.tgz:9619.got - 2010.04.10 21:57:39.
