data_PCOD8275083
_publ_section_title
;
Structure prediction by ZEFSAII (Michael W. Deem and Ramdas Pophale) SiO2 
 PCOD8275083
Probable space group: C M M M
;
_chemical_formula_sum "Si O2"
_cell_formula_units_Z 72
_cell_length_a 19.931249
_cell_length_b 20.333156
_cell_length_c 9.470831
_cell_angle_alpha 90.000000
_cell_angle_beta 90.000000
_cell_angle_gamma 90.000000
_cell_volume 3838.198174
_symmetry_space_group_name_H-M "C M M M"
_symmetry_group_IT_number 65
_symmetry_cell_setting 'orthorhombic'
loop_
_space_group_symop_operation_xyz
x,y,z
-x,-y,z
x,-y,-z
-x,y,-z
-x,-y,-z
x,y,-z
-x,y,z
x,-y,z
1/2+x,1/2+y,z
1/2-x,1/2-y,z
1/2+x,1/2-y,-z
1/2-x,1/2+y,-z
1/2-x,1/2-y,-z
1/2+x,1/2+y,-z
1/2-x,1/2+y,z
1/2+x,1/2-y,z
loop_
_atom_site_type_symbol
_atom_site_label
_atom_site_fract_x
_atom_site_fract_y
_atom_site_fract_z
Si Si1 0.921143 0.500000 0.158159
Si Si2 0.923668 0.372869 0.665332
Si Si3 0.302983 0.574391 0.665664
Si Si4 0.290656 0.189031 0.665708
Si Si5 0.926539 0.078110 0.157819
O O1 0.899813 0.564266 0.245449
O O2 0.000000 0.500000 0.142580
O O3 0.888901 0.500000 0.000000
O O4 0.918382 0.391594 0.500000
O O5 0.870448 0.314450 0.703482
O O6 0.000000 0.350514 0.702680
O O7 0.315332 0.576664 0.500000
O O8 0.287193 0.500000 0.716687
O O9 0.241846 0.620153 0.715061
O O10 0.370243 0.604141 0.735599
O O11 0.281955 0.196358 0.500000
O O12 0.250000 0.250000 0.737627
O O13 0.000000 0.104947 0.204099
O O14 0.927885 0.000000 0.161588
O O15 0.909602 0.102784 0.000000
#
# Coordination Sequence:
#
# PCOD8275083 Si02
#       5
#     8  16  16  16  16
#     4   9  17  29  47  75 107 131 156 201 262 311
#     4   9  17  30  51  75  98 130 174 214 248 298
#     4   9  17  28  45  69  94 123 159 199 244 291
#     4   9  18  32  49  70 101 135 164 201 252 300
#     4   8  14  26  44  65  91 122 154 192 236 278
#
# _framework density 18.758801999999999
#
# number of rings (size 3 to 8) (size 9 to 14) (size 15 to 20)
#    0.000    3.222    0.000    1.000    1.556    1.778 
#    0.000    4.444    0.000    6.667    0.000    3.111 
#    0.000    0.000    0.000    0.000    0.000    0.000 
#
# Total GULP energy -445994.584740 kJ/mol
# GULP energy per Si atom -12388.738465 kJ/mol
# Density = 1.871611 g / cm^3
# Si number density = 18.758802 Si / 1000 Ang^3
#
#
#
# Elastic Constant Matrix: (Units=GPa)
#
#
# Indices 1 2 3 4 5 6 
#
# 1 142.8202 64.3228 30.0029 0.0000 0.0000 0.0000
# 2 64.3228 84.5144 20.4862 0.0000 0.0000 0.0000
# 3 30.0029 20.4862 40.1483 0.0000 0.0000 0.0000
# 4 0.0000 0.0000 0.0000 6.5359 0.0000 0.0000
# 5 0.0000 0.0000 0.0000 0.0000 11.9040 0.0000
# 6 0.0000 0.0000 0.0000 0.0000 0.0000 23.6426
#
#
#
# Elastic Compliance Matrix: (Units=1/GPa)
#
#
# Indices 1 2 3 4 5 6 
#
# 1 0.011369 -0.007524 -0.004657 0.000000 0.000000 0.000000
# 2 -0.007524 0.018482 -0.003808 0.000000 0.000000 0.000000
# 3 -0.004657 -0.003808 0.030331 0.000000 0.000000 0.000000
# 4 0.000000 0.000000 0.000000 0.153002 0.000000 0.000000
# 5 0.000000 0.000000 0.000000 0.000000 0.084005 0.000000
# 6 0.000000 0.000000 0.000000 0.000000 0.000000 0.042297
#
#
# Mechanical properties :
#
#
# Convention : Reuss Voigt Hill
#
# Bulk Modulus (GPa) = 35.45588 55.23408 45.34498
# Shear Modulus (GPa) = 13.12808 18.59455 15.86131
#
# Velocity S-wave (km/s) = 2.64831 3.15182 2.91097
# Velocity P-wave (km/s) = 5.31915 6.53862 5.96016
#
# Compressibility (1/GPa) = 0.02820407
#
# Stress axis : x y z
#
# Youngs Moduli (GPa) = 87.96207 54.10809 32.96987
#
# Poissons Ratio (x) = 0.40709 0.15353
# Poissons Ratio (y) = 0.66180 0.12555
# Poissons Ratio (z) = 0.40961 0.20604
#
# Static dielectric constant tensor:
#      x y z
#    x 3.812110 0.000000 0.000000 
#    y 0.000000 3.282330 0.000000 
#    z 0.000000 0.000000 3.352940 
# 
# 
# High freq. dielectric constant tensor:
#      x y z
#    x 1.739280 0.000000 0.000000 
#    y 0.000000 1.689620 0.000000 
#    z 0.000000 0.000000 1.697010 
# 
# From -- ./inp_files/11254.got.cif
#   From: 2010.03.12/outbox.cif.g09.slc.cpg/sg65_6_cif.got.tgz:11254.got - 2010.04.10 20:52:16.
