data_PCOD8275200
_publ_section_title
;
Structure prediction by ZEFSAII (Michael W. Deem and Ramdas Pophale) SiO2 
 PCOD8275200
Probable space group: C M M M
;
_chemical_formula_sum "Si O2"
_cell_formula_units_Z 28
_cell_length_a 30.000000
_cell_length_b 9.000000
_cell_length_c 12.000000
_cell_angle_alpha 90.000000
_cell_angle_beta 90.000000
_cell_angle_gamma 90.000000
_cell_volume 3240.000000
_symmetry_space_group_name_H-M "C M M M"
_symmetry_group_IT_number 65
_symmetry_cell_setting 'orthorhombic'
loop_
_space_group_symop_operation_xyz
x,y,z
-x,-y,z
x,-y,-z
-x,y,-z
-x,-y,-z
x,y,-z
-x,y,z
x,-y,z
1/2+x,1/2+y,z
1/2-x,1/2-y,z
1/2+x,1/2-y,-z
1/2-x,1/2+y,-z
1/2-x,1/2-y,-z
1/2+x,1/2+y,-z
1/2-x,1/2+y,z
1/2+x,1/2-y,z
loop_
_atom_site_type_symbol
_atom_site_label
_atom_site_fract_x
_atom_site_fract_y
_atom_site_fract_z
Si Si1 0.947968 0.172506 0.720418
Si Si2 0.618899 0.831924 0.131950
Si Si3 0.446958 0.832669 0.500000
Si Si4 0.793558 0.167391 0.867133
O O1 0.924165 0.244225 0.826205
O O2 0.929025 0.248247 0.608674
O O3 0.000000 0.202908 0.735830
O O4 0.936854 0.000000 0.713750
O O5 0.663330 0.753586 0.178321
O O6 0.618021 0.000000 0.176480
O O7 0.617742 0.827098 0.000000
O O8 0.500000 0.829651 0.500000
O O9 0.428445 0.000000 0.500000
O O10 0.750000 0.250000 0.820204
O O11 0.794293 0.000000 0.820711
O O12 0.793014 0.167330 0.000000
#
# Coordination Sequence:
#
# PCOD8275200 Si02
#       4
#    16  16   8  16
#     4  10  20  33  49  69  94 124 158 196 237 280
#     4  10  20  32  46  67  96 128 161 195 233 280
#     4   9  17  31  51  71  90 115 152 197 239 277
#     4   9  16  27  44  65  90 120 154 192 233 276
#
# _framework density 8.6419750000000004
#
# number of rings (size 3 to 8) (size 9 to 14) (size 15 to 20)
#    0.000    2.429    0.000    3.000    0.000    9.143 
#    0.000    2.857    0.000    0.000    0.000    1.000 
#    0.000    0.000    0.000    0.000    0.000    0.000 
#
# Total GULP energy -347228.809973 kJ/mol
# GULP energy per Si atom -12401.028928 kJ/mol
# Density = 0.862231 g / cm^3
# Si number density = 8.641975 Si / 1000 Ang^3
#
#
#
# Elastic Constant Matrix: (Units=GPa)
#
#
# Indices 1 2 3 4 5 6 
#
# 1 76.7150 80.3467 33.0105 0.0000 0.0000 0.0000
# 2 80.3467 156.8187 30.7253 0.0000 0.0000 0.0000
# 3 33.0105 30.7253 21.1264 0.0000 0.0000 0.0000
# 4 0.0000 0.0000 0.0000 26.8011 0.0000 0.0000
# 5 0.0000 0.0000 0.0000 0.0000 -0.5664 0.0000
# 6 0.0000 0.0000 0.0000 0.0000 0.0000 32.9867
#
#
#
# Elastic Compliance Matrix: (Units=1/GPa)
#
#
# Indices 1 2 3 4 5 6 
#
# 1 0.063253 -0.018241 -0.072306 0.000000 0.000000 0.000000
# 2 -0.018241 0.014179 0.007882 0.000000 0.000000 0.000000
# 3 -0.072306 0.007882 0.148850 0.000000 0.000000 0.000000
# 4 0.000000 0.000000 0.000000 0.037312 0.000000 0.000000
# 5 0.000000 0.000000 0.000000 0.000000 -1.765497 0.000000
# 6 0.000000 0.000000 0.000000 0.000000 0.000000 0.030315
#
#
# Mechanical properties :
#
#
# Convention : Reuss Voigt Hill
#
# Bulk Modulus (GPa) = 16.40627 60.31390 38.36009
# Shear Modulus (GPa) = -3.88821 19.21611 7.66395
#
# Velocity S-wave (km/s) = -1.50150 3.33797 2.10802
# Velocity P-wave (km/s) = 2.55085 7.05887 5.30728
#
# Compressibility (1/GPa) = 0.06095229
#
# Stress axis : x y z
#
# Youngs Moduli (GPa) = 15.80945 70.52923 6.71816
#
# Poissons Ratio (x) = 1.28655 0.48576
# Poissons Ratio (y) = 0.28839 -0.05295
# Poissons Ratio (z) = 1.14311 -0.55591
#
# Static dielectric constant tensor:
#      x y z
#    x 3.121290 0.000000 0.000000 
#    y 0.000000 3.494620 0.000000 
#    z 0.000000 0.000000 2.850760 
# 
# 
# High freq. dielectric constant tensor:
#      x y z
#    x 1.652800 0.000000 0.000000 
#    y 0.000000 1.689680 0.000000 
#    z 0.000000 0.000000 1.619180 
# 
# From -- ./inp_files/20429.got.cif
#   From: 2010.03.12/outbox.ucp.g09.slc.cvg/sg65_11_cif.got.tgz:20429.got - 2010.05.04 19:44:54.
