data_PCOD8275402
_publ_section_title
;
Structure prediction by ZEFSAII (Michael W. Deem and Ramdas Pophale) SiO2 
 PCOD8275402
Probable space group: C C C M
;
_chemical_formula_sum "Si O2"
_cell_formula_units_Z 88
_cell_length_a 22.303359
_cell_length_b 8.667188
_cell_length_c 22.953382
_cell_angle_alpha 90.000000
_cell_angle_beta 90.000000
_cell_angle_gamma 90.000000
_cell_volume 4437.058722
_symmetry_space_group_name_H-M "C C C M"
_symmetry_group_IT_number 66
_symmetry_cell_setting 'orthorhombic'
loop_
_space_group_symop_operation_xyz
x,y,z
-x,-y,z
x,-y,1/2-z
-x,y,1/2-z
-x,-y,-z
x,y,-z
-x,y,1/2+z
x,-y,1/2+z
1/2+x,1/2+y,z
1/2-x,1/2-y,z
1/2+x,1/2-y,1/2-z
1/2-x,1/2+y,1/2-z
1/2-x,1/2-y,-z
1/2+x,1/2+y,-z
1/2-x,1/2+y,1/2+z
1/2+x,1/2-y,1/2+z
loop_
_atom_site_type_symbol
_atom_site_label
_atom_site_fract_x
_atom_site_fract_y
_atom_site_fract_z
Si Si1 0.380490 0.251127 0.000000
Si Si2 0.438034 0.069336 0.897499
Si Si3 0.937915 0.674151 0.228167
Si Si4 0.811267 0.324542 0.771918
Si Si5 0.660480 0.826649 0.402763
Si Si6 0.220342 0.475952 0.000000
Si Si7 0.350033 0.577418 0.000000
O O1 0.411549 0.181735 0.944361
O O2 0.395745 0.433757 0.000000
O O3 0.310667 0.192531 0.000000
O O4 0.442331 0.175766 0.841058
O O5 0.500000 0.000000 0.919633
O O6 0.398844 0.918150 0.885692
O O7 0.938522 0.500000 0.250000
O O8 0.874379 0.752124 0.248745
O O9 0.000000 0.757524 0.250000
O O10 0.810880 0.500000 0.750000
O O11 0.750000 0.250000 0.745446
O O12 0.807368 0.294387 0.841399
O O13 0.643507 0.675063 0.440592
O O14 0.703590 0.929235 0.442231
O O15 0.291087 0.470536 0.000000
#
# Coordination Sequence:
#
# PCOD8275402 Si02
#       7
#     8  16  16  16  16   8   8
#     4  10  24  35  54  91 116 143 202 254 304 336
#     4  11  19  38  62  86 112 152 201 255 284 350
#     4  10  17  35  64  86 112 152 208 244 280 348
#     4  11  21  37  56  92 124 151 195 248 306 355
#     4  10  19  36  60  83 112 156 198 236 295 366
#     4   9  19  36  58  79 107 157 204 231 281 357
#     4  11  21  39  55  82 119 158 191 241 308 365
#
# _framework density 19.832958000000001
#
# number of rings (size 3 to 8) (size 9 to 14) (size 15 to 20)
#    0.000    1.636    5.455    3.273    0.000    0.000 
#    6.545    1.818    0.000    0.545    0.000    1.273 
#    0.000    0.000    0.000    0.000    0.000    0.000 
#
# Total GULP energy -545086.260874 kJ/mol
# GULP energy per Si atom -12388.324111 kJ/mol
# Density = 1.978782 g / cm^3
# Si number density = 19.832958 Si / 1000 Ang^3
#
#
#
# Elastic Constant Matrix: (Units=GPa)
#
#
# Indices 1 2 3 4 5 6 
#
# 1 145.4845 21.0337 26.7414 0.0000 0.0000 0.0000
# 2 21.0337 82.2704 35.3037 0.0000 0.0000 0.0000
# 3 26.7414 35.3037 120.3679 0.0000 0.0000 0.0000
# 4 0.0000 0.0000 0.0000 -16.1463 0.0000 0.0000
# 5 0.0000 0.0000 0.0000 0.0000 10.8930 0.0000
# 6 0.0000 0.0000 0.0000 0.0000 0.0000 11.3761
#
#
#
# Elastic Compliance Matrix: (Units=1/GPa)
#
#
# Indices 1 2 3 4 5 6 
#
# 1 0.007293 -0.001338 -0.001228 0.000000 0.000000 0.000000
# 2 -0.001338 0.014150 -0.003853 0.000000 0.000000 0.000000
# 3 -0.001228 -0.003853 0.009711 0.000000 0.000000 0.000000
# 4 0.000000 0.000000 0.000000 -0.061934 0.000000 0.000000
# 5 0.000000 0.000000 0.000000 0.000000 0.091802 0.000000
# 6 0.000000 0.000000 0.000000 0.000000 0.000000 0.087903
#
#
# Mechanical properties :
#
#
# Convention : Reuss Voigt Hill
#
# Bulk Modulus (GPa) = 54.59491 57.14227 55.86859
# Shear Modulus (GPa) = 29.78522 18.89416 24.33969
#
# Velocity S-wave (km/s) = 3.87952 3.08988 3.50699
# Velocity P-wave (km/s) = 6.90323 6.45012 6.68052
#
# Compressibility (1/GPa) = 0.01831673
#
# Stress axis : x y z
#
# Youngs Moduli (GPa) = 137.12422 70.66899 102.97839
#
# Poissons Ratio (x) = 0.09453 0.12644
# Poissons Ratio (y) = 0.18342 0.39679
# Poissons Ratio (z) = 0.16837 0.27230
#
# Static dielectric constant tensor:
#      x y z
#    x 4.244780 0.000000 0.000000 
#    y 0.000000 3.227200 0.000000 
#    z 0.000000 0.000000 3.483240 
# 
# 
# High freq. dielectric constant tensor:
#      x y z
#    x 1.789310 0.000000 0.000000 
#    y 0.000000 1.728910 0.000000 
#    z 0.000000 0.000000 1.782830 
# 
# From -- ./inp_files/52452.got.cif
#   From: 2010.03.12/outbox.cif.g09.slc.cpg/sg66_27_cif.got.tgz:52452.got - 2010.04.10 21:57:39.
