data_PCOD8275061
_publ_section_title
;
Structure prediction by ZEFSAII (Michael W. Deem and Ramdas Pophale) SiO2 
 PCOD8275061
Probable space group: C M M M
;
_chemical_formula_sum "Si O2"
_cell_formula_units_Z 88
_cell_length_a 9.592552
_cell_length_b 19.616633
_cell_length_c 27.733347
_cell_angle_alpha 90.000000
_cell_angle_beta 90.000000
_cell_angle_gamma 90.000000
_cell_volume 5218.682972
_symmetry_space_group_name_H-M "C M M M"
_symmetry_group_IT_number 65
_symmetry_cell_setting 'orthorhombic'
loop_
_space_group_symop_operation_xyz
x,y,z
-x,-y,z
x,-y,-z
-x,y,-z
-x,-y,-z
x,y,-z
-x,y,z
x,-y,z
1/2+x,1/2+y,z
1/2-x,1/2-y,z
1/2+x,1/2-y,-z
1/2-x,1/2+y,-z
1/2-x,1/2-y,-z
1/2+x,1/2+y,-z
1/2-x,1/2+y,z
1/2+x,1/2-y,z
loop_
_atom_site_type_symbol
_atom_site_label
_atom_site_fract_x
_atom_site_fract_y
_atom_site_fract_z
Si Si1 0.161620 0.185414 0.279851
Si Si2 0.156736 0.419013 0.446909
Si Si3 0.839325 0.814118 0.169892
Si Si4 0.841754 0.419008 0.000000
Si Si5 0.338053 0.578037 0.640712
Si Si6 0.660703 0.578744 0.910372
O O1 0.250000 0.250000 0.297464
O O2 0.198440 0.166342 0.224783
O O3 0.202956 0.120558 0.312013
O O4 0.000000 0.204300 0.285762
O O5 0.203342 0.392184 0.500000
O O6 0.163599 0.500000 0.447065
O O7 0.257957 0.390541 0.405433
O O8 0.000000 0.394176 0.435748
O O9 0.750000 0.750000 0.151853
O O10 0.803129 0.879504 0.137644
O O11 0.000000 0.793180 0.164872
O O12 0.759339 0.393022 0.952924
O O13 0.842075 0.500000 0.000000
O O14 0.000000 0.390248 0.000000
O O15 0.500000 0.583974 0.628546
O O16 0.294519 0.500000 0.650997
O O17 0.500000 0.588613 0.926213
O O18 0.692157 0.500000 0.898792
#
# Coordination Sequence:
#
# PCOD8275061 Si02
#       6
#    16  16  16   8  16  16
#     4   9  18  32  48  66  90 121 153 183 221 269
#     4   8  14  25  41  62  89 119 148 179 219 267
#     4   9  18  32  49  68  91 120 152 186 224 266
#     4   9  17  29  46  69  96 123 149 181 224 269
#     4   9  17  28  44  68  94 117 145 185 227 264
#     4   9  17  30  49  71  93 119 152 187 222 263
#
# _framework density 16.862493000000001
#
# number of rings (size 3 to 8) (size 9 to 14) (size 15 to 20)
#    0.000    3.182    0.000    0.818    0.000    3.636 
#    0.000    5.909    0.000    0.545    0.000   10.182 
#    0.000    0.000    0.000    0.000    0.000    0.000 
#
# Total GULP energy -545500.373047 kJ/mol
# GULP energy per Si atom -12397.735751 kJ/mol
# Density = 1.682411 g / cm^3
# Si number density = 16.862493 Si / 1000 Ang^3
#
#
#
# Elastic Constant Matrix: (Units=GPa)
#
#
# Indices 1 2 3 4 5 6 
#
# 1 73.5930 44.4475 65.1406 0.0000 0.0000 0.0000
# 2 44.4475 70.4000 62.4930 0.0000 0.0000 0.0000
# 3 65.1406 62.4930 124.4810 0.0000 0.0000 0.0000
# 4 0.0000 0.0000 0.0000 9.5035 0.0000 0.0000
# 5 0.0000 0.0000 0.0000 0.0000 27.9482 0.0000
# 6 0.0000 0.0000 0.0000 0.0000 0.0000 22.5655
#
#
#
# Elastic Compliance Matrix: (Units=1/GPa)
#
#
# Indices 1 2 3 4 5 6 
#
# 1 0.027801 -0.008367 -0.010348 0.000000 0.000000 0.000000
# 2 -0.008367 0.028141 -0.009750 0.000000 0.000000 0.000000
# 3 -0.010348 -0.009750 0.018343 0.000000 0.000000 0.000000
# 4 0.000000 0.000000 0.000000 0.105224 0.000000 0.000000
# 5 0.000000 0.000000 0.000000 0.000000 0.035780 0.000000
# 6 0.000000 0.000000 0.000000 0.000000 0.000000 0.044315
#
#
# Mechanical properties :
#
#
# Convention : Reuss Voigt Hill
#
# Bulk Modulus (GPa) = 57.61329 68.07070 62.84199
# Shear Modulus (GPa) = 15.51261 18.42963 16.97112
#
# Velocity S-wave (km/s) = 3.03635 3.30955 3.17589
# Velocity P-wave (km/s) = 6.82153 7.42023 7.12717
#
# Compressibility (1/GPa) = 0.01735710
#
# Stress axis : x y z
#
# Youngs Moduli (GPa) = 35.97033 35.53484 54.51702
#
# Poissons Ratio (x) = 0.29731 0.56413
# Poissons Ratio (y) = 0.30095 0.53152
# Poissons Ratio (z) = 0.37221 0.34645
#
# Static dielectric constant tensor:
#      x y z
#    x 3.256490 0.000000 0.000000 
#    y 0.000000 2.893340 0.000000 
#    z 0.000000 0.000000 3.375030 
# 
# 
# High freq. dielectric constant tensor:
#      x y z
#    x 1.650100 0.000000 0.000000 
#    y 0.000000 1.614980 0.000000 
#    z 0.000000 0.000000 1.656810 
# 
# From -- ./inp_files/75375.got.cif
#   From: 2010.03.12/outbox.cif.g09.slc.cpg/sg65_38_cif.got.tgz:75375.got - 2010.04.10 20:52:16.
