data_PCOD8275949
_publ_section_title
;
Structure prediction by ZEFSAII (Michael W. Deem and Ramdas Pophale) SiO2 
 PCOD8275949
Probable space group: C C C M
;
_chemical_formula_sum "Si O2"
_cell_formula_units_Z 112
_cell_length_a 27.519492
_cell_length_b 12.483143
_cell_length_c 16.645964
_cell_angle_alpha 90.000000
_cell_angle_beta 90.000000
_cell_angle_gamma 90.000000
_cell_volume 5718.383917
_symmetry_space_group_name_H-M "C C C M"
_symmetry_group_IT_number 66
_symmetry_cell_setting 'orthorhombic'
loop_
_space_group_symop_operation_xyz
x,y,z
-x,-y,z
x,-y,1/2-z
-x,y,1/2-z
-x,-y,-z
x,y,-z
-x,y,1/2+z
x,-y,1/2+z
1/2+x,1/2+y,z
1/2-x,1/2-y,z
1/2+x,1/2-y,1/2-z
1/2-x,1/2+y,1/2-z
1/2-x,1/2-y,-z
1/2+x,1/2+y,-z
1/2-x,1/2+y,1/2+z
1/2+x,1/2-y,1/2+z
loop_
_atom_site_type_symbol
_atom_site_label
_atom_site_fract_x
_atom_site_fract_y
_atom_site_fract_z
Si Si1 0.372526 0.094435 0.198014
Si Si2 0.860005 0.119266 0.094254
Si Si3 0.056389 0.006177 0.155612
Si Si4 0.394678 0.279886 0.905410
Si Si5 0.305610 0.411525 0.094377
Si Si6 0.206790 0.510346 0.406865
Si Si7 0.199858 0.300701 0.679274
O O1 0.408260 0.182357 0.156394
O O2 0.328821 0.142776 0.249543
O O3 0.400024 0.000000 0.250000
O O4 0.346302 0.039357 0.123341
O O5 0.916748 0.095972 0.114751
O O6 0.838966 0.220634 0.140328
O O7 0.832675 0.015388 0.129690
O O8 0.853464 0.138716 0.000000
O O9 0.066711 0.000000 0.250000
O O10 0.073526 0.117904 0.116737
O O11 0.000000 0.000000 0.135188
O O12 0.337243 0.305228 0.886577
O O13 0.402354 0.250973 0.000000
O O14 0.250366 0.412452 0.128021
O O15 0.304631 0.428920 0.000000
O O16 0.205193 0.527109 0.500000
O O17 0.217913 0.386908 0.386354
O O18 0.250000 0.250000 0.712188
#
# Coordination Sequence:
#
# PCOD8275949 Si02
#       7
#    16  16  16  16  16  16  16
#     4  10  23  36  47  74 108 148 195 243 284 338
#     4  10  19  33  53  79 109 147 186 229 282 341
#     4  10  21  38  60  91 125 150 179 229 296 365
#     4  10  20  36  58  81 110 155 196 238 293 349
#     4   8  16  28  45  72 103 137 183 228 274 324
#     4  10  19  33  49  68  99 144 195 242 274 328
#     4  11  21  32  49  74 108 147 190 239 294 343
#
# _framework density 19.585954000000001
#
# number of rings (size 3 to 8) (size 9 to 14) (size 15 to 20)
#    0.000    2.143    1.429    3.000    2.000    1.714 
#    0.000    2.143    0.000    0.000    0.000   17.000 
#    0.000   24.000    0.000    0.000    0.000    0.000 
#
# Total GULP energy -693783.109522 kJ/mol
# GULP energy per Si atom -12388.984099 kJ/mol
# Density = 1.954138 g / cm^3
# Si number density = 19.585954 Si / 1000 Ang^3
#
#
#
# Elastic Constant Matrix: (Units=GPa)
#
#
# Indices 1 2 3 4 5 6 
#
# 1 56.6418 23.9869 15.6453 0.0000 0.0000 0.0000
# 2 23.9869 89.3704 38.9933 0.0000 0.0000 0.0000
# 3 15.6453 38.9933 62.4586 0.0000 0.0000 0.0000
# 4 0.0000 0.0000 0.0000 35.1969 0.0000 0.0000
# 5 0.0000 0.0000 0.0000 0.0000 18.5234 0.0000
# 6 0.0000 0.0000 0.0000 0.0000 0.0000 18.0329
#
#
#
# Elastic Compliance Matrix: (Units=1/GPa)
#
#
# Indices 1 2 3 4 5 6 
#
# 1 0.020156 -0.004408 -0.002297 0.000000 0.000000 0.000000
# 2 -0.004408 0.016342 -0.009098 0.000000 0.000000 0.000000
# 3 -0.002297 -0.009098 0.022266 0.000000 0.000000 0.000000
# 4 0.000000 0.000000 0.000000 0.028412 0.000000 0.000000
# 5 0.000000 0.000000 0.000000 0.000000 0.053986 0.000000
# 6 0.000000 0.000000 0.000000 0.000000 0.000000 0.055454
#
#
# Mechanical properties :
#
#
# Convention : Reuss Voigt Hill
#
# Bulk Modulus (GPa) = 36.82172 40.63575 38.72873
# Shear Modulus (GPa) = 21.07261 23.00699 22.03980
#
# Velocity S-wave (km/s) = 3.28366 3.43106 3.35817
# Velocity P-wave (km/s) = 5.76345 6.04059 5.90365
#
# Compressibility (1/GPa) = 0.02715788
#
# Stress axis : x y z
#
# Youngs Moduli (GPa) = 49.61341 61.19160 44.91100
#
# Poissons Ratio (x) = 0.26970 0.10317
# Poissons Ratio (y) = 0.21867 0.40862
# Poissons Ratio (z) = 0.11397 0.55675
#
# Static dielectric constant tensor:
#      x y z
#    x 3.395850 0.000000 0.000000 
#    y 0.000000 3.782820 0.000000 
#    z 0.000000 0.000000 3.561640 
# 
# 
# High freq. dielectric constant tensor:
#      x y z
#    x 1.722140 0.000000 0.000000 
#    y 0.000000 1.761800 0.000000 
#    z 0.000000 0.000000 1.770300 
# 
# From -- ./inp_files/33800.got.cif
#   From: 2010.03.12/outbox.cif.g09.slc.cpg/sg66_17_cif.got.tgz:33800.got - 2010.04.10 21:57:39.
