data_PCOD8275966
_publ_section_title
;
Structure prediction by ZEFSAII (Michael W. Deem and Ramdas Pophale) SiO2 
 PCOD8275966
Probable space group: C C C M
;
_chemical_formula_sum "Si O2"
_cell_formula_units_Z 80
_cell_length_a 18.462120
_cell_length_b 25.657321
_cell_length_c 8.621193
_cell_angle_alpha 90.000000
_cell_angle_beta 90.000000
_cell_angle_gamma 90.000000
_cell_volume 4083.760318
_symmetry_space_group_name_H-M "C C C M"
_symmetry_group_IT_number 66
_symmetry_cell_setting 'orthorhombic'
loop_
_space_group_symop_operation_xyz
x,y,z
-x,-y,z
x,-y,1/2-z
-x,y,1/2-z
-x,-y,-z
x,y,-z
-x,y,1/2+z
x,-y,1/2+z
1/2+x,1/2+y,z
1/2-x,1/2-y,z
1/2+x,1/2-y,1/2-z
1/2-x,1/2+y,1/2-z
1/2-x,1/2-y,-z
1/2+x,1/2+y,-z
1/2-x,1/2+y,1/2+z
1/2+x,1/2-y,1/2+z
loop_
_atom_site_type_symbol
_atom_site_label
_atom_site_fract_x
_atom_site_fract_y
_atom_site_fract_z
Si Si1 0.423289 0.443951 0.316967
Si Si2 0.578738 0.054688 0.684086
Si Si3 0.832939 0.852876 0.816150
Si Si4 0.668865 0.846758 0.816156
Si Si5 0.579827 0.251384 0.316274
O O1 0.401810 0.500000 0.250000
O O2 0.500000 0.424487 0.250000
O O3 0.429893 0.447959 0.500000
O O4 0.361336 0.404001 0.269062
O O5 0.500000 0.067867 0.750000
O O6 0.574006 0.051381 0.500000
O O7 0.633039 0.099543 0.741959
O O8 0.608119 0.000000 0.750000
O O9 0.751199 0.843622 0.757782
O O10 0.880082 0.803699 0.761850
O O11 0.836755 0.861382 0.000000
O O12 0.624166 0.797838 0.748433
O O13 0.667067 0.843962 0.000000
O O14 0.500000 0.250692 0.250000
O O15 0.575832 0.248599 0.500000
#
# Coordination Sequence:
#
# PCOD8275966 Si02
#       5
#    16  16  16  16  16
#     4  11  22  38  59  83 111 144 184 225 269 319
#     4  10  19  33  53  76 104 137 178 222 266 317
#     4  10  20  36  57  81 111 144 180 223 272 325
#     4   9  19  35  55  79 107 143 183 222 267 323
#     4  10  20  35  57  81 107 142 183 225 270 323
#
# _framework density 19.589789
#
# number of rings (size 3 to 8) (size 9 to 14) (size 15 to 20)
#    0.000    2.000    0.000    5.400    0.000    5.600 
#    0.000    6.000    0.000    2.400    0.000    0.000 
#    0.000    0.000    0.000    0.000    0.000    0.000 
#
# Total GULP energy -496118.194711 kJ/mol
# GULP energy per Si atom -12402.954868 kJ/mol
# Density = 1.954520 g / cm^3
# Si number density = 19.589789 Si / 1000 Ang^3
#
#
#
# Elastic Constant Matrix: (Units=GPa)
#
#
# Indices 1 2 3 4 5 6 
#
# 1 171.8943 104.4370 34.4893 0.0000 0.0000 0.0000
# 2 104.4370 158.3752 40.5810 0.0000 0.0000 0.0000
# 3 34.4893 40.5810 69.2826 0.0000 0.0000 0.0000
# 4 0.0000 0.0000 0.0000 25.0843 0.0000 0.0000
# 5 0.0000 0.0000 0.0000 0.0000 27.2860 0.0000
# 6 0.0000 0.0000 0.0000 0.0000 0.0000 36.5839
#
#
#
# Elastic Compliance Matrix: (Units=1/GPa)
#
#
# Indices 1 2 3 4 5 6 
#
# 1 0.009803 -0.006135 -0.001287 0.000000 0.000000 0.000000
# 2 -0.006135 0.011268 -0.003546 0.000000 0.000000 0.000000
# 3 -0.001287 -0.003546 0.017151 0.000000 0.000000 0.000000
# 4 0.000000 0.000000 0.000000 0.039866 0.000000 0.000000
# 5 0.000000 0.000000 0.000000 0.000000 0.036649 0.000000
# 6 0.000000 0.000000 0.000000 0.000000 0.000000 0.027334
#
#
# Mechanical properties :
#
#
# Convention : Reuss Voigt Hill
#
# Bulk Modulus (GPa) = 61.39791 84.28519 72.84155
# Shear Modulus (GPa) = 29.50981 32.46050 30.98515
#
# Velocity S-wave (km/s) = 3.88543 4.07506 3.98137
# Velocity P-wave (km/s) = 7.17904 8.07836 7.64194
#
# Compressibility (1/GPa) = 0.01628720
#
# Stress axis : x y z
#
# Youngs Moduli (GPa) = 102.01118 88.74614 58.30457
#
# Poissons Ratio (x) = 0.54442 0.07502
# Poissons Ratio (y) = 0.62579 0.20676
# Poissons Ratio (z) = 0.13126 0.31472
#
# Static dielectric constant tensor:
#      x y z
#    x 3.840620 0.000000 0.000000 
#    y 0.000000 3.837630 0.000000 
#    z 0.000000 0.000000 3.352610 
# 
# 
# High freq. dielectric constant tensor:
#      x y z
#    x 1.768880 0.000000 0.000000 
#    y 0.000000 1.780930 0.000000 
#    z 0.000000 0.000000 1.742640 
# 
# From -- ./inp_files/6706.got.cif
#   From: 2010.03.12/outbox.cif.g09.slc.cpg/sg66_4_cif.got.tgz:6706.got - 2010.04.10 21:57:39.
