data_PCOD8275058
_publ_section_title
;
Structure prediction by ZEFSAII (Michael W. Deem and Ramdas Pophale) SiO2 
 PCOD8275058
Probable space group: C M M M
;
_chemical_formula_sum "Si O2"
_cell_formula_units_Z 72
_cell_length_a 19.215190
_cell_length_b 9.767255
_cell_length_c 22.783037
_cell_angle_alpha 90.000000
_cell_angle_beta 90.000000
_cell_angle_gamma 90.000000
_cell_volume 4275.912652
_symmetry_space_group_name_H-M "C M M M"
_symmetry_group_IT_number 65
_symmetry_cell_setting 'orthorhombic'
loop_
_space_group_symop_operation_xyz
x,y,z
-x,-y,z
x,-y,-z
-x,y,-z
-x,-y,-z
x,y,-z
-x,y,z
x,-y,z
1/2+x,1/2+y,z
1/2-x,1/2-y,z
1/2+x,1/2-y,-z
1/2-x,1/2+y,-z
1/2-x,1/2-y,-z
1/2+x,1/2+y,-z
1/2-x,1/2+y,z
1/2+x,1/2-y,z
loop_
_atom_site_type_symbol
_atom_site_label
_atom_site_fract_x
_atom_site_fract_y
_atom_site_fract_z
Si Si1 0.685664 0.342929 0.268256
Si Si2 0.577300 0.661486 0.500000
Si Si3 0.183930 0.159377 0.597588
Si Si4 0.917313 0.653851 0.935143
Si Si5 0.579994 0.342113 0.168202
O O1 0.708586 0.500000 0.260280
O O2 0.750000 0.250000 0.248974
O O3 0.662935 0.313367 0.335051
O O4 0.620442 0.305500 0.227599
O O5 0.569168 0.500000 0.500000
O O6 0.500000 0.728727 0.500000
O O7 0.618997 0.707759 0.558119
O O8 0.250000 0.250000 0.579366
O O9 0.202266 0.000000 0.586409
O O10 0.892741 0.500000 0.920045
O O11 0.887625 0.756076 0.885853
O O12 0.000000 0.662075 0.935550
O O13 0.889544 0.696098 0.000000
O O14 0.500000 0.303141 0.179953
O O15 0.588309 0.500000 0.150891
#
# Coordination Sequence:
#
# PCOD8275058 Si02
#       5
#    16   8  16  16  16
#     4   9  18  31  46  65  89 118 150 183 220 261
#     4   9  17  28  45  71  96 117 146 184 224 263
#     4   9  17  30  48  67  88 117 152 186 218 258
#     4   8  14  25  41  62  88 116 145 177 215 261
#     4   9  17  28  43  65  90 114 143 181 224 265
#
# _framework density 16.838509999999999
#
# number of rings (size 3 to 8) (size 9 to 14) (size 15 to 20)
#    0.000    3.222    0.000    1.000    0.000    2.222 
#    0.000    6.667    0.000    2.000    0.000    6.222 
#    0.000    0.000    0.000    0.000    0.000    0.000 
#
# Total GULP energy -446279.952006 kJ/mol
# GULP energy per Si atom -12396.665334 kJ/mol
# Density = 1.680018 g / cm^3
# Si number density = 16.838510 Si / 1000 Ang^3
#
#
#
# Elastic Constant Matrix: (Units=GPa)
#
#
# Indices 1 2 3 4 5 6 
#
# 1 93.3921 47.0198 71.5617 0.0000 0.0000 0.0000
# 2 47.0198 60.9658 58.6109 0.0000 0.0000 0.0000
# 3 71.5617 58.6109 129.1427 0.0000 0.0000 0.0000
# 4 0.0000 0.0000 0.0000 23.2035 0.0000 0.0000
# 5 0.0000 0.0000 0.0000 0.0000 12.1611 0.0000
# 6 0.0000 0.0000 0.0000 0.0000 0.0000 20.8372
#
#
#
# Elastic Compliance Matrix: (Units=1/GPa)
#
#
# Indices 1 2 3 4 5 6 
#
# 1 0.021015 -0.008893 -0.007609 0.000000 0.000000 0.000000
# 2 -0.008893 0.032862 -0.009987 0.000000 0.000000 0.000000
# 3 -0.007609 -0.009987 0.016492 0.000000 0.000000 0.000000
# 4 0.000000 0.000000 0.000000 0.043097 0.000000 0.000000
# 5 0.000000 0.000000 0.000000 0.000000 0.082229 0.000000
# 6 0.000000 0.000000 0.000000 0.000000 0.000000 0.047991
#
#
# Mechanical properties :
#
#
# Convention : Reuss Voigt Hill
#
# Bulk Modulus (GPa) = 57.49624 70.87615 64.18619
# Shear Modulus (GPa) = 16.53104 18.32758 17.42931
#
# Velocity S-wave (km/s) = 3.13667 3.30272 3.22077
# Velocity P-wave (km/s) = 6.88027 7.53173 7.21336
#
# Compressibility (1/GPa) = 0.01739244
#
# Stress axis : x y z
#
# Youngs Moduli (GPa) = 47.58424 30.43040 60.63449
#
# Poissons Ratio (x) = 0.27061 0.46139
# Poissons Ratio (y) = 0.42315 0.60553
# Poissons Ratio (z) = 0.36208 0.30389
#
# Static dielectric constant tensor:
#      x y z
#    x 2.988310 0.000000 0.000000 
#    y 0.000000 3.151380 0.000000 
#    z 0.000000 0.000000 3.421880 
# 
# 
# High freq. dielectric constant tensor:
#      x y z
#    x 1.617100 0.000000 0.000000 
#    y 0.000000 1.637550 0.000000 
#    z 0.000000 0.000000 1.661410 
# 
# From -- ./inp_files/64309.got.cif
#   From: 2010.03.12/outbox.cif.g09.slc.cpg/sg65_33_cif.got.tgz:64309.got - 2010.04.10 20:52:16.
