data_PCOD8275259
_publ_section_title
;
Structure prediction by ZEFSAII (Michael W. Deem and Ramdas Pophale) SiO2 
 PCOD8275259
Probable space group: C C C M
;
_chemical_formula_sum "Si O2"
_cell_formula_units_Z 88
_cell_length_a 19.958864
_cell_length_b 24.999799
_cell_length_c 8.992039
_cell_angle_alpha 90.000000
_cell_angle_beta 90.000000
_cell_angle_gamma 90.000000
_cell_volume 4486.736013
_symmetry_space_group_name_H-M "C C C M"
_symmetry_group_IT_number 66
_symmetry_cell_setting 'orthorhombic'
loop_
_space_group_symop_operation_xyz
x,y,z
-x,-y,z
x,-y,1/2-z
-x,y,1/2-z
-x,-y,-z
x,y,-z
-x,y,1/2+z
x,-y,1/2+z
1/2+x,1/2+y,z
1/2-x,1/2-y,z
1/2+x,1/2-y,1/2-z
1/2-x,1/2+y,1/2-z
1/2-x,1/2-y,-z
1/2+x,1/2+y,-z
1/2-x,1/2+y,1/2+z
1/2+x,1/2-y,1/2+z
loop_
_atom_site_type_symbol
_atom_site_label
_atom_site_fract_x
_atom_site_fract_y
_atom_site_fract_z
Si Si1 0.566897 0.666751 0.676666
Si Si2 0.695242 0.945832 0.177279
Si Si3 0.250000 0.750000 0.252873
Si Si4 0.890998 0.279779 0.164634
Si Si5 0.695560 0.359965 0.663979
Si Si6 0.070029 0.394599 0.320773
O O1 0.500000 0.642193 0.750000
O O2 0.562091 0.664212 0.500000
O O3 0.575435 0.727571 0.740014
O O4 0.632166 0.633572 0.726681
O O5 0.746272 0.898791 0.222519
O O6 0.624414 0.934961 0.255567
O O7 0.723967 0.000000 0.250000
O O8 0.686585 0.950742 0.000000
O O9 0.189261 0.727399 0.153934
O O10 0.276907 0.700633 0.350156
O O11 0.912226 0.335047 0.243293
O O12 0.920020 0.283349 0.000000
O O13 0.672235 0.377680 0.500000
O O14 0.069210 0.397819 0.500000
O O15 0.000000 0.412395 0.250000
#
# Coordination Sequence:
#
# PCOD8275259 Si02
#       6
#    16  16   8  16  16  16
#     4  10  20  34  54  83 120 159 195 231 280 341
#     4  11  24  43  63  87 114 150 195 244 291 343
#     4  10  16  32  54  86 117 150 189 232 291 338
#     4   9  18  30  50  81 118 156 193 235 282 339
#     4  10  21  36  58  87 118 150 189 235 289 346
#     4  11  22  38  58  84 115 154 196 244 293 341
#
# _framework density 19.613367
#
# number of rings (size 3 to 8) (size 9 to 14) (size 15 to 20)
#    0.000    1.818    1.818    2.727    0.000    2.545 
#    0.000    3.636    0.000    0.545    0.000    3.818 
#    0.000    0.000    0.000    0.000    0.000    0.000 
#
# Total GULP energy -545411.197183 kJ/mol
# GULP energy per Si atom -12395.709027 kJ/mol
# Density = 1.956873 g / cm^3
# Si number density = 19.613367 Si / 1000 Ang^3
#
#
#
# Elastic Constant Matrix: (Units=GPa)
#
#
# Indices 1 2 3 4 5 6 
#
# 1 141.6695 41.8603 51.7849 0.0000 0.0000 0.0000
# 2 41.8603 83.2543 32.5366 0.0000 0.0000 0.0000
# 3 51.7849 32.5366 97.3568 0.0000 0.0000 0.0000
# 4 0.0000 0.0000 0.0000 22.5371 0.0000 0.0000
# 5 0.0000 0.0000 0.0000 0.0000 33.1022 0.0000
# 6 0.0000 0.0000 0.0000 0.0000 0.0000 20.4815
#
#
#
# Elastic Compliance Matrix: (Units=1/GPa)
#
#
# Indices 1 2 3 4 5 6 
#
# 1 0.009452 -0.003206 -0.003956 0.000000 0.000000 0.000000
# 2 -0.003206 0.014904 -0.003275 0.000000 0.000000 0.000000
# 3 -0.003956 -0.003275 0.013470 0.000000 0.000000 0.000000
# 4 0.000000 0.000000 0.000000 0.044371 0.000000 0.000000
# 5 0.000000 0.000000 0.000000 0.000000 0.030209 0.000000
# 6 0.000000 0.000000 0.000000 0.000000 0.000000 0.048825
#
#
# Mechanical properties :
#
#
# Convention : Reuss Voigt Hill
#
# Bulk Modulus (GPa) = 58.99515 63.84935 61.42225
# Shear Modulus (GPa) = 26.63011 28.29741 27.46376
#
# Velocity S-wave (km/s) = 3.68877 3.80249 3.74606
# Velocity P-wave (km/s) = 6.94889 7.20439 7.07779
#
# Compressibility (1/GPa) = 0.01695055
#
# Stress axis : x y z
#
# Youngs Moduli (GPa) = 105.79530 67.09787 74.23712
#
# Poissons Ratio (x) = 0.21515 0.29369
# Poissons Ratio (y) = 0.33923 0.24314
# Poissons Ratio (z) = 0.41854 0.21976
#
# Static dielectric constant tensor:
#      x y z
#    x 3.581720 0.000000 0.000000 
#    y 0.000000 3.512840 0.000000 
#    z 0.000000 0.000000 3.326580 
# 
# 
# High freq. dielectric constant tensor:
#      x y z
#    x 1.768700 0.000000 0.000000 
#    y 0.000000 1.740480 0.000000 
#    z 0.000000 0.000000 1.755190 
# 
# From -- ./inp_files/7790.got.cif
#   From: 2010.03.12/outbox.cif.g09.slc.cpg/sg66_4_cif.got.tgz:7790.got - 2010.04.10 21:57:39.
