data_PCOD8275196
_publ_section_title
;
Structure prediction by ZEFSAII (Michael W. Deem and Ramdas Pophale) SiO2 
 PCOD8275196
Probable space group: C M M M
;
_chemical_formula_sum "Si O2"
_cell_formula_units_Z 40
_cell_length_a 9.000000
_cell_length_b 18.000000
_cell_length_c 27.000000
_cell_angle_alpha 90.000000
_cell_angle_beta 90.000000
_cell_angle_gamma 90.000000
_cell_volume 4374.000000
_symmetry_space_group_name_H-M "C M M M"
_symmetry_group_IT_number 65
_symmetry_cell_setting 'orthorhombic'
loop_
_space_group_symop_operation_xyz
x,y,z
-x,-y,z
x,-y,-z
-x,y,-z
-x,-y,-z
x,y,-z
-x,y,z
x,-y,z
1/2+x,1/2+y,z
1/2-x,1/2-y,z
1/2+x,1/2-y,-z
1/2-x,1/2+y,-z
1/2-x,1/2-y,-z
1/2+x,1/2+y,-z
1/2-x,1/2+y,z
1/2+x,1/2-y,z
loop_
_atom_site_type_symbol
_atom_site_label
_atom_site_fract_x
_atom_site_fract_y
_atom_site_fract_z
Si Si1 0.825039 0.411637 0.000000
Si Si2 0.676422 0.083648 0.598977
Si Si3 0.825963 0.329186 0.696061
Si Si4 0.176149 0.329732 0.806149
Si Si5 0.676801 0.830181 0.500000
Si Si6 0.319371 0.332307 0.094382
O O1 0.742702 0.380287 0.951285
O O2 0.807254 0.500000 0.000000
O O3 0.000000 0.388969 0.000000
O O4 0.500000 0.081921 0.599232
O O5 0.733947 0.119724 0.650826
O O6 0.731476 0.127351 0.549849
O O7 0.740209 0.000000 0.596313
O O8 0.750000 0.250000 0.691013
O O9 0.796074 0.366094 0.751166
O O10 0.000000 0.315630 0.689898
O O11 0.250000 0.250000 0.802241
O O12 0.259284 0.368806 0.853298
O O13 0.000000 0.325002 0.817557
O O14 0.500000 0.821990 0.500000
O O15 0.750000 0.750000 0.500000
O O16 0.500000 0.330431 0.093578
O O17 0.250000 0.250000 0.089498
#
# Coordination Sequence:
#
# PCOD8275196 Si02
#       6
#     8  16  16  16   8  16
#     4  11  24  41  58  77 105 139 174 213 258 309
#     4   9  17  30  48  71  98 129 167 207 247 296
#     4   9  17  29  48  72  98 129 165 207 250 295
#     4   9  16  28  47  73 101 129 166 208 253 299
#     4  10  19  31  51  75  97 126 164 208 254 300
#     4  11  21  35  57  82 108 137 173 215 257 304
#
# _framework density 9.1449470000000002
#
# number of rings (size 3 to 8) (size 9 to 14) (size 15 to 20)
#    0.000    2.300    0.000    5.100    0.000    2.800 
#    0.000    1.000    0.000    6.600    0.000    0.000 
#    0.000    0.000    0.000    0.000    0.000    0.000 
#
# Total GULP energy -495557.530497 kJ/mol
# GULP energy per Si atom -12388.938262 kJ/mol
# Density = 0.912413 g / cm^3
# Si number density = 9.144947 Si / 1000 Ang^3
#
#
#
# Elastic Constant Matrix: (Units=GPa)
#
#
# Indices 1 2 3 4 5 6 
#
# 1 105.7373 30.9822 54.5618 0.0000 0.0000 0.0000
# 2 30.9822 99.2006 72.6001 0.0000 0.0000 0.0000
# 3 54.5618 72.6001 231.3401 0.0000 0.0000 0.0000
# 4 0.0000 0.0000 0.0000 24.5538 0.0000 0.0000
# 5 0.0000 0.0000 0.0000 0.0000 29.0340 0.0000
# 6 0.0000 0.0000 0.0000 0.0000 0.0000 23.7241
#
#
#
# Elastic Compliance Matrix: (Units=1/GPa)
#
#
# Indices 1 2 3 4 5 6 
#
# 1 0.011067 -0.002007 -0.001980 0.000000 0.000000 0.000000
# 2 -0.002007 0.013450 -0.003748 0.000000 0.000000 0.000000
# 3 -0.001980 -0.003748 0.005966 0.000000 0.000000 0.000000
# 4 0.000000 0.000000 0.000000 0.040727 0.000000 0.000000
# 5 0.000000 0.000000 0.000000 0.000000 0.034442 0.000000
# 6 0.000000 0.000000 0.000000 0.000000 0.000000 0.042151
#
#
# Mechanical properties :
#
#
# Convention : Reuss Voigt Hill
#
# Bulk Modulus (GPa) = 66.60872 83.61845 75.11358
# Shear Modulus (GPa) = 29.71266 34.00465 31.85866
#
# Velocity S-wave (km/s) = 4.03493 4.31653 4.17810
# Velocity P-wave (km/s) = 7.62922 8.40600 8.02701
#
# Compressibility (1/GPa) = 0.01501305
#
# Stress axis : x y z
#
# Youngs Moduli (GPa) = 90.35519 74.34860 167.62254
#
# Poissons Ratio (x) = 0.14924 0.33195
# Poissons Ratio (y) = 0.18137 0.62818
# Poissons Ratio (z) = 0.17893 0.27863
#
# Static dielectric constant tensor:
#      x y z
#    x 3.458320 0.000000 0.000000 
#    y 0.000000 3.221950 0.000000 
#    z 0.000000 0.000000 4.479870 
# 
# 
# High freq. dielectric constant tensor:
#      x y z
#    x 1.707920 0.000000 0.000000 
#    y 0.000000 1.680740 0.000000 
#    z 0.000000 0.000000 1.760700 
# 
# From -- ./inp_files/72876.got.cif
#   From: 2010.03.12/outbox.ucp.g09.slc.cvg/sg65_37_cif.got.tgz:72876.got - 2010.05.04 19:44:54.
