data_PCOD8275006
_publ_section_title
;
Structure prediction by ZEFSAII (Michael W. Deem and Ramdas Pophale) SiO2 
 PCOD8275006
Probable space group: C M M M
;
_chemical_formula_sum "Si O2"
_cell_formula_units_Z 80
_cell_length_a 18.629104
_cell_length_b 27.047350
_cell_length_c 9.596160
_cell_angle_alpha 90.000000
_cell_angle_beta 90.000000
_cell_angle_gamma 90.000000
_cell_volume 4835.196950
_symmetry_space_group_name_H-M "C M M M"
_symmetry_group_IT_number 65
_symmetry_cell_setting 'orthorhombic'
loop_
_space_group_symop_operation_xyz
x,y,z
-x,-y,z
x,-y,-z
-x,y,-z
-x,-y,-z
x,y,-z
-x,y,z
x,-y,z
1/2+x,1/2+y,z
1/2-x,1/2-y,z
1/2+x,1/2-y,-z
1/2-x,1/2+y,-z
1/2-x,1/2-y,-z
1/2+x,1/2+y,-z
1/2-x,1/2+y,z
1/2+x,1/2-y,z
loop_
_atom_site_type_symbol
_atom_site_label
_atom_site_fract_x
_atom_site_fract_y
_atom_site_fract_z
Si Si1 0.777096 0.803768 0.162206
Si Si2 0.078498 0.445071 0.334967
Si Si3 0.214644 0.611285 0.661046
Si Si4 0.419584 0.642743 0.160554
Si Si5 0.640985 0.443498 0.660619
O O1 0.750000 0.750000 0.208520
O O2 0.728790 0.840554 0.249596
O O3 0.861501 0.814258 0.197597
O O4 0.762073 0.812518 0.000000
O O5 0.086679 0.448442 0.500000
O O6 0.087200 0.500000 0.271961
O O7 0.140671 0.410089 0.276361
O O8 0.000000 0.423618 0.294084
O O9 0.208207 0.626992 0.500000
O O10 0.275605 0.569885 0.681226
O O11 0.500000 0.663168 0.190894
O O12 0.407883 0.593114 0.249287
O O13 0.411070 0.627284 0.000000
O O14 0.618298 0.437133 0.500000
O O15 0.629041 0.500000 0.709688
#
# Coordination Sequence:
#
# PCOD8275006 Si02
#       5
#    16  16  16  16  16
#     4   9  18  33  50  65  83 110 144 180 219 262
#     4   8  13  22  39  64  92 120 147 174 207 250
#     4   9  16  27  45  67  89 113 145 183 216 250
#     4   9  18  32  48  65  86 113 145 179 213 252
#     4   9  17  28  43  65  92 120 147 175 210 252
#
# _framework density 16.545345000000001
#
# number of rings (size 3 to 8) (size 9 to 14) (size 15 to 20)
#    0.000    3.200    0.000    1.200    0.000    4.000 
#    0.000    3.000    0.000    3.600    0.000    1.400 
#    0.000    0.000    0.000    0.000    0.000    0.000 
#
# Total GULP energy -495767.078260 kJ/mol
# GULP energy per Si atom -12394.176957 kJ/mol
# Density = 1.650769 g / cm^3
# Si number density = 16.545345 Si / 1000 Ang^3
#
#
#
# Elastic Constant Matrix: (Units=GPa)
#
#
# Indices 1 2 3 4 5 6 
#
# 1 140.2404 70.9334 34.7040 0.0000 0.0000 0.0000
# 2 70.9334 119.0720 40.5822 0.0000 0.0000 0.0000
# 3 34.7040 40.5822 35.0223 0.0000 0.0000 0.0000
# 4 0.0000 0.0000 0.0000 21.8351 0.0000 0.0000
# 5 0.0000 0.0000 0.0000 0.0000 16.1353 0.0000
# 6 0.0000 0.0000 0.0000 0.0000 0.0000 19.9915
#
#
#
# Elastic Compliance Matrix: (Units=1/GPa)
#
#
# Indices 1 2 3 4 5 6 
#
# 1 0.010781 -0.004597 -0.005357 0.000000 0.000000 0.000000
# 2 -0.004597 0.015840 -0.013799 0.000000 0.000000 0.000000
# 3 -0.005357 -0.013799 0.049851 0.000000 0.000000 0.000000
# 4 0.000000 0.000000 0.000000 0.045798 0.000000 0.000000
# 5 0.000000 0.000000 0.000000 0.000000 0.061976 0.000000
# 6 0.000000 0.000000 0.000000 0.000000 0.000000 0.050021
#
#
# Mechanical properties :
#
#
# Convention : Reuss Voigt Hill
#
# Bulk Modulus (GPa) = 34.52255 65.19712 49.85983
# Shear Modulus (GPa) = 17.15686 21.46670 19.31178
#
# Velocity S-wave (km/s) = 3.22368 3.60592 3.42014
# Velocity P-wave (km/s) = 5.89634 7.53840 6.76736
#
# Compressibility (1/GPa) = 0.02896658
#
# Stress axis : x y z
#
# Youngs Moduli (GPa) = 92.75307 63.13173 20.05977
#
# Poissons Ratio (x) = 0.29022 0.10745
# Poissons Ratio (y) = 0.42639 0.27681
# Poissons Ratio (z) = 0.49683 0.87117
#
# Static dielectric constant tensor:
#      x y z
#    x 3.359050 0.000000 0.000000 
#    y 0.000000 3.022730 0.000000 
#    z 0.000000 0.000000 2.931880 
# 
# 
# High freq. dielectric constant tensor:
#      x y z
#    x 1.645920 0.000000 0.000000 
#    y 0.000000 1.618800 0.000000 
#    z 0.000000 0.000000 1.614500 
# 
# From -- ./inp_files/9622.got.cif
#   From: 2010.03.12/outbox.cif.g09.slc.cpg/sg65_5_cif.got.tgz:9622.got - 2010.04.10 20:52:16.
