data_PCOD8275280
_publ_section_title
;
Structure prediction by ZEFSAII (Michael W. Deem and Ramdas Pophale) SiO2 
 PCOD8275280
Probable space group: C C C M
;
_chemical_formula_sum "Si O2"
_cell_formula_units_Z 80
_cell_length_a 22.785078
_cell_length_b 27.309225
_cell_length_c 8.518461
_cell_angle_alpha 90.000000
_cell_angle_beta 90.000000
_cell_angle_gamma 90.000000
_cell_volume 5300.551210
_symmetry_space_group_name_H-M "C C C M"
_symmetry_group_IT_number 66
_symmetry_cell_setting 'orthorhombic'
loop_
_space_group_symop_operation_xyz
x,y,z
-x,-y,z
x,-y,1/2-z
-x,y,1/2-z
-x,-y,-z
x,y,-z
-x,y,1/2+z
x,-y,1/2+z
1/2+x,1/2+y,z
1/2-x,1/2-y,z
1/2+x,1/2-y,1/2-z
1/2-x,1/2+y,1/2-z
1/2-x,1/2-y,-z
1/2+x,1/2+y,-z
1/2-x,1/2+y,1/2+z
1/2+x,1/2-y,1/2+z
loop_
_atom_site_type_symbol
_atom_site_label
_atom_site_fract_x
_atom_site_fract_y
_atom_site_fract_z
Si Si1 0.437353 0.888206 0.683490
Si Si2 0.305456 0.714891 0.821003
Si Si3 0.874605 0.303818 0.182591
Si Si4 0.327282 0.945810 0.185261
Si Si5 0.732479 0.139636 0.317879
O O1 0.500000 0.904141 0.750000
O O2 0.434658 0.898616 0.500000
O O3 0.426021 0.830144 0.718059
O O4 0.388793 0.920753 0.769535
O O5 0.250000 0.750000 0.798350
O O6 0.362858 0.746800 0.767683
O O7 0.295675 0.665444 0.717681
O O8 0.313038 0.698386 0.000000
O O9 0.814785 0.333359 0.209487
O O10 0.891200 0.306853 0.000000
O O11 0.271991 0.917079 0.265115
O O12 0.326315 0.000000 0.250000
O O13 0.319635 0.946002 0.000000
O O14 0.716468 0.144933 0.500000
#
# Coordination Sequence:
#
# PCOD8275280 Si02
#       5
#    16  16  16  16  16
#     4  11  21  33  46  60  77 100 132 168 207 243
#     4   8  14  24  38  56  78 101 122 148 186 230
#     4   9  16  27  41  57  77 100 125 155 193 233
#     4  11  21  34  47  59  76  99 131 169 208 243
#     4  10  17  25  39  59  79  99 124 154 191 233
#
# _framework density 15.092769000000001
#
# number of rings (size 3 to 8) (size 9 to 14) (size 15 to 20)
#    0.000    2.200    0.000    9.600    0.000    4.800 
#    0.000    2.000    0.000    0.000    0.000    0.000 
#    0.000    0.000    0.000    0.000    0.000    1.000 
#
# Total GULP energy -495554.302007 kJ/mol
# GULP energy per Si atom -12388.857550 kJ/mol
# Density = 1.505842 g / cm^3
# Si number density = 15.092769 Si / 1000 Ang^3
#
#
#
# Elastic Constant Matrix: (Units=GPa)
#
#
# Indices 1 2 3 4 5 6 
#
# 1 13.7295 37.3238 10.1066 0.0000 0.0000 0.0000
# 2 37.3238 99.7519 28.0007 0.0000 0.0000 0.0000
# 3 10.1066 28.0007 66.0938 0.0000 0.0000 0.0000
# 4 0.0000 0.0000 0.0000 22.5301 0.0000 0.0000
# 5 0.0000 0.0000 0.0000 0.0000 17.1790 0.0000
# 6 0.0000 0.0000 0.0000 0.0000 0.0000 25.7374
#
#
#
# Elastic Compliance Matrix: (Units=1/GPa)
#
#
# Indices 1 2 3 4 5 6 
#
# 1 -4.198120 1.578289 -0.026695 0.000000 0.000000 0.000000
# 2 1.578289 -0.581982 0.005216 0.000000 0.000000 0.000000
# 3 -0.026695 0.005216 0.017002 0.000000 0.000000 0.000000
# 4 0.000000 0.000000 0.000000 0.044385 0.000000 0.000000
# 5 0.000000 0.000000 0.000000 0.000000 0.058211 0.000000
# 6 0.000000 0.000000 0.000000 0.000000 0.000000 0.038854
#
#
# Mechanical properties :
#
#
# Convention : Reuss Voigt Hill
#
# Bulk Modulus (GPa) = -0.60625 36.71527 18.05451
# Shear Modulus (GPa) = -0.60349 20.03225 9.71438
#
# Velocity S-wave (km/s) = -0.63303 3.64713 2.53977
# Velocity P-wave (km/s) = 0.96791 6.48958 4.53750
#
# Compressibility (1/GPa) = -1.64948003
#
# Stress axis : x y z
#
# Youngs Moduli (GPa) = -0.23820 -1.71827 58.81531
#
# Poissons Ratio (x) = 2.71192 1.57008
# Poissons Ratio (y) = 0.37595 -0.30677
# Poissons Ratio (z) = -0.00636 0.00896
#
# Static dielectric constant tensor:
#      x y z
#    x 2.817050 0.000000 0.000000 
#    y 0.000000 3.431140 0.000000 
#    z 0.000000 0.000000 2.947740 
# 
# 
# High freq. dielectric constant tensor:
#      x y z
#    x 1.517850 0.000000 0.000000 
#    y 0.000000 1.567880 0.000000 
#    z 0.000000 0.000000 1.594400 
# 
# From -- ./inp_files/8214.got.cif
#   From: 2010.03.12/outbox.cif.g09.slc.cpg/sg66_5_cif.got.tgz:8214.got - 2010.04.10 21:57:39.
