data_PCOD8275263
_publ_section_title
;
Structure prediction by ZEFSAII (Michael W. Deem and Ramdas Pophale) SiO2 
 PCOD8275263
Probable space group: C C C M
;
_chemical_formula_sum "Si O2"
_cell_formula_units_Z 72
_cell_length_a 15.920914
_cell_length_b 7.630364
_cell_length_c 25.686311
_cell_angle_alpha 90.000000
_cell_angle_beta 90.000000
_cell_angle_gamma 90.000000
_cell_volume 3120.433912
_symmetry_space_group_name_H-M "C C C M"
_symmetry_group_IT_number 66
_symmetry_cell_setting 'orthorhombic'
loop_
_space_group_symop_operation_xyz
x,y,z
-x,-y,z
x,-y,1/2-z
-x,y,1/2-z
-x,-y,-z
x,y,-z
-x,y,1/2+z
x,-y,1/2+z
1/2+x,1/2+y,z
1/2-x,1/2-y,z
1/2+x,1/2-y,1/2-z
1/2-x,1/2+y,1/2-z
1/2-x,1/2-y,-z
1/2+x,1/2+y,-z
1/2-x,1/2+y,1/2+z
1/2+x,1/2-y,1/2+z
loop_
_atom_site_type_symbol
_atom_site_label
_atom_site_fract_x
_atom_site_fract_y
_atom_site_fract_z
Si Si1 0.000000 0.500000 0.907359
Si Si2 0.595146 0.271015 0.736552
Si Si3 0.570800 0.639957 0.058468
Si Si4 0.639979 0.930597 0.329694
Si Si5 0.305547 0.583016 0.347800
O O1 0.039372 0.341364 0.940597
O O2 0.073669 0.598630 0.875671
O O3 0.500000 0.312758 0.750000
O O4 0.642145 0.235261 0.791009
O O5 0.632406 0.435723 0.702949
O O6 0.604243 0.102472 0.699250
O O7 0.500000 0.500000 0.073806
O O8 0.646766 0.607608 0.098086
O O9 0.603418 0.602934 0.000000
O O10 0.735428 0.932034 0.351835
O O11 0.250000 0.750000 0.334150
#
# Coordination Sequence:
#
# PCOD8275263 Si02
#       5
#     8  16  16  16  16
#     4  12  19  43  72  94 126 178 218 262 346 400
#     4  10  16  32  58  88 124 177 219 255 320 394
#     4  11  25  45  68  97 130 168 223 284 333 390
#     4  10  18  33  64  93 124 173 221 260 320 400
#     4  10  20  39  61  93 135 172 219 266 332 389
#
# _framework density 23.073713000000001
#
# number of rings (size 3 to 8) (size 9 to 14) (size 15 to 20)
#    0.000    1.556    6.667    1.000    0.000    0.444 
#    0.000   25.556    0.000    2.667    0.000    0.000 
#    0.000    0.000    0.000    0.000    0.000    0.000 
#
# Total GULP energy -446133.083156 kJ/mol
# GULP energy per Si atom -12392.585643 kJ/mol
# Density = 2.302120 g / cm^3
# Si number density = 23.073713 Si / 1000 Ang^3
#
#
#
# Elastic Constant Matrix: (Units=GPa)
#
#
# Indices 1 2 3 4 5 6 
#
# 1 181.7541 23.8956 80.3665 0.0000 0.0000 0.0000
# 2 23.8956 87.4707 12.0012 0.0000 0.0000 0.0000
# 3 80.3665 12.0012 122.0828 0.0000 0.0000 0.0000
# 4 0.0000 0.0000 0.0000 -16.8586 0.0000 0.0000
# 5 0.0000 0.0000 0.0000 0.0000 29.3898 0.0000
# 6 0.0000 0.0000 0.0000 0.0000 0.0000 4.3989
#
#
#
# Elastic Compliance Matrix: (Units=1/GPa)
#
#
# Indices 1 2 3 4 5 6 
#
# 1 0.007944 -0.001473 -0.005085 0.000000 0.000000 0.000000
# 2 -0.001473 0.011862 -0.000197 0.000000 0.000000 0.000000
# 3 -0.005085 -0.000197 0.011558 0.000000 0.000000 0.000000
# 4 0.000000 0.000000 0.000000 -0.059317 0.000000 0.000000
# 5 0.000000 0.000000 0.000000 0.000000 0.034025 0.000000
# 6 0.000000 0.000000 0.000000 0.000000 0.000000 0.227330
#
#
# Mechanical properties :
#
#
# Convention : Reuss Voigt Hill
#
# Bulk Modulus (GPa) = 56.00517 69.31491 62.66004
# Shear Modulus (GPa) = 19.77370 21.72232 20.74801
#
# Velocity S-wave (km/s) = 2.93060 3.07160 3.00193
# Velocity P-wave (km/s) = 5.98132 6.53342 6.26345
#
# Compressibility (1/GPa) = 0.01785549
#
# Stress axis : x y z
#
# Youngs Moduli (GPa) = 125.88418 84.30534 86.52252
#
# Poissons Ratio (x) = 0.12414 0.43993
# Poissons Ratio (y) = 0.18536 0.01702
# Poissons Ratio (z) = 0.64007 0.01658
#
# Static dielectric constant tensor:
#      x y z
#    x 5.265140 0.000000 0.000000 
#    y 0.000000 4.423630 0.000000 
#    z 0.000000 0.000000 4.017520 
# 
# 
# High freq. dielectric constant tensor:
#      x y z
#    x 1.921080 0.000000 0.000000 
#    y 0.000000 1.917460 0.000000 
#    z 0.000000 0.000000 1.897130 
# 
# From -- ./inp_files/64330.got.cif
#   From: 2010.03.12/outbox.cif.g09.slc.cpg/sg66_33_cif.got.tgz:64330.got - 2010.04.10 21:57:39.
