data_PCOD8275469
_publ_section_title
;
Structure prediction by ZEFSAII (Michael W. Deem and Ramdas Pophale) SiO2 
 PCOD8275469
Probable space group: C C C M
;
_chemical_formula_sum "Si O2"
_cell_formula_units_Z 96
_cell_length_a 30.663367
_cell_length_b 11.956173
_cell_length_c 15.764884
_cell_angle_alpha 90.000000
_cell_angle_beta 90.000000
_cell_angle_gamma 90.000000
_cell_volume 5779.666920
_symmetry_space_group_name_H-M "C C C M"
_symmetry_group_IT_number 66
_symmetry_cell_setting 'orthorhombic'
loop_
_space_group_symop_operation_xyz
x,y,z
-x,-y,z
x,-y,1/2-z
-x,y,1/2-z
-x,-y,-z
x,y,-z
-x,y,1/2+z
x,-y,1/2+z
1/2+x,1/2+y,z
1/2-x,1/2-y,z
1/2+x,1/2-y,1/2-z
1/2-x,1/2+y,1/2-z
1/2-x,1/2-y,-z
1/2+x,1/2+y,-z
1/2-x,1/2+y,1/2+z
1/2+x,1/2-y,1/2+z
loop_
_atom_site_type_symbol
_atom_site_label
_atom_site_fract_x
_atom_site_fract_y
_atom_site_fract_z
Si Si1 0.763704 0.428411 0.500000
Si Si2 0.608293 0.399371 0.903756
Si Si3 0.232506 0.572348 0.166020
Si Si4 0.547474 0.630885 0.261435
Si Si5 0.682353 0.711222 0.675957
Si Si6 0.178316 0.209207 0.000000
Si Si7 0.369580 0.639783 0.662394
O O1 0.775673 0.496422 0.415891
O O2 0.794487 0.321550 0.500000
O O3 0.712414 0.394587 0.500000
O O4 0.565276 0.351362 0.857117
O O5 0.645968 0.306183 0.896839
O O6 0.627480 0.507560 0.855381
O O7 0.596070 0.427432 0.000000
O O8 0.237879 0.500000 0.250000
O O9 0.275425 0.643315 0.148260
O O10 0.192079 0.656626 0.180438
O O11 0.541755 0.500000 0.250000
O O12 0.500000 0.689549 0.250000
O O13 0.582400 0.680906 0.193680
O O14 0.666097 0.664506 0.766088
O O15 0.145966 0.205841 0.920150
#
# Coordination Sequence:
#
# PCOD8275469 Si02
#       7
#     8  16  16  16  16   8  16
#     4  11  24  33  50  70 103 132 171 217 245 287
#     4  10  18  29  49  75  97 132 166 197 238 294
#     4  11  22  35  48  71  96 133 170 211 250 283
#     4   8  16  31  45  68 105 131 157 193 241 288
#     4  10  21  32  51  65 100 130 169 203 247 284
#     4  11  20  34  50  71  97 133 175 202 245 286
#     4  10  18  32  51  72  95 137 165 202 234 300
#
# _framework density 16.609954999999999
#
# number of rings (size 3 to 8) (size 9 to 14) (size 15 to 20)
#    0.000    2.000    0.833    5.500    2.333    3.333 
#    1.500    1.667    0.000    0.000    0.000    0.000 
#    0.000   48.000    0.000    0.000    0.000    0.000 
#
# Total GULP energy -595009.173520 kJ/mol
# GULP energy per Si atom -12396.024448 kJ/mol
# Density = 1.657215 g / cm^3
# Si number density = 16.609955 Si / 1000 Ang^3
#
#
#
# Elastic Constant Matrix: (Units=GPa)
#
#
# Indices 1 2 3 4 5 6 
#
# 1 111.6702 30.5439 45.0247 0.0000 0.0000 0.0000
# 2 30.5439 57.5144 29.3491 0.0000 0.0000 0.0000
# 3 45.0247 29.3491 125.7247 0.0000 0.0000 0.0000
# 4 0.0000 0.0000 0.0000 8.9252 0.0000 0.0000
# 5 0.0000 0.0000 0.0000 0.0000 18.3530 0.0000
# 6 0.0000 0.0000 0.0000 0.0000 0.0000 14.8393
#
#
#
# Elastic Compliance Matrix: (Units=1/GPa)
#
#
# Indices 1 2 3 4 5 6 
#
# 1 0.011412 -0.004513 -0.003034 0.000000 0.000000 0.000000
# 2 -0.004513 0.021523 -0.003408 0.000000 0.000000 0.000000
# 3 -0.003034 -0.003408 0.009836 0.000000 0.000000 0.000000
# 4 0.000000 0.000000 0.000000 0.112042 0.000000 0.000000
# 5 0.000000 0.000000 0.000000 0.000000 0.054487 0.000000
# 6 0.000000 0.000000 0.000000 0.000000 0.000000 0.067389
#
#
# Mechanical properties :
#
#
# Convention : Reuss Voigt Hill
#
# Bulk Modulus (GPa) = 47.93396 56.08276 52.00836
# Shear Modulus (GPa) = 16.36384 21.08961 18.72672
#
# Velocity S-wave (km/s) = 3.14217 3.56715 3.36138
# Velocity P-wave (km/s) = 6.48733 7.12768 6.81503
#
# Compressibility (1/GPa) = 0.02086204
#
# Stress axis : x y z
#
# Youngs Moduli (GPa) = 87.62424 46.46275 101.66874
#
# Poissons Ratio (x) = 0.20967 0.30842
# Poissons Ratio (y) = 0.39542 0.34650
# Poissons Ratio (z) = 0.26581 0.15835
#
# Static dielectric constant tensor:
#      x y z
#    x 3.422150 0.000000 0.000000 
#    y 0.000000 2.939630 0.000000 
#    z 0.000000 0.000000 3.204380 
# 
# 
# High freq. dielectric constant tensor:
#      x y z
#    x 1.633530 0.000000 0.000000 
#    y 0.000000 1.602430 0.000000 
#    z 0.000000 0.000000 1.651090 
# 
# From -- ./inp_files/26926.got.cif
#   From: 2010.03.12/outbox.cif.g09.slc.cpg/sg66_14_cif.got.tgz:26926.got - 2010.04.10 21:57:39.
