data_PCOD8275326
_publ_section_title
;
Structure prediction by ZEFSAII (Michael W. Deem and Ramdas Pophale) SiO2 
 PCOD8275326
Probable space group: C C C M
;
_chemical_formula_sum "Si O2"
_cell_formula_units_Z 96
_cell_length_a 19.454207
_cell_length_b 30.786959
_cell_length_c 8.319883
_cell_angle_alpha 90.000000
_cell_angle_beta 90.000000
_cell_angle_gamma 90.000000
_cell_volume 4983.076390
_symmetry_space_group_name_H-M "C C C M"
_symmetry_group_IT_number 66
_symmetry_cell_setting 'orthorhombic'
loop_
_space_group_symop_operation_xyz
x,y,z
-x,-y,z
x,-y,1/2-z
-x,y,1/2-z
-x,-y,-z
x,y,-z
-x,y,1/2+z
x,-y,1/2+z
1/2+x,1/2+y,z
1/2-x,1/2-y,z
1/2+x,1/2-y,1/2-z
1/2-x,1/2+y,1/2-z
1/2-x,1/2-y,-z
1/2+x,1/2+y,-z
1/2-x,1/2+y,1/2+z
1/2+x,1/2-y,1/2+z
loop_
_atom_site_type_symbol
_atom_site_label
_atom_site_fract_x
_atom_site_fract_y
_atom_site_fract_z
Si Si1 0.330775 0.544771 0.313852
Si Si2 0.677982 0.043508 0.189751
Si Si3 0.072373 0.793918 0.314308
Si Si4 0.924538 0.299422 0.186942
Si Si5 0.669387 0.635315 0.684509
Si Si6 0.678881 0.868039 0.813124
O O1 0.365302 0.500000 0.250000
O O2 0.347350 0.549867 0.500000
O O3 0.249642 0.542881 0.284634
O O4 0.359980 0.587160 0.222841
O O5 0.641130 0.088196 0.244834
O O6 0.637222 0.000000 0.250000
O O7 0.689662 0.042806 0.000000
O O8 0.065046 0.781021 0.500000
O O9 0.092982 0.750918 0.216071
O O10 0.130494 0.829957 0.294051
O O11 0.000000 0.812523 0.250000
O O12 0.870273 0.327557 0.285550
O O13 0.000000 0.311011 0.250000
O O14 0.918598 0.310602 0.000000
O O15 0.654845 0.646248 0.500000
O O16 0.750229 0.638995 0.718513
O O17 0.695513 0.873200 0.000000
#
# Coordination Sequence:
#
# PCOD8275326 Si02
#       6
#    16  16  16  16  16  16
#     4  10  17  28  46  72 104 140 176 216 261 313
#     4  10  17  28  46  72 104 140 176 216 261 313
#     4  11  22  39  59  81 106 140 179 219 264 319
#     4  11  22  39  59  81 106 140 179 219 264 319
#     4  11  21  35  54  81 111 142 178 223 269 315
#     4  11  21  35  54  81 111 142 178 223 269 315
#
# _framework density 19.265207
#
# number of rings (size 3 to 8) (size 9 to 14) (size 15 to 20)
#    0.000    1.333    0.000   13.000    0.000    0.667 
#    0.000    3.333    0.000    1.000    0.000    7.000 
#    0.000    0.000    0.000    0.000    0.000    0.000 
#
# Total GULP energy -595208.830816 kJ/mol
# GULP energy per Si atom -12400.183975 kJ/mol
# Density = 1.922136 g / cm^3
# Si number density = 19.265207 Si / 1000 Ang^3
#
#
#
# Elastic Constant Matrix: (Units=GPa)
#
#
# Indices 1 2 3 4 5 6 
#
# 1 46.1015 47.4710 8.2820 0.0000 0.0000 0.0000
# 2 47.4710 118.4227 11.9077 0.0000 0.0000 0.0000
# 3 8.2820 11.9077 110.8885 0.0000 0.0000 0.0000
# 4 0.0000 0.0000 0.0000 37.5494 0.0000 0.0000
# 5 0.0000 0.0000 0.0000 0.0000 23.3888 0.0000
# 6 0.0000 0.0000 0.0000 0.0000 0.0000 -2.3463
#
#
#
# Elastic Compliance Matrix: (Units=1/GPa)
#
#
# Indices 1 2 3 4 5 6 
#
# 1 0.037092 -0.014749 -0.001186 0.000000 0.000000 0.000000
# 2 -0.014749 0.014402 -0.000445 0.000000 0.000000 0.000000
# 3 -0.001186 -0.000445 0.009154 0.000000 0.000000 0.000000
# 4 0.000000 0.000000 0.000000 0.026632 0.000000 0.000000
# 5 0.000000 0.000000 0.000000 0.000000 0.042756 0.000000
# 6 0.000000 0.000000 0.000000 0.000000 0.000000 -0.426205
#
#
# Mechanical properties :
#
#
# Convention : Reuss Voigt Hill
#
# Bulk Modulus (GPa) = 35.85976 45.63712 40.74844
# Shear Modulus (GPa) = -19.67631 25.56852 2.94611
#
# Velocity S-wave (km/s) = -3.19931 3.64701 1.23796
# Velocity P-wave (km/s) = 2.23757 6.44007 4.82085
#
# Compressibility (1/GPa) = 0.02788641
#
# Stress axis : x y z
#
# Youngs Moduli (GPa) = 26.96004 69.43713 109.23642
#
# Poissons Ratio (x) = 1.02416 0.12960
# Poissons Ratio (y) = 0.39764 0.04860
# Poissons Ratio (z) = 0.03199 0.03089
#
# Static dielectric constant tensor:
#      x y z
#    x 3.017410 0.000000 0.000000 
#    y 0.000000 4.204610 0.000000 
#    z 0.000000 0.000000 3.573340 
# 
# 
# High freq. dielectric constant tensor:
#      x y z
#    x 1.689520 0.000000 0.000000 
#    y 0.000000 1.772540 0.000000 
#    z 0.000000 0.000000 1.774000 
# 
# From -- ./inp_files/8051.got.cif
#   From: 2010.03.12/outbox.cif.g09.slc.cpg/sg66_5_cif.got.tgz:8051.got - 2010.04.10 21:57:39.
