data_PCOD8275147
_publ_section_title
;
Structure prediction by ZEFSAII (Michael W. Deem and Ramdas Pophale) SiO2 
 PCOD8275147
Probable space group: C M M M
;
_chemical_formula_sum "Si O2"
_cell_formula_units_Z 104
_cell_length_a 29.988876
_cell_length_b 9.945781
_cell_length_c 20.131133
_cell_angle_alpha 90.000000
_cell_angle_beta 90.000000
_cell_angle_gamma 90.000000
_cell_volume 6004.367957
_symmetry_space_group_name_H-M "C M M M"
_symmetry_group_IT_number 65
_symmetry_cell_setting 'orthorhombic'
loop_
_space_group_symop_operation_xyz
x,y,z
-x,-y,z
x,-y,-z
-x,y,-z
-x,-y,-z
x,y,-z
-x,y,z
x,-y,z
1/2+x,1/2+y,z
1/2-x,1/2-y,z
1/2+x,1/2-y,-z
1/2-x,1/2+y,-z
1/2-x,1/2-y,-z
1/2+x,1/2+y,-z
1/2-x,1/2+y,z
1/2+x,1/2-y,z
loop_
_atom_site_type_symbol
_atom_site_label
_atom_site_fract_x
_atom_site_fract_y
_atom_site_fract_z
Si Si1 0.950235 0.265779 0.667393
Si Si2 0.549880 0.151753 0.183241
Si Si3 0.207668 0.842312 0.424516
Si Si4 0.052729 0.500000 0.573111
Si Si5 0.360407 0.649912 0.316714
Si Si6 0.289749 0.654071 0.076973
Si Si7 0.628731 0.341236 0.170836
O O1 0.950224 0.341890 0.737224
O O2 0.932303 0.367780 0.611904
O O3 0.913275 0.149103 0.666269
O O4 0.000000 0.208608 0.651889
O O5 0.500000 0.185781 0.156941
O O6 0.584203 0.258656 0.151279
O O7 0.563352 0.000000 0.162386
O O8 0.190660 0.821323 0.500000
O O9 0.250000 0.750000 0.409957
O O10 0.169732 0.783948 0.374392
O O11 0.219224 0.000000 0.412971
O O12 0.074607 0.500000 0.500000
O O13 0.000000 0.500000 0.568751
O O14 0.343049 0.500000 0.313087
O O15 0.353614 0.711975 0.242818
O O16 0.275602 0.500000 0.090414
O O17 0.250000 0.750000 0.101564
O O18 0.334040 0.692194 0.116802
O O19 0.300488 0.679166 0.000000
O O20 0.616854 0.500000 0.173089
#
# Coordination Sequence:
#
# PCOD8275147 Si02
#       7
#    16  16  16   8  16  16  16
#     4   9  16  28  44  63  91 121 151 186 227 277
#     4   9  16  28  47  68  93 126 161 197 235 275
#     4   9  18  34  51  64  84 115 150 188 231 277
#     4   9  16  26  40  58  84 118 151 187 229 269
#     4   9  18  31  47  68  93 119 149 189 235 277
#     4   9  18  33  52  73  99 130 161 193 233 285
#     4   9  18  31  47  71 100 125 155 195 237 281
#
# _framework density 17.320723999999998
#
# number of rings (size 3 to 8) (size 9 to 14) (size 15 to 20)
#    0.000    3.000    0.769    0.000    0.000    2.462 
#    1.385    3.077    0.000    0.462    0.000    7.538 
#    0.000    0.000    0.000    0.000    0.000    0.000 
#
# Total GULP energy -644327.639767 kJ/mol
# GULP energy per Si atom -12390.916149 kJ/mol
# Density = 1.728130 g / cm^3
# Si number density = 17.320724 Si / 1000 Ang^3
#
#
#
# Elastic Constant Matrix: (Units=GPa)
#
#
# Indices 1 2 3 4 5 6 
#
# 1 129.0466 58.1433 56.8530 0.0000 0.0000 0.0000
# 2 58.1433 65.3502 31.5197 0.0000 0.0000 0.0000
# 3 56.8530 31.5197 63.9900 0.0000 0.0000 0.0000
# 4 0.0000 0.0000 0.0000 18.5076 0.0000 0.0000
# 5 0.0000 0.0000 0.0000 0.0000 23.7869 0.0000
# 6 0.0000 0.0000 0.0000 0.0000 0.0000 32.0853
#
#
#
# Elastic Compliance Matrix: (Units=1/GPa)
#
#
# Indices 1 2 3 4 5 6 
#
# 1 0.016583 -0.010031 -0.009792 0.000000 0.000000 0.000000
# 2 -0.010031 0.026138 -0.003963 0.000000 0.000000 0.000000
# 3 -0.009792 -0.003963 0.026279 0.000000 0.000000 0.000000
# 4 0.000000 0.000000 0.000000 0.054032 0.000000 0.000000
# 5 0.000000 0.000000 0.000000 0.000000 0.042040 0.000000
# 6 0.000000 0.000000 0.000000 0.000000 0.000000 0.031167
#
#
# Mechanical properties :
#
#
# Convention : Reuss Voigt Hill
#
# Bulk Modulus (GPa) = 46.66687 61.26876 53.96781
# Shear Modulus (GPa) = 19.92394 22.33401 21.12898
#
# Velocity S-wave (km/s) = 3.39528 3.59477 3.49645
# Velocity P-wave (km/s) = 6.50937 7.25808 6.89389
#
# Compressibility (1/GPa) = 0.02142848
#
# Stress axis : x y z
#
# Youngs Moduli (GPa) = 60.30333 38.25799 38.05251
#
# Poissons Ratio (x) = 0.38377 0.37262
# Poissons Ratio (y) = 0.60491 0.15079
# Poissons Ratio (z) = 0.59051 0.15161
#
# Static dielectric constant tensor:
#      x y z
#    x 3.226320 0.000000 0.000000 
#    y 0.000000 3.095600 0.000000 
#    z 0.000000 0.000000 3.270160 
# 
# 
# High freq. dielectric constant tensor:
#      x y z
#    x 1.661580 0.000000 0.000000 
#    y 0.000000 1.655220 0.000000 
#    z 0.000000 0.000000 1.654070 
# 
# From -- ./inp_files/57547.got.cif
#   From: 2010.03.12/outbox.cif.g09.slc.cpg/sg65_29_cif.got.tgz:57547.got - 2010.04.10 20:52:16.
