data_PCOD8275134
_publ_section_title
;
Structure prediction by ZEFSAII (Michael W. Deem and Ramdas Pophale) SiO2 
 PCOD8275134
Probable space group: C M M M
;
_chemical_formula_sum "Si O2"
_cell_formula_units_Z 112
_cell_length_a 26.774017
_cell_length_b 37.572523
_cell_length_c 7.854098
_cell_angle_alpha 90.000000
_cell_angle_beta 90.000000
_cell_angle_gamma 90.000000
_cell_volume 7900.966305
_symmetry_space_group_name_H-M "C M M M"
_symmetry_group_IT_number 65
_symmetry_cell_setting 'orthorhombic'
loop_
_space_group_symop_operation_xyz
x,y,z
-x,-y,z
x,-y,-z
-x,y,-z
-x,-y,-z
x,y,-z
-x,y,z
x,-y,z
1/2+x,1/2+y,z
1/2-x,1/2-y,z
1/2+x,1/2-y,-z
1/2-x,1/2+y,-z
1/2-x,1/2-y,-z
1/2+x,1/2+y,-z
1/2-x,1/2+y,z
1/2+x,1/2-y,z
loop_
_atom_site_type_symbol
_atom_site_label
_atom_site_fract_x
_atom_site_fract_y
_atom_site_fract_z
Si Si1 0.701120 0.230065 0.302155
Si Si2 0.646017 0.292848 0.196419
Si Si3 0.279764 0.460206 0.500000
Si Si4 0.757953 0.167261 0.199417
Si Si5 0.898288 0.039689 0.500000
Si Si6 0.101631 0.911040 0.193572
Si Si7 0.280462 0.410578 0.194737
Si Si8 0.054983 0.835939 0.201038
O O1 0.695535 0.235008 0.500000
O O2 0.750000 0.250000 0.228077
O O3 0.652984 0.250068 0.220813
O O4 0.707284 0.188312 0.254851
O O5 0.693084 0.313718 0.282589
O O6 0.593932 0.306809 0.277831
O O7 0.643876 0.303053 0.000000
O O8 0.256954 0.500000 0.500000
O O9 0.338949 0.461950 0.500000
O O10 0.261657 0.440537 0.327049
O O11 0.754054 0.126139 0.254501
O O12 0.764044 0.169125 0.000000
O O13 0.916489 0.059071 0.327215
O O14 0.921039 0.000000 0.500000
O O15 0.160540 0.904283 0.207379
O O16 0.073996 0.875154 0.248021
O O17 0.087678 0.922754 0.000000
O O18 0.265814 0.421255 0.000000
O O19 0.000000 0.829802 0.282287
O O20 0.051184 0.831883 0.000000
#
# Coordination Sequence:
#
# PCOD8275134 Si02
#       8
#    16  16   8  16   8  16  16  16
#     4   9  17  25  33  53  76  97 120 143 176 218
#     4   9  15  26  40  53  73  97 119 148 185 222
#     4   9  18  28  38  57  78  98 122 150 187 226
#     4   9  15  24  38  55  74  97 123 147 180 225
#     4   9  18  30  43  62  76  90 117 145 183 237
#     4   9  16  29  44  59  77  96 117 149 190 229
#     4   9  16  26  41  58  75  99 125 152 188 227
#     4   9  16  27  44  61  74  93 124 156 188 229
#
# _framework density 14.17548
#
# number of rings (size 3 to 8) (size 9 to 14) (size 15 to 20)
#    0.000    3.000    1.429    0.429    1.000    2.286 
#    1.286    3.214    0.000    0.857    0.000    2.000 
#    0.000    0.000    0.000    0.000    0.000    0.000 
#
# Total GULP energy -693846.234557 kJ/mol
# GULP energy per Si atom -12390.111331 kJ/mol
# Density = 1.414322 g / cm^3
# Si number density = 14.175480 Si / 1000 Ang^3
#
#
#
# Elastic Constant Matrix: (Units=GPa)
#
#
# Indices 1 2 3 4 5 6 
#
# 1 37.5941 51.2193 17.2007 0.0000 0.0000 0.0000
# 2 51.2193 111.1811 45.6885 0.0000 0.0000 0.0000
# 3 17.2007 45.6885 53.9972 0.0000 0.0000 0.0000
# 4 0.0000 0.0000 0.0000 20.7527 0.0000 0.0000
# 5 0.0000 0.0000 0.0000 0.0000 4.6285 0.0000
# 6 0.0000 0.0000 0.0000 0.0000 0.0000 11.2701
#
#
#
# Elastic Compliance Matrix: (Units=1/GPa)
#
#
# Indices 1 2 3 4 5 6 
#
# 1 0.073649 -0.037234 0.008044 0.000000 0.000000 0.000000
# 2 -0.037234 0.032613 -0.015734 0.000000 0.000000 0.000000
# 3 0.008044 -0.015734 0.029270 0.000000 0.000000 0.000000
# 4 0.000000 0.000000 0.000000 0.048187 0.000000 0.000000
# 5 0.000000 0.000000 0.000000 0.000000 0.216054 0.000000
# 6 0.000000 0.000000 0.000000 0.000000 0.000000 0.088730
#
#
# Mechanical properties :
#
#
# Convention : Reuss Voigt Hill
#
# Bulk Modulus (GPa) = 21.88962 47.88770 34.88866
# Shear Modulus (GPa) = 8.42349 13.24118 10.83233
#
# Velocity S-wave (km/s) = 2.44033 3.05960 2.76734
# Velocity P-wave (km/s) = 4.83897 6.80713 5.90562
#
# Compressibility (1/GPa) = 0.04568375
#
# Stress axis : x y z
#
# Youngs Moduli (GPa) = 13.57799 30.66231 34.16473
#
# Poissons Ratio (x) = 1.14169 -0.27484
# Poissons Ratio (y) = 0.50557 0.53755
# Poissons Ratio (z) = -0.10923 0.48244
#
# Static dielectric constant tensor:
#      x y z
#    x 2.560330 0.000000 0.000000 
#    y 0.000000 2.971340 0.000000 
#    z 0.000000 0.000000 2.763860 
# 
# 
# High freq. dielectric constant tensor:
#      x y z
#    x 1.474140 0.000000 0.000000 
#    y 0.000000 1.531640 0.000000 
#    z 0.000000 0.000000 1.545160 
# 
# From -- ./inp_files/19222.got.cif
#   From: 2010.03.12/outbox.cif.g09.slc.cpg/sg65_10_cif.got.tgz:19222.got - 2010.04.10 20:52:16.
