data_PCOD8275766
_publ_section_title
;
Structure prediction by ZEFSAII (Michael W. Deem and Ramdas Pophale) SiO2 
 PCOD8275766
Probable space group: C C C M
;
_chemical_formula_sum "Si O2"
_cell_formula_units_Z 52
_cell_length_a 25.186613
_cell_length_b 13.680689
_cell_length_c 9.548821
_cell_angle_alpha 90.000000
_cell_angle_beta 90.000000
_cell_angle_gamma 90.000000
_cell_volume 3290.239347
_symmetry_space_group_name_H-M "C C C M"
_symmetry_group_IT_number 66
_symmetry_cell_setting 'orthorhombic'
loop_
_space_group_symop_operation_xyz
x,y,z
-x,-y,z
x,-y,1/2-z
-x,y,1/2-z
-x,-y,-z
x,y,-z
-x,y,1/2+z
x,-y,1/2+z
1/2+x,1/2+y,z
1/2-x,1/2-y,z
1/2+x,1/2-y,1/2-z
1/2-x,1/2+y,1/2-z
1/2-x,1/2-y,-z
1/2+x,1/2+y,-z
1/2-x,1/2+y,1/2+z
1/2+x,1/2-y,1/2+z
loop_
_atom_site_type_symbol
_atom_site_label
_atom_site_fract_x
_atom_site_fract_y
_atom_site_fract_z
Si Si1 0.166467 0.783928 0.838705
Si Si2 0.101755 0.087438 0.158593
Si Si3 0.000000 0.000000 0.750000
Si Si4 0.729641 0.904554 0.339237
O O1 0.117546 0.811691 0.736290
O O2 0.215911 0.852078 0.795762
O O3 0.181277 0.671010 0.814442
O O4 0.150028 0.801744 0.000000
O O5 0.037796 0.070844 0.156815
O O6 0.128875 0.000000 0.250000
O O7 0.123415 0.086888 0.000000
O O8 0.732066 0.936365 0.500000
O O9 0.718340 0.000000 0.250000
#
# Coordination Sequence:
#
# PCOD8275766 Si02
#       4
#    16  16   4  16
#     4   9  18  31  46  65  93 125 158 191 233 274
#     4  10  19  30  46  67  93 122 152 187 230 278
#     4   8  22  32  46  68 100 120 154 188 242 278
#     4   9  18  31  45  65  93 126 158 194 229 271
#
# _framework density 15.804321
#
# number of rings (size 3 to 8) (size 9 to 14) (size 15 to 20)
#    0.923    1.846    0.000    4.154    0.000    4.923 
#    0.000    3.077    0.000    0.000    0.000    1.077 
#    0.000    7.385    0.000    0.000    0.000    0.000 
#
# Total GULP energy -322169.405399 kJ/mol
# GULP energy per Si atom -12391.130977 kJ/mol
# Density = 1.576835 g / cm^3
# Si number density = 15.804321 Si / 1000 Ang^3
#
#
#
# Elastic Constant Matrix: (Units=GPa)
#
#
# Indices 1 2 3 4 5 6 
#
# 1 57.3756 32.2503 34.6349 0.0000 0.0000 0.0000
# 2 32.2503 94.1645 57.9458 0.0000 0.0000 0.0000
# 3 34.6349 57.9458 110.9093 0.0000 0.0000 0.0000
# 4 0.0000 0.0000 0.0000 30.6763 0.0000 0.0000
# 5 0.0000 0.0000 0.0000 0.0000 18.9245 0.0000
# 6 0.0000 0.0000 0.0000 0.0000 0.0000 27.4913
#
#
#
# Elastic Compliance Matrix: (Units=1/GPa)
#
#
# Indices 1 2 3 4 5 6 
#
# 1 0.023029 -0.005102 -0.004526 0.000000 0.000000 0.000000
# 2 -0.005102 0.016782 -0.007175 0.000000 0.000000 0.000000
# 3 -0.004526 -0.007175 0.014178 0.000000 0.000000 0.000000
# 4 0.000000 0.000000 0.000000 0.032598 0.000000 0.000000
# 5 0.000000 0.000000 0.000000 0.000000 0.052842 0.000000
# 6 0.000000 0.000000 0.000000 0.000000 0.000000 0.036375
#
#
# Mechanical properties :
#
#
# Convention : Reuss Voigt Hill
#
# Bulk Modulus (GPa) = 49.05814 56.90124 52.97969
# Shear Modulus (GPa) = 23.12624 24.59299 23.85962
#
# Velocity S-wave (km/s) = 3.82944 3.94901 3.88969
# Velocity P-wave (km/s) = 7.11767 7.54153 7.33266
#
# Compressibility (1/GPa) = 0.02038398
#
# Stress axis : x y z
#
# Youngs Moduli (GPa) = 43.42373 59.58680 70.53053
#
# Poissons Ratio (x) = 0.30402 0.31921
# Poissons Ratio (y) = 0.22155 0.50604
# Poissons Ratio (z) = 0.19653 0.42752
#
# Static dielectric constant tensor:
#      x y z
#    x 2.747590 0.000000 0.000000 
#    y 0.000000 2.870690 0.000000 
#    z 0.000000 0.000000 2.897980 
# 
# 
# High freq. dielectric constant tensor:
#      x y z
#    x 1.576010 0.000000 0.000000 
#    y 0.000000 1.587970 0.000000 
#    z 0.000000 0.000000 1.610780 
# 
# From -- ./inp_files/3622.got.cif
#   From: 2010.03.12/outbox.cif.g09.slc.cpg/sg66_2_cif.got.tgz:3622.got - 2010.04.10 21:57:39.
