data_PCOD8275560
_publ_section_title
;
Structure prediction by ZEFSAII (Michael W. Deem and Ramdas Pophale) SiO2 
 PCOD8275560
Probable space group: C C C M
;
_chemical_formula_sum "Si O2"
_cell_formula_units_Z 80
_cell_length_a 9.109967
_cell_length_b 31.553179
_cell_length_c 14.073754
_cell_angle_alpha 90.000000
_cell_angle_beta 90.000000
_cell_angle_gamma 90.000000
_cell_volume 4045.478343
_symmetry_space_group_name_H-M "C C C M"
_symmetry_group_IT_number 66
_symmetry_cell_setting 'orthorhombic'
loop_
_space_group_symop_operation_xyz
x,y,z
-x,-y,z
x,-y,1/2-z
-x,y,1/2-z
-x,-y,-z
x,y,-z
-x,y,1/2+z
x,-y,1/2+z
1/2+x,1/2+y,z
1/2-x,1/2-y,z
1/2+x,1/2-y,1/2-z
1/2-x,1/2+y,1/2-z
1/2-x,1/2-y,-z
1/2+x,1/2+y,-z
1/2-x,1/2+y,1/2+z
1/2+x,1/2-y,1/2+z
loop_
_atom_site_type_symbol
_atom_site_label
_atom_site_fract_x
_atom_site_fract_y
_atom_site_fract_z
Si Si1 0.173343 0.069487 0.247506
Si Si2 0.825870 0.998639 0.395437
Si Si3 0.451925 0.196692 0.388477
Si Si4 0.722338 0.162687 0.274624
Si Si5 0.607067 0.279083 0.604535
O O1 0.224571 0.041057 0.158400
O O2 0.259405 0.113106 0.240964
O O3 0.000000 0.077900 0.250000
O O4 0.223387 0.044198 0.341868
O O5 0.754949 0.998226 0.500000
O O6 0.000000 0.000000 0.399604
O O7 0.430449 0.186660 0.500000
O O8 0.589708 0.169999 0.348530
O O9 0.308436 0.183636 0.328494
O O10 0.473459 0.247234 0.370530
O O11 0.871194 0.183529 0.318362
O O12 0.581909 0.299486 0.500000
O O13 0.750000 0.250000 0.602130
#
# Coordination Sequence:
#
# PCOD8275560 Si02
#       5
#    16  16  16  16  16
#     4   9  18  31  47  81 109 126 166 209 252 310
#     4   8  15  30  51  70 102 139 161 199 259 310
#     4   9  19  35  53  73 101 139 178 212 254 304
#     4  10  18  31  54  79  98 135 174 216 254 300
#     4   8  15  31  51  71  94 129 175 211 244 295
#
# _framework density 19.775165000000001
#
# number of rings (size 3 to 8) (size 9 to 14) (size 15 to 20)
#    0.000    3.200    0.000    3.000    0.000    2.400 
#   10.800    0.000    0.000   25.800    0.000   11.200 
#    0.000    0.000    0.000    0.000    0.000    0.000 
#
# Total GULP energy -495726.761571 kJ/mol
# GULP energy per Si atom -12393.169039 kJ/mol
# Density = 1.973016 g / cm^3
# Si number density = 19.775165 Si / 1000 Ang^3
#
#
#
# Elastic Constant Matrix: (Units=GPa)
#
#
# Indices 1 2 3 4 5 6 
#
# 1 21.9908 35.8018 33.8788 0.0000 0.0000 0.0000
# 2 35.8018 158.5962 92.7653 0.0000 0.0000 0.0000
# 3 33.8788 92.7653 192.6147 0.0000 0.0000 0.0000
# 4 0.0000 0.0000 0.0000 14.7595 0.0000 0.0000
# 5 0.0000 0.0000 0.0000 0.0000 14.8302 0.0000
# 6 0.0000 0.0000 0.0000 0.0000 0.0000 28.7844
#
#
#
# Elastic Compliance Matrix: (Units=1/GPa)
#
#
# Indices 1 2 3 4 5 6 
#
# 1 0.078747 -0.013469 -0.007364 0.000000 0.000000 0.000000
# 2 -0.013469 0.011082 -0.002968 0.000000 0.000000 0.000000
# 3 -0.007364 -0.002968 0.007916 0.000000 0.000000 0.000000
# 4 0.000000 0.000000 0.000000 0.067753 0.000000 0.000000
# 5 0.000000 0.000000 0.000000 0.000000 0.067430 0.000000
# 6 0.000000 0.000000 0.000000 0.000000 0.000000 0.034741
#
#
# Mechanical properties :
#
#
# Convention : Reuss Voigt Hill
#
# Bulk Modulus (GPa) = 19.94303 77.56594 48.75449
# Shear Modulus (GPa) = 15.06089 25.72519 20.39304
#
# Velocity S-wave (km/s) = 2.76272 3.61069 3.21478
# Velocity P-wave (km/s) = 4.50373 7.52940 6.20385
#
# Compressibility (1/GPa) = 0.05014283
#
# Stress axis : x y z
#
# Youngs Moduli (GPa) = 12.69895 90.23635 126.32031
#
# Poissons Ratio (x) = 1.21542 0.93019
# Poissons Ratio (y) = 0.17105 0.37493
# Poissons Ratio (z) = 0.09351 0.26783
#
# Static dielectric constant tensor:
#      x y z
#    x 3.228680 0.000000 0.000000 
#    y 0.000000 3.530670 0.000000 
#    z 0.000000 0.000000 4.143700 
# 
# 
# High freq. dielectric constant tensor:
#      x y z
#    x 1.723890 0.000000 0.000000 
#    y 0.000000 1.758800 0.000000 
#    z 0.000000 0.000000 1.784160 
# 
# From -- ./inp_files/26843.got.cif
#   From: 2010.03.12/outbox.cif.g09.slc.cpg/sg66_14_cif.got.tgz:26843.got - 2010.04.10 21:57:39.
