data_PCOD8275641
_publ_section_title
;
Structure prediction by ZEFSAII (Michael W. Deem and Ramdas Pophale) SiO2 
 PCOD8275641
Probable space group: C C C M
;
_chemical_formula_sum "Si O2"
_cell_formula_units_Z 112
_cell_length_a 27.328563
_cell_length_b 11.757385
_cell_length_c 17.282194
_cell_angle_alpha 90.000000
_cell_angle_beta 90.000000
_cell_angle_gamma 90.000000
_cell_volume 5552.983865
_symmetry_space_group_name_H-M "C C C M"
_symmetry_group_IT_number 66
_symmetry_cell_setting 'orthorhombic'
loop_
_space_group_symop_operation_xyz
x,y,z
-x,-y,z
x,-y,1/2-z
-x,y,1/2-z
-x,-y,-z
x,y,-z
-x,y,1/2+z
x,-y,1/2+z
1/2+x,1/2+y,z
1/2-x,1/2-y,z
1/2+x,1/2-y,1/2-z
1/2-x,1/2+y,1/2-z
1/2-x,1/2-y,-z
1/2+x,1/2+y,-z
1/2-x,1/2+y,1/2+z
1/2+x,1/2-y,1/2+z
loop_
_atom_site_type_symbol
_atom_site_label
_atom_site_fract_x
_atom_site_fract_y
_atom_site_fract_z
Si Si1 0.575929 0.955108 0.591606
Si Si2 0.237005 0.126460 0.408286
Si Si3 0.043589 0.923160 0.407614
Si Si4 0.674801 0.991780 0.840206
Si Si5 0.350111 0.476440 0.908068
Si Si6 0.517920 0.174962 0.591600
Si Si7 0.693044 0.758759 0.909974
O O1 0.585502 0.954188 0.500000
O O2 0.538168 0.854632 0.615736
O O3 0.626998 0.935581 0.635698
O O4 0.553808 0.075428 0.620189
O O5 0.235239 0.135027 0.500000
O O6 0.250000 0.250000 0.372062
O O7 0.278389 0.037565 0.385615
O O8 0.184199 0.080028 0.377022
O O9 0.042980 0.917892 0.500000
O O10 0.093831 0.983078 0.378865
O O11 0.035885 0.795619 0.373949
O O12 0.000000 0.000000 0.374951
O O13 0.667718 0.860957 0.863876
O O14 0.684433 0.000000 0.750000
O O15 0.330014 0.356662 0.877430
O O16 0.347471 0.477561 0.000000
O O17 0.519912 0.178330 0.500000
O O18 0.750000 0.750000 0.893236
O O19 0.681309 0.777611 0.000000
#
# Coordination Sequence:
#
# PCOD8275641 Si02
#       7
#    16  16  16  16  16  16  16
#     4   9  17  32  55  77 102 139 183 227 277 328
#     4  10  21  38  57  78 109 148 189 233 282 340
#     4   9  16  25  42  74 113 138 161 210 275 333
#     4  12  24  35  51  80 118 147 182 227 281 344
#     4   9  17  31  54  84 109 136 178 229 279 324
#     4   8  15  29  50  77 104 134 177 232 279 319
#     4  10  18  33  60  82 101 135 188 240 275 314
#
# _framework density 20.169336000000001
#
# number of rings (size 3 to 8) (size 9 to 14) (size 15 to 20)
#    0.000    2.429    1.429    3.000    0.000    4.000 
#    0.000    5.714    0.000    0.000    0.000    0.000 
#    0.000    0.000    0.000    0.000    0.000    0.000 
#
# Total GULP energy -694171.183042 kJ/mol
# GULP energy per Si atom -12395.913983 kJ/mol
# Density = 2.012343 g / cm^3
# Si number density = 20.169336 Si / 1000 Ang^3
#
#
#
# Elastic Constant Matrix: (Units=GPa)
#
#
# Indices 1 2 3 4 5 6 
#
# 1 153.3399 72.1395 7.3367 0.0000 0.0000 0.0000
# 2 72.1395 125.0580 11.6794 0.0000 0.0000 0.0000
# 3 7.3367 11.6794 10.8494 0.0000 0.0000 0.0000
# 4 0.0000 0.0000 0.0000 5.6428 0.0000 0.0000
# 5 0.0000 0.0000 0.0000 0.0000 4.3298 0.0000
# 6 0.0000 0.0000 0.0000 0.0000 0.0000 34.9186
#
#
#
# Elastic Compliance Matrix: (Units=1/GPa)
#
#
# Indices 1 2 3 4 5 6 
#
# 1 0.008953 -0.005113 -0.000550 0.000000 0.000000 0.000000
# 2 -0.005113 0.011810 -0.009256 0.000000 0.000000 0.000000
# 3 -0.000550 -0.009256 0.102508 0.000000 0.000000 0.000000
# 4 0.000000 0.000000 0.000000 0.177218 0.000000 0.000000
# 5 0.000000 0.000000 0.000000 0.000000 0.230956 0.000000
# 6 0.000000 0.000000 0.000000 0.000000 0.000000 0.028638
#
#
# Mechanical properties :
#
#
# Convention : Reuss Voigt Hill
#
# Bulk Modulus (GPa) = 10.70293 52.39539 31.54916
# Shear Modulus (GPa) = 8.05066 22.18434 15.11750
#
# Velocity S-wave (km/s) = 2.00005 3.32008 2.74072
# Velocity P-wave (km/s) = 3.26369 6.38211 5.06868
#
# Compressibility (1/GPa) = 0.09343232
#
# Stress axis : x y z
#
# Youngs Moduli (GPa) = 111.68957 84.67123 9.75538
#
# Poissons Ratio (x) = 0.43296 0.00537
# Poissons Ratio (y) = 0.57111 0.09030
# Poissons Ratio (z) = 0.06143 0.78373
#
# Static dielectric constant tensor:
#      x y z
#    x 3.938930 0.000000 0.000000 
#    y 0.000000 4.101800 0.000000 
#    z 0.000000 0.000000 2.955540 
# 
# 
# High freq. dielectric constant tensor:
#      x y z
#    x 1.803900 0.000000 0.000000 
#    y 0.000000 1.789330 0.000000 
#    z 0.000000 0.000000 1.715990 
# 
# From -- ./inp_files/33841.got.cif
#   From: 2010.03.12/outbox.cif.g09.slc.cpg/sg66_17_cif.got.tgz:33841.got - 2010.04.10 21:57:39.
