data_PCOD8275452
_publ_section_title
;
Structure prediction by ZEFSAII (Michael W. Deem and Ramdas Pophale) SiO2 
 PCOD8275452
Probable space group: C C C M
;
_chemical_formula_sum "Si O2"
_cell_formula_units_Z 80
_cell_length_a 26.952364
_cell_length_b 18.691586
_cell_length_c 8.583941
_cell_angle_alpha 90.000000
_cell_angle_beta 90.000000
_cell_angle_gamma 90.000000
_cell_volume 4324.438653
_symmetry_space_group_name_H-M "C C C M"
_symmetry_group_IT_number 66
_symmetry_cell_setting 'orthorhombic'
loop_
_space_group_symop_operation_xyz
x,y,z
-x,-y,z
x,-y,1/2-z
-x,y,1/2-z
-x,-y,-z
x,y,-z
-x,y,1/2+z
x,-y,1/2+z
1/2+x,1/2+y,z
1/2-x,1/2-y,z
1/2+x,1/2-y,1/2-z
1/2-x,1/2+y,1/2-z
1/2-x,1/2-y,-z
1/2+x,1/2+y,-z
1/2-x,1/2+y,1/2+z
1/2+x,1/2-y,1/2+z
loop_
_atom_site_type_symbol
_atom_site_label
_atom_site_fract_x
_atom_site_fract_y
_atom_site_fract_z
Si Si1 0.100333 0.217023 0.316172
Si Si2 0.947156 0.361341 0.184576
Si Si3 0.445128 0.572586 0.814755
Si Si4 0.151705 0.575556 0.315802
Si Si5 0.699946 0.787752 0.684815
O O1 0.098446 0.212181 0.500000
O O2 0.062724 0.279438 0.260956
O O3 0.084926 0.140399 0.246464
O O4 0.155691 0.235536 0.260596
O O5 0.903471 0.410498 0.250971
O O6 0.000000 0.387176 0.250000
O O7 0.946681 0.369000 0.000000
O O8 0.419790 0.500000 0.750000
O O9 0.500000 0.578863 0.750000
O O10 0.446090 0.570671 0.000000
O O11 0.170739 0.500000 0.250000
O O12 0.149581 0.573498 0.500000
O O13 0.191629 0.634941 0.261914
O O14 0.700370 0.798962 0.500000
O O15 0.750000 0.750000 0.744626
#
# Coordination Sequence:
#
# PCOD8275452 Si02
#       5
#    16  16  16  16  16
#     4   8  16  30  49  72  99 131 168 208 250 303
#     4  10  19  33  52  77 106 138 176 214 258 310
#     4  10  18  29  44  65  95 129 165 202 244 293
#     4  11  22  37  56  79 108 140 175 215 259 308
#     4   9  18  36  60  81 103 134 170 211 262 314
#
# _framework density 18.499510999999998
#
# number of rings (size 3 to 8) (size 9 to 14) (size 15 to 20)
#    0.000    2.400    0.000    5.400    0.000    0.800 
#    0.000   12.000    0.000    2.400    0.000    0.000 
#    0.000    0.000    0.000    0.000    0.000    0.000 
#
# Total GULP energy -495908.966528 kJ/mol
# GULP energy per Si atom -12397.724163 kJ/mol
# Density = 1.845741 g / cm^3
# Si number density = 18.499511 Si / 1000 Ang^3
#
#
#
# Elastic Constant Matrix: (Units=GPa)
#
#
# Indices 1 2 3 4 5 6 
#
# 1 104.0541 54.6073 33.5412 0.0000 0.0000 0.0000
# 2 54.6073 155.4922 41.7698 0.0000 0.0000 0.0000
# 3 33.5412 41.7698 88.2308 0.0000 0.0000 0.0000
# 4 0.0000 0.0000 0.0000 26.6491 0.0000 0.0000
# 5 0.0000 0.0000 0.0000 0.0000 21.2777 0.0000
# 6 0.0000 0.0000 0.0000 0.0000 0.0000 17.5773
#
#
#
# Elastic Compliance Matrix: (Units=1/GPa)
#
#
# Indices 1 2 3 4 5 6 
#
# 1 0.012461 -0.003556 -0.003054 0.000000 0.000000 0.000000
# 2 -0.003556 0.008383 -0.002617 0.000000 0.000000 0.000000
# 3 -0.003054 -0.002617 0.013734 0.000000 0.000000 0.000000
# 4 0.000000 0.000000 0.000000 0.037525 0.000000 0.000000
# 5 0.000000 0.000000 0.000000 0.000000 0.046998 0.000000
# 6 0.000000 0.000000 0.000000 0.000000 0.000000 0.056892
#
#
# Mechanical properties :
#
#
# Convention : Reuss Voigt Hill
#
# Bulk Modulus (GPa) = 62.01651 67.51265 64.76458
# Shear Modulus (GPa) = 25.02268 27.62474 26.32371
#
# Velocity S-wave (km/s) = 3.68178 3.86848 3.77628
# Velocity P-wave (km/s) = 7.18819 7.51844 7.35517
#
# Compressibility (1/GPa) = 0.01612474
#
# Stress axis : x y z
#
# Youngs Moduli (GPa) = 80.25183 119.29019 72.81402
#
# Poissons Ratio (x) = 0.42417 0.22235
# Poissons Ratio (y) = 0.28536 0.19054
# Poissons Ratio (z) = 0.24506 0.31217
#
# Static dielectric constant tensor:
#      x y z
#    x 3.434450 0.000000 0.000000 
#    y 0.000000 3.879750 0.000000 
#    z 0.000000 0.000000 3.247550 
# 
# 
# High freq. dielectric constant tensor:
#      x y z
#    x 1.698530 0.000000 0.000000 
#    y 0.000000 1.728190 0.000000 
#    z 0.000000 0.000000 1.708970 
# 
# From -- ./inp_files/6669.got.cif
#   From: 2010.03.12/outbox.cif.g09.slc.cpg/sg66_4_cif.got.tgz:6669.got - 2010.04.10 21:57:39.
