data_PCOD8275700
_publ_section_title
;
Structure prediction by ZEFSAII (Michael W. Deem and Ramdas Pophale) SiO2 
 PCOD8275700
Probable space group: C C C M
;
_chemical_formula_sum "Si O2"
_cell_formula_units_Z 56
_cell_length_a 8.092107
_cell_length_b 12.225743
_cell_length_c 25.373819
_cell_angle_alpha 90.000000
_cell_angle_beta 90.000000
_cell_angle_gamma 90.000000
_cell_volume 2510.283182
_symmetry_space_group_name_H-M "C C C M"
_symmetry_group_IT_number 66
_symmetry_cell_setting 'orthorhombic'
loop_
_space_group_symop_operation_xyz
x,y,z
-x,-y,z
x,-y,1/2-z
-x,y,1/2-z
-x,-y,-z
x,y,-z
-x,y,1/2+z
x,-y,1/2+z
1/2+x,1/2+y,z
1/2-x,1/2-y,z
1/2+x,1/2-y,1/2-z
1/2-x,1/2+y,1/2-z
1/2-x,1/2-y,-z
1/2+x,1/2+y,-z
1/2-x,1/2+y,1/2+z
1/2+x,1/2-y,1/2+z
loop_
_atom_site_type_symbol
_atom_site_label
_atom_site_fract_x
_atom_site_fract_y
_atom_site_fract_z
Si Si1 0.962754 0.654406 0.808244
Si Si2 0.500000 0.000000 0.105882
Si Si3 0.201180 0.123985 0.941586
Si Si4 0.417871 0.390737 0.166485
O O1 0.774864 0.621879 0.821046
O O2 0.007304 0.783324 0.810526
O O3 0.000000 0.610320 0.750000
O O4 0.070592 0.593822 0.853548
O O5 0.641918 0.954448 0.068124
O O6 0.250000 0.250000 0.936602
O O7 0.061893 0.103101 0.897232
O O8 0.130415 0.099103 0.000000
O O9 0.500000 0.500000 0.191533
#
# Coordination Sequence:
#
# PCOD8275700 Si02
#       4
#    16   8  16  16
#     4  10  21  42  61  91 131 169 213 264 319 374
#     4  10  18  38  62  90 124 164 212 256 310 384
#     4  10  19  37  65  92 127 167 205 261 320 372
#     4  10  21  43  64  96 126 165 217 260 314 382
#
# _framework density 22.308240000000001
#
# number of rings (size 3 to 8) (size 9 to 14) (size 15 to 20)
#    0.000    2.000    5.714    0.857    0.000    1.143 
#   36.000    0.000    0.000    1.714    0.000    0.000 
#    0.000    0.000    0.000    0.000    0.000    0.000 
#
# Total GULP energy -346936.858765 kJ/mol
# GULP energy per Si atom -12390.602099 kJ/mol
# Density = 2.225747 g / cm^3
# Si number density = 22.308240 Si / 1000 Ang^3
#
#
#
# Elastic Constant Matrix: (Units=GPa)
#
#
# Indices 1 2 3 4 5 6 
#
# 1 19.2511 34.8571 14.7906 0.0000 0.0000 0.0000
# 2 34.8571 172.5071 13.6229 0.0000 0.0000 0.0000
# 3 14.7906 13.6229 127.1185 0.0000 0.0000 0.0000
# 4 0.0000 0.0000 0.0000 10.4265 0.0000 0.0000
# 5 0.0000 0.0000 0.0000 0.0000 16.9512 0.0000
# 6 0.0000 0.0000 0.0000 0.0000 0.0000 38.5813
#
#
#
# Elastic Compliance Matrix: (Units=1/GPa)
#
#
# Indices 1 2 3 4 5 6 
#
# 1 0.090431 -0.017591 -0.008637 0.000000 0.000000 0.000000
# 2 -0.017591 0.009268 0.001053 0.000000 0.000000 0.000000
# 3 -0.008637 0.001053 0.008759 0.000000 0.000000 0.000000
# 4 0.000000 0.000000 0.000000 0.095909 0.000000 0.000000
# 5 0.000000 0.000000 0.000000 0.000000 0.058993 0.000000
# 6 0.000000 0.000000 0.000000 0.000000 0.000000 0.025919
#
#
# Mechanical properties :
#
#
# Convention : Reuss Voigt Hill
#
# Bulk Modulus (GPa) = 17.20869 49.49088 33.34979
# Shear Modulus (GPa) = 13.92767 30.23221 22.07994
#
# Velocity S-wave (km/s) = 2.50137 3.68530 3.14947
# Velocity P-wave (km/s) = 4.00915 6.35152 5.31108
#
# Compressibility (1/GPa) = 0.05811016
#
# Stress axis : x y z
#
# Youngs Moduli (GPa) = 11.05811 107.89742 114.17222
#
# Poissons Ratio (x) = 1.89799 0.98609
# Poissons Ratio (y) = 0.19452 -0.12028
# Poissons Ratio (z) = 0.09551 -0.11367
#
# Static dielectric constant tensor:
#      x y z
#    x 3.528100 0.000000 0.000000 
#    y 0.000000 4.482730 0.000000 
#    z 0.000000 0.000000 4.460600 
# 
# 
# High freq. dielectric constant tensor:
#      x y z
#    x 1.819540 0.000000 0.000000 
#    y 0.000000 1.901540 0.000000 
#    z 0.000000 0.000000 1.895290 
# 
# From -- ./inp_files/61936.got.cif
#   From: 2010.03.12/outbox.cif.g09.slc.cpg/sg66_31_cif.got.tgz:61936.got - 2010.04.10 21:57:39.
