data_PCOD8275476
_publ_section_title
;
Structure prediction by ZEFSAII (Michael W. Deem and Ramdas Pophale) SiO2 
 PCOD8275476
Probable space group: C C C M
;
_chemical_formula_sum "Si O2"
_cell_formula_units_Z 80
_cell_length_a 8.445223
_cell_length_b 19.837231
_cell_length_c 22.755194
_cell_angle_alpha 90.000000
_cell_angle_beta 90.000000
_cell_angle_gamma 90.000000
_cell_volume 3812.173999
_symmetry_space_group_name_H-M "C C C M"
_symmetry_group_IT_number 66
_symmetry_cell_setting 'orthorhombic'
loop_
_space_group_symop_operation_xyz
x,y,z
-x,-y,z
x,-y,1/2-z
-x,y,1/2-z
-x,-y,-z
x,y,-z
-x,y,1/2+z
x,-y,1/2+z
1/2+x,1/2+y,z
1/2-x,1/2-y,z
1/2+x,1/2-y,1/2-z
1/2-x,1/2+y,1/2-z
1/2-x,1/2-y,-z
1/2+x,1/2+y,-z
1/2-x,1/2+y,1/2+z
1/2+x,1/2-y,1/2+z
loop_
_atom_site_type_symbol
_atom_site_label
_atom_site_fract_x
_atom_site_fract_y
_atom_site_fract_z
Si Si1 0.684391 0.995554 0.500000
Si Si2 0.571162 0.671550 0.899709
Si Si3 0.941109 0.930490 0.316281
Si Si4 0.372188 0.941223 0.119128
Si Si5 0.451421 0.421413 0.000000
Si Si6 0.437531 0.181082 0.930106
O O1 0.732137 0.957805 0.439637
O O2 0.500000 0.000000 0.500000
O O3 0.757872 0.071312 0.500000
O O4 0.525635 0.638465 0.837781
O O5 0.499508 0.745838 0.908531
O O6 0.756623 0.673569 0.911598
O O7 0.487196 0.619742 0.944519
O O8 0.749964 0.929043 0.326829
O O9 0.000000 0.934327 0.250000
O O10 0.000000 0.000000 0.347641
O O11 0.464786 0.872714 0.106788
O O12 0.500000 0.000000 0.134312
O O13 0.500000 0.500000 0.000000
O O14 0.461917 0.174440 0.000000
#
# Coordination Sequence:
#
# PCOD8275476 Si02
#       6
#     8  16  16  16   8  16
#     4  10  18  29  54  92 132 158 195 252 316 388
#     4  11  21  39  62  93 132 176 217 261 330 393
#     4  11  25  46  65  89 129 174 228 283 316 377
#     4  11  22  39  68 101 136 170 213 274 332 397
#     4  12  20  30  56  88 121 163 214 256 323 388
#     4  11  21  40  63  97 139 174 207 267 339 406
#
# _framework density 20.985399999999998
#
# number of rings (size 3 to 8) (size 9 to 14) (size 15 to 20)
#    0.000    1.000    3.000    7.200    0.000    0.800 
#    0.000   12.000    0.000    0.000    0.000    0.000 
#    0.000    0.000    0.000    0.000    0.000    0.000 
#
# Total GULP energy -495559.949284 kJ/mol
# GULP energy per Si atom -12388.998732 kJ/mol
# Density = 2.093764 g / cm^3
# Si number density = 20.985400 Si / 1000 Ang^3
#
#
#
# Elastic Constant Matrix: (Units=GPa)
#
#
# Indices 1 2 3 4 5 6 
#
# 1 93.1225 60.8213 48.6031 0.0000 0.0000 0.0000
# 2 60.8213 196.0681 50.3134 0.0000 0.0000 0.0000
# 3 48.6031 50.3134 94.8071 0.0000 0.0000 0.0000
# 4 0.0000 0.0000 0.0000 25.5170 0.0000 0.0000
# 5 0.0000 0.0000 0.0000 0.0000 24.7628 0.0000
# 6 0.0000 0.0000 0.0000 0.0000 0.0000 40.1141
#
#
#
# Elastic Compliance Matrix: (Units=1/GPa)
#
#
# Indices 1 2 3 4 5 6 
#
# 1 0.016404 -0.003393 -0.006609 0.000000 0.000000 0.000000
# 2 -0.003393 0.006606 -0.001767 0.000000 0.000000 0.000000
# 3 -0.006609 -0.001767 0.014873 0.000000 0.000000 0.000000
# 4 0.000000 0.000000 0.000000 0.039190 0.000000 0.000000
# 5 0.000000 0.000000 0.000000 0.000000 0.040383 0.000000
# 6 0.000000 0.000000 0.000000 0.000000 0.000000 0.024929
#
#
# Mechanical properties :
#
#
# Convention : Reuss Voigt Hill
#
# Bulk Modulus (GPa) = 69.70177 78.16371 73.93274
# Shear Modulus (GPa) = 29.29062 33.02945 31.16004
#
# Velocity S-wave (km/s) = 3.74004 3.97158 3.85755
# Velocity P-wave (km/s) = 7.20674 7.63929 7.42617
#
# Compressibility (1/GPa) = 0.01434684
#
# Stress axis : x y z
#
# Youngs Moduli (GPa) = 60.96166 151.37811 67.23435
#
# Poissons Ratio (x) = 0.51356 0.44435
# Poissons Ratio (y) = 0.20682 0.11877
# Poissons Ratio (z) = 0.40290 0.26741
#
# Static dielectric constant tensor:
#      x y z
#    x 4.524370 0.000000 0.000000 
#    y 0.000000 4.711190 0.000000 
#    z 0.000000 0.000000 3.894100 
# 
# 
# High freq. dielectric constant tensor:
#      x y z
#    x 1.827550 0.000000 0.000000 
#    y 0.000000 1.844300 0.000000 
#    z 0.000000 0.000000 1.788360 
# 
# From -- ./inp_files/55386.got.cif
#   From: 2010.03.12/outbox.cif.g09.slc.cpg/sg66_28_cif.got.tgz:55386.got - 2010.04.10 21:57:39.
