data_PCOD8275068
_publ_section_title
;
Structure prediction by ZEFSAII (Michael W. Deem and Ramdas Pophale) SiO2 
 PCOD8275068
Probable space group: C M M M
;
_chemical_formula_sum "Si O2"
_cell_formula_units_Z 96
_cell_length_a 20.046830
_cell_length_b 9.522446
_cell_length_c 29.799283
_cell_angle_alpha 90.000000
_cell_angle_beta 90.000000
_cell_angle_gamma 90.000000
_cell_volume 5688.529842
_symmetry_space_group_name_H-M "C M M M"
_symmetry_group_IT_number 65
_symmetry_cell_setting 'orthorhombic'
loop_
_space_group_symop_operation_xyz
x,y,z
-x,-y,z
x,-y,-z
-x,y,-z
-x,-y,-z
x,y,-z
-x,y,z
x,-y,z
1/2+x,1/2+y,z
1/2-x,1/2-y,z
1/2+x,1/2-y,-z
1/2-x,1/2+y,-z
1/2-x,1/2-y,-z
1/2+x,1/2+y,-z
1/2-x,1/2+y,z
1/2+x,1/2-y,z
loop_
_atom_site_type_symbol
_atom_site_label
_atom_site_fract_x
_atom_site_fract_y
_atom_site_fract_z
Si Si1 0.185797 0.662445 0.220307
Si Si2 0.576079 0.662957 0.622164
Si Si3 0.926020 0.333320 0.950010
Si Si4 0.186292 0.836973 0.448635
Si Si5 0.576086 0.163159 0.708554
Si Si6 0.685216 0.835620 0.882570
O O1 0.203861 0.500000 0.227029
O O2 0.250000 0.750000 0.235870
O O3 0.122419 0.707322 0.249892
O O4 0.166520 0.695079 0.168980
O O5 0.500000 0.699200 0.608875
O O6 0.584153 0.500000 0.634241
O O7 0.622130 0.706344 0.580402
O O8 0.599316 0.750339 0.665267
O O9 0.927688 0.500000 0.947832
O O10 0.874666 0.275791 0.913094
O O11 0.000000 0.274653 0.939034
O O12 0.904160 0.284571 0.000000
O O13 0.169089 0.799514 0.500000
O O14 0.250000 0.750000 0.431606
O O15 0.203798 0.000000 0.442871
O O16 0.500000 0.199837 0.721797
O O17 0.583987 0.000000 0.696798
O O18 0.750000 0.750000 0.897191
O O19 0.698569 0.000000 0.890873
#
# Coordination Sequence:
#
# PCOD8275068 Si02
#       6
#    16  16  16  16  16  16
#     4   9  18  31  46  65  89 117 148 182 220 262
#     4   9  18  32  49  69  92 118 149 183 219 261
#     4   8  14  25  42  65  90 114 144 183 222 259
#     4   9  18  32  49  69  93 120 149 182 219 259
#     4   9  18  32  48  66  89 116 147 184 223 261
#     4   9  17  29  45  65  89 116 146 181 220 262
#
# _framework density 16.876065000000001
#
# number of rings (size 3 to 8) (size 9 to 14) (size 15 to 20)
#    0.000    3.167    0.000    0.500    0.000    3.333 
#    0.000    8.333    0.000    0.500    0.000   10.500 
#    0.000    0.000    0.000    0.000    0.000    0.000 
#
# Total GULP energy -595157.738609 kJ/mol
# GULP energy per Si atom -12399.119554 kJ/mol
# Density = 1.683765 g / cm^3
# Si number density = 16.876065 Si / 1000 Ang^3
#
#
#
# Elastic Constant Matrix: (Units=GPa)
#
#
# Indices 1 2 3 4 5 6 
#
# 1 133.3705 46.2872 95.0370 0.0000 0.0000 0.0000
# 2 46.2872 36.8075 41.8136 0.0000 0.0000 0.0000
# 3 95.0370 41.8136 114.0450 0.0000 0.0000 0.0000
# 4 0.0000 0.0000 0.0000 19.1086 0.0000 0.0000
# 5 0.0000 0.0000 0.0000 0.0000 38.4814 0.0000
# 6 0.0000 0.0000 0.0000 0.0000 0.0000 26.9097
#
#
#
# Elastic Compliance Matrix: (Units=1/GPa)
#
#
# Indices 1 2 3 4 5 6 
#
# 1 0.020800 -0.011082 -0.013270 0.000000 0.000000 0.000000
# 2 -0.011082 0.052466 -0.010001 0.000000 0.000000 0.000000
# 3 -0.013270 -0.010001 0.023494 0.000000 0.000000 0.000000
# 4 0.000000 0.000000 0.000000 0.052332 0.000000 0.000000
# 5 0.000000 0.000000 0.000000 0.000000 0.025987 0.000000
# 6 0.000000 0.000000 0.000000 0.000000 0.000000 0.037161
#
#
# Mechanical properties :
#
#
# Convention : Reuss Voigt Hill
#
# Bulk Modulus (GPa) = 35.64687 72.27764 53.96225
# Shear Modulus (GPa) = 17.22369 23.63897 20.43133
#
# Velocity S-wave (km/s) = 3.19815 3.74671 3.48324
# Velocity P-wave (km/s) = 5.89967 7.85102 6.94423
#
# Compressibility (1/GPa) = 0.02805296
#
# Stress axis : x y z
#
# Youngs Moduli (GPa) = 48.07673 19.05997 42.56461
#
# Poissons Ratio (x) = 0.21122 0.56484
# Poissons Ratio (y) = 0.53279 0.42569
# Poissons Ratio (z) = 0.63799 0.19062
#
# Static dielectric constant tensor:
#      x y z
#    x 3.320360 0.000000 0.000000 
#    y 0.000000 2.989200 0.000000 
#    z 0.000000 0.000000 3.252780 
# 
# 
# High freq. dielectric constant tensor:
#      x y z
#    x 1.653020 0.000000 0.000000 
#    y 0.000000 1.629340 0.000000 
#    z 0.000000 0.000000 1.651530 
# 
# From -- ./inp_files/69031.got.cif
#   From: 2010.03.12/outbox.cif.g09.slc.cpg/sg65_35_cif.got.tgz:69031.got - 2010.04.10 20:52:16.
