data_PCOD8275425
_publ_section_title
;
Structure prediction by ZEFSAII (Michael W. Deem and Ramdas Pophale) SiO2 
 PCOD8275425
Probable space group: C C C M
;
_chemical_formula_sum "Si O2"
_cell_formula_units_Z 80
_cell_length_a 22.188760
_cell_length_b 9.229512
_cell_length_c 21.910355
_cell_angle_alpha 90.000000
_cell_angle_beta 90.000000
_cell_angle_gamma 90.000000
_cell_volume 4487.052860
_symmetry_space_group_name_H-M "C C C M"
_symmetry_group_IT_number 66
_symmetry_cell_setting 'orthorhombic'
loop_
_space_group_symop_operation_xyz
x,y,z
-x,-y,z
x,-y,1/2-z
-x,y,1/2-z
-x,-y,-z
x,y,-z
-x,y,1/2+z
x,-y,1/2+z
1/2+x,1/2+y,z
1/2-x,1/2-y,z
1/2+x,1/2-y,1/2-z
1/2-x,1/2+y,1/2-z
1/2-x,1/2-y,-z
1/2+x,1/2+y,-z
1/2-x,1/2+y,1/2+z
1/2+x,1/2-y,1/2+z
loop_
_atom_site_type_symbol
_atom_site_label
_atom_site_fract_x
_atom_site_fract_y
_atom_site_fract_z
Si Si1 0.500049 0.661071 0.567015
Si Si2 0.500000 0.000000 0.750000
Si Si3 0.680481 0.734965 0.895803
Si Si4 0.808750 0.989911 0.000000
Si Si5 0.171216 0.544400 0.500000
Si Si6 0.500000 0.500000 0.250000
Si Si7 0.934276 0.250831 0.678050
Si Si8 0.391953 0.249019 0.500000
O O1 0.500000 0.500000 0.594852
O O2 0.467675 0.659103 0.500000
O O3 0.464793 0.766242 0.611764
O O4 0.568527 0.717599 0.560564
O O5 0.546137 0.102856 0.712789
O O6 0.750000 0.750000 0.874092
O O7 0.671357 0.592625 0.937959
O O8 0.637729 0.736385 0.835376
O O9 0.661162 0.867821 0.938181
O O10 0.834146 0.150513 0.000000
O O11 0.738240 0.015727 0.000000
O O12 0.123423 0.417587 0.500000
O O13 0.543669 0.395354 0.288755
#
# Coordination Sequence:
#
# PCOD8275425 Si02
#       8
#    16   4  16   8   8   4  16   8
#     4   9  19  30  53  88 108 139 178 231 286 332
#     4  10  28  38  56  82 108 166 168 246 284 318
#     4   9  20  36  58  78 110 153 180 222 278 342
#     4   9  17  32  52  83 115 149 180 216 283 337
#     4   9  19  31  48  85 120 147 176 215 285 350
#     4  10  24  38  60  82  96 158 184 242 268 310
#     4  11  21  41  57  78 117 138 199 224 283 331
#     4  10  18  27  50  86 113 145 180 220 285 313
#
# _framework density 17.829073000000001
#
# number of rings (size 3 to 8) (size 9 to 14) (size 15 to 20)
#    0.600    1.800    1.000    2.700    5.600    0.000 
#    0.000    2.500    0.000    0.000    0.000    0.000 
#    0.000    0.000    0.000    0.000    0.000    0.000 
#
# Total GULP energy -495601.744682 kJ/mol
# GULP energy per Si atom -12390.043617 kJ/mol
# Density = 1.778849 g / cm^3
# Si number density = 17.829073 Si / 1000 Ang^3
#
#
#
# Elastic Constant Matrix: (Units=GPa)
#
#
# Indices 1 2 3 4 5 6 
#
# 1 109.5118 48.4788 48.0796 0.0000 0.0000 0.0000
# 2 48.4788 104.1700 35.7890 0.0000 0.0000 0.0000
# 3 48.0796 35.7890 78.2662 0.0000 0.0000 0.0000
# 4 0.0000 0.0000 0.0000 246.4069 0.0000 0.0000
# 5 0.0000 0.0000 0.0000 0.0000 36.3107 0.0000
# 6 0.0000 0.0000 0.0000 0.0000 0.0000 30.6409
#
#
#
# Elastic Compliance Matrix: (Units=1/GPa)
#
#
# Indices 1 2 3 4 5 6 
#
# 1 0.013892 -0.004192 -0.006617 0.000000 0.000000 0.000000
# 2 -0.004192 0.012654 -0.003211 0.000000 0.000000 0.000000
# 3 -0.006617 -0.003211 0.018310 0.000000 0.000000 0.000000
# 4 0.000000 0.000000 0.000000 0.004058 0.000000 0.000000
# 5 0.000000 0.000000 0.000000 0.000000 0.027540 0.000000
# 6 0.000000 0.000000 0.000000 0.000000 0.000000 0.032636
#
#
# Mechanical properties :
#
#
# Convention : Reuss Voigt Hill
#
# Bulk Modulus (GPa) = 59.46786 61.84920 60.65853
# Shear Modulus (GPa) = 35.02952 73.31174 54.17063
#
# Velocity S-wave (km/s) = 4.43735 6.41938 5.51809
# Velocity P-wave (km/s) = 7.72530 9.47154 8.64264
#
# Compressibility (1/GPa) = 0.01681580
#
# Stress axis : x y z
#
# Youngs Moduli (GPa) = 71.98230 79.02833 54.61378
#
# Poissons Ratio (x) = 0.33127 0.36140
# Poissons Ratio (y) = 0.30173 0.17537
# Poissons Ratio (z) = 0.47633 0.25377
#
# Static dielectric constant tensor:
#      x y z
#    x 3.275330 0.000000 0.000000 
#    y 0.000000 3.205170 0.000000 
#    z 0.000000 0.000000 3.150700 
# 
# 
# High freq. dielectric constant tensor:
#      x y z
#    x 1.691450 0.000000 0.000000 
#    y 0.000000 1.688620 0.000000 
#    z 0.000000 0.000000 1.664750 
# 
# From -- ./inp_files/59365.got.cif
#   From: 2010.03.12/outbox.cif.g09.slc.cpg/sg66_30_cif.got.tgz:59365.got - 2010.04.10 21:57:39.
