data_PCOD8275736
_publ_section_title
;
Structure prediction by ZEFSAII (Michael W. Deem and Ramdas Pophale) SiO2 
 PCOD8275736
Probable space group: C C C M
;
_chemical_formula_sum "Si O2"
_cell_formula_units_Z 112
_cell_length_a 21.995729
_cell_length_b 17.424895
_cell_length_c 17.366778
_cell_angle_alpha 90.000000
_cell_angle_beta 90.000000
_cell_angle_gamma 90.000000
_cell_volume 6656.221763
_symmetry_space_group_name_H-M "C C C M"
_symmetry_group_IT_number 66
_symmetry_cell_setting 'orthorhombic'
loop_
_space_group_symop_operation_xyz
x,y,z
-x,-y,z
x,-y,1/2-z
-x,y,1/2-z
-x,-y,-z
x,y,-z
-x,y,1/2+z
x,-y,1/2+z
1/2+x,1/2+y,z
1/2-x,1/2-y,z
1/2+x,1/2-y,1/2-z
1/2-x,1/2+y,1/2-z
1/2-x,1/2-y,-z
1/2+x,1/2+y,-z
1/2-x,1/2+y,1/2+z
1/2+x,1/2-y,1/2+z
loop_
_atom_site_type_symbol
_atom_site_label
_atom_site_fract_x
_atom_site_fract_y
_atom_site_fract_z
Si Si1 0.626199 0.831643 0.362817
Si Si2 0.122597 0.624045 0.410868
Si Si3 0.713569 0.436397 0.800404
Si Si4 0.204328 0.320810 0.782536
Si Si5 0.691885 0.697329 0.587213
Si Si6 0.999207 0.412035 0.158741
Si Si7 0.306596 0.023033 0.585532
O O1 0.647277 0.813905 0.275713
O O2 0.632093 0.751165 0.408833
O O3 0.559278 0.865726 0.370104
O O4 0.672490 0.889607 0.403982
O O5 0.123406 0.648867 0.500000
O O6 0.173780 0.673712 0.366953
O O7 0.055813 0.635111 0.375494
O O8 0.137826 0.534279 0.397863
O O9 0.674169 0.500000 0.750000
O O10 0.757784 0.395975 0.739124
O O11 0.679620 0.373247 0.853513
O O12 0.751689 0.491786 0.856654
O O13 0.250000 0.250000 0.780879
O O14 0.701039 0.666383 0.500000
O O15 0.750000 0.750000 0.613958
O O16 0.000000 0.500000 0.128213
O O17 0.000000 0.411707 0.250000
O O18 0.281493 0.010245 0.500000
#
# Coordination Sequence:
#
# PCOD8275736 Si02
#       7
#    16  16  16  16  16  16  16
#     4  11  19  32  53  73 104 144 180 227 272 321
#     4  11  23  35  48  72 105 146 191 228 260 312
#     4  11  19  30  50  74  99 138 178 226 279 339
#     4  11  20  35  52  72  99 137 186 227 271 330
#     4  11  20  31  50  78 106 138 182 238 294 333
#     4  11  22  33  52  75 107 149 189 223 257 315
#     4  10  19  29  45  70 103 139 179 225 269 311
#
# _framework density 16.826363000000001
#
# number of rings (size 3 to 8) (size 9 to 14) (size 15 to 20)
#    0.000    1.143    8.571    0.857    0.000    1.714 
#    0.000    0.000    0.000    0.000    0.000    0.000 
#    0.000    5.143    0.000    6.429    0.000    0.143 
#
# Total GULP energy -693866.990785 kJ/mol
# GULP energy per Si atom -12390.481978 kJ/mol
# Density = 1.678807 g / cm^3
# Si number density = 16.826363 Si / 1000 Ang^3
#
#
#
# Elastic Constant Matrix: (Units=GPa)
#
#
# Indices 1 2 3 4 5 6 
#
# 1 63.4351 36.7380 29.4731 0.0000 0.0000 0.0000
# 2 36.7380 80.2675 43.2906 0.0000 0.0000 0.0000
# 3 29.4731 43.2906 89.9579 0.0000 0.0000 0.0000
# 4 0.0000 0.0000 0.0000 27.9619 0.0000 0.0000
# 5 0.0000 0.0000 0.0000 0.0000 17.9231 0.0000
# 6 0.0000 0.0000 0.0000 0.0000 0.0000 27.9274
#
#
#
# Elastic Compliance Matrix: (Units=1/GPa)
#
#
# Indices 1 2 3 4 5 6 
#
# 1 0.022114 -0.008392 -0.003207 0.000000 0.000000 0.000000
# 2 -0.008392 0.020010 -0.006880 0.000000 0.000000 0.000000
# 3 -0.003207 -0.006880 0.015478 0.000000 0.000000 0.000000
# 4 0.000000 0.000000 0.000000 0.035763 0.000000 0.000000
# 5 0.000000 0.000000 0.000000 0.000000 0.055794 0.000000
# 6 0.000000 0.000000 0.000000 0.000000 0.000000 0.035807
#
#
# Mechanical properties :
#
#
# Convention : Reuss Voigt Hill
#
# Bulk Modulus (GPa) = 48.43922 50.29597 49.36760
# Shear Modulus (GPa) = 21.85267 23.03973 22.44620
#
# Velocity S-wave (km/s) = 3.60768 3.70437 3.65635
# Velocity P-wave (km/s) = 6.79735 6.94641 6.87228
#
# Compressibility (1/GPa) = 0.02064443
#
# Stress axis : x y z
#
# Youngs Moduli (GPa) = 45.21957 49.97531 64.60877
#
# Poissons Ratio (x) = 0.41940 0.20719
# Poissons Ratio (y) = 0.37949 0.44450
# Poissons Ratio (z) = 0.14501 0.34382
#
# Static dielectric constant tensor:
#      x y z
#    x 2.905780 0.000000 0.000000 
#    y 0.000000 3.082160 0.000000 
#    z 0.000000 0.000000 3.301050 
# 
# 
# High freq. dielectric constant tensor:
#      x y z
#    x 1.598790 0.000000 0.000000 
#    y 0.000000 1.631150 0.000000 
#    z 0.000000 0.000000 1.665150 
# 
# From -- ./inp_files/43049.got.cif
#   From: 2010.03.12/outbox.cif.g09.slc.cpg/sg66_22_cif.got.tgz:43049.got - 2010.04.10 21:57:39.
