data_PCOD8275095
_publ_section_title
;
Structure prediction by ZEFSAII (Michael W. Deem and Ramdas Pophale) SiO2 
 PCOD8275095
Probable space group: C M M M
;
_chemical_formula_sum "Si O2"
_cell_formula_units_Z 80
_cell_length_a 10.054614
_cell_length_b 19.252194
_cell_length_c 24.122913
_cell_angle_alpha 90.000000
_cell_angle_beta 90.000000
_cell_angle_gamma 90.000000
_cell_volume 4669.553789
_symmetry_space_group_name_H-M "C M M M"
_symmetry_group_IT_number 65
_symmetry_cell_setting 'orthorhombic'
loop_
_space_group_symop_operation_xyz
x,y,z
-x,-y,z
x,-y,-z
-x,y,-z
-x,-y,-z
x,y,-z
-x,y,z
x,-y,z
1/2+x,1/2+y,z
1/2-x,1/2-y,z
1/2+x,1/2-y,-z
1/2-x,1/2+y,-z
1/2-x,1/2-y,-z
1/2+x,1/2+y,-z
1/2-x,1/2+y,z
1/2+x,1/2-y,z
loop_
_atom_site_type_symbol
_atom_site_label
_atom_site_fract_x
_atom_site_fract_y
_atom_site_fract_z
Si Si1 0.151727 0.580418 0.656220
Si Si2 0.746466 0.582722 0.129539
Si Si3 0.000000 0.082858 0.938780
Si Si4 0.348406 0.189588 0.436589
Si Si5 0.500000 0.082949 0.063645
Si Si6 0.652122 0.417361 0.247591
O O1 0.177960 0.500000 0.643020
O O2 0.178254 0.621423 0.599650
O O3 0.255969 0.608496 0.701832
O O4 0.000000 0.591645 0.677583
O O5 0.750367 0.500000 0.130657
O O6 0.627080 0.611555 0.092810
O O7 0.723963 0.610892 0.191904
O O8 0.876742 0.611938 0.099221
O O9 0.000000 0.000000 0.940272
O O10 0.000000 0.114351 0.000000
O O11 0.317981 0.169016 0.500000
O O12 0.500000 0.215962 0.429634
O O13 0.250000 0.250000 0.416238
O O14 0.500000 0.000000 0.061323
O O15 0.500000 0.111129 0.000000
O O16 0.500000 0.389035 0.252977
O O17 0.647751 0.500000 0.245742
#
# Coordination Sequence:
#
# PCOD8275095 Si02
#       6
#    16  16   8  16   8  16
#     4   9  18  30  46  69  94 121 155 194 232 271
#     4   9  15  22  31  44  64  95 135 179 223 265
#     4   9  14  20  30  42  60  90 132 179 220 260
#     4   9  18  33  52  73  97 125 156 188 226 275
#     4   9  16  22  28  42  64  92 132 181 226 266
#     4   9  16  26  38  54  78 109 146 186 228 273
#
# _framework density 17.132258
#
# number of rings (size 3 to 8) (size 9 to 14) (size 15 to 20)
#    0.000    3.000    1.000    0.600    1.400    3.600 
#    0.000    2.000    0.000    0.000    0.000    5.600 
#    0.000    0.000    0.000    0.000    0.000    6.000 
#
# Total GULP energy -495754.072873 kJ/mol
# GULP energy per Si atom -12393.851822 kJ/mol
# Density = 1.709326 g / cm^3
# Si number density = 17.132258 Si / 1000 Ang^3
#
#
#
# Elastic Constant Matrix: (Units=GPa)
#
#
# Indices 1 2 3 4 5 6 
#
# 1 147.3871 29.0983 81.2602 0.0000 0.0000 0.0000
# 2 29.0983 27.3295 35.4201 0.0000 0.0000 0.0000
# 3 81.2602 35.4201 134.0283 0.0000 0.0000 0.0000
# 4 0.0000 0.0000 0.0000 2.2710 0.0000 0.0000
# 5 0.0000 0.0000 0.0000 0.0000 35.3187 0.0000
# 6 0.0000 0.0000 0.0000 0.0000 0.0000 12.3878
#
#
#
# Elastic Compliance Matrix: (Units=1/GPa)
#
#
# Indices 1 2 3 4 5 6 
#
# 1 0.010539 -0.004471 -0.005208 0.000000 0.000000 0.000000
# 2 -0.004471 0.057549 -0.012498 0.000000 0.000000 0.000000
# 3 -0.005208 -0.012498 0.013922 0.000000 0.000000 0.000000
# 4 0.000000 0.000000 0.000000 0.440333 0.000000 0.000000
# 5 0.000000 0.000000 0.000000 0.000000 0.028314 0.000000
# 6 0.000000 0.000000 0.000000 0.000000 0.000000 0.080725
#
#
# Mechanical properties :
#
#
# Convention : Reuss Voigt Hill
#
# Bulk Modulus (GPa) = 26.55682 66.70023 46.62852
# Shear Modulus (GPa) = 7.26442 20.85994 14.06218
#
# Velocity S-wave (km/s) = 2.06141 3.49317 2.86807
# Velocity P-wave (km/s) = 4.60441 7.43551 6.18415
#
# Compressibility (1/GPa) = 0.03765511
#
# Stress axis : x y z
#
# Youngs Moduli (GPa) = 94.88559 17.37664 71.83118
#
# Poissons Ratio (x) = 0.07769 0.37410
# Poissons Ratio (y) = 0.42425 0.89772
# Poissons Ratio (z) = 0.49417 0.21717
#
# Static dielectric constant tensor:
#      x y z
#    x 3.418190 0.000000 0.000000 
#    y 0.000000 2.487430 0.000000 
#    z 0.000000 0.000000 3.377620 
# 
# 
# High freq. dielectric constant tensor:
#      x y z
#    x 1.677390 0.000000 0.000000 
#    y 0.000000 1.578450 0.000000 
#    z 0.000000 0.000000 1.673760 
# 
# From -- ./inp_files/72924.got.cif
#   From: 2010.03.12/outbox.cif.g09.slc.cpg/sg65_37_cif.got.tgz:72924.got - 2010.04.10 20:52:16.
