data_PCOD8275833
_publ_section_title
;
Structure prediction by ZEFSAII (Michael W. Deem and Ramdas Pophale) SiO2 
 PCOD8275833
Probable space group: C C C M
;
_chemical_formula_sum "Si O2"
_cell_formula_units_Z 96
_cell_length_a 21.651763
_cell_length_b 12.842520
_cell_length_c 18.139140
_cell_angle_alpha 90.000000
_cell_angle_beta 90.000000
_cell_angle_gamma 90.000000
_cell_volume 5043.827302
_symmetry_space_group_name_H-M "C C C M"
_symmetry_group_IT_number 66
_symmetry_cell_setting 'orthorhombic'
loop_
_space_group_symop_operation_xyz
x,y,z
-x,-y,z
x,-y,1/2-z
-x,y,1/2-z
-x,-y,-z
x,y,-z
-x,y,1/2+z
x,-y,1/2+z
1/2+x,1/2+y,z
1/2-x,1/2-y,z
1/2+x,1/2-y,1/2-z
1/2-x,1/2+y,1/2-z
1/2-x,1/2-y,-z
1/2+x,1/2+y,-z
1/2-x,1/2+y,1/2+z
1/2+x,1/2-y,1/2+z
loop_
_atom_site_type_symbol
_atom_site_label
_atom_site_fract_x
_atom_site_fract_y
_atom_site_fract_z
Si Si1 0.723777 0.634244 0.583228
Si Si2 0.067879 0.893007 0.719308
Si Si3 0.940062 0.559938 0.083706
Si Si4 0.167432 0.542839 0.167994
Si Si5 0.112274 0.771059 0.842378
Si Si6 0.019972 0.794183 0.583433
O O1 0.718250 0.591747 0.500000
O O2 0.750000 0.750000 0.583835
O O3 0.766006 0.552247 0.628423
O O4 0.656891 0.643857 0.620073
O O5 0.106367 0.799750 0.756051
O O6 0.061743 0.876091 0.631029
O O7 0.000000 0.885815 0.750000
O O8 0.097884 0.000000 0.750000
O O9 0.877700 0.537449 0.127900
O O10 0.948074 0.682735 0.087866
O O11 0.000000 0.500000 0.117602
O O12 0.931105 0.520418 0.000000
O O13 0.178176 0.500000 0.250000
O O14 0.135517 0.654205 0.159609
O O15 0.048981 0.781025 0.886955
O O16 0.018606 0.836567 0.500000
#
# Coordination Sequence:
#
# PCOD8275833 Si02
#       6
#    16  16  16  16  16  16
#     4   9  19  34  52  72  98 136 184 234 275 313
#     4   9  19  35  51  71 102 137 171 224 282 326
#     4  10  19  31  50  79 114 147 176 219 283 351
#     4  11  21  32  50  79 113 147 183 226 283 350
#     4  10  19  34  54  77 105 143 189 236 281 337
#     4  10  19  33  55  82 112 146 186 229 286 356
#
# _framework density 19.033166999999999
#
# number of rings (size 3 to 8) (size 9 to 14) (size 15 to 20)
#    0.000    2.167    1.667    2.000    0.000    2.333 
#    0.000    7.500    0.000    0.000    0.000    0.000 
#    0.000   14.000    0.000    0.000    0.000    0.000 
#
# Total GULP energy -594828.427349 kJ/mol
# GULP energy per Si atom -12392.258903 kJ/mol
# Density = 1.898985 g / cm^3
# Si number density = 19.033167 Si / 1000 Ang^3
#
#
#
# Elastic Constant Matrix: (Units=GPa)
#
#
# Indices 1 2 3 4 5 6 
#
# 1 75.9974 30.0034 53.6118 0.0000 0.0000 0.0000
# 2 30.0034 59.4528 44.6727 0.0000 0.0000 0.0000
# 3 53.6118 44.6727 165.8931 0.0000 0.0000 0.0000
# 4 0.0000 0.0000 0.0000 25.7147 0.0000 0.0000
# 5 0.0000 0.0000 0.0000 0.0000 18.1414 0.0000
# 6 0.0000 0.0000 0.0000 0.0000 0.0000 17.3331
#
#
#
# Elastic Compliance Matrix: (Units=1/GPa)
#
#
# Indices 1 2 3 4 5 6 
#
# 1 0.018670 -0.006128 -0.004383 0.000000 0.000000 0.000000
# 2 -0.006128 0.023098 -0.004240 0.000000 0.000000 0.000000
# 3 -0.004383 -0.004240 0.008586 0.000000 0.000000 0.000000
# 4 0.000000 0.000000 0.000000 0.038888 0.000000 0.000000
# 5 0.000000 0.000000 0.000000 0.000000 0.055123 0.000000
# 6 0.000000 0.000000 0.000000 0.000000 0.000000 0.057693
#
#
# Mechanical properties :
#
#
# Convention : Reuss Voigt Hill
#
# Bulk Modulus (GPa) = 47.95684 61.99100 54.97392
# Shear Modulus (GPa) = 20.96334 23.77486 22.36910
#
# Velocity S-wave (km/s) = 3.32235 3.53813 3.43194
# Velocity P-wave (km/s) = 6.32207 7.02367 6.68208
#
# Compressibility (1/GPa) = 0.02085208
#
# Stress axis : x y z
#
# Youngs Moduli (GPa) = 53.56192 43.29302 116.46608
#
# Poissons Ratio (x) = 0.26532 0.51051
# Poissons Ratio (y) = 0.32825 0.49377
# Poissons Ratio (z) = 0.23478 0.18354
#
# Static dielectric constant tensor:
#      x y z
#    x 3.511150 0.000000 0.000000 
#    y 0.000000 3.512180 0.000000 
#    z 0.000000 0.000000 3.815970 
# 
# 
# High freq. dielectric constant tensor:
#      x y z
#    x 1.726570 0.000000 0.000000 
#    y 0.000000 1.725800 0.000000 
#    z 0.000000 0.000000 1.746080 
# 
# From -- ./inp_files/28420.got.cif
#   From: 2010.03.12/outbox.cif.g09.slc.cpg/sg66_15_cif.got.tgz:28420.got - 2010.04.10 21:57:39.
