data_PCOD8275870
_publ_section_title
;
Structure prediction by ZEFSAII (Michael W. Deem and Ramdas Pophale) SiO2 
 PCOD8275870
Probable space group: C C C M
;
_chemical_formula_sum "Si O2"
_cell_formula_units_Z 72
_cell_length_a 7.318865
_cell_length_b 25.575374
_cell_length_c 22.041810
_cell_angle_alpha 90.000000
_cell_angle_beta 90.000000
_cell_angle_gamma 90.000000
_cell_volume 4125.845721
_symmetry_space_group_name_H-M "C C C M"
_symmetry_group_IT_number 66
_symmetry_cell_setting 'orthorhombic'
loop_
_space_group_symop_operation_xyz
x,y,z
-x,-y,z
x,-y,1/2-z
-x,y,1/2-z
-x,-y,-z
x,y,-z
-x,y,1/2+z
x,-y,1/2+z
1/2+x,1/2+y,z
1/2-x,1/2-y,z
1/2+x,1/2-y,1/2-z
1/2-x,1/2+y,1/2-z
1/2-x,1/2-y,-z
1/2+x,1/2+y,-z
1/2-x,1/2+y,1/2+z
1/2+x,1/2-y,1/2+z
loop_
_atom_site_type_symbol
_atom_site_label
_atom_site_fract_x
_atom_site_fract_y
_atom_site_fract_z
Si Si1 0.753900 0.643884 0.695172
Si Si2 0.250000 0.750000 0.872149
Si Si3 0.603868 0.705896 0.933733
Si Si4 0.837982 0.871548 0.171937
Si Si5 0.529952 0.056496 0.679316
O O1 0.801008 0.700912 0.669936
O O2 0.769891 0.650178 0.768274
O O3 0.552301 0.621455 0.682207
O O4 0.887180 0.602464 0.661758
O O5 0.416571 0.732749 0.913695
O O6 0.750000 0.750000 0.941756
O O7 0.687383 0.665721 0.885514
O O8 0.572860 0.678942 0.000000
O O9 0.735638 0.926598 0.159685
O O10 0.500000 0.047835 0.750000
O O11 0.500000 0.000000 0.646875
#
# Coordination Sequence:
#
# PCOD8275870 Si02
#       5
#    16   8  16  16  16
#     4   9  18  30  46  73  99 124 158 195 247 295
#     4  10  19  32  50  72  99 128 160 198 244 296
#     4  10  20  32  47  68  97 133 168 199 236 286
#     4   9  18  31  45  69  98 123 159 198 243 289
#     4   9  17  30  48  70  97 126 156 196 245 299
#
# _framework density 17.450968
#
# number of rings (size 3 to 8) (size 9 to 14) (size 15 to 20)
#    0.000    2.667    0.000    1.667    1.556    0.889 
#    8.000    4.444    0.000    0.667    0.000    6.222 
#    0.000    0.000    0.000    0.000    0.000    0.000 
#
# Total GULP energy -445985.375078 kJ/mol
# GULP energy per Si atom -12388.482641 kJ/mol
# Density = 1.741125 g / cm^3
# Si number density = 17.450968 Si / 1000 Ang^3
#
#
#
# Elastic Constant Matrix: (Units=GPa)
#
#
# Indices 1 2 3 4 5 6 
#
# 1 52.0469 49.2925 28.8469 0.0000 0.0000 0.0000
# 2 49.2925 141.1051 46.9638 0.0000 0.0000 0.0000
# 3 28.8469 46.9638 95.0053 0.0000 0.0000 0.0000
# 4 0.0000 0.0000 0.0000 2.4154 0.0000 0.0000
# 5 0.0000 0.0000 0.0000 0.0000 18.3529 0.0000
# 6 0.0000 0.0000 0.0000 0.0000 0.0000 28.3444
#
#
#
# Elastic Compliance Matrix: (Units=1/GPa)
#
#
# Indices 1 2 3 4 5 6 
#
# 1 0.030416 -0.009039 -0.004767 0.000000 0.000000 0.000000
# 2 -0.009039 0.011168 -0.002776 0.000000 0.000000 0.000000
# 3 -0.004767 -0.002776 0.013346 0.000000 0.000000 0.000000
# 4 0.000000 0.000000 0.000000 0.414010 0.000000 0.000000
# 5 0.000000 0.000000 0.000000 0.000000 0.054487 0.000000
# 6 0.000000 0.000000 0.000000 0.000000 0.000000 0.035280
#
#
# Mechanical properties :
#
#
# Convention : Reuss Voigt Hill
#
# Bulk Modulus (GPa) = 45.94436 59.81820 52.88128
# Shear Modulus (GPa) = 8.34547 20.69282 14.51914
#
# Velocity S-wave (km/s) = 2.18921 3.44724 2.88756
# Velocity P-wave (km/s) = 5.72495 7.08497 6.44096
#
# Compressibility (1/GPa) = 0.02176546
#
# Stress axis : x y z
#
# Youngs Moduli (GPa) = 32.87743 89.53782 74.93030
#
# Poissons Ratio (x) = 0.80929 0.35722
# Poissons Ratio (y) = 0.29717 0.20804
# Poissons Ratio (z) = 0.15674 0.24860
#
# Static dielectric constant tensor:
#      x y z
#    x 3.288640 0.000000 0.000000 
#    y 0.000000 3.455180 0.000000 
#    z 0.000000 0.000000 3.584140 
# 
# 
# High freq. dielectric constant tensor:
#      x y z
#    x 1.690240 0.000000 0.000000 
#    y 0.000000 1.662220 0.000000 
#    z 0.000000 0.000000 1.644310 
# 
# From -- ./inp_files/46928.got.cif
#   From: 2010.03.12/outbox.cif.g09.slc.cpg/sg66_24_cif.got.tgz:46928.got - 2010.04.10 21:57:39.
