data_PCOD8275241
_publ_section_title
;
Structure prediction by ZEFSAII (Michael W. Deem and Ramdas Pophale) SiO2 
 PCOD8275241
Probable space group: C C C M
;
_chemical_formula_sum "Si O2"
_cell_formula_units_Z 96
_cell_length_a 19.006954
_cell_length_b 12.907672
_cell_length_c 24.135163
_cell_angle_alpha 90.000000
_cell_angle_beta 90.000000
_cell_angle_gamma 90.000000
_cell_volume 5921.212957
_symmetry_space_group_name_H-M "C C C M"
_symmetry_group_IT_number 66
_symmetry_cell_setting 'orthorhombic'
loop_
_space_group_symop_operation_xyz
x,y,z
-x,-y,z
x,-y,1/2-z
-x,y,1/2-z
-x,-y,-z
x,y,-z
-x,y,1/2+z
x,-y,1/2+z
1/2+x,1/2+y,z
1/2-x,1/2-y,z
1/2+x,1/2-y,1/2-z
1/2-x,1/2+y,1/2-z
1/2-x,1/2-y,-z
1/2+x,1/2+y,-z
1/2-x,1/2+y,1/2+z
1/2+x,1/2-y,1/2+z
loop_
_atom_site_type_symbol
_atom_site_label
_atom_site_fract_x
_atom_site_fract_y
_atom_site_fract_z
Si Si1 0.184400 0.174975 0.263889
Si Si2 0.819198 0.121811 0.561169
Si Si3 0.080955 0.350275 0.265362
Si Si4 0.865390 0.523611 0.164676
Si Si5 0.152813 0.350445 0.061504
Si Si6 0.296910 0.520663 0.667257
O O1 0.250000 0.250000 0.278157
O O2 0.111468 0.235936 0.271843
O O3 0.194324 0.125649 0.203156
O O4 0.171434 0.081618 0.306251
O O5 0.837074 0.077033 0.500000
O O6 0.862569 0.228319 0.570566
O O7 0.736202 0.139548 0.566986
O O8 0.838136 0.039721 0.609251
O O9 0.126287 0.398968 0.215882
O O10 0.089940 0.419364 0.321579
O O11 0.000000 0.345845 0.250000
O O12 0.888430 0.579774 0.107117
O O13 0.784533 0.493546 0.159292
O O14 0.127745 0.385117 0.000000
#
# Coordination Sequence:
#
# PCOD8275241 Si02
#       6
#    16  16  16  16  16  16
#     4  11  18  31  46  69  93 118 157 192 232 272
#     4   8  14  24  39  67 100 123 146 190 241 274
#     4  11  21  31  45  66  95 128 154 186 231 284
#     4  10  16  28  47  69  95 118 151 192 229 280
#     4   8  14  23  41  68  96 123 151 188 234 273
#     4  10  18  27  49  72  90 118 155 196 232 276
#
# _framework density 16.212893000000001
#
# number of rings (size 3 to 8) (size 9 to 14) (size 15 to 20)
#    0.000    2.333    3.333    4.000    2.333    0.000 
#    0.000    1.667    0.000    3.500    0.000    0.000 
#    0.000    4.000    0.000    0.000    0.000    0.000 
#
# Total GULP energy -594752.038848 kJ/mol
# GULP energy per Si atom -12390.667476 kJ/mol
# Density = 1.617599 g / cm^3
# Si number density = 16.212893 Si / 1000 Ang^3
#
#
#
# Elastic Constant Matrix: (Units=GPa)
#
#
# Indices 1 2 3 4 5 6 
#
# 1 47.6399 30.9649 20.6784 0.0000 0.0000 0.0000
# 2 30.9649 96.4869 55.8910 0.0000 0.0000 0.0000
# 3 20.6784 55.8910 127.1439 0.0000 0.0000 0.0000
# 4 0.0000 0.0000 0.0000 24.9209 0.0000 0.0000
# 5 0.0000 0.0000 0.0000 0.0000 6.7447 0.0000
# 6 0.0000 0.0000 0.0000 0.0000 0.0000 12.5744
#
#
#
# Elastic Compliance Matrix: (Units=1/GPa)
#
#
# Indices 1 2 3 4 5 6 
#
# 1 0.026579 -0.008084 -0.000769 0.000000 0.000000 0.000000
# 2 -0.008084 0.016364 -0.005878 0.000000 0.000000 0.000000
# 3 -0.000769 -0.005878 0.010574 0.000000 0.000000 0.000000
# 4 0.000000 0.000000 0.000000 0.040127 0.000000 0.000000
# 5 0.000000 0.000000 0.000000 0.000000 0.148264 0.000000
# 6 0.000000 0.000000 0.000000 0.000000 0.000000 0.079526
#
#
# Mechanical properties :
#
#
# Convention : Reuss Voigt Hill
#
# Bulk Modulus (GPa) = 41.57398 54.03768 47.80583
# Shear Modulus (GPa) = 13.93082 19.76378 16.84730
#
# Velocity S-wave (km/s) = 2.93447 3.49523 3.22705
# Velocity P-wave (km/s) = 6.09751 7.04920 6.59056
#
# Compressibility (1/GPa) = 0.02405351
#
# Stress axis : x y z
#
# Youngs Moduli (GPa) = 37.62326 61.11065 94.56912
#
# Poissons Ratio (x) = 0.49405 0.07272
# Poissons Ratio (y) = 0.30416 0.55592
# Poissons Ratio (z) = 0.02893 0.35924
#
# Static dielectric constant tensor:
#      x y z
#    x 2.589870 0.000000 0.000000 
#    y 0.000000 3.181330 0.000000 
#    z 0.000000 0.000000 3.396680 
# 
# 
# High freq. dielectric constant tensor:
#      x y z
#    x 1.571130 0.000000 0.000000 
#    y 0.000000 1.617680 0.000000 
#    z 0.000000 0.000000 1.623340 
# 
# From -- ./inp_files/65211.got.cif
#   From: 2010.03.12/outbox.cif.g09.slc.cpg/sg66_33_cif.got.tgz:65211.got - 2010.04.10 21:57:39.
