data_PCOD8275085
_publ_section_title
;
Structure prediction by ZEFSAII (Michael W. Deem and Ramdas Pophale) SiO2 
 PCOD8275085
Probable space group: C M M M
;
_chemical_formula_sum "Si O2"
_cell_formula_units_Z 104
_cell_length_a 28.480964
_cell_length_b 17.441760
_cell_length_c 13.049320
_cell_angle_alpha 90.000000
_cell_angle_beta 90.000000
_cell_angle_gamma 90.000000
_cell_volume 6482.355914
_symmetry_space_group_name_H-M "C M M M"
_symmetry_group_IT_number 65
_symmetry_cell_setting 'orthorhombic'
loop_
_space_group_symop_operation_xyz
x,y,z
-x,-y,z
x,-y,-z
-x,y,-z
-x,-y,-z
x,y,-z
-x,y,z
x,-y,z
1/2+x,1/2+y,z
1/2-x,1/2-y,z
1/2+x,1/2-y,-z
1/2-x,1/2+y,-z
1/2-x,1/2-y,-z
1/2+x,1/2+y,-z
1/2-x,1/2+y,z
1/2+x,1/2-y,z
loop_
_atom_site_type_symbol
_atom_site_label
_atom_site_fract_x
_atom_site_fract_y
_atom_site_fract_z
Si Si1 0.147776 0.410823 0.883135
Si Si2 0.211479 0.832005 0.380535
Si Si3 0.610267 0.358938 0.380741
Si Si4 0.552958 0.500000 0.622681
Si Si5 0.404038 0.187685 0.617487
Si Si6 0.552090 0.912287 0.220311
Si Si7 0.693258 0.166813 0.302295
O O1 0.158211 0.500000 0.861539
O O2 0.092817 0.392166 0.861301
O O3 0.182538 0.359676 0.813757
O O4 0.158287 0.388824 0.000000
O O5 0.214952 0.807752 0.500000
O O6 0.164895 0.883035 0.362682
O O7 0.259320 0.875578 0.344920
O O8 0.204394 0.756706 0.310939
O O9 0.599142 0.354728 0.500000
O O10 0.577954 0.424495 0.330492
O O11 0.598458 0.274459 0.336799
O O12 0.500000 0.500000 0.662021
O O13 0.556404 0.500000 0.500000
O O14 0.419362 0.186409 0.500000
O O15 0.442743 0.140902 0.679910
O O16 0.352788 0.147517 0.629864
O O17 0.500000 0.897981 0.172689
O O18 0.557059 0.000000 0.256352
#
# Coordination Sequence:
#
# PCOD8275085 Si02
#       7
#    16  16  16   8  16  16  16
#     4   9  18  32  46  59  81 111 142 182 227 264
#     4   9  15  26  45  64  89 118 141 169 207 259
#     4   8  15  26  39  57  80 112 149 176 206 244
#     4   9  16  26  38  52  76 108 145 187 214 233
#     4   9  16  26  41  60  86 117 144 173 213 265
#     4   9  18  30  43  61  82 107 144 185 221 262
#     4   9  15  26  44  64  82 109 146 174 208 257
#
# _framework density 16.04355
#
# number of rings (size 3 to 8) (size 9 to 14) (size 15 to 20)
#    0.000    3.154    0.000    2.769    0.000    1.538 
#    1.385    5.385    0.000    3.231    0.000    0.000 
#    0.000    0.000    0.000    1.846    0.000   92.846 
#
# Total GULP energy -644198.295542 kJ/mol
# GULP energy per Si atom -12388.428760 kJ/mol
# Density = 1.600703 g / cm^3
# Si number density = 16.043550 Si / 1000 Ang^3
#
#
#
# Elastic Constant Matrix: (Units=GPa)
#
#
# Indices 1 2 3 4 5 6 
#
# 1 113.5739 43.4055 32.2839 0.0000 0.0000 0.0000
# 2 43.4055 57.8934 35.1996 0.0000 0.0000 0.0000
# 3 32.2839 35.1996 75.9348 0.0000 0.0000 0.0000
# 4 0.0000 0.0000 0.0000 14.3779 0.0000 0.0000
# 5 0.0000 0.0000 0.0000 0.0000 15.4404 0.0000
# 6 0.0000 0.0000 0.0000 0.0000 0.0000 24.3259
#
#
#
# Elastic Compliance Matrix: (Units=1/GPa)
#
#
# Indices 1 2 3 4 5 6 
#
# 1 0.012439 -0.008509 -0.001344 0.000000 0.000000 0.000000
# 2 -0.008509 0.029872 -0.010230 0.000000 0.000000 0.000000
# 3 -0.001344 -0.010230 0.018483 0.000000 0.000000 0.000000
# 4 0.000000 0.000000 0.000000 0.069551 0.000000 0.000000
# 5 0.000000 0.000000 0.000000 0.000000 0.064765 0.000000
# 6 0.000000 0.000000 0.000000 0.000000 0.000000 0.041109
#
#
# Mechanical properties :
#
#
# Convention : Reuss Voigt Hill
#
# Bulk Modulus (GPa) = 48.47683 52.13113 50.30398
# Shear Modulus (GPa) = 17.65162 19.92971 18.79066
#
# Velocity S-wave (km/s) = 3.32057 3.52835 3.42603
# Velocity P-wave (km/s) = 6.70693 7.01163 6.86098
#
# Compressibility (1/GPa) = 0.02062841
#
# Stress axis : x y z
#
# Youngs Moduli (GPa) = 80.39380 33.47581 54.10458
#
# Poissons Ratio (x) = 0.28484 0.07273
# Poissons Ratio (y) = 0.68405 0.55348
# Poissons Ratio (z) = 0.10806 0.34245
#
# Static dielectric constant tensor:
#      x y z
#    x 3.415200 0.000000 0.000000 
#    y 0.000000 3.007420 0.000000 
#    z 0.000000 0.000000 2.663250 
# 
# 
# High freq. dielectric constant tensor:
#      x y z
#    x 1.632070 0.000000 0.000000 
#    y 0.000000 1.595420 0.000000 
#    z 0.000000 0.000000 1.564600 
# 
# From -- ./inp_files/34146.got.cif
#   From: 2010.03.12/outbox.cif.g09.slc.cpg/sg65_18_cif.got.tgz:34146.got - 2010.04.10 20:52:16.
