data_PCOD8275056
_publ_section_title
;
Structure prediction by ZEFSAII (Michael W. Deem and Ramdas Pophale) SiO2 
 PCOD8275056
Probable space group: C M M M
;
_chemical_formula_sum "Si O2"
_cell_formula_units_Z 80
_cell_length_a 50.875034
_cell_length_b 9.757234
_cell_length_c 9.507850
_cell_angle_alpha 90.000000
_cell_angle_beta 90.000000
_cell_angle_gamma 90.000000
_cell_volume 4719.693046
_symmetry_space_group_name_H-M "C M M M"
_symmetry_group_IT_number 65
_symmetry_cell_setting 'orthorhombic'
loop_
_space_group_symop_operation_xyz
x,y,z
-x,-y,z
x,-y,-z
-x,y,-z
-x,-y,-z
x,y,-z
-x,y,z
x,-y,z
1/2+x,1/2+y,z
1/2-x,1/2-y,z
1/2+x,1/2-y,-z
1/2-x,1/2+y,-z
1/2-x,1/2-y,-z
1/2+x,1/2+y,-z
1/2-x,1/2+y,z
1/2+x,1/2-y,z
loop_
_atom_site_type_symbol
_atom_site_label
_atom_site_fract_x
_atom_site_fract_y
_atom_site_fract_z
Si Si1 0.373562 0.841870 0.162973
Si Si2 0.029053 0.846233 0.667074
Si Si3 0.075692 0.341623 0.663833
Si Si4 0.774236 0.157855 0.336848
Si Si5 0.175061 0.842231 0.836944
O O1 0.398562 0.794429 0.252700
O O2 0.349163 0.750470 0.213241
O O3 0.366524 0.000000 0.192307
O O4 0.380087 0.816209 0.000000
O O5 0.028931 0.840113 0.500000
O O6 0.051014 0.742856 0.725727
O O7 0.000000 0.803442 0.722645
O O8 0.035790 0.000000 0.718116
O O9 0.080581 0.310910 0.500000
O O10 0.069333 0.500000 0.691035
O O11 0.780430 0.183122 0.500000
O O12 0.750000 0.250000 0.285507
O O13 0.799630 0.204703 0.250281
O O14 0.767126 0.000000 0.306352
O O15 0.167874 0.000000 0.806115
O O16 0.181441 0.817731 0.000000
#
# Coordination Sequence:
#
# PCOD8275056 Si02
#       5
#    16  16  16  16  16
#     4   9  18  32  47  63  87 118 147 176 215 261
#     4   8  14  25  41  62  88 115 142 175 216 259
#     4   9  17  28  43  65  89 111 141 181 218 253
#     4   9  18  32  48  67  92 119 145 175 214 258
#     4   9  18  32  48  66  88 114 146 182 216 252
#
# _framework density 16.950254000000001
#
# number of rings (size 3 to 8) (size 9 to 14) (size 15 to 20)
#    0.000    3.200    0.000    0.600    0.000    3.200 
#    0.000    2.000    0.000    0.600    0.000    4.200 
#    0.000    0.000    0.000    0.000    0.000    0.000 
#
# Total GULP energy -495978.825761 kJ/mol
# GULP energy per Si atom -12399.470644 kJ/mol
# Density = 1.691167 g / cm^3
# Si number density = 16.950254 Si / 1000 Ang^3
#
#
#
# Elastic Constant Matrix: (Units=GPa)
#
#
# Indices 1 2 3 4 5 6 
#
# 1 187.5601 98.4900 61.2564 0.0000 0.0000 0.0000
# 2 98.4900 85.2231 36.2101 0.0000 0.0000 0.0000
# 3 61.2564 36.2101 41.0253 0.0000 0.0000 0.0000
# 4 0.0000 0.0000 0.0000 16.9291 0.0000 0.0000
# 5 0.0000 0.0000 0.0000 0.0000 4.1423 0.0000
# 6 0.0000 0.0000 0.0000 0.0000 0.0000 41.2397
#
#
#
# Elastic Compliance Matrix: (Units=1/GPa)
#
#
# Indices 1 2 3 4 5 6 
#
# 1 0.016936 -0.014125 -0.012820 0.000000 0.000000 0.000000
# 2 -0.014125 0.030556 -0.005878 0.000000 0.000000 0.000000
# 3 -0.012820 -0.005878 0.048706 0.000000 0.000000 0.000000
# 4 0.000000 0.000000 0.000000 0.059070 0.000000 0.000000
# 5 0.000000 0.000000 0.000000 0.000000 0.241410 0.000000
# 6 0.000000 0.000000 0.000000 0.000000 0.000000 0.024248
#
#
# Mechanical properties :
#
#
# Convention : Reuss Voigt Hill
#
# Bulk Modulus (GPa) = 32.73336 78.41351 55.57343
# Shear Modulus (GPa) = 10.06525 20.31902 15.19213
#
# Velocity S-wave (km/s) = 2.43947 3.46605 2.99704
# Velocity P-wave (km/s) = 5.22379 7.89806 6.69580
#
# Compressibility (1/GPa) = 0.03054987
#
# Stress axis : x y z
#
# Youngs Moduli (GPa) = 59.04520 32.72686 20.53120
#
# Poissons Ratio (x) = 0.46228 0.26322
# Poissons Ratio (y) = 0.83404 0.12069
# Poissons Ratio (z) = 0.75699 0.19238
#
# Static dielectric constant tensor:
#      x y z
#    x 3.346670 0.000000 0.000000 
#    y 0.000000 3.241990 0.000000 
#    z 0.000000 0.000000 2.947990 
# 
# 
# High freq. dielectric constant tensor:
#      x y z
#    x 1.658660 0.000000 0.000000 
#    y 0.000000 1.653760 0.000000 
#    z 0.000000 0.000000 1.627530 
# 
# From -- ./inp_files/33499.got.cif
#   From: 2010.03.12/outbox.cif.g09.slc.cpg/sg65_17_cif.got.tgz:33499.got - 2010.04.10 20:52:16.
