data_PCOD8275905
_publ_section_title
;
Structure prediction by ZEFSAII (Michael W. Deem and Ramdas Pophale) SiO2 
 PCOD8275905
Probable space group: C C C M
;
_chemical_formula_sum "Si O2"
_cell_formula_units_Z 112
_cell_length_a 33.137263
_cell_length_b 10.114072
_cell_length_c 17.694991
_cell_angle_alpha 90.000000
_cell_angle_beta 90.000000
_cell_angle_gamma 90.000000
_cell_volume 5930.523371
_symmetry_space_group_name_H-M "C C C M"
_symmetry_group_IT_number 66
_symmetry_cell_setting 'orthorhombic'
loop_
_space_group_symop_operation_xyz
x,y,z
-x,-y,z
x,-y,1/2-z
-x,y,1/2-z
-x,-y,-z
x,y,-z
-x,y,1/2+z
x,-y,1/2+z
1/2+x,1/2+y,z
1/2-x,1/2-y,z
1/2+x,1/2-y,1/2-z
1/2-x,1/2+y,1/2-z
1/2-x,1/2-y,-z
1/2+x,1/2+y,-z
1/2-x,1/2+y,1/2+z
1/2+x,1/2-y,1/2+z
loop_
_atom_site_type_symbol
_atom_site_label
_atom_site_fract_x
_atom_site_fract_y
_atom_site_fract_z
Si Si1 0.001198 0.157053 0.664973
Si Si2 0.919785 0.842590 0.912119
Si Si3 0.336236 0.720520 0.164457
Si Si4 0.792910 0.493558 0.835790
Si Si5 0.840369 0.754074 0.839353
Si Si6 0.290441 0.480803 0.911616
Si Si7 0.583047 0.347355 0.088297
O O1 0.041577 0.207471 0.623813
O O2 0.000000 0.213192 0.750000
O O3 0.962432 0.208836 0.619537
O O4 0.000000 0.000000 0.664971
O O5 0.885448 0.760289 0.870528
O O6 0.912256 0.996981 0.895809
O O7 0.918482 0.811175 0.000000
O O8 0.340257 0.697127 0.253391
O O9 0.311493 0.599288 0.131765
O O10 0.380325 0.729446 0.127458
O O11 0.312027 0.852751 0.144658
O O12 0.776123 0.500000 0.750000
O O13 0.827376 0.602462 0.846631
O O14 0.756733 0.522322 0.892938
O O15 0.810014 0.842464 0.888121
O O16 0.297116 0.502465 0.000000
O O17 0.582855 0.315913 0.000000
#
# Coordination Sequence:
#
# PCOD8275905 Si02
#       7
#    16  16  16  16  16  16  16
#     4   9  17  29  49  78 111 146 185 224 271 325
#     4  10  19  32  52  81 115 145 181 227 277 328
#     4  11  22  38  60  82 111 148 188 231 277 331
#     4  10  24  42  58  81 110 147 190 232 279 332
#     4  11  22  38  60  82 111 148 188 231 277 331
#     4  12  24  38  58  85 112 143 186 234 282 332
#     4  10  19  32  52  81 115 145 181 227 277 328
#
# _framework density 18.885349000000001
#
# number of rings (size 3 to 8) (size 9 to 14) (size 15 to 20)
#    0.000    1.571    1.429    4.286    0.000    8.571 
#    0.000    0.000    0.000    0.857    0.000    6.000 
#    0.000    0.000    0.000    0.000    0.000    0.000 
#
# Total GULP energy -694698.828278 kJ/mol
# GULP energy per Si atom -12405.336219 kJ/mol
# Density = 1.884236 g / cm^3
# Si number density = 18.885349 Si / 1000 Ang^3
#
#
#
# Elastic Constant Matrix: (Units=GPa)
#
#
# Indices 1 2 3 4 5 6 
#
# 1 118.6840 4.5379 42.1513 0.0000 0.0000 0.0000
# 2 4.5379 37.2148 11.3108 0.0000 0.0000 0.0000
# 3 42.1513 11.3108 106.4234 0.0000 0.0000 0.0000
# 4 0.0000 0.0000 0.0000 12.1703 0.0000 0.0000
# 5 0.0000 0.0000 0.0000 0.0000 28.0842 0.0000
# 6 0.0000 0.0000 0.0000 0.0000 0.0000 -36.4118
#
#
#
# Elastic Compliance Matrix: (Units=1/GPa)
#
#
# Indices 1 2 3 4 5 6 
#
# 1 0.009805 -0.000016 -0.003882 0.000000 0.000000 0.000000
# 2 -0.000016 0.027768 -0.002945 0.000000 0.000000 0.000000
# 3 -0.003882 -0.002945 0.011247 0.000000 0.000000 0.000000
# 4 0.000000 0.000000 0.000000 0.082167 0.000000 0.000000
# 5 0.000000 0.000000 0.000000 0.000000 0.035607 0.000000
# 6 0.000000 0.000000 0.000000 0.000000 0.000000 -0.027464
#
#
# Mechanical properties :
#
#
# Convention : Reuss Voigt Hill
#
# Bulk Modulus (GPa) = 28.46182 42.03579 35.24881
# Shear Modulus (GPa) = 30.39010 14.39002 22.39006
#
# Velocity S-wave (km/s) = 4.01582 2.76337 3.44696
# Velocity P-wave (km/s) = 6.05029 5.69986 5.87768
#
# Compressibility (1/GPa) = 0.03513478
#
# Stress axis : x y z
#
# Youngs Moduli (GPa) = 101.98900 36.01268 88.91344
#
# Poissons Ratio (x) = 0.00057 0.34514
# Poissons Ratio (y) = 0.00161 0.26185
# Poissons Ratio (z) = 0.39590 0.10606
#
# Static dielectric constant tensor:
#      x y z
#    x 3.645590 0.000000 0.000000 
#    y 0.000000 3.158650 0.000000 
#    z 0.000000 0.000000 3.640870 
# 
# 
# High freq. dielectric constant tensor:
#      x y z
#    x 1.750560 0.000000 0.000000 
#    y 0.000000 1.696990 0.000000 
#    z 0.000000 0.000000 1.749210 
# 
# From -- ./inp_files/33816.got.cif
#   From: 2010.03.12/outbox.cif.g09.slc.cpg/sg66_17_cif.got.tgz:33816.got - 2010.04.10 21:57:39.
