data_PCOD8275909
_publ_section_title
;
Structure prediction by ZEFSAII (Michael W. Deem and Ramdas Pophale) SiO2 
 PCOD8275909
Probable space group: C C C M
;
_chemical_formula_sum "Si O2"
_cell_formula_units_Z 64
_cell_length_a 9.643847
_cell_length_b 37.215702
_cell_length_c 10.068672
_cell_angle_alpha 90.000000
_cell_angle_beta 90.000000
_cell_angle_gamma 90.000000
_cell_volume 3613.671916
_symmetry_space_group_name_H-M "C C C M"
_symmetry_group_IT_number 66
_symmetry_cell_setting 'orthorhombic'
loop_
_space_group_symop_operation_xyz
x,y,z
-x,-y,z
x,-y,1/2-z
-x,y,1/2-z
-x,-y,-z
x,y,-z
-x,y,1/2+z
x,-y,1/2+z
1/2+x,1/2+y,z
1/2-x,1/2-y,z
1/2+x,1/2-y,1/2-z
1/2-x,1/2+y,1/2-z
1/2-x,1/2-y,-z
1/2+x,1/2+y,-z
1/2-x,1/2+y,1/2+z
1/2+x,1/2-y,1/2+z
loop_
_atom_site_type_symbol
_atom_site_label
_atom_site_fract_x
_atom_site_fract_y
_atom_site_fract_z
Si Si1 0.836269 0.915222 0.759406
Si Si2 0.659629 0.464086 0.500000
Si Si3 0.619993 0.225654 0.349152
Si Si4 0.331726 0.456046 0.500000
Si Si5 0.626763 0.142527 0.345170
O O1 0.781212 0.932806 0.624321
O O2 0.762884 0.877763 0.792605
O O3 0.000000 0.907676 0.750000
O O4 0.789944 0.943654 0.869829
O O5 0.494397 0.463521 0.500000
O O6 0.730136 0.503585 0.500000
O O7 0.500000 0.237767 0.250000
O O8 0.569486 0.232173 0.500000
O O9 0.750000 0.250000 0.313557
O O10 0.661282 0.184338 0.327182
O O11 0.500000 0.131018 0.250000
O O12 0.593868 0.133491 0.500000
#
# Coordination Sequence:
#
# PCOD8275909 Si02
#       5
#    16   8  16   8  16
#     4  10  19  32  53  79 105 135 175 223 263 309
#     4   9  16  32  49  75 106 137 168 221 270 311
#     4   9  19  36  57  80 107 139 175 214 258 308
#     4   9  18  28  51  79 104 131 176 217 270 315
#     4  10  21  37  55  76 107 145 177 210 258 313
#
# _framework density 17.710519000000001
#
# number of rings (size 3 to 8) (size 9 to 14) (size 15 to 20)
#    0.000    2.500    1.250    0.750    1.750    4.500 
#    0.000    0.000    0.000    4.500    0.000    0.000 
#    0.000    0.000    0.000    0.000    0.000    0.000 
#
# Total GULP energy -396726.173986 kJ/mol
# GULP energy per Si atom -12397.692937 kJ/mol
# Density = 1.767021 g / cm^3
# Si number density = 17.710519 Si / 1000 Ang^3
#
#
#
# Elastic Constant Matrix: (Units=GPa)
#
#
# Indices 1 2 3 4 5 6 
#
# 1 78.6888 60.8195 63.0740 0.0000 0.0000 0.0000
# 2 60.8195 94.2669 66.4324 0.0000 0.0000 0.0000
# 3 63.0740 66.4324 161.3898 0.0000 0.0000 0.0000
# 4 0.0000 0.0000 0.0000 49.8666 0.0000 0.0000
# 5 0.0000 0.0000 0.0000 0.0000 -15.0538 0.0000
# 6 0.0000 0.0000 0.0000 0.0000 0.0000 24.4667
#
#
#
# Elastic Compliance Matrix: (Units=1/GPa)
#
#
# Indices 1 2 3 4 5 6 
#
# 1 0.027868 -0.014515 -0.004916 0.000000 0.000000 0.000000
# 2 -0.014515 0.022503 -0.003590 0.000000 0.000000 0.000000
# 3 -0.004916 -0.003590 0.009595 0.000000 0.000000 0.000000
# 4 0.000000 0.000000 0.000000 0.020053 0.000000 0.000000
# 5 0.000000 0.000000 0.000000 0.000000 -0.066429 0.000000
# 6 0.000000 0.000000 0.000000 0.000000 0.000000 0.040872
#
#
# Mechanical properties :
#
#
# Convention : Reuss Voigt Hill
#
# Bulk Modulus (GPa) = 71.82337 79.44416 75.63377
# Shear Modulus (GPa) = 47.55167 21.45722 34.50445
#
# Velocity S-wave (km/s) = 5.18726 3.48451 4.41868
# Velocity P-wave (km/s) = 8.74752 7.81943 8.29646
#
# Compressibility (1/GPa) = 0.01392304
#
# Stress axis : x y z
#
# Youngs Moduli (GPa) = 35.88306 44.43786 104.21639
#
# Poissons Ratio (x) = 0.64503 0.51238
# Poissons Ratio (y) = 0.52086 0.37415
# Poissons Ratio (z) = 0.17642 0.15954
#
# Static dielectric constant tensor:
#      x y z
#    x 2.939460 0.000000 0.000000 
#    y 0.000000 3.343110 0.000000 
#    z 0.000000 0.000000 3.571840 
# 
# 
# High freq. dielectric constant tensor:
#      x y z
#    x 1.647560 0.000000 0.000000 
#    y 0.000000 1.691120 0.000000 
#    z 0.000000 0.000000 1.705120 
# 
# From -- ./inp_files/4009.got.cif
#   From: 2010.03.12/outbox.cif.g09.slc.cpg/sg66_3_cif.got.tgz:4009.got - 2010.04.10 21:57:39.
