data_PCOD8275525
_publ_section_title
;
Structure prediction by ZEFSAII (Michael W. Deem and Ramdas Pophale) SiO2 
 PCOD8275525
Probable space group: C C C M
;
_chemical_formula_sum "Si O2"
_cell_formula_units_Z 64
_cell_length_a 17.575768
_cell_length_b 9.459660
_cell_length_c 18.746358
_cell_angle_alpha 90.000000
_cell_angle_beta 90.000000
_cell_angle_gamma 90.000000
_cell_volume 3116.784282
_symmetry_space_group_name_H-M "C C C M"
_symmetry_group_IT_number 66
_symmetry_cell_setting 'orthorhombic'
loop_
_space_group_symop_operation_xyz
x,y,z
-x,-y,z
x,-y,1/2-z
-x,y,1/2-z
-x,-y,-z
x,y,-z
-x,y,1/2+z
x,-y,1/2+z
1/2+x,1/2+y,z
1/2-x,1/2-y,z
1/2+x,1/2-y,1/2-z
1/2-x,1/2+y,1/2-z
1/2-x,1/2-y,-z
1/2+x,1/2+y,-z
1/2-x,1/2+y,1/2+z
1/2+x,1/2-y,1/2+z
loop_
_atom_site_type_symbol
_atom_site_label
_atom_site_fract_x
_atom_site_fract_y
_atom_site_fract_z
Si Si1 0.586187 0.351385 0.724797
Si Si2 0.029838 0.155524 0.923131
Si Si3 0.812733 0.630949 0.701428
Si Si4 0.072683 0.407568 0.418292
O O1 0.624985 0.500000 0.750000
O O2 0.500000 0.354413 0.750000
O O3 0.592231 0.333789 0.639029
O O4 0.623559 0.211184 0.754074
O O5 0.954038 0.246532 0.908299
O O6 0.066260 0.200838 0.000000
O O7 0.000000 0.000000 0.926945
O O8 0.781430 0.500000 0.750000
O O9 0.750000 0.750000 0.682145
O O10 0.852208 0.567970 0.629995
O O11 0.094955 0.443552 0.500000
O O12 0.000000 0.500000 0.393297
#
# Coordination Sequence:
#
# PCOD8275525 Si02
#       4
#    16  16  16  16
#     4  11  19  35  60  88 120 158 206 258 306 375
#     4  10  18  30  53  87 119 151 196 254 306 357
#     4  12  26  40  61  88 126 165 209 259 321 377
#     4  10  21  38  62  92 121 156 209 263 312 378
#
# _framework density 20.533982000000002
#
# number of rings (size 3 to 8) (size 9 to 14) (size 15 to 20)
#    0.000    1.250    5.000    2.250    0.000    0.500 
#    0.000    0.000    0.000    6.000    0.000    0.000 
#    0.000    0.000    0.000    0.000    0.000    0.000 
#
# Total GULP energy -396543.818369 kJ/mol
# GULP energy per Si atom -12391.994324 kJ/mol
# Density = 2.048725 g / cm^3
# Si number density = 20.533982 Si / 1000 Ang^3
#
#
#
# Elastic Constant Matrix: (Units=GPa)
#
#
# Indices 1 2 3 4 5 6 
#
# 1 76.1089 30.6179 46.2028 0.0000 0.0000 0.0000
# 2 30.6179 96.9224 17.8574 0.0000 0.0000 0.0000
# 3 46.2028 17.8574 156.5602 0.0000 0.0000 0.0000
# 4 0.0000 0.0000 0.0000 27.3148 0.0000 0.0000
# 5 0.0000 0.0000 0.0000 0.0000 17.9768 0.0000
# 6 0.0000 0.0000 0.0000 0.0000 0.0000 31.4873
#
#
#
# Elastic Compliance Matrix: (Units=1/GPa)
#
#
# Indices 1 2 3 4 5 6 
#
# 1 0.017953 -0.004796 -0.004751 0.000000 0.000000 0.000000
# 2 -0.004796 0.011820 0.000067 0.000000 0.000000 0.000000
# 3 -0.004751 0.000067 0.007782 0.000000 0.000000 0.000000
# 4 0.000000 0.000000 0.000000 0.036610 0.000000 0.000000
# 5 0.000000 0.000000 0.000000 0.000000 0.055627 0.000000
# 6 0.000000 0.000000 0.000000 0.000000 0.000000 0.031759
#
#
# Mechanical properties :
#
#
# Convention : Reuss Voigt Hill
#
# Bulk Modulus (GPa) = 53.77811 57.66088 55.71949
# Shear Modulus (GPa) = 26.77967 31.01665 28.89816
#
# Velocity S-wave (km/s) = 3.61524 3.89074 3.75551
# Velocity P-wave (km/s) = 6.60857 6.95165 6.78228
#
# Compressibility (1/GPa) = 0.01859493
#
# Stress axis : x y z
#
# Youngs Moduli (GPa) = 55.70235 84.60091 128.50588
#
# Poissons Ratio (x) = 0.40574 0.61053
# Poissons Ratio (y) = 0.26714 -0.00862
# Poissons Ratio (z) = 0.26464 -0.00568
#
# Static dielectric constant tensor:
#      x y z
#    x 3.179420 0.000000 0.000000 
#    y 0.000000 4.060860 0.000000 
#    z 0.000000 0.000000 5.233040 
# 
# 
# High freq. dielectric constant tensor:
#      x y z
#    x 1.747490 0.000000 0.000000 
#    y 0.000000 1.825690 0.000000 
#    z 0.000000 0.000000 1.817370 
# 
# From -- ./inp_files/36327.got.cif
#   From: 2010.03.12/outbox.cif.g09.slc.cpg/sg66_19_cif.got.tgz:36327.got - 2010.04.10 21:57:39.
