data_PCOD8275419
_publ_section_title
;
Structure prediction by ZEFSAII (Michael W. Deem and Ramdas Pophale) SiO2 
 PCOD8275419
Probable space group: C C C M
;
_chemical_formula_sum "Si O2"
_cell_formula_units_Z 68
_cell_length_a 28.932090
_cell_length_b 17.468843
_cell_length_c 9.384469
_cell_angle_alpha 90.000000
_cell_angle_beta 90.000000
_cell_angle_gamma 90.000000
_cell_volume 4743.005771
_symmetry_space_group_name_H-M "C C C M"
_symmetry_group_IT_number 66
_symmetry_cell_setting 'orthorhombic'
loop_
_space_group_symop_operation_xyz
x,y,z
-x,-y,z
x,-y,1/2-z
-x,y,1/2-z
-x,-y,-z
x,y,-z
-x,y,1/2+z
x,-y,1/2+z
1/2+x,1/2+y,z
1/2-x,1/2-y,z
1/2+x,1/2-y,1/2-z
1/2-x,1/2+y,1/2-z
1/2-x,1/2-y,-z
1/2+x,1/2+y,-z
1/2-x,1/2+y,1/2+z
1/2+x,1/2-y,1/2+z
loop_
_atom_site_type_symbol
_atom_site_label
_atom_site_fract_x
_atom_site_fract_y
_atom_site_fract_z
Si Si1 0.089111 0.432623 0.842058
Si Si2 0.707031 0.693046 0.338362
Si Si3 0.345536 0.193183 0.838413
Si Si4 0.238805 0.423065 0.835294
Si Si5 0.500000 0.000000 0.750000
O O1 0.112599 0.500000 0.750000
O O2 0.106310 0.348672 0.791242
O O3 0.033101 0.442710 0.840430
O O4 0.108482 0.444274 0.000000
O O5 0.694518 0.668654 0.500000
O O6 0.750000 0.750000 0.337719
O O7 0.663246 0.736239 0.267672
O O8 0.718337 0.619025 0.242840
O O9 0.305988 0.129691 0.825977
O O10 0.348097 0.225004 0.000000
O O11 0.228029 0.500000 0.750000
O O12 0.251951 0.439876 0.000000
#
# Coordination Sequence:
#
# PCOD8275419 Si02
#       5
#    16  16  16  16   4
#     4   9  17  27  40  56  77 103 134 167 200 237
#     4   9  17  28  40  55  75  99 129 165 203 240
#     4   9  17  28  40  56  76 102 134 168 203 239
#     4  10  18  27  40  56  77 103 132 167 203 239
#     4   8  18  28  42  56  82 108 136 168 206 240
#
# _framework density 14.3369
#
# number of rings (size 3 to 8) (size 9 to 14) (size 15 to 20)
#    0.706    2.118    0.000    2.471    0.000    4.706 
#    0.000    0.000    0.000    0.000    0.000    0.000 
#    0.000    0.000    0.000    1.059    0.000   16.706 
#
# Total GULP energy -421201.930444 kJ/mol
# GULP energy per Si atom -12388.292072 kJ/mol
# Density = 1.430427 g / cm^3
# Si number density = 14.336900 Si / 1000 Ang^3
#
#
#
# Elastic Constant Matrix: (Units=GPa)
#
#
# Indices 1 2 3 4 5 6 
#
# 1 53.0548 16.3653 17.0743 0.0000 0.0000 0.0000
# 2 16.3653 28.5134 22.1716 0.0000 0.0000 0.0000
# 3 17.0743 22.1716 90.9910 0.0000 0.0000 0.0000
# 4 0.0000 0.0000 0.0000 27.2399 0.0000 0.0000
# 5 0.0000 0.0000 0.0000 0.0000 9.7940 0.0000
# 6 0.0000 0.0000 0.0000 0.0000 0.0000 30.2037
#
#
#
# Elastic Compliance Matrix: (Units=1/GPa)
#
#
# Indices 1 2 3 4 5 6 
#
# 1 0.023039 -0.012167 -0.001359 0.000000 0.000000 0.000000
# 2 -0.012167 0.049695 -0.009826 0.000000 0.000000 0.000000
# 3 -0.001359 -0.009826 0.013639 0.000000 0.000000 0.000000
# 4 0.000000 0.000000 0.000000 0.036711 0.000000 0.000000
# 5 0.000000 0.000000 0.000000 0.000000 0.102104 0.000000
# 6 0.000000 0.000000 0.000000 0.000000 0.000000 0.033109
#
#
# Mechanical properties :
#
#
# Convention : Reuss Voigt Hill
#
# Bulk Modulus (GPa) = 25.20776 31.53131 28.36953
# Shear Modulus (GPa) = 15.71233 21.24406 18.47819
#
# Velocity S-wave (km/s) = 3.31408 3.85356 3.59396
# Velocity P-wave (km/s) = 5.68021 6.46844 6.08710
#
# Compressibility (1/GPa) = 0.03967032
#
# Stress axis : x y z
#
# Youngs Moduli (GPa) = 43.40543 20.12286 73.31762
#
# Poissons Ratio (x) = 0.24483 0.09961
# Poissons Ratio (y) = 0.52810 0.72041
# Poissons Ratio (z) = 0.05897 0.19773
#
# Static dielectric constant tensor:
#      x y z
#    x 2.571280 0.000000 0.000000 
#    y 0.000000 2.709100 0.000000 
#    z 0.000000 0.000000 2.963490 
# 
# 
# High freq. dielectric constant tensor:
#      x y z
#    x 1.504930 0.000000 0.000000 
#    y 0.000000 1.522620 0.000000 
#    z 0.000000 0.000000 1.562430 
# 
# From -- ./inp_files/6821.got.cif
#   From: 2010.03.12/outbox.cif.g09.slc.cpg/sg66_4_cif.got.tgz:6821.got - 2010.04.10 21:57:39.
