data_PCOD8275406
_publ_section_title
;
Structure prediction by ZEFSAII (Michael W. Deem and Ramdas Pophale) SiO2 
 PCOD8275406
Probable space group: C C C M
;
_chemical_formula_sum "Si O2"
_cell_formula_units_Z 84
_cell_length_a 11.339025
_cell_length_b 18.814843
_cell_length_c 19.780736
_cell_angle_alpha 90.000000
_cell_angle_beta 90.000000
_cell_angle_gamma 90.000000
_cell_volume 4220.061288
_symmetry_space_group_name_H-M "C C C M"
_symmetry_group_IT_number 66
_symmetry_cell_setting 'orthorhombic'
loop_
_space_group_symop_operation_xyz
x,y,z
-x,-y,z
x,-y,1/2-z
-x,y,1/2-z
-x,-y,-z
x,y,-z
-x,y,1/2+z
x,-y,1/2+z
1/2+x,1/2+y,z
1/2-x,1/2-y,z
1/2+x,1/2-y,1/2-z
1/2-x,1/2+y,1/2-z
1/2-x,1/2-y,-z
1/2+x,1/2+y,-z
1/2-x,1/2+y,1/2+z
1/2+x,1/2-y,1/2+z
loop_
_atom_site_type_symbol
_atom_site_label
_atom_site_fract_x
_atom_site_fract_y
_atom_site_fract_z
Si Si1 0.370280 0.412290 0.863054
Si Si2 0.708876 0.482046 0.500000
Si Si3 0.334078 0.812942 0.373846
Si Si4 0.988379 0.211787 0.823964
Si Si5 0.000000 0.000000 0.250000
Si Si6 0.931701 0.613830 0.000000
Si Si7 0.750000 0.250000 0.891250
Si Si8 0.302891 0.132414 0.500000
O O1 0.360590 0.456488 0.932830
O O2 0.242872 0.377949 0.843530
O O3 0.462916 0.347854 0.876119
O O4 0.411607 0.458006 0.799277
O O5 0.843317 0.453138 0.500000
O O6 0.709845 0.567634 0.500000
O O7 0.250000 0.750000 0.399748
O O8 0.428354 0.781965 0.320557
O O9 0.411809 0.837275 0.435970
O O10 0.856005 0.230515 0.842004
O O11 0.000000 0.176829 0.750000
O O12 0.069517 0.593854 0.000000
O O13 0.715462 0.181401 0.934757
#
# Coordination Sequence:
#
# PCOD8275406 Si02
#       8
#    16   8  16  16   4   8   8   8
#     4  10  24  41  65  94 122 172 213 262 317 377
#     4  10  24  41  66  91 126 176 212 261 317 396
#     4   9  19  37  62  90 119 158 208 254 308 379
#     4  11  23  40  63  91 128 168 212 264 319 383
#     4  12  24  42  60  96 134 162 216 274 310 382
#     4  10  17  39  61  91 123 161 206 253 317 372
#     4  11  26  40  62  98 128 165 208 274 330 375
#     4  11  23  41  62  94 131 162 207 270 334 378
#
# _framework density 19.904924999999999
#
# number of rings (size 3 to 8) (size 9 to 14) (size 15 to 20)
#    0.000    1.714    2.857    0.571    6.667    4.190 
#    0.000    0.000    0.000    0.000    0.000    0.000 
#    0.000    0.000    0.000    0.000    0.000    0.000 
#
# Total GULP energy -520544.274529 kJ/mol
# GULP energy per Si atom -12393.911298 kJ/mol
# Density = 1.985962 g / cm^3
# Si number density = 19.904925 Si / 1000 Ang^3
#
#
#
# Elastic Constant Matrix: (Units=GPa)
#
#
# Indices 1 2 3 4 5 6 
#
# 1 131.9409 51.7564 60.3989 0.0000 0.0000 0.0000
# 2 51.7564 100.7999 55.0437 0.0000 0.0000 0.0000
# 3 60.3989 55.0437 119.6909 0.0000 0.0000 0.0000
# 4 0.0000 0.0000 0.0000 26.0743 0.0000 0.0000
# 5 0.0000 0.0000 0.0000 0.0000 35.0378 0.0000
# 6 0.0000 0.0000 0.0000 0.0000 0.0000 24.1883
#
#
#
# Elastic Compliance Matrix: (Units=1/GPa)
#
#
# Indices 1 2 3 4 5 6 
#
# 1 0.010656 -0.003385 -0.003820 0.000000 0.000000 0.000000
# 2 -0.003385 0.014323 -0.004879 0.000000 0.000000 0.000000
# 3 -0.003820 -0.004879 0.012526 0.000000 0.000000 0.000000
# 4 0.000000 0.000000 0.000000 0.038352 0.000000 0.000000
# 5 0.000000 0.000000 0.000000 0.000000 0.028541 0.000000
# 6 0.000000 0.000000 0.000000 0.000000 0.000000 0.041342
#
#
# Mechanical properties :
#
#
# Convention : Reuss Voigt Hill
#
# Bulk Modulus (GPa) = 74.98110 76.31441 75.64775
# Shear Modulus (GPa) = 28.67729 29.40892 29.04311
#
# Velocity S-wave (km/s) = 3.79979 3.84796 3.82395
# Velocity P-wave (km/s) = 7.55001 7.62660 7.58840
#
# Compressibility (1/GPa) = 0.01333669
#
# Stress axis : x y z
#
# Youngs Moduli (GPa) = 93.84437 69.81870 79.83175
#
# Poissons Ratio (x) = 0.23634 0.30500
# Poissons Ratio (y) = 0.31767 0.38947
# Poissons Ratio (z) = 0.35853 0.34062
#
# Static dielectric constant tensor:
#      x y z
#    x 3.690160 0.000000 0.000000 
#    y 0.000000 3.680880 0.000000 
#    z 0.000000 0.000000 3.545590 
# 
# 
# High freq. dielectric constant tensor:
#      x y z
#    x 1.785560 0.000000 0.000000 
#    y 0.000000 1.779260 0.000000 
#    z 0.000000 0.000000 1.763270 
# 
# From -- ./inp_files/38614.got.cif
#   From: 2010.03.12/outbox.cif.g09.slc.cpg/sg66_20_cif.got.tgz:38614.got - 2010.04.10 21:57:39.
