data_PCOD8275856
_publ_section_title
;
Structure prediction by ZEFSAII (Michael W. Deem and Ramdas Pophale) SiO2 
 PCOD8275856
Probable space group: C C C M
;
_chemical_formula_sum "Si O2"
_cell_formula_units_Z 64
_cell_length_a 26.481085
_cell_length_b 18.153882
_cell_length_c 8.644642
_cell_angle_alpha 90.000000
_cell_angle_beta 90.000000
_cell_angle_gamma 90.000000
_cell_volume 4155.777583
_symmetry_space_group_name_H-M "C C C M"
_symmetry_group_IT_number 66
_symmetry_cell_setting 'orthorhombic'
loop_
_space_group_symop_operation_xyz
x,y,z
-x,-y,z
x,-y,1/2-z
-x,y,1/2-z
-x,-y,-z
x,y,-z
-x,y,1/2+z
x,-y,1/2+z
1/2+x,1/2+y,z
1/2-x,1/2-y,z
1/2+x,1/2-y,1/2-z
1/2-x,1/2+y,1/2-z
1/2-x,1/2-y,-z
1/2+x,1/2+y,-z
1/2-x,1/2+y,1/2+z
1/2+x,1/2-y,1/2+z
loop_
_atom_site_type_symbol
_atom_site_label
_atom_site_fract_x
_atom_site_fract_y
_atom_site_fract_z
Si Si1 0.701095 0.199931 0.329897
Si Si2 0.645653 0.340322 0.316862
Si Si3 0.446121 0.578550 0.817232
Si Si4 0.259057 0.421769 0.319225
O O1 0.688223 0.167364 0.500000
O O2 0.750000 0.250000 0.344641
O O3 0.656710 0.254760 0.272008
O O4 0.711761 0.133139 0.212291
O O5 0.639906 0.349884 0.500000
O O6 0.594105 0.360186 0.231201
O O7 0.690172 0.393960 0.261971
O O8 0.428811 0.500000 0.750000
O O9 0.500000 0.602627 0.750000
O O10 0.449989 0.572235 0.000000
O O11 0.243709 0.500000 0.250000
O O12 0.269096 0.427710 0.500000
#
# Coordination Sequence:
#
# PCOD8275856 Si02
#       4
#    16  16  16  16
#     4   8  16  30  45  61  84 112 141 176 216 256
#     4  10  19  32  47  63  86 115 146 179 218 259
#     4  11  21  33  47  64  87 114 147 183 219 255
#     4  11  20  29  43  63  88 116 148 181 214 255
#
# _framework density 15.400247
#
# number of rings (size 3 to 8) (size 9 to 14) (size 15 to 20)
#    0.000    2.000    0.000    8.250    0.000    5.500 
#    0.000    0.000    0.000    0.000    0.000    0.000 
#    0.000    1.000    0.000   10.500    0.000    4.500 
#
# Total GULP energy -396733.376316 kJ/mol
# GULP energy per Si atom -12397.918010 kJ/mol
# Density = 1.536520 g / cm^3
# Si number density = 15.400247 Si / 1000 Ang^3
#
#
#
# Elastic Constant Matrix: (Units=GPa)
#
#
# Indices 1 2 3 4 5 6 
#
# 1 79.3754 45.4751 34.1505 0.0000 0.0000 0.0000
# 2 45.4751 87.1882 39.5950 0.0000 0.0000 0.0000
# 3 34.1505 39.5950 111.0770 0.0000 0.0000 0.0000
# 4 0.0000 0.0000 0.0000 24.7103 0.0000 0.0000
# 5 0.0000 0.0000 0.0000 0.0000 19.7906 0.0000
# 6 0.0000 0.0000 0.0000 0.0000 0.0000 26.6923
#
#
#
# Elastic Compliance Matrix: (Units=1/GPa)
#
#
# Indices 1 2 3 4 5 6 
#
# 1 0.018622 -0.008487 -0.002700 0.000000 0.000000 0.000000
# 2 -0.008487 0.017552 -0.003648 0.000000 0.000000 0.000000
# 3 -0.002700 -0.003648 0.011133 0.000000 0.000000 0.000000
# 4 0.000000 0.000000 0.000000 0.040469 0.000000 0.000000
# 5 0.000000 0.000000 0.000000 0.000000 0.050529 0.000000
# 6 0.000000 0.000000 0.000000 0.000000 0.000000 0.037464
#
#
# Mechanical properties :
#
#
# Convention : Reuss Voigt Hill
#
# Bulk Modulus (GPa) = 56.69286 57.34243 57.01764
# Shear Modulus (GPa) = 23.66101 24.79995 24.23048
#
# Velocity S-wave (km/s) = 3.92395 4.01728 3.97089
# Velocity P-wave (km/s) = 7.57778 7.67031 7.62419
#
# Compressibility (1/GPa) = 0.01763891
#
# Stress axis : x y z
#
# Youngs Moduli (GPa) = 53.69948 56.97252 89.82163
#
# Poissons Ratio (x) = 0.48350 0.24254
# Poissons Ratio (y) = 0.45573 0.32763
# Poissons Ratio (z) = 0.14500 0.20781
#
# Static dielectric constant tensor:
#      x y z
#    x 2.903390 0.000000 0.000000 
#    y 0.000000 2.999920 0.000000 
#    z 0.000000 0.000000 3.067940 
# 
# 
# High freq. dielectric constant tensor:
#      x y z
#    x 1.557950 0.000000 0.000000 
#    y 0.000000 1.577660 0.000000 
#    z 0.000000 0.000000 1.607580 
# 
# From -- ./inp_files/5463.got.cif
#   From: 2010.03.12/outbox.cif.g09.slc.cpg/sg66_3_cif.got.tgz:5463.got - 2010.04.10 21:57:39.
