data_PCOD8275328
_publ_section_title
;
Structure prediction by ZEFSAII (Michael W. Deem and Ramdas Pophale) SiO2 
 PCOD8275328
Probable space group: C C C M
;
_chemical_formula_sum "Si O2"
_cell_formula_units_Z 80
_cell_length_a 26.074624
_cell_length_b 5.213794
_cell_length_c 33.590349
_cell_angle_alpha 90.000000
_cell_angle_beta 90.000000
_cell_angle_gamma 90.000000
_cell_volume 4566.531299
_symmetry_space_group_name_H-M "C C C M"
_symmetry_group_IT_number 66
_symmetry_cell_setting 'orthorhombic'
loop_
_space_group_symop_operation_xyz
x,y,z
-x,-y,z
x,-y,1/2-z
-x,y,1/2-z
-x,-y,-z
x,y,-z
-x,y,1/2+z
x,-y,1/2+z
1/2+x,1/2+y,z
1/2-x,1/2-y,z
1/2+x,1/2-y,1/2-z
1/2-x,1/2+y,1/2-z
1/2-x,1/2-y,-z
1/2+x,1/2+y,-z
1/2-x,1/2+y,1/2+z
1/2+x,1/2-y,1/2+z
loop_
_atom_site_type_symbol
_atom_site_label
_atom_site_fract_x
_atom_site_fract_y
_atom_site_fract_z
Si Si1 0.804663 0.492514 0.796723
Si Si2 0.971686 0.750198 0.547304
Si Si3 0.856458 0.334752 0.954014
Si Si4 0.191105 0.986801 0.331202
Si Si5 0.307395 0.658737 0.578342
O O1 0.794426 0.500000 0.750000
O O2 0.835152 0.243533 0.813083
O O3 0.750972 0.501594 0.820054
O O4 0.836015 0.745910 0.809296
O O5 0.975470 0.754248 0.500000
O O6 0.912653 0.749581 0.560889
O O7 0.000000 0.500000 0.564570
O O8 0.000000 0.000000 0.565179
O O9 0.841484 0.588377 0.929100
O O10 0.820002 0.085239 0.949540
O O11 0.856322 0.418641 0.000000
O O12 0.183969 0.956658 0.377959
O O13 0.250000 0.750000 0.570130
#
# Coordination Sequence:
#
# PCOD8275328 Si02
#       5
#    16  16  16  16  16
#     4  10  17  28  47  67  85 112 169 221 234 269
#     4   9  17  33  56  75  91 110 143 211 286 327
#     4  11  24  37  51  73  94 124 180 223 255 300
#     4  10  18  29  43  64  88 123 164 202 232 290
#     4  12  23  35  50  65 100 146 176 209 237 285
#
# _framework density 17.518768000000001
#
# number of rings (size 3 to 8) (size 9 to 14) (size 15 to 20)
#    0.000    1.600    2.000    6.600    2.800    5.600 
#    0.000    0.000    0.000    0.000    0.000    0.000 
#    0.000    0.000    0.000    0.000    0.000  337.000 
#
# Total GULP energy -495684.468843 kJ/mol
# GULP energy per Si atom -12392.111721 kJ/mol
# Density = 1.747889 g / cm^3
# Si number density = 17.518768 Si / 1000 Ang^3
#
#
#
# Elastic Constant Matrix: (Units=GPa)
#
#
# Indices 1 2 3 4 5 6 
#
# 1 55.0202 39.1778 31.8006 0.0000 0.0000 0.0000
# 2 39.1778 189.2763 39.7865 0.0000 0.0000 0.0000
# 3 31.8006 39.7865 74.4579 0.0000 0.0000 0.0000
# 4 0.0000 0.0000 0.0000 112.6577 0.0000 0.0000
# 5 0.0000 0.0000 0.0000 0.0000 0.3482 0.0000
# 6 0.0000 0.0000 0.0000 0.0000 0.0000 25.4141
#
#
#
# Elastic Compliance Matrix: (Units=1/GPa)
#
#
# Indices 1 2 3 4 5 6 
#
# 1 0.025968 -0.003429 -0.009259 0.000000 0.000000 0.000000
# 2 -0.003429 0.006405 -0.001958 0.000000 0.000000 0.000000
# 3 -0.009259 -0.001958 0.018431 0.000000 0.000000 0.000000
# 4 0.000000 0.000000 0.000000 0.008876 0.000000 0.000000
# 5 0.000000 0.000000 0.000000 0.000000 2.872144 0.000000
# 6 0.000000 0.000000 0.000000 0.000000 0.000000 0.039348
#
#
# Mechanical properties :
#
#
# Convention : Reuss Voigt Hill
#
# Bulk Modulus (GPa) = 46.48381 60.03160 53.25771
# Shear Modulus (GPa) = 1.66244 41.54995 21.60619
#
# Velocity S-wave (km/s) = 0.97520 4.87533 3.51567
# Velocity P-wave (km/s) = 5.27819 8.12608 6.85174
#
# Compressibility (1/GPa) = 0.02151287
#
# Stress axis : x y z
#
# Youngs Moduli (GPa) = 38.50888 156.13891 54.25680
#
# Poissons Ratio (x) = 0.53538 0.50234
# Poissons Ratio (y) = 0.13204 0.10622
# Poissons Ratio (z) = 0.35654 0.30569
#
# Static dielectric constant tensor:
#      x y z
#    x 2.890350 0.000000 0.000000 
#    y 0.000000 7.091950 0.000000 
#    z 0.000000 0.000000 3.070220 
# 
# 
# High freq. dielectric constant tensor:
#      x y z
#    x 1.611460 0.000000 0.000000 
#    y 0.000000 1.721460 0.000000 
#    z 0.000000 0.000000 1.656420 
# 
# From -- ./inp_files/70310.got.cif
#   From: 2010.03.12/outbox.cif.g09.slc.cpg/sg66_36_cif.got.tgz:70310.got - 2010.04.10 21:57:39.
