data_PCOD8275079
_publ_section_title
;
Structure prediction by ZEFSAII (Michael W. Deem and Ramdas Pophale) SiO2 
 PCOD8275079
Probable space group: C M M M
;
_chemical_formula_sum "Si O2"
_cell_formula_units_Z 96
_cell_length_a 34.938970
_cell_length_b 9.816541
_cell_length_c 17.881407
_cell_angle_alpha 90.000000
_cell_angle_beta 90.000000
_cell_angle_gamma 90.000000
_cell_volume 6132.961960
_symmetry_space_group_name_H-M "C M M M"
_symmetry_group_IT_number 65
_symmetry_cell_setting 'orthorhombic'
loop_
_space_group_symop_operation_xyz
x,y,z
-x,-y,z
x,-y,-z
-x,y,-z
-x,-y,-z
x,y,-z
-x,y,z
x,-y,z
1/2+x,1/2+y,z
1/2-x,1/2-y,z
1/2+x,1/2-y,-z
1/2-x,1/2+y,-z
1/2-x,1/2-y,-z
1/2+x,1/2+y,-z
1/2-x,1/2+y,z
1/2+x,1/2-y,z
loop_
_atom_site_type_symbol
_atom_site_label
_atom_site_fract_x
_atom_site_fract_y
_atom_site_fract_z
Si Si1 0.845729 0.849959 0.179611
Si Si2 0.043579 0.343435 0.202784
Si Si3 0.712543 0.660220 0.696683
Si Si4 0.087995 0.848130 0.301281
Si Si5 0.607814 0.157493 0.085466
Si Si6 0.852152 0.838022 0.583513
O O1 0.806715 0.810497 0.222559
O O2 0.879159 0.853324 0.239829
O O3 0.855584 0.741650 0.115107
O O4 0.841681 0.000000 0.143012
O O5 0.049426 0.500000 0.225840
O O6 0.054621 0.253640 0.275093
O O7 0.069492 0.305455 0.131294
O O8 0.000000 0.312606 0.179936
O O9 0.722106 0.500000 0.688289
O O10 0.750000 0.750000 0.690170
O O11 0.684537 0.711709 0.630472
O O12 0.107883 0.792560 0.377370
O O13 0.070678 0.000000 0.312431
O O14 0.618618 0.000000 0.094441
O O15 0.599592 0.196821 0.000000
O O16 0.850381 0.776002 0.500000
O O17 0.851619 0.000000 0.582155
#
# Coordination Sequence:
#
# PCOD8275079 Si02
#       6
#    16  16  16  16  16  16
#     4   8  15  28  43  59  81 110 142 171 202 242
#     4   9  17  28  42  61  86 114 138 163 203 252
#     4   9  17  28  43  64  88 113 140 170 205 246
#     4   8  14  26  44  62  79 105 143 179 204 233
#     4   9  17  28  43  64  86 107 135 171 207 244
#     4   8  14  26  44  64  86 112 140 171 209 249
#
# _framework density 15.653121000000001
#
# number of rings (size 3 to 8) (size 9 to 14) (size 15 to 20)
#    0.000    3.500    0.000    2.000    0.000    2.000 
#    0.000    4.167    0.000    2.500    0.000    8.167 
#    0.000    0.000    0.000    0.000    0.000    0.000 
#
# Total GULP energy -594891.431674 kJ/mol
# GULP energy per Si atom -12393.571493 kJ/mol
# Density = 1.561749 g / cm^3
# Si number density = 15.653121 Si / 1000 Ang^3
#
#
#
# Elastic Constant Matrix: (Units=GPa)
#
#
# Indices 1 2 3 4 5 6 
#
# 1 59.2820 41.1924 67.0680 0.0000 0.0000 0.0000
# 2 41.1924 60.3016 54.2359 0.0000 0.0000 0.0000
# 3 67.0680 54.2359 97.2967 0.0000 0.0000 0.0000
# 4 0.0000 0.0000 0.0000 17.0777 0.0000 0.0000
# 5 0.0000 0.0000 0.0000 0.0000 17.7743 0.0000
# 6 0.0000 0.0000 0.0000 0.0000 0.0000 27.2876
#
#
#
# Elastic Compliance Matrix: (Units=1/GPa)
#
#
# Indices 1 2 3 4 5 6 
#
# 1 0.079560 -0.010072 -0.049228 0.000000 0.000000 0.000000
# 2 -0.010072 0.034532 -0.012306 0.000000 0.000000 0.000000
# 3 -0.049228 -0.012306 0.051071 0.000000 0.000000 0.000000
# 4 0.000000 0.000000 0.000000 0.058556 0.000000 0.000000
# 5 0.000000 0.000000 0.000000 0.000000 0.056261 0.000000
# 6 0.000000 0.000000 0.000000 0.000000 0.000000 0.036647
#
#
# Mechanical properties :
#
#
# Convention : Reuss Voigt Hill
#
# Bulk Modulus (GPa) = 45.55538 60.20811 52.88174
# Shear Modulus (GPa) = 10.70307 16.05354 13.37830
#
# Velocity S-wave (km/s) = 2.61773 3.20594 2.92665
# Velocity P-wave (km/s) = 6.18893 7.22852 6.72884
#
# Compressibility (1/GPa) = 0.02195130
#
# Stress axis : x y z
#
# Youngs Moduli (GPa) = 12.56908 28.95858 19.58062
#
# Poissons Ratio (x) = 0.29168 0.96391
# Poissons Ratio (y) = 0.12660 0.24096
# Poissons Ratio (z) = 0.61874 0.35637
#
# Static dielectric constant tensor:
#      x y z
#    x 2.884110 0.000000 0.000000 
#    y 0.000000 3.026460 0.000000 
#    z 0.000000 0.000000 3.176080 
# 
# 
# High freq. dielectric constant tensor:
#      x y z
#    x 1.582880 0.000000 0.000000 
#    y 0.000000 1.587860 0.000000 
#    z 0.000000 0.000000 1.587380 
# 
# From -- ./inp_files/51852.got.cif
#   From: 2010.03.12/outbox.cif.g09.slc.cpg/sg65_26_cif.got.tgz:51852.got - 2010.04.10 20:52:16.
