data_PCOD8275662
_publ_section_title
;
Structure prediction by ZEFSAII (Michael W. Deem and Ramdas Pophale) SiO2 
 PCOD8275662
Probable space group: C C C M
;
_chemical_formula_sum "Si O2"
_cell_formula_units_Z 72
_cell_length_a 17.232916
_cell_length_b 11.467780
_cell_length_c 19.451094
_cell_angle_alpha 90.000000
_cell_angle_beta 90.000000
_cell_angle_gamma 90.000000
_cell_volume 3843.989180
_symmetry_space_group_name_H-M "C C C M"
_symmetry_group_IT_number 66
_symmetry_cell_setting 'orthorhombic'
loop_
_space_group_symop_operation_xyz
x,y,z
-x,-y,z
x,-y,1/2-z
-x,y,1/2-z
-x,-y,-z
x,y,-z
-x,y,1/2+z
x,-y,1/2+z
1/2+x,1/2+y,z
1/2-x,1/2-y,z
1/2+x,1/2-y,1/2-z
1/2-x,1/2+y,1/2-z
1/2-x,1/2-y,-z
1/2+x,1/2+y,-z
1/2-x,1/2+y,1/2+z
1/2+x,1/2-y,1/2+z
loop_
_atom_site_type_symbol
_atom_site_label
_atom_site_fract_x
_atom_site_fract_y
_atom_site_fract_z
Si Si1 0.249430 0.624755 0.576601
Si Si2 0.507316 0.813321 0.000000
Si Si3 0.750000 0.250000 0.886106
Si Si4 0.607313 0.580559 0.000000
Si Si5 0.862248 0.829512 0.500000
Si Si6 0.160811 0.545220 0.825336
Si Si7 0.500000 0.000000 0.886989
O O1 0.209983 0.635443 0.500000
O O2 0.250000 0.750000 0.613872
O O3 0.339379 0.588139 0.568455
O O4 0.200649 0.535635 0.619255
O O5 0.528045 0.890137 0.933169
O O6 0.546627 0.685980 0.000000
O O7 0.414768 0.786953 0.000000
O O8 0.804128 0.326505 0.836038
O O9 0.805941 0.170271 0.933577
O O10 0.579915 0.444247 0.000000
O O11 0.180938 0.500000 0.750000
O O12 0.068829 0.543464 0.837895
#
# Coordination Sequence:
#
# PCOD8275662 Si02
#       7
#    16   8   8   8   8  16   8
#     4   9  19  35  59  87 118 153 200 258 292 354
#     4  11  22  35  64  95 124 165 201 258 317 365
#     4  11  22  42  62  92 121 164 204 260 307 378
#     4  10  18  34  58  90 129 151 203 253 314 360
#     4  11  20  37  66  90 127 153 208 256 316 369
#     4  12  25  41  64  87 127 165 204 256 310 371
#     4  11  25  40  60  94 124 164 212 252 308 372
#
# _framework density 18.730542
#
# number of rings (size 3 to 8) (size 9 to 14) (size 15 to 20)
#    0.667    0.667    4.444    2.000    6.222    0.000 
#    0.000    0.000    0.000    0.000    0.000    1.556 
#    0.000    0.000    0.000    0.000    0.000    0.000 
#
# Total GULP energy -446112.392821 kJ/mol
# GULP energy per Si atom -12392.010912 kJ/mol
# Density = 1.868791 g / cm^3
# Si number density = 18.730542 Si / 1000 Ang^3
#
#
#
# Elastic Constant Matrix: (Units=GPa)
#
#
# Indices 1 2 3 4 5 6 
#
# 1 84.6142 39.9415 29.8921 0.0000 0.0000 0.0000
# 2 39.9415 123.7572 35.0592 0.0000 0.0000 0.0000
# 3 29.8921 35.0592 79.9545 0.0000 0.0000 0.0000
# 4 0.0000 0.0000 0.0000 14.1894 0.0000 0.0000
# 5 0.0000 0.0000 0.0000 0.0000 31.3023 0.0000
# 6 0.0000 0.0000 0.0000 0.0000 0.0000 42.0956
#
#
#
# Elastic Compliance Matrix: (Units=1/GPa)
#
#
# Indices 1 2 3 4 5 6 
#
# 1 0.014971 -0.003707 -0.003972 0.000000 0.000000 0.000000
# 2 -0.003707 0.010144 -0.003062 0.000000 0.000000 0.000000
# 3 -0.003972 -0.003062 0.015335 0.000000 0.000000 0.000000
# 4 0.000000 0.000000 0.000000 0.070475 0.000000 0.000000
# 5 0.000000 0.000000 0.000000 0.000000 0.031947 0.000000
# 6 0.000000 0.000000 0.000000 0.000000 0.000000 0.023755
#
#
# Mechanical properties :
#
#
# Convention : Reuss Voigt Hill
#
# Bulk Modulus (GPa) = 52.71887 55.34574 54.03230
# Shear Modulus (GPa) = 25.71598 29.74634 27.73116
#
# Velocity S-wave (km/s) = 3.70935 3.98945 3.85194
# Velocity P-wave (km/s) = 6.82295 7.12976 6.97804
#
# Compressibility (1/GPa) = 0.01896854
#
# Stress axis : x y z
#
# Youngs Moduli (GPa) = 66.79499 98.57903 65.21095
#
# Poissons Ratio (x) = 0.36540 0.25901
# Poissons Ratio (y) = 0.24758 0.19970
# Poissons Ratio (z) = 0.26530 0.30188
#
# Static dielectric constant tensor:
#      x y z
#    x 3.469730 0.000000 0.000000 
#    y 0.000000 3.607310 0.000000 
#    z 0.000000 0.000000 3.126510 
# 
# 
# High freq. dielectric constant tensor:
#      x y z
#    x 1.728460 0.000000 0.000000 
#    y 0.000000 1.744760 0.000000 
#    z 0.000000 0.000000 1.686730 
# 
# From -- ./inp_files/50804.got.cif
#   From: 2010.03.12/outbox.cif.g09.slc.cpg/sg66_26_cif.got.tgz:50804.got - 2010.04.10 21:57:39.
