data_PCOD8275804
_publ_section_title
;
Structure prediction by ZEFSAII (Michael W. Deem and Ramdas Pophale) SiO2 
 PCOD8275804
Probable space group: C C C M
;
_chemical_formula_sum "Si O2"
_cell_formula_units_Z 96
_cell_length_a 32.148472
_cell_length_b 18.898951
_cell_length_c 8.818804
_cell_angle_alpha 90.000000
_cell_angle_beta 90.000000
_cell_angle_gamma 90.000000
_cell_volume 5358.061885
_symmetry_space_group_name_H-M "C C C M"
_symmetry_group_IT_number 66
_symmetry_cell_setting 'orthorhombic'
loop_
_space_group_symop_operation_xyz
x,y,z
-x,-y,z
x,-y,1/2-z
-x,y,1/2-z
-x,-y,-z
x,y,-z
-x,y,1/2+z
x,-y,1/2+z
1/2+x,1/2+y,z
1/2-x,1/2-y,z
1/2+x,1/2-y,1/2-z
1/2-x,1/2+y,1/2-z
1/2-x,1/2-y,-z
1/2+x,1/2+y,-z
1/2-x,1/2+y,1/2+z
1/2+x,1/2-y,1/2+z
loop_
_atom_site_type_symbol
_atom_site_label
_atom_site_fract_x
_atom_site_fract_y
_atom_site_fract_z
Si Si1 0.375646 0.283897 0.676243
Si Si2 0.747018 0.074287 0.680306
Si Si3 0.586878 0.076287 0.679789
Si Si4 0.834667 0.073446 0.178552
Si Si5 0.167793 0.340297 0.822390
Si Si6 0.957247 0.704582 0.679804
O O1 0.370588 0.270456 0.500000
O O2 0.368476 0.366177 0.717090
O O3 0.339927 0.236601 0.752432
O O4 0.421552 0.260444 0.729922
O O5 0.750430 0.067141 0.500000
O O6 0.791089 0.097423 0.748691
O O7 0.712777 0.131845 0.729912
O O8 0.732686 0.000000 0.750000
O O9 0.581623 0.072912 0.500000
O O10 0.632352 0.104263 0.729638
O O11 0.552218 0.128109 0.748870
O O12 0.579512 0.000000 0.750000
O O13 0.850720 0.000000 0.250000
O O14 0.828433 0.062960 0.000000
O O15 0.166049 0.330693 0.000000
O O16 0.960886 0.697944 0.500000
O O17 0.000000 0.733729 0.750000
#
# Coordination Sequence:
#
# PCOD8275804 Si02
#       6
#    16  16  16  16  16  16
#     4   9  20  36  54  74  99 128 161 199 245 296
#     4  10  19  31  47  71 101 136 173 210 245 283
#     4  10  19  32  49  72 101 136 173 209 244 283
#     4  10  20  35  53  75  99 128 163 201 244 294
#     4   9  19  32  48  71 101 135 173 209 245 284
#     4  10  20  36  55  76  99 126 159 200 246 296
#
# _framework density 17.916924999999999
#
# number of rings (size 3 to 8) (size 9 to 14) (size 15 to 20)
#    0.000    2.333    0.000    3.500    0.000    5.000 
#    0.000    5.000    0.000    0.500    0.000    3.500 
#    0.000    0.000    0.000    0.000    0.000    0.000 
#
# Total GULP energy -595230.388746 kJ/mol
# GULP energy per Si atom -12400.633099 kJ/mol
# Density = 1.787615 g / cm^3
# Si number density = 17.916925 Si / 1000 Ang^3
#
#
#
# Elastic Constant Matrix: (Units=GPa)
#
#
# Indices 1 2 3 4 5 6 
#
# 1 94.7871 73.2750 38.7918 0.0000 0.0000 0.0000
# 2 73.2750 119.4266 41.3381 0.0000 0.0000 0.0000
# 3 38.7918 41.3381 70.9241 0.0000 0.0000 0.0000
# 4 0.0000 0.0000 0.0000 26.6965 0.0000 0.0000
# 5 0.0000 0.0000 0.0000 0.0000 18.2019 0.0000
# 6 0.0000 0.0000 0.0000 0.0000 0.0000 20.3175
#
#
#
# Elastic Compliance Matrix: (Units=1/GPa)
#
#
# Indices 1 2 3 4 5 6 
#
# 1 0.021439 -0.011394 -0.005085 0.000000 0.000000 0.000000
# 2 -0.011394 0.016545 -0.003411 0.000000 0.000000 0.000000
# 3 -0.005085 -0.003411 0.018869 0.000000 0.000000 0.000000
# 4 0.000000 0.000000 0.000000 0.037458 0.000000 0.000000
# 5 0.000000 0.000000 0.000000 0.000000 0.054939 0.000000
# 6 0.000000 0.000000 0.000000 0.000000 0.000000 0.049219
#
#
# Mechanical properties :
#
#
# Convention : Reuss Voigt Hill
#
# Bulk Modulus (GPa) = 58.57391 65.77195 62.17293
# Shear Modulus (GPa) = 20.49675 21.82537 21.16106
#
# Velocity S-wave (km/s) = 3.38596 3.49398 3.44039
# Velocity P-wave (km/s) = 6.93175 7.28466 7.11040
#
# Compressibility (1/GPa) = 0.01707245
#
# Stress axis : x y z
#
# Youngs Moduli (GPa) = 46.64366 60.44130 52.99644
#
# Poissons Ratio (x) = 0.68867 0.26949
# Poissons Ratio (y) = 0.53146 0.18079
# Poissons Ratio (z) = 0.23719 0.20619
#
# Static dielectric constant tensor:
#      x y z
#    x 3.392830 0.000000 0.000000 
#    y 0.000000 3.270100 0.000000 
#    z 0.000000 0.000000 3.362540 
# 
# 
# High freq. dielectric constant tensor:
#      x y z
#    x 1.683940 0.000000 0.000000 
#    y 0.000000 1.684390 0.000000 
#    z 0.000000 0.000000 1.704030 
# 
# From -- ./inp_files/10240.got.cif
#   From: 2010.03.12/outbox.cif.g09.slc.cpg/sg66_6_cif.got.tgz:10240.got - 2010.04.10 21:57:39.
