data_PCOD8275624
_publ_section_title
;
Structure prediction by ZEFSAII (Michael W. Deem and Ramdas Pophale) SiO2 
 PCOD8275624
Probable space group: C C C M
;
_chemical_formula_sum "Si O2"
_cell_formula_units_Z 120
_cell_length_a 30.457671
_cell_length_b 15.674991
_cell_length_c 14.074036
_cell_angle_alpha 90.000000
_cell_angle_beta 90.000000
_cell_angle_gamma 90.000000
_cell_volume 6719.278606
_symmetry_space_group_name_H-M "C C C M"
_symmetry_group_IT_number 66
_symmetry_cell_setting 'orthorhombic'
loop_
_space_group_symop_operation_xyz
x,y,z
-x,-y,z
x,-y,1/2-z
-x,y,1/2-z
-x,-y,-z
x,y,-z
-x,y,1/2+z
x,-y,1/2+z
1/2+x,1/2+y,z
1/2-x,1/2-y,z
1/2+x,1/2-y,1/2-z
1/2-x,1/2+y,1/2-z
1/2-x,1/2-y,-z
1/2+x,1/2+y,-z
1/2-x,1/2+y,1/2+z
1/2+x,1/2-y,1/2+z
loop_
_atom_site_type_symbol
_atom_site_label
_atom_site_fract_x
_atom_site_fract_y
_atom_site_fract_z
Si Si1 0.000000 0.384569 0.250000
Si Si2 0.699692 0.407881 0.274979
Si Si3 0.566762 0.834891 0.891970
Si Si4 0.431517 0.967589 0.107193
Si Si5 0.726233 0.840139 0.894038
Si Si6 0.746170 0.850501 0.602039
Si Si7 0.147578 0.343401 0.608151
Si Si8 0.147524 0.256049 0.796355
O O1 0.026128 0.321286 0.179708
O O2 0.031286 0.443248 0.316650
O O3 0.679056 0.500000 0.250000
O O4 0.740464 0.410395 0.349651
O O5 0.718202 0.378987 0.175405
O O6 0.662785 0.341864 0.311786
O O7 0.605216 0.770845 0.861437
O O8 0.580885 0.933492 0.881000
O O9 0.553184 0.813076 0.000000
O O10 0.386434 0.918997 0.127229
O O11 0.449099 0.948843 0.000000
O O12 0.750000 0.750000 0.898390
O O13 0.683680 0.826195 0.828553
O O14 0.712613 0.870299 0.000000
O O15 0.759178 0.889531 0.500000
O O16 0.750000 0.750000 0.599295
O O17 0.696484 0.879162 0.626439
O O18 0.143393 0.307254 0.500000
O O19 0.136962 0.269510 0.684697
#
# Coordination Sequence:
#
# PCOD8275624 Si02
#       8
#     8  16  16  16  16  16  16  16
#     4  12  21  34  56  82 113 142 167 212 262 312
#     4  11  22  34  51  77 105 136 179 228 272 310
#     4  11  23  36  54  78 109 146 176 206 254 318
#     4  10  21  35  51  79 111 140 175 212 254 309
#     4   9  18  34  53  72 100 140 179 216 260 312
#     4  10  18  33  53  72  97 132 175 222 269 309
#     4  10  19  32  53  75 101 136 176 220 264 306
#     4  11  20  36  54  73 104 144 181 217 263 315
#
# _framework density 17.859059999999999
#
# number of rings (size 3 to 8) (size 9 to 14) (size 15 to 20)
#    0.000    1.600    4.000    2.400    0.000    3.200 
#    0.000    1.333    0.000    0.000    0.000    0.467 
#    0.000    1.067    0.000    0.000    0.000    0.000 
#
# Total GULP energy -743631.796588 kJ/mol
# GULP energy per Si atom -12393.863276 kJ/mol
# Density = 1.781841 g / cm^3
# Si number density = 17.859060 Si / 1000 Ang^3
#
#
#
# Elastic Constant Matrix: (Units=GPa)
#
#
# Indices 1 2 3 4 5 6 
#
# 1 98.7130 36.6791 42.9670 0.0000 0.0000 0.0000
# 2 36.6791 57.2743 26.7730 0.0000 0.0000 0.0000
# 3 42.9670 26.7730 130.5846 0.0000 0.0000 0.0000
# 4 0.0000 0.0000 0.0000 31.3897 0.0000 0.0000
# 5 0.0000 0.0000 0.0000 0.0000 32.3342 0.0000
# 6 0.0000 0.0000 0.0000 0.0000 0.0000 21.2610
#
#
#
# Elastic Compliance Matrix: (Units=1/GPa)
#
#
# Indices 1 2 3 4 5 6 
#
# 1 0.014373 -0.007735 -0.003143 0.000000 0.000000 0.000000
# 2 -0.007735 0.023473 -0.002267 0.000000 0.000000 0.000000
# 3 -0.003143 -0.002267 0.009157 0.000000 0.000000 0.000000
# 4 0.000000 0.000000 0.000000 0.031858 0.000000 0.000000
# 5 0.000000 0.000000 0.000000 0.000000 0.030927 0.000000
# 6 0.000000 0.000000 0.000000 0.000000 0.000000 0.047034
#
#
# Mechanical properties :
#
#
# Convention : Reuss Voigt Hill
#
# Bulk Modulus (GPa) = 48.28254 55.49002 51.88628
# Shear Modulus (GPa) = 26.31336 29.00718 27.66027
#
# Velocity S-wave (km/s) = 3.84264 4.03454 3.93976
# Velocity P-wave (km/s) = 6.83973 7.26924 7.05775
#
# Compressibility (1/GPa) = 0.02071142
#
# Stress axis : x y z
#
# Youngs Moduli (GPa) = 69.57634 42.60139 109.20603
#
# Poissons Ratio (x) = 0.32953 0.34326
# Poissons Ratio (y) = 0.53818 0.24762
# Poissons Ratio (z) = 0.21870 0.09660
#
# Static dielectric constant tensor:
#      x y z
#    x 3.357710 0.000000 0.000000 
#    y 0.000000 2.733400 0.000000 
#    z 0.000000 0.000000 4.862450 
# 
# 
# High freq. dielectric constant tensor:
#      x y z
#    x 1.673620 0.000000 0.000000 
#    y 0.000000 1.638970 0.000000 
#    z 0.000000 0.000000 1.724030 
# 
# From -- ./inp_files/34003.got.cif
#   From: 2010.03.12/outbox.cif.g09.slc.cpg/sg66_18_cif.got.tgz:34003.got - 2010.04.10 21:57:39.
