data_PCOD8275940
_publ_section_title
;
Structure prediction by ZEFSAII (Michael W. Deem and Ramdas Pophale) SiO2 
 PCOD8275940
Probable space group: C C C M
;
_chemical_formula_sum "Si O2"
_cell_formula_units_Z 88
_cell_length_a 22.821202
_cell_length_b 9.801150
_cell_length_c 20.116422
_cell_angle_alpha 90.000000
_cell_angle_beta 90.000000
_cell_angle_gamma 90.000000
_cell_volume 4499.521057
_symmetry_space_group_name_H-M "C C C M"
_symmetry_group_IT_number 66
_symmetry_cell_setting 'orthorhombic'
loop_
_space_group_symop_operation_xyz
x,y,z
-x,-y,z
x,-y,1/2-z
-x,y,1/2-z
-x,-y,-z
x,y,-z
-x,y,1/2+z
x,-y,1/2+z
1/2+x,1/2+y,z
1/2-x,1/2-y,z
1/2+x,1/2-y,1/2-z
1/2-x,1/2+y,1/2-z
1/2-x,1/2-y,-z
1/2+x,1/2+y,-z
1/2-x,1/2+y,1/2+z
1/2+x,1/2-y,1/2+z
loop_
_atom_site_type_symbol
_atom_site_label
_atom_site_fract_x
_atom_site_fract_y
_atom_site_fract_z
Si Si1 0.870621 0.187612 0.192645
Si Si2 0.747013 0.456402 0.573301
Si Si3 0.861373 0.106690 0.656806
Si Si4 0.250000 0.250000 0.623710
Si Si5 0.932978 0.544417 0.320646
Si Si6 0.375509 0.854389 0.575189
O O1 0.864112 0.173858 0.271338
O O2 0.807546 0.238308 0.168820
O O3 0.922444 0.292950 0.173671
O O4 0.889807 0.044433 0.158451
O O5 0.718876 0.429953 0.500000
O O6 0.705549 0.408762 0.632866
O O7 0.759559 0.617772 0.578012
O O8 0.805595 0.367438 0.578939
O O9 0.894814 0.208091 0.606078
O O10 0.904517 0.500000 0.250000
O O11 0.902250 0.477276 0.383311
O O12 0.000000 0.500000 0.321954
O O13 0.399057 0.863956 0.500000
#
# Coordination Sequence:
#
# PCOD8275940 Si02
#       6
#    16  16  16   8  16  16
#     4  10  21  37  58  89 120 156 205 254 313 360
#     4  10  20  33  53  85 125 165 200 237 305 381
#     4  10  21  35  56  87 125 156 196 250 307 382
#     4  10  19  32  56  86 119 160 196 256 306 364
#     4  11  23  42  67  87 114 156 212 267 307 357
#     4  11  22  38  60  88 125 165 203 250 306 371
#
# _framework density 19.557637
#
# number of rings (size 3 to 8) (size 9 to 14) (size 15 to 20)
#    0.000    1.636    3.636    1.364    2.545    1.818 
#    0.000    1.818    0.000    1.091    0.000    0.000 
#    0.000    0.000    0.000    0.000    0.000    0.000 
#
# Total GULP energy -545459.532457 kJ/mol
# GULP energy per Si atom -12396.807556 kJ/mol
# Density = 1.951312 g / cm^3
# Si number density = 19.557637 Si / 1000 Ang^3
#
#
#
# Elastic Constant Matrix: (Units=GPa)
#
#
# Indices 1 2 3 4 5 6 
#
# 1 57.4226 36.5916 33.6041 0.0000 0.0000 0.0000
# 2 36.5916 155.8865 70.4374 0.0000 0.0000 0.0000
# 3 33.6041 70.4374 142.3067 0.0000 0.0000 0.0000
# 4 0.0000 0.0000 0.0000 25.0188 0.0000 0.0000
# 5 0.0000 0.0000 0.0000 0.0000 14.6051 0.0000
# 6 0.0000 0.0000 0.0000 0.0000 0.0000 27.7323
#
#
#
# Elastic Compliance Matrix: (Units=1/GPa)
#
#
# Indices 1 2 3 4 5 6 
#
# 1 0.021647 -0.003570 -0.003345 0.000000 0.000000 0.000000
# 2 -0.003570 0.008852 -0.003538 0.000000 0.000000 0.000000
# 3 -0.003345 -0.003538 0.009568 0.000000 0.000000 0.000000
# 4 0.000000 0.000000 0.000000 0.039970 0.000000 0.000000
# 5 0.000000 0.000000 0.000000 0.000000 0.068469 0.000000
# 6 0.000000 0.000000 0.000000 0.000000 0.000000 0.036059
#
#
# Mechanical properties :
#
#
# Convention : Reuss Voigt Hill
#
# Bulk Modulus (GPa) = 52.18928 70.76469 61.47699
# Shear Modulus (GPa) = 23.60074 27.80343 25.70208
#
# Velocity S-wave (km/s) = 3.47757 3.77452 3.62908
# Velocity P-wave (km/s) = 6.54732 7.43352 7.00445
#
# Compressibility (1/GPa) = 0.01916102
#
# Stress axis : x y z
#
# Youngs Moduli (GPa) = 46.19585 112.97267 104.51249
#
# Poissons Ratio (x) = 0.40331 0.34956
# Poissons Ratio (y) = 0.16492 0.36980
# Poissons Ratio (z) = 0.15451 0.39973
#
# Static dielectric constant tensor:
#      x y z
#    x 3.168050 0.000000 0.000000 
#    y 0.000000 3.992690 0.000000 
#    z 0.000000 0.000000 3.774430 
# 
# 
# High freq. dielectric constant tensor:
#      x y z
#    x 1.714450 0.000000 0.000000 
#    y 0.000000 1.787940 0.000000 
#    z 0.000000 0.000000 1.770450 
# 
# From -- ./inp_files/52421.got.cif
#   From: 2010.03.12/outbox.cif.g09.slc.cpg/sg66_27_cif.got.tgz:52421.got - 2010.04.10 21:57:39.
