data_PCOD8275374
_publ_section_title
;
Structure prediction by ZEFSAII (Michael W. Deem and Ramdas Pophale) SiO2 
 PCOD8275374
Probable space group: C C C M
;
_chemical_formula_sum "Si O2"
_cell_formula_units_Z 96
_cell_length_a 18.352427
_cell_length_b 17.294228
_cell_length_c 18.789274
_cell_angle_alpha 90.000000
_cell_angle_beta 90.000000
_cell_angle_gamma 90.000000
_cell_volume 5963.547533
_symmetry_space_group_name_H-M "C C C M"
_symmetry_group_IT_number 66
_symmetry_cell_setting 'orthorhombic'
loop_
_space_group_symop_operation_xyz
x,y,z
-x,-y,z
x,-y,1/2-z
-x,y,1/2-z
-x,-y,-z
x,y,-z
-x,y,1/2+z
x,-y,1/2+z
1/2+x,1/2+y,z
1/2-x,1/2-y,z
1/2+x,1/2-y,1/2-z
1/2-x,1/2+y,1/2-z
1/2-x,1/2-y,-z
1/2+x,1/2+y,-z
1/2-x,1/2+y,1/2+z
1/2+x,1/2-y,1/2+z
loop_
_atom_site_type_symbol
_atom_site_label
_atom_site_fract_x
_atom_site_fract_y
_atom_site_fract_z
Si Si1 0.312272 0.691963 0.200333
Si Si2 0.568245 0.679289 0.080620
Si Si3 0.731344 0.069371 0.295064
Si Si4 0.335854 0.530709 0.580599
Si Si5 0.332904 0.779020 0.668494
Si Si6 0.411927 0.626681 0.917278
O O1 0.250000 0.750000 0.174263
O O2 0.284948 0.614964 0.241120
O O3 0.359632 0.739896 0.257859
O O4 0.355084 0.674104 0.129077
O O5 0.626192 0.612291 0.090727
O O6 0.604365 0.756537 0.112954
O O7 0.491556 0.649911 0.112946
O O8 0.552984 0.700394 0.000000
O O9 0.771988 0.028582 0.361542
O O10 0.669654 0.127769 0.324871
O O11 0.694536 0.000000 0.250000
O O12 0.304091 0.522738 0.500000
O O13 0.396423 0.464394 0.593778
O O14 0.250000 0.750000 0.649177
O O15 0.402521 0.649133 0.000000
#
# Coordination Sequence:
#
# PCOD8275374 Si02
#       6
#    16  16  16  16  16  16
#     4   9  18  32  48  68  93 121 161 203 245 288
#     4  10  19  31  46  69 102 136 163 196 236 285
#     4  10  17  31  50  69  97 127 162 209 248 283
#     4  10  18  29  45  69 102 135 162 191 235 294
#     4   9  18  31  46  69  92 128 170 200 242 285
#     4  10  20  31  46  69  99 131 163 196 240 294
#
# _framework density 16.097801
#
# number of rings (size 3 to 8) (size 9 to 14) (size 15 to 20)
#    0.000    2.667    5.000    0.500    0.000    4.000 
#    0.000    0.000    0.000    0.000    0.000    9.333 
#    0.000   10.667    0.000    0.000    0.000    0.000 
#
# Total GULP energy -594656.565584 kJ/mol
# GULP energy per Si atom -12388.678450 kJ/mol
# Density = 1.606116 g / cm^3
# Si number density = 16.097801 Si / 1000 Ang^3
#
#
#
# Elastic Constant Matrix: (Units=GPa)
#
#
# Indices 1 2 3 4 5 6 
#
# 1 38.1470 39.6108 36.1226 0.0000 0.0000 0.0000
# 2 39.6108 97.9566 39.3840 0.0000 0.0000 0.0000
# 3 36.1226 39.3840 63.8338 0.0000 0.0000 0.0000
# 4 0.0000 0.0000 0.0000 30.2748 0.0000 0.0000
# 5 0.0000 0.0000 0.0000 0.0000 22.5665 0.0000
# 6 0.0000 0.0000 0.0000 0.0000 0.0000 19.9865
#
#
#
# Elastic Compliance Matrix: (Units=1/GPa)
#
#
# Indices 1 2 3 4 5 6 
#
# 1 0.073361 -0.017254 -0.030868 0.000000 0.000000 0.000000
# 2 -0.017254 0.017634 -0.001116 0.000000 0.000000 0.000000
# 3 -0.030868 -0.001116 0.033822 0.000000 0.000000 0.000000
# 4 0.000000 0.000000 0.000000 0.033031 0.000000 0.000000
# 5 0.000000 0.000000 0.000000 0.000000 0.044313 0.000000
# 6 0.000000 0.000000 0.000000 0.000000 0.000000 0.050034
#
#
# Mechanical properties :
#
#
# Convention : Reuss Voigt Hill
#
# Bulk Modulus (GPa) = 37.96490 47.79690 42.88090
# Shear Modulus (GPa) = 13.91004 20.22024 17.06514
#
# Velocity S-wave (km/s) = 2.94274 3.54798 3.25944
# Velocity P-wave (km/s) = 5.93139 6.82204 6.39225
#
# Compressibility (1/GPa) = 0.02634012
#
# Stress axis : x y z
#
# Youngs Moduli (GPa) = 13.63127 56.70723 29.56633
#
# Poissons Ratio (x) = 0.97844 0.91266
# Poissons Ratio (y) = 0.23520 0.03300
# Poissons Ratio (z) = 0.42077 0.06329
#
# Static dielectric constant tensor:
#      x y z
#    x 2.787140 0.000000 0.000000 
#    y 0.000000 3.118070 0.000000 
#    z 0.000000 0.000000 3.119490 
# 
# 
# High freq. dielectric constant tensor:
#      x y z
#    x 1.575580 0.000000 0.000000 
#    y 0.000000 1.615880 0.000000 
#    z 0.000000 0.000000 1.624120 
# 
# From -- ./inp_files/41710.got.cif
#   From: 2010.03.12/outbox.cif.g09.slc.cpg/sg66_21_cif.got.tgz:41710.got - 2010.04.10 21:57:39.
