data_PCOD8275508
_publ_section_title
;
Structure prediction by ZEFSAII (Michael W. Deem and Ramdas Pophale) SiO2 
 PCOD8275508
Probable space group: C C C M
;
_chemical_formula_sum "Si O2"
_cell_formula_units_Z 128
_cell_length_a 24.188436
_cell_length_b 16.223089
_cell_length_c 17.658851
_cell_angle_alpha 90.000000
_cell_angle_beta 90.000000
_cell_angle_gamma 90.000000
_cell_volume 6929.530029
_symmetry_space_group_name_H-M "C C C M"
_symmetry_group_IT_number 66
_symmetry_cell_setting 'orthorhombic'
loop_
_space_group_symop_operation_xyz
x,y,z
-x,-y,z
x,-y,1/2-z
-x,y,1/2-z
-x,-y,-z
x,y,-z
-x,y,1/2+z
x,-y,1/2+z
1/2+x,1/2+y,z
1/2-x,1/2-y,z
1/2+x,1/2-y,1/2-z
1/2-x,1/2+y,1/2-z
1/2-x,1/2-y,-z
1/2+x,1/2+y,-z
1/2-x,1/2+y,1/2+z
1/2+x,1/2-y,1/2+z
loop_
_atom_site_type_symbol
_atom_site_label
_atom_site_fract_x
_atom_site_fract_y
_atom_site_fract_z
Si Si1 0.766903 0.990016 0.587762
Si Si2 0.327777 0.584889 0.709130
Si Si3 0.018133 0.267250 0.085451
Si Si4 0.203748 0.819157 0.153527
Si Si5 0.454157 0.941995 0.587606
Si Si6 0.942101 0.829501 0.218165
Si Si7 0.902117 0.278719 0.851184
Si Si8 0.145105 0.556409 0.911752
O O1 0.770051 0.012326 0.500000
O O2 0.792484 0.900189 0.602229
O O3 0.703693 0.979178 0.615543
O O4 0.798554 0.067491 0.628006
O O5 0.317692 0.500000 0.750000
O O6 0.296592 0.656811 0.756779
O O7 0.393379 0.603590 0.709348
O O8 0.042268 0.351200 0.122515
O O9 0.045753 0.194848 0.132317
O O10 0.951610 0.269897 0.089156
O O11 0.037160 0.252837 0.000000
O O12 0.250000 0.750000 0.138143
O O13 0.145683 0.783848 0.125546
O O14 0.470887 0.931878 0.500000
O O15 0.500000 0.000000 0.627343
O O16 0.393835 0.978043 0.599049
O O17 0.924599 0.749034 0.268106
O O18 0.000000 0.867963 0.250000
O O19 0.876246 0.370805 0.856233
O O20 0.146179 0.586325 0.000000
#
# Coordination Sequence:
#
# PCOD8275508 Si02
#       8
#    16  16  16  16  16  16  16  16
#     4  10  21  35  54  83 115 142 180 230 275 327
#     4   9  20  39  57  75 104 144 184 218 270 334
#     4  10  19  33  53  77 107 143 180 219 271 328
#     4  10  19  35  56  79 106 141 180 218 275 333
#     4   9  16  28  47  70 101 143 179 204 251 324
#     4   9  20  36  55  79 105 134 181 236 271 321
#     4  10  18  32  53  77 109 137 174 223 276 324
#     4  10  18  30  50  77 109 147 179 215 270 325
#
# _framework density 18.471672000000002
#
# number of rings (size 3 to 8) (size 9 to 14) (size 15 to 20)
#    0.000    2.375    2.500    0.375    0.000    2.000 
#    4.500    0.625    0.000    0.375    0.000    7.000 
#    0.000    0.000    0.000    0.000    0.000    0.000 
#
# Total GULP energy -792983.765163 kJ/mol
# GULP energy per Si atom -12390.371331 kJ/mol
# Density = 1.842963 g / cm^3
# Si number density = 18.471672 Si / 1000 Ang^3
#
#
#
# Elastic Constant Matrix: (Units=GPa)
#
#
# Indices 1 2 3 4 5 6 
#
# 1 100.0615 16.4234 16.3280 0.0000 0.0000 0.0000
# 2 16.4234 41.5250 7.1516 0.0000 0.0000 0.0000
# 3 16.3280 7.1516 51.6177 0.0000 0.0000 0.0000
# 4 0.0000 0.0000 0.0000 19.6092 0.0000 0.0000
# 5 0.0000 0.0000 0.0000 0.0000 22.1863 0.0000
# 6 0.0000 0.0000 0.0000 0.0000 0.0000 33.4933
#
#
#
# Elastic Compliance Matrix: (Units=1/GPa)
#
#
# Indices 1 2 3 4 5 6 
#
# 1 0.011117 -0.003884 -0.002979 0.000000 0.000000 0.000000
# 2 -0.003884 0.026027 -0.002377 0.000000 0.000000 0.000000
# 3 -0.002979 -0.002377 0.020645 0.000000 0.000000 0.000000
# 4 0.000000 0.000000 0.000000 0.050996 0.000000 0.000000
# 5 0.000000 0.000000 0.000000 0.000000 0.045073 0.000000
# 6 0.000000 0.000000 0.000000 0.000000 0.000000 0.029857
#
#
# Mechanical properties :
#
#
# Convention : Reuss Voigt Hill
#
# Bulk Modulus (GPa) = 25.43913 30.33446 27.88680
# Shear Modulus (GPa) = 23.22352 25.27785 24.25069
#
# Velocity S-wave (km/s) = 3.54962 3.70329 3.62727
# Velocity P-wave (km/s) = 5.53187 5.89437 5.71600
#
# Compressibility (1/GPa) = 0.03930952
#
# Stress axis : x y z
#
# Youngs Moduli (GPa) = 89.94914 38.42092 48.43830
#
# Poissons Ratio (x) = 0.14923 0.14428
# Poissons Ratio (y) = 0.34936 0.11516
# Poissons Ratio (z) = 0.26792 0.09135
#
# Static dielectric constant tensor:
#      x y z
#    x 3.549850 0.000000 0.000000 
#    y 0.000000 3.393800 0.000000 
#    z 0.000000 0.000000 3.330360 
# 
# 
# High freq. dielectric constant tensor:
#      x y z
#    x 1.728880 0.000000 0.000000 
#    y 0.000000 1.700490 0.000000 
#    z 0.000000 0.000000 1.695700 
# 
# From -- ./inp_files/43811.got.cif
#   From: 2010.03.12/outbox.cif.g09.slc.cpg/sg66_22_cif.got.tgz:43811.got - 2010.04.10 21:57:39.
