data_PCOD8275789
_publ_section_title
;
Structure prediction by ZEFSAII (Michael W. Deem and Ramdas Pophale) SiO2 
 PCOD8275789
Probable space group: C C C M
;
_chemical_formula_sum "Si O2"
_cell_formula_units_Z 96
_cell_length_a 32.218539
_cell_length_b 26.937367
_cell_length_c 8.774965
_cell_angle_alpha 90.000000
_cell_angle_beta 90.000000
_cell_angle_gamma 90.000000
_cell_volume 7615.639520
_symmetry_space_group_name_H-M "C C C M"
_symmetry_group_IT_number 66
_symmetry_cell_setting 'orthorhombic'
loop_
_space_group_symop_operation_xyz
x,y,z
-x,-y,z
x,-y,1/2-z
-x,y,1/2-z
-x,-y,-z
x,y,-z
-x,y,1/2+z
x,-y,1/2+z
1/2+x,1/2+y,z
1/2-x,1/2-y,z
1/2+x,1/2-y,1/2-z
1/2-x,1/2+y,1/2-z
1/2-x,1/2-y,-z
1/2+x,1/2+y,-z
1/2-x,1/2+y,1/2+z
1/2+x,1/2-y,1/2+z
loop_
_atom_site_type_symbol
_atom_site_label
_atom_site_fract_x
_atom_site_fract_y
_atom_site_fract_z
Si Si1 0.708745 0.717156 0.830327
Si Si2 0.044246 0.552806 0.318021
Si Si3 0.746332 0.864109 0.330905
Si Si4 0.164741 0.701641 0.832160
Si Si5 0.198173 0.552550 0.319529
Si Si6 0.619868 0.894067 0.318002
O O1 0.750000 0.750000 0.824482
O O2 0.714492 0.667130 0.731886
O O3 0.669646 0.749786 0.772547
O O4 0.698419 0.699990 0.000000
O O5 0.058337 0.500000 0.250000
O O6 0.041959 0.549586 0.500000
O O7 0.076786 0.593906 0.263854
O O8 0.000000 0.568465 0.250000
O O9 0.757016 0.884004 0.500000
O O10 0.707553 0.827753 0.339001
O O11 0.735627 0.909909 0.220469
O O12 0.129997 0.663049 0.771842
O O13 0.152713 0.720628 0.000000
O O14 0.210911 0.500000 0.250000
O O15 0.192319 0.549527 0.500000
O O16 0.155179 0.569275 0.243339
O O17 0.617113 0.900385 0.500000
#
# Coordination Sequence:
#
# PCOD8275789 Si02
#       6
#    16  16  16  16  16  16
#     4   9  15  22  34  51  69  87 108 133 160 194
#     4  11  21  33  46  58  71  88 111 139 172 210
#     4   9  16  26  37  49  66  88 112 136 165 199
#     4   8  15  25  37  51  68  88 107 130 162 200
#     4  11  20  29  39  52  69  89 114 142 174 208
#     4  10  19  31  43  56  72  89 110 137 172 210
#
# _framework density 12.605639
#
# number of rings (size 3 to 8) (size 9 to 14) (size 15 to 20)
#    0.000    2.333    0.000    6.500    0.000    6.667 
#    0.000    0.000    0.000    0.000    0.000    0.000 
#    0.000    0.000    0.000    0.000    0.000    0.000 
#
# Total GULP energy -595012.406911 kJ/mol
# GULP energy per Si atom -12396.091811 kJ/mol
# Density = 1.257695 g / cm^3
# Si number density = 12.605639 Si / 1000 Ang^3
#
#
#
# Elastic Constant Matrix: (Units=GPa)
#
#
# Indices 1 2 3 4 5 6 
#
# 1 47.7047 40.2624 29.8449 0.0000 0.0000 0.0000
# 2 40.2624 59.5576 33.9217 0.0000 0.0000 0.0000
# 3 29.8449 33.9217 99.8402 0.0000 0.0000 0.0000
# 4 0.0000 0.0000 0.0000 21.2495 0.0000 0.0000
# 5 0.0000 0.0000 0.0000 0.0000 15.6699 0.0000
# 6 0.0000 0.0000 0.0000 0.0000 0.0000 21.2046
#
#
#
# Elastic Compliance Matrix: (Units=1/GPa)
#
#
# Indices 1 2 3 4 5 6 
#
# 1 0.050269 -0.031525 -0.004316 0.000000 0.000000 0.000000
# 2 -0.031525 0.040589 -0.004367 0.000000 0.000000 0.000000
# 3 -0.004316 -0.004367 0.012790 0.000000 0.000000 0.000000
# 4 0.000000 0.000000 0.000000 0.047060 0.000000 0.000000
# 5 0.000000 0.000000 0.000000 0.000000 0.063816 0.000000
# 6 0.000000 0.000000 0.000000 0.000000 0.000000 0.047160
#
#
# Mechanical properties :
#
#
# Convention : Reuss Voigt Hill
#
# Bulk Modulus (GPa) = 43.04275 46.12894 44.58584
# Shear Modulus (GPa) = 14.29205 18.49637 16.39421
#
# Velocity S-wave (km/s) = 3.37082 3.83470 3.61022
# Velocity P-wave (km/s) = 7.02636 7.50199 7.26807
#
# Compressibility (1/GPa) = 0.02323272
#
# Stress axis : x y z
#
# Youngs Moduli (GPa) = 19.89284 24.63696 78.18702
#
# Poissons Ratio (x) = 0.77668 0.33745
# Poissons Ratio (y) = 0.62712 0.34144
# Poissons Ratio (z) = 0.08586 0.10759
#
# Static dielectric constant tensor:
#      x y z
#    x 2.318520 0.000000 0.000000 
#    y 0.000000 2.579360 0.000000 
#    z 0.000000 0.000000 2.780470 
# 
# 
# High freq. dielectric constant tensor:
#      x y z
#    x 1.425100 0.000000 0.000000 
#    y 0.000000 1.461400 0.000000 
#    z 0.000000 0.000000 1.500320 
# 
# From -- ./inp_files/10645.got.cif
#   From: 2010.03.12/outbox.cif.g09.slc.cpg/sg66_6_cif.got.tgz:10645.got - 2010.04.10 21:57:39.
