data_PCOD8275283
_publ_section_title
;
Structure prediction by ZEFSAII (Michael W. Deem and Ramdas Pophale) SiO2 
 PCOD8275283
Probable space group: C C C M
;
_chemical_formula_sum "Si O2"
_cell_formula_units_Z 76
_cell_length_a 23.790999
_cell_length_b 19.789967
_cell_length_c 10.049384
_cell_angle_alpha 90.000000
_cell_angle_beta 90.000000
_cell_angle_gamma 90.000000
_cell_volume 4731.481978
_symmetry_space_group_name_H-M "C C C M"
_symmetry_group_IT_number 66
_symmetry_cell_setting 'orthorhombic'
loop_
_space_group_symop_operation_xyz
x,y,z
-x,-y,z
x,-y,1/2-z
-x,y,1/2-z
-x,-y,-z
x,y,-z
-x,y,1/2+z
x,-y,1/2+z
1/2+x,1/2+y,z
1/2-x,1/2-y,z
1/2+x,1/2-y,1/2-z
1/2-x,1/2+y,1/2-z
1/2-x,1/2-y,-z
1/2+x,1/2+y,-z
1/2-x,1/2+y,1/2+z
1/2+x,1/2-y,1/2+z
loop_
_atom_site_type_symbol
_atom_site_label
_atom_site_fract_x
_atom_site_fract_y
_atom_site_fract_z
Si Si1 0.331418 0.700864 0.272924
Si Si2 0.500000 0.500000 0.750000
Si Si3 0.703136 0.155646 0.271969
Si Si4 0.342641 0.644995 0.000000
Si Si5 0.928415 0.972481 0.500000
Si Si6 0.272359 0.060476 0.000000
Si Si7 0.215384 0.402388 0.500000
Si Si8 0.643779 0.604571 0.000000
O O1 0.335952 0.780241 0.311538
O O2 0.266924 0.679800 0.272683
O O3 0.357618 0.690365 0.127224
O O4 0.365123 0.653065 0.373507
O O5 0.462164 0.458604 0.640215
O O6 0.697513 0.094364 0.374082
O O7 0.684263 0.127674 0.128647
O O8 0.376296 0.576107 0.000000
O O9 0.278756 0.622551 0.000000
O O10 0.905508 0.049368 0.500000
O O11 0.204956 0.069582 0.000000
O O12 0.287606 0.982633 0.000000
#
# Coordination Sequence:
#
# PCOD8275283 Si02
#       8
#    16   4  16   8   8   8   8   8
#     4   9  17  27  39  59  74 107 126 173 213 246
#     4  10  24  34  48  58  88 102 128 162 250 266
#     4   9  17  26  37  52  85 102 134 166 216 241
#     4  10  18  28  46  58  77  95 143 175 213 239
#     4  11  20  36  46  66  78 108 130 188 210 276
#     4  10  17  26  38  59  77 110 138 179 203 237
#     4  10  17  26  38  59  77 110 138 179 203 237
#     4  10  18  28  46  58  77  95 143 175 213 239
#
# _framework density 16.062621
#
# number of rings (size 3 to 8) (size 9 to 14) (size 15 to 20)
#    0.000    2.316    1.053    3.158    0.000    5.053 
#    0.000    0.000    0.000    0.000    0.000    0.000 
#    0.000    0.000    0.000    0.000    0.000    0.000 
#
# Total GULP energy -470803.197505 kJ/mol
# GULP energy per Si atom -12389.557829 kJ/mol
# Density = 1.602606 g / cm^3
# Si number density = 16.062621 Si / 1000 Ang^3
#
#
#
# Elastic Constant Matrix: (Units=GPa)
#
#
# Indices 1 2 3 4 5 6 
#
# 1 19.7601 11.2783 14.4711 0.0000 0.0000 0.0000
# 2 11.2783 98.3435 28.4863 0.0000 0.0000 0.0000
# 3 14.4711 28.4863 111.2894 0.0000 0.0000 0.0000
# 4 0.0000 0.0000 0.0000 33.1583 0.0000 0.0000
# 5 0.0000 0.0000 0.0000 0.0000 11.2298 0.0000
# 6 0.0000 0.0000 0.0000 0.0000 0.0000 1.3116
#
#
#
# Elastic Compliance Matrix: (Units=1/GPa)
#
#
# Indices 1 2 3 4 5 6 
#
# 1 0.057977 -0.004823 -0.006304 0.000000 0.000000 0.000000
# 2 -0.004823 0.011384 -0.002287 0.000000 0.000000 0.000000
# 3 -0.006304 -0.002287 0.010391 0.000000 0.000000 0.000000
# 4 0.000000 0.000000 0.000000 0.030158 0.000000 0.000000
# 5 0.000000 0.000000 0.000000 0.000000 0.089049 0.000000
# 6 0.000000 0.000000 0.000000 0.000000 0.000000 0.762453
#
#
# Mechanical properties :
#
#
# Convention : Reuss Voigt Hill
#
# Bulk Modulus (GPa) = 18.89519 37.54049 28.21784
# Shear Modulus (GPa) = 4.97077 20.81709 12.89393
#
# Velocity S-wave (km/s) = 1.76106 3.60390 2.83632
# Velocity P-wave (km/s) = 3.99050 6.38275 5.32276
#
# Compressibility (1/GPa) = 0.05292353
#
# Stress axis : x y z
#
# Youngs Moduli (GPa) = 17.24829 87.84315 96.24006
#
# Poissons Ratio (x) = 0.42365 0.60673
# Poissons Ratio (y) = 0.08319 0.22008
# Poissons Ratio (z) = 0.10874 0.20088
#
# Static dielectric constant tensor:
#      x y z
#    x 2.507700 0.000000 0.000000 
#    y 0.000000 3.094160 0.000000 
#    z 0.000000 0.000000 3.507960 
# 
# 
# High freq. dielectric constant tensor:
#      x y z
#    x 1.533050 0.000000 0.000000 
#    y 0.000000 1.619420 0.000000 
#    z 0.000000 0.000000 1.644090 
# 
# From -- ./inp_files/11396.got.cif
#   From: 2010.03.12/outbox.cif.g09.slc.cpg/sg66_6_cif.got.tgz:11396.got - 2010.04.10 21:57:39.
