data_PCOD8275362
_publ_section_title
;
Structure prediction by ZEFSAII (Michael W. Deem and Ramdas Pophale) SiO2 
 PCOD8275362
Probable space group: C C C M
;
_chemical_formula_sum "Si O2"
_cell_formula_units_Z 120
_cell_length_a 13.746988
_cell_length_b 19.907581
_cell_length_c 25.215425
_cell_angle_alpha 90.000000
_cell_angle_beta 90.000000
_cell_angle_gamma 90.000000
_cell_volume 6900.687132
_symmetry_space_group_name_H-M "C C C M"
_symmetry_group_IT_number 66
_symmetry_cell_setting 'orthorhombic'
loop_
_space_group_symop_operation_xyz
x,y,z
-x,-y,z
x,-y,1/2-z
-x,y,1/2-z
-x,-y,-z
x,y,-z
-x,y,1/2+z
x,-y,1/2+z
1/2+x,1/2+y,z
1/2-x,1/2-y,z
1/2+x,1/2-y,1/2-z
1/2-x,1/2+y,1/2-z
1/2-x,1/2-y,-z
1/2+x,1/2+y,-z
1/2-x,1/2+y,1/2+z
1/2+x,1/2-y,1/2+z
loop_
_atom_site_type_symbol
_atom_site_label
_atom_site_fract_x
_atom_site_fract_y
_atom_site_fract_z
Si Si1 0.440089 0.932022 0.559023
Si Si2 0.358245 0.737721 0.161925
Si Si3 0.613609 0.866058 0.390559
Si Si4 0.905629 0.037507 0.101506
Si Si5 0.084062 0.895660 0.790400
Si Si6 0.238248 0.000000 0.250000
Si Si7 0.203611 0.507488 0.637627
Si Si8 0.812784 0.837428 0.441515
O O1 0.399022 0.915345 0.500000
O O2 0.513250 0.873853 0.577628
O O3 0.352781 0.938448 0.601347
O O4 0.500000 0.000000 0.556394
O O5 0.250000 0.750000 0.182201
O O6 0.408012 0.811351 0.156453
O O7 0.403368 0.685302 0.204090
O O8 0.363923 0.707675 0.102558
O O9 0.697436 0.839796 0.430009
O O10 0.653400 0.934728 0.365660
O O11 0.946898 0.076268 0.152715
O O12 0.861506 0.088823 0.058736
O O13 0.816029 0.989550 0.118659
O O14 0.000000 0.000000 0.076818
O O15 0.000000 0.912496 0.750000
O O16 0.179061 0.934768 0.770158
O O17 0.302285 0.026321 0.200151
O O18 0.827819 0.806608 0.500000
#
# Coordination Sequence:
#
# PCOD8275362 Si02
#       8
#    16  16  16  16  16   8  16  16
#     4   9  17  30  48  69  94 126 165 204 240 283
#     4   9  18  31  45  67  97 122 153 195 237 284
#     4   9  17  31  47  66  95 127 157 192 237 282
#     4   9  17  29  45  67  94 119 148 192 242 286
#     4  10  18  30  50  70  89 119 159 198 237 289
#     4  10  17  30  49  70  96 124 154 196 254 296
#     4   9  18  30  47  71  96 124 160 198 238 290
#     4   9  17  27  43  68  93 119 152 189 232 282
#
# _framework density 17.389572000000001
#
# number of rings (size 3 to 8) (size 9 to 14) (size 15 to 20)
#    0.000    2.800    0.000    4.600    0.000    6.400 
#    0.000    5.667    0.000    0.000    0.000    2.800 
#    0.000   10.667    0.000    0.000    0.000    0.000 
#
# Total GULP energy -743381.641657 kJ/mol
# GULP energy per Si atom -12389.694028 kJ/mol
# Density = 1.734999 g / cm^3
# Si number density = 17.389572 Si / 1000 Ang^3
#
#
#
# Elastic Constant Matrix: (Units=GPa)
#
#
# Indices 1 2 3 4 5 6 
#
# 1 74.1892 20.5019 29.8562 0.0000 0.0000 0.0000
# 2 20.5019 59.7585 9.8751 0.0000 0.0000 0.0000
# 3 29.8562 9.8751 85.7646 0.0000 0.0000 0.0000
# 4 0.0000 0.0000 0.0000 14.9241 0.0000 0.0000
# 5 0.0000 0.0000 0.0000 0.0000 20.1696 0.0000
# 6 0.0000 0.0000 0.0000 0.0000 0.0000 25.3348
#
#
#
# Elastic Compliance Matrix: (Units=1/GPa)
#
#
# Indices 1 2 3 4 5 6 
#
# 1 0.016999 -0.004948 -0.005348 0.000000 0.000000 0.000000
# 2 -0.004948 0.018499 -0.000407 0.000000 0.000000 0.000000
# 3 -0.005348 -0.000407 0.013568 0.000000 0.000000 0.000000
# 4 0.000000 0.000000 0.000000 0.067006 0.000000 0.000000
# 5 0.000000 0.000000 0.000000 0.000000 0.049580 0.000000
# 6 0.000000 0.000000 0.000000 0.000000 0.000000 0.039471
#
#
# Mechanical properties :
#
#
# Convention : Reuss Voigt Hill
#
# Bulk Modulus (GPa) = 36.15436 37.79762 36.97599
# Shear Modulus (GPa) = 21.20899 22.71764 21.96332
#
# Velocity S-wave (km/s) = 3.49612 3.61833 3.55775
# Velocity P-wave (km/s) = 6.09369 6.26414 6.17950
#
# Compressibility (1/GPa) = 0.02765918
#
# Stress axis : x y z
#
# Youngs Moduli (GPa) = 58.82855 54.05711 73.70070
#
# Poissons Ratio (x) = 0.26748 0.39413
# Poissons Ratio (y) = 0.29109 0.03003
# Poissons Ratio (z) = 0.31460 0.02203
#
# Static dielectric constant tensor:
#      x y z
#    x 3.116320 0.000000 0.000000 
#    y 0.000000 3.352070 0.000000 
#    z 0.000000 0.000000 3.251850 
# 
# 
# High freq. dielectric constant tensor:
#      x y z
#    x 1.646150 0.000000 0.000000 
#    y 0.000000 1.655450 0.000000 
#    z 0.000000 0.000000 1.664430 
# 
# From -- ./inp_files/69224.got.cif
#   From: 2010.03.12/outbox.cif.g09.slc.cpg/sg66_35_cif.got.tgz:69224.got - 2010.04.10 21:57:39.
