data_PCOD8275320
_publ_section_title
;
Structure prediction by ZEFSAII (Michael W. Deem and Ramdas Pophale) SiO2 
 PCOD8275320
Probable space group: C C C M
;
_chemical_formula_sum "Si O2"
_cell_formula_units_Z 80
_cell_length_a 14.930417
_cell_length_b 29.183133
_cell_length_c 8.576141
_cell_angle_alpha 90.000000
_cell_angle_beta 90.000000
_cell_angle_gamma 90.000000
_cell_volume 3736.764811
_symmetry_space_group_name_H-M "C C C M"
_symmetry_group_IT_number 66
_symmetry_cell_setting 'orthorhombic'
loop_
_space_group_symop_operation_xyz
x,y,z
-x,-y,z
x,-y,1/2-z
-x,y,1/2-z
-x,-y,-z
x,y,-z
-x,y,1/2+z
x,-y,1/2+z
1/2+x,1/2+y,z
1/2-x,1/2-y,z
1/2+x,1/2-y,1/2-z
1/2-x,1/2+y,1/2-z
1/2-x,1/2-y,-z
1/2+x,1/2+y,-z
1/2-x,1/2+y,1/2+z
1/2+x,1/2-y,1/2+z
loop_
_atom_site_type_symbol
_atom_site_label
_atom_site_fract_x
_atom_site_fract_y
_atom_site_fract_z
Si Si1 0.727344 0.639122 0.317310
Si Si2 0.587098 0.050441 0.815266
Si Si3 0.097835 0.318701 0.184805
Si Si4 0.094526 0.220330 0.683839
Si Si5 0.775031 0.049343 0.682505
O O1 0.732786 0.630366 0.500000
O O2 0.828492 0.646777 0.254690
O O3 0.668920 0.683101 0.273759
O O4 0.673214 0.594907 0.241049
O O5 0.500000 0.078405 0.750000
O O6 0.679045 0.067537 0.742998
O O7 0.577061 0.000000 0.750000
O O8 0.591202 0.051690 0.000000
O O9 0.123806 0.267295 0.234712
O O10 0.000000 0.331804 0.250000
O O11 0.097254 0.323013 0.000000
O O12 0.086746 0.228954 0.500000
O O13 0.000000 0.202759 0.750000
O O14 0.778464 0.043130 0.500000
O O15 0.806190 0.000000 0.750000
#
# Coordination Sequence:
#
# PCOD8275320 Si02
#       5
#    16  16  16  16  16
#     4  11  23  39  59  86 118 154 196 241 290 344
#     4  10  17  28  45  66  93 128 172 220 269 322
#     4  11  22  37  59  88 123 160 196 236 284 342
#     4  10  21  38  62  89 120 154 190 237 291 348
#     4  11  22  37  55  77 106 144 189 237 289 341
#
# _framework density 21.408892999999999
#
# number of rings (size 3 to 8) (size 9 to 14) (size 15 to 20)
#    0.000    1.400    0.000   10.200    0.000    6.400 
#    0.000    4.000    0.000    0.600    0.000    4.200 
#    0.000    0.000    0.000    0.000    0.000    0.000 
#
# Total GULP energy -495644.492762 kJ/mol
# GULP energy per Si atom -12391.112319 kJ/mol
# Density = 2.136017 g / cm^3
# Si number density = 21.408893 Si / 1000 Ang^3
#
#
#
# Elastic Constant Matrix: (Units=GPa)
#
#
# Indices 1 2 3 4 5 6 
#
# 1 42.6297 26.9881 19.2537 0.0000 0.0000 0.0000
# 2 26.9881 146.5239 61.9625 0.0000 0.0000 0.0000
# 3 19.2537 61.9625 164.0512 0.0000 0.0000 0.0000
# 4 0.0000 0.0000 0.0000 36.7058 0.0000 0.0000
# 5 0.0000 0.0000 0.0000 0.0000 24.7555 0.0000
# 6 0.0000 0.0000 0.0000 0.0000 0.0000 3.1271
#
#
#
# Elastic Compliance Matrix: (Units=1/GPa)
#
#
# Indices 1 2 3 4 5 6 
#
# 1 0.026872 -0.004303 -0.001529 0.000000 0.000000 0.000000
# 2 -0.004303 0.008811 -0.002823 0.000000 0.000000 0.000000
# 3 -0.001529 -0.002823 0.007341 0.000000 0.000000 0.000000
# 4 0.000000 0.000000 0.000000 0.027244 0.000000 0.000000
# 5 0.000000 0.000000 0.000000 0.000000 0.040395 0.000000
# 6 0.000000 0.000000 0.000000 0.000000 0.000000 0.319786
#
#
# Mechanical properties :
#
#
# Convention : Reuss Voigt Hill
#
# Bulk Modulus (GPa) = 38.88697 63.29037 51.08867
# Shear Modulus (GPa) = 10.95696 29.25106 20.10401
#
# Velocity S-wave (km/s) = 2.26474 3.70037 3.06772
# Velocity P-wave (km/s) = 5.00421 6.91981 6.03845
#
# Compressibility (1/GPa) = 0.02571555
#
# Stress axis : x y z
#
# Youngs Moduli (GPa) = 37.21278 113.49162 136.21577
#
# Poissons Ratio (x) = 0.48838 0.20821
# Poissons Ratio (y) = 0.16014 0.38453
# Poissons Ratio (z) = 0.05688 0.32038
#
# Static dielectric constant tensor:
#      x y z
#    x 3.567420 0.000000 0.000000 
#    y 0.000000 4.091430 0.000000 
#    z 0.000000 0.000000 3.887320 
# 
# 
# High freq. dielectric constant tensor:
#      x y z
#    x 1.805300 0.000000 0.000000 
#    y 0.000000 1.868920 0.000000 
#    z 0.000000 0.000000 1.853130 
# 
# From -- ./inp_files/6889.got.cif
#   From: 2010.03.12/outbox.cif.g09.slc.cpg/sg66_4_cif.got.tgz:6889.got - 2010.04.10 21:57:39.
