data_PCOD8275972
_publ_section_title
;
Structure prediction by ZEFSAII (Michael W. Deem and Ramdas Pophale) SiO2 
 PCOD8275972
Probable space group: C C C M
;
_chemical_formula_sum "Si O2"
_cell_formula_units_Z 88
_cell_length_a 31.537417
_cell_length_b 9.398795
_cell_length_c 15.142631
_cell_angle_alpha 90.000000
_cell_angle_beta 90.000000
_cell_angle_gamma 90.000000
_cell_volume 4488.483543
_symmetry_space_group_name_H-M "C C C M"
_symmetry_group_IT_number 66
_symmetry_cell_setting 'orthorhombic'
loop_
_space_group_symop_operation_xyz
x,y,z
-x,-y,z
x,-y,1/2-z
-x,y,1/2-z
-x,-y,-z
x,y,-z
-x,y,1/2+z
x,-y,1/2+z
1/2+x,1/2+y,z
1/2-x,1/2-y,z
1/2+x,1/2-y,1/2-z
1/2-x,1/2+y,1/2-z
1/2-x,1/2-y,-z
1/2+x,1/2+y,-z
1/2-x,1/2+y,1/2+z
1/2+x,1/2-y,1/2+z
loop_
_atom_site_type_symbol
_atom_site_label
_atom_site_fract_x
_atom_site_fract_y
_atom_site_fract_z
Si Si1 0.291859 0.666144 0.742428
Si Si2 0.858203 0.894282 0.099711
Si Si3 0.150355 0.220927 0.600841
Si Si4 0.056436 0.262559 0.097629
Si Si5 0.500000 0.800750 0.250000
Si Si6 0.581356 0.942199 0.336452
O O1 0.280485 0.500000 0.750000
O O2 0.250000 0.750000 0.715342
O O3 0.325131 0.683157 0.663349
O O4 0.310439 0.740732 0.831555
O O5 0.903134 0.829159 0.120866
O O6 0.864869 0.060715 0.117907
O O7 0.842969 0.864670 0.000000
O O8 0.166343 0.243469 0.500000
O O9 0.110416 0.324609 0.616700
O O10 0.069758 0.428922 0.098225
O O11 0.022184 0.213142 0.170940
O O12 0.038579 0.228030 0.000000
O O13 0.536196 0.888231 0.300528
O O14 0.606776 0.000000 0.250000
#
# Coordination Sequence:
#
# PCOD8275972 Si02
#       6
#    16  16  16  16   8  16
#     4  10  21  36  56  81 109 140 174 218 269 320
#     4   9  20  39  58  78 107 143 181 220 268 320
#     4  10  21  38  58  79 109 147 180 215 266 324
#     4  10  19  33  54  77 104 140 181 224 265 310
#     4  10  21  34  49  76 111 140 175 224 273 320
#     4  10  19  33  53  78 107 140 181 225 267 315
#
# _framework density 19.605730999999999
#
# number of rings (size 3 to 8) (size 9 to 14) (size 15 to 20)
#    0.000    2.182    0.000    5.182    0.000    5.091 
#    0.000    1.818    0.000    3.273    0.000    0.000 
#    0.000    0.000    0.000    0.000    0.000    0.000 
#
# Total GULP energy -545219.016361 kJ/mol
# GULP energy per Si atom -12391.341281 kJ/mol
# Density = 1.956111 g / cm^3
# Si number density = 19.605731 Si / 1000 Ang^3
#
#
#
# Elastic Constant Matrix: (Units=GPa)
#
#
# Indices 1 2 3 4 5 6 
#
# 1 79.2282 41.9601 78.2566 0.0000 0.0000 0.0000
# 2 41.9601 42.6487 37.4056 0.0000 0.0000 0.0000
# 3 78.2566 37.4056 147.5731 0.0000 0.0000 0.0000
# 4 0.0000 0.0000 0.0000 21.7417 0.0000 0.0000
# 5 0.0000 0.0000 0.0000 0.0000 27.7563 0.0000
# 6 0.0000 0.0000 0.0000 0.0000 0.0000 20.6516
#
#
#
# Elastic Compliance Matrix: (Units=1/GPa)
#
#
# Indices 1 2 3 4 5 6 
#
# 1 0.043532 -0.029038 -0.015724 0.000000 0.000000 0.000000
# 2 -0.029038 0.049520 0.002847 0.000000 0.000000 0.000000
# 3 -0.015724 0.002847 0.014393 0.000000 0.000000 0.000000
# 4 0.000000 0.000000 0.000000 0.045995 0.000000 0.000000
# 5 0.000000 0.000000 0.000000 0.000000 0.036028 0.000000
# 6 0.000000 0.000000 0.000000 0.000000 0.000000 0.048422
#
#
# Mechanical properties :
#
#
# Convention : Reuss Voigt Hill
#
# Bulk Modulus (GPa) = 42.34810 64.96608 53.65709
# Shear Modulus (GPa) = 15.17024 21.48511 18.32767
#
# Velocity S-wave (km/s) = 2.78468 3.31397 3.06079
# Velocity P-wave (km/s) = 5.65562 6.91747 6.31812
#
# Compressibility (1/GPa) = 0.02361381
#
# Stress axis : x y z
#
# Youngs Moduli (GPa) = 22.97148 20.19395 69.47705
#
# Poissons Ratio (x) = 0.58639 1.09249
# Poissons Ratio (y) = 0.66705 -0.19778
# Poissons Ratio (z) = 0.36121 -0.05749
#
# Static dielectric constant tensor:
#      x y z
#    x 3.402560 0.000000 0.000000 
#    y 0.000000 3.551940 0.000000 
#    z 0.000000 0.000000 4.169250 
# 
# 
# High freq. dielectric constant tensor:
#      x y z
#    x 1.748750 0.000000 0.000000 
#    y 0.000000 1.750520 0.000000 
#    z 0.000000 0.000000 1.783210 
# 
# From -- ./inp_files/44662.got.cif
#   From: 2010.03.12/outbox.cif.g09.slc.cpg/sg66_23_cif.got.tgz:44662.got - 2010.04.10 21:57:39.
