data_PCOD8275302
_publ_section_title
;
Structure prediction by ZEFSAII (Michael W. Deem and Ramdas Pophale) SiO2 
 PCOD8275302
Probable space group: C C C M
;
_chemical_formula_sum "Si O2"
_cell_formula_units_Z 96
_cell_length_a 20.946459
_cell_length_b 28.699967
_cell_length_c 8.876194
_cell_angle_alpha 90.000000
_cell_angle_beta 90.000000
_cell_angle_gamma 90.000000
_cell_volume 5336.036592
_symmetry_space_group_name_H-M "C C C M"
_symmetry_group_IT_number 66
_symmetry_cell_setting 'orthorhombic'
loop_
_space_group_symop_operation_xyz
x,y,z
-x,-y,z
x,-y,1/2-z
-x,y,1/2-z
-x,-y,-z
x,y,-z
-x,y,1/2+z
x,-y,1/2+z
1/2+x,1/2+y,z
1/2-x,1/2-y,z
1/2+x,1/2-y,1/2-z
1/2-x,1/2+y,1/2-z
1/2-x,1/2-y,-z
1/2+x,1/2+y,-z
1/2-x,1/2+y,1/2+z
1/2+x,1/2-y,1/2+z
loop_
_atom_site_type_symbol
_atom_site_label
_atom_site_fract_x
_atom_site_fract_y
_atom_site_fract_z
Si Si1 0.308672 0.219326 0.177862
Si Si2 0.062982 0.948479 0.180830
Si Si3 0.190230 0.050330 0.820881
Si Si4 0.062874 0.278825 0.669760
Si Si5 0.190256 0.613294 0.324023
Si Si6 0.562729 0.110180 0.169187
O O1 0.250000 0.250000 0.238820
O O2 0.373699 0.239684 0.248188
O O3 0.296843 0.166169 0.229480
O O4 0.315334 0.223500 0.000000
O O5 0.128116 0.925278 0.243372
O O6 0.000000 0.922915 0.250000
O O7 0.064249 0.000000 0.250000
O O8 0.060750 0.948917 0.000000
O O9 0.249340 0.082763 0.777520
O O10 0.203726 0.000000 0.750000
O O11 0.180016 0.046002 0.000000
O O12 0.063364 0.260271 0.500000
O O13 0.061237 0.334315 0.677291
O O14 0.000000 0.258132 0.750000
O O15 0.177058 0.611910 0.500000
O O16 0.127337 0.591848 0.246670
O O17 0.500000 0.089499 0.250000
O O18 0.562087 0.091504 0.000000
#
# Coordination Sequence:
#
# PCOD8275302 Si02
#       6
#    16  16  16  16  16  16
#     4   9  17  30  48  69  93 121 151 184 225 271
#     4  10  17  27  44  66  91 117 149 188 228 267
#     4  10  19  31  47  68  94 122 152 186 225 268
#     4   9  16  26  42  65  91 118 150 189 227 264
#     4   9  18  31  47  68  94 122 151 185 225 269
#     4   9  16  26  43  66  91 118 150 188 227 266
#
# _framework density 17.990881000000002
#
# number of rings (size 3 to 8) (size 9 to 14) (size 15 to 20)
#    0.000    2.667    0.000    4.500    0.000    5.667 
#    0.000    0.000    0.000    1.500    0.000    3.500 
#    0.000    0.000    0.000    0.000    0.000    0.000 
#
# Total GULP energy -595014.106683 kJ/mol
# GULP energy per Si atom -12396.127223 kJ/mol
# Density = 1.794993 g / cm^3
# Si number density = 17.990881 Si / 1000 Ang^3
#
#
#
# Elastic Constant Matrix: (Units=GPa)
#
#
# Indices 1 2 3 4 5 6 
#
# 1 215.6816 48.2868 84.8995 0.0000 0.0000 0.0000
# 2 48.2868 33.5674 24.7107 0.0000 0.0000 0.0000
# 3 84.8995 24.7107 104.0141 0.0000 0.0000 0.0000
# 4 0.0000 0.0000 0.0000 12.2118 0.0000 0.0000
# 5 0.0000 0.0000 0.0000 0.0000 39.6374 0.0000
# 6 0.0000 0.0000 0.0000 0.0000 0.0000 25.2784
#
#
#
# Elastic Compliance Matrix: (Units=1/GPa)
#
#
# Indices 1 2 3 4 5 6 
#
# 1 0.008486 -0.008615 -0.004880 0.000000 0.000000 0.000000
# 2 -0.008615 0.044851 -0.003624 0.000000 0.000000 0.000000
# 3 -0.004880 -0.003624 0.014458 0.000000 0.000000 0.000000
# 4 0.000000 0.000000 0.000000 0.081888 0.000000 0.000000
# 5 0.000000 0.000000 0.000000 0.000000 0.025229 0.000000
# 6 0.000000 0.000000 0.000000 0.000000 0.000000 0.039559
#
#
# Mechanical properties :
#
#
# Convention : Reuss Voigt Hill
#
# Bulk Modulus (GPa) = 29.79888 74.33965 52.06927
# Shear Modulus (GPa) = 19.23865 28.44995 23.84430
#
# Velocity S-wave (km/s) = 3.27365 3.98094 3.64449
# Velocity P-wave (km/s) = 5.55773 7.90828 6.83481
#
# Compressibility (1/GPa) = 0.03355831
#
# Stress axis : x y z
#
# Youngs Moduli (GPa) = 117.84016 22.29614 69.16539
#
# Poissons Ratio (x) = 0.19208 0.33752
# Poissons Ratio (y) = 1.01518 0.25062
# Poissons Ratio (z) = 0.57505 0.08079
#
# Static dielectric constant tensor:
#      x y z
#    x 4.001180 0.000000 0.000000 
#    y 0.000000 2.796410 0.000000 
#    z 0.000000 0.000000 3.387760 
# 
# 
# High freq. dielectric constant tensor:
#      x y z
#    x 1.723280 0.000000 0.000000 
#    y 0.000000 1.624110 0.000000 
#    z 0.000000 0.000000 1.706280 
# 
# From -- ./inp_files/9138.got.cif
#   From: 2010.03.12/outbox.cif.g09.slc.cpg/sg66_5_cif.got.tgz:9138.got - 2010.04.10 21:57:39.
