data_PCOD8275742
_publ_section_title
;
Structure prediction by ZEFSAII (Michael W. Deem and Ramdas Pophale) SiO2 
 PCOD8275742
Probable space group: C C C M
;
_chemical_formula_sum "Si O2"
_cell_formula_units_Z 96
_cell_length_a 29.971786
_cell_length_b 20.454081
_cell_length_c 8.972813
_cell_angle_alpha 90.000000
_cell_angle_beta 90.000000
_cell_angle_gamma 90.000000
_cell_volume 5500.741183
_symmetry_space_group_name_H-M "C C C M"
_symmetry_group_IT_number 66
_symmetry_cell_setting 'orthorhombic'
loop_
_space_group_symop_operation_xyz
x,y,z
-x,-y,z
x,-y,1/2-z
-x,y,1/2-z
-x,-y,-z
x,y,-z
-x,y,1/2+z
x,-y,1/2+z
1/2+x,1/2+y,z
1/2-x,1/2-y,z
1/2+x,1/2-y,1/2-z
1/2-x,1/2+y,1/2-z
1/2-x,1/2-y,-z
1/2+x,1/2+y,-z
1/2-x,1/2+y,1/2+z
1/2+x,1/2-y,1/2+z
loop_
_atom_site_type_symbol
_atom_site_label
_atom_site_fract_x
_atom_site_fract_y
_atom_site_fract_z
Si Si1 0.132899 0.729143 0.325802
Si Si2 0.456399 0.227467 0.667653
Si Si3 0.279624 0.565328 0.175300
Si Si4 0.456164 0.616838 0.168619
Si Si5 0.633683 0.618813 0.175174
Si Si6 0.220199 0.310557 0.325877
O O1 0.128653 0.717274 0.500000
O O2 0.087754 0.702437 0.251166
O O3 0.140435 0.805038 0.286970
O O4 0.173968 0.687842 0.262399
O O5 0.500000 0.198998 0.750000
O O6 0.455803 0.200234 0.500000
O O7 0.458025 0.305306 0.668968
O O8 0.259804 0.500000 0.250000
O O9 0.327628 0.578829 0.245675
O O10 0.245634 0.623121 0.213320
O O11 0.285449 0.555974 0.000000
O O12 0.500000 0.588342 0.250000
O O13 0.412977 0.592762 0.259197
O O14 0.454194 0.590023 0.000000
O O15 0.634544 0.605399 0.000000
O O16 0.209697 0.303210 0.500000
O O17 0.250000 0.250000 0.269649
#
# Coordination Sequence:
#
# PCOD8275742 Si02
#       6
#    16  16  16  16  16  16
#     4  10  19  29  47  74 102 131 168 211 253 299
#     4   9  16  26  41  63  97 134 167 203 249 301
#     4  11  23  38  55  74 100 133 169 211 257 307
#     4   9  16  26  42  65  93 126 164 207 254 300
#     4  10  19  31  48  71  98 129 167 209 254 302
#     4  10  20  35  54  75 101 133 170 211 257 305
#
# _framework density 17.452193000000001
#
# number of rings (size 3 to 8) (size 9 to 14) (size 15 to 20)
#    0.000    2.167    1.667    2.500    0.000    7.000 
#    0.000    0.000    0.000    0.500    0.000    3.500 
#    0.000    0.667    0.000    7.000    0.000    4.167 
#
# Total GULP energy -595343.718172 kJ/mol
# GULP energy per Si atom -12402.994129 kJ/mol
# Density = 1.741247 g / cm^3
# Si number density = 17.452193 Si / 1000 Ang^3
#
#
#
# Elastic Constant Matrix: (Units=GPa)
#
#
# Indices 1 2 3 4 5 6 
#
# 1 142.6196 44.5728 70.0093 0.0000 0.0000 0.0000
# 2 44.5728 61.2695 43.7850 0.0000 0.0000 0.0000
# 3 70.0093 43.7850 113.9637 0.0000 0.0000 0.0000
# 4 0.0000 0.0000 0.0000 18.4940 0.0000 0.0000
# 5 0.0000 0.0000 0.0000 0.0000 39.1273 0.0000
# 6 0.0000 0.0000 0.0000 0.0000 0.0000 10.7713
#
#
#
# Elastic Compliance Matrix: (Units=1/GPa)
#
#
# Indices 1 2 3 4 5 6 
#
# 1 0.010801 -0.004295 -0.004985 0.000000 0.000000 0.000000
# 2 -0.004295 0.024207 -0.006662 0.000000 0.000000 0.000000
# 3 -0.004985 -0.006662 0.014396 0.000000 0.000000 0.000000
# 4 0.000000 0.000000 0.000000 0.054072 0.000000 0.000000
# 5 0.000000 0.000000 0.000000 0.000000 0.025558 0.000000
# 6 0.000000 0.000000 0.000000 0.000000 0.000000 0.092839
#
#
# Mechanical properties :
#
#
# Convention : Reuss Voigt Hill
#
# Bulk Modulus (GPa) = 57.07598 70.50967 63.79283
# Shear Modulus (GPa) = 19.26067 24.31092 21.78579
#
# Velocity S-wave (km/s) = 3.32569 3.73634 3.53698
# Velocity P-wave (km/s) = 6.89363 7.68785 7.30154
#
# Compressibility (1/GPa) = 0.01752050
#
# Stress axis : x y z
#
# Youngs Moduli (GPa) = 92.58331 41.31104 69.46146
#
# Poissons Ratio (x) = 0.17744 0.34627
# Poissons Ratio (y) = 0.39766 0.46273
# Poissons Ratio (z) = 0.46153 0.27520
#
# Static dielectric constant tensor:
#      x y z
#    x 3.345460 0.000000 0.000000 
#    y 0.000000 2.833630 0.000000 
#    z 0.000000 0.000000 3.371360 
# 
# 
# High freq. dielectric constant tensor:
#      x y z
#    x 1.684490 0.000000 0.000000 
#    y 0.000000 1.613300 0.000000 
#    z 0.000000 0.000000 1.691380 
# 
# From -- ./inp_files/7950.got.cif
#   From: 2010.03.12/outbox.cif.g09.slc.cpg/sg66_4_cif.got.tgz:7950.got - 2010.04.10 21:57:39.
