data_PCOD8275850
_publ_section_title
;
Structure prediction by ZEFSAII (Michael W. Deem and Ramdas Pophale) SiO2 
 PCOD8275850
Probable space group: C C C M
;
_chemical_formula_sum "Si O2"
_cell_formula_units_Z 80
_cell_length_a 8.863314
_cell_length_b 17.014494
_cell_length_c 25.976130
_cell_angle_alpha 90.000000
_cell_angle_beta 90.000000
_cell_angle_gamma 90.000000
_cell_volume 3917.325164
_symmetry_space_group_name_H-M "C C C M"
_symmetry_group_IT_number 66
_symmetry_cell_setting 'orthorhombic'
loop_
_space_group_symop_operation_xyz
x,y,z
-x,-y,z
x,-y,1/2-z
-x,y,1/2-z
-x,-y,-z
x,y,-z
-x,y,1/2+z
x,-y,1/2+z
1/2+x,1/2+y,z
1/2-x,1/2-y,z
1/2+x,1/2-y,1/2-z
1/2-x,1/2+y,1/2-z
1/2-x,1/2-y,-z
1/2+x,1/2+y,-z
1/2-x,1/2+y,1/2+z
1/2+x,1/2-y,1/2+z
loop_
_atom_site_type_symbol
_atom_site_label
_atom_site_fract_x
_atom_site_fract_y
_atom_site_fract_z
Si Si1 0.098971 0.153226 0.099194
Si Si2 0.432081 0.164451 0.097094
Si Si3 0.415577 0.842094 0.800989
Si Si4 0.849805 0.669101 0.500000
Si Si5 0.055116 0.911612 0.000000
Si Si6 0.575787 0.654381 0.301799
O O1 0.269674 0.121683 0.089358
O O2 0.102184 0.245470 0.107586
O O3 0.018901 0.118142 0.150281
O O4 0.001314 0.133293 0.049927
O O5 0.504506 0.125099 0.147665
O O6 0.544110 0.158490 0.049175
O O7 0.500000 0.873618 0.750000
O O8 0.419899 0.748261 0.802306
O O9 0.246895 0.876353 0.802548
O O10 0.750000 0.750000 0.500000
O O11 0.736239 0.595099 0.500000
O O12 0.000000 0.000000 0.000000
O O13 0.500000 0.622392 0.250000
#
# Coordination Sequence:
#
# PCOD8275850 Si02
#       6
#    16  16  16   8   8  16
#     4  10  19  34  52  78 109 141 181 223 276 323
#     4  10  19  31  55  80 107 139 182 229 268 327
#     4   9  16  25  41  73 112 143 172 214 277 326
#     4  12  21  35  57  81 104 140 189 232 276 329
#     4  12  25  39  55  77 110 143 179 226 279 334
#     4   9  16  26  45  71 107 143 176 218 267 325
#
# _framework density 20.422097999999998
#
# number of rings (size 3 to 8) (size 9 to 14) (size 15 to 20)
#    0.000    2.000    2.000    3.000    2.800    6.400 
#    0.000    2.000    0.000    0.600    0.000    0.000 
#    0.000    1.600    0.000    0.000    0.000    0.000 
#
# Total GULP energy -495784.159070 kJ/mol
# GULP energy per Si atom -12394.603977 kJ/mol
# Density = 2.037562 g / cm^3
# Si number density = 20.422098 Si / 1000 Ang^3
#
#
#
# Elastic Constant Matrix: (Units=GPa)
#
#
# Indices 1 2 3 4 5 6 
#
# 1 215.6390 12.0205 107.6119 0.0000 0.0000 0.0000
# 2 12.0205 14.9549 1.1514 0.0000 0.0000 0.0000
# 3 107.6119 1.1514 212.0505 0.0000 0.0000 0.0000
# 4 0.0000 0.0000 0.0000 2.7176 0.0000 0.0000
# 5 0.0000 0.0000 0.0000 0.0000 49.2318 0.0000
# 6 0.0000 0.0000 0.0000 0.0000 0.0000 12.1522
#
#
#
# Elastic Compliance Matrix: (Units=1/GPa)
#
#
# Indices 1 2 3 4 5 6 
#
# 1 0.006567 -0.005024 -0.003305 0.000000 0.000000 0.000000
# 2 -0.005024 0.070739 0.002165 0.000000 0.000000 0.000000
# 3 -0.003305 0.002165 0.006381 0.000000 0.000000 0.000000
# 4 0.000000 0.000000 0.000000 0.367968 0.000000 0.000000
# 5 0.000000 0.000000 0.000000 0.000000 0.020312 0.000000
# 6 0.000000 0.000000 0.000000 0.000000 0.000000 0.082290
#
#
# Mechanical properties :
#
#
# Convention : Reuss Voigt Hill
#
# Bulk Modulus (GPa) = 14.01341 76.02355 45.01848
# Shear Modulus (GPa) = 8.46924 34.27771 21.37347
#
# Velocity S-wave (km/s) = 2.03865 4.10135 3.23861
# Velocity P-wave (km/s) = 3.52395 7.72884 6.00638
#
# Compressibility (1/GPa) = 0.07136021
#
# Stress axis : x y z
#
# Youngs Moduli (GPa) = 152.27882 14.13640 156.70335
#
# Poissons Ratio (x) = 0.07102 0.51795
# Poissons Ratio (y) = 0.76504 -0.33933
# Poissons Ratio (z) = 0.50333 -0.03061
#
# Static dielectric constant tensor:
#      x y z
#    x 4.196330 0.000000 0.000000 
#    y 0.000000 2.885330 0.000000 
#    z 0.000000 0.000000 3.912570 
# 
# 
# High freq. dielectric constant tensor:
#      x y z
#    x 1.824910 0.000000 0.000000 
#    y 0.000000 1.709820 0.000000 
#    z 0.000000 0.000000 1.819220 
# 
# From -- ./inp_files/55389.got.cif
#   From: 2010.03.12/outbox.cif.g09.slc.cpg/sg66_28_cif.got.tgz:55389.got - 2010.04.10 21:57:39.
