data_PCOD8275751
_publ_section_title
;
Structure prediction by ZEFSAII (Michael W. Deem and Ramdas Pophale) SiO2 
 PCOD8275751
Probable space group: C C C M
;
_chemical_formula_sum "Si O2"
_cell_formula_units_Z 68
_cell_length_a 18.415343
_cell_length_b 27.968467
_cell_length_c 8.996190
_cell_angle_alpha 90.000000
_cell_angle_beta 90.000000
_cell_angle_gamma 90.000000
_cell_volume 4633.477881
_symmetry_space_group_name_H-M "C C C M"
_symmetry_group_IT_number 66
_symmetry_cell_setting 'orthorhombic'
loop_
_space_group_symop_operation_xyz
x,y,z
-x,-y,z
x,-y,1/2-z
-x,y,1/2-z
-x,-y,-z
x,y,-z
-x,y,1/2+z
x,-y,1/2+z
1/2+x,1/2+y,z
1/2-x,1/2-y,z
1/2+x,1/2-y,1/2-z
1/2-x,1/2+y,1/2-z
1/2-x,1/2-y,-z
1/2+x,1/2+y,-z
1/2-x,1/2+y,1/2+z
1/2+x,1/2-y,1/2+z
loop_
_atom_site_type_symbol
_atom_site_label
_atom_site_fract_x
_atom_site_fract_y
_atom_site_fract_z
Si Si1 0.931605 0.591808 0.665634
Si Si2 0.165962 0.343526 0.175625
Si Si3 0.923247 0.258753 0.823623
Si Si4 0.500000 0.000000 0.250000
Si Si5 0.709205 0.699935 0.663681
O O1 0.924667 0.612702 0.500000
O O2 0.859478 0.604866 0.760312
O O3 0.946186 0.534447 0.655383
O O4 0.000000 0.616638 0.750000
O O5 0.112657 0.305279 0.250809
O O6 0.250203 0.334800 0.219893
O O7 0.158334 0.341908 0.000000
O O8 0.873568 0.211822 0.789239
O O9 0.000000 0.247893 0.750000
O O10 0.930273 0.267139 0.000000
O O11 0.711692 0.675981 0.500000
O O12 0.750000 0.750000 0.657964
#
# Coordination Sequence:
#
# PCOD8275751 Si02
#       5
#    16  16  16   4  16
#     4  10  19  31  45  60  81 106 138 173 209 249
#     4  11  20  28  42  61  81 107 141 176 209 249
#     4  10  19  30  43  59  81 108 139 176 214 250
#     4   8  22  32  50  60  82 112 140 176 218 252
#     4   8  16  30  43  56  78 106 135 171 214 249
#
# _framework density 14.675801999999999
#
# number of rings (size 3 to 8) (size 9 to 14) (size 15 to 20)
#    0.706    1.647    0.000    6.000    0.000    5.176 
#    0.000    0.000    0.000    0.000    0.000    0.000 
#    0.000    0.000    0.000    1.059    0.000   16.000 
#
# Total GULP energy -421194.997616 kJ/mol
# GULP energy per Si atom -12388.088165 kJ/mol
# Density = 1.464240 g / cm^3
# Si number density = 14.675802 Si / 1000 Ang^3
#
#
#
# Elastic Constant Matrix: (Units=GPa)
#
#
# Indices 1 2 3 4 5 6 
#
# 1 92.0875 35.1580 48.1014 0.0000 0.0000 0.0000
# 2 35.1580 50.9499 32.7477 0.0000 0.0000 0.0000
# 3 48.1014 32.7477 128.1010 0.0000 0.0000 0.0000
# 4 0.0000 0.0000 0.0000 14.3521 0.0000 0.0000
# 5 0.0000 0.0000 0.0000 0.0000 22.9607 0.0000
# 6 0.0000 0.0000 0.0000 0.0000 0.0000 22.5378
#
#
#
# Elastic Compliance Matrix: (Units=1/GPa)
#
#
# Indices 1 2 3 4 5 6 
#
# 1 0.016194 -0.008695 -0.003858 0.000000 0.000000 0.000000
# 2 -0.008695 0.028155 -0.003933 0.000000 0.000000 0.000000
# 3 -0.003858 -0.003933 0.010260 0.000000 0.000000 0.000000
# 4 0.000000 0.000000 0.000000 0.069676 0.000000 0.000000
# 5 0.000000 0.000000 0.000000 0.000000 0.043553 0.000000
# 6 0.000000 0.000000 0.000000 0.000000 0.000000 0.044370
#
#
# Mechanical properties :
#
#
# Convention : Reuss Voigt Hill
#
# Bulk Modulus (GPa) = 46.21495 55.90583 51.06039
# Shear Modulus (GPa) = 19.81044 22.31219 21.06132
#
# Velocity S-wave (km/s) = 3.67805 3.90338 3.79239
# Velocity P-wave (km/s) = 7.04246 7.64799 7.35146
#
# Compressibility (1/GPa) = 0.02163802
#
# Stress axis : x y z
#
# Youngs Moduli (GPa) = 61.75082 35.51796 97.46279
#
# Poissons Ratio (x) = 0.30883 0.37601
# Poissons Ratio (y) = 0.53693 0.38328
# Poissons Ratio (z) = 0.23824 0.13968
#
# Static dielectric constant tensor:
#      x y z
#    x 3.090890 0.000000 0.000000 
#    y 0.000000 2.553900 0.000000 
#    z 0.000000 0.000000 2.885960 
# 
# 
# High freq. dielectric constant tensor:
#      x y z
#    x 1.547070 0.000000 0.000000 
#    y 0.000000 1.511700 0.000000 
#    z 0.000000 0.000000 1.576400 
# 
# From -- ./inp_files/6835.got.cif
#   From: 2010.03.12/outbox.cif.g09.slc.cpg/sg66_4_cif.got.tgz:6835.got - 2010.04.10 21:57:39.
