data_PCOD8275447
_publ_section_title
;
Structure prediction by ZEFSAII (Michael W. Deem and Ramdas Pophale) SiO2 
 PCOD8275447
Probable space group: C C C M
;
_chemical_formula_sum "Si O2"
_cell_formula_units_Z 112
_cell_length_a 19.411164
_cell_length_b 11.036123
_cell_length_c 25.500840
_cell_angle_alpha 90.000000
_cell_angle_beta 90.000000
_cell_angle_gamma 90.000000
_cell_volume 5462.891782
_symmetry_space_group_name_H-M "C C C M"
_symmetry_group_IT_number 66
_symmetry_cell_setting 'orthorhombic'
loop_
_space_group_symop_operation_xyz
x,y,z
-x,-y,z
x,-y,1/2-z
-x,y,1/2-z
-x,-y,-z
x,y,-z
-x,y,1/2+z
x,-y,1/2+z
1/2+x,1/2+y,z
1/2-x,1/2-y,z
1/2+x,1/2-y,1/2-z
1/2-x,1/2+y,1/2-z
1/2-x,1/2-y,-z
1/2+x,1/2+y,-z
1/2-x,1/2+y,1/2+z
1/2+x,1/2-y,1/2+z
loop_
_atom_site_type_symbol
_atom_site_label
_atom_site_fract_x
_atom_site_fract_y
_atom_site_fract_z
Si Si1 0.047239 0.615611 0.942260
Si Si2 0.323540 0.313652 0.060084
Si Si3 0.358351 0.020373 0.638250
Si Si4 0.561339 0.210713 0.631618
Si Si5 0.400512 0.389505 0.782019
Si Si6 0.327011 0.258633 0.306649
Si Si7 0.200174 0.995073 0.860845
O O1 0.120573 0.571060 0.919429
O O2 0.000000 0.500000 0.949630
O O3 0.011253 0.704291 0.899292
O O4 0.057933 0.676622 0.000000
O O5 0.250000 0.250000 0.067331
O O6 0.379697 0.232088 0.088613
O O7 0.327815 0.448345 0.085108
O O8 0.344466 0.326714 0.000000
O O9 0.361108 0.132955 0.677434
O O10 0.413264 0.917256 0.657229
O O11 0.280726 0.973048 0.638544
O O12 0.552547 0.317583 0.675265
O O13 0.438332 0.500000 0.750000
O O14 0.378132 0.294813 0.738887
O O15 0.332367 0.439446 0.810380
O O16 0.250000 0.250000 0.283238
O O17 0.320108 0.353147 0.356034
#
# Coordination Sequence:
#
# PCOD8275447 Si02
#       7
#    16  16  16  16  16  16  16
#     4   9  19  35  54  77 108 149 187 226 282 334
#     4  10  18  28  49  76 104 135 174 231 287 330
#     4  10  19  32  51  79 111 145 179 228 270 336
#     4  10  19  32  54  80 111 138 186 233 272 332
#     4   9  19  33  53  79 108 141 180 224 286 338
#     4   9  19  32  50  74 107 144 178 211 275 332
#     4   9  18  33  49  77 111 137 178 224 274 338
#
# _framework density 20.501963
#
# number of rings (size 3 to 8) (size 9 to 14) (size 15 to 20)
#    0.000    2.571    1.429    0.429    2.000    1.714 
#    0.000    1.429    0.000   15.429    0.000   10.000 
#    0.000    0.000    0.000    0.000    0.000    0.000 
#
# Total GULP energy -693793.110939 kJ/mol
# GULP energy per Si atom -12389.162695 kJ/mol
# Density = 2.045530 g / cm^3
# Si number density = 20.501963 Si / 1000 Ang^3
#
#
#
# Elastic Constant Matrix: (Units=GPa)
#
#
# Indices 1 2 3 4 5 6 
#
# 1 45.7510 12.3271 19.2204 0.0000 0.0000 0.0000
# 2 12.3271 97.6868 49.1771 0.0000 0.0000 0.0000
# 3 19.2204 49.1771 113.0807 0.0000 0.0000 0.0000
# 4 0.0000 0.0000 0.0000 24.7879 0.0000 0.0000
# 5 0.0000 0.0000 0.0000 0.0000 9.9806 0.0000
# 6 0.0000 0.0000 0.0000 0.0000 0.0000 19.2409
#
#
#
# Elastic Compliance Matrix: (Units=1/GPa)
#
#
# Indices 1 2 3 4 5 6 
#
# 1 0.023653 -0.001230 -0.003485 0.000000 0.000000 0.000000
# 2 -0.001230 0.013170 -0.005518 0.000000 0.000000 0.000000
# 3 -0.003485 -0.005518 0.011835 0.000000 0.000000 0.000000
# 4 0.000000 0.000000 0.000000 0.040342 0.000000 0.000000
# 5 0.000000 0.000000 0.000000 0.000000 0.100194 0.000000
# 6 0.000000 0.000000 0.000000 0.000000 0.000000 0.051973
#
#
# Mechanical properties :
#
#
# Convention : Reuss Voigt Hill
#
# Bulk Modulus (GPa) = 35.47246 46.44085 40.95665
# Shear Modulus (GPa) = 18.44797 22.52148 20.48472
#
# Velocity S-wave (km/s) = 3.00295 3.31796 3.16438
# Velocity P-wave (km/s) = 5.41877 6.11388 5.77679
#
# Compressibility (1/GPa) = 0.02819088
#
# Stress axis : x y z
#
# Youngs Moduli (GPa) = 42.27768 75.92979 84.49163
#
# Poissons Ratio (x) = 0.09341 0.29448
# Poissons Ratio (y) = 0.05201 0.46625
# Poissons Ratio (z) = 0.14735 0.41901
#
# Static dielectric constant tensor:
#      x y z
#    x 3.597720 0.000000 0.000000 
#    y 0.000000 3.753620 0.000000 
#    z 0.000000 0.000000 3.799950 
# 
# 
# High freq. dielectric constant tensor:
#      x y z
#    x 1.784570 0.000000 0.000000 
#    y 0.000000 1.799210 0.000000 
#    z 0.000000 0.000000 1.792350 
# 
# From -- ./inp_files/59561.got.cif
#   From: 2010.03.12/outbox.cif.g09.slc.cpg/sg66_30_cif.got.tgz:59561.got - 2010.04.10 21:57:39.
