data_PCOD8275692
_publ_section_title
;
Structure prediction by ZEFSAII (Michael W. Deem and Ramdas Pophale) SiO2 
 PCOD8275692
Probable space group: C C C M
;
_chemical_formula_sum "Si O2"
_cell_formula_units_Z 104
_cell_length_a 21.435370
_cell_length_b 26.952397
_cell_length_c 9.364980
_cell_angle_alpha 90.000000
_cell_angle_beta 90.000000
_cell_angle_gamma 90.000000
_cell_volume 5410.472994
_symmetry_space_group_name_H-M "C C C M"
_symmetry_group_IT_number 66
_symmetry_cell_setting 'orthorhombic'
loop_
_space_group_symop_operation_xyz
x,y,z
-x,-y,z
x,-y,1/2-z
-x,y,1/2-z
-x,-y,-z
x,y,-z
-x,y,1/2+z
x,-y,1/2+z
1/2+x,1/2+y,z
1/2-x,1/2-y,z
1/2+x,1/2-y,1/2-z
1/2-x,1/2+y,1/2-z
1/2-x,1/2-y,-z
1/2+x,1/2+y,-z
1/2-x,1/2+y,1/2+z
1/2+x,1/2-y,1/2+z
loop_
_atom_site_type_symbol
_atom_site_label
_atom_site_fract_x
_atom_site_fract_y
_atom_site_fract_z
Si Si1 0.682627 0.238985 0.830800
Si Si2 0.691838 0.049443 0.834298
Si Si3 0.620233 0.857192 0.336340
Si Si4 0.558969 0.393578 0.665553
Si Si5 0.164341 0.051410 0.330641
Si Si6 0.917138 0.782218 0.152621
Si Si7 0.500000 0.803145 0.750000
O O1 0.750000 0.250000 0.766915
O O2 0.662294 0.185949 0.767214
O O3 0.633177 0.279432 0.778435
O O4 0.681854 0.240874 0.000000
O O5 0.642905 0.090391 0.770820
O O6 0.763300 0.067013 0.809892
O O7 0.676231 0.000000 0.750000
O O8 0.679914 0.038223 0.000000
O O9 0.638815 0.860988 0.500000
O O10 0.547812 0.841832 0.323288
O O11 0.500000 0.417615 0.750000
O O12 0.561354 0.412147 0.500000
O O13 0.621837 0.407832 0.751262
O O14 0.548206 0.334396 0.670742
O O15 0.148192 0.047459 0.500000
O O16 0.150873 0.000000 0.250000
O O17 0.964778 0.735270 0.145571
O O18 0.882176 0.781663 0.000000
#
# Coordination Sequence:
#
# PCOD8275692 Si02
#       7
#    16  16  16  16  16  16   8
#     4   9  19  33  53  79 108 143 184 228 276 336
#     4   9  19  37  60  85 113 144 184 230 283 339
#     4   9  18  33  55  81 109 145 188 233 276 333
#     4  11  23  38  56  82 113 149 193 235 279 330
#     4  10  21  38  61  85 112 146 184 233 289 343
#     4  10  21  35  53  78 111 149 186 230 278 328
#     4  10  18  36  57  78 113 152 194 226 280 334
#
# _framework density 19.221979999999999
#
# number of rings (size 3 to 8) (size 9 to 14) (size 15 to 20)
#    0.000    2.308    0.769    1.385    2.154    3.077 
#    0.000    5.769    0.000    1.846    0.000    0.000 
#    0.000    0.000    0.000    0.000    0.000    0.000 
#
# Total GULP energy -644227.054081 kJ/mol
# GULP energy per Si atom -12388.981809 kJ/mol
# Density = 1.917823 g / cm^3
# Si number density = 19.221980 Si / 1000 Ang^3
#
#
#
# Elastic Constant Matrix: (Units=GPa)
#
#
# Indices 1 2 3 4 5 6 
#
# 1 115.0374 53.0121 35.8073 0.0000 0.0000 0.0000
# 2 53.0121 86.4230 39.6753 0.0000 0.0000 0.0000
# 3 35.8073 39.6753 82.2607 0.0000 0.0000 0.0000
# 4 0.0000 0.0000 0.0000 26.4963 0.0000 0.0000
# 5 0.0000 0.0000 0.0000 0.0000 16.1107 0.0000
# 6 0.0000 0.0000 0.0000 0.0000 0.0000 29.9793
#
#
#
# Elastic Compliance Matrix: (Units=1/GPa)
#
#
# Indices 1 2 3 4 5 6 
#
# 1 0.012428 -0.006601 -0.002226 0.000000 0.000000 0.000000
# 2 -0.006601 0.018368 -0.005986 0.000000 0.000000 0.000000
# 3 -0.002226 -0.005986 0.016012 0.000000 0.000000 0.000000
# 4 0.000000 0.000000 0.000000 0.037741 0.000000 0.000000
# 5 0.000000 0.000000 0.000000 0.000000 0.062070 0.000000
# 6 0.000000 0.000000 0.000000 0.000000 0.000000 0.033356
#
#
# Mechanical properties :
#
#
# Convention : Reuss Voigt Hill
#
# Bulk Modulus (GPa) = 58.19846 60.07896 59.13871
# Shear Modulus (GPa) = 23.22025 24.86570 24.04297
#
# Velocity S-wave (km/s) = 3.47941 3.60058 3.54051
# Velocity P-wave (km/s) = 6.81795 6.97200 6.89540
#
# Compressibility (1/GPa) = 0.01718258
#
# Stress axis : x y z
#
# Youngs Moduli (GPa) = 80.46529 54.44178 62.45205
#
# Poissons Ratio (x) = 0.35939 0.13900
# Poissons Ratio (y) = 0.53118 0.37382
# Poissons Ratio (z) = 0.17909 0.32587
#
# Static dielectric constant tensor:
#      x y z
#    x 3.552610 0.000000 0.000000 
#    y 0.000000 3.549100 0.000000 
#    z 0.000000 0.000000 3.486700 
# 
# 
# High freq. dielectric constant tensor:
#      x y z
#    x 1.743910 0.000000 0.000000 
#    y 0.000000 1.740840 0.000000 
#    z 0.000000 0.000000 1.739960 
# 
# From -- ./inp_files/9358.got.cif
#   From: 2010.03.12/outbox.cif.g09.slc.cpg/sg66_5_cif.got.tgz:9358.got - 2010.04.10 21:57:39.
