data_PCOD8275124
_publ_section_title
;
Structure prediction by ZEFSAII (Michael W. Deem and Ramdas Pophale) SiO2 
 PCOD8275124
Probable space group: C M M M
;
_chemical_formula_sum "Si O2"
_cell_formula_units_Z 88
_cell_length_a 8.198954
_cell_length_b 30.765377
_cell_length_c 24.728299
_cell_angle_alpha 90.000000
_cell_angle_beta 90.000000
_cell_angle_gamma 90.000000
_cell_volume 6237.562848
_symmetry_space_group_name_H-M "C M M M"
_symmetry_group_IT_number 65
_symmetry_cell_setting 'orthorhombic'
loop_
_space_group_symop_operation_xyz
x,y,z
-x,-y,z
x,-y,-z
-x,y,-z
-x,-y,-z
x,y,-z
-x,y,z
x,-y,z
1/2+x,1/2+y,z
1/2-x,1/2-y,z
1/2+x,1/2-y,-z
1/2-x,1/2+y,-z
1/2-x,1/2-y,-z
1/2+x,1/2+y,-z
1/2-x,1/2+y,z
1/2+x,1/2-y,z
loop_
_atom_site_type_symbol
_atom_site_label
_atom_site_fract_x
_atom_site_fract_y
_atom_site_fract_z
Si Si1 0.681823 0.294702 0.435868
Si Si2 0.183188 0.948381 0.762696
Si Si3 0.500000 0.448260 0.938469
Si Si4 0.818187 0.448272 0.874628
Si Si5 0.810192 0.385542 0.439958
Si Si6 0.193246 0.451022 0.351477
O O1 0.689288 0.290611 0.500000
O O2 0.500000 0.301294 0.414481
O O3 0.750000 0.250000 0.410030
O O4 0.783516 0.336822 0.417167
O O5 0.291466 0.931854 0.813048
O O6 0.252672 0.930811 0.705973
O O7 0.000000 0.931224 0.771050
O O8 0.187741 0.000000 0.761231
O O9 0.500000 0.500000 0.934280
O O10 0.667583 0.430185 0.911002
O O11 0.500000 0.432015 0.000000
O O12 0.813673 0.500000 0.877093
O O13 0.000000 0.432206 0.893732
O O14 0.730508 0.390819 0.500000
O O15 0.732528 0.420738 0.398972
O O16 0.000000 0.394483 0.444393
O O17 0.261334 0.500000 0.359610
O O18 0.000000 0.451151 0.353395
#
# Coordination Sequence:
#
# PCOD8275124 Si02
#       6
#    16  16   8  16  16  16
#     4   9  16  26  41  58  73  89 111 139 173 218
#     4   9  15  24  37  50  64  83 113 152 188 220
#     4   9  16  24  32  46  68  88 109 139 177 223
#     4   9  15  23  35  48  63  85 112 143 180 220
#     4   9  17  28  40  54  74  97 119 147 185 229
#     4   9  17  27  38  53  71  93 123 155 188 228
#
# _framework density 14.108074
#
# number of rings (size 3 to 8) (size 9 to 14) (size 15 to 20)
#    0.000    3.000    0.909    1.091    0.000    5.818 
#    0.000    3.636    0.000    0.000    0.000    5.091 
#    0.000    0.000    0.000    0.000    0.000    0.000 
#
# Total GULP energy -545160.648148 kJ/mol
# GULP energy per Si atom -12390.014731 kJ/mol
# Density = 1.407596 g / cm^3
# Si number density = 14.108074 Si / 1000 Ang^3
#
#
#
# Elastic Constant Matrix: (Units=GPa)
#
#
# Indices 1 2 3 4 5 6 
#
# 1 72.7438 14.9871 37.1389 0.0000 0.0000 0.0000
# 2 14.9871 41.5465 32.2935 0.0000 0.0000 0.0000
# 3 37.1389 32.2935 91.1465 0.0000 0.0000 0.0000
# 4 0.0000 0.0000 0.0000 1.0000 0.0000 0.0000
# 5 0.0000 0.0000 0.0000 0.0000 18.8966 0.0000
# 6 0.0000 0.0000 0.0000 0.0000 0.0000 10.7309
#
#
#
# Elastic Compliance Matrix: (Units=1/GPa)
#
#
# Indices 1 2 3 4 5 6 
#
# 1 0.017391 -0.001056 -0.006712 0.000000 0.000000 0.000000
# 2 -0.001056 0.033281 -0.011361 0.000000 0.000000 0.000000
# 3 -0.006712 -0.011361 0.017732 0.000000 0.000000 0.000000
# 4 0.000000 0.000000 0.000000 0.999953 0.000000 0.000000
# 5 0.000000 0.000000 0.000000 0.000000 0.052920 0.000000
# 6 0.000000 0.000000 0.000000 0.000000 0.000000 0.093189
#
#
# Mechanical properties :
#
#
# Convention : Reuss Voigt Hill
#
# Bulk Modulus (GPa) = 33.17305 41.58618 37.37961
# Shear Modulus (GPa) = 3.95954 14.19333 9.07644
#
# Velocity S-wave (km/s) = 1.67710 3.17526 2.53919
# Velocity P-wave (km/s) = 5.22636 6.55621 5.92869
#
# Compressibility (1/GPa) = 0.03014495
#
# Stress axis : x y z
#
# Youngs Moduli (GPa) = 57.49993 30.04673 56.39647
#
# Poissons Ratio (x) = 0.03174 0.37854
# Poissons Ratio (y) = 0.06074 0.64074
# Poissons Ratio (z) = 0.38594 0.34137
#
# Static dielectric constant tensor:
#      x y z
#    x 2.904280 0.000000 0.000000 
#    y 0.000000 2.472790 0.000000 
#    z 0.000000 0.000000 2.832990 
# 
# 
# High freq. dielectric constant tensor:
#      x y z
#    x 1.549650 0.000000 0.000000 
#    y 0.000000 1.472460 0.000000 
#    z 0.000000 0.000000 1.518410 
# 
# From -- ./inp_files/68437.got.cif
#   From: 2010.03.12/outbox.cif.g09.slc.cpg/sg65_35_cif.got.tgz:68437.got - 2010.04.10 20:52:16.
