data_PCOD8276462
_publ_section_title
;
Structure prediction by ZEFSAII (Michael W. Deem and Ramdas Pophale) SiO2 
 PCOD8276462
Probable space group: C C C M
;
_chemical_formula_sum "Si O2"
_cell_formula_units_Z 104
_cell_length_a 27.763736
_cell_length_b 9.014424
_cell_length_c 19.642267
_cell_angle_alpha 90.000000
_cell_angle_beta 90.000000
_cell_angle_gamma 90.000000
_cell_volume 4915.950462
_symmetry_space_group_name_H-M "C C C M"
_symmetry_group_IT_number 66
_symmetry_cell_setting 'orthorhombic'
loop_
_space_group_symop_operation_xyz
x,y,z
-x,-y,z
x,-y,1/2-z
-x,y,1/2-z
-x,-y,-z
x,y,-z
-x,y,1/2+z
x,-y,1/2+z
1/2+x,1/2+y,z
1/2-x,1/2-y,z
1/2+x,1/2-y,1/2-z
1/2-x,1/2+y,1/2-z
1/2-x,1/2-y,-z
1/2+x,1/2+y,-z
1/2-x,1/2+y,1/2+z
1/2+x,1/2-y,1/2+z
loop_
_atom_site_type_symbol
_atom_site_label
_atom_site_fract_x
_atom_site_fract_y
_atom_site_fract_z
Si Si1 0.066088 0.850476 0.658487
Si Si2 0.844816 0.904518 0.072376
Si Si3 0.073611 0.183393 0.689788
Si Si4 0.487592 0.828085 0.079089
Si Si5 0.724749 0.966158 0.321823
Si Si6 0.821448 0.823624 0.347925
Si Si7 0.750000 0.750000 0.899031
O O1 0.121254 0.835765 0.631269
O O2 0.057029 0.776419 0.733021
O O3 0.032253 0.771826 0.603498
O O4 0.053215 0.024216 0.665670
O O5 0.794455 0.819208 0.060167
O O6 0.832707 0.078337 0.085435
O O7 0.872438 0.897560 0.000000
O O8 0.131083 0.181457 0.698041
O O9 0.056629 0.299110 0.631633
O O10 0.500000 0.000000 0.084714
O O11 0.474717 0.788391 0.000000
O O12 0.778592 0.904341 0.306738
O O13 0.694638 0.845051 0.365726
O O14 0.699250 0.000000 0.250000
O O15 0.724311 0.122573 0.357189
#
# Coordination Sequence:
#
# PCOD8276462 Si02
#       7
#    16  16  16  16  16  16   8
#     4  10  22  39  65  92 122 157 210 262 319 372
#     4  10  21  38  60  85 124 168 211 261 313 374
#     4  10  22  39  64  95 124 154 206 267 314 369
#     4  11  25  44  63  89 126 167 208 255 317 386
#     4  10  20  34  59  85 125 162 200 252 318 372
#     4   9  21  37  56  90 118 160 206 251 310 377
#     4  10  21  34  54  88 120 166 211 258 311 372
#
# _framework density 21.155622999999999
#
# number of rings (size 3 to 8) (size 9 to 14) (size 15 to 20)
#    0.000    2.000    0.000    2.538    8.615    7.385 
#    0.000    6.923    0.000    0.000    0.000    0.000 
#    0.000    0.000    0.000    0.000    0.000    0.000 
#
# Total GULP energy -644183.372363 kJ/mol
# GULP energy per Si atom -12388.141776 kJ/mol
# Density = 2.110747 g / cm^3
# Si number density = 21.155623 Si / 1000 Ang^3
#
#
#
# Elastic Constant Matrix: (Units=GPa)
#
#
# Indices 1 2 3 4 5 6 
#
# 1 84.2139 23.6609 33.1150 0.0000 0.0000 0.0000
# 2 23.6609 111.5607 50.2059 0.0000 0.0000 0.0000
# 3 33.1150 50.2059 156.2668 0.0000 0.0000 0.0000
# 4 0.0000 0.0000 0.0000 14.5364 0.0000 0.0000
# 5 0.0000 0.0000 0.0000 0.0000 24.7547 0.0000
# 6 0.0000 0.0000 0.0000 0.0000 0.0000 28.0058
#
#
#
# Elastic Compliance Matrix: (Units=1/GPa)
#
#
# Indices 1 2 3 4 5 6 
#
# 1 0.013259 -0.001809 -0.002229 0.000000 0.000000 0.000000
# 2 -0.001809 0.010726 -0.003063 0.000000 0.000000 0.000000
# 3 -0.002229 -0.003063 0.007856 0.000000 0.000000 0.000000
# 4 0.000000 0.000000 0.000000 0.068793 0.000000 0.000000
# 5 0.000000 0.000000 0.000000 0.000000 0.040396 0.000000
# 6 0.000000 0.000000 0.000000 0.000000 0.000000 0.035707
#
#
# Mechanical properties :
#
#
# Convention : Reuss Voigt Hill
#
# Bulk Modulus (GPa) = 56.69022 62.88942 59.78982
# Shear Modulus (GPa) = 25.40433 29.79671 27.60052
#
# Velocity S-wave (km/s) = 3.46906 3.75701 3.61590
# Velocity P-wave (km/s) = 6.54987 6.97221 6.76434
#
# Compressibility (1/GPa) = 0.01763973
#
# Stress axis : x y z
#
# Youngs Moduli (GPa) = 75.41963 93.23388 127.29903
#
# Poissons Ratio (x) = 0.16868 0.28369
# Poissons Ratio (y) = 0.13645 0.38986
# Poissons Ratio (z) = 0.16807 0.28554
#
# Static dielectric constant tensor:
#      x y z
#    x 3.796090 0.000000 0.000000 
#    y 0.000000 3.862820 0.000000 
#    z 0.000000 0.000000 3.727900 
# 
# 
# High freq. dielectric constant tensor:
#      x y z
#    x 1.828420 0.000000 0.000000 
#    y 0.000000 1.823800 0.000000 
#    z 0.000000 0.000000 1.820110 
# 
# From -- ./inp_files/53070.got.cif
#   From: 2010.03.12/outbox.cif.g09.slc.cpg/sg66_27_cif.got.tgz:53070.got - 2010.04.10 21:57:39.
