data_PCOD8276017
_publ_section_title
;
Structure prediction by ZEFSAII (Michael W. Deem and Ramdas Pophale) SiO2 
 PCOD8276017
Probable space group: C C C M
;
_chemical_formula_sum "Si O2"
_cell_formula_units_Z 112
_cell_length_a 14.915110
_cell_length_b 22.744320
_cell_length_c 13.848524
_cell_angle_alpha 90.000000
_cell_angle_beta 90.000000
_cell_angle_gamma 90.000000
_cell_volume 4697.890671
_symmetry_space_group_name_H-M "C C C M"
_symmetry_group_IT_number 66
_symmetry_cell_setting 'orthorhombic'
loop_
_space_group_symop_operation_xyz
x,y,z
-x,-y,z
x,-y,1/2-z
-x,y,1/2-z
-x,-y,-z
x,y,-z
-x,y,1/2+z
x,-y,1/2+z
1/2+x,1/2+y,z
1/2-x,1/2-y,z
1/2+x,1/2-y,1/2-z
1/2-x,1/2+y,1/2-z
1/2-x,1/2-y,-z
1/2+x,1/2+y,-z
1/2-x,1/2+y,1/2+z
1/2+x,1/2-y,1/2+z
loop_
_atom_site_type_symbol
_atom_site_label
_atom_site_fract_x
_atom_site_fract_y
_atom_site_fract_z
Si Si1 0.399669 0.247742 0.728035
Si Si2 0.296576 0.449812 0.614207
Si Si3 0.640051 0.327363 0.612537
Si Si4 0.941927 0.860797 0.387375
Si Si5 0.140030 0.363280 0.614822
Si Si6 0.728606 0.072848 0.614833
Si Si7 0.029759 0.437466 0.113937
O O1 0.500000 0.226269 0.750000
O O2 0.353840 0.265480 0.830395
O O3 0.395270 0.305929 0.663199
O O4 0.345280 0.197177 0.672911
O O5 0.290678 0.454671 0.500000
O O6 0.392376 0.421491 0.645402
O O7 0.216175 0.408070 0.650856
O O8 0.279871 0.515183 0.657363
O O9 0.645703 0.311647 0.500000
O O10 0.547377 0.362043 0.638154
O O11 0.718980 0.369503 0.648628
O O12 0.926560 0.851173 0.500000
O O13 0.146104 0.351563 0.500000
O O14 0.042525 0.388682 0.643585
O O15 0.727786 0.068750 0.500000
O O16 0.627627 0.078887 0.656177
O O17 0.000000 0.500000 0.157455
O O18 0.036763 0.442985 0.000000
#
# Coordination Sequence:
#
# PCOD8276017 Si02
#       7
#    16  16  16  16  16  16  16
#     4  10  21  38  57  80 116 159 206 251 297 354
#     4   9  17  30  54  90 123 151 189 238 303 373
#     4   9  19  36  58  82 115 161 207 252 297 347
#     4   9  18  34  56  84 118 155 194 241 298 358
#     4  10  19  33  58  91 123 156 193 241 306 370
#     4   9  16  30  55  88 124 159 198 243 297 366
#     4   9  15  28  54  89 126 160 191 235 298 365
#
# _framework density 23.840487
#
# number of rings (size 3 to 8) (size 9 to 14) (size 15 to 20)
#    0.000    2.714    1.429    0.429    0.000    1.714 
#    0.000   10.000    0.000    5.571    0.000   19.000 
#    0.000    2.857    0.000    0.000    0.000    0.000 
#
# Total GULP energy -694279.963490 kJ/mol
# GULP energy per Si atom -12397.856491 kJ/mol
# Density = 2.378622 g / cm^3
# Si number density = 23.840487 Si / 1000 Ang^3
#
#
#
# Elastic Constant Matrix: (Units=GPa)
#
#
# Indices 1 2 3 4 5 6 
#
# 1 101.5930 44.5075 29.5075 0.0000 0.0000 0.0000
# 2 44.5075 125.1929 38.2849 0.0000 0.0000 0.0000
# 3 29.5075 38.2849 43.4360 0.0000 0.0000 0.0000
# 4 0.0000 0.0000 0.0000 -30.6171 0.0000 0.0000
# 5 0.0000 0.0000 0.0000 0.0000 17.6683 0.0000
# 6 0.0000 0.0000 0.0000 0.0000 0.0000 29.4119
#
#
#
# Elastic Compliance Matrix: (Units=1/GPa)
#
#
# Indices 1 2 3 4 5 6 
#
# 1 0.012853 -0.002600 -0.006440 0.000000 0.000000 0.000000
# 2 -0.002600 0.011461 -0.008336 0.000000 0.000000 0.000000
# 3 -0.006440 -0.008336 0.034744 0.000000 0.000000 0.000000
# 4 0.000000 0.000000 0.000000 -0.032661 0.000000 0.000000
# 5 0.000000 0.000000 0.000000 0.000000 0.056598 0.000000
# 6 0.000000 0.000000 0.000000 0.000000 0.000000 0.034000
#
#
# Mechanical properties :
#
#
# Convention : Reuss Voigt Hill
#
# Bulk Modulus (GPa) = 41.13972 54.98019 48.05995
# Shear Modulus (GPa) = 31.27984 13.82076 22.55030
#
# Velocity S-wave (km/s) = 3.62615 2.41035 3.07886
# Velocity P-wave (km/s) = 5.90133 5.55501 5.73078
#
# Compressibility (1/GPa) = 0.02430741
#
# Stress axis : x y z
#
# Youngs Moduli (GPa) = 77.80533 87.25168 28.78191
#
# Poissons Ratio (x) = 0.22685 0.18534
# Poissons Ratio (y) = 0.20229 0.23992
# Poissons Ratio (z) = 0.50103 0.72730
#
# Static dielectric constant tensor:
#      x y z
#    x 4.471190 0.000000 0.000000 
#    y 0.000000 4.205830 0.000000 
#    z 0.000000 0.000000 4.210740 
# 
# 
# High freq. dielectric constant tensor:
#      x y z
#    x 1.942610 0.000000 0.000000 
#    y 0.000000 1.930340 0.000000 
#    z 0.000000 0.000000 1.951030 
# 
# From -- ./inp_files/28678.got.cif
#   From: 2010.03.12/outbox.cif.g09.slc.cpg/sg66_15_cif.got.tgz:28678.got - 2010.04.10 21:57:39.
