data_PCOD8276306
_publ_section_title
;
Structure prediction by ZEFSAII (Michael W. Deem and Ramdas Pophale) SiO2 
 PCOD8276306
Probable space group: C C C M
;
_chemical_formula_sum "Si O2"
_cell_formula_units_Z 52
_cell_length_a 5.006274
_cell_length_b 21.437780
_cell_length_c 25.521453
_cell_angle_alpha 90.000000
_cell_angle_beta 90.000000
_cell_angle_gamma 90.000000
_cell_volume 2739.049125
_symmetry_space_group_name_H-M "C C C M"
_symmetry_group_IT_number 66
_symmetry_cell_setting 'orthorhombic'
loop_
_space_group_symop_operation_xyz
x,y,z
-x,-y,z
x,-y,1/2-z
-x,y,1/2-z
-x,-y,-z
x,y,-z
-x,y,1/2+z
x,-y,1/2+z
1/2+x,1/2+y,z
1/2-x,1/2-y,z
1/2+x,1/2-y,1/2-z
1/2-x,1/2+y,1/2-z
1/2-x,1/2-y,-z
1/2+x,1/2+y,-z
1/2-x,1/2+y,1/2+z
1/2+x,1/2-y,1/2+z
loop_
_atom_site_type_symbol
_atom_site_label
_atom_site_fract_x
_atom_site_fract_y
_atom_site_fract_z
Si Si1 0.000000 0.791332 0.250000
Si Si2 0.104504 0.569988 0.110156
Si Si3 0.744217 0.954959 0.500000
Si Si4 0.500000 0.500000 0.250000
Si Si5 0.622450 0.600864 0.826341
O O1 0.250000 0.750000 0.231760
O O2 0.091070 0.832623 0.299105
O O3 0.344287 0.578896 0.149720
O O4 0.000000 0.500000 0.109810
O O5 0.852785 0.610709 0.129945
O O6 0.217505 0.588080 0.052153
O O7 0.500000 0.000000 0.500000
O O8 0.000000 0.000000 0.500000
O O9 0.308151 0.454132 0.215466
#
# Coordination Sequence:
#
# PCOD8276306 Si02
#       5
#     8  16   8   4  16
#     4  11  24  43  56  79 110 149 200 238 276 333
#     4  11  19  34  52  86 117 148 183 220 277 346
#     4  10  20  32  52  78 122 162 176 218 274 347
#     4  10  20  34  48  84 112 140 176 228 276 342
#     4  11  22  34  58  81 112 150 186 228 284 330
#
# _framework density 18.984691000000002
#
# number of rings (size 3 to 8) (size 9 to 14) (size 15 to 20)
#    0.000    1.231    3.077    5.538    0.000    4.923 
#    0.000    0.000    0.000    0.000    0.000   21.538 
#    0.000    0.000    0.000    0.000    0.000    0.000 
#
# Total GULP energy -322233.484298 kJ/mol
# GULP energy per Si atom -12393.595550 kJ/mol
# Density = 1.894148 g / cm^3
# Si number density = 18.984691 Si / 1000 Ang^3
#
#
#
# Elastic Constant Matrix: (Units=GPa)
#
#
# Indices 1 2 3 4 5 6 
#
# 1 134.7814 37.2703 47.0868 0.0000 0.0000 0.0000
# 2 37.2703 83.9230 54.9804 0.0000 0.0000 0.0000
# 3 47.0868 54.9804 111.8494 0.0000 0.0000 0.0000
# 4 0.0000 0.0000 0.0000 7.4957 0.0000 0.0000
# 5 0.0000 0.0000 0.0000 0.0000 29.8785 0.0000
# 6 0.0000 0.0000 0.0000 0.0000 0.0000 18.8953
#
#
#
# Elastic Compliance Matrix: (Units=1/GPa)
#
#
# Indices 1 2 3 4 5 6 
#
# 1 0.008972 -0.002227 -0.002682 0.000000 0.000000 0.000000
# 2 -0.002227 0.018129 -0.007974 0.000000 0.000000 0.000000
# 3 -0.002682 -0.007974 0.013989 0.000000 0.000000 0.000000
# 4 0.000000 0.000000 0.000000 0.133410 0.000000 0.000000
# 5 0.000000 0.000000 0.000000 0.000000 0.033469 0.000000
# 6 0.000000 0.000000 0.000000 0.000000 0.000000 0.052923
#
#
# Mechanical properties :
#
#
# Convention : Reuss Voigt Hill
#
# Bulk Modulus (GPa) = 65.25831 67.69209 66.47520
# Shear Modulus (GPa) = 17.13696 24.00165 20.56931
#
# Velocity S-wave (km/s) = 3.00771 3.55951 3.29518
# Velocity P-wave (km/s) = 6.81987 7.25445 7.04051
#
# Compressibility (1/GPa) = 0.01532372
#
# Stress axis : x y z
#
# Youngs Moduli (GPa) = 111.45229 55.16156 71.48323
#
# Poissons Ratio (x) = 0.12286 0.19175
# Poissons Ratio (y) = 0.24824 0.56997
# Poissons Ratio (z) = 0.29896 0.43983
#
# Static dielectric constant tensor:
#      x y z
#    x 3.542560 0.000000 0.000000 
#    y 0.000000 3.121930 0.000000 
#    z 0.000000 0.000000 6.016360 
# 
# 
# High freq. dielectric constant tensor:
#      x y z
#    x 1.752960 0.000000 0.000000 
#    y 0.000000 1.684930 0.000000 
#    z 0.000000 0.000000 1.750200 
# 
# From -- ./inp_files/45368.got.cif
#   From: 2010.03.12/outbox.cif.g09.slc.cpg/sg66_23_cif.got.tgz:45368.got - 2010.04.10 21:57:39.
