data_PCOD8276817
_publ_section_title
;
Structure prediction by ZEFSAII (Michael W. Deem and Ramdas Pophale) SiO2 
 PCOD8276817
Probable space group: C C C M
;
_chemical_formula_sum "Si O2"
_cell_formula_units_Z 112
_cell_length_a 12.371112
_cell_length_b 24.793125
_cell_length_c 16.289272
_cell_angle_alpha 90.000000
_cell_angle_beta 90.000000
_cell_angle_gamma 90.000000
_cell_volume 4996.221501
_symmetry_space_group_name_H-M "C C C M"
_symmetry_group_IT_number 66
_symmetry_cell_setting 'orthorhombic'
loop_
_space_group_symop_operation_xyz
x,y,z
-x,-y,z
x,-y,1/2-z
-x,y,1/2-z
-x,-y,-z
x,y,-z
-x,y,1/2+z
x,-y,1/2+z
1/2+x,1/2+y,z
1/2-x,1/2-y,z
1/2+x,1/2-y,1/2-z
1/2-x,1/2+y,1/2-z
1/2-x,1/2-y,-z
1/2+x,1/2+y,-z
1/2-x,1/2+y,1/2+z
1/2+x,1/2-y,1/2+z
loop_
_atom_site_type_symbol
_atom_site_label
_atom_site_fract_x
_atom_site_fract_y
_atom_site_fract_z
Si Si1 0.834839 0.073594 0.178939
Si Si2 0.729533 0.539312 0.142839
Si Si3 0.926881 0.607380 0.178430
Si Si4 0.046573 0.102350 0.089459
Si Si5 0.220668 0.678951 0.788140
Si Si6 0.463541 0.799651 0.096226
Si Si7 0.086828 0.792804 0.316154
O O1 0.830443 0.060934 0.275201
O O2 0.781360 0.131553 0.161209
O O3 0.957672 0.075121 0.148153
O O4 0.766780 0.025554 0.135168
O O5 0.852136 0.561713 0.136447
O O6 0.649017 0.562645 0.074580
O O7 0.857693 0.654045 0.220592
O O8 0.000000 0.579762 0.250000
O O9 0.999963 0.638015 0.110429
O O10 0.097649 0.157917 0.121585
O O11 0.993737 0.112360 0.000000
O O12 0.149068 0.712061 0.855022
O O13 0.304252 0.716883 0.737283
O O14 0.555494 0.760433 0.133068
O O15 0.446798 0.788575 0.000000
O O16 0.000000 0.810787 0.250000
#
# Coordination Sequence:
#
# PCOD8276817 Si02
#       7
#    16  16  16  16  16  16  16
#     4  10  20  39  64  93 126 177 225 270 322 391
#     4  10  20  38  65  93 129 175 225 270 324 396
#     4   9  19  40  65  93 128 172 222 275 324 387
#     4  12  23  37  58  96 140 170 213 271 333 397
#     4  10  21  44  68  92 125 177 226 270 321 400
#     4  11  26  44  66 100 136 170 217 282 341 389
#     4  12  22  44  69  92 124 174 222 270 327 399
#
# _framework density 22.41694
#
# number of rings (size 3 to 8) (size 9 to 14) (size 15 to 20)
#    0.000    1.429    4.286    2.571    0.000    5.714 
#    0.000   13.571    0.000    0.857    0.000    0.000 
#    0.000    0.000    0.000    0.000    0.000    0.000 
#
# Total GULP energy -694090.964270 kJ/mol
# GULP energy per Si atom -12394.481505 kJ/mol
# Density = 2.236592 g / cm^3
# Si number density = 22.416940 Si / 1000 Ang^3
#
#
#
# Elastic Constant Matrix: (Units=GPa)
#
#
# Indices 1 2 3 4 5 6 
#
# 1 121.9861 34.2886 40.0821 0.0000 0.0000 0.0000
# 2 34.2886 101.6919 35.9641 0.0000 0.0000 0.0000
# 3 40.0821 35.9641 95.0350 0.0000 0.0000 0.0000
# 4 0.0000 0.0000 0.0000 12.7390 0.0000 0.0000
# 5 0.0000 0.0000 0.0000 0.0000 18.2374 0.0000
# 6 0.0000 0.0000 0.0000 0.0000 0.0000 36.7619
#
#
#
# Elastic Compliance Matrix: (Units=1/GPa)
#
#
# Indices 1 2 3 4 5 6 
#
# 1 0.009908 -0.002151 -0.003365 0.000000 0.000000 0.000000
# 2 -0.002151 0.011820 -0.003566 0.000000 0.000000 0.000000
# 3 -0.003365 -0.003566 0.013291 0.000000 0.000000 0.000000
# 4 0.000000 0.000000 0.000000 0.078499 0.000000 0.000000
# 5 0.000000 0.000000 0.000000 0.000000 0.054832 0.000000
# 6 0.000000 0.000000 0.000000 0.000000 0.000000 0.027202
#
#
# Mechanical properties :
#
#
# Convention : Reuss Voigt Hill
#
# Bulk Modulus (GPa) = 59.32670 59.93141 59.62905
# Shear Modulus (GPa) = 22.79631 27.43955 25.11793
#
# Velocity S-wave (km/s) = 3.19238 3.50244 3.35100
# Velocity P-wave (km/s) = 6.33332 6.56879 6.45213
#
# Compressibility (1/GPa) = 0.01685582
#
# Stress axis : x y z
#
# Youngs Moduli (GPa) = 100.93042 84.60294 75.23866
#
# Poissons Ratio (x) = 0.18196 0.25317
# Poissons Ratio (y) = 0.21707 0.26829
# Poissons Ratio (z) = 0.33961 0.30169
#
# Static dielectric constant tensor:
#      x y z
#    x 4.387060 0.000000 0.000000 
#    y 0.000000 4.126540 0.000000 
#    z 0.000000 0.000000 3.733680 
# 
# 
# High freq. dielectric constant tensor:
#      x y z
#    x 1.886380 0.000000 0.000000 
#    y 0.000000 1.886850 0.000000 
#    z 0.000000 0.000000 1.852080 
# 
# From -- ./inp_files/26994.got.cif
#   From: 2010.03.12/outbox.cif.g09.slc.cpg/sg66_14_cif.got.tgz:26994.got - 2010.04.10 21:57:39.
