data_PCOD8276621
_publ_section_title
;
Structure prediction by ZEFSAII (Michael W. Deem and Ramdas Pophale) SiO2 
 PCOD8276621
Probable space group: C C C M
;
_chemical_formula_sum "Si O2"
_cell_formula_units_Z 64
_cell_length_a 14.330771
_cell_length_b 7.752679
_cell_length_c 27.728634
_cell_angle_alpha 90.000000
_cell_angle_beta 90.000000
_cell_angle_gamma 90.000000
_cell_volume 3080.703017
_symmetry_space_group_name_H-M "C C C M"
_symmetry_group_IT_number 66
_symmetry_cell_setting 'orthorhombic'
loop_
_space_group_symop_operation_xyz
x,y,z
-x,-y,z
x,-y,1/2-z
-x,y,1/2-z
-x,-y,-z
x,y,-z
-x,y,1/2+z
x,-y,1/2+z
1/2+x,1/2+y,z
1/2-x,1/2-y,z
1/2+x,1/2-y,1/2-z
1/2-x,1/2+y,1/2-z
1/2-x,1/2-y,-z
1/2+x,1/2+y,-z
1/2-x,1/2+y,1/2+z
1/2+x,1/2-y,1/2+z
loop_
_atom_site_type_symbol
_atom_site_label
_atom_site_fract_x
_atom_site_fract_y
_atom_site_fract_z
Si Si1 0.984081 0.199066 0.857578
Si Si2 0.823935 0.389447 0.622325
Si Si3 0.668768 0.122273 0.793246
Si Si4 0.586072 0.873114 0.447006
O O1 0.920378 0.277621 0.815127
O O2 0.935441 0.216068 0.910249
O O3 0.079489 0.306781 0.859111
O O4 0.000000 0.000000 0.845730
O O5 0.750000 0.250000 0.606350
O O6 0.783630 0.504008 0.665780
O O7 0.831963 0.511136 0.575545
O O8 0.750000 0.250000 0.774500
O O9 0.634221 0.000000 0.750000
O O10 0.614346 0.800370 0.500000
O O11 0.500000 0.000000 0.452466
#
# Coordination Sequence:
#
# PCOD8276621 Si02
#       4
#    16  16  16  16
#     4  10  21  37  59  86 117 155 192 235 289 343
#     4  10  20  36  58  84 116 153 194 238 286 339
#     4  11  23  40  60  84 111 143 187 237 293 350
#     4   8  16  32  54  82 118 157 196 239 285 336
#
# _framework density 20.774478999999999
#
# number of rings (size 3 to 8) (size 9 to 14) (size 15 to 20)
#    0.000    2.250    0.000    4.500    0.000    3.000 
#    0.000    1.250    0.000   25.500    0.000    0.000 
#    0.000    0.000    0.000    0.000    0.000    0.000 
#
# Total GULP energy -396672.433876 kJ/mol
# GULP energy per Si atom -12396.013559 kJ/mol
# Density = 2.072720 g / cm^3
# Si number density = 20.774479 Si / 1000 Ang^3
#
#
#
# Elastic Constant Matrix: (Units=GPa)
#
#
# Indices 1 2 3 4 5 6 
#
# 1 89.0716 35.8903 39.4686 0.0000 0.0000 0.0000
# 2 35.8903 108.5034 58.7884 0.0000 0.0000 0.0000
# 3 39.4686 58.7884 158.4338 0.0000 0.0000 0.0000
# 4 0.0000 0.0000 0.0000 26.8389 0.0000 0.0000
# 5 0.0000 0.0000 0.0000 0.0000 13.5442 0.0000
# 6 0.0000 0.0000 0.0000 0.0000 0.0000 36.5923
#
#
#
# Elastic Compliance Matrix: (Units=1/GPa)
#
#
# Indices 1 2 3 4 5 6 
#
# 1 0.013508 -0.003310 -0.002137 0.000000 0.000000 0.000000
# 2 -0.003310 0.012347 -0.003757 0.000000 0.000000 0.000000
# 3 -0.002137 -0.003757 0.008238 0.000000 0.000000 0.000000
# 4 0.000000 0.000000 0.000000 0.037259 0.000000 0.000000
# 5 0.000000 0.000000 0.000000 0.000000 0.073832 0.000000
# 6 0.000000 0.000000 0.000000 0.000000 0.000000 0.027328
#
#
# Mechanical properties :
#
#
# Convention : Reuss Voigt Hill
#
# Bulk Modulus (GPa) = 63.75541 69.36703 66.56122
# Shear Modulus (GPa) = 25.49100 30.18586 27.83843
#
# Velocity S-wave (km/s) = 3.50671 3.81599 3.66461
# Velocity P-wave (km/s) = 6.86672 7.27178 7.07215
#
# Compressibility (1/GPa) = 0.01568494
#
# Stress axis : x y z
#
# Youngs Moduli (GPa) = 74.03276 80.99328 121.38842
#
# Poissons Ratio (x) = 0.26811 0.25936
# Poissons Ratio (y) = 0.24507 0.45602
# Poissons Ratio (z) = 0.15818 0.30427
#
# Static dielectric constant tensor:
#      x y z
#    x 3.600140 0.000000 0.000000 
#    y 0.000000 3.822790 0.000000 
#    z 0.000000 0.000000 4.083480 
# 
# 
# High freq. dielectric constant tensor:
#      x y z
#    x 1.800400 0.000000 0.000000 
#    y 0.000000 1.811590 0.000000 
#    z 0.000000 0.000000 1.814000 
# 
# From -- ./inp_files/67889.got.cif
#   From: 2010.03.12/outbox.cif.g09.slc.cpg/sg66_34_cif.got.tgz:67889.got - 2010.04.10 21:57:39.
