data_PCOD8276841
_publ_section_title
;
Structure prediction by ZEFSAII (Michael W. Deem and Ramdas Pophale) SiO2 
 PCOD8276841
Probable space group: C C C M
;
_chemical_formula_sum "Si O2"
_cell_formula_units_Z 88
_cell_length_a 7.771774
_cell_length_b 21.323910
_cell_length_c 23.636456
_cell_angle_alpha 90.000000
_cell_angle_beta 90.000000
_cell_angle_gamma 90.000000
_cell_volume 3917.142436
_symmetry_space_group_name_H-M "C C C M"
_symmetry_group_IT_number 66
_symmetry_cell_setting 'orthorhombic'
loop_
_space_group_symop_operation_xyz
x,y,z
-x,-y,z
x,-y,1/2-z
-x,y,1/2-z
-x,-y,-z
x,y,-z
-x,y,1/2+z
x,-y,1/2+z
1/2+x,1/2+y,z
1/2-x,1/2-y,z
1/2+x,1/2-y,1/2-z
1/2-x,1/2+y,1/2-z
1/2-x,1/2-y,-z
1/2+x,1/2+y,-z
1/2-x,1/2+y,1/2+z
1/2+x,1/2-y,1/2+z
loop_
_atom_site_type_symbol
_atom_site_label
_atom_site_fract_x
_atom_site_fract_y
_atom_site_fract_z
Si Si1 0.686281 0.507559 0.374716
Si Si2 0.750000 0.750000 0.639572
Si Si3 0.310500 0.622874 0.191715
Si Si4 0.753819 0.508760 0.500000
Si Si5 0.401553 0.206841 0.097451
Si Si6 0.054538 0.390276 0.000000
Si Si7 0.714571 0.617729 0.178845
O O1 0.500000 0.500000 0.345548
O O2 0.776173 0.568081 0.346392
O O3 0.656807 0.521640 0.441260
O O4 0.780885 0.442560 0.358140
O O5 0.774670 0.689024 0.678036
O O6 0.572078 0.749619 0.603938
O O7 0.510672 0.630371 0.175142
O O8 0.253832 0.606136 0.255066
O O9 0.776872 0.433292 0.500000
O O10 0.913105 0.555424 0.500000
O O11 0.250000 0.250000 0.071016
O O12 0.455044 0.151978 0.055203
O O13 0.323354 0.176972 0.155479
#
# Coordination Sequence:
#
# PCOD8276841 Si02
#       7
#    16   8  16   8  16   8  16
#     4  10  20  39  66 102 133 176 230 281 341 404
#     4  12  26  41  68 100 136 177 232 278 344 418
#     4  10  22  39  64 101 138 180 224 282 340 410
#     4  11  21  40  66  94 136 174 224 287 341 404
#     4  12  25  47  69  98 137 183 228 284 343 409
#     4  11  25  43  68  95 131 183 230 287 343 410
#     4  10  21  40  68  94 138 181 227 281 342 402
#
# _framework density 22.465357000000001
#
# number of rings (size 3 to 8) (size 9 to 14) (size 15 to 20)
#    0.000    1.273    3.636    2.182    1.273    3.273 
#    0.000    0.909    0.000    2.182    0.000    0.000 
#    0.000    0.000    0.000    0.000    0.000    0.000 
#
# Total GULP energy -545102.307719 kJ/mol
# GULP energy per Si atom -12388.688812 kJ/mol
# Density = 2.241422 g / cm^3
# Si number density = 22.465357 Si / 1000 Ang^3
#
#
#
# Elastic Constant Matrix: (Units=GPa)
#
#
# Indices 1 2 3 4 5 6 
#
# 1 81.4069 20.1538 19.7034 0.0000 0.0000 0.0000
# 2 20.1538 128.2249 39.0354 0.0000 0.0000 0.0000
# 3 19.7034 39.0354 120.7796 0.0000 0.0000 0.0000
# 4 0.0000 0.0000 0.0000 -14.9510 0.0000 0.0000
# 5 0.0000 0.0000 0.0000 0.0000 5.0684 0.0000
# 6 0.0000 0.0000 0.0000 0.0000 0.0000 24.0169
#
#
#
# Elastic Compliance Matrix: (Units=1/GPa)
#
#
# Indices 1 2 3 4 5 6 
#
# 1 0.013064 -0.001558 -0.001628 0.000000 0.000000 0.000000
# 2 -0.001558 0.008836 -0.002602 0.000000 0.000000 0.000000
# 3 -0.001628 -0.002602 0.009386 0.000000 0.000000 0.000000
# 4 0.000000 0.000000 0.000000 -0.066885 0.000000 0.000000
# 5 0.000000 0.000000 0.000000 0.000000 0.197302 0.000000
# 6 0.000000 0.000000 0.000000 0.000000 0.000000 0.041637
#
#
# Mechanical properties :
#
#
# Convention : Reuss Voigt Hill
#
# Bulk Modulus (GPa) = 50.73260 54.24407 52.48834
# Shear Modulus (GPa) = 22.57510 19.59478 21.08494
#
# Velocity S-wave (km/s) = 3.17343 2.95654 3.06691
# Velocity P-wave (km/s) = 6.00493 5.98773 5.99634
#
# Compressibility (1/GPa) = 0.01971119
#
# Stress axis : x y z
#
# Youngs Moduli (GPa) = 76.54868 113.17829 106.54308
#
# Poissons Ratio (x) = 0.17630 0.17342
# Poissons Ratio (y) = 0.11924 0.27717
# Poissons Ratio (z) = 0.12460 0.29443
#
# Static dielectric constant tensor:
#      x y z
#    x 3.902160 0.000000 0.000000 
#    y 0.000000 4.253490 0.000000 
#    z 0.000000 0.000000 3.844430 
# 
# 
# High freq. dielectric constant tensor:
#      x y z
#    x 1.867590 0.000000 0.000000 
#    y 0.000000 1.901380 0.000000 
#    z 0.000000 0.000000 1.878450 
# 
# From -- ./inp_files/55510.got.cif
#   From: 2010.03.12/outbox.cif.g09.slc.cpg/sg66_28_cif.got.tgz:55510.got - 2010.04.10 21:57:39.
