data_PCOD8276215
_publ_section_title
;
Structure prediction by ZEFSAII (Michael W. Deem and Ramdas Pophale) SiO2 
 PCOD8276215
Probable space group: C C C M
;
_chemical_formula_sum "Si O2"
_cell_formula_units_Z 96
_cell_length_a 11.207787
_cell_length_b 16.782755
_cell_length_c 26.218743
_cell_angle_alpha 90.000000
_cell_angle_beta 90.000000
_cell_angle_gamma 90.000000
_cell_volume 4931.681147
_symmetry_space_group_name_H-M "C C C M"
_symmetry_group_IT_number 66
_symmetry_cell_setting 'orthorhombic'
loop_
_space_group_symop_operation_xyz
x,y,z
-x,-y,z
x,-y,1/2-z
-x,y,1/2-z
-x,-y,-z
x,y,-z
-x,y,1/2+z
x,-y,1/2+z
1/2+x,1/2+y,z
1/2-x,1/2-y,z
1/2+x,1/2-y,1/2-z
1/2-x,1/2+y,1/2-z
1/2-x,1/2-y,-z
1/2+x,1/2+y,-z
1/2-x,1/2+y,1/2+z
1/2+x,1/2-y,1/2+z
loop_
_atom_site_type_symbol
_atom_site_label
_atom_site_fract_x
_atom_site_fract_y
_atom_site_fract_z
Si Si1 0.055355 0.735452 0.650880
Si Si2 0.106990 0.838157 0.784516
Si Si3 0.513738 0.868404 0.058356
Si Si4 0.361341 0.515116 0.851067
Si Si5 0.765284 0.856679 0.187433
Si Si6 0.691518 0.992577 0.441921
O O1 0.013072 0.709394 0.594545
O O2 0.145998 0.810728 0.647709
O O3 0.126666 0.660583 0.675446
O O4 0.940908 0.759244 0.685820
O O5 0.211771 0.820465 0.744069
O O6 0.000000 0.875940 0.750000
O O7 0.158265 0.899881 0.825185
O O8 0.400745 0.922808 0.071758
O O9 0.632310 0.920990 0.067241
O O10 0.507999 0.838358 0.000000
O O11 0.500000 0.500000 0.856696
O O12 0.293184 0.450125 0.816278
O O13 0.307244 0.516466 0.907356
O O14 0.733705 0.984522 0.500000
#
# Coordination Sequence:
#
# PCOD8276215 Si02
#       6
#    16  16  16  16  16  16
#     4  10  19  37  58  85 115 153 200 235 290 357
#     4  10  21  37  56  82 116 164 192 235 299 348
#     4   9  18  39  64  84 114 153 198 251 298 349
#     4  12  20  36  62  86 113 157 202 237 290 365
#     4  10  21  36  57  82 121 154 200 242 283 352
#     4   9  20  38  61  87 113 151 196 249 305 347
#
# _framework density 19.465979999999998
#
# number of rings (size 3 to 8) (size 9 to 14) (size 15 to 20)
#    0.000    2.000    5.000    1.500    0.000    0.333 
#   15.000    3.333    0.000    2.000    0.000    0.000 
#    0.000    0.000    0.000    0.000    0.000    0.000 
#
# Total GULP energy -594979.983779 kJ/mol
# GULP energy per Si atom -12395.416329 kJ/mol
# Density = 1.942167 g / cm^3
# Si number density = 19.465980 Si / 1000 Ang^3
#
#
#
# Elastic Constant Matrix: (Units=GPa)
#
#
# Indices 1 2 3 4 5 6 
#
# 1 55.2158 34.6022 43.6494 0.0000 0.0000 0.0000
# 2 34.6022 88.0279 57.9891 0.0000 0.0000 0.0000
# 3 43.6494 57.9891 131.8052 0.0000 0.0000 0.0000
# 4 0.0000 0.0000 0.0000 36.0473 0.0000 0.0000
# 5 0.0000 0.0000 0.0000 0.0000 26.3826 0.0000
# 6 0.0000 0.0000 0.0000 0.0000 0.0000 25.1351
#
#
#
# Elastic Compliance Matrix: (Units=1/GPa)
#
#
# Indices 1 2 3 4 5 6 
#
# 1 0.027050 -0.006663 -0.006027 0.000000 0.000000 0.000000
# 2 -0.006663 0.017637 -0.005553 0.000000 0.000000 0.000000
# 3 -0.006027 -0.005553 0.012026 0.000000 0.000000 0.000000
# 4 0.000000 0.000000 0.000000 0.027741 0.000000 0.000000
# 5 0.000000 0.000000 0.000000 0.000000 0.037904 0.000000
# 6 0.000000 0.000000 0.000000 0.000000 0.000000 0.039785
#
#
# Mechanical properties :
#
#
# Convention : Reuss Voigt Hill
#
# Bulk Modulus (GPa) = 49.43623 60.83671 55.13647
# Shear Modulus (GPa) = 24.34602 26.76688 25.55645
#
# Velocity S-wave (km/s) = 3.54035 3.71220 3.62730
# Velocity P-wave (km/s) = 6.49334 7.04944 6.77710
#
# Compressibility (1/GPa) = 0.02022808
#
# Stress axis : x y z
#
# Youngs Moduli (GPa) = 36.96792 56.69802 83.15297
#
# Poissons Ratio (x) = 0.37777 0.50115
# Poissons Ratio (y) = 0.24631 0.46177
# Poissons Ratio (z) = 0.22280 0.31486
#
# Static dielectric constant tensor:
#      x y z
#    x 3.505760 0.000000 0.000000 
#    y 0.000000 3.514460 0.000000 
#    z 0.000000 0.000000 3.550590 
# 
# 
# High freq. dielectric constant tensor:
#      x y z
#    x 1.742430 0.000000 0.000000 
#    y 0.000000 1.745080 0.000000 
#    z 0.000000 0.000000 1.755750 
# 
# From -- ./inp_files/56918.got.cif
#   From: 2010.03.12/outbox.cif.g09.slc.cpg/sg66_29_cif.got.tgz:56918.got - 2010.04.10 21:57:39.
