data_PCOD8276702
_publ_section_title
;
Structure prediction by ZEFSAII (Michael W. Deem and Ramdas Pophale) SiO2 
 PCOD8276702
Probable space group: C C C M
;
_chemical_formula_sum "Si O2"
_cell_formula_units_Z 64
_cell_length_a 28.667376
_cell_length_b 8.249446
_cell_length_c 13.589275
_cell_angle_alpha 90.000000
_cell_angle_beta 90.000000
_cell_angle_gamma 90.000000
_cell_volume 3213.727241
_symmetry_space_group_name_H-M "C C C M"
_symmetry_group_IT_number 66
_symmetry_cell_setting 'orthorhombic'
loop_
_space_group_symop_operation_xyz
x,y,z
-x,-y,z
x,-y,1/2-z
-x,y,1/2-z
-x,-y,-z
x,y,-z
-x,y,1/2+z
x,-y,1/2+z
1/2+x,1/2+y,z
1/2-x,1/2-y,z
1/2+x,1/2-y,1/2-z
1/2-x,1/2+y,1/2-z
1/2-x,1/2-y,-z
1/2+x,1/2+y,-z
1/2-x,1/2+y,1/2+z
1/2+x,1/2-y,1/2+z
loop_
_atom_site_type_symbol
_atom_site_label
_atom_site_fract_x
_atom_site_fract_y
_atom_site_fract_z
Si Si1 0.195073 0.239510 0.500000
Si Si2 0.069184 0.119279 0.665183
Si Si3 0.905701 0.376878 0.500000
Si Si4 0.365931 0.100396 0.339572
Si Si5 0.128294 0.957469 0.500000
Si Si6 0.996325 0.809109 0.500000
O O1 0.250000 0.250000 0.500000
O O2 0.176364 0.330472 0.403667
O O3 0.177726 0.052153 0.500000
O O4 0.103843 0.254645 0.708872
O O5 0.031015 0.222849 0.602633
O O6 0.048304 0.000000 0.750000
O O7 0.098463 0.002884 0.594910
O O8 0.900097 0.488764 0.404640
O O9 0.865499 0.237119 0.500000
O O10 0.956687 0.294415 0.500000
O O11 0.343690 0.000000 0.250000
O O12 0.000000 0.000000 0.500000
#
# Coordination Sequence:
#
# PCOD8276702 Si02
#       6
#     8  16   8  16   8   8
#     4   9  20  42  65  85 118 152 193 246 303 368
#     4  10  20  37  56  81 115 158 205 241 289 349
#     4  11  20  39  58  83 125 157 198 254 301 347
#     4  10  22  38  60  87 119 156 196 245 307 364
#     4   9  18  36  57  81 110 155 188 234 296 365
#     4  11  22  36  56  82 116 155 211 251 283 343
#
# _framework density 19.914570999999999
#
# number of rings (size 3 to 8) (size 9 to 14) (size 15 to 20)
#    0.000    2.000    2.500    3.750    0.000    2.500 
#    0.000   11.250    0.000    0.000    0.000    0.000 
#    0.000    0.000    0.000    0.000    0.000    0.000 
#
# Total GULP energy -396517.099763 kJ/mol
# GULP energy per Si atom -12391.159368 kJ/mol
# Density = 1.986924 g / cm^3
# Si number density = 19.914571 Si / 1000 Ang^3
#
#
#
# Elastic Constant Matrix: (Units=GPa)
#
#
# Indices 1 2 3 4 5 6 
#
# 1 126.9181 43.3341 38.5697 0.0000 0.0000 0.0000
# 2 43.3341 110.5855 39.7219 0.0000 0.0000 0.0000
# 3 38.5697 39.7219 110.7070 0.0000 0.0000 0.0000
# 4 0.0000 0.0000 0.0000 33.2709 0.0000 0.0000
# 5 0.0000 0.0000 0.0000 0.0000 8.5314 0.0000
# 6 0.0000 0.0000 0.0000 0.0000 0.0000 22.3686
#
#
#
# Elastic Compliance Matrix: (Units=1/GPa)
#
#
# Indices 1 2 3 4 5 6 
#
# 1 0.009574 -0.002931 -0.002284 0.000000 0.000000 0.000000
# 2 -0.002931 0.011278 -0.003025 0.000000 0.000000 0.000000
# 3 -0.002284 -0.003025 0.010914 0.000000 0.000000 0.000000
# 4 0.000000 0.000000 0.000000 0.030056 0.000000 0.000000
# 5 0.000000 0.000000 0.000000 0.000000 0.117214 0.000000
# 6 0.000000 0.000000 0.000000 0.000000 0.000000 0.044706
#
#
# Mechanical properties :
#
#
# Convention : Reuss Voigt Hill
#
# Bulk Modulus (GPa) = 65.42265 65.71799 65.57032
# Shear Modulus (GPa) = 20.38169 27.93984 24.16076
#
# Velocity S-wave (km/s) = 3.20262 3.74971 3.48691
# Velocity P-wave (km/s) = 6.82632 7.19852 7.01489
#
# Compressibility (1/GPa) = 0.01528523
#
# Stress axis : x y z
#
# Youngs Moduli (GPa) = 104.44978 88.66697 91.62542
#
# Poissons Ratio (x) = 0.25991 0.20925
# Poissons Ratio (y) = 0.30618 0.27720
# Poissons Ratio (z) = 0.23854 0.26825
#
# Static dielectric constant tensor:
#      x y z
#    x 3.364960 0.000000 0.000000 
#    y 0.000000 3.972240 0.000000 
#    z 0.000000 0.000000 3.712480 
# 
# 
# High freq. dielectric constant tensor:
#      x y z
#    x 1.733470 0.000000 0.000000 
#    y 0.000000 1.790210 0.000000 
#    z 0.000000 0.000000 1.781710 
# 
# From -- ./inp_files/24419.got.cif
#   From: 2010.03.12/outbox.cif.g09.slc.cpg/sg66_13_cif.got.tgz:24419.got - 2010.04.10 21:57:39.
