data_PCOD8276560
_publ_section_title
;
Structure prediction by ZEFSAII (Michael W. Deem and Ramdas Pophale) SiO2 
 PCOD8276560
Probable space group: C C C M
;
_chemical_formula_sum "Si O2"
_cell_formula_units_Z 80
_cell_length_a 9.290740
_cell_length_b 24.332364
_cell_length_c 17.998035
_cell_angle_alpha 90.000000
_cell_angle_beta 90.000000
_cell_angle_gamma 90.000000
_cell_volume 4068.737796
_symmetry_space_group_name_H-M "C C C M"
_symmetry_group_IT_number 66
_symmetry_cell_setting 'orthorhombic'
loop_
_space_group_symop_operation_xyz
x,y,z
-x,-y,z
x,-y,1/2-z
-x,y,1/2-z
-x,-y,-z
x,y,-z
-x,y,1/2+z
x,-y,1/2+z
1/2+x,1/2+y,z
1/2-x,1/2-y,z
1/2+x,1/2-y,1/2-z
1/2-x,1/2+y,1/2-z
1/2-x,1/2-y,-z
1/2+x,1/2+y,-z
1/2-x,1/2+y,1/2+z
1/2+x,1/2-y,1/2+z
loop_
_atom_site_type_symbol
_atom_site_label
_atom_site_fract_x
_atom_site_fract_y
_atom_site_fract_z
Si Si1 0.665934 0.694330 0.271020
Si Si2 0.815215 0.127958 0.082775
Si Si3 0.193993 0.592737 0.302168
Si Si4 0.587052 0.943518 0.347279
Si Si5 0.417834 0.446167 0.084046
O O1 0.500000 0.702913 0.250000
O O2 0.750000 0.750000 0.256514
O O3 0.698132 0.675419 0.355642
O O4 0.728973 0.649712 0.214613
O O5 0.698281 0.078139 0.090613
O O6 0.975845 0.105139 0.091491
O O7 0.794500 0.152853 0.000000
O O8 0.176810 0.553611 0.229792
O O9 0.283493 0.558455 0.361939
O O10 0.035967 0.603579 0.337251
O O11 0.500000 0.000000 0.365919
O O12 0.500000 0.500000 0.110169
O O13 0.359982 0.452038 0.000000
#
# Coordination Sequence:
#
# PCOD8276560 Si02
#       5
#    16  16  16  16  16
#     4  11  24  41  65  87 113 153 203 263 312 355
#     4  10  22  40  61  90 125 159 199 245 302 367
#     4  10  20  37  56  85 120 155 203 250 295 351
#     4  10  21  35  56  90 126 162 200 242 282 353
#     4  10  20  35  58  88 124 162 196 237 296 366
#
# _framework density 19.662116000000001
#
# number of rings (size 3 to 8) (size 9 to 14) (size 15 to 20)
#    0.000    1.800    2.000    2.400    5.600    3.200 
#    0.000    2.000    0.000    3.000    0.000    0.000 
#    0.000    0.000    0.000    0.000    0.000    0.000 
#
# Total GULP energy -495761.143466 kJ/mol
# GULP energy per Si atom -12394.028587 kJ/mol
# Density = 1.961736 g / cm^3
# Si number density = 19.662116 Si / 1000 Ang^3
#
#
#
# Elastic Constant Matrix: (Units=GPa)
#
#
# Indices 1 2 3 4 5 6 
#
# 1 115.4998 34.3989 53.1680 0.0000 0.0000 0.0000
# 2 34.3989 88.7305 28.3193 0.0000 0.0000 0.0000
# 3 53.1680 28.3193 101.8870 0.0000 0.0000 0.0000
# 4 0.0000 0.0000 0.0000 22.0807 0.0000 0.0000
# 5 0.0000 0.0000 0.0000 0.0000 16.9152 0.0000
# 6 0.0000 0.0000 0.0000 0.0000 0.0000 34.8627
#
#
#
# Elastic Compliance Matrix: (Units=1/GPa)
#
#
# Indices 1 2 3 4 5 6 
#
# 1 0.012049 -0.002924 -0.005475 0.000000 0.000000 0.000000
# 2 -0.002924 0.013077 -0.002109 0.000000 0.000000 0.000000
# 3 -0.005475 -0.002109 0.013258 0.000000 0.000000 0.000000
# 4 0.000000 0.000000 0.000000 0.045288 0.000000 0.000000
# 5 0.000000 0.000000 0.000000 0.000000 0.059118 0.000000
# 6 0.000000 0.000000 0.000000 0.000000 0.000000 0.028684
#
#
# Mechanical properties :
#
#
# Convention : Reuss Voigt Hill
#
# Bulk Modulus (GPa) = 57.57571 59.76551 58.67061
# Shear Modulus (GPa) = 25.21696 27.45379 26.33538
#
# Velocity S-wave (km/s) = 3.58511 3.74074 3.66375
# Velocity P-wave (km/s) = 6.81788 7.00855 6.91387
#
# Compressibility (1/GPa) = 0.01736844
#
# Stress axis : x y z
#
# Youngs Moduli (GPa) = 82.99385 76.47218 75.42637
#
# Poissons Ratio (x) = 0.22359 0.41296
# Poissons Ratio (y) = 0.24266 0.15907
# Poissons Ratio (z) = 0.45439 0.16127
#
# Static dielectric constant tensor:
#      x y z
#    x 3.916790 0.000000 0.000000 
#    y 0.000000 3.338400 0.000000 
#    z 0.000000 0.000000 3.580340 
# 
# 
# High freq. dielectric constant tensor:
#      x y z
#    x 1.785760 0.000000 0.000000 
#    y 0.000000 1.739060 0.000000 
#    z 0.000000 0.000000 1.760690 
# 
# From -- ./inp_files/36917.got.cif
#   From: 2010.03.12/outbox.cif.g09.slc.cpg/sg66_19_cif.got.tgz:36917.got - 2010.04.10 21:57:39.
