data_PCOD8276355
_publ_section_title
;
Structure prediction by ZEFSAII (Michael W. Deem and Ramdas Pophale) SiO2 
 PCOD8276355
Probable space group: C C C M
;
_chemical_formula_sum "Si O2"
_cell_formula_units_Z 96
_cell_length_a 19.512334
_cell_length_b 30.240618
_cell_length_c 8.874746
_cell_angle_alpha 90.000000
_cell_angle_beta 90.000000
_cell_angle_gamma 90.000000
_cell_volume 5236.677343
_symmetry_space_group_name_H-M "C C C M"
_symmetry_group_IT_number 66
_symmetry_cell_setting 'orthorhombic'
loop_
_space_group_symop_operation_xyz
x,y,z
-x,-y,z
x,-y,1/2-z
-x,y,1/2-z
-x,-y,-z
x,y,-z
-x,y,1/2+z
x,-y,1/2+z
1/2+x,1/2+y,z
1/2-x,1/2-y,z
1/2+x,1/2-y,1/2-z
1/2-x,1/2+y,1/2-z
1/2-x,1/2-y,-z
1/2+x,1/2+y,-z
1/2-x,1/2+y,1/2+z
1/2+x,1/2-y,1/2+z
loop_
_atom_site_type_symbol
_atom_site_label
_atom_site_fract_x
_atom_site_fract_y
_atom_site_fract_z
Si Si1 0.929418 0.337824 0.822458
Si Si2 0.929644 0.764147 0.323284
Si Si3 0.064139 0.952468 0.174214
Si Si4 0.284484 0.452052 0.676483
Si Si5 0.296682 0.125077 0.822171
Si Si6 0.794475 0.791616 0.176961
O O1 0.916618 0.286792 0.778772
O O2 0.869746 0.367171 0.753023
O O3 0.000000 0.354583 0.750000
O O4 0.932537 0.344776 0.000000
O O5 0.935400 0.771091 0.500000
O O6 0.867116 0.792975 0.260606
O O7 0.000000 0.781390 0.250000
O O8 0.139093 0.931069 0.200408
O O9 0.000000 0.925486 0.250000
O O10 0.066788 0.000000 0.250000
O O11 0.047678 0.957607 0.000000
O O12 0.278332 0.500000 0.750000
O O13 0.267327 0.455702 0.500000
O O14 0.230906 0.420826 0.758964
O O15 0.245103 0.164159 0.776719
O O16 0.306168 0.122201 0.000000
O O17 0.750000 0.750000 0.233907
O O18 0.808198 0.788122 0.000000
#
# Coordination Sequence:
#
# PCOD8276355 Si02
#       6
#    16  16  16  16  16  16
#     4  10  20  34  54  81 111 143 182 227 271 324
#     4  10  20  33  53  78 109 148 188 228 274 326
#     4   9  16  27  47  73 100 131 169 215 263 313
#     4  10  21  37  56  80 110 144 185 232 280 331
#     4  11  22  36  57  83 111 146 184 227 278 330
#     4  10  20  35  54  78 111 146 182 225 272 325
#
# _framework density 18.332236000000002
#
# number of rings (size 3 to 8) (size 9 to 14) (size 15 to 20)
#    0.000    2.000    1.667    3.000    0.000    5.000 
#    0.000    0.833    0.000    2.500    0.000    3.500 
#    0.000    0.000    0.000    0.000    0.000    0.000 
#
# Total GULP energy -595190.720680 kJ/mol
# GULP energy per Si atom -12399.806681 kJ/mol
# Density = 1.829051 g / cm^3
# Si number density = 18.332236 Si / 1000 Ang^3
#
#
#
# Elastic Constant Matrix: (Units=GPa)
#
#
# Indices 1 2 3 4 5 6 
#
# 1 161.9599 51.3101 65.8415 0.0000 0.0000 0.0000
# 2 51.3101 68.7973 34.9105 0.0000 0.0000 0.0000
# 3 65.8415 34.9105 94.3533 0.0000 0.0000 0.0000
# 4 0.0000 0.0000 0.0000 17.5400 0.0000 0.0000
# 5 0.0000 0.0000 0.0000 0.0000 38.6104 0.0000
# 6 0.0000 0.0000 0.0000 0.0000 0.0000 26.1634
#
#
#
# Elastic Compliance Matrix: (Units=1/GPa)
#
#
# Indices 1 2 3 4 5 6 
#
# 1 0.009707 -0.004681 -0.005042 0.000000 0.000000 0.000000
# 2 -0.004681 0.020153 -0.004190 0.000000 0.000000 0.000000
# 3 -0.005042 -0.004190 0.015667 0.000000 0.000000 0.000000
# 4 0.000000 0.000000 0.000000 0.057012 0.000000 0.000000
# 5 0.000000 0.000000 0.000000 0.000000 0.025900 0.000000
# 6 0.000000 0.000000 0.000000 0.000000 0.000000 0.038221
#
#
# Mechanical properties :
#
#
# Convention : Reuss Voigt Hill
#
# Bulk Modulus (GPa) = 56.49336 69.91498 63.20417
# Shear Modulus (GPa) = 24.95180 27.99934 26.47557
#
# Velocity S-wave (km/s) = 3.69330 3.91234 3.80440
# Velocity P-wave (km/s) = 7.00504 7.65696 7.33824
#
# Compressibility (1/GPa) = 0.01770119
#
# Stress axis : x y z
#
# Youngs Moduli (GPa) = 103.01813 49.62055 63.82903
#
# Poissons Ratio (x) = 0.23229 0.32180
# Poissons Ratio (y) = 0.48226 0.26743
# Poissons Ratio (z) = 0.51938 0.20790
#
# Static dielectric constant tensor:
#      x y z
#    x 3.734610 0.000000 0.000000 
#    y 0.000000 3.014730 0.000000 
#    z 0.000000 0.000000 3.431290 
# 
# 
# High freq. dielectric constant tensor:
#      x y z
#    x 1.724330 0.000000 0.000000 
#    y 0.000000 1.669410 0.000000 
#    z 0.000000 0.000000 1.725640 
# 
# From -- ./inp_files/7992.got.cif
#   From: 2010.03.12/outbox.cif.g09.slc.cpg/sg66_4_cif.got.tgz:7992.got - 2010.04.10 21:57:39.
