data_PCOD8276045
_publ_section_title
;
Structure prediction by ZEFSAII (Michael W. Deem and Ramdas Pophale) SiO2 
 PCOD8276045
Probable space group: C C C M
;
_chemical_formula_sum "Si O2"
_cell_formula_units_Z 96
_cell_length_a 20.024438
_cell_length_b 25.698255
_cell_length_c 9.889778
_cell_angle_alpha 90.000000
_cell_angle_beta 90.000000
_cell_angle_gamma 90.000000
_cell_volume 5089.211657
_symmetry_space_group_name_H-M "C C C M"
_symmetry_group_IT_number 66
_symmetry_cell_setting 'orthorhombic'
loop_
_space_group_symop_operation_xyz
x,y,z
-x,-y,z
x,-y,1/2-z
-x,y,1/2-z
-x,-y,-z
x,y,-z
-x,y,1/2+z
x,-y,1/2+z
1/2+x,1/2+y,z
1/2-x,1/2-y,z
1/2+x,1/2-y,1/2-z
1/2-x,1/2+y,1/2-z
1/2-x,1/2-y,-z
1/2+x,1/2+y,-z
1/2-x,1/2+y,1/2+z
1/2+x,1/2-y,1/2+z
loop_
_atom_site_type_symbol
_atom_site_label
_atom_site_fract_x
_atom_site_fract_y
_atom_site_fract_z
Si Si1 0.058005 0.162648 0.153304
Si Si2 0.103148 0.721884 0.651238
Si Si3 0.944514 0.611793 0.149335
Si Si4 0.185726 0.548417 0.653642
Si Si5 0.781529 0.695854 0.647502
Si Si6 0.702324 0.373120 0.652955
O O1 0.072586 0.222710 0.193044
O O2 0.122221 0.124814 0.171141
O O3 0.000000 0.140993 0.250000
O O4 0.031806 0.160143 0.000000
O O5 0.135564 0.727156 0.500000
O O6 0.050037 0.674743 0.648571
O O7 0.153318 0.703175 0.764656
O O8 0.869828 0.592354 0.189553
O O9 0.000000 0.588430 0.250000
O O10 0.961845 0.590605 0.000000
O O11 0.174930 0.500000 0.750000
O O12 0.177540 0.529165 0.500000
O O13 0.260143 0.571923 0.675586
O O14 0.797299 0.669189 0.500000
O O15 0.750000 0.750000 0.612424
O O16 0.727014 0.665493 0.733199
O O17 0.718813 0.353002 0.500000
#
# Coordination Sequence:
#
# PCOD8276045 Si02
#       6
#    16  16  16  16  16  16
#     4  10  21  34  55  82 112 150 184 221 267 322
#     4  10  19  34  54  76 109 155 191 215 259 320
#     4  10  21  36  55  80 111 149 187 225 266 319
#     4  10  22  40  61  83 106 135 182 234 283 336
#     4  11  21  30  48  82 114 142 181 232 273 307
#     4  10  20  38  60  78 105 148 189 223 272 340
#
# _framework density 18.863432
#
# number of rings (size 3 to 8) (size 9 to 14) (size 15 to 20)
#    0.000    1.833    3.333    1.000    0.000    4.333 
#    0.000    1.667    0.000    0.500    0.000    3.500 
#    0.000    0.000    0.000    0.000    0.000    0.000 
#
# Total GULP energy -594809.061337 kJ/mol
# GULP energy per Si atom -12391.855445 kJ/mol
# Density = 1.882050 g / cm^3
# Si number density = 18.863432 Si / 1000 Ang^3
#
#
#
# Elastic Constant Matrix: (Units=GPa)
#
#
# Indices 1 2 3 4 5 6 
#
# 1 106.7420 24.4742 58.8885 0.0000 0.0000 0.0000
# 2 24.4742 58.6976 18.0982 0.0000 0.0000 0.0000
# 3 58.8885 18.0982 112.4678 0.0000 0.0000 0.0000
# 4 0.0000 0.0000 0.0000 14.6103 0.0000 0.0000
# 5 0.0000 0.0000 0.0000 0.0000 36.0549 0.0000
# 6 0.0000 0.0000 0.0000 0.0000 0.0000 14.5037
#
#
#
# Elastic Compliance Matrix: (Units=1/GPa)
#
#
# Indices 1 2 3 4 5 6 
#
# 1 0.013913 -0.003741 -0.006683 0.000000 0.000000 0.000000
# 2 -0.003741 0.018932 -0.001088 0.000000 0.000000 0.000000
# 3 -0.006683 -0.001088 0.012566 0.000000 0.000000 0.000000
# 4 0.000000 0.000000 0.000000 0.068445 0.000000 0.000000
# 5 0.000000 0.000000 0.000000 0.000000 0.027735 0.000000
# 6 0.000000 0.000000 0.000000 0.000000 0.000000 0.068948
#
#
# Mechanical properties :
#
#
# Convention : Reuss Voigt Hill
#
# Bulk Modulus (GPa) = 44.66781 53.42544 49.04662
# Shear Modulus (GPa) = 20.74486 24.79689 22.77087
#
# Velocity S-wave (km/s) = 3.31983 3.62960 3.47817
# Velocity P-wave (km/s) = 6.19887 6.77857 6.49519
#
# Compressibility (1/GPa) = 0.02238749
#
# Stress axis : x y z
#
# Youngs Moduli (GPa) = 71.87561 52.82194 79.58169
#
# Poissons Ratio (x) = 0.19758 0.53184
# Poissons Ratio (y) = 0.26885 0.08658
# Poissons Ratio (z) = 0.48034 0.05746
#
# Static dielectric constant tensor:
#      x y z
#    x 3.317630 0.000000 0.000000 
#    y 0.000000 3.063060 0.000000 
#    z 0.000000 0.000000 3.757300 
# 
# 
# High freq. dielectric constant tensor:
#      x y z
#    x 1.719810 0.000000 0.000000 
#    y 0.000000 1.693360 0.000000 
#    z 0.000000 0.000000 1.749130 
# 
# From -- ./inp_files/7974.got.cif
#   From: 2010.03.12/outbox.cif.g09.slc.cpg/sg66_4_cif.got.tgz:7974.got - 2010.04.10 21:57:39.
