data_PCOD8276002
_publ_section_title
;
Structure prediction by ZEFSAII (Michael W. Deem and Ramdas Pophale) SiO2 
 PCOD8276002
Probable space group: C C C M
;
_chemical_formula_sum "Si O2"
_cell_formula_units_Z 112
_cell_length_a 27.615316
_cell_length_b 11.769014
_cell_length_c 16.499048
_cell_angle_alpha 90.000000
_cell_angle_beta 90.000000
_cell_angle_gamma 90.000000
_cell_volume 5362.273765
_symmetry_space_group_name_H-M "C C C M"
_symmetry_group_IT_number 66
_symmetry_cell_setting 'orthorhombic'
loop_
_space_group_symop_operation_xyz
x,y,z
-x,-y,z
x,-y,1/2-z
-x,y,1/2-z
-x,-y,-z
x,y,-z
-x,y,1/2+z
x,-y,1/2+z
1/2+x,1/2+y,z
1/2-x,1/2-y,z
1/2+x,1/2-y,1/2-z
1/2-x,1/2+y,1/2-z
1/2-x,1/2-y,-z
1/2+x,1/2+y,-z
1/2-x,1/2+y,1/2+z
1/2+x,1/2-y,1/2+z
loop_
_atom_site_type_symbol
_atom_site_label
_atom_site_fract_x
_atom_site_fract_y
_atom_site_fract_z
Si Si1 0.567789 0.966367 0.594202
Si Si2 0.236555 0.126273 0.403110
Si Si3 0.043175 0.922495 0.403784
Si Si4 0.672800 0.990121 0.904537
Si Si5 0.351575 0.479542 0.903559
Si Si6 0.512740 0.178848 0.657389
Si Si7 0.695981 0.746839 0.903613
O O1 0.563830 0.000558 0.500000
O O2 0.623597 0.943499 0.619551
O O3 0.537294 0.851592 0.610267
O O4 0.548680 0.072488 0.646510
O O5 0.236575 0.126491 0.500000
O O6 0.250000 0.250000 0.368950
O O7 0.279064 0.046347 0.367079
O O8 0.183413 0.082418 0.372645
O O9 0.042571 0.919472 0.500000
O O10 0.092795 0.983559 0.372772
O O11 0.037595 0.793014 0.374964
O O12 0.000000 0.000000 0.368862
O O13 0.668114 0.860115 0.874679
O O14 0.679983 0.992776 0.000000
O O15 0.330831 0.362207 0.867453
O O16 0.350672 0.478509 0.000000
O O17 0.500000 0.196680 0.750000
O O18 0.750000 0.750000 0.868536
O O19 0.697234 0.737611 0.000000
#
# Coordination Sequence:
#
# PCOD8276002 Si02
#       7
#    16  16  16  16  16  16  16
#     4  10  19  33  56  82 112 144 179 228 289 338
#     4   9  16  25  38  63 105 145 171 204 260 328
#     4  10  21  36  55  79 110 146 186 230 280 331
#     4   9  16  25  41  70 103 137 171 210 263 322
#     4   9  16  27  44  68 102 140 171 212 266 318
#     4  11  22  37  55  77 110 141 189 233 278 332
#     4   9  13  20  37  60  93 130 165 200 244 304
#
# _framework density 20.886662000000001
#
# number of rings (size 3 to 8) (size 9 to 14) (size 15 to 20)
#    0.000    2.429    1.429    3.429    0.000    3.714 
#    0.000    4.286    0.000    0.000    0.000    0.000 
#   21.429    0.000    0.000    0.000    0.000    0.000 
#
# Total GULP energy -693942.427528 kJ/mol
# GULP energy per Si atom -12391.829063 kJ/mol
# Density = 2.083912 g / cm^3
# Si number density = 20.886662 Si / 1000 Ang^3
#
#
#
# Elastic Constant Matrix: (Units=GPa)
#
#
# Indices 1 2 3 4 5 6 
#
# 1 194.9278 76.5117 14.2625 0.0000 0.0000 0.0000
# 2 76.5117 129.8564 4.7597 0.0000 0.0000 0.0000
# 3 14.2625 4.7597 15.9410 0.0000 0.0000 0.0000
# 4 0.0000 0.0000 0.0000 10.1744 0.0000 0.0000
# 5 0.0000 0.0000 0.0000 0.0000 1.7793 0.0000
# 6 0.0000 0.0000 0.0000 0.0000 0.0000 39.5798
#
#
#
# Elastic Compliance Matrix: (Units=1/GPa)
#
#
# Indices 1 2 3 4 5 6 
#
# 1 0.007066 -0.003975 -0.005135 0.000000 0.000000 0.000000
# 2 -0.003975 0.010022 0.000564 0.000000 0.000000 0.000000
# 3 -0.005135 0.000564 0.067157 0.000000 0.000000 0.000000
# 4 0.000000 0.000000 0.000000 0.098285 0.000000 0.000000
# 5 0.000000 0.000000 0.000000 0.000000 0.562029 0.000000
# 6 0.000000 0.000000 0.000000 0.000000 0.000000 0.025265
#
#
# Mechanical properties :
#
#
# Convention : Reuss Voigt Hill
#
# Bulk Modulus (GPa) = 14.89129 59.08811 36.98970
# Shear Modulus (GPa) = 6.17816 26.65279 16.41547
#
# Velocity S-wave (km/s) = 1.72173 3.57608 2.80649
# Velocity P-wave (km/s) = 3.33130 6.73814 5.31507
#
# Compressibility (1/GPa) = 0.06715336
#
# Stress axis : x y z
#
# Youngs Moduli (GPa) = 141.51989 99.77734 14.89039
#
# Poissons Ratio (x) = 0.39663 0.07647
# Poissons Ratio (y) = 0.56257 -0.00840
# Poissons Ratio (z) = 0.72674 -0.05629
#
# Static dielectric constant tensor:
#      x y z
#    x 4.225290 0.000000 0.000000 
#    y 0.000000 3.877990 0.000000 
#    z 0.000000 0.000000 3.061210 
# 
# 
# High freq. dielectric constant tensor:
#      x y z
#    x 1.835700 0.000000 0.000000 
#    y 0.000000 1.813740 0.000000 
#    z 0.000000 0.000000 1.748620 
# 
# From -- ./inp_files/33842.got.cif
#   From: 2010.03.12/outbox.cif.g09.slc.cpg/sg66_17_cif.got.tgz:33842.got - 2010.04.10 21:57:39.
