data_PCOD8276093
_publ_section_title
;
Structure prediction by ZEFSAII (Michael W. Deem and Ramdas Pophale) SiO2 
 PCOD8276093
Probable space group: C C C M
;
_chemical_formula_sum "Si O2"
_cell_formula_units_Z 64
_cell_length_a 21.164016
_cell_length_b 8.625895
_cell_length_c 16.311762
_cell_angle_alpha 90.000000
_cell_angle_beta 90.000000
_cell_angle_gamma 90.000000
_cell_volume 2977.852105
_symmetry_space_group_name_H-M "C C C M"
_symmetry_group_IT_number 66
_symmetry_cell_setting 'orthorhombic'
loop_
_space_group_symop_operation_xyz
x,y,z
-x,-y,z
x,-y,1/2-z
-x,y,1/2-z
-x,-y,-z
x,y,-z
-x,y,1/2+z
x,-y,1/2+z
1/2+x,1/2+y,z
1/2-x,1/2-y,z
1/2+x,1/2-y,1/2-z
1/2-x,1/2+y,1/2-z
1/2-x,1/2-y,-z
1/2+x,1/2+y,-z
1/2-x,1/2+y,1/2+z
1/2+x,1/2-y,1/2+z
loop_
_atom_site_type_symbol
_atom_site_label
_atom_site_fract_x
_atom_site_fract_y
_atom_site_fract_z
Si Si1 0.062671 0.430041 0.340781
Si Si2 0.311031 0.061849 0.841903
Si Si3 0.180993 0.893232 0.407061
Si Si4 0.565131 0.564576 0.659690
O O1 0.065349 0.500000 0.250000
O O2 0.127850 0.481638 0.385018
O O3 0.058829 0.247318 0.338180
O O4 0.000000 0.500000 0.385473
O O5 0.247199 0.017959 0.890597
O O6 0.323114 0.247708 0.844741
O O7 0.302833 0.000000 0.750000
O O8 0.180147 0.831057 0.500000
O O9 0.123849 0.012561 0.395411
O O10 0.500000 0.500000 0.621421
O O11 0.575783 0.500000 0.750000
#
# Coordination Sequence:
#
# PCOD8276093 Si02
#       4
#    16  16  16  16
#     4  10  19  34  58  90 121 150 197 261 313 354
#     4  10  20  37  63  90 118 159 208 252 302 368
#     4  11  24  42  62  90 130 167 202 255 321 375
#     4  11  21  37  64  93 122 163 216 263 304 367
#
# _framework density 21.492000999999998
#
# number of rings (size 3 to 8) (size 9 to 14) (size 15 to 20)
#    0.000    1.500    0.000    9.750    0.000    5.500 
#    0.000    3.750    0.000    5.250    0.000    0.000 
#    0.000    0.000    0.000    0.000    0.000    0.000 
#
# Total GULP energy -396684.578408 kJ/mol
# GULP energy per Si atom -12396.393075 kJ/mol
# Density = 2.144308 g / cm^3
# Si number density = 21.492001 Si / 1000 Ang^3
#
#
#
# Elastic Constant Matrix: (Units=GPa)
#
#
# Indices 1 2 3 4 5 6 
#
# 1 232.8483 89.4494 33.8454 0.0000 0.0000 0.0000
# 2 89.4494 176.6554 40.3327 0.0000 0.0000 0.0000
# 3 33.8454 40.3327 71.2079 0.0000 0.0000 0.0000
# 4 0.0000 0.0000 0.0000 16.0311 0.0000 0.0000
# 5 0.0000 0.0000 0.0000 0.0000 1.3729 0.0000
# 6 0.0000 0.0000 0.0000 0.0000 0.0000 43.9825
#
#
#
# Elastic Compliance Matrix: (Units=1/GPa)
#
#
# Indices 1 2 3 4 5 6 
#
# 1 0.005416 -0.002475 -0.001172 0.000000 0.000000 0.000000
# 2 -0.002475 0.007632 -0.003147 0.000000 0.000000 0.000000
# 3 -0.001172 -0.003147 0.016383 0.000000 0.000000 0.000000
# 4 0.000000 0.000000 0.000000 0.062379 0.000000 0.000000
# 5 0.000000 0.000000 0.000000 0.000000 0.728362 0.000000
# 6 0.000000 0.000000 0.000000 0.000000 0.000000 0.022736
#
#
# Mechanical properties :
#
#
# Convention : Reuss Voigt Hill
#
# Bulk Modulus (GPa) = 63.11820 89.77408 76.44614
# Shear Modulus (GPa) = 5.80197 33.41625 19.60911
#
# Velocity S-wave (km/s) = 1.64483 3.94740 3.02386
# Velocity P-wave (km/s) = 5.74798 7.91439 6.91653
#
# Compressibility (1/GPa) = 0.01584329
#
# Stress axis : x y z
#
# Youngs Moduli (GPa) = 184.64951 131.02453 61.03871
#
# Poissons Ratio (x) = 0.32422 0.07157
# Poissons Ratio (y) = 0.45692 0.19207
# Poissons Ratio (z) = 0.21650 0.41230
#
# Static dielectric constant tensor:
#      x y z
#    x 5.158830 0.000000 0.000000 
#    y 0.000000 3.759210 0.000000 
#    z 0.000000 0.000000 3.484470 
# 
# 
# High freq. dielectric constant tensor:
#      x y z
#    x 1.883980 0.000000 0.000000 
#    y 0.000000 1.841380 0.000000 
#    z 0.000000 0.000000 1.794750 
# 
# From -- ./inp_files/31884.got.cif
#   From: 2010.03.12/outbox.cif.g09.slc.cpg/sg66_16_cif.got.tgz:31884.got - 2010.04.10 21:57:39.
