data_PCOD8276076
_publ_section_title
;
Structure prediction by ZEFSAII (Michael W. Deem and Ramdas Pophale) SiO2 
 PCOD8276076
Probable space group: C C C M
;
_chemical_formula_sum "Si O2"
_cell_formula_units_Z 64
_cell_length_a 34.813807
_cell_length_b 4.966519
_cell_length_c 16.378887
_cell_angle_alpha 90.000000
_cell_angle_beta 90.000000
_cell_angle_gamma 90.000000
_cell_volume 2831.965806
_symmetry_space_group_name_H-M "C C C M"
_symmetry_group_IT_number 66
_symmetry_cell_setting 'orthorhombic'
loop_
_space_group_symop_operation_xyz
x,y,z
-x,-y,z
x,-y,1/2-z
-x,y,1/2-z
-x,-y,-z
x,y,-z
-x,y,1/2+z
x,-y,1/2+z
1/2+x,1/2+y,z
1/2-x,1/2-y,z
1/2+x,1/2-y,1/2-z
1/2-x,1/2+y,1/2-z
1/2-x,1/2-y,-z
1/2+x,1/2+y,-z
1/2-x,1/2+y,1/2+z
1/2+x,1/2-y,1/2+z
loop_
_atom_site_type_symbol
_atom_site_label
_atom_site_fract_x
_atom_site_fract_y
_atom_site_fract_z
Si Si1 0.172212 0.931343 0.907263
Si Si2 0.712742 0.907545 0.158697
Si Si3 0.090503 0.993187 0.346004
Si Si4 0.042423 0.515523 0.153564
O O1 0.198930 0.671061 0.890100
O O2 0.180126 0.180712 0.845937
O O3 0.127128 0.889496 0.894598
O O4 0.180596 0.018360 0.000000
O O5 0.750000 0.750000 0.121547
O O6 0.721678 0.000000 0.250000
O O7 0.074019 0.705162 0.375566
O O8 0.100173 0.000000 0.250000
O O9 0.056823 0.192888 0.371341
O O10 0.038342 0.500000 0.250000
O O11 0.000000 0.500000 0.113347
#
# Coordination Sequence:
#
# PCOD8276076 Si02
#       4
#    16  16  16  16
#     4  12  26  42  64  95 132 169 207 257 315 378
#     4  12  25  45  70  95 124 162 210 260 314 378
#     4  10  19  34  57  84 118 160 206 254 305 367
#     4   9  17  30  53  85 116 151 203 263 311 354
#
# _framework density 22.599142000000001
#
# number of rings (size 3 to 8) (size 9 to 14) (size 15 to 20)
#    0.000    1.250    0.000    7.500    0.000    8.000 
#    0.000    0.000    0.000    4.500    0.000    0.000 
#    0.000    0.000    0.000    0.000    0.000    0.000 
#
# Total GULP energy -396563.275149 kJ/mol
# GULP energy per Si atom -12392.602348 kJ/mol
# Density = 2.254771 g / cm^3
# Si number density = 22.599142 Si / 1000 Ang^3
#
#
#
# Elastic Constant Matrix: (Units=GPa)
#
#
# Indices 1 2 3 4 5 6 
#
# 1 108.7406 35.1438 40.8992 0.0000 0.0000 0.0000
# 2 35.1438 143.2288 31.6758 0.0000 0.0000 0.0000
# 3 40.8992 31.6758 47.4283 0.0000 0.0000 0.0000
# 4 0.0000 0.0000 0.0000 18.3755 0.0000 0.0000
# 5 0.0000 0.0000 0.0000 0.0000 -23.7191 0.0000
# 6 0.0000 0.0000 0.0000 0.0000 0.0000 -27.2634
#
#
#
# Elastic Compliance Matrix: (Units=1/GPa)
#
#
# Indices 1 2 3 4 5 6 
#
# 1 0.013704 -0.000879 -0.011231 0.000000 0.000000 0.000000
# 2 -0.000879 0.008248 -0.004751 0.000000 0.000000 0.000000
# 3 -0.011231 -0.004751 0.033942 0.000000 0.000000 0.000000
# 4 0.000000 0.000000 0.000000 0.054420 0.000000 0.000000
# 5 0.000000 0.000000 0.000000 0.000000 -0.042160 0.000000
# 6 0.000000 0.000000 0.000000 0.000000 0.000000 -0.036679
#
#
# Mechanical properties :
#
#
# Convention : Reuss Voigt Hill
#
# Bulk Modulus (GPa) = 45.09849 57.20390 51.15120
# Shear Modulus (GPa) = 68.88216 6.25719 37.56968
#
# Velocity S-wave (km/s) = 5.52686 1.66577 4.08172
# Velocity P-wave (km/s) = 7.79278 5.39139 6.70054
#
# Compressibility (1/GPa) = 0.02217369
#
# Stress axis : x y z
#
# Youngs Moduli (GPa) = 72.96958 121.23942 29.46190
#
# Poissons Ratio (x) = 0.10655 0.33088
# Poissons Ratio (y) = 0.06413 0.13997
# Poissons Ratio (z) = 0.81951 0.57598
#
# Static dielectric constant tensor:
#      x y z
#    x 4.255960 0.000000 0.000000 
#    y 0.000000 4.295190 0.000000 
#    z 0.000000 0.000000 3.912410 
# 
# 
# High freq. dielectric constant tensor:
#      x y z
#    x 1.908460 0.000000 0.000000 
#    y 0.000000 1.908340 0.000000 
#    z 0.000000 0.000000 1.845370 
# 
# From -- ./inp_files/44483.got.cif
#   From: 2010.03.12/outbox.cif.g09.slc.cpg/sg66_23_cif.got.tgz:44483.got - 2010.04.10 21:57:39.
