data_PCOD8276701
_publ_section_title
;
Structure prediction by ZEFSAII (Michael W. Deem and Ramdas Pophale) SiO2 
 PCOD8276701
Probable space group: C C C M
;
_chemical_formula_sum "Si O2"
_cell_formula_units_Z 112
_cell_length_a 12.579886
_cell_length_b 30.676859
_cell_length_c 15.547821
_cell_angle_alpha 90.000000
_cell_angle_beta 90.000000
_cell_angle_gamma 90.000000
_cell_volume 6000.081199
_symmetry_space_group_name_H-M "C C C M"
_symmetry_group_IT_number 66
_symmetry_cell_setting 'orthorhombic'
loop_
_space_group_symop_operation_xyz
x,y,z
-x,-y,z
x,-y,1/2-z
-x,y,1/2-z
-x,-y,-z
x,y,-z
-x,y,1/2+z
x,-y,1/2+z
1/2+x,1/2+y,z
1/2-x,1/2-y,z
1/2+x,1/2-y,1/2-z
1/2-x,1/2+y,1/2-z
1/2-x,1/2-y,-z
1/2+x,1/2+y,-z
1/2-x,1/2+y,1/2+z
1/2+x,1/2-y,1/2+z
loop_
_atom_site_type_symbol
_atom_site_label
_atom_site_fract_x
_atom_site_fract_y
_atom_site_fract_z
Si Si1 0.254266 0.411468 0.903417
Si Si2 0.063544 0.854495 0.835059
Si Si3 0.772742 0.918251 0.598150
Si Si4 0.625776 0.119546 0.247093
Si Si5 0.364608 0.680358 0.407362
Si Si6 0.878691 0.004180 0.648340
Si Si7 0.758710 0.798054 0.744061
O O1 0.162996 0.406999 0.831722
O O2 0.322892 0.368276 0.897581
O O3 0.335843 0.449352 0.881019
O O4 0.206008 0.417380 0.000000
O O5 0.112744 0.896272 0.881959
O O6 0.161889 0.824184 0.814654
O O7 0.000000 0.870093 0.750000
O O8 0.990864 0.824397 0.895303
O O9 0.736930 0.908048 0.500000
O O10 0.678858 0.902435 0.662452
O O11 0.797351 0.969305 0.607535
O O12 0.500000 0.114674 0.250000
O O13 0.653171 0.171653 0.250758
O O14 0.340511 0.701146 0.500000
O O15 0.309506 0.711142 0.337807
O O16 0.874892 0.000000 0.750000
O O17 0.000000 0.000000 0.614535
O O18 0.750000 0.750000 0.702382
#
# Coordination Sequence:
#
# PCOD8276701 Si02
#       7
#    16  16  16  16  16  16  16
#     4  10  20  37  56  80 111 145 185 227 273 325
#     4   9  18  31  53  76 107 141 175 206 265 331
#     4  11  22  36  55  82 113 147 187 229 272 325
#     4  10  22  40  59  78 106 148 193 234 275 319
#     4   9  17  30  52  78 105 135 166 207 264 328
#     4  11  22  33  56  85 119 148 177 223 280 337
#     4   9  19  34  54  79 105 135 172 220 271 325
#
# _framework density 18.666412999999999
#
# number of rings (size 3 to 8) (size 9 to 14) (size 15 to 20)
#    0.000    2.143    1.429    2.571    2.000    4.857 
#    0.000    1.429    0.000   15.857    0.000    0.000 
#    0.000    0.000    0.000    0.000    0.000    0.000 
#
# Total GULP energy -694049.761195 kJ/mol
# GULP energy per Si atom -12393.745736 kJ/mol
# Density = 1.862393 g / cm^3
# Si number density = 18.666413 Si / 1000 Ang^3
#
#
#
# Elastic Constant Matrix: (Units=GPa)
#
#
# Indices 1 2 3 4 5 6 
#
# 1 113.2318 21.2740 36.7836 0.0000 0.0000 0.0000
# 2 21.2740 48.2634 12.1784 0.0000 0.0000 0.0000
# 3 36.7836 12.1784 103.8824 0.0000 0.0000 0.0000
# 4 0.0000 0.0000 0.0000 -4.3756 0.0000 0.0000
# 5 0.0000 0.0000 0.0000 0.0000 31.7259 0.0000
# 6 0.0000 0.0000 0.0000 0.0000 0.0000 11.0417
#
#
#
# Elastic Compliance Matrix: (Units=1/GPa)
#
#
# Indices 1 2 3 4 5 6 
#
# 1 0.010631 -0.003850 -0.003313 0.000000 0.000000 0.000000
# 2 -0.003850 0.022746 -0.001303 0.000000 0.000000 0.000000
# 3 -0.003313 -0.001303 0.010952 0.000000 0.000000 0.000000
# 4 0.000000 0.000000 0.000000 -0.228540 0.000000 0.000000
# 5 0.000000 0.000000 0.000000 0.000000 0.031520 0.000000
# 6 0.000000 0.000000 0.000000 0.000000 0.000000 0.090566
#
#
# Mechanical properties :
#
#
# Convention : Reuss Voigt Hill
#
# Bulk Modulus (GPa) = 36.50152 45.09440 40.79796
# Shear Modulus (GPa) = -138.65398 20.68784 -58.98307
#
# Velocity S-wave (km/s) = -8.62793 3.33271 -5.62735
# Velocity P-wave (km/s) = 8.92512 6.24658 4.50766
#
# Compressibility (1/GPa) = 0.02739612
#
# Stress axis : x y z
#
# Youngs Moduli (GPa) = 94.06442 43.96464 91.30637
#
# Poissons Ratio (x) = 0.16927 0.30250
# Poissons Ratio (y) = 0.36215 0.11900
# Poissons Ratio (z) = 0.31163 0.05730
#
# Static dielectric constant tensor:
#      x y z
#    x 3.361570 0.000000 0.000000 
#    y 0.000000 3.424290 0.000000 
#    z 0.000000 0.000000 3.979220 
# 
# 
# High freq. dielectric constant tensor:
#      x y z
#    x 1.704770 0.000000 0.000000 
#    y 0.000000 1.717130 0.000000 
#    z 0.000000 0.000000 1.731520 
# 
# From -- ./inp_files/27014.got.cif
#   From: 2010.03.12/outbox.cif.g09.slc.cpg/sg66_14_cif.got.tgz:27014.got - 2010.04.10 21:57:39.
