data_PCOD8276504
_publ_section_title
;
Structure prediction by ZEFSAII (Michael W. Deem and Ramdas Pophale) SiO2 
 PCOD8276504
Probable space group: C C C M
;
_chemical_formula_sum "Si O2"
_cell_formula_units_Z 116
_cell_length_a 29.363471
_cell_length_b 22.944527
_cell_length_c 8.955615
_cell_angle_alpha 90.000000
_cell_angle_beta 90.000000
_cell_angle_gamma 90.000000
_cell_volume 6033.675030
_symmetry_space_group_name_H-M "C C C M"
_symmetry_group_IT_number 66
_symmetry_cell_setting 'orthorhombic'
loop_
_space_group_symop_operation_xyz
x,y,z
-x,-y,z
x,-y,1/2-z
-x,y,1/2-z
-x,-y,-z
x,y,-z
-x,y,1/2+z
x,-y,1/2+z
1/2+x,1/2+y,z
1/2-x,1/2-y,z
1/2+x,1/2-y,1/2-z
1/2-x,1/2+y,1/2-z
1/2-x,1/2-y,-z
1/2+x,1/2+y,-z
1/2-x,1/2+y,1/2+z
1/2+x,1/2-y,1/2+z
loop_
_atom_site_type_symbol
_atom_site_label
_atom_site_fract_x
_atom_site_fract_y
_atom_site_fract_z
Si Si1 0.500000 0.500000 0.750000
Si Si2 0.910524 0.557789 0.826181
Si Si3 0.652380 0.351611 0.325173
Si Si4 0.587970 0.446188 0.335449
Si Si5 0.045339 0.677258 0.330426
Si Si6 0.232708 0.060828 0.177850
Si Si7 0.358116 0.222852 0.178644
Si Si8 0.822737 0.611201 0.321374
O O1 0.467145 0.544545 0.658888
O O2 0.931146 0.500000 0.750000
O O3 0.948197 0.608027 0.808669
O O4 0.865369 0.574482 0.736483
O O5 0.898445 0.547891 0.000000
O O6 0.649038 0.341070 0.500000
O O7 0.606032 0.384978 0.267538
O O8 0.695688 0.389980 0.280682
O O9 0.655097 0.286689 0.257422
O O10 0.611173 0.500000 0.250000
O O11 0.608561 0.449436 0.500000
O O12 0.038060 0.694498 0.500000
O O13 0.089972 0.710590 0.270132
O O14 0.000000 0.699230 0.250000
O O15 0.278960 0.079848 0.255579
O O16 0.216724 0.000000 0.250000
O O17 0.238922 0.054564 0.000000
O O18 0.324742 0.177202 0.259132
O O19 0.352793 0.214949 0.000000
O O20 0.821401 0.611264 0.500000
#
# Coordination Sequence:
#
# PCOD8276504 Si02
#       8
#     4  16  16  16  16  16  16  16
#     4   8  18  28  54  76 114 140 186 228 276 320
#     4  10  20  35  55  81 109 143 182 223 270 322
#     4   9  19  36  58  79 107 146 186 224 268 326
#     4   9  17  31  51  77 106 140 179 223 272 321
#     4   9  19  34  53  76 106 141 178 222 269 319
#     4  11  22  37  58  84 112 145 181 220 270 325
#     4   9  19  39  60  78 104 144 188 226 266 321
#     4  11  22  37  57  81 111 143 179 226 271 321
#
# _framework density 19.225431
#
# number of rings (size 3 to 8) (size 9 to 14) (size 15 to 20)
#    0.414    1.931    0.000    3.931    0.000    3.586 
#    1.241    6.897    0.000    0.000    0.000    0.000 
#    0.000    0.000    0.000    0.000    0.000    0.000 
#
# Total GULP energy -718687.447753 kJ/mol
# GULP energy per Si atom -12391.162892 kJ/mol
# Density = 1.918167 g / cm^3
# Si number density = 19.225431 Si / 1000 Ang^3
#
#
#
# Elastic Constant Matrix: (Units=GPa)
#
#
# Indices 1 2 3 4 5 6 
#
# 1 62.6426 13.0049 21.5990 0.0000 0.0000 0.0000
# 2 13.0049 112.4271 32.6870 0.0000 0.0000 0.0000
# 3 21.5990 32.6870 85.7582 0.0000 0.0000 0.0000
# 4 0.0000 0.0000 0.0000 25.7546 0.0000 0.0000
# 5 0.0000 0.0000 0.0000 0.0000 19.6103 0.0000
# 6 0.0000 0.0000 0.0000 0.0000 0.0000 26.7052
#
#
#
# Elastic Compliance Matrix: (Units=1/GPa)
#
#
# Indices 1 2 3 4 5 6 
#
# 1 0.017552 -0.000838 -0.004101 0.000000 0.000000 0.000000
# 2 -0.000838 0.010043 -0.003617 0.000000 0.000000 0.000000
# 3 -0.004101 -0.003617 0.014072 0.000000 0.000000 0.000000
# 4 0.000000 0.000000 0.000000 0.038828 0.000000 0.000000
# 5 0.000000 0.000000 0.000000 0.000000 0.050994 0.000000
# 6 0.000000 0.000000 0.000000 0.000000 0.000000 0.037446
#
#
# Mechanical properties :
#
#
# Convention : Reuss Voigt Hill
#
# Bulk Modulus (GPa) = 40.72496 43.93439 42.32967
# Shear Modulus (GPa) = 25.74249 27.31649 26.52949
#
# Velocity S-wave (km/s) = 3.66318 3.77351 3.71875
# Velocity P-wave (km/s) = 6.25465 6.47207 6.36429
#
# Compressibility (1/GPa) = 0.02455497
#
# Stress axis : x y z
#
# Youngs Moduli (GPa) = 56.97490 99.57019 71.06204
#
# Poissons Ratio (x) = 0.08343 0.29144
# Poissons Ratio (y) = 0.04774 0.25703
# Poissons Ratio (z) = 0.23366 0.36014
#
# Static dielectric constant tensor:
#      x y z
#    x 3.403140 0.000000 0.000000 
#    y 0.000000 3.758700 0.000000 
#    z 0.000000 0.000000 3.356240 
# 
# 
# High freq. dielectric constant tensor:
#      x y z
#    x 1.742870 0.000000 0.000000 
#    y 0.000000 1.751750 0.000000 
#    z 0.000000 0.000000 1.732420 
# 
# From -- ./inp_files/11740.got.cif
#   From: 2010.03.12/outbox.cif.g09.slc.cpg/sg66_6_cif.got.tgz:11740.got - 2010.04.10 21:57:39.
