data_PCOD8276831
_publ_section_title
;
Structure prediction by ZEFSAII (Michael W. Deem and Ramdas Pophale) SiO2 
 PCOD8276831
Probable space group: C C C M
;
_chemical_formula_sum "Si O2"
_cell_formula_units_Z 96
_cell_length_a 8.751671
_cell_length_b 21.279899
_cell_length_c 24.577968
_cell_angle_alpha 90.000000
_cell_angle_beta 90.000000
_cell_angle_gamma 90.000000
_cell_volume 4577.269882
_symmetry_space_group_name_H-M "C C C M"
_symmetry_group_IT_number 66
_symmetry_cell_setting 'orthorhombic'
loop_
_space_group_symop_operation_xyz
x,y,z
-x,-y,z
x,-y,1/2-z
-x,y,1/2-z
-x,-y,-z
x,y,-z
-x,y,1/2+z
x,-y,1/2+z
1/2+x,1/2+y,z
1/2-x,1/2-y,z
1/2+x,1/2-y,1/2-z
1/2-x,1/2+y,1/2-z
1/2-x,1/2-y,-z
1/2+x,1/2+y,-z
1/2-x,1/2+y,1/2+z
1/2+x,1/2-y,1/2+z
loop_
_atom_site_type_symbol
_atom_site_label
_atom_site_fract_x
_atom_site_fract_y
_atom_site_fract_z
Si Si1 0.072278 0.319688 0.140933
Si Si2 0.893756 0.211277 0.094437
Si Si3 0.165630 0.601388 0.267189
Si Si4 0.663348 0.473345 0.641428
Si Si5 0.713933 0.102600 0.146990
Si Si6 0.324388 0.358123 0.939053
O O1 0.148782 0.331554 0.200267
O O2 0.195681 0.318464 0.092686
O O3 0.974101 0.255751 0.139919
O O4 0.959166 0.378893 0.131721
O O5 0.750000 0.250000 0.067156
O O6 0.836610 0.148340 0.121348
O O7 0.025081 0.186181 0.054037
O O8 0.256940 0.553937 0.305166
O O9 0.255148 0.609789 0.210970
O O10 0.000000 0.573715 0.250000
O O11 0.500000 0.500000 0.658914
O O12 0.764813 0.532859 0.622776
O O13 0.646909 0.423327 0.592749
O O14 0.267845 0.373771 0.000000
#
# Coordination Sequence:
#
# PCOD8276831 Si02
#       6
#    16  16  16  16  16  16
#     4   9  21  40  62  90 124 161 208 255 302 365
#     4  10  21  41  63  88 124 161 203 259 313 369
#     4   9  20  37  61  91 125 169 204 239 298 365
#     4  11  22  40  63  93 128 162 207 261 305 369
#     4  10  20  39  61  90 130 165 198 247 306 372
#     4  11  24  43  66  89 116 159 210 266 322 370
#
# _framework density 20.973201
#
# number of rings (size 3 to 8) (size 9 to 14) (size 15 to 20)
#    0.000    2.000    1.667    1.000    0.000   11.333 
#    0.000   29.167    0.000    0.000    0.000    0.000 
#    0.000    0.000    0.000    0.000    0.000    0.000 
#
# Total GULP energy -594746.199969 kJ/mol
# GULP energy per Si atom -12390.545833 kJ/mol
# Density = 2.092546 g / cm^3
# Si number density = 20.973201 Si / 1000 Ang^3
#
#
#
# Elastic Constant Matrix: (Units=GPa)
#
#
# Indices 1 2 3 4 5 6 
#
# 1 80.6340 12.1414 33.6404 0.0000 0.0000 0.0000
# 2 12.1414 68.7441 12.6892 0.0000 0.0000 0.0000
# 3 33.6404 12.6892 88.3061 0.0000 0.0000 0.0000
# 4 0.0000 0.0000 0.0000 2.6032 0.0000 0.0000
# 5 0.0000 0.0000 0.0000 0.0000 11.1480 0.0000
# 6 0.0000 0.0000 0.0000 0.0000 0.0000 41.2453
#
#
#
# Elastic Compliance Matrix: (Units=1/GPa)
#
#
# Indices 1 2 3 4 5 6 
#
# 1 0.014921 -0.001629 -0.005450 0.000000 0.000000 0.000000
# 2 -0.001629 0.015121 -0.001552 0.000000 0.000000 0.000000
# 3 -0.005450 -0.001552 0.013623 0.000000 0.000000 0.000000
# 4 0.000000 0.000000 0.000000 0.384138 0.000000 0.000000
# 5 0.000000 0.000000 0.000000 0.000000 0.089702 0.000000
# 6 0.000000 0.000000 0.000000 0.000000 0.000000 0.024245
#
#
# Mechanical properties :
#
#
# Convention : Reuss Voigt Hill
#
# Bulk Modulus (GPa) = 37.87535 39.40293 38.63914
# Shear Modulus (GPa) = 8.80570 22.94687 15.87628
#
# Velocity S-wave (km/s) = 2.05126 3.31131 2.75431
# Velocity P-wave (km/s) = 4.86912 5.78341 5.34585
#
# Compressibility (1/GPa) = 0.02640240
#
# Stress axis : x y z
#
# Youngs Moduli (GPa) = 67.02068 66.13332 73.40273
#
# Poissons Ratio (x) = 0.10775 0.40004
# Poissons Ratio (y) = 0.10920 0.11393
# Poissons Ratio (z) = 0.36526 0.10265
#
# Static dielectric constant tensor:
#      x y z
#    x 4.061210 0.000000 0.000000 
#    y 0.000000 3.926510 0.000000 
#    z 0.000000 0.000000 3.514670 
# 
# 
# High freq. dielectric constant tensor:
#      x y z
#    x 1.837060 0.000000 0.000000 
#    y 0.000000 1.826870 0.000000 
#    z 0.000000 0.000000 1.788270 
# 
# From -- ./inp_files/55589.got.cif
#   From: 2010.03.12/outbox.cif.g09.slc.cpg/sg66_28_cif.got.tgz:55589.got - 2010.04.10 21:57:39.
