data_PCOD8276967
_publ_section_title
;
Structure prediction by ZEFSAII (Michael W. Deem and Ramdas Pophale) SiO2 
 PCOD8276967
Probable space group: C C C M
;
_chemical_formula_sum "Si O2"
_cell_formula_units_Z 116
_cell_length_a 25.722743
_cell_length_b 24.811343
_cell_length_c 9.161779
_cell_angle_alpha 90.000000
_cell_angle_beta 90.000000
_cell_angle_gamma 90.000000
_cell_volume 5847.192109
_symmetry_space_group_name_H-M "C C C M"
_symmetry_group_IT_number 66
_symmetry_cell_setting 'orthorhombic'
loop_
_space_group_symop_operation_xyz
x,y,z
-x,-y,z
x,-y,1/2-z
-x,y,1/2-z
-x,-y,-z
x,y,-z
-x,y,1/2+z
x,-y,1/2+z
1/2+x,1/2+y,z
1/2-x,1/2-y,z
1/2+x,1/2-y,1/2-z
1/2-x,1/2+y,1/2-z
1/2-x,1/2-y,-z
1/2+x,1/2+y,-z
1/2-x,1/2+y,1/2+z
1/2+x,1/2-y,1/2+z
loop_
_atom_site_type_symbol
_atom_site_label
_atom_site_fract_x
_atom_site_fract_y
_atom_site_fract_z
Si Si1 0.688935 0.757872 0.163342
Si Si2 0.451851 0.802775 0.834024
Si Si3 0.500000 0.500000 0.250000
Si Si4 0.411748 0.698310 0.330099
Si Si5 0.078010 0.906332 0.833387
Si Si6 0.323451 0.445089 0.832516
Si Si7 0.290955 0.944571 0.334042
Si Si8 0.347622 0.143373 0.337180
O O1 0.750000 0.750000 0.178021
O O2 0.651847 0.704611 0.188076
O O3 0.676638 0.800709 0.286555
O O4 0.676288 0.779853 0.000000
O O5 0.500000 0.829451 0.750000
O O6 0.436166 0.751439 0.737980
O O7 0.409417 0.849950 0.834710
O O8 0.464468 0.784730 0.000000
O O9 0.461391 0.541835 0.167062
O O10 0.426485 0.692303 0.500000
O O11 0.440255 0.648080 0.247582
O O12 0.131985 0.913681 0.749798
O O13 0.089986 0.893052 0.000000
O O14 0.315935 0.500000 0.750000
O O15 0.266695 0.416962 0.824820
O O16 0.341225 0.454071 0.000000
O O17 0.305735 0.956706 0.500000
O O18 0.332981 0.904500 0.269488
O O19 0.293689 0.000000 0.250000
O O20 0.327094 0.130942 0.500000
#
# Coordination Sequence:
#
# PCOD8276967 Si02
#       8
#    16  16   4  16  16  16  16  16
#     4   9  19  36  57  84 119 159 196 236 293 361
#     4  10  21  39  62  88 119 154 198 245 294 352
#     4  12  30  48  64  82 114 160 210 264 326 376
#     4  10  22  39  60  86 118 154 196 246 302 363
#     4  12  26  43  63  84 112 150 199 254 313 371
#     4  10  21  38  59  83 112 147 192 239 290 351
#     4  10  21  37  60  89 123 161 199 241 289 351
#     4  10  21  36  57  88 122 156 196 243 294 354
#
# _framework density 19.838581000000001
#
# number of rings (size 3 to 8) (size 9 to 14) (size 15 to 20)
#    0.000    1.793    0.690    2.690    2.897    5.793 
#    0.000    0.000    0.000    0.414    0.000    2.897 
#    0.000    0.000    0.000    0.000    0.000    0.000 
#
# Total GULP energy -718558.684364 kJ/mol
# GULP energy per Si atom -12388.942834 kJ/mol
# Density = 1.979343 g / cm^3
# Si number density = 19.838581 Si / 1000 Ang^3
#
#
#
# Elastic Constant Matrix: (Units=GPa)
#
#
# Indices 1 2 3 4 5 6 
#
# 1 87.4016 32.8217 57.7185 0.0000 0.0000 0.0000
# 2 32.8217 76.5470 48.9853 0.0000 0.0000 0.0000
# 3 57.7185 48.9853 178.2736 0.0000 0.0000 0.0000
# 4 0.0000 0.0000 0.0000 31.4132 0.0000 0.0000
# 5 0.0000 0.0000 0.0000 0.0000 17.0487 0.0000
# 6 0.0000 0.0000 0.0000 0.0000 0.0000 20.3446
#
#
#
# Elastic Compliance Matrix: (Units=1/GPa)
#
#
# Indices 1 2 3 4 5 6 
#
# 1 0.015588 -0.004191 -0.003895 0.000000 0.000000 0.000000
# 2 -0.004191 0.016978 -0.003308 0.000000 0.000000 0.000000
# 3 -0.003895 -0.003308 0.007779 0.000000 0.000000 0.000000
# 4 0.000000 0.000000 0.000000 0.031834 0.000000 0.000000
# 5 0.000000 0.000000 0.000000 0.000000 0.058655 0.000000
# 6 0.000000 0.000000 0.000000 0.000000 0.000000 0.049153
#
#
# Mechanical properties :
#
#
# Convention : Reuss Voigt Hill
#
# Bulk Modulus (GPa) = 56.95960 69.03036 62.99498
# Shear Modulus (GPa) = 23.96611 27.27441 25.62026
#
# Velocity S-wave (km/s) = 3.47948 3.71187 3.59755
# Velocity P-wave (km/s) = 6.70196 7.29673 7.00566
#
# Compressibility (1/GPa) = 0.01755630
#
# Stress axis : x y z
#
# Youngs Moduli (GPa) = 64.15386 58.89989 128.54346
#
# Poissons Ratio (x) = 0.24685 0.50069
# Poissons Ratio (y) = 0.26887 0.42525
# Poissons Ratio (z) = 0.24988 0.19486
#
# Static dielectric constant tensor:
#      x y z
#    x 4.088820 0.000000 0.000000 
#    y 0.000000 3.497530 0.000000 
#    z 0.000000 0.000000 3.770380 
# 
# 
# High freq. dielectric constant tensor:
#      x y z
#    x 1.777030 0.000000 0.000000 
#    y 0.000000 1.749900 0.000000 
#    z 0.000000 0.000000 1.791000 
# 
# From -- ./inp_files/10582.got.cif
#   From: 2010.03.12/outbox.cif.g09.slc.cpg/sg66_6_cif.got.tgz:10582.got - 2010.04.10 21:57:39.
