data_PCOD8276186
_publ_section_title
;
Structure prediction by ZEFSAII (Michael W. Deem and Ramdas Pophale) SiO2 
 PCOD8276186
Probable space group: C C C M
;
_chemical_formula_sum "Si O2"
_cell_formula_units_Z 104
_cell_length_a 14.163941
_cell_length_b 19.933920
_cell_length_c 17.889691
_cell_angle_alpha 90.000000
_cell_angle_beta 90.000000
_cell_angle_gamma 90.000000
_cell_volume 5051.026643
_symmetry_space_group_name_H-M "C C C M"
_symmetry_group_IT_number 66
_symmetry_cell_setting 'orthorhombic'
loop_
_space_group_symop_operation_xyz
x,y,z
-x,-y,z
x,-y,1/2-z
-x,y,1/2-z
-x,-y,-z
x,y,-z
-x,y,1/2+z
x,-y,1/2+z
1/2+x,1/2+y,z
1/2-x,1/2-y,z
1/2+x,1/2-y,1/2-z
1/2-x,1/2+y,1/2-z
1/2-x,1/2-y,-z
1/2+x,1/2+y,-z
1/2-x,1/2+y,1/2+z
1/2+x,1/2-y,1/2+z
loop_
_atom_site_type_symbol
_atom_site_label
_atom_site_fract_x
_atom_site_fract_y
_atom_site_fract_z
Si Si1 0.321895 0.418457 0.630645
Si Si2 0.980102 0.707611 0.912430
Si Si3 0.902952 0.613765 0.210991
Si Si4 0.908420 0.958080 0.918443
Si Si5 0.180685 0.687593 0.849584
Si Si6 0.773192 0.500000 0.750000
Si Si7 0.985775 0.845739 0.162843
O O1 0.325537 0.486198 0.580512
O O2 0.235921 0.371152 0.605817
O O3 0.297204 0.447520 0.711732
O O4 0.416689 0.373971 0.628918
O O5 0.092388 0.703183 0.901829
O O6 0.950841 0.778877 0.877785
O O7 0.923305 0.649268 0.868702
O O8 0.954205 0.703204 0.000000
O O9 0.850898 0.665907 0.266535
O O10 0.840847 0.546389 0.197257
O O11 0.000000 0.591398 0.250000
O O12 0.902275 0.899628 0.855723
O O13 0.915227 0.924082 0.000000
O O14 0.000000 0.000000 0.896746
O O15 0.250000 0.750000 0.839139
O O16 0.000000 0.831683 0.250000
#
# Coordination Sequence:
#
# PCOD8276186 Si02
#       7
#    16  16  16  16  16   8  16
#     4  10  20  33  55  87 114 145 192 245 306 343
#     4  11  23  38  58  88 121 158 195 239 301 358
#     4   9  20  38  62  83 112 150 200 237 287 350
#     4   9  19  34  50  76 118 159 187 226 292 361
#     4  10  19  36  58  90 113 146 188 251 302 343
#     4  10  19  36  61  88 108 146 192 254 291 340
#     4  11  20  34  58  84 117 157 205 241 283 353
#
# _framework density 20.589873000000001
#
# number of rings (size 3 to 8) (size 9 to 14) (size 15 to 20)
#    0.000    2.000    1.538    3.000    0.000    3.692 
#    0.000    0.769    0.000   12.462    0.000    0.000 
#    0.000    0.000    0.000    0.000    0.000    0.000 
#
# Total GULP energy -644190.065275 kJ/mol
# GULP energy per Si atom -12388.270486 kJ/mol
# Density = 2.054301 g / cm^3
# Si number density = 20.589873 Si / 1000 Ang^3
#
#
#
# Elastic Constant Matrix: (Units=GPa)
#
#
# Indices 1 2 3 4 5 6 
#
# 1 38.7015 23.2225 2.2992 0.0000 0.0000 0.0000
# 2 23.2225 93.8050 34.5816 0.0000 0.0000 0.0000
# 3 2.2992 34.5816 106.1955 0.0000 0.0000 0.0000
# 4 0.0000 0.0000 0.0000 33.8460 0.0000 0.0000
# 5 0.0000 0.0000 0.0000 0.0000 17.2887 0.0000
# 6 0.0000 0.0000 0.0000 0.0000 0.0000 34.2717
#
#
#
# Elastic Compliance Matrix: (Units=1/GPa)
#
#
# Indices 1 2 3 4 5 6 
#
# 1 0.030738 -0.008369 0.002060 0.000000 0.000000 0.000000
# 2 -0.008369 0.014393 -0.004506 0.000000 0.000000 0.000000
# 3 0.002060 -0.004506 0.010839 0.000000 0.000000 0.000000
# 4 0.000000 0.000000 0.000000 0.029546 0.000000 0.000000
# 5 0.000000 0.000000 0.000000 0.000000 0.057841 0.000000
# 6 0.000000 0.000000 0.000000 0.000000 0.000000 0.029179
#
#
# Mechanical properties :
#
#
# Convention : Reuss Voigt Hill
#
# Bulk Modulus (GPa) = 29.11994 39.87873 34.49934
# Shear Modulus (GPa) = 24.31753 28.98787 26.65270
#
# Velocity S-wave (km/s) = 3.44036 3.75623 3.60176
# Velocity P-wave (km/s) = 5.47311 6.18244 5.83856
#
# Compressibility (1/GPa) = 0.03434073
#
# Stress axis : x y z
#
# Youngs Moduli (GPa) = 32.53285 69.47651 92.25691
#
# Poissons Ratio (x) = 0.58144 -0.19003
# Poissons Ratio (y) = 0.27227 0.41570
# Poissons Ratio (z) = -0.06701 0.31305
#
# Static dielectric constant tensor:
#      x y z
#    x 3.921520 0.000000 0.000000 
#    y 0.000000 4.120860 0.000000 
#    z 0.000000 0.000000 3.422730 
# 
# 
# High freq. dielectric constant tensor:
#      x y z
#    x 1.791100 0.000000 0.000000 
#    y 0.000000 1.822380 0.000000 
#    z 0.000000 0.000000 1.777020 
# 
# From -- ./inp_files/40549.got.cif
#   From: 2010.03.12/outbox.cif.g09.slc.cpg/sg66_21_cif.got.tgz:40549.got - 2010.04.10 21:57:39.
