data_PCOD8276078
_publ_section_title
;
Structure prediction by ZEFSAII (Michael W. Deem and Ramdas Pophale) SiO2 
 PCOD8276078
Probable space group: C C C M
;
_chemical_formula_sum "Si O2"
_cell_formula_units_Z 80
_cell_length_a 10.171320
_cell_length_b 16.070995
_cell_length_c 23.587575
_cell_angle_alpha 90.000000
_cell_angle_beta 90.000000
_cell_angle_gamma 90.000000
_cell_volume 3855.701265
_symmetry_space_group_name_H-M "C C C M"
_symmetry_group_IT_number 66
_symmetry_cell_setting 'orthorhombic'
loop_
_space_group_symop_operation_xyz
x,y,z
-x,-y,z
x,-y,1/2-z
-x,y,1/2-z
-x,-y,-z
x,y,-z
-x,y,1/2+z
x,-y,1/2+z
1/2+x,1/2+y,z
1/2-x,1/2-y,z
1/2+x,1/2-y,1/2-z
1/2-x,1/2+y,1/2-z
1/2-x,1/2-y,-z
1/2+x,1/2+y,-z
1/2-x,1/2+y,1/2+z
1/2+x,1/2-y,1/2+z
loop_
_atom_site_type_symbol
_atom_site_label
_atom_site_fract_x
_atom_site_fract_y
_atom_site_fract_z
Si Si1 0.367063 0.949809 0.063592
Si Si2 0.041912 0.160447 0.832921
Si Si3 0.632162 0.188841 0.846659
Si Si4 0.695358 0.594670 0.267140
Si Si5 0.875216 0.058445 0.436157
O O1 0.391999 0.867454 0.099104
O O2 0.500000 0.000000 0.064974
O O3 0.248947 0.006538 0.088181
O O4 0.329228 0.922393 0.000000
O O5 0.157859 0.150591 0.787147
O O6 0.095711 0.135753 0.894790
O O7 0.997707 0.256963 0.833526
O O8 0.920740 0.100326 0.814242
O O9 0.750000 0.250000 0.862418
O O10 0.669694 0.131895 0.792446
O O11 0.718775 0.500000 0.250000
O O12 0.845371 0.092073 0.500000
O O13 0.000000 0.000000 0.437608
#
# Coordination Sequence:
#
# PCOD8276078 Si02
#       5
#    16  16  16  16  16
#     4  10  22  41  62  88 126 164 200 246 301 361
#     4  10  19  34  57  85 118 150 198 258 303 349
#     4  10  21  37  58  88 120 155 204 253 304 358
#     4  10  19  35  58  80 114 162 207 249 299 360
#     4  10  19  34  61  92 119 155 202 244 292 362
#
# _framework density 20.748494999999998
#
# number of rings (size 3 to 8) (size 9 to 14) (size 15 to 20)
#    0.000    2.000    0.000    6.000    0.000    1.200 
#    0.000   23.000    0.000    4.800    0.000    0.000 
#    0.000    0.000    0.000    0.000    0.000    0.000 
#
# Total GULP energy -496041.665017 kJ/mol
# GULP energy per Si atom -12401.041625 kJ/mol
# Density = 2.070127 g / cm^3
# Si number density = 20.748495 Si / 1000 Ang^3
#
#
#
# Elastic Constant Matrix: (Units=GPa)
#
#
# Indices 1 2 3 4 5 6 
#
# 1 76.1162 48.1668 35.3737 0.0000 0.0000 0.0000
# 2 48.1668 146.8464 78.0255 0.0000 0.0000 0.0000
# 3 35.3737 78.0255 125.9041 0.0000 0.0000 0.0000
# 4 0.0000 0.0000 0.0000 36.6993 0.0000 0.0000
# 5 0.0000 0.0000 0.0000 0.0000 -3.5748 0.0000
# 6 0.0000 0.0000 0.0000 0.0000 0.0000 21.5998
#
#
#
# Elastic Compliance Matrix: (Units=1/GPa)
#
#
# Indices 1 2 3 4 5 6 
#
# 1 0.016896 -0.004502 -0.001957 0.000000 0.000000 0.000000
# 2 -0.004502 0.011353 -0.005771 0.000000 0.000000 0.000000
# 3 -0.001957 -0.005771 0.012069 0.000000 0.000000 0.000000
# 4 0.000000 0.000000 0.000000 0.027248 0.000000 0.000000
# 5 0.000000 0.000000 0.000000 0.000000 -0.279739 0.000000
# 6 0.000000 0.000000 0.000000 0.000000 0.000000 0.046297
#
#
# Mechanical properties :
#
#
# Convention : Reuss Voigt Hill
#
# Bulk Modulus (GPa) = 63.06007 74.66653 68.86330
# Shear Modulus (GPa) = -36.72961 23.43158 -6.64902
#
# Velocity S-wave (km/s) = -4.21197 3.36417 -1.79208
# Velocity P-wave (km/s) = 2.60850 7.15226 5.38327
#
# Compressibility (1/GPa) = 0.01585790
#
# Stress axis : x y z
#
# Youngs Moduli (GPa) = 59.18428 88.08392 82.85990
#
# Poissons Ratio (x) = 0.39658 0.16215
# Poissons Ratio (y) = 0.26647 0.47815
# Poissons Ratio (z) = 0.11582 0.50830
#
# Static dielectric constant tensor:
#      x y z
#    x 3.709840 0.000000 0.000000 
#    y 0.000000 3.584350 0.000000 
#    z 0.000000 0.000000 4.027390 
# 
# 
# High freq. dielectric constant tensor:
#      x y z
#    x 1.799450 0.000000 0.000000 
#    y 0.000000 1.797170 0.000000 
#    z 0.000000 0.000000 1.819750 
# 
# From -- ./inp_files/56609.got.cif
#   From: 2010.03.12/outbox.cif.g09.slc.cpg/sg66_29_cif.got.tgz:56609.got - 2010.04.10 21:57:39.
