data_PCOD8276925
_publ_section_title
;
Structure prediction by ZEFSAII (Michael W. Deem and Ramdas Pophale) SiO2 
 PCOD8276925
Probable space group: C C C M
;
_chemical_formula_sum "Si O2"
_cell_formula_units_Z 96
_cell_length_a 8.556334
_cell_length_b 25.286816
_cell_length_c 22.210866
_cell_angle_alpha 90.000000
_cell_angle_beta 90.000000
_cell_angle_gamma 90.000000
_cell_volume 4805.597240
_symmetry_space_group_name_H-M "C C C M"
_symmetry_group_IT_number 66
_symmetry_cell_setting 'orthorhombic'
loop_
_space_group_symop_operation_xyz
x,y,z
-x,-y,z
x,-y,1/2-z
-x,y,1/2-z
-x,-y,-z
x,y,-z
-x,y,1/2+z
x,-y,1/2+z
1/2+x,1/2+y,z
1/2-x,1/2-y,z
1/2+x,1/2-y,1/2-z
1/2-x,1/2+y,1/2-z
1/2-x,1/2-y,-z
1/2+x,1/2+y,-z
1/2-x,1/2+y,1/2+z
1/2+x,1/2-y,1/2+z
loop_
_atom_site_type_symbol
_atom_site_label
_atom_site_fract_x
_atom_site_fract_y
_atom_site_fract_z
Si Si1 0.247454 0.498416 0.000000
Si Si2 0.885948 0.457421 0.623313
Si Si3 0.928464 0.360989 0.928965
Si Si4 0.517704 0.582117 0.500000
Si Si5 0.432143 0.252276 0.069460
Si Si6 0.926158 0.144699 0.890028
Si Si7 0.442151 0.553949 0.682564
O O1 0.154528 0.486525 0.939418
O O2 0.403089 0.465760 0.000000
O O3 0.302206 0.560250 0.000000
O O4 0.743164 0.443438 0.668430
O O5 0.000000 0.500000 0.656512
O O6 0.972433 0.403002 0.608566
O O7 0.755695 0.358978 0.902938
O O8 0.999780 0.304268 0.914578
O O9 0.934803 0.373641 0.000000
O O10 0.476486 0.617819 0.556610
O O11 0.250000 0.250000 0.083125
O O12 0.515341 0.294789 0.113664
O O13 0.467736 0.267490 0.000000
O O14 0.971285 0.108810 0.833364
O O15 0.500000 0.500000 0.647584
O O16 0.500000 0.545982 0.750000
#
# Coordination Sequence:
#
# PCOD8276925 Si02
#       7
#     8  16  16   8  16  16  16
#     4  11  21  32  53  92 133 159 197 246 321 387
#     4  12  23  37  61  95 130 164 201 257 317 376
#     4  11  22  35  57  94 132 162 195 245 315 389
#     4  11  20  30  55  87 120 161 197 251 309 379
#     4  10  21  35  56  87 126 166 201 244 308 381
#     4  12  21  38  60  86 124 163 207 256 309 368
#     4  11  25  45  64  85 117 166 219 260 303 358
#
# _framework density 19.976704000000002
#
# number of rings (size 3 to 8) (size 9 to 14) (size 15 to 20)
#    0.000    0.833    4.167    4.750    0.000    1.333 
#    0.000    5.833    0.000    6.000    0.000    0.000 
#    0.000    0.000    0.000    0.000    0.000    0.000 
#
# Total GULP energy -594903.353013 kJ/mol
# GULP energy per Si atom -12393.819854 kJ/mol
# Density = 1.993124 g / cm^3
# Si number density = 19.976704 Si / 1000 Ang^3
#
#
#
# Elastic Constant Matrix: (Units=GPa)
#
#
# Indices 1 2 3 4 5 6 
#
# 1 135.9876 72.7741 39.6491 0.0000 0.0000 0.0000
# 2 72.7741 158.6788 33.3770 0.0000 0.0000 0.0000
# 3 39.6491 33.3770 59.9363 0.0000 0.0000 0.0000
# 4 0.0000 0.0000 0.0000 21.8771 0.0000 0.0000
# 5 0.0000 0.0000 0.0000 0.0000 -46.9768 0.0000
# 6 0.0000 0.0000 0.0000 0.0000 0.0000 41.6462
#
#
#
# Elastic Compliance Matrix: (Units=1/GPa)
#
#
# Indices 1 2 3 4 5 6 
#
# 1 0.010939 -0.003959 -0.005032 0.000000 0.000000 0.000000
# 2 -0.003959 0.008571 -0.002154 0.000000 0.000000 0.000000
# 3 -0.005032 -0.002154 0.021213 0.000000 0.000000 0.000000
# 4 0.000000 0.000000 0.000000 0.045710 0.000000 0.000000
# 5 0.000000 0.000000 0.000000 0.000000 -0.021287 0.000000
# 6 0.000000 0.000000 0.000000 0.000000 0.000000 0.024012
#
#
# Mechanical properties :
#
#
# Convention : Reuss Voigt Hill
#
# Bulk Modulus (GPa) = 54.25018 71.80036 63.02527
# Shear Modulus (GPa) = 42.52023 17.22947 29.87485
#
# Velocity S-wave (km/s) = 4.61856 2.93998 3.87134
# Velocity P-wave (km/s) = 7.46037 6.89527 7.18338
#
# Compressibility (1/GPa) = 0.01843312
#
# Stress axis : x y z
#
# Youngs Moduli (GPa) = 91.41434 116.67763 47.14139
#
# Poissons Ratio (x) = 0.46187 0.23722
# Poissons Ratio (y) = 0.36187 0.10155
# Poissons Ratio (z) = 0.46001 0.25134
#
# Static dielectric constant tensor:
#      x y z
#    x 3.671360 0.000000 0.000000 
#    y 0.000000 2.981400 0.000000 
#    z 0.000000 0.000000 3.226940 
# 
# 
# High freq. dielectric constant tensor:
#      x y z
#    x 1.798060 0.000000 0.000000 
#    y 0.000000 1.804060 0.000000 
#    z 0.000000 0.000000 1.724110 
# 
# From -- ./inp_files/55692.got.cif
#   From: 2010.03.12/outbox.cif.g09.slc.cpg/sg66_28_cif.got.tgz:55692.got - 2010.04.10 21:57:39.
