data_PCOD8276180
_publ_section_title
;
Structure prediction by ZEFSAII (Michael W. Deem and Ramdas Pophale) SiO2 
 PCOD8276180
Probable space group: C C C M
;
_chemical_formula_sum "Si O2"
_cell_formula_units_Z 64
_cell_length_a 18.242895
_cell_length_b 9.317201
_cell_length_c 20.758334
_cell_angle_alpha 90.000000
_cell_angle_beta 90.000000
_cell_angle_gamma 90.000000
_cell_volume 3528.350483
_symmetry_space_group_name_H-M "C C C M"
_symmetry_group_IT_number 66
_symmetry_cell_setting 'orthorhombic'
loop_
_space_group_symop_operation_xyz
x,y,z
-x,-y,z
x,-y,1/2-z
-x,y,1/2-z
-x,-y,-z
x,y,-z
-x,y,1/2+z
x,-y,1/2+z
1/2+x,1/2+y,z
1/2-x,1/2-y,z
1/2+x,1/2-y,1/2-z
1/2-x,1/2+y,1/2-z
1/2-x,1/2-y,-z
1/2+x,1/2+y,-z
1/2-x,1/2+y,1/2+z
1/2+x,1/2-y,1/2+z
loop_
_atom_site_type_symbol
_atom_site_label
_atom_site_fract_x
_atom_site_fract_y
_atom_site_fract_z
Si Si1 0.825539 0.810643 0.902355
Si Si2 0.824299 0.050642 0.000000
Si Si3 0.843941 0.367313 0.000000
Si Si4 0.250000 0.250000 0.219500
Si Si5 0.584306 0.036831 0.387531
Si Si6 0.345830 0.000000 0.250000
O O1 0.750000 0.750000 0.935206
O O2 0.807126 0.837564 0.826800
O O3 0.892986 0.698126 0.909138
O O4 0.846784 0.958711 0.936893
O O5 0.867714 0.199951 0.000000
O O6 0.740840 0.097473 0.000000
O O7 0.874299 0.428693 0.933737
O O8 0.205600 0.361792 0.262873
O O9 0.500000 0.000000 0.396600
O O10 0.605066 0.015257 0.313067
#
# Coordination Sequence:
#
# PCOD8276180 Si02
#       6
#    16   8   8   8  16   8
#     4   9  17  34  54  76 106 143 180 218 272 331
#     4  11  18  32  58  82 108 140 185 234 275 315
#     4  11  22  33  54  87 110 135 184 240 271 311
#     4   8  18  29  54  77 104 132 182 230 266 308
#     4  11  22  37  55  80 113 148 181 221 275 338
#     4  10  19  36  58  82 107 142 182 226 270 325
#
# _framework density 18.138788000000002
#
# number of rings (size 3 to 8) (size 9 to 14) (size 15 to 20)
#    0.750    1.250    2.500    1.875    0.000    4.000 
#    0.000    2.500    0.000    0.000    0.000    5.250 
#    0.000    0.000    0.000    0.000    0.000    0.000 
#
# Total GULP energy -396459.874160 kJ/mol
# GULP energy per Si atom -12389.371067 kJ/mol
# Density = 1.809750 g / cm^3
# Si number density = 18.138788 Si / 1000 Ang^3
#
#
#
# Elastic Constant Matrix: (Units=GPa)
#
#
# Indices 1 2 3 4 5 6 
#
# 1 69.0016 26.7535 7.6167 0.0000 0.0000 0.0000
# 2 26.7535 120.3181 41.0916 0.0000 0.0000 0.0000
# 3 7.6167 41.0916 77.2871 0.0000 0.0000 0.0000
# 4 0.0000 0.0000 0.0000 44.0827 0.0000 0.0000
# 5 0.0000 0.0000 0.0000 0.0000 23.3230 0.0000
# 6 0.0000 0.0000 0.0000 0.0000 0.0000 25.4172
#
#
#
# Elastic Compliance Matrix: (Units=1/GPa)
#
#
# Indices 1 2 3 4 5 6 
#
# 1 0.015869 -0.003659 0.000381 0.000000 0.000000 0.000000
# 2 -0.003659 0.010999 -0.005487 0.000000 0.000000 0.000000
# 3 0.000381 -0.005487 0.015819 0.000000 0.000000 0.000000
# 4 0.000000 0.000000 0.000000 0.022685 0.000000 0.000000
# 5 0.000000 0.000000 0.000000 0.000000 0.042876 0.000000
# 6 0.000000 0.000000 0.000000 0.000000 0.000000 0.039344
#
#
# Mechanical properties :
#
#
# Convention : Reuss Voigt Hill
#
# Bulk Modulus (GPa) = 39.75021 46.39227 43.07124
# Shear Modulus (GPa) = 28.81748 31.30757 30.06252
#
# Velocity S-wave (km/s) = 3.99020 4.15902 4.07549
# Velocity P-wave (km/s) = 6.57199 6.97819 6.77813
#
# Compressibility (1/GPa) = 0.02515710
#
# Stress axis : x y z
#
# Youngs Moduli (GPa) = 63.01629 90.91823 63.21659
#
# Poissons Ratio (x) = 0.33265 -0.02411
# Poissons Ratio (y) = 0.23056 0.34689
# Poissons Ratio (z) = -0.02403 0.49889
#
# Static dielectric constant tensor:
#      x y z
#    x 3.222180 0.000000 0.000000 
#    y 0.000000 3.480190 0.000000 
#    z 0.000000 0.000000 3.258920 
# 
# 
# High freq. dielectric constant tensor:
#      x y z
#    x 1.674710 0.000000 0.000000 
#    y 0.000000 1.698420 0.000000 
#    z 0.000000 0.000000 1.706720 
# 
# From -- ./inp_files/50586.got.cif
#   From: 2010.03.12/outbox.cif.g09.slc.cpg/sg66_26_cif.got.tgz:50586.got - 2010.04.10 21:57:39.
