data_PCOD8276194
_publ_section_title
;
Structure prediction by ZEFSAII (Michael W. Deem and Ramdas Pophale) SiO2 
 PCOD8276194
Probable space group: C C C M
;
_chemical_formula_sum "Si O2"
_cell_formula_units_Z 120
_cell_length_a 11.998136
_cell_length_b 25.199455
_cell_length_c 20.888504
_cell_angle_alpha 90.000000
_cell_angle_beta 90.000000
_cell_angle_gamma 90.000000
_cell_volume 6315.565828
_symmetry_space_group_name_H-M "C C C M"
_symmetry_group_IT_number 66
_symmetry_cell_setting 'orthorhombic'
loop_
_space_group_symop_operation_xyz
x,y,z
-x,-y,z
x,-y,1/2-z
-x,y,1/2-z
-x,-y,-z
x,y,-z
-x,y,1/2+z
x,-y,1/2+z
1/2+x,1/2+y,z
1/2-x,1/2-y,z
1/2+x,1/2-y,1/2-z
1/2-x,1/2+y,1/2-z
1/2-x,1/2-y,-z
1/2+x,1/2+y,-z
1/2-x,1/2+y,1/2+z
1/2+x,1/2-y,1/2+z
loop_
_atom_site_type_symbol
_atom_site_label
_atom_site_fract_x
_atom_site_fract_y
_atom_site_fract_z
Si Si1 0.296687 0.630591 0.928821
Si Si2 0.112558 0.703678 0.876690
Si Si3 0.250000 0.750000 0.230972
Si Si4 0.788777 0.453049 0.834739
Si Si5 0.244530 0.571502 0.310230
Si Si6 0.494052 0.104923 0.825015
Si Si7 0.896090 0.166954 0.300382
Si Si8 0.003766 0.199742 0.929593
O O1 0.225913 0.680507 0.905082
O O2 0.283954 0.579233 0.885101
O O3 0.423984 0.648681 0.926099
O O4 0.259414 0.614527 0.000000
O O5 0.143148 0.732117 0.810036
O O6 0.024561 0.657283 0.864274
O O7 0.062705 0.744918 0.927083
O O8 0.207495 0.800321 0.271493
O O9 0.766674 0.429212 0.765565
O O10 0.743298 0.512749 0.839551
O O11 0.922236 0.443683 0.845394
O O12 0.132433 0.592426 0.344298
O O13 0.352008 0.608647 0.321988
O O14 0.500000 0.116205 0.750000
O O15 0.919898 0.197185 0.366898
O O16 0.000000 0.162994 0.250000
O O17 0.064445 0.198586 0.000000
#
# Coordination Sequence:
#
# PCOD8276194 Si02
#       8
#    16  16   8  16  16  16  16  16
#     4  10  19  36  60  84 112 147 192 250 298 347
#     4  11  19  33  57  89 117 142 193 238 302 349
#     4  12  22  34  60  88 118 150 194 254 294 346
#     4   9  18  35  57  87 112 138 189 240 297 350
#     4  10  20  35  57  81 115 152 184 240 298 343
#     4   9  18  30  55  86 115 143 182 232 287 354
#     4  12  24  38  58  85 121 155 203 247 298 358
#     4  11  23  38  55  80 119 159 195 237 294 361
#
# _framework density 19.000672000000002
#
# number of rings (size 3 to 8) (size 9 to 14) (size 15 to 20)
#    0.000    1.600    2.667    4.000    3.733    2.667 
#    0.000    5.667    0.000    9.600    0.000    0.000 
#    0.000    0.000    0.000    0.000    0.000    0.000 
#
# Total GULP energy -743676.911467 kJ/mol
# GULP energy per Si atom -12394.615191 kJ/mol
# Density = 1.895743 g / cm^3
# Si number density = 19.000672 Si / 1000 Ang^3
#
#
#
# Elastic Constant Matrix: (Units=GPa)
#
#
# Indices 1 2 3 4 5 6 
#
# 1 43.6557 28.8450 13.9128 0.0000 0.0000 0.0000
# 2 28.8450 101.3597 40.9622 0.0000 0.0000 0.0000
# 3 13.9128 40.9622 85.2242 0.0000 0.0000 0.0000
# 4 0.0000 0.0000 0.0000 19.2911 0.0000 0.0000
# 5 0.0000 0.0000 0.0000 0.0000 19.9032 0.0000
# 6 0.0000 0.0000 0.0000 0.0000 0.0000 21.9917
#
#
#
# Elastic Compliance Matrix: (Units=1/GPa)
#
#
# Indices 1 2 3 4 5 6 
#
# 1 0.028270 -0.007670 -0.000929 0.000000 0.000000 0.000000
# 2 -0.007670 0.014325 -0.005633 0.000000 0.000000 0.000000
# 3 -0.000929 -0.005633 0.014593 0.000000 0.000000 0.000000
# 4 0.000000 0.000000 0.000000 0.051837 0.000000 0.000000
# 5 0.000000 0.000000 0.000000 0.000000 0.050243 0.000000
# 6 0.000000 0.000000 0.000000 0.000000 0.000000 0.045472
#
#
# Mechanical properties :
#
#
# Convention : Reuss Voigt Hill
#
# Bulk Modulus (GPa) = 34.81301 44.18661 39.49981
# Shear Modulus (GPa) = 20.59490 22.00517 21.30004
#
# Velocity S-wave (km/s) = 3.29584 3.40682 3.35179
# Velocity P-wave (km/s) = 5.73107 6.22744 5.98440
#
# Compressibility (1/GPa) = 0.02872489
#
# Stress axis : x y z
#
# Youngs Moduli (GPa) = 35.37295 69.80800 68.52671
#
# Poissons Ratio (x) = 0.53542 0.06364
# Poissons Ratio (y) = 0.27130 0.38602
# Poissons Ratio (z) = 0.03285 0.39323
#
# Static dielectric constant tensor:
#      x y z
#    x 3.368080 0.000000 0.000000 
#    y 0.000000 3.461180 0.000000 
#    z 0.000000 0.000000 3.423500 
# 
# 
# High freq. dielectric constant tensor:
#      x y z
#    x 1.719630 0.000000 0.000000 
#    y 0.000000 1.742380 0.000000 
#    z 0.000000 0.000000 1.720930 
# 
# From -- ./inp_files/49074.got.cif
#   From: 2010.03.12/outbox.cif.g09.slc.cpg/sg66_25_cif.got.tgz:49074.got - 2010.04.10 21:57:39.
