data_PCOD8276038
_publ_section_title
;
Structure prediction by ZEFSAII (Michael W. Deem and Ramdas Pophale) SiO2 
 PCOD8276038
Probable space group: C C C M
;
_chemical_formula_sum "Si O2"
_cell_formula_units_Z 72
_cell_length_a 4.939013
_cell_length_b 28.434485
_cell_length_c 25.447305
_cell_angle_alpha 90.000000
_cell_angle_beta 90.000000
_cell_angle_gamma 90.000000
_cell_volume 3573.776026
_symmetry_space_group_name_H-M "C C C M"
_symmetry_group_IT_number 66
_symmetry_cell_setting 'orthorhombic'
loop_
_space_group_symop_operation_xyz
x,y,z
-x,-y,z
x,-y,1/2-z
-x,y,1/2-z
-x,-y,-z
x,y,-z
-x,y,1/2+z
x,-y,1/2+z
1/2+x,1/2+y,z
1/2-x,1/2-y,z
1/2+x,1/2-y,1/2-z
1/2-x,1/2+y,1/2-z
1/2-x,1/2-y,-z
1/2+x,1/2+y,-z
1/2-x,1/2+y,1/2+z
1/2+x,1/2-y,1/2+z
loop_
_atom_site_type_symbol
_atom_site_label
_atom_site_fract_x
_atom_site_fract_y
_atom_site_fract_z
Si Si1 0.101429 0.100335 0.194185
Si Si2 0.402826 0.156768 0.662910
Si Si3 0.250000 0.750000 0.784457
Si Si4 0.411927 0.552162 0.409624
Si Si5 0.920540 0.391292 0.058425
O O1 0.389020 0.127066 0.199119
O O2 0.000000 0.080482 0.250000
O O3 0.897475 0.138660 0.171738
O O4 0.112633 0.056674 0.153795
O O5 0.396293 0.211156 0.679126
O O6 0.484775 0.149474 0.601434
O O7 0.500000 0.728802 0.750000
O O8 0.500000 0.500000 0.425112
O O9 0.121995 0.564454 0.434468
O O10 0.620403 0.589209 0.433784
O O11 0.947959 0.369622 0.000000
#
# Coordination Sequence:
#
# PCOD8276038 Si02
#       5
#    16  16   8  16  16
#     4  10  19  34  53  73 107 144 170 208 264 317
#     4  10  21  35  52  79 106 134 176 215 256 315
#     4  12  22  34  57  84 109 136 172 218 266 316
#     4  10  21  34  52  80 105 133 180 223 257 311
#     4  10  21  37  55  74 104 141 174 217 268 310
#
# _framework density 20.14676
#
# number of rings (size 3 to 8) (size 9 to 14) (size 15 to 20)
#    0.000    1.778    0.000    5.333    0.000    3.111 
#    0.000    0.556    0.000    8.000    0.000   10.889 
#    0.000    0.000    0.000    0.000    0.000    0.000 
#
# Total GULP energy -446323.191763 kJ/mol
# GULP energy per Si atom -12397.866438 kJ/mol
# Density = 2.010090 g / cm^3
# Si number density = 20.146760 Si / 1000 Ang^3
#
#
#
# Elastic Constant Matrix: (Units=GPa)
#
#
# Indices 1 2 3 4 5 6 
#
# 1 77.0291 11.5911 19.7595 0.0000 0.0000 0.0000
# 2 11.5911 65.4246 26.7249 0.0000 0.0000 0.0000
# 3 19.7595 26.7249 148.7900 0.0000 0.0000 0.0000
# 4 0.0000 0.0000 0.0000 12.3893 0.0000 0.0000
# 5 0.0000 0.0000 0.0000 0.0000 23.3707 0.0000
# 6 0.0000 0.0000 0.0000 0.0000 0.0000 24.8270
#
#
#
# Elastic Compliance Matrix: (Units=1/GPa)
#
#
# Indices 1 2 3 4 5 6 
#
# 1 0.013635 -0.001809 -0.001486 0.000000 0.000000 0.000000
# 2 -0.001809 0.016735 -0.002766 0.000000 0.000000 0.000000
# 3 -0.001486 -0.002766 0.007415 0.000000 0.000000 0.000000
# 4 0.000000 0.000000 0.000000 0.080715 0.000000 0.000000
# 5 0.000000 0.000000 0.000000 0.000000 0.042789 0.000000
# 6 0.000000 0.000000 0.000000 0.000000 0.000000 0.040279
#
#
# Mechanical properties :
#
#
# Convention : Reuss Voigt Hill
#
# Bulk Modulus (GPa) = 38.96405 45.26608 42.11506
# Shear Modulus (GPa) = 22.49787 27.66193 25.07990
#
# Velocity S-wave (km/s) = 3.34533 3.70945 3.53209
# Velocity P-wave (km/s) = 5.85694 6.39247 6.13055
#
# Compressibility (1/GPa) = 0.02566469
#
# Stress axis : x y z
#
# Youngs Moduli (GPa) = 73.33821 59.75519 134.86240
#
# Poissons Ratio (x) = 0.10808 0.20040
# Poissons Ratio (y) = 0.13265 0.37298
# Poissons Ratio (z) = 0.10898 0.16526
#
# Static dielectric constant tensor:
#      x y z
#    x 3.847400 0.000000 0.000000 
#    y 0.000000 3.185630 0.000000 
#    z 0.000000 0.000000 3.952980 
# 
# 
# High freq. dielectric constant tensor:
#      x y z
#    x 1.810920 0.000000 0.000000 
#    y 0.000000 1.737860 0.000000 
#    z 0.000000 0.000000 1.790610 
# 
# From -- ./inp_files/61441.got.cif
#   From: 2010.03.12/outbox.cif.g09.slc.cpg/sg66_31_cif.got.tgz:61441.got - 2010.04.10 21:57:39.
