data_PCOD8276537
_publ_section_title
;
Structure prediction by ZEFSAII (Michael W. Deem and Ramdas Pophale) SiO2 
 PCOD8276537
Probable space group: C C C M
;
_chemical_formula_sum "Si O2"
_cell_formula_units_Z 96
_cell_length_a 27.244490
_cell_length_b 20.392578
_cell_length_c 8.890338
_cell_angle_alpha 90.000000
_cell_angle_beta 90.000000
_cell_angle_gamma 90.000000
_cell_volume 4939.341882
_symmetry_space_group_name_H-M "C C C M"
_symmetry_group_IT_number 66
_symmetry_cell_setting 'orthorhombic'
loop_
_space_group_symop_operation_xyz
x,y,z
-x,-y,z
x,-y,1/2-z
-x,y,1/2-z
-x,-y,-z
x,y,-z
-x,y,1/2+z
x,-y,1/2+z
1/2+x,1/2+y,z
1/2-x,1/2-y,z
1/2+x,1/2-y,1/2-z
1/2-x,1/2+y,1/2-z
1/2-x,1/2-y,-z
1/2+x,1/2+y,-z
1/2-x,1/2+y,1/2+z
1/2+x,1/2-y,1/2+z
loop_
_atom_site_type_symbol
_atom_site_label
_atom_site_fract_x
_atom_site_fract_y
_atom_site_fract_z
Si Si1 0.284212 0.689627 0.323712
Si Si2 0.377674 0.932974 0.822722
Si Si3 0.386289 0.306515 0.674782
Si Si4 0.947868 0.681927 0.323661
Si Si5 0.551400 0.567482 0.323270
Si Si6 0.234210 0.567439 0.177354
O O1 0.280894 0.675739 0.500000
O O2 0.250000 0.750000 0.275527
O O3 0.339380 0.706963 0.277269
O O4 0.268224 0.625408 0.234816
O O5 0.410653 0.873380 0.762424
O O6 0.321784 0.918636 0.772777
O O7 0.397249 0.000000 0.750000
O O8 0.381306 0.940623 0.000000
O O9 0.371515 0.299349 0.500000
O O10 0.426973 0.253014 0.719716
O O11 0.408044 0.377836 0.710659
O O12 0.954627 0.674797 0.500000
O O13 0.000000 0.670912 0.250000
O O14 0.570531 0.500000 0.250000
O O15 0.500000 0.589035 0.250000
O O16 0.543158 0.557665 0.500000
O O17 0.253124 0.500000 0.250000
O O18 0.239749 0.561699 0.000000
#
# Coordination Sequence:
#
# PCOD8276537 Si02
#       6
#    16  16  16  16  16  16
#     4  11  24  39  57  84 115 147 187 234 282 334
#     4   9  19  35  56  81 109 143 181 222 269 325
#     4  10  22  39  58  80 108 145 187 229 276 330
#     4  10  21  37  56  80 109 142 183 227 274 327
#     4  10  20  35  57  83 111 144 181 222 270 325
#     4  10  20  37  61  85 113 149 187 230 280 333
#
# _framework density 19.435787000000001
#
# number of rings (size 3 to 8) (size 9 to 14) (size 15 to 20)
#    0.000    2.000    0.000    3.500    0.000    7.000 
#    0.000    3.333    0.000    0.000    0.000    0.000 
#    0.000    0.000    0.000    0.000    0.000    0.000 
#
# Total GULP energy -595431.268727 kJ/mol
# GULP energy per Si atom -12404.818098 kJ/mol
# Density = 1.939155 g / cm^3
# Si number density = 19.435787 Si / 1000 Ang^3
#
#
#
# Elastic Constant Matrix: (Units=GPa)
#
#
# Indices 1 2 3 4 5 6 
#
# 1 66.8362 21.1756 23.4860 0.0000 0.0000 0.0000
# 2 21.1756 93.7511 30.9936 0.0000 0.0000 0.0000
# 3 23.4860 30.9936 60.5316 0.0000 0.0000 0.0000
# 4 0.0000 0.0000 0.0000 31.9889 0.0000 0.0000
# 5 0.0000 0.0000 0.0000 0.0000 32.8222 0.0000
# 6 0.0000 0.0000 0.0000 0.0000 0.0000 37.0128
#
#
#
# Elastic Compliance Matrix: (Units=1/GPa)
#
#
# Indices 1 2 3 4 5 6 
#
# 1 0.017653 -0.002074 -0.005787 0.000000 0.000000 0.000000
# 2 -0.002074 0.013084 -0.005894 0.000000 0.000000 0.000000
# 3 -0.005787 -0.005894 0.021784 0.000000 0.000000 0.000000
# 4 0.000000 0.000000 0.000000 0.031261 0.000000 0.000000
# 5 0.000000 0.000000 0.000000 0.000000 0.030467 0.000000
# 6 0.000000 0.000000 0.000000 0.000000 0.000000 0.027018
#
#
# Mechanical properties :
#
#
# Convention : Reuss Voigt Hill
#
# Bulk Modulus (GPa) = 39.98590 41.38103 40.68347
# Shear Modulus (GPa) = 28.23049 30.06236 29.14642
#
# Velocity S-wave (km/s) = 3.81530 3.93714 3.87670
# Velocity P-wave (km/s) = 6.32667 6.48117 6.40438
#
# Compressibility (1/GPa) = 0.02500881
#
# Stress axis : x y z
#
# Youngs Moduli (GPa) = 56.64871 76.43115 45.90559
#
# Poissons Ratio (x) = 0.15852 0.26567
# Poissons Ratio (y) = 0.11749 0.27059
# Poissons Ratio (z) = 0.32784 0.45052
#
# Static dielectric constant tensor:
#      x y z
#    x 3.494650 0.000000 0.000000 
#    y 0.000000 3.717040 0.000000 
#    z 0.000000 0.000000 3.531590 
# 
# 
# High freq. dielectric constant tensor:
#      x y z
#    x 1.755000 0.000000 0.000000 
#    y 0.000000 1.771200 0.000000 
#    z 0.000000 0.000000 1.756310 
# 
# From -- ./inp_files/7985.got.cif
#   From: 2010.03.12/outbox.cif.g09.slc.cpg/sg66_4_cif.got.tgz:7985.got - 2010.04.10 21:57:39.
