data_PCOD8276149
_publ_section_title
;
Structure prediction by ZEFSAII (Michael W. Deem and Ramdas Pophale) SiO2 
 PCOD8276149
Probable space group: C C C M
;
_chemical_formula_sum "Si O2"
_cell_formula_units_Z 104
_cell_length_a 14.747468
_cell_length_b 17.020496
_cell_length_c 21.770150
_cell_angle_alpha 90.000000
_cell_angle_beta 90.000000
_cell_angle_gamma 90.000000
_cell_volume 5464.508373
_symmetry_space_group_name_H-M "C C C M"
_symmetry_group_IT_number 66
_symmetry_cell_setting 'orthorhombic'
loop_
_space_group_symop_operation_xyz
x,y,z
-x,-y,z
x,-y,1/2-z
-x,y,1/2-z
-x,-y,-z
x,y,-z
-x,y,1/2+z
x,-y,1/2+z
1/2+x,1/2+y,z
1/2-x,1/2-y,z
1/2+x,1/2-y,1/2-z
1/2-x,1/2+y,1/2-z
1/2-x,1/2-y,-z
1/2+x,1/2+y,-z
1/2-x,1/2+y,1/2+z
1/2+x,1/2-y,1/2+z
loop_
_atom_site_type_symbol
_atom_site_label
_atom_site_fract_x
_atom_site_fract_y
_atom_site_fract_z
Si Si1 0.614247 0.628672 0.568039
Si Si2 0.413344 0.623780 0.293556
Si Si3 0.711166 0.090908 0.746801
Si Si4 0.067105 0.303545 0.190952
Si Si5 0.500000 0.500000 0.117821
Si Si6 0.462097 0.207947 0.429096
Si Si7 0.787442 0.335550 0.128609
O O1 0.646024 0.649740 0.500000
O O2 0.560168 0.548911 0.571226
O O3 0.551846 0.700939 0.590804
O O4 0.703423 0.612285 0.607386
O O5 0.500000 0.618606 0.250000
O O6 0.319494 0.600449 0.260470
O O7 0.400866 0.713181 0.315995
O O8 0.434177 0.558532 0.344854
O O9 0.653675 0.138150 0.695535
O O10 0.673989 0.128239 0.809498
O O11 0.684246 0.000000 0.750000
O O12 0.000000 0.313679 0.250000
O O13 0.025563 0.327826 0.124302
O O14 0.498169 0.197945 0.500000
O O15 0.364411 0.165656 0.423816
O O16 0.750000 0.250000 0.143839
#
# Coordination Sequence:
#
# PCOD8276149 Si02
#       7
#    16  16  16  16   8  16  16
#     4  10  20  33  54  85 122 160 198 249 311 368
#     4  11  22  36  59  89 124 158 192 248 315 367
#     4  12  24  37  60  89 123 157 199 255 308 359
#     4  11  22  40  61  89 120 160 201 247 297 361
#     4  12  20  34  54  84 128 158 198 242 306 380
#     4  10  20  38  61  86 118 161 208 250 300 361
#     4  10  19  35  59  87 115 152 200 259 310 359
#
# _framework density 19.031905999999999
#
# number of rings (size 3 to 8) (size 9 to 14) (size 15 to 20)
#    0.000    1.231    3.077    5.077    4.308    2.154 
#    0.000    0.000    0.000    8.308    0.000    0.000 
#    0.000    0.000    0.000    0.000    0.000    0.000 
#
# Total GULP energy -644394.602423 kJ/mol
# GULP energy per Si atom -12392.203893 kJ/mol
# Density = 1.898859 g / cm^3
# Si number density = 19.031906 Si / 1000 Ang^3
#
#
#
# Elastic Constant Matrix: (Units=GPa)
#
#
# Indices 1 2 3 4 5 6 
#
# 1 93.4487 57.4598 43.4220 0.0000 0.0000 0.0000
# 2 57.4598 76.0794 19.1713 0.0000 0.0000 0.0000
# 3 43.4220 19.1713 98.2149 0.0000 0.0000 0.0000
# 4 0.0000 0.0000 0.0000 -9.9861 0.0000 0.0000
# 5 0.0000 0.0000 0.0000 0.0000 30.9719 0.0000
# 6 0.0000 0.0000 0.0000 0.0000 0.0000 31.4993
#
#
#
# Elastic Compliance Matrix: (Units=1/GPa)
#
#
# Indices 1 2 3 4 5 6 
#
# 1 0.024342 -0.016483 -0.007544 0.000000 0.000000 0.000000
# 2 -0.016483 0.024986 0.002410 0.000000 0.000000 0.000000
# 3 -0.007544 0.002410 0.013047 0.000000 0.000000 0.000000
# 4 0.000000 0.000000 0.000000 -0.100139 0.000000 0.000000
# 5 0.000000 0.000000 0.000000 0.000000 0.032287 0.000000
# 6 0.000000 0.000000 0.000000 0.000000 0.000000 0.031747
#
#
# Mechanical properties :
#
#
# Convention : Reuss Voigt Hill
#
# Bulk Modulus (GPa) = 52.24715 56.42770 54.33742
# Shear Modulus (GPa) = 65.88982 20.34302 43.11642
#
# Velocity S-wave (km/s) = 5.89032 3.27294 4.76487
# Velocity P-wave (km/s) = 8.58913 6.63296 7.67363
#
# Compressibility (1/GPa) = 0.01913980
#
# Stress axis : x y z
#
# Youngs Moduli (GPa) = 41.08135 40.02236 76.64758
#
# Poissons Ratio (x) = 0.65970 0.57826
# Poissons Ratio (y) = 0.67716 -0.18474
# Poissons Ratio (z) = 0.30993 -0.09647
#
# Static dielectric constant tensor:
#      x y z
#    x 3.490170 0.000000 0.000000 
#    y 0.000000 3.486170 0.000000 
#    z 0.000000 0.000000 3.371750 
# 
# 
# High freq. dielectric constant tensor:
#      x y z
#    x 1.734000 0.000000 0.000000 
#    y 0.000000 1.732500 0.000000 
#    z 0.000000 0.000000 1.733780 
# 
# From -- ./inp_files/50076.got.cif
#   From: 2010.03.12/outbox.cif.g09.slc.cpg/sg66_26_cif.got.tgz:50076.got - 2010.04.10 21:57:39.
