data_PCOD8276905
_publ_section_title
;
Structure prediction by ZEFSAII (Michael W. Deem and Ramdas Pophale) SiO2 
 PCOD8276905
Probable space group: C C C M
;
_chemical_formula_sum "Si O2"
_cell_formula_units_Z 96
_cell_length_a 10.710846
_cell_length_b 21.322797
_cell_length_c 22.793943
_cell_angle_alpha 90.000000
_cell_angle_beta 90.000000
_cell_angle_gamma 90.000000
_cell_volume 5205.799116
_symmetry_space_group_name_H-M "C C C M"
_symmetry_group_IT_number 66
_symmetry_cell_setting 'orthorhombic'
loop_
_space_group_symop_operation_xyz
x,y,z
-x,-y,z
x,-y,1/2-z
-x,y,1/2-z
-x,-y,-z
x,y,-z
-x,y,1/2+z
x,-y,1/2+z
1/2+x,1/2+y,z
1/2-x,1/2-y,z
1/2+x,1/2-y,1/2-z
1/2-x,1/2+y,1/2-z
1/2-x,1/2-y,-z
1/2+x,1/2+y,-z
1/2-x,1/2+y,1/2+z
1/2+x,1/2-y,1/2+z
loop_
_atom_site_type_symbol
_atom_site_label
_atom_site_fract_x
_atom_site_fract_y
_atom_site_fract_z
Si Si1 0.110959 0.727975 0.648711
Si Si2 0.000000 0.355743 0.750000
Si Si3 0.619277 0.468812 0.186504
Si Si4 0.056264 0.340495 0.568775
Si Si5 0.441806 0.674504 0.189465
Si Si6 0.894842 0.446329 0.843887
Si Si7 0.250000 0.250000 0.372710
O O1 0.250000 0.750000 0.646403
O O2 0.082273 0.687829 0.707447
O O3 0.076948 0.683472 0.593572
O O4 0.033734 0.793063 0.642240
O O5 0.092394 0.399871 0.711938
O O6 0.500000 0.500000 0.152564
O O7 0.633487 0.500000 0.250000
O O8 0.570003 0.398832 0.189712
O O9 0.754236 0.475597 0.155259
O O10 0.048048 0.349664 0.500000
O O11 0.089410 0.408033 0.596035
O O12 0.158273 0.288344 0.585433
O O13 0.500000 0.698817 0.250000
O O14 0.307005 0.701419 0.173826
O O15 0.000000 0.500000 0.840196
#
# Coordination Sequence:
#
# PCOD8276905 Si02
#       7
#    16   8  16  16  16  16   8
#     4  10  23  33  56  91 124 155 184 248 308 360
#     4  10  21  34  54  84 121 160 194 226 290 384
#     4  11  22  34  53  84 119 161 192 236 290 359
#     4  10  22  41  64  84 108 154 210 257 302 355
#     4  11  21  33  55  86 125 158 190 227 296 370
#     4  11  23  39  57  84 117 159 204 246 295 364
#     4  10  21  40  60  90 116 152 201 254 292 362
#
# _framework density 18.440973
#
# number of rings (size 3 to 8) (size 9 to 14) (size 15 to 20)
#    0.000    1.500    4.167    1.500    3.500    3.333 
#    0.000    0.000    0.000    0.500    0.000    0.000 
#    0.000    0.000    0.000    0.000    0.000    0.000 
#
# Total GULP energy -594645.636984 kJ/mol
# GULP energy per Si atom -12388.450770 kJ/mol
# Density = 1.839900 g / cm^3
# Si number density = 18.440973 Si / 1000 Ang^3
#
#
#
# Elastic Constant Matrix: (Units=GPa)
#
#
# Indices 1 2 3 4 5 6 
#
# 1 152.5001 61.1193 53.0947 0.0000 0.0000 0.0000
# 2 61.1193 131.6172 50.7610 0.0000 0.0000 0.0000
# 3 53.0947 50.7610 122.1548 0.0000 0.0000 0.0000
# 4 0.0000 0.0000 0.0000 14.7587 0.0000 0.0000
# 5 0.0000 0.0000 0.0000 0.0000 16.2175 0.0000
# 6 0.0000 0.0000 0.0000 0.0000 0.0000 31.7325
#
#
#
# Elastic Compliance Matrix: (Units=1/GPa)
#
#
# Indices 1 2 3 4 5 6 
#
# 1 0.008649 -0.003056 -0.002489 0.000000 0.000000 0.000000
# 2 -0.003056 0.010128 -0.002880 0.000000 0.000000 0.000000
# 3 -0.002489 -0.002880 0.010465 0.000000 0.000000 0.000000
# 4 0.000000 0.000000 0.000000 0.067757 0.000000 0.000000
# 5 0.000000 0.000000 0.000000 0.000000 0.061662 0.000000
# 6 0.000000 0.000000 0.000000 0.000000 0.000000 0.031513
#
#
# Mechanical properties :
#
#
# Convention : Reuss Voigt Hill
#
# Bulk Modulus (GPa) = 80.70691 81.80244 81.25468
# Shear Modulus (GPa) = 23.67923 28.62820 26.15371
#
# Velocity S-wave (km/s) = 3.58726 3.94435 3.77004
# Velocity P-wave (km/s) = 7.81140 8.07461 7.94409
#
# Compressibility (1/GPa) = 0.01239051
#
# Stress axis : x y z
#
# Youngs Moduli (GPa) = 115.62116 98.73765 95.55540
#
# Poissons Ratio (x) = 0.30177 0.23786
# Poissons Ratio (y) = 0.35337 0.27522
# Poissons Ratio (z) = 0.28781 0.28438
#
# Static dielectric constant tensor:
#      x y z
#    x 3.583470 0.000000 0.000000 
#    y 0.000000 3.568000 0.000000 
#    z 0.000000 0.000000 3.196170 
# 
# 
# High freq. dielectric constant tensor:
#      x y z
#    x 1.725820 0.000000 0.000000 
#    y 0.000000 1.734050 0.000000 
#    z 0.000000 0.000000 1.671540 
# 
# From -- ./inp_files/48856.got.cif
#   From: 2010.03.12/outbox.cif.g09.slc.cpg/sg66_25_cif.got.tgz:48856.got - 2010.04.10 21:57:39.
