data_PCOD8276696
_publ_section_title
;
Structure prediction by ZEFSAII (Michael W. Deem and Ramdas Pophale) SiO2 
 PCOD8276696
Probable space group: C C C M
;
_chemical_formula_sum "Si O2"
_cell_formula_units_Z 96
_cell_length_a 9.683658
_cell_length_b 25.494724
_cell_length_c 23.256837
_cell_angle_alpha 90.000000
_cell_angle_beta 90.000000
_cell_angle_gamma 90.000000
_cell_volume 5741.698805
_symmetry_space_group_name_H-M "C C C M"
_symmetry_group_IT_number 66
_symmetry_cell_setting 'orthorhombic'
loop_
_space_group_symop_operation_xyz
x,y,z
-x,-y,z
x,-y,1/2-z
-x,y,1/2-z
-x,-y,-z
x,y,-z
-x,y,1/2+z
x,-y,1/2+z
1/2+x,1/2+y,z
1/2-x,1/2-y,z
1/2+x,1/2-y,1/2-z
1/2-x,1/2+y,1/2-z
1/2-x,1/2-y,-z
1/2+x,1/2+y,-z
1/2-x,1/2+y,1/2+z
1/2+x,1/2-y,1/2+z
loop_
_atom_site_type_symbol
_atom_site_label
_atom_site_fract_x
_atom_site_fract_y
_atom_site_fract_z
Si Si1 0.664278 0.197172 0.744723
Si Si2 0.218749 0.596852 0.198540
Si Si3 0.491971 0.061579 0.117745
Si Si4 0.909098 0.447934 0.000000
Si Si5 0.587106 0.448115 0.000000
Si Si6 0.244193 0.894903 0.324313
Si Si7 0.026749 0.062446 0.624502
O O1 0.500000 0.207847 0.750000
O O2 0.750000 0.250000 0.747055
O O3 0.715990 0.160616 0.797865
O O4 0.707286 0.165746 0.685886
O O5 0.238870 0.574096 0.263340
O O6 0.332518 0.573796 0.157019
O O7 0.070566 0.580656 0.174374
O O8 0.553278 0.085071 0.057811
O O9 0.334243 0.079115 0.125290
O O10 0.500000 0.000000 0.113313
O O11 0.748382 0.462603 0.000000
O O12 0.000000 0.500000 0.000000
O O13 0.500000 0.500000 0.000000
O O14 0.546012 0.417671 0.058588
O O15 0.087677 0.901228 0.345511
O O16 0.000000 0.000000 0.628214
#
# Coordination Sequence:
#
# PCOD8276696 Si02
#       7
#    16  16  16   8   8  16  16
#     4  10  22  39  58  81 110 139 181 232 282 336
#     4  10  20  37  52  82 114 139 189 216 276 336
#     4  11  20  34  54  77 115 150 184 227 256 316
#     4  10  22  34  54  74 101 160 204 216 261 305
#     4  10  22  36  50  74 109 154 199 223 254 310
#     4  10  22  35  52  85 111 140 190 215 282 335
#     4  11  22  34  53  79 120 155 184 221 261 319
#
# _framework density 16.719791000000001
#
# number of rings (size 3 to 8) (size 9 to 14) (size 15 to 20)
#    1.000    0.667    3.333    2.000    9.333    4.000 
#    0.000    0.000    0.000    0.000    0.000    7.000 
#    0.000    0.000    0.000    0.000    0.000    0.000 
#
# Total GULP energy -594678.015518 kJ/mol
# GULP energy per Si atom -12389.125323 kJ/mol
# Density = 1.668174 g / cm^3
# Si number density = 16.719791 Si / 1000 Ang^3
#
#
#
# Elastic Constant Matrix: (Units=GPa)
#
#
# Indices 1 2 3 4 5 6 
#
# 1 64.4355 22.5565 22.8432 0.0000 0.0000 0.0000
# 2 22.5565 73.8722 20.1572 0.0000 0.0000 0.0000
# 3 22.8432 20.1572 110.9268 0.0000 0.0000 0.0000
# 4 0.0000 0.0000 0.0000 0.1688 0.0000 0.0000
# 5 0.0000 0.0000 0.0000 0.0000 29.7616 0.0000
# 6 0.0000 0.0000 0.0000 0.0000 0.0000 28.2651
#
#
#
# Elastic Compliance Matrix: (Units=1/GPa)
#
#
# Indices 1 2 3 4 5 6 
#
# 1 0.018213 -0.004775 -0.002883 0.000000 0.000000 0.000000
# 2 -0.004775 0.015495 -0.001832 0.000000 0.000000 0.000000
# 3 -0.002883 -0.001832 0.009942 0.000000 0.000000 0.000000
# 4 0.000000 0.000000 0.000000 5.924987 0.000000 0.000000
# 5 0.000000 0.000000 0.000000 0.000000 0.033600 0.000000
# 6 0.000000 0.000000 0.000000 0.000000 0.000000 0.035379
#
#
# Mechanical properties :
#
#
# Convention : Reuss Voigt Hill
#
# Bulk Modulus (GPa) = 40.53610 42.26093 41.39851
# Shear Modulus (GPa) = 0.82443 23.88427 12.35435
#
# Velocity S-wave (km/s) = 0.70296 3.78365 2.72123
# Velocity P-wave (km/s) = 4.99559 6.66475 5.88960
#
# Compressibility (1/GPa) = 0.02466937
#
# Stress axis : x y z
#
# Youngs Moduli (GPa) = 54.90630 64.53789 100.58719
#
# Poissons Ratio (x) = 0.30814 0.28999
# Poissons Ratio (y) = 0.26215 0.18432
# Poissons Ratio (z) = 0.15829 0.11826
#
# Static dielectric constant tensor:
#      x y z
#    x 3.207590 0.000000 0.000000 
#    y 0.000000 2.750040 0.000000 
#    z 0.000000 0.000000 3.932910 
# 
# 
# High freq. dielectric constant tensor:
#      x y z
#    x 1.666400 0.000000 0.000000 
#    y 0.000000 1.595000 0.000000 
#    z 0.000000 0.000000 1.648970 
# 
# From -- ./inp_files/62807.got.cif
#   From: 2010.03.12/outbox.cif.g09.slc.cpg/sg66_32_cif.got.tgz:62807.got - 2010.04.10 21:57:39.
