data_PCOD8276924
_publ_section_title
;
Structure prediction by ZEFSAII (Michael W. Deem and Ramdas Pophale) SiO2 
 PCOD8276924
Probable space group: C C C M
;
_chemical_formula_sum "Si O2"
_cell_formula_units_Z 104
_cell_length_a 19.525749
_cell_length_b 9.782626
_cell_length_c 27.572060
_cell_angle_alpha 90.000000
_cell_angle_beta 90.000000
_cell_angle_gamma 90.000000
_cell_volume 5266.624649
_symmetry_space_group_name_H-M "C C C M"
_symmetry_group_IT_number 66
_symmetry_cell_setting 'orthorhombic'
loop_
_space_group_symop_operation_xyz
x,y,z
-x,-y,z
x,-y,1/2-z
-x,y,1/2-z
-x,-y,-z
x,y,-z
-x,y,1/2+z
x,-y,1/2+z
1/2+x,1/2+y,z
1/2-x,1/2-y,z
1/2+x,1/2-y,1/2-z
1/2-x,1/2+y,1/2-z
1/2-x,1/2-y,-z
1/2+x,1/2+y,-z
1/2-x,1/2+y,1/2+z
1/2+x,1/2-y,1/2+z
loop_
_atom_site_type_symbol
_atom_site_label
_atom_site_fract_x
_atom_site_fract_y
_atom_site_fract_z
Si Si1 0.750000 0.750000 0.832587
Si Si2 0.465472 0.149874 0.379674
Si Si3 0.327872 0.742534 0.146400
Si Si4 0.462855 0.696951 0.705899
Si Si5 0.860567 0.065817 0.365960
Si Si6 0.651914 0.155486 0.748003
Si Si7 0.037705 0.857176 0.555650
O O1 0.783270 0.873180 0.863797
O O2 0.687988 0.796103 0.800268
O O3 0.381444 0.145914 0.377154
O O4 0.485908 0.239075 0.333099
O O5 0.490745 0.229709 0.427512
O O6 0.500000 0.000000 0.378740
O O7 0.250000 0.750000 0.125769
O O8 0.357275 0.596448 0.130849
O O9 0.324149 0.762651 0.204407
O O10 0.500000 0.615172 0.750000
O O11 0.408851 0.595834 0.680529
O O12 0.427298 0.821673 0.735549
O O13 0.892666 0.135476 0.413645
O O14 0.671989 0.000000 0.750000
O O15 0.057072 0.832396 0.500000
O O16 0.000000 0.000000 0.563869
#
# Coordination Sequence:
#
# PCOD8276924 Si02
#       7
#     8  16  16  16  16  16  16
#     4  10  22  36  55  84 128 166 207 258 296 378
#     4  11  23  40  62  95 128 164 210 267 319 379
#     4  12  23  38  60  85 128 174 217 254 313 383
#     4  10  21  35  56  84 120 162 211 263 304 358
#     4  10  23  41  61  92 123 163 218 269 317 381
#     4  11  21  34  50  79 120 174 211 246 302 359
#     4  10  21  43  73  96 118 155 208 274 343 391
#
# _framework density 19.746993
#
# number of rings (size 3 to 8) (size 9 to 14) (size 15 to 20)
#    0.000    1.385    3.846    1.846    0.000    4.615 
#    2.769    0.385    0.000    1.846    0.000    0.000 
#    0.000    0.000    0.000    0.000    0.000    0.000 
#
# Total GULP energy -644396.101275 kJ/mol
# GULP energy per Si atom -12392.232717 kJ/mol
# Density = 1.970205 g / cm^3
# Si number density = 19.746993 Si / 1000 Ang^3
#
#
#
# Elastic Constant Matrix: (Units=GPa)
#
#
# Indices 1 2 3 4 5 6 
#
# 1 123.3189 38.5315 38.5688 0.0000 0.0000 0.0000
# 2 38.5315 85.7381 22.0408 0.0000 0.0000 0.0000
# 3 38.5688 22.0408 99.8312 0.0000 0.0000 0.0000
# 4 0.0000 0.0000 0.0000 33.9289 0.0000 0.0000
# 5 0.0000 0.0000 0.0000 0.0000 22.9740 0.0000
# 6 0.0000 0.0000 0.0000 0.0000 0.0000 53.3524
#
#
#
# Elastic Compliance Matrix: (Units=1/GPa)
#
#
# Indices 1 2 3 4 5 6 
#
# 1 0.010280 -0.003815 -0.003129 0.000000 0.000000 0.000000
# 2 -0.003815 0.013781 -0.001569 0.000000 0.000000 0.000000
# 3 -0.003129 -0.001569 0.011572 0.000000 0.000000 0.000000
# 4 0.000000 0.000000 0.000000 0.029473 0.000000 0.000000
# 5 0.000000 0.000000 0.000000 0.000000 0.043527 0.000000
# 6 0.000000 0.000000 0.000000 0.000000 0.000000 0.018743
#
#
# Mechanical properties :
#
#
# Convention : Reuss Voigt Hill
#
# Bulk Modulus (GPa) = 53.74325 56.35224 55.04774
# Shear Modulus (GPa) = 33.19916 36.03421 34.61669
#
# Velocity S-wave (km/s) = 4.10472 4.27640 4.19144
# Velocity P-wave (km/s) = 7.05266 7.27891 7.16668
#
# Compressibility (1/GPa) = 0.01860699
#
# Stress axis : x y z
#
# Youngs Moduli (GPa) = 97.27744 72.56172 86.41441
#
# Poissons Ratio (x) = 0.27686 0.27040
# Poissons Ratio (y) = 0.37116 0.13555
# Poissons Ratio (z) = 0.30440 0.11382
#
# Static dielectric constant tensor:
#      x y z
#    x 3.695920 0.000000 0.000000 
#    y 0.000000 3.408980 0.000000 
#    z 0.000000 0.000000 4.351490 
# 
# 
# High freq. dielectric constant tensor:
#      x y z
#    x 1.781680 0.000000 0.000000 
#    y 0.000000 1.768300 0.000000 
#    z 0.000000 0.000000 1.737250 
# 
# From -- ./inp_files/70204.got.cif
#   From: 2010.03.12/outbox.cif.g09.slc.cpg/sg66_36_cif.got.tgz:70204.got - 2010.04.10 21:57:39.
