data_PCOD8276279
_publ_section_title
;
Structure prediction by ZEFSAII (Michael W. Deem and Ramdas Pophale) SiO2 
 PCOD8276279
Probable space group: C C C M
;
_chemical_formula_sum "Si O2"
_cell_formula_units_Z 80
_cell_length_a 13.904930
_cell_length_b 12.850216
_cell_length_c 24.152007
_cell_angle_alpha 90.000000
_cell_angle_beta 90.000000
_cell_angle_gamma 90.000000
_cell_volume 4315.513312
_symmetry_space_group_name_H-M "C C C M"
_symmetry_group_IT_number 66
_symmetry_cell_setting 'orthorhombic'
loop_
_space_group_symop_operation_xyz
x,y,z
-x,-y,z
x,-y,1/2-z
-x,y,1/2-z
-x,-y,-z
x,y,-z
-x,y,1/2+z
x,-y,1/2+z
1/2+x,1/2+y,z
1/2-x,1/2-y,z
1/2+x,1/2-y,1/2-z
1/2-x,1/2+y,1/2-z
1/2-x,1/2-y,-z
1/2+x,1/2+y,-z
1/2-x,1/2+y,1/2+z
1/2+x,1/2-y,1/2+z
loop_
_atom_site_type_symbol
_atom_site_label
_atom_site_fract_x
_atom_site_fract_y
_atom_site_fract_z
Si Si1 0.638826 0.763103 0.884723
Si Si2 0.607347 0.052634 0.000000
Si Si3 0.496861 0.878244 0.185563
Si Si4 0.640558 0.784855 0.597421
Si Si5 0.509815 0.620670 0.062766
Si Si6 0.663977 0.834291 0.000000
O O1 0.750000 0.750000 0.874088
O O2 0.596898 0.831122 0.835760
O O3 0.590161 0.650355 0.891312
O O4 0.606315 0.817462 0.942912
O O5 0.627642 0.121849 0.946098
O O6 0.500000 0.000000 0.000000
O O7 0.686899 0.958568 0.000000
O O8 0.500000 0.852527 0.250000
O O9 0.405845 0.824050 0.155450
O O10 0.500000 0.000000 0.173377
O O11 0.750000 0.750000 0.607408
O O12 0.588668 0.681404 0.575075
O O13 0.500000 0.500000 0.071330
O O14 0.544519 0.645708 0.000000
O O15 0.750000 0.750000 0.000000
#
# Coordination Sequence:
#
# PCOD8276279 Si02
#       6
#    16   8  16  16  16   8
#     4  10  20  36  56  83 112 146 188 231 284 340
#     4  12  21  35  57  84 122 158 187 230 290 351
#     4  10  22  40  61  83 109 148 196 248 295 341
#     4  11  23  38  57  86 119 156 195 236 295 356
#     4  10  20  34  52  78 118 152 186 227 273 339
#     4  10  20  31  51  84 113 142 177 222 276 339
#
# _framework density 18.537772
#
# number of rings (size 3 to 8) (size 9 to 14) (size 15 to 20)
#    0.000    1.600    2.000    4.500    0.000    5.600 
#    0.000    0.000    0.000    9.600    0.000    0.000 
#    0.000    0.000    0.000    0.000    0.000    0.000 
#
# Total GULP energy -495648.197185 kJ/mol
# GULP energy per Si atom -12391.204930 kJ/mol
# Density = 1.849558 g / cm^3
# Si number density = 18.537772 Si / 1000 Ang^3
#
#
#
# Elastic Constant Matrix: (Units=GPa)
#
#
# Indices 1 2 3 4 5 6 
#
# 1 147.8718 63.4479 52.5386 0.0000 0.0000 0.0000
# 2 63.4479 134.7706 69.1229 0.0000 0.0000 0.0000
# 3 52.5386 69.1229 122.6610 0.0000 0.0000 0.0000
# 4 0.0000 0.0000 0.0000 25.5015 0.0000 0.0000
# 5 0.0000 0.0000 0.0000 0.0000 21.7852 0.0000
# 6 0.0000 0.0000 0.0000 0.0000 0.0000 24.9638
#
#
#
# Elastic Compliance Matrix: (Units=1/GPa)
#
#
# Indices 1 2 3 4 5 6 
#
# 1 0.008817 -0.003114 -0.002022 0.000000 0.000000 0.000000
# 2 -0.003114 0.011536 -0.005167 0.000000 0.000000 0.000000
# 3 -0.002022 -0.005167 0.011930 0.000000 0.000000 0.000000
# 4 0.000000 0.000000 0.000000 0.039213 0.000000 0.000000
# 5 0.000000 0.000000 0.000000 0.000000 0.045903 0.000000
# 6 0.000000 0.000000 0.000000 0.000000 0.000000 0.040058
#
#
# Mechanical properties :
#
#
# Convention : Reuss Voigt Hill
#
# Bulk Modulus (GPa) = 85.63239 86.16911 85.90075
# Shear Modulus (GPa) = 27.47910 29.12969 28.30440
#
# Velocity S-wave (km/s) = 3.85428 3.96835 3.91173
# Velocity P-wave (km/s) = 8.13026 8.22077 8.17564
#
# Compressibility (1/GPa) = 0.01167782
#
# Stress axis : x y z
#
# Youngs Moduli (GPa) = 113.41638 86.68322 83.81979
#
# Poissons Ratio (x) = 0.26993 0.16946
# Poissons Ratio (y) = 0.35318 0.43311
# Poissons Ratio (z) = 0.22930 0.44791
#
# Static dielectric constant tensor:
#      x y z
#    x 3.332060 0.000000 0.000000 
#    y 0.000000 3.621860 0.000000 
#    z 0.000000 0.000000 3.451570 
# 
# 
# High freq. dielectric constant tensor:
#      x y z
#    x 1.715990 0.000000 0.000000 
#    y 0.000000 1.735790 0.000000 
#    z 0.000000 0.000000 1.703950 
# 
# From -- ./inp_files/57962.got.cif
#   From: 2010.03.12/outbox.cif.g09.slc.cpg/sg66_29_cif.got.tgz:57962.got - 2010.04.10 21:57:39.
