data_PCOD8276926
_publ_section_title
;
Structure prediction by ZEFSAII (Michael W. Deem and Ramdas Pophale) SiO2 
 PCOD8276926
Probable space group: C C C M
;
_chemical_formula_sum "Si O2"
_cell_formula_units_Z 112
_cell_length_a 14.499907
_cell_length_b 26.990418
_cell_length_c 13.659580
_cell_angle_alpha 90.000000
_cell_angle_beta 90.000000
_cell_angle_gamma 90.000000
_cell_volume 5345.793435
_symmetry_space_group_name_H-M "C C C M"
_symmetry_group_IT_number 66
_symmetry_cell_setting 'orthorhombic'
loop_
_space_group_symop_operation_xyz
x,y,z
-x,-y,z
x,-y,1/2-z
-x,y,1/2-z
-x,-y,-z
x,y,-z
-x,y,1/2+z
x,-y,1/2+z
1/2+x,1/2+y,z
1/2-x,1/2-y,z
1/2+x,1/2-y,1/2-z
1/2-x,1/2+y,1/2-z
1/2-x,1/2-y,-z
1/2+x,1/2+y,-z
1/2-x,1/2+y,1/2+z
1/2+x,1/2-y,1/2+z
loop_
_atom_site_type_symbol
_atom_site_label
_atom_site_fract_x
_atom_site_fract_y
_atom_site_fract_z
Si Si1 0.278659 0.854267 0.883914
Si Si2 0.757650 0.551509 0.271961
Si Si3 0.106293 0.307924 0.771308
Si Si4 0.070403 0.850970 0.887030
Si Si5 0.239190 0.628479 0.388136
Si Si6 0.075669 0.038528 0.386274
Si Si7 0.898306 0.208939 0.386439
O O1 0.308017 0.909407 0.845626
O O2 0.341459 0.812368 0.833417
O O3 0.173956 0.844541 0.844744
O O4 0.289889 0.851214 0.000000
O O5 0.814704 0.500000 0.250000
O O6 0.734506 0.578791 0.169845
O O7 0.666304 0.530818 0.323422
O O8 0.143793 0.349625 0.845470
O O9 0.127214 0.254966 0.818788
O O10 0.000000 0.317529 0.750000
O O11 0.034269 0.906560 0.869449
O O12 0.994608 0.813256 0.843904
O O13 0.078235 0.838829 0.000000
O O14 0.224085 0.613601 0.500000
O O15 0.319728 0.668291 0.375278
O O16 0.100904 0.030481 0.500000
O O17 0.000000 0.000000 0.349170
O O18 0.906500 0.225722 0.500000
#
# Coordination Sequence:
#
# PCOD8276926 Si02
#       7
#    16  16  16  16  16  16  16
#     4   9  20  42  64  86 124 166 203 250 307 368
#     4  10  21  35  56  91 122 159 207 249 296 354
#     4  11  24  39  62  92 116 150 206 269 321 368
#     4   8  16  33  56  84 119 164 204 235 285 358
#     4  10  23  42  62  86 125 168 205 249 310 378
#     4   9  18  32  52  81 126 172 209 245 284 343
#     4  10  21  38  61  89 125 165 202 246 302 370
#
# _framework density 20.951052000000001
#
# number of rings (size 3 to 8) (size 9 to 14) (size 15 to 20)
#    0.000    2.429    0.000    2.143    2.000    8.286 
#    2.571    0.000    0.000   17.571    0.000    8.000 
#    0.000    0.000    0.000    0.000    0.000    0.000 
#
# Total GULP energy -694112.916309 kJ/mol
# GULP energy per Si atom -12394.873506 kJ/mol
# Density = 2.090337 g / cm^3
# Si number density = 20.951052 Si / 1000 Ang^3
#
#
#
# Elastic Constant Matrix: (Units=GPa)
#
#
# Indices 1 2 3 4 5 6 
#
# 1 90.0101 45.8476 38.2240 0.0000 0.0000 0.0000
# 2 45.8476 126.9863 60.2996 0.0000 0.0000 0.0000
# 3 38.2240 60.2996 142.9184 0.0000 0.0000 0.0000
# 4 0.0000 0.0000 0.0000 30.3239 0.0000 0.0000
# 5 0.0000 0.0000 0.0000 0.0000 29.8831 0.0000
# 6 0.0000 0.0000 0.0000 0.0000 0.0000 25.6057
#
#
#
# Elastic Compliance Matrix: (Units=1/GPa)
#
#
# Indices 1 2 3 4 5 6 
#
# 1 0.014067 -0.004117 -0.002025 0.000000 0.000000 0.000000
# 2 -0.004117 0.011053 -0.003562 0.000000 0.000000 0.000000
# 3 -0.002025 -0.003562 0.009042 0.000000 0.000000 0.000000
# 4 0.000000 0.000000 0.000000 0.032977 0.000000 0.000000
# 5 0.000000 0.000000 0.000000 0.000000 0.033464 0.000000
# 6 0.000000 0.000000 0.000000 0.000000 0.000000 0.039054
#
#
# Mechanical properties :
#
#
# Convention : Reuss Voigt Hill
#
# Bulk Modulus (GPa) = 67.78579 72.07301 69.92940
# Shear Modulus (GPa) = 30.49098 31.53211 31.01155
#
# Velocity S-wave (km/s) = 3.81904 3.88369 3.85150
# Velocity P-wave (km/s) = 7.20217 7.38824 7.29580
#
# Compressibility (1/GPa) = 0.01475235
#
# Stress axis : x y z
#
# Youngs Moduli (GPa) = 71.08841 90.47420 110.59979
#
# Poissons Ratio (x) = 0.37250 0.22398
# Poissons Ratio (y) = 0.29268 0.39398
# Poissons Ratio (z) = 0.14397 0.32229
#
# Static dielectric constant tensor:
#      x y z
#    x 3.768580 0.000000 0.000000 
#    y 0.000000 3.924030 0.000000 
#    z 0.000000 0.000000 4.010010 
# 
# 
# High freq. dielectric constant tensor:
#      x y z
#    x 1.785120 0.000000 0.000000 
#    y 0.000000 1.819410 0.000000 
#    z 0.000000 0.000000 1.841710 
# 
# From -- ./inp_files/28907.got.cif
#   From: 2010.03.12/outbox.cif.g09.slc.cpg/sg66_15_cif.got.tgz:28907.got - 2010.04.10 21:57:39.
