data_PCOD8276743
_publ_section_title
;
Structure prediction by ZEFSAII (Michael W. Deem and Ramdas Pophale) SiO2 
 PCOD8276743
Probable space group: C C C M
;
_chemical_formula_sum "Si O2"
_cell_formula_units_Z 68
_cell_length_a 22.114235
_cell_length_b 16.420056
_cell_length_c 9.066068
_cell_angle_alpha 90.000000
_cell_angle_beta 90.000000
_cell_angle_gamma 90.000000
_cell_volume 3292.043206
_symmetry_space_group_name_H-M "C C C M"
_symmetry_group_IT_number 66
_symmetry_cell_setting 'orthorhombic'
loop_
_space_group_symop_operation_xyz
x,y,z
-x,-y,z
x,-y,1/2-z
-x,y,1/2-z
-x,-y,-z
x,y,-z
-x,y,1/2+z
x,-y,1/2+z
1/2+x,1/2+y,z
1/2-x,1/2-y,z
1/2+x,1/2-y,1/2-z
1/2-x,1/2+y,1/2-z
1/2-x,1/2-y,-z
1/2+x,1/2+y,-z
1/2-x,1/2+y,1/2+z
1/2+x,1/2-y,1/2+z
loop_
_atom_site_type_symbol
_atom_site_label
_atom_site_fract_x
_atom_site_fract_y
_atom_site_fract_z
Si Si1 0.914832 0.642993 0.166956
Si Si2 0.000000 0.500000 0.750000
Si Si3 0.165607 0.084891 0.330588
Si Si4 0.699715 0.914499 0.328136
Si Si5 0.557062 0.696793 0.675108
O O1 0.849623 0.638097 0.244444
O O2 0.947221 0.712059 0.261418
O O3 0.954456 0.559411 0.160772
O O4 0.904982 0.671982 0.000000
O O5 0.153117 0.065286 0.500000
O O6 0.232868 0.122687 0.309471
O O7 0.118200 0.151893 0.273251
O O8 0.156072 0.000000 0.250000
O O9 0.681806 0.922964 0.500000
O O10 0.700251 0.000000 0.250000
O O11 0.500000 0.649997 0.750000
O O12 0.550286 0.700085 0.500000
#
# Coordination Sequence:
#
# PCOD8276743 Si02
#       5
#    16   4  16  16  16
#     4  12  25  40  62  91 124 164 206 248 301 362
#     4  12  26  40  64  90 128 160 204 232 302 352
#     4   9  21  41  65  91 121 161 202 251 308 365
#     4  10  20  37  61  89 122 159 204 252 302 358
#     4  11  24  42  62  89 125 160 203 254 308 363
#
# _framework density 20.655864999999999
#
# number of rings (size 3 to 8) (size 9 to 14) (size 15 to 20)
#    0.000    1.412    2.353    2.471    0.000    6.118 
#    0.000    7.059    0.000    0.000    0.000    0.000 
#    0.000    0.000    0.000    0.000    0.000    0.000 
#
# Total GULP energy -421378.047149 kJ/mol
# GULP energy per Si atom -12393.471975 kJ/mol
# Density = 2.060885 g / cm^3
# Si number density = 20.655865 Si / 1000 Ang^3
#
#
#
# Elastic Constant Matrix: (Units=GPa)
#
#
# Indices 1 2 3 4 5 6 
#
# 1 166.0757 49.6285 62.1859 0.0000 0.0000 0.0000
# 2 49.6285 69.7831 27.8674 0.0000 0.0000 0.0000
# 3 62.1859 27.8674 114.1129 0.0000 0.0000 0.0000
# 4 0.0000 0.0000 0.0000 21.3681 0.0000 0.0000
# 5 0.0000 0.0000 0.0000 0.0000 32.3615 0.0000
# 6 0.0000 0.0000 0.0000 0.0000 0.0000 33.0639
#
#
#
# Elastic Compliance Matrix: (Units=1/GPa)
#
#
# Indices 1 2 3 4 5 6 
#
# 1 0.008822 -0.004825 -0.003629 0.000000 0.000000 0.000000
# 2 -0.004825 0.018517 -0.001893 0.000000 0.000000 0.000000
# 3 -0.003629 -0.001893 0.011203 0.000000 0.000000 0.000000
# 4 0.000000 0.000000 0.000000 0.046799 0.000000 0.000000
# 5 0.000000 0.000000 0.000000 0.000000 0.030901 0.000000
# 6 0.000000 0.000000 0.000000 0.000000 0.000000 0.030244
#
#
# Mechanical properties :
#
#
# Convention : Reuss Voigt Hill
#
# Bulk Modulus (GPa) = 56.02615 69.92614 62.97615
# Shear Modulus (GPa) = 28.87996 31.37803 30.12899
#
# Velocity S-wave (km/s) = 3.74324 3.90177 3.82333
# Velocity P-wave (km/s) = 6.77237 7.36375 7.07424
#
# Compressibility (1/GPa) = 0.01784881
#
# Stress axis : x y z
#
# Youngs Moduli (GPa) = 113.35122 54.00355 89.25924
#
# Poissons Ratio (x) = 0.26056 0.32396
# Poissons Ratio (y) = 0.54689 0.16895
# Poissons Ratio (z) = 0.41139 0.10222
#
# Static dielectric constant tensor:
#      x y z
#    x 5.305660 0.000000 0.000000 
#    y 0.000000 3.467450 0.000000 
#    z 0.000000 0.000000 3.829210 
# 
# 
# High freq. dielectric constant tensor:
#      x y z
#    x 1.837480 0.000000 0.000000 
#    y 0.000000 1.782870 0.000000 
#    z 0.000000 0.000000 1.811150 
# 
# From -- ./inp_files/6255.got.cif
#   From: 2010.03.12/outbox.cif.g09.slc.cpg/sg66_4_cif.got.tgz:6255.got - 2010.04.10 21:57:39.
