data_PCOD8276172
_publ_section_title
;
Structure prediction by ZEFSAII (Michael W. Deem and Ramdas Pophale) SiO2 
 PCOD8276172
Probable space group: C C C M
;
_chemical_formula_sum "Si O2"
_cell_formula_units_Z 112
_cell_length_a 19.478210
_cell_length_b 11.462430
_cell_length_c 27.663170
_cell_angle_alpha 90.000000
_cell_angle_beta 90.000000
_cell_angle_gamma 90.000000
_cell_volume 6176.290090
_symmetry_space_group_name_H-M "C C C M"
_symmetry_group_IT_number 66
_symmetry_cell_setting 'orthorhombic'
loop_
_space_group_symop_operation_xyz
x,y,z
-x,-y,z
x,-y,1/2-z
-x,y,1/2-z
-x,-y,-z
x,y,-z
-x,y,1/2+z
x,-y,1/2+z
1/2+x,1/2+y,z
1/2-x,1/2-y,z
1/2+x,1/2-y,1/2-z
1/2-x,1/2+y,1/2-z
1/2-x,1/2-y,-z
1/2+x,1/2+y,-z
1/2-x,1/2+y,1/2+z
1/2+x,1/2-y,1/2+z
loop_
_atom_site_type_symbol
_atom_site_label
_atom_site_fract_x
_atom_site_fract_y
_atom_site_fract_z
Si Si1 0.362434 0.779524 0.554116
Si Si2 0.944469 0.656896 0.146853
Si Si3 0.272285 0.567743 0.446196
Si Si4 0.714064 0.627783 0.732385
Si Si5 0.763134 0.372331 0.126359
Si Si6 0.410726 0.896813 0.168692
Si Si7 0.421136 0.733179 0.257027
O O1 0.393807 0.793324 0.500000
O O2 0.417537 0.820540 0.593171
O O3 0.339838 0.646027 0.563162
O O4 0.295592 0.857060 0.559497
O O5 0.928017 0.532110 0.169899
O O6 0.910482 0.742260 0.186056
O O7 0.026737 0.673142 0.143390
O O8 0.275669 0.513859 0.500000
O O9 0.270472 0.468735 0.406798
O O10 0.743889 0.500000 0.750000
O O11 0.750000 0.750000 0.752837
O O12 0.719841 0.627137 0.675260
O O13 0.633141 0.631480 0.745101
O O14 0.750000 0.250000 0.099522
O O15 0.843572 0.384585 0.136147
O O16 0.402314 0.845617 0.223110
O O17 0.500000 0.692512 0.250000
#
# Coordination Sequence:
#
# PCOD8276172 Si02
#       7
#    16  16  16  16  16  16  16
#     4   9  18  35  56  85 114 139 186 246 283 329
#     4  10  20  32  60  81 111 157 190 226 292 351
#     4   9  19  35  57  82 111 146 186 233 289 341
#     4  11  25  38  57  87 118 154 192 241 287 339
#     4  11  21  37  57  77 119 146 181 238 286 333
#     4  10  19  36  50  85 117 150 188 232 283 341
#     4  10  21  38  56  80 117 155 197 230 279 345
#
# _framework density 18.133863000000002
#
# number of rings (size 3 to 8) (size 9 to 14) (size 15 to 20)
#    0.000    2.000    4.286    1.286    4.000    2.286 
#    0.000    2.143    0.000    0.857    0.000    2.000 
#    0.000    0.000    0.000    0.000    0.000    0.000 
#
# Total GULP energy -693844.528506 kJ/mol
# GULP energy per Si atom -12390.080866 kJ/mol
# Density = 1.809259 g / cm^3
# Si number density = 18.133863 Si / 1000 Ang^3
#
#
#
# Elastic Constant Matrix: (Units=GPa)
#
#
# Indices 1 2 3 4 5 6 
#
# 1 59.4961 16.6323 20.3511 0.0000 0.0000 0.0000
# 2 16.6323 92.1804 33.2221 0.0000 0.0000 0.0000
# 3 20.3511 33.2221 95.4605 0.0000 0.0000 0.0000
# 4 0.0000 0.0000 0.0000 27.0079 0.0000 0.0000
# 5 0.0000 0.0000 0.0000 0.0000 23.6052 0.0000
# 6 0.0000 0.0000 0.0000 0.0000 0.0000 21.8311
#
#
#
# Elastic Compliance Matrix: (Units=1/GPa)
#
#
# Indices 1 2 3 4 5 6 
#
# 1 0.018510 -0.002193 -0.003183 0.000000 0.000000 0.000000
# 2 -0.002193 0.012664 -0.003940 0.000000 0.000000 0.000000
# 3 -0.003183 -0.003940 0.012525 0.000000 0.000000 0.000000
# 4 0.000000 0.000000 0.000000 0.037026 0.000000 0.000000
# 5 0.000000 0.000000 0.000000 0.000000 0.042364 0.000000
# 6 0.000000 0.000000 0.000000 0.000000 0.000000 0.045806
#
#
# Mechanical properties :
#
#
# Convention : Reuss Voigt Hill
#
# Bulk Modulus (GPa) = 39.89170 43.06090 41.47630
# Shear Modulus (GPa) = 25.52566 26.28426 25.90496
#
# Velocity S-wave (km/s) = 3.75590 3.81130 3.78370
# Velocity P-wave (km/s) = 6.39181 6.57006 6.48155
#
# Compressibility (1/GPa) = 0.02506787
#
# Stress axis : x y z
#
# Youngs Moduli (GPa) = 54.02626 78.96509 79.83868
#
# Poissons Ratio (x) = 0.17314 0.25412
# Poissons Ratio (y) = 0.11846 0.31455
# Poissons Ratio (z) = 0.17196 0.31111
#
# Static dielectric constant tensor:
#      x y z
#    x 3.499640 0.000000 0.000000 
#    y 0.000000 3.948680 0.000000 
#    z 0.000000 0.000000 3.303060 
# 
# 
# High freq. dielectric constant tensor:
#      x y z
#    x 1.698670 0.000000 0.000000 
#    y 0.000000 1.692070 0.000000 
#    z 0.000000 0.000000 1.692560 
# 
# From -- ./inp_files/65829.got.cif
#   From: 2010.03.12/outbox.cif.g09.slc.cpg/sg66_33_cif.got.tgz:65829.got - 2010.04.10 21:57:39.
