data_PCOD8276476
_publ_section_title
;
Structure prediction by ZEFSAII (Michael W. Deem and Ramdas Pophale) SiO2 
 PCOD8276476
Probable space group: C C C M
;
_chemical_formula_sum "Si O2"
_cell_formula_units_Z 112
_cell_length_a 27.760889
_cell_length_b 15.052932
_cell_length_c 14.201907
_cell_angle_alpha 90.000000
_cell_angle_beta 90.000000
_cell_angle_gamma 90.000000
_cell_volume 5934.732299
_symmetry_space_group_name_H-M "C C C M"
_symmetry_group_IT_number 66
_symmetry_cell_setting 'orthorhombic'
loop_
_space_group_symop_operation_xyz
x,y,z
-x,-y,z
x,-y,1/2-z
-x,y,1/2-z
-x,-y,-z
x,y,-z
-x,y,1/2+z
x,-y,1/2+z
1/2+x,1/2+y,z
1/2-x,1/2-y,z
1/2+x,1/2-y,1/2-z
1/2-x,1/2+y,1/2-z
1/2-x,1/2-y,-z
1/2+x,1/2+y,-z
1/2-x,1/2+y,1/2+z
1/2+x,1/2-y,1/2+z
loop_
_atom_site_type_symbol
_atom_site_label
_atom_site_fract_x
_atom_site_fract_y
_atom_site_fract_z
Si Si1 0.947493 0.024596 0.604855
Si Si2 0.138251 0.096597 0.220913
Si Si3 0.301952 0.731317 0.607413
Si Si4 0.055342 0.477283 0.392875
Si Si5 0.400829 0.664779 0.102915
Si Si6 0.946273 0.693182 0.718551
Si Si7 0.107480 0.660487 0.394355
O O1 0.952151 0.068963 0.500000
O O2 0.916026 0.086243 0.675550
O O3 0.920671 0.932774 0.592587
O O4 0.000000 0.000000 0.647189
O O5 0.174236 0.142640 0.149027
O O6 0.138606 0.160199 0.313788
O O7 0.158607 0.000000 0.250000
O O8 0.293205 0.705537 0.500000
O O9 0.250000 0.750000 0.655686
O O10 0.335480 0.819689 0.616220
O O11 0.058281 0.443688 0.500000
O O12 0.073171 0.399618 0.323995
O O13 0.092026 0.558863 0.376625
O O14 0.000000 0.500000 0.367963
O O15 0.442093 0.732825 0.137456
O O16 0.380559 0.695179 0.000000
O O17 0.917034 0.720117 0.813104
O O18 0.000000 0.681575 0.750000
O O19 0.090429 0.688999 0.500000
#
# Coordination Sequence:
#
# PCOD8276476 Si02
#       7
#    16  16  16  16  16  16  16
#     4   9  19  34  54  81 116 151 190 239 293 354
#     4  10  20  36  59  84 114 153 192 237 295 358
#     4  10  21  40  66  93 118 146 192 255 308 346
#     4  10  20  35  52  77 115 155 196 237 282 345
#     4  10  22  35  49  76 110 151 195 240 287 343
#     4  12  22  32  53  78 112 160 200 234 280 346
#     4  10  21  36  55  82 112 146 190 239 289 344
#
# _framework density 18.871955
#
# number of rings (size 3 to 8) (size 9 to 14) (size 15 to 20)
#    0.000    1.857    2.857    1.286    2.000    3.143 
#    0.000    1.429    0.000    0.429    0.000    0.000 
#    0.000    0.000    0.000    0.000    0.000    0.000 
#
# Total GULP energy -693827.551222 kJ/mol
# GULP energy per Si atom -12389.777700 kJ/mol
# Density = 1.882900 g / cm^3
# Si number density = 18.871955 Si / 1000 Ang^3
#
#
#
# Elastic Constant Matrix: (Units=GPa)
#
#
# Indices 1 2 3 4 5 6 
#
# 1 107.8215 35.3257 41.0804 0.0000 0.0000 0.0000
# 2 35.3257 71.6015 36.4396 0.0000 0.0000 0.0000
# 3 41.0804 36.4396 129.5615 0.0000 0.0000 0.0000
# 4 0.0000 0.0000 0.0000 23.9765 0.0000 0.0000
# 5 0.0000 0.0000 0.0000 0.0000 14.1348 0.0000
# 6 0.0000 0.0000 0.0000 0.0000 0.0000 23.1973
#
#
#
# Elastic Compliance Matrix: (Units=1/GPa)
#
#
# Indices 1 2 3 4 5 6 
#
# 1 0.011684 -0.004527 -0.002431 0.000000 0.000000 0.000000
# 2 -0.004527 0.018053 -0.003642 0.000000 0.000000 0.000000
# 3 -0.002431 -0.003642 0.009514 0.000000 0.000000 0.000000
# 4 0.000000 0.000000 0.000000 0.041707 0.000000 0.000000
# 5 0.000000 0.000000 0.000000 0.000000 0.070747 0.000000
# 6 0.000000 0.000000 0.000000 0.000000 0.000000 0.043108
#
#
# Mechanical properties :
#
#
# Convention : Reuss Voigt Hill
#
# Bulk Modulus (GPa) = 55.40264 59.40842 57.40553
# Shear Modulus (GPa) = 22.51926 25.33767 23.92846
#
# Velocity S-wave (km/s) = 3.45812 3.66814 3.56467
# Velocity P-wave (km/s) = 6.73540 7.03480 6.88673
#
# Compressibility (1/GPa) = 0.01804968
#
# Stress axis : x y z
#
# Youngs Moduli (GPa) = 85.58551 55.39164 105.11214
#
# Poissons Ratio (x) = 0.25077 0.25558
# Poissons Ratio (y) = 0.38746 0.38283
# Poissons Ratio (z) = 0.20810 0.20174
#
# Static dielectric constant tensor:
#      x y z
#    x 3.203370 0.000000 0.000000 
#    y 0.000000 3.338020 0.000000 
#    z 0.000000 0.000000 4.534830 
# 
# 
# High freq. dielectric constant tensor:
#      x y z
#    x 1.679090 0.000000 0.000000 
#    y 0.000000 1.729240 0.000000 
#    z 0.000000 0.000000 1.760080 
# 
# From -- ./inp_files/33315.got.cif
#   From: 2010.03.12/outbox.cif.g09.slc.cpg/sg66_17_cif.got.tgz:33315.got - 2010.04.10 21:57:39.
