data_PCOD8276160
_publ_section_title
;
Structure prediction by ZEFSAII (Michael W. Deem and Ramdas Pophale) SiO2 
 PCOD8276160
Probable space group: C C C M
;
_chemical_formula_sum "Si O2"
_cell_formula_units_Z 64
_cell_length_a 14.730481
_cell_length_b 8.659467
_cell_length_c 24.537436
_cell_angle_alpha 90.000000
_cell_angle_beta 90.000000
_cell_angle_gamma 90.000000
_cell_volume 3129.949061
_symmetry_space_group_name_H-M "C C C M"
_symmetry_group_IT_number 66
_symmetry_cell_setting 'orthorhombic'
loop_
_space_group_symop_operation_xyz
x,y,z
-x,-y,z
x,-y,1/2-z
-x,y,1/2-z
-x,-y,-z
x,y,-z
-x,y,1/2+z
x,-y,1/2+z
1/2+x,1/2+y,z
1/2-x,1/2-y,z
1/2+x,1/2-y,1/2-z
1/2-x,1/2+y,1/2-z
1/2-x,1/2-y,-z
1/2+x,1/2+y,-z
1/2-x,1/2+y,1/2+z
1/2+x,1/2-y,1/2+z
loop_
_atom_site_type_symbol
_atom_site_label
_atom_site_fract_x
_atom_site_fract_y
_atom_site_fract_z
Si Si1 0.100739 0.432673 0.382123
Si Si2 0.600247 0.432764 0.111329
Si Si3 0.404203 0.930646 0.000000
Si Si4 0.256191 0.432182 0.190350
Si Si5 0.664791 0.629626 0.500000
O O1 0.098101 0.248612 0.375421
O O2 0.143270 0.477670 0.442460
O O3 0.165417 0.502207 0.336905
O O4 0.000000 0.500000 0.374607
O O5 0.500000 0.500000 0.107227
O O6 0.653123 0.520142 0.158781
O O7 0.655924 0.469817 0.055117
O O8 0.421622 0.745671 0.000000
O O9 0.500000 0.000000 0.000000
O O10 0.263631 0.500000 0.250000
O O11 0.250000 0.250000 0.193102
O O12 0.750000 0.750000 0.500000
#
# Coordination Sequence:
#
# PCOD8276160 Si02
#       5
#    16  16   8  16   8
#     4  10  20  39  64  93 126 163 202 252 310 370
#     4  11  22  39  63  94 128 165 206 252 305 369
#     4   8  16  31  57  88 122 156 190 233 293 358
#     4  12  26  44  63  87 118 161 212 263 314 371
#     4  10  19  35  61  92 128 168 202 245 305 366
#
# _framework density 20.447617999999999
#
# number of rings (size 3 to 8) (size 9 to 14) (size 15 to 20)
#    0.000    1.500    0.000    7.125    0.000    1.000 
#    0.000   10.000    0.000    0.000    0.000    0.000 
#    0.000    0.000    0.000    0.000    0.000    0.000 
#
# Total GULP energy -396448.449128 kJ/mol
# GULP energy per Si atom -12389.014035 kJ/mol
# Density = 2.040108 g / cm^3
# Si number density = 20.447618 Si / 1000 Ang^3
#
#
#
# Elastic Constant Matrix: (Units=GPa)
#
#
# Indices 1 2 3 4 5 6 
#
# 1 134.0932 54.3628 77.3281 0.0000 0.0000 0.0000
# 2 54.3628 143.0681 65.2744 0.0000 0.0000 0.0000
# 3 77.3281 65.2744 196.7034 0.0000 0.0000 0.0000
# 4 0.0000 0.0000 0.0000 26.2693 0.0000 0.0000
# 5 0.0000 0.0000 0.0000 0.0000 46.2685 0.0000
# 6 0.0000 0.0000 0.0000 0.0000 0.0000 41.3596
#
#
#
# Elastic Compliance Matrix: (Units=1/GPa)
#
#
# Indices 1 2 3 4 5 6 
#
# 1 0.010319 -0.002440 -0.003247 0.000000 0.000000 0.000000
# 2 -0.002440 0.008813 -0.001966 0.000000 0.000000 0.000000
# 3 -0.003247 -0.001966 0.007013 0.000000 0.000000 0.000000
# 4 0.000000 0.000000 0.000000 0.038067 0.000000 0.000000
# 5 0.000000 0.000000 0.000000 0.000000 0.021613 0.000000
# 6 0.000000 0.000000 0.000000 0.000000 0.000000 0.024178
#
#
# Mechanical properties :
#
#
# Convention : Reuss Voigt Hill
#
# Bulk Modulus (GPa) = 92.24629 96.42168 94.33398
# Shear Modulus (GPa) = 38.78330 41.23945 40.01137
#
# Velocity S-wave (km/s) = 4.35985 4.49579 4.42834
# Velocity P-wave (km/s) = 8.39975 8.61437 8.50774
#
# Compressibility (1/GPa) = 0.01084054
#
# Stress axis : x y z
#
# Youngs Moduli (GPa) = 96.90847 113.46274 142.60110
#
# Poissons Ratio (x) = 0.27680 0.46304
# Poissons Ratio (y) = 0.23641 0.28030
# Poissons Ratio (z) = 0.31467 0.22303
#
# Static dielectric constant tensor:
#      x y z
#    x 3.687920 0.000000 0.000000 
#    y 0.000000 3.639060 0.000000 
#    z 0.000000 0.000000 1.195260 
# 
# 
# High freq. dielectric constant tensor:
#      x y z
#    x 1.806670 0.000000 0.000000 
#    y 0.000000 1.793860 0.000000 
#    z 0.000000 0.000000 1.814800 
# 
# From -- ./inp_files/57713.got.cif
#   From: 2010.03.12/outbox.cif.g09.slc.cpg/sg66_29_cif.got.tgz:57713.got - 2010.04.10 21:57:39.
