data_PCOD8276616
_publ_section_title
;
Structure prediction by ZEFSAII (Michael W. Deem and Ramdas Pophale) SiO2 
 PCOD8276616
Probable space group: C C C M
;
_chemical_formula_sum "Si O2"
_cell_formula_units_Z 116
_cell_length_a 22.641248
_cell_length_b 26.120644
_cell_length_c 9.691629
_cell_angle_alpha 90.000000
_cell_angle_beta 90.000000
_cell_angle_gamma 90.000000
_cell_volume 5731.667951
_symmetry_space_group_name_H-M "C C C M"
_symmetry_group_IT_number 66
_symmetry_cell_setting 'orthorhombic'
loop_
_space_group_symop_operation_xyz
x,y,z
-x,-y,z
x,-y,1/2-z
-x,y,1/2-z
-x,-y,-z
x,y,-z
-x,y,1/2+z
x,-y,1/2+z
1/2+x,1/2+y,z
1/2-x,1/2-y,z
1/2+x,1/2-y,1/2-z
1/2-x,1/2+y,1/2-z
1/2-x,1/2-y,-z
1/2+x,1/2+y,-z
1/2-x,1/2+y,1/2+z
1/2+x,1/2-y,1/2+z
loop_
_atom_site_type_symbol
_atom_site_label
_atom_site_fract_x
_atom_site_fract_y
_atom_site_fract_z
Si Si1 0.124985 0.289638 0.154703
Si Si2 0.731995 0.191503 0.840844
Si Si3 0.552477 0.306363 0.660035
Si Si4 0.000000 0.000000 0.750000
Si Si5 0.836041 0.548307 0.159179
Si Si6 0.447110 0.883463 0.346539
Si Si7 0.282440 0.394359 0.837311
Si Si8 0.089094 0.085025 0.843197
O O1 0.168592 0.312304 0.268592
O O2 0.109353 0.230148 0.179981
O O3 0.064632 0.322630 0.164874
O O4 0.152352 0.296700 0.000000
O O5 0.750000 0.250000 0.831541
O O6 0.778436 0.156952 0.755338
O O7 0.728301 0.172914 0.000000
O O8 0.500000 0.282607 0.750000
O O9 0.533398 0.308202 0.500000
O O10 0.565575 0.362684 0.726529
O O11 0.044811 0.036682 0.832539
O O12 0.851579 0.500000 0.250000
O O13 0.885527 0.589988 0.193237
O O14 0.771994 0.569536 0.202329
O O15 0.836096 0.532069 0.000000
O O16 0.500000 0.901763 0.250000
O O17 0.466624 0.899117 0.500000
O O18 0.343136 0.424702 0.794421
O O19 0.281357 0.379764 0.000000
O O20 0.093358 0.100622 0.000000
#
# Coordination Sequence:
#
# PCOD8276616 Si02
#       8
#    16  16  16   4  16  16  16  16
#     4  10  20  37  61  86 121 165 207 247 299 370
#     4  11  23  37  57  92 131 160 199 253 313 368
#     4  10  20  36  57  86 120 159 207 255 307 369
#     4  12  22  40  64  90 132 160 204 272 320 360
#     4  10  22  40  62  88 121 156 204 259 305 367
#     4  10  21  38  59  89 121 157 203 248 299 361
#     4  10  21  42  66  88 121 164 212 255 302 376
#     4  10  22  39  61  89 119 161 210 254 312 377
#
# _framework density 20.238437999999999
#
# number of rings (size 3 to 8) (size 9 to 14) (size 15 to 20)
#    0.000    1.793    2.069    1.862    0.966    4.690 
#    0.000    3.448    0.000    0.000    0.000    0.000 
#    0.000    0.000    0.000    0.000    0.000    0.000 
#
# Total GULP energy -718844.410184 kJ/mol
# GULP energy per Si atom -12393.869141 kJ/mol
# Density = 2.019237 g / cm^3
# Si number density = 20.238438 Si / 1000 Ang^3
#
#
#
# Elastic Constant Matrix: (Units=GPa)
#
#
# Indices 1 2 3 4 5 6 
#
# 1 137.2908 39.0488 50.3534 0.0000 0.0000 0.0000
# 2 39.0488 99.2249 36.9375 0.0000 0.0000 0.0000
# 3 50.3534 36.9375 78.2306 0.0000 0.0000 0.0000
# 4 0.0000 0.0000 0.0000 26.8094 0.0000 0.0000
# 5 0.0000 0.0000 0.0000 0.0000 29.4028 0.0000
# 6 0.0000 0.0000 0.0000 0.0000 0.0000 29.1943
#
#
#
# Elastic Compliance Matrix: (Units=1/GPa)
#
#
# Indices 1 2 3 4 5 6 
#
# 1 0.009801 -0.001830 -0.005444 0.000000 0.000000 0.000000
# 2 -0.001830 0.012569 -0.004756 0.000000 0.000000 0.000000
# 3 -0.005444 -0.004756 0.018533 0.000000 0.000000 0.000000
# 4 0.000000 0.000000 0.000000 0.037300 0.000000 0.000000
# 5 0.000000 0.000000 0.000000 0.000000 0.034010 0.000000
# 6 0.000000 0.000000 0.000000 0.000000 0.000000 0.034253
#
#
# Mechanical properties :
#
#
# Convention : Reuss Voigt Hill
#
# Bulk Modulus (GPa) = 59.38016 63.04728 61.21372
# Shear Modulus (GPa) = 28.38600 29.64174 29.01387
#
# Velocity S-wave (km/s) = 3.74916 3.83120 3.79040
# Velocity P-wave (km/s) = 6.93871 7.12675 7.03336
#
# Compressibility (1/GPa) = 0.01684064
#
# Stress axis : x y z
#
# Youngs Moduli (GPa) = 102.02817 79.56010 53.95839
#
# Poissons Ratio (x) = 0.14563 0.29377
# Poissons Ratio (y) = 0.18676 0.25665
# Poissons Ratio (z) = 0.55547 0.37843
#
# Static dielectric constant tensor:
#      x y z
#    x 3.691660 0.000000 0.000000 
#    y 0.000000 3.639160 0.000000 
#    z 0.000000 0.000000 3.557350 
# 
# 
# High freq. dielectric constant tensor:
#      x y z
#    x 1.792840 0.000000 0.000000 
#    y 0.000000 1.790690 0.000000 
#    z 0.000000 0.000000 1.774190 
# 
# From -- ./inp_files/9449.got.cif
#   From: 2010.03.12/outbox.cif.g09.slc.cpg/sg66_5_cif.got.tgz:9449.got - 2010.04.10 21:57:39.
