data_PCOD8276214
_publ_section_title
;
Structure prediction by ZEFSAII (Michael W. Deem and Ramdas Pophale) SiO2 
 PCOD8276214
Probable space group: C C C M
;
_chemical_formula_sum "Si O2"
_cell_formula_units_Z 80
_cell_length_a 23.455494
_cell_length_b 9.055627
_cell_length_c 20.553589
_cell_angle_alpha 90.000000
_cell_angle_beta 90.000000
_cell_angle_gamma 90.000000
_cell_volume 4365.668727
_symmetry_space_group_name_H-M "C C C M"
_symmetry_group_IT_number 66
_symmetry_cell_setting 'orthorhombic'
loop_
_space_group_symop_operation_xyz
x,y,z
-x,-y,z
x,-y,1/2-z
-x,y,1/2-z
-x,-y,-z
x,y,-z
-x,y,1/2+z
x,-y,1/2+z
1/2+x,1/2+y,z
1/2-x,1/2-y,z
1/2+x,1/2-y,1/2-z
1/2-x,1/2+y,1/2-z
1/2-x,1/2-y,-z
1/2+x,1/2+y,-z
1/2-x,1/2+y,1/2+z
1/2+x,1/2-y,1/2+z
loop_
_atom_site_type_symbol
_atom_site_label
_atom_site_fract_x
_atom_site_fract_y
_atom_site_fract_z
Si Si1 0.887735 0.787254 0.500000
Si Si2 0.000000 0.500000 0.396345
Si Si3 0.628915 0.612889 0.000000
Si Si4 0.986332 0.256078 0.500000
Si Si5 0.315396 0.784906 0.616512
Si Si6 0.122615 0.588332 0.124566
Si Si7 0.694233 0.829918 0.260554
O O1 0.873155 0.693329 0.436973
O O2 0.954112 0.828306 0.500000
O O3 0.853478 0.940888 0.500000
O O4 0.020147 0.639353 0.437816
O O5 0.057594 0.459598 0.356606
O O6 0.650244 0.683234 0.067095
O O7 0.561122 0.630850 0.000000
O O8 0.250000 0.750000 0.599516
O O9 0.325963 0.750480 0.693302
O O10 0.335146 0.953745 0.606368
O O11 0.143734 0.680319 0.187043
O O12 0.750000 0.750000 0.288891
O O13 0.710808 0.000000 0.250000
#
# Coordination Sequence:
#
# PCOD8276214 Si02
#       7
#     8   8   8   8  16  16  16
#     4  10  23  32  54  87 112 145 183 231 278 332
#     4   9  16  32  61  84 106 144 182 230 274 329
#     4  12  20  35  56  82 112 147 187 230 276 334
#     4   9  17  33  55  79 112 145 179 221 282 331
#     4  10  21  37  56  80 109 148 188 226 275 337
#     4  10  19  37  58  83 114 145 186 231 280 331
#     4   9  20  37  57  79 111 148 186 224 278 338
#
# _framework density 18.324797
#
# number of rings (size 3 to 8) (size 9 to 14) (size 15 to 20)
#    0.000    2.200    2.000    1.800    0.000    4.800 
#    0.000    6.000    0.000    0.000    0.000    2.800 
#    0.000    0.000    0.000    0.000    0.000    0.000 
#
# Total GULP energy -495660.412630 kJ/mol
# GULP energy per Si atom -12391.510316 kJ/mol
# Density = 1.828309 g / cm^3
# Si number density = 18.324797 Si / 1000 Ang^3
#
#
#
# Elastic Constant Matrix: (Units=GPa)
#
#
# Indices 1 2 3 4 5 6 
#
# 1 120.6565 44.2062 73.3313 0.0000 0.0000 0.0000
# 2 44.2062 78.4328 50.7120 0.0000 0.0000 0.0000
# 3 73.3313 50.7120 119.9879 0.0000 0.0000 0.0000
# 4 0.0000 0.0000 0.0000 9.4785 0.0000 0.0000
# 5 0.0000 0.0000 0.0000 0.0000 43.4770 0.0000
# 6 0.0000 0.0000 0.0000 0.0000 0.0000 33.3028
#
#
#
# Elastic Compliance Matrix: (Units=1/GPa)
#
#
# Indices 1 2 3 4 5 6 
#
# 1 0.013741 -0.003185 -0.007051 0.000000 0.000000 0.000000
# 2 -0.003185 0.018282 -0.005780 0.000000 0.000000 0.000000
# 3 -0.007051 -0.005780 0.015087 0.000000 0.000000 0.000000
# 4 0.000000 0.000000 0.000000 0.105501 0.000000 0.000000
# 5 0.000000 0.000000 0.000000 0.000000 0.023001 0.000000
# 6 0.000000 0.000000 0.000000 0.000000 0.000000 0.030028
#
#
# Mechanical properties :
#
#
# Convention : Reuss Voigt Hill
#
# Bulk Modulus (GPa) = 66.33137 72.84179 69.58658
# Shear Modulus (GPa) = 20.60171 27.30685 23.95428
#
# Velocity S-wave (km/s) = 3.35663 3.86444 3.61945
# Velocity P-wave (km/s) = 7.16232 7.72972 7.45142
#
# Compressibility (1/GPa) = 0.01507582
#
# Stress axis : x y z
#
# Youngs Moduli (GPa) = 72.77660 54.69773 66.28364
#
# Poissons Ratio (x) = 0.17423 0.46740
# Poissons Ratio (y) = 0.23181 0.38313
# Poissons Ratio (z) = 0.51318 0.31616
#
# Static dielectric constant tensor:
#      x y z
#    x 3.519700 0.000000 0.000000 
#    y 0.000000 3.260620 0.000000 
#    z 0.000000 0.000000 3.462930 
# 
# 
# High freq. dielectric constant tensor:
#      x y z
#    x 1.713770 0.000000 0.000000 
#    y 0.000000 1.700710 0.000000 
#    z 0.000000 0.000000 1.706310 
# 
# From -- ./inp_files/44166.got.cif
#   From: 2010.03.12/outbox.cif.g09.slc.cpg/sg66_23_cif.got.tgz:44166.got - 2010.04.10 21:57:39.
