data_PCOD8276946
_publ_section_title
;
Structure prediction by ZEFSAII (Michael W. Deem and Ramdas Pophale) SiO2 
 PCOD8276946
Probable space group: C C C M
;
_chemical_formula_sum "Si O2"
_cell_formula_units_Z 88
_cell_length_a 12.361808
_cell_length_b 21.489394
_cell_length_c 18.846520
_cell_angle_alpha 90.000000
_cell_angle_beta 90.000000
_cell_angle_gamma 90.000000
_cell_volume 5006.535872
_symmetry_space_group_name_H-M "C C C M"
_symmetry_group_IT_number 66
_symmetry_cell_setting 'orthorhombic'
loop_
_space_group_symop_operation_xyz
x,y,z
-x,-y,z
x,-y,1/2-z
-x,y,1/2-z
-x,-y,-z
x,y,-z
-x,y,1/2+z
x,-y,1/2+z
1/2+x,1/2+y,z
1/2-x,1/2-y,z
1/2+x,1/2-y,1/2-z
1/2-x,1/2+y,1/2-z
1/2-x,1/2-y,-z
1/2+x,1/2+y,-z
1/2-x,1/2+y,1/2+z
1/2+x,1/2-y,1/2+z
loop_
_atom_site_type_symbol
_atom_site_label
_atom_site_fract_x
_atom_site_fract_y
_atom_site_fract_z
Si Si1 0.525581 0.094024 0.416200
Si Si2 0.250000 0.250000 0.743895
Si Si3 0.826303 0.485044 0.083989
Si Si4 0.940385 0.171003 0.180240
Si Si5 0.940979 0.293212 0.678807
Si Si6 0.910212 0.051395 0.915823
O O1 0.530161 0.097498 0.500000
O O2 0.407892 0.069445 0.391316
O O3 0.541522 0.161957 0.386488
O O4 0.622611 0.049734 0.387809
O O5 0.175808 0.203664 0.696391
O O6 0.183126 0.292502 0.798158
O O7 0.705350 0.473916 0.113021
O O8 0.821566 0.487306 0.000000
O O9 0.932234 0.117022 0.122126
O O10 0.000000 0.143089 0.250000
O O11 0.017833 0.225955 0.151776
O O12 0.000000 0.316163 0.750000
O O13 0.909255 0.063833 0.000000
O O14 0.000000 0.000000 0.895630
#
# Coordination Sequence:
#
# PCOD8276946 Si02
#       6
#    16   8  16  16  16  16
#     4   9  17  33  54  76 103 136 174 213 263 315
#     4   8  18  36  52  70 104 140 168 218 264 310
#     4   8  17  32  51  75 105 138 167 209 264 310
#     4   9  20  36  54  76 105 141 175 208 263 313
#     4   9  19  33  52  75 104 135 172 217 264 307
#     4  10  21  36  55  79 108 138 175 218 258 308
#
# _framework density 17.577023000000001
#
# number of rings (size 3 to 8) (size 9 to 14) (size 15 to 20)
#    0.000    3.455    0.000    1.091    5.091    4.000 
#    0.000    2.727    0.000    0.000    0.000    0.000 
#    0.000    0.000    0.000    0.000    0.000    0.000 
#
# Total GULP energy -545128.586785 kJ/mol
# GULP energy per Si atom -12389.286063 kJ/mol
# Density = 1.753702 g / cm^3
# Si number density = 17.577023 Si / 1000 Ang^3
#
#
#
# Elastic Constant Matrix: (Units=GPa)
#
#
# Indices 1 2 3 4 5 6 
#
# 1 102.2030 53.0309 42.0794 0.0000 0.0000 0.0000
# 2 53.0309 119.6836 51.5771 0.0000 0.0000 0.0000
# 3 42.0794 51.5771 41.7622 0.0000 0.0000 0.0000
# 4 0.0000 0.0000 0.0000 30.6462 0.0000 0.0000
# 5 0.0000 0.0000 0.0000 0.0000 11.8243 0.0000
# 6 0.0000 0.0000 0.0000 0.0000 0.0000 15.9012
#
#
#
# Elastic Compliance Matrix: (Units=1/GPa)
#
#
# Indices 1 2 3 4 5 6 
#
# 1 0.016727 -0.000317 -0.016462 0.000000 0.000000 0.000000
# 2 -0.000317 0.017868 -0.021748 0.000000 0.000000 0.000000
# 3 -0.016462 -0.021748 0.067391 0.000000 0.000000 0.000000
# 4 0.000000 0.000000 0.000000 0.032631 0.000000 0.000000
# 5 0.000000 0.000000 0.000000 0.000000 0.084571 0.000000
# 6 0.000000 0.000000 0.000000 0.000000 0.000000 0.062888
#
#
# Mechanical properties :
#
#
# Convention : Reuss Voigt Hill
#
# Bulk Modulus (GPa) = 40.10928 61.89151 51.00040
# Shear Modulus (GPa) = 13.60762 19.47177 16.53970
#
# Velocity S-wave (km/s) = 2.78541 3.33197 3.07087
# Velocity P-wave (km/s) = 5.76311 7.07748 6.45384
#
# Compressibility (1/GPa) = 0.02493189
#
# Stress axis : x y z
#
# Youngs Moduli (GPa) = 59.78377 55.96592 14.83873
#
# Poissons Ratio (x) = 0.01776 0.24428
# Poissons Ratio (y) = 0.01897 0.32271
# Poissons Ratio (z) = 0.98417 1.21713
#
# Static dielectric constant tensor:
#      x y z
#    x 3.651930 0.000000 0.000000 
#    y 0.000000 3.153250 0.000000 
#    z 0.000000 0.000000 2.899490 
# 
# 
# High freq. dielectric constant tensor:
#      x y z
#    x 1.696580 0.000000 0.000000 
#    y 0.000000 1.674430 0.000000 
#    z 0.000000 0.000000 1.647930 
# 
# From -- ./inp_files/48547.got.cif
#   From: 2010.03.12/outbox.cif.g09.slc.cpg/sg66_25_cif.got.tgz:48547.got - 2010.04.10 21:57:39.
