data_PCOD8276840
_publ_section_title
;
Structure prediction by ZEFSAII (Michael W. Deem and Ramdas Pophale) SiO2 
 PCOD8276840
Probable space group: C C C M
;
_chemical_formula_sum "Si O2"
_cell_formula_units_Z 80
_cell_length_a 22.629716
_cell_length_b 17.775300
_cell_length_c 10.032153
_cell_angle_alpha 90.000000
_cell_angle_beta 90.000000
_cell_angle_gamma 90.000000
_cell_volume 4035.433452
_symmetry_space_group_name_H-M "C C C M"
_symmetry_group_IT_number 66
_symmetry_cell_setting 'orthorhombic'
loop_
_space_group_symop_operation_xyz
x,y,z
-x,-y,z
x,-y,1/2-z
-x,y,1/2-z
-x,-y,-z
x,y,-z
-x,y,1/2+z
x,-y,1/2+z
1/2+x,1/2+y,z
1/2-x,1/2-y,z
1/2+x,1/2-y,1/2-z
1/2-x,1/2+y,1/2-z
1/2-x,1/2-y,-z
1/2+x,1/2+y,-z
1/2-x,1/2+y,1/2+z
1/2+x,1/2-y,1/2+z
loop_
_atom_site_type_symbol
_atom_site_label
_atom_site_fract_x
_atom_site_fract_y
_atom_site_fract_z
Si Si1 0.768270 0.601248 0.000000
Si Si2 0.876923 0.062563 0.000000
Si Si3 0.944384 0.317313 0.846091
Si Si4 0.166102 0.411029 0.739992
Si Si5 0.068952 0.847393 0.231568
Si Si6 0.254929 0.923554 0.000000
Si Si7 0.634057 0.384361 0.500000
O O1 0.807316 0.625409 0.873594
O O2 0.758563 0.512776 0.000000
O O3 0.703350 0.639324 0.000000
O O4 0.909658 0.087077 0.133973
O O5 0.812829 0.101500 0.000000
O O6 0.873727 0.973357 0.000000
O O7 0.896459 0.376448 0.796571
O O8 0.918681 0.233300 0.834922
O O9 0.000000 0.327990 0.750000
O O10 0.961911 0.333445 0.000000
O O11 0.156539 0.500000 0.750000
O O12 0.213834 0.389467 0.628812
O O13 0.102967 0.849444 0.371183
O O14 0.000000 0.861102 0.250000
#
# Coordination Sequence:
#
# PCOD8276840 Si02
#       7
#     8   8  16  16  16   8   8
#     4   9  20  36  59  92 122 163 192 247 312 355
#     4  11  21  39  63  92 118 165 207 252 300 360
#     4  11  25  44  65  88 122 164 201 247 307 365
#     4  10  20  39  65  93 123 157 200 247 297 361
#     4  11  24  40  60  87 124 164 204 253 311 359
#     4   9  18  36  61  86 126 157 198 247 306 357
#     4  11  23  39  63  90 126 157 211 256 298 360
#
# _framework density 19.824387999999999
#
# number of rings (size 3 to 8) (size 9 to 14) (size 15 to 20)
#    0.000    1.600    2.000    2.400    5.600    6.000 
#    0.000    7.000    0.000    0.000    0.000    0.000 
#    0.000    0.000    0.000    0.000    0.000    0.000 
#
# Total GULP energy -496113.324971 kJ/mol
# GULP energy per Si atom -12402.833124 kJ/mol
# Density = 1.977927 g / cm^3
# Si number density = 19.824388 Si / 1000 Ang^3
#
#
#
# Elastic Constant Matrix: (Units=GPa)
#
#
# Indices 1 2 3 4 5 6 
#
# 1 126.6784 44.1997 74.7281 0.0000 0.0000 0.0000
# 2 44.1997 48.9774 27.1814 0.0000 0.0000 0.0000
# 3 74.7281 27.1814 187.2250 0.0000 0.0000 0.0000
# 4 0.0000 0.0000 0.0000 -100.4723 0.0000 0.0000
# 5 0.0000 0.0000 0.0000 0.0000 24.1961 0.0000
# 6 0.0000 0.0000 0.0000 0.0000 0.0000 -1.4374
#
#
#
# Elastic Compliance Matrix: (Units=1/GPa)
#
#
# Indices 1 2 3 4 5 6 
#
# 1 0.013860 -0.010265 -0.004042 0.000000 0.000000 0.000000
# 2 -0.010265 0.029809 -0.000231 0.000000 0.000000 0.000000
# 3 -0.004042 -0.000231 0.006988 0.000000 0.000000 0.000000
# 4 0.000000 0.000000 0.000000 -0.009953 0.000000 0.000000
# 5 0.000000 0.000000 0.000000 0.000000 0.041329 0.000000
# 6 0.000000 0.000000 0.000000 0.000000 0.000000 -0.695723
#
#
# Mechanical properties :
#
#
# Convention : Reuss Voigt Hill
#
# Bulk Modulus (GPa) = 46.33393 72.78881 59.56137
# Shear Modulus (GPa) = -8.65917 -1.09127 -4.87522
#
# Velocity S-wave (km/s) = -2.09223 -0.74274 -1.56989
# Velocity P-wave (km/s) = 4.19361 6.00508 5.17916
#
# Compressibility (1/GPa) = 0.02158246
#
# Stress axis : x y z
#
# Youngs Moduli (GPa) = 72.15185 33.54699 143.10594
#
# Poissons Ratio (x) = 0.34435 0.57839
# Poissons Ratio (y) = 0.74061 0.03301
# Poissons Ratio (z) = 0.29161 0.00774
#
# Static dielectric constant tensor:
#      x y z
#    x 3.722160 0.000000 0.000000 
#    y 0.000000 3.426100 0.000000 
#    z 0.000000 0.000000 4.264930 
# 
# 
# High freq. dielectric constant tensor:
#      x y z
#    x 1.783430 0.000000 0.000000 
#    y 0.000000 1.752300 0.000000 
#    z 0.000000 0.000000 1.795580 
# 
# From -- ./inp_files/8941.got.cif
#   From: 2010.03.12/outbox.cif.g09.slc.cpg/sg66_5_cif.got.tgz:8941.got - 2010.04.10 21:57:39.
