data_PCOD8276856
_publ_section_title
;
Structure prediction by ZEFSAII (Michael W. Deem and Ramdas Pophale) SiO2 
 PCOD8276856
Probable space group: C C C M
;
_chemical_formula_sum "Si O2"
_cell_formula_units_Z 88
_cell_length_a 11.347402
_cell_length_b 28.573447
_cell_length_c 14.027431
_cell_angle_alpha 90.000000
_cell_angle_beta 90.000000
_cell_angle_gamma 90.000000
_cell_volume 4548.175528
_symmetry_space_group_name_H-M "C C C M"
_symmetry_group_IT_number 66
_symmetry_cell_setting 'orthorhombic'
loop_
_space_group_symop_operation_xyz
x,y,z
-x,-y,z
x,-y,1/2-z
-x,y,1/2-z
-x,-y,-z
x,y,-z
-x,y,1/2+z
x,-y,1/2+z
1/2+x,1/2+y,z
1/2-x,1/2-y,z
1/2+x,1/2-y,1/2-z
1/2-x,1/2+y,1/2-z
1/2-x,1/2-y,-z
1/2+x,1/2+y,-z
1/2-x,1/2+y,1/2+z
1/2+x,1/2-y,1/2+z
loop_
_atom_site_type_symbol
_atom_site_label
_atom_site_fract_x
_atom_site_fract_y
_atom_site_fract_z
Si Si1 0.373422 0.551775 0.288626
Si Si2 0.637553 0.417343 0.500000
Si Si3 0.215729 0.600579 0.853354
Si Si4 0.613315 0.745131 0.500000
Si Si5 0.064628 0.450389 0.500000
Si Si6 0.601359 0.363405 0.000000
Si Si7 0.881424 0.631236 0.000000
Si Si8 0.027503 0.317268 0.646221
O O1 0.354729 0.500000 0.250000
O O2 0.500000 0.570590 0.250000
O O3 0.364167 0.550961 0.404076
O O4 0.264787 0.582910 0.248411
O O5 0.525470 0.385268 0.500000
O O6 0.745370 0.381372 0.500000
O O7 0.147962 0.558043 0.907495
O O8 0.128567 0.643925 0.844843
O O9 0.329152 0.619315 0.908163
O O10 0.750000 0.750000 0.500000
O O11 0.576391 0.691570 0.500000
O O12 0.566932 0.770762 0.593427
O O13 0.000000 0.500000 0.500000
O O14 0.956791 0.415414 0.500000
O O15 0.913440 0.661045 0.905875
O O16 0.000000 0.298826 0.750000
#
# Coordination Sequence:
#
# PCOD8276856 Si02
#       8
#    16   8  16   8   8   8   8  16
#     4  11  25  40  60  94 124 168 215 255 313 378
#     4  12  24  42  65  87 131 170 209 268 314 375
#     4  10  20  40  64  91 131 163 210 262 317 377
#     4  11  20  40  66  96 119 159 217 265 309 386
#     4   9  20  35  64  97 123 165 217 261 305 356
#     4  11  21  40  67  93 120 164 213 266 312 377
#     4   9  21  38  61  89 128 168 197 261 321 361
#     4  10  20  40  64  92 127 167 208 253 327 383
#
# _framework density 19.348417000000001
#
# number of rings (size 3 to 8) (size 9 to 14) (size 15 to 20)
#    0.000    1.636    3.636    2.182    2.545    2.182 
#    3.273    1.818    0.000    0.000    0.000    0.000 
#    0.000    0.000    0.000    0.000    0.000    0.000 
#
# Total GULP energy -545437.805410 kJ/mol
# GULP energy per Si atom -12396.313759 kJ/mol
# Density = 1.930438 g / cm^3
# Si number density = 19.348417 Si / 1000 Ang^3
#
#
#
# Elastic Constant Matrix: (Units=GPa)
#
#
# Indices 1 2 3 4 5 6 
#
# 1 112.3506 44.5428 55.1742 0.0000 0.0000 0.0000
# 2 44.5428 126.4816 61.8465 0.0000 0.0000 0.0000
# 3 55.1742 61.8465 173.1649 0.0000 0.0000 0.0000
# 4 0.0000 0.0000 0.0000 5.3095 0.0000 0.0000
# 5 0.0000 0.0000 0.0000 0.0000 21.7206 0.0000
# 6 0.0000 0.0000 0.0000 0.0000 0.0000 30.0046
#
#
#
# Elastic Compliance Matrix: (Units=1/GPa)
#
#
# Indices 1 2 3 4 5 6 
#
# 1 0.011253 -0.002677 -0.002629 0.000000 0.000000 0.000000
# 2 -0.002677 0.010216 -0.002796 0.000000 0.000000 0.000000
# 3 -0.002629 -0.002796 0.007611 0.000000 0.000000 0.000000
# 4 0.000000 0.000000 0.000000 0.188340 0.000000 0.000000
# 5 0.000000 0.000000 0.000000 0.000000 0.046039 0.000000
# 6 0.000000 0.000000 0.000000 0.000000 0.000000 0.033328
#
#
# Mechanical properties :
#
#
# Convention : Reuss Voigt Hill
#
# Bulk Modulus (GPa) = 77.66463 81.68046 79.67255
# Shear Modulus (GPa) = 15.75868 28.10253 21.93060
#
# Velocity S-wave (km/s) = 2.85699 3.81523 3.37034
# Velocity P-wave (km/s) = 7.14915 7.85590 7.51084
#
# Compressibility (1/GPa) = 0.01287587
#
# Stress axis : x y z
#
# Youngs Moduli (GPa) = 88.86159 97.88372 131.38715
#
# Poissons Ratio (x) = 0.26208 0.34546
# Poissons Ratio (y) = 0.23792 0.36732
# Poissons Ratio (z) = 0.23365 0.27365
#
# Static dielectric constant tensor:
#      x y z
#    x 3.679750 0.000000 0.000000 
#    y 0.000000 3.059150 0.000000 
#    z 0.000000 0.000000 3.570290 
# 
# 
# High freq. dielectric constant tensor:
#      x y z
#    x 1.762800 0.000000 0.000000 
#    y 0.000000 1.742570 0.000000 
#    z 0.000000 0.000000 1.758370 
# 
# From -- ./inp_files/26599.got.cif
#   From: 2010.03.12/outbox.cif.g09.slc.cpg/sg66_14_cif.got.tgz:26599.got - 2010.04.10 21:57:39.
