data_PCOD8276088
_publ_section_title
;
Structure prediction by ZEFSAII (Michael W. Deem and Ramdas Pophale) SiO2 
 PCOD8276088
Probable space group: C C C M
;
_chemical_formula_sum "Si O2"
_cell_formula_units_Z 116
_cell_length_a 27.604749
_cell_length_b 22.434095
_cell_length_c 9.612747
_cell_angle_alpha 90.000000
_cell_angle_beta 90.000000
_cell_angle_gamma 90.000000
_cell_volume 5953.054649
_symmetry_space_group_name_H-M "C C C M"
_symmetry_group_IT_number 66
_symmetry_cell_setting 'orthorhombic'
loop_
_space_group_symop_operation_xyz
x,y,z
-x,-y,z
x,-y,1/2-z
-x,y,1/2-z
-x,-y,-z
x,y,-z
-x,y,1/2+z
x,-y,1/2+z
1/2+x,1/2+y,z
1/2-x,1/2-y,z
1/2+x,1/2-y,1/2-z
1/2-x,1/2+y,1/2-z
1/2-x,1/2-y,-z
1/2+x,1/2+y,-z
1/2-x,1/2+y,1/2+z
1/2+x,1/2-y,1/2+z
loop_
_atom_site_type_symbol
_atom_site_label
_atom_site_fract_x
_atom_site_fract_y
_atom_site_fract_z
Si Si1 0.500000 0.000000 0.250000
Si Si2 0.135171 0.055719 0.338690
Si Si3 0.046783 0.271045 0.164983
Si Si4 0.390356 0.684595 0.158038
Si Si5 0.802162 0.257376 0.157896
Si Si6 0.076374 0.405058 0.843716
Si Si7 0.255288 0.552370 0.156774
Si Si8 0.160841 0.622403 0.158781
O O1 0.535033 0.956099 0.163066
O O2 0.131116 0.038475 0.500000
O O3 0.102931 0.114550 0.306966
O O4 0.190642 0.070604 0.295639
O O5 0.114938 0.000000 0.250000
O O6 0.086788 0.226007 0.224207
O O7 0.056248 0.340301 0.199979
O O8 0.000000 0.251213 0.250000
O O9 0.040640 0.260860 0.000000
O O10 0.332300 0.696294 0.163258
O O11 0.409203 0.698811 0.000000
O O12 0.750000 0.250000 0.235023
O O13 0.837234 0.309815 0.218334
O O14 0.791025 0.278139 0.000000
O O15 0.122823 0.417855 0.745843
O O16 0.095918 0.403432 0.000000
O O17 0.234361 0.500000 0.250000
O O18 0.217015 0.604979 0.174903
O O19 0.256722 0.528784 0.000000
O O20 0.142545 0.617534 0.000000
#
# Coordination Sequence:
#
# PCOD8276088 Si02
#       8
#     4  16  16  16  16  16  16  16
#     4  12  26  48  64  82 106 152 202 254 302 356
#     4   9  18  33  55  83 118 155 195 235 276 331
#     4  11  23  41  63  87 115 147 186 238 294 354
#     4  10  19  34  58  87 115 150 194 239 286 343
#     4   9  16  28  51  82 113 149 193 236 277 335
#     4  11  25  42  61  83 109 143 189 244 299 351
#     4   9  18  32  49  75 109 151 196 236 276 330
#     4  10  20  34  54  79 111 149 189 237 290 340
#
# _framework density 19.485795
#
# number of rings (size 3 to 8) (size 9 to 14) (size 15 to 20)
#    0.000    2.069    2.069    1.448    0.966    6.069 
#    0.000    0.000    0.000    3.724    0.000    2.897 
#    0.000    0.000    0.000    0.000    0.000    0.000 
#
# Total GULP energy -718695.067238 kJ/mol
# GULP energy per Si atom -12391.294263 kJ/mol
# Density = 1.944144 g / cm^3
# Si number density = 19.485795 Si / 1000 Ang^3
#
#
#
# Elastic Constant Matrix: (Units=GPa)
#
#
# Indices 1 2 3 4 5 6 
#
# 1 67.0943 29.5908 32.3994 0.0000 0.0000 0.0000
# 2 29.5908 116.5750 45.3464 0.0000 0.0000 0.0000
# 3 32.3994 45.3464 80.0346 0.0000 0.0000 0.0000
# 4 0.0000 0.0000 0.0000 27.0529 0.0000 0.0000
# 5 0.0000 0.0000 0.0000 0.0000 23.0867 0.0000
# 6 0.0000 0.0000 0.0000 0.0000 0.0000 29.8734
#
#
#
# Elastic Compliance Matrix: (Units=1/GPa)
#
#
# Indices 1 2 3 4 5 6 
#
# 1 0.019015 -0.002350 -0.006366 0.000000 0.000000 0.000000
# 2 -0.002350 0.011294 -0.005447 0.000000 0.000000 0.000000
# 3 -0.006366 -0.005447 0.018158 0.000000 0.000000 0.000000
# 4 0.000000 0.000000 0.000000 0.036965 0.000000 0.000000
# 5 0.000000 0.000000 0.000000 0.000000 0.043315 0.000000
# 6 0.000000 0.000000 0.000000 0.000000 0.000000 0.033475
#
#
# Mechanical properties :
#
#
# Convention : Reuss Voigt Hill
#
# Bulk Modulus (GPa) = 49.65384 53.15300 51.40342
# Shear Modulus (GPa) = 25.34704 26.42708 25.88706
#
# Velocity S-wave (km/s) = 3.61057 3.68669 3.64883
# Velocity P-wave (km/s) = 6.55126 6.74235 6.64749
#
# Compressibility (1/GPa) = 0.02013943
#
# Stress axis : x y z
#
# Youngs Moduli (GPa) = 52.58983 88.54456 55.07204
#
# Poissons Ratio (x) = 0.20812 0.35058
# Poissons Ratio (y) = 0.12361 0.30000
# Poissons Ratio (z) = 0.33478 0.48234
#
# Static dielectric constant tensor:
#      x y z
#    x 3.385230 0.000000 0.000000 
#    y 0.000000 3.622280 0.000000 
#    z 0.000000 0.000000 3.397800 
# 
# 
# High freq. dielectric constant tensor:
#      x y z
#    x 1.745210 0.000000 0.000000 
#    y 0.000000 1.760650 0.000000 
#    z 0.000000 0.000000 1.734420 
# 
# From -- ./inp_files/10609.got.cif
#   From: 2010.03.12/outbox.cif.g09.slc.cpg/sg66_6_cif.got.tgz:10609.got - 2010.04.10 21:57:39.
