data_PCOD8276295
_publ_section_title
;
Structure prediction by ZEFSAII (Michael W. Deem and Ramdas Pophale) SiO2 
 PCOD8276295
Probable space group: C C C M
;
_chemical_formula_sum "Si O2"
_cell_formula_units_Z 64
_cell_length_a 13.337196
_cell_length_b 12.469502
_cell_length_c 14.852587
_cell_angle_alpha 90.000000
_cell_angle_beta 90.000000
_cell_angle_gamma 90.000000
_cell_volume 2470.106893
_symmetry_space_group_name_H-M "C C C M"
_symmetry_group_IT_number 66
_symmetry_cell_setting 'orthorhombic'
loop_
_space_group_symop_operation_xyz
x,y,z
-x,-y,z
x,-y,1/2-z
-x,y,1/2-z
-x,-y,-z
x,y,-z
-x,y,1/2+z
x,-y,1/2+z
1/2+x,1/2+y,z
1/2-x,1/2-y,z
1/2+x,1/2-y,1/2-z
1/2-x,1/2+y,1/2-z
1/2-x,1/2-y,-z
1/2+x,1/2+y,-z
1/2-x,1/2+y,1/2+z
1/2+x,1/2-y,1/2+z
loop_
_atom_site_type_symbol
_atom_site_label
_atom_site_fract_x
_atom_site_fract_y
_atom_site_fract_z
Si Si1 0.275141 0.876095 0.793907
Si Si2 0.974621 0.299897 0.148840
Si Si3 0.689467 0.139212 0.597630
Si Si4 0.587191 0.427185 0.899805
O O1 0.250000 0.750000 0.786321
O O2 0.381852 0.885083 0.846950
O O3 0.283277 0.924940 0.690794
O O4 0.189781 0.941573 0.845490
O O5 0.944055 0.195792 0.093393
O O6 0.000000 0.262529 0.250000
O O7 0.069768 0.347720 0.098491
O O8 0.714979 0.083828 0.500000
O O9 0.750000 0.250000 0.601575
O O10 0.500000 0.500000 0.854389
O O11 0.606860 0.471618 0.000000
#
# Coordination Sequence:
#
# PCOD8276295 Si02
#       4
#    16  16  16  16
#     4   8  16  30  47  70 102 140 186 237 290 345
#     4   9  17  30  49  75 106 141 186 240 294 344
#     4   9  16  27  46  72 102 136 178 235 294 338
#     4  10  20  32  48  74 109 149 189 231 290 358
#
# _framework density 25.909811000000001
#
# number of rings (size 3 to 8) (size 9 to 14) (size 15 to 20)
#    0.000    3.000    0.000    2.250    0.000    6.000 
#    0.000    0.000    0.000    0.750    0.000    1.750 
#    0.000   38.000    0.000    4.250    0.000   23.750 
#
# Total GULP energy -396525.895947 kJ/mol
# GULP energy per Si atom -12391.434248 kJ/mol
# Density = 2.585084 g / cm^3
# Si number density = 25.909811 Si / 1000 Ang^3
#
#
#
# Elastic Constant Matrix: (Units=GPa)
#
#
# Indices 1 2 3 4 5 6 
#
# 1 235.8164 52.7616 79.4580 0.0000 0.0000 0.0000
# 2 52.7616 47.7469 19.6640 0.0000 0.0000 0.0000
# 3 79.4580 19.6640 182.4690 0.0000 0.0000 0.0000
# 4 0.0000 0.0000 0.0000 -88.4626 0.0000 0.0000
# 5 0.0000 0.0000 0.0000 0.0000 -0.0154 0.0000
# 6 0.0000 0.0000 0.0000 0.0000 0.0000 54.6291
#
#
#
# Elastic Compliance Matrix: (Units=1/GPa)
#
#
# Indices 1 2 3 4 5 6 
#
# 1 0.006313 -0.006115 -0.002090 0.000000 0.000000 0.000000
# 2 -0.006115 0.027840 -0.000337 0.000000 0.000000 0.000000
# 3 -0.002090 -0.000337 0.006427 0.000000 0.000000 0.000000
# 4 0.000000 0.000000 0.000000 -0.011304 0.000000 0.000000
# 5 0.000000 0.000000 0.000000 0.000000-64.992639 0.000000
# 6 0.000000 0.000000 0.000000 0.000000 0.000000 0.018305
#
#
# Mechanical properties :
#
#
# Convention : Reuss Voigt Hill
#
# Bulk Modulus (GPa) = 42.56247 85.53330 64.04788
# Shear Modulus (GPa) = -0.07702 14.17347 7.04823
#
# Velocity S-wave (km/s) = -0.17260 2.34141 1.65112
# Velocity P-wave (km/s) = 4.05254 6.35556 5.32993
#
# Compressibility (1/GPa) = 0.02349488
#
# Stress axis : x y z
#
# Youngs Moduli (GPa) = 158.40131 35.91919 155.59676
#
# Poissons Ratio (x) = 0.21966 0.32521
# Poissons Ratio (y) = 0.96868 0.05248
# Poissons Ratio (z) = 0.33107 0.01211
#
# Static dielectric constant tensor:
#      x y z
#    x 4.955960 0.000000 0.000000 
#    y 0.000000 4.266480 0.000000 
#    z 0.000000 0.000000 4.920190 
# 
# 
# High freq. dielectric constant tensor:
#      x y z
#    x 2.056650 0.000000 0.000000 
#    y 0.000000 2.021290 0.000000 
#    z 0.000000 0.000000 2.042650 
# 
# From -- ./inp_files/27728.got.cif
#   From: 2010.03.12/outbox.cif.g09.slc.cpg/sg66_14_cif.got.tgz:27728.got - 2010.04.10 21:57:39.
