data_PCOD8276327
_publ_section_title
;
Structure prediction by ZEFSAII (Michael W. Deem and Ramdas Pophale) SiO2 
 PCOD8276327
Probable space group: C C C M
;
_chemical_formula_sum "Si O2"
_cell_formula_units_Z 96
_cell_length_a 28.964592
_cell_length_b 20.002703
_cell_length_c 10.125121
_cell_angle_alpha 90.000000
_cell_angle_beta 90.000000
_cell_angle_gamma 90.000000
_cell_volume 5866.192683
_symmetry_space_group_name_H-M "C C C M"
_symmetry_group_IT_number 66
_symmetry_cell_setting 'orthorhombic'
loop_
_space_group_symop_operation_xyz
x,y,z
-x,-y,z
x,-y,1/2-z
-x,y,1/2-z
-x,-y,-z
x,y,-z
-x,y,1/2+z
x,-y,1/2+z
1/2+x,1/2+y,z
1/2-x,1/2-y,z
1/2+x,1/2-y,1/2-z
1/2-x,1/2+y,1/2-z
1/2-x,1/2-y,-z
1/2+x,1/2+y,-z
1/2-x,1/2+y,1/2+z
1/2+x,1/2-y,1/2+z
loop_
_atom_site_type_symbol
_atom_site_label
_atom_site_fract_x
_atom_site_fract_y
_atom_site_fract_z
Si Si1 0.937149 0.757590 0.000000
Si Si2 0.606031 0.261333 0.767457
Si Si3 0.542132 0.257471 0.000000
Si Si4 0.294406 0.291108 0.656078
Si Si5 0.428519 0.583110 0.500000
Si Si6 0.099551 0.917742 0.782705
Si Si7 0.700085 0.557157 0.349373
Si Si8 0.531428 0.416669 0.000000
O O1 0.909813 0.730585 0.127925
O O2 0.989659 0.729002 0.000000
O O3 0.934122 0.837318 0.000000
O O4 0.661072 0.251794 0.785852
O O5 0.597419 0.339120 0.780920
O O6 0.571977 0.229395 0.876616
O O7 0.535071 0.336687 0.000000
O O8 0.300832 0.291798 0.500000
O O9 0.250000 0.250000 0.703316
O O10 0.287322 0.368045 0.703658
O O11 0.402372 0.556776 0.630971
O O12 0.480076 0.553757 0.500000
O O13 0.144983 0.946763 0.850407
O O14 0.056673 0.944387 0.868929
O O15 0.720591 0.500000 0.250000
O O16 0.718153 0.544997 0.500000
#
# Coordination Sequence:
#
# PCOD8276327 Si02
#       8
#     8  16   8  16   8  16  16   8
#     4   9  16  22  33  58  88 110 139 181 223 265
#     4   9  15  25  39  59  84 110 143 182 221 262
#     4   9  14  22  37  56  80 112 147 179 215 263
#     4   9  17  32  52  70  88 115 153 189 222 266
#     4   9  16  22  37  57  73 103 138 178 225 260
#     4   9  16  26  39  56  77 102 137 179 220 260
#     4  10  20  33  50  67  84 109 141 180 222 264
#     4   9  14  24  37  53  75 101 138 180 223 262
#
# _framework density 16.364958000000001
#
# number of rings (size 3 to 8) (size 9 to 14) (size 15 to 20)
#    0.000    2.833    1.667    1.000    1.167    4.000 
#    1.500    0.417    0.000    3.000    0.000    0.000 
#    0.000    0.000    0.000    0.000    0.000    5.000 
#
# Total GULP energy -594659.857286 kJ/mol
# GULP energy per Si atom -12388.747027 kJ/mol
# Density = 1.632771 g / cm^3
# Si number density = 16.364958 Si / 1000 Ang^3
#
#
#
# Elastic Constant Matrix: (Units=GPa)
#
#
# Indices 1 2 3 4 5 6 
#
# 1 105.2336 29.0503 39.6860 0.0000 0.0000 0.0000
# 2 29.0503 30.9817 9.6347 0.0000 0.0000 0.0000
# 3 39.6860 9.6347 103.2868 0.0000 0.0000 0.0000
# 4 0.0000 0.0000 0.0000 13.4531 0.0000 0.0000
# 5 0.0000 0.0000 0.0000 0.0000 16.2113 0.0000
# 6 0.0000 0.0000 0.0000 0.0000 0.0000 15.1828
#
#
#
# Elastic Compliance Matrix: (Units=1/GPa)
#
#
# Indices 1 2 3 4 5 6 
#
# 1 0.014572 -0.012278 -0.004454 0.000000 0.000000 0.000000
# 2 -0.012278 0.043587 0.000652 0.000000 0.000000 0.000000
# 3 -0.004454 0.000652 0.011332 0.000000 0.000000 0.000000
# 4 0.000000 0.000000 0.000000 0.074332 0.000000 0.000000
# 5 0.000000 0.000000 0.000000 0.000000 0.061686 0.000000
# 6 0.000000 0.000000 0.000000 0.000000 0.000000 0.065864
#
#
# Mechanical properties :
#
#
# Convention : Reuss Voigt Hill
#
# Bulk Modulus (GPa) = 26.78733 44.02714 35.40723
# Shear Modulus (GPa) = 15.82395 19.71151 17.76773
#
# Velocity S-wave (km/s) = 3.11294 3.47435 3.29860
# Velocity P-wave (km/s) = 5.41524 6.56175 6.01587
#
# Compressibility (1/GPa) = 0.03733109
#
# Stress axis : x y z
#
# Youngs Moduli (GPa) = 68.62617 22.94246 88.24434
#
# Poissons Ratio (x) = 0.28169 0.39300
# Poissons Ratio (y) = 0.84261 -0.05752
# Poissons Ratio (z) = 0.30563 -0.01495
#
# Static dielectric constant tensor:
#      x y z
#    x 3.060470 0.000000 0.000000 
#    y 0.000000 2.642980 0.000000 
#    z 0.000000 0.000000 3.396860 
# 
# 
# High freq. dielectric constant tensor:
#      x y z
#    x 1.611050 0.000000 0.000000 
#    y 0.000000 1.562020 0.000000 
#    z 0.000000 0.000000 1.640160 
# 
# From -- ./inp_files/20745.got.cif
#   From: 2010.03.12/outbox.cif.g09.slc.cpg/sg66_11_cif.got.tgz:20745.got - 2010.04.10 21:57:39.
