data_PCOD8276593
_publ_section_title
;
Structure prediction by ZEFSAII (Michael W. Deem and Ramdas Pophale) SiO2 
 PCOD8276593
Probable space group: C C C M
;
_chemical_formula_sum "Si O2"
_cell_formula_units_Z 104
_cell_length_a 21.495253
_cell_length_b 27.069307
_cell_length_c 9.370340
_cell_angle_alpha 90.000000
_cell_angle_beta 90.000000
_cell_angle_gamma 90.000000
_cell_volume 5452.241048
_symmetry_space_group_name_H-M "C C C M"
_symmetry_group_IT_number 66
_symmetry_cell_setting 'orthorhombic'
loop_
_space_group_symop_operation_xyz
x,y,z
-x,-y,z
x,-y,1/2-z
-x,y,1/2-z
-x,-y,-z
x,y,-z
-x,y,1/2+z
x,-y,1/2+z
1/2+x,1/2+y,z
1/2-x,1/2-y,z
1/2+x,1/2-y,1/2-z
1/2-x,1/2+y,1/2-z
1/2-x,1/2-y,-z
1/2+x,1/2+y,-z
1/2-x,1/2+y,1/2+z
1/2+x,1/2-y,1/2+z
loop_
_atom_site_type_symbol
_atom_site_label
_atom_site_fract_x
_atom_site_fract_y
_atom_site_fract_z
Si Si1 0.678319 0.240865 0.838127
Si Si2 0.685641 0.049572 0.832603
Si Si3 0.618374 0.856188 0.337987
Si Si4 0.556933 0.383942 0.830639
Si Si5 0.172209 0.048755 0.335245
Si Si6 0.919864 0.788235 0.160254
Si Si7 0.500000 0.799984 0.750000
O O1 0.750000 0.250000 0.838843
O O2 0.664105 0.186122 0.779548
O O3 0.647526 0.278296 0.727951
O O4 0.650973 0.247628 0.000000
O O5 0.638424 0.091439 0.767818
O O6 0.757227 0.065973 0.800938
O O7 0.668435 0.000000 0.750000
O O8 0.676106 0.039323 0.000000
O O9 0.635561 0.865523 0.500000
O O10 0.546920 0.838151 0.326728
O O11 0.500000 0.412962 0.750000
O O12 0.623416 0.408304 0.793632
O O13 0.552309 0.328995 0.765595
O O14 0.544894 0.381578 0.000000
O O15 0.164966 0.035127 0.500000
O O16 0.153905 0.000000 0.250000
O O17 0.960602 0.737510 0.150822
O O18 0.912660 0.808930 0.000000
#
# Coordination Sequence:
#
# PCOD8276593 Si02
#       7
#    16  16  16  16  16  16   8
#     4   9  19  34  55  80 108 144 185 230 279 337
#     4   9  18  36  60  84 111 140 182 228 280 336
#     4   9  18  33  56  81 106 145 188 229 276 335
#     4  11  23  37  56  81 110 148 193 234 279 334
#     4   9  20  37  59  83 109 143 182 231 284 340
#     4  11  22  35  54  78 112 150 186 232 279 332
#     4  10  20  36  55  78 113 148 194 226 280 334
#
# _framework density 19.074725999999998
#
# number of rings (size 3 to 8) (size 9 to 14) (size 15 to 20)
#    0.000    2.308    0.769    1.385    2.154    3.077 
#    0.000    5.769    0.000    1.846    0.000    0.000 
#    0.000    0.000    0.000    0.000    0.000    0.000 
#
# Total GULP energy -644181.314550 kJ/mol
# GULP energy per Si atom -12388.102203 kJ/mol
# Density = 1.903131 g / cm^3
# Si number density = 19.074726 Si / 1000 Ang^3
#
#
#
# Elastic Constant Matrix: (Units=GPa)
#
#
# Indices 1 2 3 4 5 6 
#
# 1 97.2736 56.9603 29.2721 0.0000 0.0000 0.0000
# 2 56.9603 99.4094 31.4875 0.0000 0.0000 0.0000
# 3 29.2721 31.4875 75.8047 0.0000 0.0000 0.0000
# 4 0.0000 0.0000 0.0000 25.2852 0.0000 0.0000
# 5 0.0000 0.0000 0.0000 0.0000 7.9421 0.0000
# 6 0.0000 0.0000 0.0000 0.0000 0.0000 31.2819
#
#
#
# Elastic Compliance Matrix: (Units=1/GPa)
#
#
# Indices 1 2 3 4 5 6 
#
# 1 0.015944 -0.008274 -0.002720 0.000000 0.000000 0.000000
# 2 -0.008274 0.015877 -0.003400 0.000000 0.000000 0.000000
# 3 -0.002720 -0.003400 0.015654 0.000000 0.000000 0.000000
# 4 0.000000 0.000000 0.000000 0.039549 0.000000 0.000000
# 5 0.000000 0.000000 0.000000 0.000000 0.125911 0.000000
# 6 0.000000 0.000000 0.000000 0.000000 0.000000 0.031967
#
#
# Mechanical properties :
#
#
# Convention : Reuss Voigt Hill
#
# Bulk Modulus (GPa) = 53.51157 56.43637 54.97397
# Shear Modulus (GPa) = 17.86227 23.21972 20.54100
#
# Velocity S-wave (km/s) = 3.06345 3.49277 3.28513
# Velocity P-wave (km/s) = 6.37397 6.77622 6.57817
#
# Compressibility (1/GPa) = 0.01868755
#
# Stress axis : x y z
#
# Youngs Moduli (GPa) = 62.72033 62.98305 63.88003
#
# Poissons Ratio (x) = 0.52113 0.17374
# Poissons Ratio (y) = 0.51895 0.21719
# Poissons Ratio (z) = 0.17059 0.21414
#
# Static dielectric constant tensor:
#      x y z
#    x 3.733880 0.000000 0.000000 
#    y 0.000000 3.524130 0.000000 
#    z 0.000000 0.000000 3.478070 
# 
# 
# High freq. dielectric constant tensor:
#      x y z
#    x 1.747430 0.000000 0.000000 
#    y 0.000000 1.732490 0.000000 
#    z 0.000000 0.000000 1.724940 
# 
# From -- ./inp_files/9357.got.cif
#   From: 2010.03.12/outbox.cif.g09.slc.cpg/sg66_5_cif.got.tgz:9357.got - 2010.04.10 21:57:39.
