data_PCOD8276980
_publ_section_title
;
Structure prediction by ZEFSAII (Michael W. Deem and Ramdas Pophale) SiO2 
 PCOD8276980
Probable space group: C C C M
;
_chemical_formula_sum "Si O2"
_cell_formula_units_Z 88
_cell_length_a 18.864414
_cell_length_b 10.577470
_cell_length_c 19.495758
_cell_angle_alpha 90.000000
_cell_angle_beta 90.000000
_cell_angle_gamma 90.000000
_cell_volume 3890.140137
_symmetry_space_group_name_H-M "C C C M"
_symmetry_group_IT_number 66
_symmetry_cell_setting 'orthorhombic'
loop_
_space_group_symop_operation_xyz
x,y,z
-x,-y,z
x,-y,1/2-z
-x,y,1/2-z
-x,-y,-z
x,y,-z
-x,y,1/2+z
x,-y,1/2+z
1/2+x,1/2+y,z
1/2-x,1/2-y,z
1/2+x,1/2-y,1/2-z
1/2-x,1/2+y,1/2-z
1/2-x,1/2-y,-z
1/2+x,1/2+y,-z
1/2-x,1/2+y,1/2+z
1/2+x,1/2-y,1/2+z
loop_
_atom_site_type_symbol
_atom_site_label
_atom_site_fract_x
_atom_site_fract_y
_atom_site_fract_z
Si Si1 0.061961 0.651789 0.000000
Si Si2 0.625081 0.278074 0.625514
Si Si3 0.958645 0.210212 0.864782
Si Si4 0.250000 0.750000 0.136208
Si Si5 0.851307 0.955478 0.580023
Si Si6 0.367153 0.147345 0.265425
Si Si7 0.395133 0.887240 0.500000
O O1 0.078550 0.727192 0.068637
O O2 0.118429 0.536766 0.000000
O O3 0.979580 0.619438 0.000000
O O4 0.541673 0.308957 0.629568
O O5 0.669334 0.403313 0.605424
O O6 0.652610 0.222064 0.696436
O O7 0.638931 0.174108 0.567178
O O8 0.917476 0.076555 0.868367
O O9 0.939384 0.294227 0.798092
O O10 0.212276 0.856000 0.089740
O O11 0.303339 0.830438 0.182777
O O12 0.873682 0.961548 0.500000
O O13 0.379967 0.000000 0.250000
#
# Coordination Sequence:
#
# PCOD8276980 Si02
#       7
#     8  16  16   8  16  16   8
#     4   9  16  31  55  83 135 167 210 252 324 422
#     4  11  22  37  65  99 135 167 218 279 351 406
#     4  10  21  36  62 100 131 177 214 272 349 418
#     4  10  27  44  68  91 124 188 240 284 334 393
#     4  11  22  42  68  97 133 176 228 285 339 408
#     4  11  25  43  65  92 134 184 229 282 338 409
#     4   9  18  31  53  92 126 170 202 264 333 403
#
# _framework density 22.621293000000001
#
# number of rings (size 3 to 8) (size 9 to 14) (size 15 to 20)
#    0.000    1.636    1.818    2.455    2.545    5.818 
#    0.000    3.636    0.000    1.636    0.000    0.000 
#    0.000    0.000    0.000    0.000    0.000    0.000 
#
# Total GULP energy -545451.199161 kJ/mol
# GULP energy per Si atom -12396.618163 kJ/mol
# Density = 2.256981 g / cm^3
# Si number density = 22.621293 Si / 1000 Ang^3
#
#
#
# Elastic Constant Matrix: (Units=GPa)
#
#
# Indices 1 2 3 4 5 6 
#
# 1 47.3520 7.3419 2.2762 0.0000 0.0000 0.0000
# 2 7.3419 135.8172 40.2395 0.0000 0.0000 0.0000
# 3 2.2762 40.2395 117.7264 0.0000 0.0000 0.0000
# 4 0.0000 0.0000 0.0000 34.4143 0.0000 0.0000
# 5 0.0000 0.0000 0.0000 0.0000 23.8113 0.0000
# 6 0.0000 0.0000 0.0000 0.0000 0.0000 26.5854
#
#
#
# Elastic Compliance Matrix: (Units=1/GPa)
#
#
# Indices 1 2 3 4 5 6 
#
# 1 0.021297 -0.001145 -0.000020 0.000000 0.000000 0.000000
# 2 -0.001145 0.008254 -0.002799 0.000000 0.000000 0.000000
# 3 -0.000020 -0.002799 0.009451 0.000000 0.000000 0.000000
# 4 0.000000 0.000000 0.000000 0.029058 0.000000 0.000000
# 5 0.000000 0.000000 0.000000 0.000000 0.041997 0.000000
# 6 0.000000 0.000000 0.000000 0.000000 0.000000 0.037615
#
#
# Mechanical properties :
#
#
# Convention : Reuss Voigt Hill
#
# Bulk Modulus (GPa) = 32.18222 44.51232 38.34727
# Shear Modulus (GPa) = 30.12796 33.69806 31.91301
#
# Velocity S-wave (km/s) = 3.65340 3.86380 3.76007
# Velocity P-wave (km/s) = 5.66161 6.29485 5.98661
#
# Compressibility (1/GPa) = 0.03107306
#
# Stress axis : x y z
#
# Youngs Moduli (GPa) = 46.95505 121.15236 105.80412
#
# Poissons Ratio (x) = 0.13875 0.00215
# Poissons Ratio (y) = 0.05377 0.29616
# Poissons Ratio (z) = 0.00095 0.33912
#
# Static dielectric constant tensor:
#      x y z
#    x 3.715900 0.000000 0.000000 
#    y 0.000000 4.251270 0.000000 
#    z 0.000000 0.000000 4.137810 
# 
# 
# High freq. dielectric constant tensor:
#      x y z
#    x 1.869610 0.000000 0.000000 
#    y 0.000000 1.902960 0.000000 
#    z 0.000000 0.000000 1.899580 
# 
# From -- ./inp_files/42825.got.cif
#   From: 2010.03.12/outbox.cif.g09.slc.cpg/sg66_22_cif.got.tgz:42825.got - 2010.04.10 21:57:39.
