data_PCOD8276138
_publ_section_title
;
Structure prediction by ZEFSAII (Michael W. Deem and Ramdas Pophale) SiO2 
 PCOD8276138
Probable space group: C C C M
;
_chemical_formula_sum "Si O2"
_cell_formula_units_Z 96
_cell_length_a 29.333209
_cell_length_b 18.313791
_cell_length_c 9.288860
_cell_angle_alpha 90.000000
_cell_angle_beta 90.000000
_cell_angle_gamma 90.000000
_cell_volume 4989.996575
_symmetry_space_group_name_H-M "C C C M"
_symmetry_group_IT_number 66
_symmetry_cell_setting 'orthorhombic'
loop_
_space_group_symop_operation_xyz
x,y,z
-x,-y,z
x,-y,1/2-z
-x,y,1/2-z
-x,-y,-z
x,y,-z
-x,y,1/2+z
x,-y,1/2+z
1/2+x,1/2+y,z
1/2-x,1/2-y,z
1/2+x,1/2-y,1/2-z
1/2-x,1/2+y,1/2-z
1/2-x,1/2-y,-z
1/2+x,1/2+y,-z
1/2-x,1/2+y,1/2+z
1/2+x,1/2-y,1/2+z
loop_
_atom_site_type_symbol
_atom_site_label
_atom_site_fract_x
_atom_site_fract_y
_atom_site_fract_z
Si Si1 0.540548 0.220030 0.158663
Si Si2 0.329312 0.926531 0.171914
Si Si3 0.546093 0.574991 0.828706
Si Si4 0.888857 0.206910 0.336815
Si Si5 0.797927 0.716023 0.833633
Si Si6 0.567221 0.937143 0.342668
O O1 0.500000 0.256138 0.250000
O O2 0.588700 0.235258 0.230322
O O3 0.534805 0.133040 0.154828
O O4 0.538384 0.254463 0.000000
O O5 0.304966 0.854752 0.234704
O O6 0.382330 0.917670 0.214161
O O7 0.310135 0.000000 0.250000
O O8 0.320894 0.930701 0.000000
O O9 0.559488 0.500000 0.750000
O O10 0.500000 0.605248 0.750000
O O11 0.589880 0.627335 0.801649
O O12 0.537280 0.563937 0.000000
O O13 0.901814 0.227746 0.500000
O O14 0.834943 0.218114 0.310231
O O15 0.750000 0.750000 0.788102
O O16 0.798400 0.690753 0.000000
O O17 0.572205 0.971137 0.500000
O O18 0.543391 0.000000 0.250000
#
# Coordination Sequence:
#
# PCOD8276138 Si02
#       6
#    16  16  16  16  16  16
#     4  11  22  35  51  77 109 144 185 227 272 325
#     4  10  19  35  58  84 111 146 190 233 280 336
#     4  10  20  35  56  83 112 145 184 225 274 338
#     4  10  21  37  57  81 110 146 185 228 279 336
#     4  10  21  38  60  86 116 150 188 237 293 346
#     4   9  19  33  50  73 103 140 181 224 266 314
#
# _framework density 19.238489999999999
#
# number of rings (size 3 to 8) (size 9 to 14) (size 15 to 20)
#    0.000    2.000    1.667    2.500    0.000    5.333 
#    0.000    2.500    0.000    2.000    0.000    0.000 
#    0.000    0.000    0.000    0.000    0.000    0.000 
#
# Total GULP energy -594853.766476 kJ/mol
# GULP energy per Si atom -12392.786802 kJ/mol
# Density = 1.919470 g / cm^3
# Si number density = 19.238490 Si / 1000 Ang^3
#
#
#
# Elastic Constant Matrix: (Units=GPa)
#
#
# Indices 1 2 3 4 5 6 
#
# 1 106.3503 42.0047 50.6524 0.0000 0.0000 0.0000
# 2 42.0047 104.4821 55.8347 0.0000 0.0000 0.0000
# 3 50.6524 55.8347 121.5770 0.0000 0.0000 0.0000
# 4 0.0000 0.0000 0.0000 31.6760 0.0000 0.0000
# 5 0.0000 0.0000 0.0000 0.0000 9.9275 0.0000
# 6 0.0000 0.0000 0.0000 0.0000 0.0000 19.2638
#
#
#
# Elastic Compliance Matrix: (Units=1/GPa)
#
#
# Indices 1 2 3 4 5 6 
#
# 1 0.012378 -0.002942 -0.003805 0.000000 0.000000 0.000000
# 2 -0.002942 0.013383 -0.004920 0.000000 0.000000 0.000000
# 3 -0.003805 -0.004920 0.012070 0.000000 0.000000 0.000000
# 4 0.000000 0.000000 0.000000 0.031570 0.000000 0.000000
# 5 0.000000 0.000000 0.000000 0.000000 0.100730 0.000000
# 6 0.000000 0.000000 0.000000 0.000000 0.000000 0.051911
#
#
# Mechanical properties :
#
#
# Convention : Reuss Voigt Hill
#
# Bulk Modulus (GPa) = 68.99142 69.93257 69.46199
# Shear Modulus (GPa) = 19.98316 24.43463 22.20890
#
# Velocity S-wave (km/s) = 3.22639 3.56770 3.40133
# Velocity P-wave (km/s) = 7.05822 7.30757 7.18398
#
# Compressibility (1/GPa) = 0.01449456
#
# Stress axis : x y z
#
# Youngs Moduli (GPa) = 80.79149 74.71910 82.84689
#
# Poissons Ratio (x) = 0.21986 0.31527
# Poissons Ratio (y) = 0.23773 0.40765
# Poissons Ratio (z) = 0.30745 0.36765
#
# Static dielectric constant tensor:
#      x y z
#    x 3.349550 0.000000 0.000000 
#    y 0.000000 3.460770 0.000000 
#    z 0.000000 0.000000 3.661320 
# 
# 
# High freq. dielectric constant tensor:
#      x y z
#    x 1.723960 0.000000 0.000000 
#    y 0.000000 1.746890 0.000000 
#    z 0.000000 0.000000 1.759890 
# 
# From -- ./inp_files/10279.got.cif
#   From: 2010.03.12/outbox.cif.g09.slc.cpg/sg66_6_cif.got.tgz:10279.got - 2010.04.10 21:57:39.
