data_PCOD8276384
_publ_section_title
;
Structure prediction by ZEFSAII (Michael W. Deem and Ramdas Pophale) SiO2 
 PCOD8276384
Probable space group: C C C M
;
_chemical_formula_sum "Si O2"
_cell_formula_units_Z 88
_cell_length_a 4.980872
_cell_length_b 31.365516
_cell_length_c 28.887441
_cell_angle_alpha 90.000000
_cell_angle_beta 90.000000
_cell_angle_gamma 90.000000
_cell_volume 4513.016167
_symmetry_space_group_name_H-M "C C C M"
_symmetry_group_IT_number 66
_symmetry_cell_setting 'orthorhombic'
loop_
_space_group_symop_operation_xyz
x,y,z
-x,-y,z
x,-y,1/2-z
-x,y,1/2-z
-x,-y,-z
x,y,-z
-x,y,1/2+z
x,-y,1/2+z
1/2+x,1/2+y,z
1/2-x,1/2-y,z
1/2+x,1/2-y,1/2-z
1/2-x,1/2+y,1/2-z
1/2-x,1/2-y,-z
1/2+x,1/2+y,-z
1/2-x,1/2+y,1/2+z
1/2+x,1/2-y,1/2+z
loop_
_atom_site_type_symbol
_atom_site_label
_atom_site_fract_x
_atom_site_fract_y
_atom_site_fract_z
Si Si1 0.914646 0.099761 0.798333
Si Si2 0.758738 0.469085 0.500000
Si Si3 0.447378 0.083725 0.085580
Si Si4 0.571876 0.952708 0.818348
Si Si5 0.946887 0.864118 0.604735
Si Si6 0.006915 0.778740 0.448357
O O1 0.625051 0.078622 0.790382
O O2 0.887159 0.133852 0.840030
O O3 0.000000 0.122546 0.750000
O O4 0.121306 0.061105 0.809704
O O5 0.500000 0.500000 0.500000
O O6 0.791870 0.439115 0.455886
O O7 0.000000 0.500000 0.500000
O O8 0.488908 0.050029 0.126740
O O9 0.738033 0.105670 0.075721
O O10 0.253221 0.121975 0.099657
O O11 0.500000 0.000000 0.801422
O O12 0.932729 0.816216 0.586854
O O13 0.081150 0.796530 0.500000
O O14 0.750000 0.750000 0.452476
O O15 0.250000 0.750000 0.428762
#
# Coordination Sequence:
#
# PCOD8276384 Si02
#       6
#    16   8  16  16  16  16
#     4  10  21  35  53  78 104 140 185 225 275 325
#     4  12  24  36  52  76 108 148 196 238 272 312
#     4  10  22  35  53  77 104 149 187 225 269 326
#     4  10  20  34  51  74 106 140 182 234 281 319
#     4  10  21  38  57  79 110 143 178 220 274 330
#     4  10  21  36  58  87 112 138 170 216 272 328
#
# _framework density 19.499154000000001
#
# number of rings (size 3 to 8) (size 9 to 14) (size 15 to 20)
#    0.000    1.818    0.000    3.818    2.545    5.091 
#    0.000    0.000    0.000    1.091    0.000    0.000 
#    0.000    0.000    0.000    0.000    0.000    0.000 
#
# Total GULP energy -545360.171690 kJ/mol
# GULP energy per Si atom -12394.549357 kJ/mol
# Density = 1.945477 g / cm^3
# Si number density = 19.499154 Si / 1000 Ang^3
#
#
#
# Elastic Constant Matrix: (Units=GPa)
#
#
# Indices 1 2 3 4 5 6 
#
# 1 103.5050 21.3195 18.8056 0.0000 0.0000 0.0000
# 2 21.3195 87.3545 49.1589 0.0000 0.0000 0.0000
# 3 18.8056 49.1589 110.9456 0.0000 0.0000 0.0000
# 4 0.0000 0.0000 0.0000 6.4491 0.0000 0.0000
# 5 0.0000 0.0000 0.0000 0.0000 26.0159 0.0000
# 6 0.0000 0.0000 0.0000 0.0000 0.0000 28.1137
#
#
#
# Elastic Compliance Matrix: (Units=1/GPa)
#
#
# Indices 1 2 3 4 5 6 
#
# 1 0.010231 -0.002026 -0.000836 0.000000 0.000000 0.000000
# 2 -0.002026 0.015652 -0.006592 0.000000 0.000000 0.000000
# 3 -0.000836 -0.006592 0.012076 0.000000 0.000000 0.000000
# 4 0.000000 0.000000 0.000000 0.155062 0.000000 0.000000
# 5 0.000000 0.000000 0.000000 0.000000 0.038438 0.000000
# 6 0.000000 0.000000 0.000000 0.000000 0.000000 0.035570
#
#
# Mechanical properties :
#
#
# Convention : Reuss Voigt Hill
#
# Bulk Modulus (GPa) = 52.49401 53.37477 52.93439
# Shear Modulus (GPa) = 17.10654 26.28380 21.69517
#
# Velocity S-wave (km/s) = 2.96513 3.67542 3.33922
# Velocity P-wave (km/s) = 6.22112 6.74121 6.48638
#
# Compressibility (1/GPa) = 0.01904979
#
# Stress axis : x y z
#
# Youngs Moduli (GPa) = 97.74528 63.89141 82.80981
#
# Poissons Ratio (x) = 0.12946 0.06926
# Poissons Ratio (y) = 0.19805 0.54585
# Poissons Ratio (z) = 0.08175 0.42115
#
# Static dielectric constant tensor:
#      x y z
#    x 3.757390 0.000000 0.000000 
#    y 0.000000 3.131860 0.000000 
#    z 0.000000 0.000000 3.755400 
# 
# 
# High freq. dielectric constant tensor:
#      x y z
#    x 1.785430 0.000000 0.000000 
#    y 0.000000 1.718540 0.000000 
#    z 0.000000 0.000000 1.760480 
# 
# From -- ./inp_files/67288.got.cif
#   From: 2010.03.12/outbox.cif.g09.slc.cpg/sg66_34_cif.got.tgz:67288.got - 2010.04.10 21:57:39.
