data_PCOD8276686
_publ_section_title
;
Structure prediction by ZEFSAII (Michael W. Deem and Ramdas Pophale) SiO2 
 PCOD8276686
Probable space group: C C C M
;
_chemical_formula_sum "Si O2"
_cell_formula_units_Z 88
_cell_length_a 24.542638
_cell_length_b 11.877530
_cell_length_c 14.366290
_cell_angle_alpha 90.000000
_cell_angle_beta 90.000000
_cell_angle_gamma 90.000000
_cell_volume 4187.858571
_symmetry_space_group_name_H-M "C C C M"
_symmetry_group_IT_number 66
_symmetry_cell_setting 'orthorhombic'
loop_
_space_group_symop_operation_xyz
x,y,z
-x,-y,z
x,-y,1/2-z
-x,y,1/2-z
-x,-y,-z
x,y,-z
-x,y,1/2+z
x,-y,1/2+z
1/2+x,1/2+y,z
1/2-x,1/2-y,z
1/2+x,1/2-y,1/2-z
1/2-x,1/2+y,1/2-z
1/2-x,1/2-y,-z
1/2+x,1/2+y,-z
1/2-x,1/2+y,1/2+z
1/2+x,1/2-y,1/2+z
loop_
_atom_site_type_symbol
_atom_site_label
_atom_site_fract_x
_atom_site_fract_y
_atom_site_fract_z
Si Si1 0.500000 0.278898 0.250000
Si Si2 0.811992 0.270991 0.610564
Si Si3 0.643557 0.994647 0.604994
Si Si4 0.536477 0.893323 0.602462
Si Si5 0.190297 0.261866 0.605847
Si Si6 0.880345 0.868565 0.754085
O O1 0.494866 0.201493 0.340689
O O2 0.445705 0.353845 0.240415
O O3 0.816497 0.264812 0.500000
O O4 0.750000 0.250000 0.642747
O O5 0.831737 0.392624 0.651608
O O6 0.851817 0.177448 0.652792
O O7 0.626190 0.027555 0.500000
O O8 0.590469 0.940170 0.655345
O O9 0.687490 0.896721 0.606871
O O10 0.551429 0.842358 0.500000
O O11 0.500000 0.000000 0.588518
O O12 0.186391 0.215321 0.500000
O O13 0.250000 0.250000 0.650088
O O14 0.144183 0.197242 0.664922
O O15 0.866829 0.000000 0.750000
#
# Coordination Sequence:
#
# PCOD8276686 Si02
#       6
#     8  16  16  16  16  16
#     4  12  24  42  62  86 126 173 215 266 320 370
#     4  10  23  43  67  97 133 169 206 261 326 387
#     4   9  18  37  64  95 124 155 204 261 316 374
#     4  10  20  36  62  94 125 158 204 261 318 376
#     4  10  22  42  69  96 124 162 209 266 320 374
#     4  12  27  43  62  92 128 173 220 259 311 387
#
# _framework density 21.013124999999999
#
# number of rings (size 3 to 8) (size 9 to 14) (size 15 to 20)
#    0.000    1.636    1.818    2.182    2.545    3.636 
#    0.000    0.000    0.000    3.273    0.000    0.000 
#    0.000    0.000    0.000    0.000    0.000    0.000 
#
# Total GULP energy -545342.884234 kJ/mol
# GULP energy per Si atom -12394.156460 kJ/mol
# Density = 2.096530 g / cm^3
# Si number density = 21.013125 Si / 1000 Ang^3
#
#
#
# Elastic Constant Matrix: (Units=GPa)
#
#
# Indices 1 2 3 4 5 6 
#
# 1 153.8336 48.1818 28.6273 0.0000 0.0000 0.0000
# 2 48.1818 142.7409 31.1983 0.0000 0.0000 0.0000
# 3 28.6273 31.1983 73.7982 0.0000 0.0000 0.0000
# 4 0.0000 0.0000 0.0000 25.0016 0.0000 0.0000
# 5 0.0000 0.0000 0.0000 0.0000 27.0314 0.0000
# 6 0.0000 0.0000 0.0000 0.0000 0.0000 37.3900
#
#
#
# Elastic Compliance Matrix: (Units=1/GPa)
#
#
# Indices 1 2 3 4 5 6 
#
# 1 0.007537 -0.002099 -0.002036 0.000000 0.000000 0.000000
# 2 -0.002099 0.008303 -0.002696 0.000000 0.000000 0.000000
# 3 -0.002036 -0.002696 0.015480 0.000000 0.000000 0.000000
# 4 0.000000 0.000000 0.000000 0.039997 0.000000 0.000000
# 5 0.000000 0.000000 0.000000 0.000000 0.036994 0.000000
# 6 0.000000 0.000000 0.000000 0.000000 0.000000 0.026745
#
#
# Mechanical properties :
#
#
# Convention : Reuss Voigt Hill
#
# Bulk Modulus (GPa) = 56.63235 65.15420 60.89328
# Shear Modulus (GPa) = 32.34033 35.37563 33.85798
#
# Velocity S-wave (km/s) = 3.92733 4.10750 4.01843
# Velocity P-wave (km/s) = 6.89744 7.31910 7.11139
#
# Compressibility (1/GPa) = 0.01765775
#
# Stress axis : x y z
#
# Youngs Moduli (GPa) = 132.68070 120.43142 64.59885
#
# Poissons Ratio (x) = 0.25278 0.13154
# Poissons Ratio (y) = 0.27850 0.17416
# Poissons Ratio (z) = 0.27018 0.32469
#
# Static dielectric constant tensor:
#      x y z
#    x 4.013240 0.000000 0.000000 
#    y 0.000000 3.732790 0.000000 
#    z 0.000000 0.000000 3.809270 
# 
# 
# High freq. dielectric constant tensor:
#      x y z
#    x 1.839330 0.000000 0.000000 
#    y 0.000000 1.813200 0.000000 
#    z 0.000000 0.000000 1.819870 
# 
# From -- ./inp_files/32211.got.cif
#   From: 2010.03.12/outbox.cif.g09.slc.cpg/sg66_17_cif.got.tgz:32211.got - 2010.04.10 21:57:39.
