data_PCOD8276221
_publ_section_title
;
Structure prediction by ZEFSAII (Michael W. Deem and Ramdas Pophale) SiO2 
 PCOD8276221
Probable space group: C C C M
;
_chemical_formula_sum "Si O2"
_cell_formula_units_Z 80
_cell_length_a 16.447055
_cell_length_b 11.079024
_cell_length_c 21.717758
_cell_angle_alpha 90.000000
_cell_angle_beta 90.000000
_cell_angle_gamma 90.000000
_cell_volume 3957.351596
_symmetry_space_group_name_H-M "C C C M"
_symmetry_group_IT_number 66
_symmetry_cell_setting 'orthorhombic'
loop_
_space_group_symop_operation_xyz
x,y,z
-x,-y,z
x,-y,1/2-z
-x,y,1/2-z
-x,-y,-z
x,y,-z
-x,y,1/2+z
x,-y,1/2+z
1/2+x,1/2+y,z
1/2-x,1/2-y,z
1/2+x,1/2-y,1/2-z
1/2-x,1/2+y,1/2-z
1/2-x,1/2-y,-z
1/2+x,1/2+y,-z
1/2-x,1/2+y,1/2+z
1/2+x,1/2-y,1/2+z
loop_
_atom_site_type_symbol
_atom_site_label
_atom_site_fract_x
_atom_site_fract_y
_atom_site_fract_z
Si Si1 0.476867 0.861741 0.119311
Si Si2 0.860868 0.265092 0.670008
Si Si3 0.730288 0.433776 0.000000
Si Si4 0.608421 0.212405 0.000000
Si Si5 0.336654 0.109008 0.710494
Si Si6 0.234910 0.050897 0.870457
O O1 0.544724 0.790020 0.157971
O O2 0.454276 0.794621 0.056485
O O3 0.395607 0.849126 0.157781
O O4 0.500000 0.000000 0.106362
O O5 0.827866 0.282702 0.740346
O O6 0.842640 0.125872 0.653992
O O7 0.812343 0.359401 0.626758
O O8 0.661368 0.332687 0.000000
O O9 0.824559 0.393687 0.000000
O O10 0.714916 0.510638 0.060933
O O11 0.376430 0.000000 0.750000
O O12 0.253830 0.061818 0.676344
#
# Coordination Sequence:
#
# PCOD8276221 Si02
#       6
#    16  16   8   8  16  16
#     4  12  20  38  64  93 128 158 208 273 322 368
#     4  10  22  36  62  97 124 160 213 257 330 376
#     4  11  22  46  61  87 134 165 220 267 314 389
#     4  11  25  39  63  98 118 167 216 266 327 377
#     4  10  19  37  60  92 126 158 205 265 318 382
#     4  10  21  40  61  93 122 172 204 261 318 380
#
# _framework density 20.215540000000001
#
# number of rings (size 3 to 8) (size 9 to 14) (size 15 to 20)
#    0.000    1.400    6.000    0.900    0.000    3.200 
#   18.000    2.000    0.000    0.000    0.000    0.000 
#    0.000    0.000    0.000    0.000    0.000    0.000 
#
# Total GULP energy -495721.512683 kJ/mol
# GULP energy per Si atom -12393.037817 kJ/mol
# Density = 2.016953 g / cm^3
# Si number density = 20.215540 Si / 1000 Ang^3
#
#
#
# Elastic Constant Matrix: (Units=GPa)
#
#
# Indices 1 2 3 4 5 6 
#
# 1 68.3143 37.7973 32.2911 0.0000 0.0000 0.0000
# 2 37.7973 72.7703 64.3922 0.0000 0.0000 0.0000
# 3 32.2911 64.3922 170.3863 0.0000 0.0000 0.0000
# 4 0.0000 0.0000 0.0000 4.5275 0.0000 0.0000
# 5 0.0000 0.0000 0.0000 0.0000 32.0384 0.0000
# 6 0.0000 0.0000 0.0000 0.0000 0.0000 27.1611
#
#
#
# Elastic Compliance Matrix: (Units=1/GPa)
#
#
# Indices 1 2 3 4 5 6 
#
# 1 0.020546 -0.010857 0.000209 0.000000 0.000000 0.000000
# 2 -0.010857 0.026383 -0.007913 0.000000 0.000000 0.000000
# 3 0.000209 -0.007913 0.008820 0.000000 0.000000 0.000000
# 4 0.000000 0.000000 0.000000 0.220871 0.000000 0.000000
# 5 0.000000 0.000000 0.000000 0.000000 0.031213 0.000000
# 6 0.000000 0.000000 0.000000 0.000000 0.000000 0.036817
#
#
# Mechanical properties :
#
#
# Convention : Reuss Voigt Hill
#
# Bulk Modulus (GPa) = 53.68392 64.49243 59.08818
# Shear Modulus (GPa) = 12.88722 24.54475 18.71598
#
# Velocity S-wave (km/s) = 2.52760 3.48825 3.04603
# Velocity P-wave (km/s) = 5.92720 6.94230 6.45474
#
# Compressibility (1/GPa) = 0.01862755
#
# Stress axis : x y z
#
# Youngs Moduli (GPa) = 48.67043 37.90303 113.38017
#
# Poissons Ratio (x) = 0.41151 -0.02372
# Poissons Ratio (y) = 0.52841 0.89719
# Poissons Ratio (z) = -0.01018 0.29993
#
# Static dielectric constant tensor:
#      x y z
#    x 3.583980 0.000000 0.000000 
#    y 0.000000 3.637040 0.000000 
#    z 0.000000 0.000000 3.835930 
# 
# 
# High freq. dielectric constant tensor:
#      x y z
#    x 1.773470 0.000000 0.000000 
#    y 0.000000 1.768750 0.000000 
#    z 0.000000 0.000000 1.803240 
# 
# From -- ./inp_files/48464.got.cif
#   From: 2010.03.12/outbox.cif.g09.slc.cpg/sg66_25_cif.got.tgz:48464.got - 2010.04.10 21:57:39.
