data_PCOD8276861
_publ_section_title
;
Structure prediction by ZEFSAII (Michael W. Deem and Ramdas Pophale) SiO2 
 PCOD8276861
Probable space group: C C C M
;
_chemical_formula_sum "Si O2"
_cell_formula_units_Z 96
_cell_length_a 14.164148
_cell_length_b 20.233442
_cell_length_c 16.561489
_cell_angle_alpha 90.000000
_cell_angle_beta 90.000000
_cell_angle_gamma 90.000000
_cell_volume 4746.348306
_symmetry_space_group_name_H-M "C C C M"
_symmetry_group_IT_number 66
_symmetry_cell_setting 'orthorhombic'
loop_
_space_group_symop_operation_xyz
x,y,z
-x,-y,z
x,-y,1/2-z
-x,y,1/2-z
-x,-y,-z
x,y,-z
-x,y,1/2+z
x,-y,1/2+z
1/2+x,1/2+y,z
1/2-x,1/2-y,z
1/2+x,1/2-y,1/2-z
1/2-x,1/2+y,1/2-z
1/2-x,1/2-y,-z
1/2+x,1/2+y,-z
1/2-x,1/2+y,1/2+z
1/2+x,1/2-y,1/2+z
loop_
_atom_site_type_symbol
_atom_site_label
_atom_site_fract_x
_atom_site_fract_y
_atom_site_fract_z
Si Si1 0.066820 0.688369 0.905299
Si Si2 0.929496 0.057335 0.592176
Si Si3 0.458318 0.670432 0.838041
Si Si4 0.760386 0.515559 0.842284
Si Si5 0.765718 0.127115 0.906974
Si Si6 0.947542 0.564682 0.095670
O O1 0.033224 0.752730 0.857904
O O2 0.176235 0.673009 0.886951
O O3 0.001827 0.629147 0.872080
O O4 0.051970 0.699790 0.000000
O O5 0.899263 0.045305 0.500000
O O6 0.837697 0.054082 0.648168
O O7 0.978718 0.128338 0.599905
O O8 0.000000 0.000000 0.621840
O O9 0.500000 0.655972 0.750000
O O10 0.349643 0.647194 0.846500
O O11 0.778953 0.500000 0.750000
O O12 0.762475 0.449078 0.895526
O O13 0.840861 0.565473 0.872747
O O14 0.797713 0.137583 0.000000
O O15 0.000000 0.500000 0.130250
O O16 0.949029 0.564199 0.000000
#
# Coordination Sequence:
#
# PCOD8276861 Si02
#       6
#    16  16  16  16  16  16
#     4  10  22  41  68  96 125 167 216 263 310 375
#     4  11  23  40  65  90 121 167 213 259 310 378
#     4  12  25  40  61  93 135 168 201 262 325 382
#     4  12  24  37  61  97 133 164 204 265 327 378
#     4  11  21  41  70  95 121 162 220 273 310 362
#     4  10  20  40  66  92 124 165 213 260 309 374
#
# _framework density 20.226075999999999
#
# number of rings (size 3 to 8) (size 9 to 14) (size 15 to 20)
#    0.000    1.000    3.333    4.500    0.000    3.000 
#    0.000    2.500    0.000    3.000    0.000    0.000 
#    0.000    0.000    0.000    0.000    0.000    0.000 
#
# Total GULP energy -595485.257972 kJ/mol
# GULP energy per Si atom -12405.942874 kJ/mol
# Density = 2.018004 g / cm^3
# Si number density = 20.226076 Si / 1000 Ang^3
#
#
#
# Elastic Constant Matrix: (Units=GPa)
#
#
# Indices 1 2 3 4 5 6 
#
# 1 121.6192 55.6445 32.5324 0.0000 0.0000 0.0000
# 2 55.6445 119.5231 29.3625 0.0000 0.0000 0.0000
# 3 32.5324 29.3625 51.8108 0.0000 0.0000 0.0000
# 4 0.0000 0.0000 0.0000 21.3489 0.0000 0.0000
# 5 0.0000 0.0000 0.0000 0.0000 23.0610 0.0000
# 6 0.0000 0.0000 0.0000 0.0000 0.0000 36.5317
#
#
#
# Elastic Compliance Matrix: (Units=1/GPa)
#
#
# Indices 1 2 3 4 5 6 
#
# 1 0.011398 -0.004122 -0.004821 0.000000 0.000000 0.000000
# 2 -0.004122 0.011211 -0.003765 0.000000 0.000000 0.000000
# 3 -0.004821 -0.003765 0.024462 0.000000 0.000000 0.000000
# 4 0.000000 0.000000 0.000000 0.046841 0.000000 0.000000
# 5 0.000000 0.000000 0.000000 0.000000 0.043363 0.000000
# 6 0.000000 0.000000 0.000000 0.000000 0.000000 0.027373
#
#
# Mechanical properties :
#
#
# Convention : Reuss Voigt Hill
#
# Bulk Modulus (GPa) = 46.17978 58.67019 52.42499
# Shear Modulus (GPa) = 25.34449 27.88256 26.61353
#
# Velocity S-wave (km/s) = 3.54370 3.71690 3.63133
# Velocity P-wave (km/s) = 6.29485 6.89135 6.59984
#
# Compressibility (1/GPa) = 0.02165450
#
# Stress axis : x y z
#
# Youngs Moduli (GPa) = 87.73573 89.20165 40.88017
#
# Poissons Ratio (x) = 0.36769 0.19707
# Poissons Ratio (y) = 0.36165 0.15392
# Poissons Ratio (z) = 0.42295 0.33585
#
# Static dielectric constant tensor:
#      x y z
#    x 3.772050 0.000000 0.000000 
#    y 0.000000 3.718650 0.000000 
#    z 0.000000 0.000000 3.450560 
# 
# 
# High freq. dielectric constant tensor:
#      x y z
#    x 1.799370 0.000000 0.000000 
#    y 0.000000 1.789720 0.000000 
#    z 0.000000 0.000000 1.779960 
# 
# From -- ./inp_files/28385.got.cif
#   From: 2010.03.12/outbox.cif.g09.slc.cpg/sg66_15_cif.got.tgz:28385.got - 2010.04.10 21:57:39.
