data_PCOD8276460
_publ_section_title
;
Structure prediction by ZEFSAII (Michael W. Deem and Ramdas Pophale) SiO2 
 PCOD8276460
Probable space group: C C C M
;
_chemical_formula_sum "Si O2"
_cell_formula_units_Z 120
_cell_length_a 14.145789
_cell_length_b 23.983214
_cell_length_c 18.722816
_cell_angle_alpha 90.000000
_cell_angle_beta 90.000000
_cell_angle_gamma 90.000000
_cell_volume 6351.930356
_symmetry_space_group_name_H-M "C C C M"
_symmetry_group_IT_number 66
_symmetry_cell_setting 'orthorhombic'
loop_
_space_group_symop_operation_xyz
x,y,z
-x,-y,z
x,-y,1/2-z
-x,y,1/2-z
-x,-y,-z
x,y,-z
-x,y,1/2+z
x,-y,1/2+z
1/2+x,1/2+y,z
1/2-x,1/2-y,z
1/2+x,1/2-y,1/2-z
1/2-x,1/2+y,1/2-z
1/2-x,1/2-y,-z
1/2+x,1/2+y,-z
1/2-x,1/2+y,1/2+z
1/2+x,1/2-y,1/2+z
loop_
_atom_site_type_symbol
_atom_site_label
_atom_site_fract_x
_atom_site_fract_y
_atom_site_fract_z
Si Si1 0.402968 0.279148 0.704877
Si Si2 0.284838 0.926646 0.918889
Si Si3 0.750000 0.750000 0.805956
Si Si4 0.728007 0.948190 0.915155
Si Si5 0.409162 0.156217 0.329415
Si Si6 0.877609 0.351077 0.666049
Si Si7 0.937307 0.047975 0.418813
Si Si8 0.594910 0.367126 0.920400
O O1 0.500000 0.277908 0.750000
O O2 0.317462 0.290824 0.759637
O O3 0.379761 0.220544 0.667748
O O4 0.400096 0.322793 0.641835
O O5 0.343751 0.881112 0.877717
O O6 0.173169 0.915114 0.908449
O O7 0.308119 0.989809 0.894747
O O8 0.315224 0.919557 0.000000
O O9 0.816569 0.705990 0.849718
O O10 0.666069 0.903195 0.874534
O O11 0.834696 0.942913 0.884299
O O12 0.722314 0.937027 0.000000
O O13 0.515234 0.154926 0.361103
O O14 0.390535 0.134887 0.249296
O O15 0.919198 0.027748 0.500000
O O16 0.991549 0.106250 0.414991
O O17 0.000000 0.000000 0.379794
O O18 0.607875 0.340453 0.000000
#
# Coordination Sequence:
#
# PCOD8276460 Si02
#       8
#    16  16   8  16  16  16  16  16
#     4  11  21  38  61  84 113 150 193 235 286 344
#     4  10  21  38  60  85 116 149 191 241 293 341
#     4  10  20  40  60  82 110 158 194 234 288 346
#     4  10  21  36  57  87 117 154 193 235 289 339
#     4  10  21  41  58  82 110 153 194 233 293 340
#     4  10  21  38  62  81 114 151 195 235 282 349
#     4   9  16  32  56  80 116 155 184 221 282 349
#     4  10  20  34  58  90 116 149 191 236 287 345
#
# _framework density 18.891894000000001
#
# number of rings (size 3 to 8) (size 9 to 14) (size 15 to 20)
#    0.000    2.000    4.000    1.600    1.867    2.133 
#    0.000    4.667    0.000    0.400    0.000    0.000 
#    0.000    0.000    0.000    0.000    0.000    0.000 
#
# Total GULP energy -743541.598525 kJ/mol
# GULP energy per Si atom -12392.359975 kJ/mol
# Density = 1.884890 g / cm^3
# Si number density = 18.891894 Si / 1000 Ang^3
#
#
#
# Elastic Constant Matrix: (Units=GPa)
#
#
# Indices 1 2 3 4 5 6 
#
# 1 73.4992 13.3226 5.8919 0.0000 0.0000 0.0000
# 2 13.3226 97.7573 39.5591 0.0000 0.0000 0.0000
# 3 5.8919 39.5591 40.3793 0.0000 0.0000 0.0000
# 4 0.0000 0.0000 0.0000 38.9852 0.0000 0.0000
# 5 0.0000 0.0000 0.0000 0.0000 27.4043 0.0000
# 6 0.0000 0.0000 0.0000 0.0000 0.0000 32.1987
#
#
#
# Elastic Compliance Matrix: (Units=1/GPa)
#
#
# Indices 1 2 3 4 5 6 
#
# 1 0.013952 -0.001785 -0.000287 0.000000 0.000000 0.000000
# 2 -0.001785 0.017177 -0.016568 0.000000 0.000000 0.000000
# 3 -0.000287 -0.016568 0.041038 0.000000 0.000000 0.000000
# 4 0.000000 0.000000 0.000000 0.025651 0.000000 0.000000
# 5 0.000000 0.000000 0.000000 0.000000 0.036491 0.000000
# 6 0.000000 0.000000 0.000000 0.000000 0.000000 0.031057
#
#
# Mechanical properties :
#
#
# Convention : Reuss Voigt Hill
#
# Bulk Modulus (GPa) = 28.66320 36.57588 32.61954
# Shear Modulus (GPa) = 23.33452 29.90846 26.62149
#
# Velocity S-wave (km/s) = 3.51830 3.98318 3.75794
# Velocity P-wave (km/s) = 5.63114 6.36844 6.01110
#
# Compressibility (1/GPa) = 0.03488795
#
# Stress axis : x y z
#
# Youngs Moduli (GPa) = 71.67329 58.21691 24.36756
#
# Poissons Ratio (x) = 0.10394 0.00698
# Poissons Ratio (y) = 0.12797 0.40371
# Poissons Ratio (z) = 0.02054 0.96452
#
# Static dielectric constant tensor:
#      x y z
#    x 3.782700 0.000000 0.000000 
#    y 0.000000 3.379330 0.000000 
#    z 0.000000 0.000000 3.193140 
# 
# 
# High freq. dielectric constant tensor:
#      x y z
#    x 1.752950 0.000000 0.000000 
#    y 0.000000 1.733030 0.000000 
#    z 0.000000 0.000000 1.700730 
# 
# From -- ./inp_files/50246.got.cif
#   From: 2010.03.12/outbox.cif.g09.slc.cpg/sg66_26_cif.got.tgz:50246.got - 2010.04.10 21:57:39.
