data_PCOD8276108
_publ_section_title
;
Structure prediction by ZEFSAII (Michael W. Deem and Ramdas Pophale) SiO2 
 PCOD8276108
Probable space group: C C C M
;
_chemical_formula_sum "Si O2"
_cell_formula_units_Z 72
_cell_length_a 18.476945
_cell_length_b 14.131527
_cell_length_c 14.873144
_cell_angle_alpha 90.000000
_cell_angle_beta 90.000000
_cell_angle_gamma 90.000000
_cell_volume 3883.488661
_symmetry_space_group_name_H-M "C C C M"
_symmetry_group_IT_number 66
_symmetry_cell_setting 'orthorhombic'
loop_
_space_group_symop_operation_xyz
x,y,z
-x,-y,z
x,-y,1/2-z
-x,y,1/2-z
-x,-y,-z
x,y,-z
-x,y,1/2+z
x,-y,1/2+z
1/2+x,1/2+y,z
1/2-x,1/2-y,z
1/2+x,1/2-y,1/2-z
1/2-x,1/2+y,1/2-z
1/2-x,1/2-y,-z
1/2+x,1/2+y,-z
1/2-x,1/2+y,1/2+z
1/2+x,1/2-y,1/2+z
loop_
_atom_site_type_symbol
_atom_site_label
_atom_site_fract_x
_atom_site_fract_y
_atom_site_fract_z
Si Si1 0.409231 0.808733 0.396677
Si Si2 0.924823 0.293127 0.104040
Si Si3 0.269186 0.500000 0.250000
Si Si4 0.350672 0.987957 0.896877
Si Si5 0.826156 0.202646 0.754388
O O1 0.391937 0.785098 0.500000
O O2 0.491117 0.782753 0.371770
O O3 0.354757 0.747713 0.337562
O O4 0.397944 0.919424 0.376598
O O5 0.900479 0.399153 0.128669
O O6 0.880970 0.218506 0.163433
O O7 0.910042 0.270007 0.000000
O O8 0.221280 0.513292 0.161604
O O9 0.319906 0.590954 0.261367
O O10 0.325546 0.983749 0.000000
O O11 0.750000 0.250000 0.779971
#
# Coordination Sequence:
#
# PCOD8276108 Si02
#       5
#    16  16   8  16  16
#     4  10  21  38  61  88 116 149 190 237 289 340
#     4  10  21  38  61  88 116 149 190 237 289 340
#     4  12  24  38  52  88 118 150 192 232 278 340
#     4  10  19  34  60  89 118 144 179 238 296 342
#     4  12  23  38  59  82 119 155 191 231 283 338
#
# _framework density 18.540032
#
# number of rings (size 3 to 8) (size 9 to 14) (size 15 to 20)
#    0.000    1.333    4.444    1.333    0.000    5.333 
#    0.000    5.556    0.000    2.667    0.000    0.000 
#    0.000    0.000    0.000    0.000    0.000    0.000 
#
# Total GULP energy -446599.848991 kJ/mol
# GULP energy per Si atom -12405.551361 kJ/mol
# Density = 1.849783 g / cm^3
# Si number density = 18.540032 Si / 1000 Ang^3
#
#
#
# Elastic Constant Matrix: (Units=GPa)
#
#
# Indices 1 2 3 4 5 6 
#
# 1 72.8274 14.0773 29.2092 0.0000 0.0000 0.0000
# 2 14.0773 76.5213 12.8664 0.0000 0.0000 0.0000
# 3 29.2092 12.8664 73.4758 0.0000 0.0000 0.0000
# 4 0.0000 0.0000 0.0000 23.9066 0.0000 0.0000
# 5 0.0000 0.0000 0.0000 0.0000 36.3925 0.0000
# 6 0.0000 0.0000 0.0000 0.0000 0.0000 34.4365
#
#
#
# Elastic Compliance Matrix: (Units=1/GPa)
#
#
# Indices 1 2 3 4 5 6 
#
# 1 0.016629 -0.002007 -0.006259 0.000000 0.000000 0.000000
# 2 -0.002007 0.013707 -0.001602 0.000000 0.000000 0.000000
# 3 -0.006259 -0.001602 0.016379 0.000000 0.000000 0.000000
# 4 0.000000 0.000000 0.000000 0.041830 0.000000 0.000000
# 5 0.000000 0.000000 0.000000 0.000000 0.027478 0.000000
# 6 0.000000 0.000000 0.000000 0.000000 0.000000 0.029039
#
#
# Mechanical properties :
#
#
# Convention : Reuss Voigt Hill
#
# Bulk Modulus (GPa) = 37.06730 37.23669 37.15200
# Shear Modulus (GPa) = 28.77006 30.05854 29.41430
#
# Velocity S-wave (km/s) = 3.94354 4.03088 3.98745
# Velocity P-wave (km/s) = 6.38528 6.46468 6.42510
#
# Compressibility (1/GPa) = 0.02697796
#
# Stress axis : x y z
#
# Youngs Moduli (GPa) = 60.13422 72.95606 61.05439
#
# Poissons Ratio (x) = 0.14641 0.38216
# Poissons Ratio (y) = 0.12068 0.09784
# Poissons Ratio (z) = 0.37640 0.11691
#
# Static dielectric constant tensor:
#      x y z
#    x 3.358890 0.000000 0.000000 
#    y 0.000000 3.382650 0.000000 
#    z 0.000000 0.000000 3.678300 
# 
# 
# High freq. dielectric constant tensor:
#      x y z
#    x 1.715970 0.000000 0.000000 
#    y 0.000000 1.708020 0.000000 
#    z 0.000000 0.000000 1.735830 
# 
# From -- ./inp_files/27939.got.cif
#   From: 2010.03.12/outbox.cif.g09.slc.cpg/sg66_14_cif.got.tgz:27939.got - 2010.04.10 21:57:39.
