data_PCOD8276679
_publ_section_title
;
Structure prediction by ZEFSAII (Michael W. Deem and Ramdas Pophale) SiO2 
 PCOD8276679
Probable space group: C C C M
;
_chemical_formula_sum "Si O2"
_cell_formula_units_Z 96
_cell_length_a 24.290887
_cell_length_b 11.800776
_cell_length_c 18.132997
_cell_angle_alpha 90.000000
_cell_angle_beta 90.000000
_cell_angle_gamma 90.000000
_cell_volume 5197.847459
_symmetry_space_group_name_H-M "C C C M"
_symmetry_group_IT_number 66
_symmetry_cell_setting 'orthorhombic'
loop_
_space_group_symop_operation_xyz
x,y,z
-x,-y,z
x,-y,1/2-z
-x,y,1/2-z
-x,-y,-z
x,y,-z
-x,y,1/2+z
x,-y,1/2+z
1/2+x,1/2+y,z
1/2-x,1/2-y,z
1/2+x,1/2-y,1/2-z
1/2-x,1/2+y,1/2-z
1/2-x,1/2-y,-z
1/2+x,1/2+y,-z
1/2-x,1/2+y,1/2+z
1/2+x,1/2-y,1/2+z
loop_
_atom_site_type_symbol
_atom_site_label
_atom_site_fract_x
_atom_site_fract_y
_atom_site_fract_z
Si Si1 0.854864 0.579722 0.587005
Si Si2 0.372743 0.324994 0.650152
Si Si3 0.942932 0.810198 0.209934
Si Si4 0.764609 0.879807 0.418901
Si Si5 0.442738 0.948394 0.328950
Si Si6 0.436724 0.519118 0.419948
O O1 0.861179 0.588413 0.500000
O O2 0.874648 0.697187 0.621623
O O3 0.790708 0.554849 0.608103
O O4 0.892737 0.477733 0.616393
O O5 0.391641 0.321922 0.734750
O O6 0.313129 0.387105 0.641722
O O7 0.414193 0.396257 0.600980
O O8 0.950074 0.685450 0.177346
O O9 0.924815 0.889393 0.142852
O O10 0.000000 0.848110 0.250000
O O11 0.783630 0.926045 0.500000
O O12 0.750000 0.750000 0.429820
O O13 0.500000 0.000000 0.359510
O O14 0.428239 0.000000 0.250000
O O15 0.500000 0.500000 0.429235
O O16 0.412472 0.558077 0.500000
#
# Coordination Sequence:
#
# PCOD8276679 Si02
#       6
#    16  16  16  16  16  16
#     4  10  20  36  62  90 116 148 191 246 293 339
#     4  11  19  35  62  85 113 152 191 237 287 342
#     4  12  22  38  58  81 120 153 189 237 291 348
#     4   8  16  32  56  87 117 144 185 240 291 333
#     4  11  21  38  56  81 114 157 190 230 294 346
#     4  11  24  37  55  83 116 152 189 233 284 342
#
# _framework density 18.469183000000001
#
# number of rings (size 3 to 8) (size 9 to 14) (size 15 to 20)
#    0.000    1.500    5.000    3.000    0.000    1.000 
#    0.000    1.667    0.000    0.000    0.000    3.500 
#    0.000    0.000    0.000    0.000    0.000    0.000 
#
# Total GULP energy -594965.389922 kJ/mol
# GULP energy per Si atom -12395.112290 kJ/mol
# Density = 1.842715 g / cm^3
# Si number density = 18.469183 Si / 1000 Ang^3
#
#
#
# Elastic Constant Matrix: (Units=GPa)
#
#
# Indices 1 2 3 4 5 6 
#
# 1 110.1177 20.6089 42.6705 0.0000 0.0000 0.0000
# 2 20.6089 53.9091 32.6195 0.0000 0.0000 0.0000
# 3 42.6705 32.6195 103.6998 0.0000 0.0000 0.0000
# 4 0.0000 0.0000 0.0000 22.6394 0.0000 0.0000
# 5 0.0000 0.0000 0.0000 0.0000 -22.5508 0.0000
# 6 0.0000 0.0000 0.0000 0.0000 0.0000 26.9583
#
#
#
# Elastic Compliance Matrix: (Units=1/GPa)
#
#
# Indices 1 2 3 4 5 6 
#
# 1 0.010944 -0.001802 -0.003936 0.000000 0.000000 0.000000
# 2 -0.001802 0.023207 -0.006558 0.000000 0.000000 0.000000
# 3 -0.003936 -0.006558 0.013326 0.000000 0.000000 0.000000
# 4 0.000000 0.000000 0.000000 0.044171 0.000000 0.000000
# 5 0.000000 0.000000 0.000000 0.000000 -0.044344 0.000000
# 6 0.000000 0.000000 0.000000 0.000000 0.000000 0.037094
#
#
# Mechanical properties :
#
#
# Convention : Reuss Voigt Hill
#
# Bulk Modulus (GPa) = 43.69994 51.05824 47.37909
# Shear Modulus (GPa) = 42.87478 16.86457 29.86968
#
# Velocity S-wave (km/s) = 4.82334 3.02507 4.02589
# Velocity P-wave (km/s) = 7.39810 6.31716 6.87889
#
# Compressibility (1/GPa) = 0.02288333
#
# Stress axis : x y z
#
# Youngs Moduli (GPa) = 91.37637 43.09040 75.04142
#
# Poissons Ratio (x) = 0.07764 0.29539
# Poissons Ratio (y) = 0.16465 0.49216
# Poissons Ratio (z) = 0.35969 0.28261
#
# Static dielectric constant tensor:
#      x y z
#    x -16.352200 0.000000 0.000000 
#    y 0.000000 3.902390 0.000000 
#    z 0.000000 0.000000 3.672350 
# 
# 
# High freq. dielectric constant tensor:
#      x y z
#    x 1.719590 0.000000 0.000000 
#    y 0.000000 1.694730 0.000000 
#    z 0.000000 0.000000 1.714540 
# 
# From -- ./inp_files/38864.got.cif
#   From: 2010.03.12/outbox.cif.g09.slc.cpg/sg66_20_cif.got.tgz:38864.got - 2010.04.10 21:57:39.
