data_PCOD8276233
_publ_section_title
;
Structure prediction by ZEFSAII (Michael W. Deem and Ramdas Pophale) SiO2 
 PCOD8276233
Probable space group: C C C M
;
_chemical_formula_sum "Si O2"
_cell_formula_units_Z 96
_cell_length_a 22.676978
_cell_length_b 14.697985
_cell_length_c 14.346375
_cell_angle_alpha 90.000000
_cell_angle_beta 90.000000
_cell_angle_gamma 90.000000
_cell_volume 4781.731180
_symmetry_space_group_name_H-M "C C C M"
_symmetry_group_IT_number 66
_symmetry_cell_setting 'orthorhombic'
loop_
_space_group_symop_operation_xyz
x,y,z
-x,-y,z
x,-y,1/2-z
-x,y,1/2-z
-x,-y,-z
x,y,-z
-x,y,1/2+z
x,-y,1/2+z
1/2+x,1/2+y,z
1/2-x,1/2-y,z
1/2+x,1/2-y,1/2-z
1/2-x,1/2+y,1/2-z
1/2-x,1/2-y,-z
1/2+x,1/2+y,-z
1/2-x,1/2+y,1/2+z
1/2+x,1/2-y,1/2+z
loop_
_atom_site_type_symbol
_atom_site_label
_atom_site_fract_x
_atom_site_fract_y
_atom_site_fract_z
Si Si1 0.127153 0.116370 0.108331
Si Si2 0.497458 0.141678 0.893062
Si Si3 0.875791 0.911315 0.391691
Si Si4 0.596938 0.899853 0.744712
Si Si5 0.681705 0.268611 0.761032
Si Si6 0.499175 0.352647 0.604967
O O1 0.169586 0.186561 0.160474
O O2 0.061531 0.125342 0.153905
O O3 0.148790 0.013022 0.123920
O O4 0.127876 0.144521 0.000000
O O5 0.435404 0.125673 0.841466
O O6 0.549965 0.090233 0.839805
O O7 0.514765 0.246703 0.887754
O O8 0.492549 0.107786 0.000000
O O9 0.876229 0.884295 0.500000
O O10 0.834035 0.840653 0.340607
O O11 0.942979 0.904940 0.351487
O O12 0.646768 0.825467 0.724182
O O13 0.626701 0.000000 0.750000
O O14 0.750000 0.250000 0.769778
O O15 0.507046 0.387325 0.500000
#
# Coordination Sequence:
#
# PCOD8276233 Si02
#       6
#    16  16  16  16  16  16
#     4  10  21  39  64  94 123 150 186 237 300 365
#     4  10  19  37  63  89 120 153 189 238 302 360
#     4  10  21  39  64  94 123 150 186 237 300 365
#     4  11  24  39  58  87 119 155 200 245 293 347
#     4  12  26  42  60  81 117 163 209 249 286 331
#     4   9  16  31  61  94 122 149 177 224 299 369
#
# _framework density 20.076412000000001
#
# number of rings (size 3 to 8) (size 9 to 14) (size 15 to 20)
#    0.000    1.667    3.333    2.000    0.000    6.000 
#    0.000    1.667    0.000    0.000    0.000    0.000 
#    0.000    0.000    0.000    0.000    0.000    0.000 
#
# Total GULP energy -595109.748682 kJ/mol
# GULP energy per Si atom -12398.119764 kJ/mol
# Density = 2.003072 g / cm^3
# Si number density = 20.076412 Si / 1000 Ang^3
#
#
#
# Elastic Constant Matrix: (Units=GPa)
#
#
# Indices 1 2 3 4 5 6 
#
# 1 117.0946 27.8707 28.8542 0.0000 0.0000 0.0000
# 2 27.8707 89.0003 14.5465 0.0000 0.0000 0.0000
# 3 28.8542 14.5465 100.7232 0.0000 0.0000 0.0000
# 4 0.0000 0.0000 0.0000 22.5339 0.0000 0.0000
# 5 0.0000 0.0000 0.0000 0.0000 10.2758 0.0000
# 6 0.0000 0.0000 0.0000 0.0000 0.0000 11.8994
#
#
#
# Elastic Compliance Matrix: (Units=1/GPa)
#
#
# Indices 1 2 3 4 5 6 
#
# 1 0.009769 -0.002665 -0.002414 0.000000 0.000000 0.000000
# 2 -0.002665 0.012234 -0.001004 0.000000 0.000000 0.000000
# 3 -0.002414 -0.001004 0.010765 0.000000 0.000000 0.000000
# 4 0.000000 0.000000 0.000000 0.044378 0.000000 0.000000
# 5 0.000000 0.000000 0.000000 0.000000 0.097316 0.000000
# 6 0.000000 0.000000 0.000000 0.000000 0.000000 0.084038
#
#
# Mechanical properties :
#
#
# Convention : Reuss Voigt Hill
#
# Bulk Modulus (GPa) = 48.53388 49.92899 49.23144
# Shear Modulus (GPa) = 18.01596 24.64493 21.33044
#
# Velocity S-wave (km/s) = 2.99886 3.50745 3.26308
# Velocity P-wave (km/s) = 6.01814 6.42856 6.22673
#
# Compressibility (1/GPa) = 0.02060416
#
# Stress axis : x y z
#
# Youngs Moduli (GPa) = 102.36309 81.73665 92.89718
#
# Poissons Ratio (x) = 0.21781 0.22423
# Poissons Ratio (y) = 0.27277 0.09323
# Poissons Ratio (z) = 0.24708 0.08203
#
# Static dielectric constant tensor:
#      x y z
#    x 3.343100 0.000000 0.000000 
#    y 0.000000 3.723490 0.000000 
#    z 0.000000 0.000000 3.743280 
# 
# 
# High freq. dielectric constant tensor:
#      x y z
#    x 1.745600 0.000000 0.000000 
#    y 0.000000 1.798050 0.000000 
#    z 0.000000 0.000000 1.785750 
# 
# From -- ./inp_files/31188.got.cif
#   From: 2010.03.12/outbox.cif.g09.slc.cpg/sg66_16_cif.got.tgz:31188.got - 2010.04.10 21:57:39.
