data_PCOD8276071
_publ_section_title
;
Structure prediction by ZEFSAII (Michael W. Deem and Ramdas Pophale) SiO2 
 PCOD8276071
Probable space group: C C C M
;
_chemical_formula_sum "Si O2"
_cell_formula_units_Z 88
_cell_length_a 14.989570
_cell_length_b 16.950870
_cell_length_c 18.367258
_cell_angle_alpha 90.000000
_cell_angle_beta 90.000000
_cell_angle_gamma 90.000000
_cell_volume 4666.867753
_symmetry_space_group_name_H-M "C C C M"
_symmetry_group_IT_number 66
_symmetry_cell_setting 'orthorhombic'
loop_
_space_group_symop_operation_xyz
x,y,z
-x,-y,z
x,-y,1/2-z
-x,y,1/2-z
-x,-y,-z
x,y,-z
-x,y,1/2+z
x,-y,1/2+z
1/2+x,1/2+y,z
1/2-x,1/2-y,z
1/2+x,1/2-y,1/2-z
1/2-x,1/2+y,1/2-z
1/2-x,1/2-y,-z
1/2+x,1/2+y,-z
1/2-x,1/2+y,1/2+z
1/2+x,1/2-y,1/2+z
loop_
_atom_site_type_symbol
_atom_site_label
_atom_site_fract_x
_atom_site_fract_y
_atom_site_fract_z
Si Si1 0.825855 0.685947 0.918972
Si Si2 0.701447 0.445955 0.416981
Si Si3 0.585237 0.256986 0.286335
Si Si4 0.832164 0.118871 0.086824
Si Si5 0.478442 0.588235 0.350612
Si Si6 0.250000 0.750000 0.181951
O O1 0.750000 0.750000 0.927454
O O2 0.776543 0.610349 0.880398
O O3 0.902776 0.718314 0.865942
O O4 0.866747 0.669363 0.000000
O O5 0.727757 0.440294 0.500000
O O6 0.708305 0.534945 0.388558
O O7 0.598903 0.418472 0.410713
O O8 0.500000 0.215252 0.250000
O O9 0.564758 0.352099 0.290715
O O10 0.667403 0.236919 0.234996
O O11 0.767157 0.177898 0.127988
O O12 0.934509 0.127859 0.113275
O O13 0.828845 0.131295 0.000000
O O14 0.500000 0.500000 0.318833
#
# Coordination Sequence:
#
# PCOD8276071 Si02
#       6
#    16  16  16  16  16   8
#     4  10  19  34  60  85 112 153 197 238 284 337
#     4   9  17  33  58  90 119 146 191 251 296 344
#     4  12  23  39  54  85 122 158 193 238 285 349
#     4  10  21  36  57  86 120 157 195 238 298 362
#     4  10  19  34  56  87 121 152 186 235 306 365
#     4  12  23  40  55  80 120 166 198 238 293 356
#
# _framework density 18.85633
#
# number of rings (size 3 to 8) (size 9 to 14) (size 15 to 20)
#    0.000    1.636    4.545    0.818    0.000    3.273 
#    0.000    2.727    0.000    2.182    0.000    3.818 
#    0.000    0.000    0.000    0.000    0.000    0.000 
#
# Total GULP energy -545120.330122 kJ/mol
# GULP energy per Si atom -12389.098412 kJ/mol
# Density = 1.881341 g / cm^3
# Si number density = 18.856330 Si / 1000 Ang^3
#
#
#
# Elastic Constant Matrix: (Units=GPa)
#
#
# Indices 1 2 3 4 5 6 
#
# 1 113.9272 61.5983 59.4096 0.0000 0.0000 0.0000
# 2 61.5983 110.9516 47.0910 0.0000 0.0000 0.0000
# 3 59.4096 47.0910 94.2781 0.0000 0.0000 0.0000
# 4 0.0000 0.0000 0.0000 31.9159 0.0000 0.0000
# 5 0.0000 0.0000 0.0000 0.0000 -4.7211 0.0000
# 6 0.0000 0.0000 0.0000 0.0000 0.0000 35.7813
#
#
#
# Elastic Compliance Matrix: (Units=1/GPa)
#
#
# Indices 1 2 3 4 5 6 
#
# 1 0.015424 -0.005632 -0.006906 0.000000 0.000000 0.000000
# 2 -0.005632 0.013494 -0.003191 0.000000 0.000000 0.000000
# 3 -0.006906 -0.003191 0.016553 0.000000 0.000000 0.000000
# 4 0.000000 0.000000 0.000000 0.031332 0.000000 0.000000
# 5 0.000000 0.000000 0.000000 0.000000 -0.211815 0.000000
# 6 0.000000 0.000000 0.000000 0.000000 0.000000 0.027948
#
#
# Mechanical properties :
#
#
# Convention : Reuss Voigt Hill
#
# Bulk Modulus (GPa) = 71.36697 72.81719 72.09208
# Shear Modulus (GPa) = -70.48805 22.66575 -23.91115
#
# Velocity S-wave (km/s) = -6.12069 3.47078 -3.56486
# Velocity P-wave (km/s) = 3.46705 7.40017 4.62288
#
# Compressibility (1/GPa) = 0.01401208
#
# Stress axis : x y z
#
# Youngs Moduli (GPa) = 64.83360 74.10641 60.41186
#
# Poissons Ratio (x) = 0.41736 0.41723
# Poissons Ratio (y) = 0.36514 0.19279
# Poissons Ratio (z) = 0.44777 0.23649
#
# Static dielectric constant tensor:
#      x y z
#    x -0.038330 0.000000 0.000000 
#    y 0.000000 3.790250 0.000000 
#    z 0.000000 0.000000 3.593350 
# 
# 
# High freq. dielectric constant tensor:
#      x y z
#    x 1.714150 0.000000 0.000000 
#    y 0.000000 1.724940 0.000000 
#    z 0.000000 0.000000 1.736110 
# 
# From -- ./inp_files/40361.got.cif
#   From: 2010.03.12/outbox.cif.g09.slc.cpg/sg66_21_cif.got.tgz:40361.got - 2010.04.10 21:57:39.
