data_PCOD8276781
_publ_section_title
;
Structure prediction by ZEFSAII (Michael W. Deem and Ramdas Pophale) SiO2 
 PCOD8276781
Probable space group: C C C M
;
_chemical_formula_sum "Si O2"
_cell_formula_units_Z 84
_cell_length_a 11.689611
_cell_length_b 26.900195
_cell_length_c 13.746174
_cell_angle_alpha 90.000000
_cell_angle_beta 90.000000
_cell_angle_gamma 90.000000
_cell_volume 4322.523115
_symmetry_space_group_name_H-M "C C C M"
_symmetry_group_IT_number 66
_symmetry_cell_setting 'orthorhombic'
loop_
_space_group_symop_operation_xyz
x,y,z
-x,-y,z
x,-y,1/2-z
-x,y,1/2-z
-x,-y,-z
x,y,-z
-x,y,1/2+z
x,-y,1/2+z
1/2+x,1/2+y,z
1/2-x,1/2-y,z
1/2+x,1/2-y,1/2-z
1/2-x,1/2+y,1/2-z
1/2-x,1/2-y,-z
1/2+x,1/2+y,-z
1/2-x,1/2+y,1/2+z
1/2+x,1/2-y,1/2+z
loop_
_atom_site_type_symbol
_atom_site_label
_atom_site_fract_x
_atom_site_fract_y
_atom_site_fract_z
Si Si1 0.377981 0.070347 0.108447
Si Si2 0.337480 0.602088 0.719804
Si Si3 0.500000 0.000000 0.750000
Si Si4 0.457400 0.443457 0.386036
Si Si5 0.512987 0.174925 0.391123
Si Si6 0.195957 0.697397 0.759710
O O1 0.251910 0.083024 0.141676
O O2 0.417723 0.029891 0.182128
O O3 0.464149 0.116369 0.112965
O O4 0.371362 0.048283 0.000000
O O5 0.454102 0.597619 0.656718
O O6 0.345457 0.568113 0.818895
O O7 0.300326 0.658238 0.748235
O O8 0.500000 0.500000 0.368880
O O9 0.431487 0.433934 0.500000
O O10 0.513600 0.196044 0.500000
O O11 0.616060 0.202742 0.335618
O O12 0.387197 0.181911 0.347474
O O13 0.250000 0.750000 0.784704
#
# Coordination Sequence:
#
# PCOD8276781 Si02
#       6
#    16  16   4  16  16  16
#     4  10  21  37  56  80 112 151 187 226 282 340
#     4  10  20  38  58  78 115 155 186 233 293 346
#     4  12  22  32  56  88 112 136 186 240 272 324
#     4  10  22  38  57  85 117 152 197 244 291 350
#     4   9  20  40  57  77 115 152 183 231 288 340
#     4  10  21  37  59  87 112 148 193 243 290 346
#
# _framework density 19.433095000000002
#
# number of rings (size 3 to 8) (size 9 to 14) (size 15 to 20)
#    0.000    2.095    0.000    4.286    2.667    5.333 
#    0.000    2.857    0.000    0.000    0.000    0.000 
#    0.000    0.000    0.000    0.000    0.000    0.000 
#
# Total GULP energy -520498.454001 kJ/mol
# GULP energy per Si atom -12392.820333 kJ/mol
# Density = 1.938886 g / cm^3
# Si number density = 19.433095 Si / 1000 Ang^3
#
#
#
# Elastic Constant Matrix: (Units=GPa)
#
#
# Indices 1 2 3 4 5 6 
#
# 1 70.9483 45.0055 42.3130 0.0000 0.0000 0.0000
# 2 45.0055 76.0925 45.2677 0.0000 0.0000 0.0000
# 3 42.3130 45.2677 175.4991 0.0000 0.0000 0.0000
# 4 0.0000 0.0000 0.0000 19.8839 0.0000 0.0000
# 5 0.0000 0.0000 0.0000 0.0000 25.9557 0.0000
# 6 0.0000 0.0000 0.0000 0.0000 0.0000 25.8601
#
#
#
# Elastic Compliance Matrix: (Units=1/GPa)
#
#
# Indices 1 2 3 4 5 6 
#
# 1 0.023417 -0.012393 -0.002449 0.000000 0.000000 0.000000
# 2 -0.012393 0.022083 -0.002708 0.000000 0.000000 0.000000
# 3 -0.002449 -0.002708 0.006987 0.000000 0.000000 0.000000
# 4 0.000000 0.000000 0.000000 0.050292 0.000000 0.000000
# 5 0.000000 0.000000 0.000000 0.000000 0.038527 0.000000
# 6 0.000000 0.000000 0.000000 0.000000 0.000000 0.038670
#
#
# Mechanical properties :
#
#
# Convention : Reuss Voigt Hill
#
# Bulk Modulus (GPa) = 57.51671 65.30137 61.40904
# Shear Modulus (GPa) = 22.63761 27.00353 24.82057
#
# Velocity S-wave (km/s) = 3.41677 3.73173 3.57772
# Velocity P-wave (km/s) = 6.72512 7.22799 6.98109
#
# Compressibility (1/GPa) = 0.01738625
#
# Stress axis : x y z
#
# Youngs Moduli (GPa) = 42.70430 45.28406 143.12222
#
# Poissons Ratio (x) = 0.56121 0.35054
# Poissons Ratio (y) = 0.52923 0.38758
# Poissons Ratio (z) = 0.10459 0.12263
#
# Static dielectric constant tensor:
#      x y z
#    x 3.524500 0.000000 0.000000 
#    y 0.000000 3.315600 0.000000 
#    z 0.000000 0.000000 3.999130 
# 
# 
# High freq. dielectric constant tensor:
#      x y z
#    x 1.756500 0.000000 0.000000 
#    y 0.000000 1.736400 0.000000 
#    z 0.000000 0.000000 1.774340 
# 
# From -- ./inp_files/26546.got.cif
#   From: 2010.03.12/outbox.cif.g09.slc.cpg/sg66_14_cif.got.tgz:26546.got - 2010.04.10 21:57:39.
