data_PCOD8276658
_publ_section_title
;
Structure prediction by ZEFSAII (Michael W. Deem and Ramdas Pophale) SiO2 
 PCOD8276658
Probable space group: C C C M
;
_chemical_formula_sum "Si O2"
_cell_formula_units_Z 88
_cell_length_a 19.200839
_cell_length_b 9.015847
_cell_length_c 22.702775
_cell_angle_alpha 90.000000
_cell_angle_beta 90.000000
_cell_angle_gamma 90.000000
_cell_volume 3930.118851
_symmetry_space_group_name_H-M "C C C M"
_symmetry_group_IT_number 66
_symmetry_cell_setting 'orthorhombic'
loop_
_space_group_symop_operation_xyz
x,y,z
-x,-y,z
x,-y,1/2-z
-x,y,1/2-z
-x,-y,-z
x,y,-z
-x,y,1/2+z
x,-y,1/2+z
1/2+x,1/2+y,z
1/2-x,1/2-y,z
1/2+x,1/2-y,1/2-z
1/2-x,1/2+y,1/2-z
1/2-x,1/2-y,-z
1/2+x,1/2+y,-z
1/2-x,1/2+y,1/2+z
1/2+x,1/2-y,1/2+z
loop_
_atom_site_type_symbol
_atom_site_label
_atom_site_fract_x
_atom_site_fract_y
_atom_site_fract_z
Si Si1 0.000000 0.500000 0.857011
Si Si2 0.188456 0.843692 0.272169
Si Si3 0.711156 0.978114 0.569076
Si Si4 0.093023 0.699281 0.564808
Si Si5 0.379927 0.791392 0.841295
Si Si6 0.134388 0.019598 0.882118
O O1 0.036240 0.373757 0.894443
O O2 0.058121 0.595350 0.821833
O O3 0.250000 0.750000 0.301867
O O4 0.159215 0.744386 0.219089
O O5 0.132240 0.879797 0.322443
O O6 0.219251 0.000000 0.250000
O O7 0.714066 0.928309 0.500000
O O8 0.669547 0.858773 0.608288
O O9 0.670974 0.134791 0.575119
O O10 0.787519 0.988558 0.596135
O O11 0.067032 0.661154 0.500000
O O12 0.094327 0.878146 0.571220
O O13 0.406016 0.634582 0.869488
#
# Coordination Sequence:
#
# PCOD8276658 Si02
#       6
#     8  16  16  16  16  16
#     4  10  23  44  59  74 110 160 208 246 292 356
#     4  10  20  36  60  89 122 152 187 239 300 366
#     4  10  20  36  60  93 130 161 195 245 307 372
#     4  10  21  38  60  85 118 157 197 244 298 360
#     4  10  22  39  59  85 118 161 204 246 296 355
#     4  11  21  35  60  94 122 150 193 248 310 364
#
# _framework density 22.391181
#
# number of rings (size 3 to 8) (size 9 to 14) (size 15 to 20)
#    0.000    1.818    0.000    5.182    0.000    6.545 
#    0.000    2.727    0.000    3.273    0.000    0.000 
#    0.000    0.000    0.000    0.000    0.000    0.000 
#
# Total GULP energy -545240.941222 kJ/mol
# GULP energy per Si atom -12391.839573 kJ/mol
# Density = 2.234022 g / cm^3
# Si number density = 22.391181 Si / 1000 Ang^3
#
#
#
# Elastic Constant Matrix: (Units=GPa)
#
#
# Indices 1 2 3 4 5 6 
#
# 1 64.6861 43.1935 15.1137 0.0000 0.0000 0.0000
# 2 43.1935 135.0967 30.2126 0.0000 0.0000 0.0000
# 3 15.1137 30.2126 98.1947 0.0000 0.0000 0.0000
# 4 0.0000 0.0000 0.0000 48.4596 0.0000 0.0000
# 5 0.0000 0.0000 0.0000 0.0000 3.5382 0.0000
# 6 0.0000 0.0000 0.0000 0.0000 0.0000 24.8046
#
#
#
# Elastic Compliance Matrix: (Units=1/GPa)
#
#
# Indices 1 2 3 4 5 6 
#
# 1 0.019782 -0.006061 -0.001180 0.000000 0.000000 0.000000
# 2 -0.006061 0.009806 -0.002084 0.000000 0.000000 0.000000
# 3 -0.001180 -0.002084 0.011007 0.000000 0.000000 0.000000
# 4 0.000000 0.000000 0.000000 0.020636 0.000000 0.000000
# 5 0.000000 0.000000 0.000000 0.000000 0.282627 0.000000
# 6 0.000000 0.000000 0.000000 0.000000 0.000000 0.040315
#
#
# Mechanical properties :
#
#
# Convention : Reuss Voigt Hill
#
# Bulk Modulus (GPa) = 45.56923 52.77968 49.17446
# Shear Modulus (GPa) = 12.19103 29.32433 20.75768
#
# Velocity S-wave (km/s) = 2.33589 3.62282 3.04805
# Velocity P-wave (km/s) = 5.26030 6.41269 5.86487
#
# Compressibility (1/GPa) = 0.02194463
#
# Stress axis : x y z
#
# Youngs Moduli (GPa) = 50.55083 101.97805 90.85335
#
# Poissons Ratio (x) = 0.61808 0.10720
# Poissons Ratio (y) = 0.30638 0.18936
# Poissons Ratio (z) = 0.05965 0.21255
#
# Static dielectric constant tensor:
#      x y z
#    x 3.786030 0.000000 0.000000 
#    y 0.000000 4.461440 0.000000 
#    z 0.000000 0.000000 4.147100 
# 
# 
# High freq. dielectric constant tensor:
#      x y z
#    x 1.850250 0.000000 0.000000 
#    y 0.000000 1.902490 0.000000 
#    z 0.000000 0.000000 1.883830 
# 
# From -- ./inp_files/59383.got.cif
#   From: 2010.03.12/outbox.cif.g09.slc.cpg/sg66_30_cif.got.tgz:59383.got - 2010.04.10 21:57:39.
