data_PCOD8276222
_publ_section_title
;
Structure prediction by ZEFSAII (Michael W. Deem and Ramdas Pophale) SiO2 
 PCOD8276222
Probable space group: C C C M
;
_chemical_formula_sum "Si O2"
_cell_formula_units_Z 96
_cell_length_a 15.837419
_cell_length_b 11.186609
_cell_length_c 29.065686
_cell_angle_alpha 90.000000
_cell_angle_beta 90.000000
_cell_angle_gamma 90.000000
_cell_volume 5149.480796
_symmetry_space_group_name_H-M "C C C M"
_symmetry_group_IT_number 66
_symmetry_cell_setting 'orthorhombic'
loop_
_space_group_symop_operation_xyz
x,y,z
-x,-y,z
x,-y,1/2-z
-x,y,1/2-z
-x,-y,-z
x,y,-z
-x,y,1/2+z
x,-y,1/2+z
1/2+x,1/2+y,z
1/2-x,1/2-y,z
1/2+x,1/2-y,1/2-z
1/2-x,1/2+y,1/2-z
1/2-x,1/2-y,-z
1/2+x,1/2+y,-z
1/2-x,1/2+y,1/2+z
1/2+x,1/2-y,1/2+z
loop_
_atom_site_type_symbol
_atom_site_label
_atom_site_fract_x
_atom_site_fract_y
_atom_site_fract_z
Si Si1 0.862773 0.500000 0.250000
Si Si2 0.551872 0.387236 0.821279
Si Si3 0.000000 0.307752 0.750000
Si Si4 0.004637 0.307543 0.000000
Si Si5 0.452620 0.383294 0.427405
Si Si6 0.243688 0.885506 0.822170
Si Si7 0.241508 0.114799 0.571690
Si Si8 0.140726 0.500158 0.500000
O O1 0.920518 0.388354 0.264766
O O2 0.805070 0.471074 0.206171
O O3 0.500000 0.500000 0.802976
O O4 0.526786 0.270220 0.793446
O O5 0.531463 0.355560 0.873948
O O6 0.648205 0.427354 0.814624
O O7 0.989524 0.229565 0.045535
O O8 0.099319 0.366228 0.000000
O O9 0.936047 0.410003 0.000000
O O10 0.500000 0.500000 0.444821
O O11 0.355628 0.416157 0.436721
O O12 0.250000 0.750000 0.804252
O O13 0.270508 0.893638 0.875396
O O14 0.250000 0.250000 0.553190
O O15 0.300679 0.021837 0.544589
#
# Coordination Sequence:
#
# PCOD8276222 Si02
#       8
#     8  16   8   8  16  16  16   8
#     4  11  24  36  55  84 118 150 185 230 298 351
#     4  10  22  39  61  84 111 152 198 237 285 342
#     4  11  23  38  54  82 117 151 184 234 294 347
#     4  11  22  35  56  89 122 149 190 246 291 339
#     4  10  21  39  60  84 113 151 194 238 288 344
#     4  10  21  38  58  84 114 151 193 239 286 341
#     4  10  19  37  61  82 113 152 198 236 276 345
#     4  11  22  34  58  92 116 152 197 238 291 341
#
# _framework density 18.642655000000001
#
# number of rings (size 3 to 8) (size 9 to 14) (size 15 to 20)
#    0.000    1.667    3.333    1.250    2.333    1.333 
#    0.000    5.000    0.000    6.000    0.000    0.000 
#    0.000    0.000    0.000    0.000    0.000    0.000 
#
# Total GULP energy -595255.802921 kJ/mol
# GULP energy per Si atom -12401.162561 kJ/mol
# Density = 1.860022 g / cm^3
# Si number density = 18.642655 Si / 1000 Ang^3
#
#
#
# Elastic Constant Matrix: (Units=GPa)
#
#
# Indices 1 2 3 4 5 6 
#
# 1 107.0825 60.9188 43.6500 0.0000 0.0000 0.0000
# 2 60.9188 106.0998 51.1758 0.0000 0.0000 0.0000
# 3 43.6500 51.1758 95.8826 0.0000 0.0000 0.0000
# 4 0.0000 0.0000 0.0000 25.1127 0.0000 0.0000
# 5 0.0000 0.0000 0.0000 0.0000 21.7389 0.0000
# 6 0.0000 0.0000 0.0000 0.0000 0.0000 39.5182
#
#
#
# Elastic Compliance Matrix: (Units=1/GPa)
#
#
# Indices 1 2 3 4 5 6 
#
# 1 0.014441 -0.006896 -0.002894 0.000000 0.000000 0.000000
# 2 -0.006896 0.015986 -0.005393 0.000000 0.000000 0.000000
# 3 -0.002894 -0.005393 0.014625 0.000000 0.000000 0.000000
# 4 0.000000 0.000000 0.000000 0.039820 0.000000 0.000000
# 5 0.000000 0.000000 0.000000 0.000000 0.046000 0.000000
# 6 0.000000 0.000000 0.000000 0.000000 0.000000 0.025305
#
#
# Mechanical properties :
#
#
# Convention : Reuss Voigt Hill
#
# Bulk Modulus (GPa) = 68.08661 68.95044 68.51853
# Shear Modulus (GPa) = 26.11812 27.49532 26.80672
#
# Velocity S-wave (km/s) = 3.74704 3.84456 3.79611
# Velocity P-wave (km/s) = 7.43785 7.53479 7.48648
#
# Compressibility (1/GPa) = 0.01468718
#
# Stress axis : x y z
#
# Youngs Moduli (GPa) = 69.24630 62.55635 68.37593
#
# Poissons Ratio (x) = 0.43138 0.19786
# Poissons Ratio (y) = 0.47752 0.36873
# Poissons Ratio (z) = 0.20038 0.33735
#
# Static dielectric constant tensor:
#      x y z
#    x 3.690210 0.000000 0.000000 
#    y 0.000000 3.525840 0.000000 
#    z 0.000000 0.000000 3.416620 
# 
# 
# High freq. dielectric constant tensor:
#      x y z
#    x 1.736560 0.000000 0.000000 
#    y 0.000000 1.713310 0.000000 
#    z 0.000000 0.000000 1.728290 
# 
# From -- ./inp_files/69510.got.cif
#   From: 2010.03.12/outbox.cif.g09.slc.cpg/sg66_35_cif.got.tgz:69510.got - 2010.04.10 21:57:39.
