data_PCOD8276445
_publ_section_title
;
Structure prediction by ZEFSAII (Michael W. Deem and Ramdas Pophale) SiO2 
 PCOD8276445
Probable space group: C C C M
;
_chemical_formula_sum "Si O2"
_cell_formula_units_Z 112
_cell_length_a 15.014914
_cell_length_b 23.764791
_cell_length_c 17.770599
_cell_angle_alpha 90.000000
_cell_angle_beta 90.000000
_cell_angle_gamma 90.000000
_cell_volume 6341.016967
_symmetry_space_group_name_H-M "C C C M"
_symmetry_group_IT_number 66
_symmetry_cell_setting 'orthorhombic'
loop_
_space_group_symop_operation_xyz
x,y,z
-x,-y,z
x,-y,1/2-z
-x,y,1/2-z
-x,-y,-z
x,y,-z
-x,y,1/2+z
x,-y,1/2+z
1/2+x,1/2+y,z
1/2-x,1/2-y,z
1/2+x,1/2-y,1/2-z
1/2-x,1/2+y,1/2-z
1/2-x,1/2-y,-z
1/2+x,1/2+y,-z
1/2-x,1/2+y,1/2+z
1/2+x,1/2-y,1/2+z
loop_
_atom_site_type_symbol
_atom_site_label
_atom_site_fract_x
_atom_site_fract_y
_atom_site_fract_z
Si Si1 0.091900 0.683416 0.291446
Si Si2 0.291191 0.861051 0.588563
Si Si3 0.363839 0.306550 0.173471
Si Si4 0.746760 0.687123 0.317153
Si Si5 0.328899 0.591583 0.913455
Si Si6 0.017232 0.089513 0.835984
Si Si7 0.674092 0.533144 0.913853
O O1 0.117681 0.642888 0.362180
O O2 0.093301 0.744941 0.329717
O O3 0.162446 0.675472 0.225665
O O4 0.000000 0.668334 0.250000
O O5 0.310986 0.852481 0.500000
O O6 0.221187 0.813252 0.617543
O O7 0.250722 0.922373 0.606731
O O8 0.334915 0.318018 0.259164
O O9 0.440429 0.349343 0.150634
O O10 0.750000 0.750000 0.353169
O O11 0.734555 0.639079 0.378824
O O12 0.427803 0.590839 0.882439
O O13 0.287422 0.529462 0.898896
O O14 0.334469 0.606565 0.000000
O O15 0.085206 0.041923 0.864934
O O16 0.000000 0.075172 0.750000
O O17 0.644778 0.540858 0.000000
#
# Coordination Sequence:
#
# PCOD8276445 Si02
#       7
#    16  16  16  16  16  16  16
#     4  10  20  34  56  78 105 138 175 227 279 315
#     4   9  18  35  56  80 107 139 183 225 264 315
#     4   9  18  33  53  77 108 145 174 211 267 314
#     4   9  19  36  55  74 100 141 181 216 259 315
#     4  11  22  35  52  76 111 148 176 210 261 320
#     4  11  19  31  51  81 113 144 177 209 248 319
#     4   9  20  36  52  75 110 145 174 216 269 312
#
# _framework density 17.662782
#
# number of rings (size 3 to 8) (size 9 to 14) (size 15 to 20)
#    0.000    2.286    1.429    2.571    2.000    4.286 
#    0.000    0.714    0.000    1.714    0.000    3.000 
#    0.000    0.000    0.000    0.000    0.000    0.000 
#
# Total GULP energy -694216.727350 kJ/mol
# GULP energy per Si atom -12396.727274 kJ/mol
# Density = 1.762258 g / cm^3
# Si number density = 17.662782 Si / 1000 Ang^3
#
#
#
# Elastic Constant Matrix: (Units=GPa)
#
#
# Indices 1 2 3 4 5 6 
#
# 1 67.0766 39.5420 45.0830 0.0000 0.0000 0.0000
# 2 39.5420 105.2413 58.6672 0.0000 0.0000 0.0000
# 3 45.0830 58.6672 109.3058 0.0000 0.0000 0.0000
# 4 0.0000 0.0000 0.0000 31.8485 0.0000 0.0000
# 5 0.0000 0.0000 0.0000 0.0000 32.4751 0.0000
# 6 0.0000 0.0000 0.0000 0.0000 0.0000 20.1918
#
#
#
# Elastic Compliance Matrix: (Units=1/GPa)
#
#
# Indices 1 2 3 4 5 6 
#
# 1 0.022080 -0.004594 -0.006641 0.000000 0.000000 0.000000
# 2 -0.004594 0.014515 -0.005896 0.000000 0.000000 0.000000
# 3 -0.006641 -0.005896 0.015052 0.000000 0.000000 0.000000
# 4 0.000000 0.000000 0.000000 0.031399 0.000000 0.000000
# 5 0.000000 0.000000 0.000000 0.000000 0.030793 0.000000
# 6 0.000000 0.000000 0.000000 0.000000 0.000000 0.049525
#
#
# Mechanical properties :
#
#
# Convention : Reuss Voigt Hill
#
# Bulk Modulus (GPa) = 57.51976 63.13422 60.32699
# Shear Modulus (GPa) = 24.57971 26.12519 25.35245
#
# Velocity S-wave (km/s) = 3.73448 3.85009 3.79272
# Velocity P-wave (km/s) = 7.15760 7.45561 7.30812
#
# Compressibility (1/GPa) = 0.01738533
#
# Stress axis : x y z
#
# Youngs Moduli (GPa) = 45.28965 68.89647 66.43580
#
# Poissons Ratio (x) = 0.31650 0.44122
# Poissons Ratio (y) = 0.20806 0.39168
# Poissons Ratio (z) = 0.30078 0.40618
#
# Static dielectric constant tensor:
#      x y z
#    x 3.082510 0.000000 0.000000 
#    y 0.000000 3.472910 0.000000 
#    z 0.000000 0.000000 3.377670 
# 
# 
# High freq. dielectric constant tensor:
#      x y z
#    x 1.656190 0.000000 0.000000 
#    y 0.000000 1.686440 0.000000 
#    z 0.000000 0.000000 1.681390 
# 
# From -- ./inp_files/28871.got.cif
#   From: 2010.03.12/outbox.cif.g09.slc.cpg/sg66_15_cif.got.tgz:28871.got - 2010.04.10 21:57:39.
