data_PCOD8276906
_publ_section_title
;
Structure prediction by ZEFSAII (Michael W. Deem and Ramdas Pophale) SiO2 
 PCOD8276906
Probable space group: C C C M
;
_chemical_formula_sum "Si O2"
_cell_formula_units_Z 80
_cell_length_a 16.730360
_cell_length_b 25.839907
_cell_length_c 9.599491
_cell_angle_alpha 90.000000
_cell_angle_beta 90.000000
_cell_angle_gamma 90.000000
_cell_volume 4149.965040
_symmetry_space_group_name_H-M "C C C M"
_symmetry_group_IT_number 66
_symmetry_cell_setting 'orthorhombic'
loop_
_space_group_symop_operation_xyz
x,y,z
-x,-y,z
x,-y,1/2-z
-x,y,1/2-z
-x,-y,-z
x,y,-z
-x,y,1/2+z
x,-y,1/2+z
1/2+x,1/2+y,z
1/2-x,1/2-y,z
1/2+x,1/2-y,1/2-z
1/2-x,1/2+y,1/2-z
1/2-x,1/2-y,-z
1/2+x,1/2+y,-z
1/2-x,1/2+y,1/2+z
1/2+x,1/2-y,1/2+z
loop_
_atom_site_type_symbol
_atom_site_label
_atom_site_fract_x
_atom_site_fract_y
_atom_site_fract_z
Si Si1 0.278190 0.691735 0.341376
Si Si2 0.922401 0.154535 0.164065
Si Si3 0.154313 0.048127 0.655029
Si Si4 0.072904 0.574295 0.000000
Si Si5 0.895809 0.452939 0.500000
Si Si6 0.317748 0.902422 0.756271
O O1 0.305669 0.678627 0.500000
O O2 0.250000 0.750000 0.330248
O O3 0.349331 0.685518 0.231741
O O4 0.204567 0.654341 0.300374
O O5 0.909180 0.093359 0.184869
O O6 0.000000 0.171571 0.250000
O O7 0.929708 0.168803 0.000000
O O8 0.145776 0.026818 0.500000
O O9 0.242674 0.070544 0.672059
O O10 0.133159 0.000000 0.750000
O O11 0.109677 0.602433 0.865235
O O12 0.090460 0.513655 0.000000
O O13 0.977296 0.580773 0.000000
O O14 0.844017 0.439949 0.633627
#
# Coordination Sequence:
#
# PCOD8276906 Si02
#       6
#    16  16  16   8   8  16
#     4  10  22  42  67  88 114 154 200 247 300 356
#     4  10  22  40  61  89 121 153 192 239 293 350
#     4  10  21  34  55  84 116 156 198 238 285 345
#     4  11  22  36  55  82 125 157 200 247 294 362
#     4  11  22  36  55  82 117 169 200 237 302 352
#     4  11  21  37  57  85 114 156 199 248 292 355
#
# _framework density 19.277270999999999
#
# number of rings (size 3 to 8) (size 9 to 14) (size 15 to 20)
#    0.000    1.600    2.000    3.000    2.800    4.000 
#    0.000    4.000    0.000    0.000    0.000    0.000 
#    0.000    0.000    0.000    0.000    0.000    0.000 
#
# Total GULP energy -496089.727897 kJ/mol
# GULP energy per Si atom -12402.243197 kJ/mol
# Density = 1.923339 g / cm^3
# Si number density = 19.277271 Si / 1000 Ang^3
#
#
#
# Elastic Constant Matrix: (Units=GPa)
#
#
# Indices 1 2 3 4 5 6 
#
# 1 79.9352 21.2439 40.3346 0.0000 0.0000 0.0000
# 2 21.2439 81.9183 46.3470 0.0000 0.0000 0.0000
# 3 40.3346 46.3470 140.5007 0.0000 0.0000 0.0000
# 4 0.0000 0.0000 0.0000 30.6248 0.0000 0.0000
# 5 0.0000 0.0000 0.0000 0.0000 24.8603 0.0000
# 6 0.0000 0.0000 0.0000 0.0000 0.0000 17.9299
#
#
#
# Elastic Compliance Matrix: (Units=1/GPa)
#
#
# Indices 1 2 3 4 5 6 
#
# 1 0.014835 -0.001767 -0.003676 0.000000 0.000000 0.000000
# 2 -0.001767 0.015219 -0.004513 0.000000 0.000000 0.000000
# 3 -0.003676 -0.004513 0.009661 0.000000 0.000000 0.000000
# 4 0.000000 0.000000 0.000000 0.032653 0.000000 0.000000
# 5 0.000000 0.000000 0.000000 0.000000 0.040225 0.000000
# 6 0.000000 0.000000 0.000000 0.000000 0.000000 0.055773
#
#
# Mechanical properties :
#
#
# Convention : Reuss Voigt Hill
#
# Bulk Modulus (GPa) = 50.49803 57.57837 54.03820
# Shear Modulus (GPa) = 25.65703 27.64491 26.65097
#
# Velocity S-wave (km/s) = 3.65217 3.79102 3.72224
# Velocity P-wave (km/s) = 6.63604 7.00684 6.82396
#
# Compressibility (1/GPa) = 0.01980275
#
# Stress axis : x y z
#
# Youngs Moduli (GPa) = 67.41017 65.70776 103.50633
#
# Poissons Ratio (x) = 0.11614 0.38045
# Poissons Ratio (y) = 0.11915 0.46711
# Poissons Ratio (z) = 0.24777 0.29653
#
# Static dielectric constant tensor:
#      x y z
#    x 3.559860 0.000000 0.000000 
#    y 0.000000 3.322040 0.000000 
#    z 0.000000 0.000000 3.593310 
# 
# 
# High freq. dielectric constant tensor:
#      x y z
#    x 1.748390 0.000000 0.000000 
#    y 0.000000 1.731370 0.000000 
#    z 0.000000 0.000000 1.771610 
# 
# From -- ./inp_files/6743.got.cif
#   From: 2010.03.12/outbox.cif.g09.slc.cpg/sg66_4_cif.got.tgz:6743.got - 2010.04.10 21:57:39.
