data_PCOD8276244
_publ_section_title
;
Structure prediction by ZEFSAII (Michael W. Deem and Ramdas Pophale) SiO2 
 PCOD8276244
Probable space group: C C C M
;
_chemical_formula_sum "Si O2"
_cell_formula_units_Z 64
_cell_length_a 7.404865
_cell_length_b 16.934117
_cell_length_c 26.635471
_cell_angle_alpha 90.000000
_cell_angle_beta 90.000000
_cell_angle_gamma 90.000000
_cell_volume 3339.950898
_symmetry_space_group_name_H-M "C C C M"
_symmetry_group_IT_number 66
_symmetry_cell_setting 'orthorhombic'
loop_
_space_group_symop_operation_xyz
x,y,z
-x,-y,z
x,-y,1/2-z
-x,y,1/2-z
-x,-y,-z
x,y,-z
-x,y,1/2+z
x,-y,1/2+z
1/2+x,1/2+y,z
1/2-x,1/2-y,z
1/2+x,1/2-y,1/2-z
1/2-x,1/2+y,1/2-z
1/2-x,1/2-y,-z
1/2+x,1/2+y,-z
1/2-x,1/2+y,1/2+z
1/2+x,1/2-y,1/2+z
loop_
_atom_site_type_symbol
_atom_site_label
_atom_site_fract_x
_atom_site_fract_y
_atom_site_fract_z
Si Si1 0.602365 0.424289 0.145684
Si Si2 0.971023 0.591696 0.692369
Si Si3 0.736879 0.660464 0.881122
Si Si4 0.790387 0.487711 0.557211
O O1 0.500000 0.500000 0.170683
O O2 0.461174 0.352683 0.142514
O O3 0.676669 0.451716 0.091180
O O4 0.762841 0.390330 0.179673
O O5 0.107550 0.643277 0.659533
O O6 0.000000 0.500000 0.680104
O O7 0.000000 0.613292 0.750000
O O8 0.750000 0.750000 0.899943
O O9 0.751515 0.603099 0.928895
O O10 0.734156 0.503689 0.500000
O O11 0.000000 0.500000 0.566891
#
# Coordination Sequence:
#
# PCOD8276244 Si02
#       4
#    16  16  16  16
#     4  10  19  38  62  86 112 154 195 236 292 341
#     4  11  21  40  62  86 114 151 204 246 279 346
#     4  11  23  39  58  89 124 154 190 241 300 346
#     4  10  19  38  65  86 114 155 200 242 288 348
#
# _framework density 19.161957999999998
#
# number of rings (size 3 to 8) (size 9 to 14) (size 15 to 20)
#    0.000    1.500    7.500    0.000    0.000    7.000 
#    4.500    0.000    0.000    3.000    0.000    0.000 
#    0.000    0.000    0.000    0.000    0.000    0.000 
#
# Total GULP energy -396788.308333 kJ/mol
# GULP energy per Si atom -12399.634635 kJ/mol
# Density = 1.911834 g / cm^3
# Si number density = 19.161958 Si / 1000 Ang^3
#
#
#
# Elastic Constant Matrix: (Units=GPa)
#
#
# Indices 1 2 3 4 5 6 
#
# 1 160.4324 33.8493 45.3383 0.0000 0.0000 0.0000
# 2 33.8493 79.4546 13.6552 0.0000 0.0000 0.0000
# 3 45.3383 13.6552 89.1446 0.0000 0.0000 0.0000
# 4 0.0000 0.0000 0.0000 12.5720 0.0000 0.0000
# 5 0.0000 0.0000 0.0000 0.0000 14.8349 0.0000
# 6 0.0000 0.0000 0.0000 0.0000 0.0000 20.6771
#
#
#
# Elastic Compliance Matrix: (Units=1/GPa)
#
#
# Indices 1 2 3 4 5 6 
#
# 1 0.007811 -0.002717 -0.003557 0.000000 0.000000 0.000000
# 2 -0.002717 0.013871 -0.000743 0.000000 0.000000 0.000000
# 3 -0.003557 -0.000743 0.013140 0.000000 0.000000 0.000000
# 4 0.000000 0.000000 0.000000 0.079542 0.000000 0.000000
# 5 0.000000 0.000000 0.000000 0.000000 0.067408 0.000000
# 6 0.000000 0.000000 0.000000 0.000000 0.000000 0.048363
#
#
# Mechanical properties :
#
#
# Convention : Reuss Voigt Hill
#
# Bulk Modulus (GPa) = 48.10017 57.19081 52.64549
# Shear Modulus (GPa) = 19.91249 25.36272 22.63760
#
# Velocity S-wave (km/s) = 3.22711 3.64207 3.44085
# Velocity P-wave (km/s) = 6.24836 6.89906 6.58176
#
# Compressibility (1/GPa) = 0.02078995
#
# Stress axis : x y z
#
# Youngs Moduli (GPa) = 128.01715 72.09373 76.10069
#
# Poissons Ratio (x) = 0.19585 0.27067
# Poissons Ratio (y) = 0.34777 0.05655
# Poissons Ratio (z) = 0.45532 0.05357
#
# Static dielectric constant tensor:
#      x y z
#    x 4.000190 0.000000 0.000000 
#    y 0.000000 3.212280 0.000000 
#    z 0.000000 0.000000 3.379020 
# 
# 
# High freq. dielectric constant tensor:
#      x y z
#    x 1.775940 0.000000 0.000000 
#    y 0.000000 1.710430 0.000000 
#    z 0.000000 0.000000 1.732520 
# 
# From -- ./inp_files/66949.got.cif
#   From: 2010.03.12/outbox.cif.g09.slc.cpg/sg66_34_cif.got.tgz:66949.got - 2010.04.10 21:57:39.
