data_PCOD8276234
_publ_section_title
;
Structure prediction by ZEFSAII (Michael W. Deem and Ramdas Pophale) SiO2 
 PCOD8276234
Probable space group: C C C M
;
_chemical_formula_sum "Si O2"
_cell_formula_units_Z 80
_cell_length_a 25.203487
_cell_length_b 8.453320
_cell_length_c 18.365854
_cell_angle_alpha 90.000000
_cell_angle_beta 90.000000
_cell_angle_gamma 90.000000
_cell_volume 3912.902877
_symmetry_space_group_name_H-M "C C C M"
_symmetry_group_IT_number 66
_symmetry_cell_setting 'orthorhombic'
loop_
_space_group_symop_operation_xyz
x,y,z
-x,-y,z
x,-y,1/2-z
-x,y,1/2-z
-x,-y,-z
x,y,-z
-x,y,1/2+z
x,-y,1/2+z
1/2+x,1/2+y,z
1/2-x,1/2-y,z
1/2+x,1/2-y,1/2-z
1/2-x,1/2+y,1/2-z
1/2-x,1/2-y,-z
1/2+x,1/2+y,-z
1/2-x,1/2+y,1/2+z
1/2+x,1/2-y,1/2+z
loop_
_atom_site_type_symbol
_atom_site_label
_atom_site_fract_x
_atom_site_fract_y
_atom_site_fract_z
Si Si1 0.498021 0.312168 0.082181
Si Si2 0.704987 0.880333 0.182478
Si Si3 0.102997 0.828278 0.843370
Si Si4 0.400062 0.313915 0.824742
Si Si5 0.197150 0.348359 0.581426
O O1 0.500000 0.500000 0.088734
O O2 0.555176 0.252693 0.109925
O O3 0.450465 0.243329 0.131603
O O4 0.488823 0.253666 0.000000
O O5 0.750000 0.750000 0.196806
O O6 0.649578 0.798430 0.165849
O O7 0.702896 0.000000 0.250000
O O8 0.715319 0.979818 0.109489
O O9 0.085446 0.815987 0.759906
O O10 0.155560 0.730148 0.862496
O O11 0.114071 0.013824 0.858378
O O12 0.172755 0.359522 0.500000
O O13 0.250000 0.250000 0.579803
#
# Coordination Sequence:
#
# PCOD8276234 Si02
#       5
#    16  16  16  16  16
#     4   9  18  34  58  91 128 167 208 253 304 365
#     4  12  25  41  65  91 123 163 209 265 316 379
#     4  10  19  37  63  93 125 167 211 255 307 370
#     4  10  21  35  63  94 124 160 212 264 304 361
#     4  11  24  42  63  91 128 168 207 257 320 380
#
# _framework density 20.445179
#
# number of rings (size 3 to 8) (size 9 to 14) (size 15 to 20)
#    0.000    1.600    2.000    3.000    2.800    4.400 
#    0.000    1.000    0.000    2.400    0.000    0.000 
#    0.000    0.000    0.000    0.000    0.000    0.000 
#
# Total GULP energy -495957.238535 kJ/mol
# GULP energy per Si atom -12398.930963 kJ/mol
# Density = 2.039864 g / cm^3
# Si number density = 20.445179 Si / 1000 Ang^3
#
#
#
# Elastic Constant Matrix: (Units=GPa)
#
#
# Indices 1 2 3 4 5 6 
#
# 1 129.3181 47.8981 60.9337 0.0000 0.0000 0.0000
# 2 47.8981 85.8848 42.2862 0.0000 0.0000 0.0000
# 3 60.9337 42.2862 127.9179 0.0000 0.0000 0.0000
# 4 0.0000 0.0000 0.0000 22.3079 0.0000 0.0000
# 5 0.0000 0.0000 0.0000 0.0000 46.0242 0.0000
# 6 0.0000 0.0000 0.0000 0.0000 0.0000 29.7127
#
#
#
# Elastic Compliance Matrix: (Units=1/GPa)
#
#
# Indices 1 2 3 4 5 6 
#
# 1 0.011163 -0.004309 -0.003893 0.000000 0.000000 0.000000
# 2 -0.004309 0.015570 -0.003095 0.000000 0.000000 0.000000
# 3 -0.003893 -0.003095 0.010695 0.000000 0.000000 0.000000
# 4 0.000000 0.000000 0.000000 0.044827 0.000000 0.000000
# 5 0.000000 0.000000 0.000000 0.000000 0.021728 0.000000
# 6 0.000000 0.000000 0.000000 0.000000 0.000000 0.033656
#
#
# Mechanical properties :
#
#
# Convention : Reuss Voigt Hill
#
# Bulk Modulus (GPa) = 67.40740 71.70632 69.55686
# Shear Modulus (GPa) = 30.27044 32.40914 31.33979
#
# Velocity S-wave (km/s) = 3.85199 3.98574 3.91944
# Velocity P-wave (km/s) = 7.26809 7.50534 7.38767
#
# Compressibility (1/GPa) = 0.01483517
#
# Stress axis : x y z
#
# Youngs Moduli (GPa) = 89.57915 64.22515 93.50147
#
# Poissons Ratio (x) = 0.27674 0.36402
# Poissons Ratio (y) = 0.38599 0.28934
# Poissons Ratio (z) = 0.34875 0.19875
#
# Static dielectric constant tensor:
#      x y z
#    x 3.757580 0.000000 0.000000 
#    y 0.000000 3.717370 0.000000 
#    z 0.000000 0.000000 3.969480 
# 
# 
# High freq. dielectric constant tensor:
#      x y z
#    x 1.807760 0.000000 0.000000 
#    y 0.000000 1.779710 0.000000 
#    z 0.000000 0.000000 1.806560 
# 
# From -- ./inp_files/44112.got.cif
#   From: 2010.03.12/outbox.cif.g09.slc.cpg/sg66_23_cif.got.tgz:44112.got - 2010.04.10 21:57:39.
