data_PCOD8276410
_publ_section_title
;
Structure prediction by ZEFSAII (Michael W. Deem and Ramdas Pophale) SiO2 
 PCOD8276410
Probable space group: C C C M
;
_chemical_formula_sum "Si O2"
_cell_formula_units_Z 80
_cell_length_a 8.439336
_cell_length_b 16.258491
_cell_length_c 28.737525
_cell_angle_alpha 90.000000
_cell_angle_beta 90.000000
_cell_angle_gamma 90.000000
_cell_volume 3943.100761
_symmetry_space_group_name_H-M "C C C M"
_symmetry_group_IT_number 66
_symmetry_cell_setting 'orthorhombic'
loop_
_space_group_symop_operation_xyz
x,y,z
-x,-y,z
x,-y,1/2-z
-x,y,1/2-z
-x,-y,-z
x,y,-z
-x,y,1/2+z
x,-y,1/2+z
1/2+x,1/2+y,z
1/2-x,1/2-y,z
1/2+x,1/2-y,1/2-z
1/2-x,1/2+y,1/2-z
1/2-x,1/2-y,-z
1/2+x,1/2+y,-z
1/2-x,1/2+y,1/2+z
1/2+x,1/2-y,1/2+z
loop_
_atom_site_type_symbol
_atom_site_label
_atom_site_fract_x
_atom_site_fract_y
_atom_site_fract_z
Si Si1 0.934701 0.269001 0.198449
Si Si2 0.953429 0.404946 0.632938
Si Si3 0.543509 0.587888 0.552118
Si Si4 0.859296 0.825391 0.871949
Si Si5 0.353898 0.171491 0.552295
O O1 0.750000 0.250000 0.197813
O O2 0.962661 0.358835 0.175925
O O3 0.000000 0.271948 0.250000
O O4 0.029937 0.196447 0.171940
O O5 0.004610 0.353826 0.586615
O O6 0.000000 0.500000 0.631418
O O7 0.761914 0.400676 0.638747
O O8 0.500000 0.500000 0.573823
O O9 0.473788 0.596788 0.500000
O O10 0.468708 0.658576 0.583678
O O11 0.733243 0.594641 0.551698
O O12 0.750000 0.750000 0.885700
O O13 0.420695 0.188185 0.500000
O O14 0.250000 0.250000 0.569428
#
# Coordination Sequence:
#
# PCOD8276410 Si02
#       5
#    16  16  16  16  16
#     4  11  23  43  66  85 111 147 190 238 293 358
#     4  11  22  36  58  88 120 152 189 241 296 345
#     4  10  20  34  53  79 114 154 192 233 282 335
#     4  10  21  36  57  85 113 146 192 233 282 341
#     4  10  20  35  55  80 114 159 204 240 284 343
#
# _framework density 20.288602000000001
#
# number of rings (size 3 to 8) (size 9 to 14) (size 15 to 20)
#    0.000    1.600    0.000    7.200    0.000    2.000 
#    0.000    0.000    0.000    4.200    0.000    0.000 
#    0.000    0.000    0.000    0.000    0.000    0.000 
#
# Total GULP energy -495880.186820 kJ/mol
# GULP energy per Si atom -12397.004670 kJ/mol
# Density = 2.024242 g / cm^3
# Si number density = 20.288602 Si / 1000 Ang^3
#
#
#
# Elastic Constant Matrix: (Units=GPa)
#
#
# Indices 1 2 3 4 5 6 
#
# 1 123.3409 35.3301 58.5110 0.0000 0.0000 0.0000
# 2 35.3301 88.5621 47.0312 0.0000 0.0000 0.0000
# 3 58.5110 47.0312 143.7050 0.0000 0.0000 0.0000
# 4 0.0000 0.0000 0.0000 -2.5043 0.0000 0.0000
# 5 0.0000 0.0000 0.0000 0.0000 162.1118 0.0000
# 6 0.0000 0.0000 0.0000 0.0000 0.0000 -331.0585
#
#
#
# Elastic Compliance Matrix: (Units=1/GPa)
#
#
# Indices 1 2 3 4 5 6 
#
# 1 0.010423 -0.002305 -0.003490 0.000000 0.000000 0.000000
# 2 -0.002305 0.014177 -0.003701 0.000000 0.000000 0.000000
# 3 -0.003490 -0.003701 0.009591 0.000000 0.000000 0.000000
# 4 0.000000 0.000000 0.000000 -0.399310 0.000000 0.000000
# 5 0.000000 0.000000 0.000000 0.000000 0.006169 0.000000
# 6 0.000000 0.000000 0.000000 0.000000 0.000000 -0.003021
#
#
# Mechanical properties :
#
#
# Convention : Reuss Voigt Hill
#
# Bulk Modulus (GPa) = 65.79295 70.81695 68.30495
# Shear Modulus (GPa) = -14.79669 -19.97448 -17.38558
#
# Velocity S-wave (km/s) = -2.70350 -3.14111 -2.93048
# Velocity P-wave (km/s) = 4.77008 4.67174 4.72117
#
# Compressibility (1/GPa) = 0.01519920
#
# Stress axis : x y z
#
# Youngs Moduli (GPa) = 95.93935 70.53908 104.26659
#
# Poissons Ratio (x) = 0.16259 0.36384
# Poissons Ratio (y) = 0.22114 0.38590
# Poissons Ratio (z) = 0.33479 0.26107
#
# Static dielectric constant tensor:
#      x y z
#    x 4.115550 0.000000 0.000000 
#    y 0.000000 3.763100 0.000000 
#    z 0.000000 0.000000 3.598080 
# 
# 
# High freq. dielectric constant tensor:
#      x y z
#    x 1.801620 0.000000 0.000000 
#    y 0.000000 1.788480 0.000000 
#    z 0.000000 0.000000 1.785250 
# 
# From -- ./inp_files/62364.got.cif
#   From: 2010.03.12/outbox.cif.g09.slc.cpg/sg66_32_cif.got.tgz:62364.got - 2010.04.10 21:57:39.
