data_PCOD8276804
_publ_section_title
;
Structure prediction by ZEFSAII (Michael W. Deem and Ramdas Pophale) SiO2 
 PCOD8276804
Probable space group: C C C M
;
_chemical_formula_sum "Si O2"
_cell_formula_units_Z 88
_cell_length_a 13.100435
_cell_length_b 15.132526
_cell_length_c 23.409736
_cell_angle_alpha 90.000000
_cell_angle_beta 90.000000
_cell_angle_gamma 90.000000
_cell_volume 4640.808645
_symmetry_space_group_name_H-M "C C C M"
_symmetry_group_IT_number 66
_symmetry_cell_setting 'orthorhombic'
loop_
_space_group_symop_operation_xyz
x,y,z
-x,-y,z
x,-y,1/2-z
-x,y,1/2-z
-x,-y,-z
x,y,-z
-x,y,1/2+z
x,-y,1/2+z
1/2+x,1/2+y,z
1/2-x,1/2-y,z
1/2+x,1/2-y,1/2-z
1/2-x,1/2+y,1/2-z
1/2-x,1/2-y,-z
1/2+x,1/2+y,-z
1/2-x,1/2+y,1/2+z
1/2+x,1/2-y,1/2+z
loop_
_atom_site_type_symbol
_atom_site_label
_atom_site_fract_x
_atom_site_fract_y
_atom_site_fract_z
Si Si1 0.782939 0.910858 0.718450
Si Si2 0.750000 0.750000 0.201374
Si Si3 0.871353 0.247804 0.500000
Si Si4 0.526454 0.599923 0.500000
Si Si5 0.064593 0.270853 0.876157
Si Si6 0.548939 0.091608 0.809837
Si Si7 0.050486 0.903818 0.123268
O O1 0.796294 0.827477 0.759826
O O2 0.668830 0.921712 0.696057
O O3 0.853919 0.894042 0.664223
O O4 0.818758 0.000000 0.750000
O O5 0.836161 0.707063 0.161421
O O6 0.750000 0.250000 0.500000
O O7 0.912414 0.294232 0.557641
O O8 0.916571 0.148948 0.500000
O O9 0.500000 0.500000 0.500000
O O10 0.589214 0.618742 0.441656
O O11 0.972341 0.334304 0.857192
O O12 0.035515 0.169277 0.863044
O O13 0.500000 0.122486 0.750000
O O14 0.500000 0.000000 0.830390
O O15 0.000000 0.000000 0.128747
#
# Coordination Sequence:
#
# PCOD8276804 Si02
#       7
#    16   8   8   8  16  16  16
#     4  12  23  36  58  88 117 156 197 238 301 362
#     4  12  22  33  58  85 114 156 194 238 300 356
#     4  10  20  38  62  90 116 158 209 254 297 358
#     4   8  18  40  59  82 121 157 192 245 304 348
#     4  11  22  38  60  86 121 153 199 250 298 347
#     4  11  21  41  59  79 116 160 197 240 290 356
#     4  10  22  38  60  89 122 152 193 248 300 360
#
# _framework density 18.962213999999999
#
# number of rings (size 3 to 8) (size 9 to 14) (size 15 to 20)
#    0.000    1.273    4.545    2.182    0.000    1.818 
#    3.273    1.364    0.000    3.818    0.000    0.000 
#    0.000    0.000    0.000    0.000    0.000    0.000 
#
# Total GULP energy -545525.322826 kJ/mol
# GULP energy per Si atom -12398.302791 kJ/mol
# Density = 1.891905 g / cm^3
# Si number density = 18.962214 Si / 1000 Ang^3
#
#
#
# Elastic Constant Matrix: (Units=GPa)
#
#
# Indices 1 2 3 4 5 6 
#
# 1 82.4248 4.4960 65.0030 0.0000 0.0000 0.0000
# 2 4.4960 90.2961 55.4778 0.0000 0.0000 0.0000
# 3 65.0030 55.4778 154.8420 0.0000 0.0000 0.0000
# 4 0.0000 0.0000 0.0000 22.6283 0.0000 0.0000
# 5 0.0000 0.0000 0.0000 0.0000 33.9895 0.0000
# 6 0.0000 0.0000 0.0000 0.0000 0.0000 26.1827
#
#
#
# Elastic Compliance Matrix: (Units=1/GPa)
#
#
# Indices 1 2 3 4 5 6 
#
# 1 0.019952 0.005325 -0.010284 0.000000 0.000000 0.000000
# 2 0.005325 0.015622 -0.007832 0.000000 0.000000 0.000000
# 3 -0.010284 -0.007832 0.013582 0.000000 0.000000 0.000000
# 4 0.000000 0.000000 0.000000 0.044192 0.000000 0.000000
# 5 0.000000 0.000000 0.000000 0.000000 0.029421 0.000000
# 6 0.000000 0.000000 0.000000 0.000000 0.000000 0.038193
#
#
# Mechanical properties :
#
#
# Convention : Reuss Voigt Hill
#
# Bulk Modulus (GPa) = 42.42205 64.16849 53.29527
# Shear Modulus (GPa) = 25.71995 30.06585 27.89290
#
# Velocity S-wave (km/s) = 3.68690 3.98624 3.83949
# Velocity P-wave (km/s) = 6.36748 7.42297 6.91539
#
# Compressibility (1/GPa) = 0.02357265
#
# Stress axis : x y z
#
# Youngs Moduli (GPa) = 50.12070 64.01316 73.62929
#
# Poissons Ratio (x) = -0.34086 0.75718
# Poissons Ratio (y) = -0.26688 0.57670
# Poissons Ratio (z) = 0.51542 0.50138
#
# Static dielectric constant tensor:
#      x y z
#    x 3.273790 0.000000 0.000000 
#    y 0.000000 3.527340 0.000000 
#    z 0.000000 0.000000 4.301830 
# 
# 
# High freq. dielectric constant tensor:
#      x y z
#    x 1.723930 0.000000 0.000000 
#    y 0.000000 1.740400 0.000000 
#    z 0.000000 0.000000 1.747380 
# 
# From -- ./inp_files/48607.got.cif
#   From: 2010.03.12/outbox.cif.g09.slc.cpg/sg66_25_cif.got.tgz:48607.got - 2010.04.10 21:57:39.
