data_PCOD8276449
_publ_section_title
;
Structure prediction by ZEFSAII (Michael W. Deem and Ramdas Pophale) SiO2 
 PCOD8276449
Probable space group: C C C M
;
_chemical_formula_sum "Si O2"
_cell_formula_units_Z 112
_cell_length_a 12.971029
_cell_length_b 23.425396
_cell_length_c 19.438146
_cell_angle_alpha 90.000000
_cell_angle_beta 90.000000
_cell_angle_gamma 90.000000
_cell_volume 5906.309642
_symmetry_space_group_name_H-M "C C C M"
_symmetry_group_IT_number 66
_symmetry_cell_setting 'orthorhombic'
loop_
_space_group_symop_operation_xyz
x,y,z
-x,-y,z
x,-y,1/2-z
-x,y,1/2-z
-x,-y,-z
x,y,-z
-x,y,1/2+z
x,-y,1/2+z
1/2+x,1/2+y,z
1/2-x,1/2-y,z
1/2+x,1/2-y,1/2-z
1/2-x,1/2+y,1/2-z
1/2-x,1/2-y,-z
1/2+x,1/2+y,-z
1/2-x,1/2+y,1/2+z
1/2+x,1/2-y,1/2+z
loop_
_atom_site_type_symbol
_atom_site_label
_atom_site_fract_x
_atom_site_fract_y
_atom_site_fract_z
Si Si1 0.881125 0.014528 0.922962
Si Si2 0.689781 0.334218 0.294305
Si Si3 0.705549 0.444132 0.792070
Si Si4 0.446418 0.939882 0.181586
Si Si5 0.271054 0.397996 0.924292
Si Si6 0.409015 0.783240 0.700776
Si Si7 0.045361 0.640690 0.421031
O O1 0.850079 0.060951 0.866230
O O2 0.809555 0.960611 0.905066
O O3 0.857782 0.037396 0.000000
O O4 0.000000 0.000000 0.915541
O O5 0.665010 0.387888 0.246402
O O6 0.681284 0.351729 0.373759
O O7 0.605716 0.284394 0.288101
O O8 0.804684 0.314088 0.275256
O O9 0.668326 0.500000 0.750000
O O10 0.827278 0.447667 0.802023
O O11 0.500000 0.913737 0.250000
O O12 0.458398 0.896772 0.117286
O O13 0.500000 0.000000 0.163415
O O14 0.147481 0.398241 0.919708
O O15 0.309796 0.380563 0.000000
O O16 0.500000 0.804403 0.750000
O O17 0.435786 0.800413 0.621539
O O18 0.012889 0.655037 0.500000
#
# Coordination Sequence:
#
# PCOD8276449 Si02
#       7
#    16  16  16  16  16  16  16
#     4  10  22  38  54  76 113 157 189 228 287 336
#     4  10  21  35  56  85 106 143 193 234 283 341
#     4  12  21  36  58  86 118 148 192 237 286 346
#     4  11  20  32  56  87 122 158 184 223 295 363
#     4   9  17  33  54  78 114 148 180 229 284 339
#     4  10  21  38  57  76 110 148 188 237 290 338
#     4  10  20  34  56  85 115 148 190 238 288 350
#
# _framework density 18.962772000000001
#
# number of rings (size 3 to 8) (size 9 to 14) (size 15 to 20)
#    0.000    1.714    2.857    3.857    0.000    2.857 
#    0.000    2.857    0.000    0.857    0.000    3.000 
#    0.000    0.000    0.000    0.000    0.000    0.000 
#
# Total GULP energy -694266.287010 kJ/mol
# GULP energy per Si atom -12397.612268 kJ/mol
# Density = 1.891961 g / cm^3
# Si number density = 18.962772 Si / 1000 Ang^3
#
#
#
# Elastic Constant Matrix: (Units=GPa)
#
#
# Indices 1 2 3 4 5 6 
#
# 1 36.0403 16.4169 35.6729 0.0000 0.0000 0.0000
# 2 16.4169 112.1049 57.5029 0.0000 0.0000 0.0000
# 3 35.6729 57.5029 139.3947 0.0000 0.0000 0.0000
# 4 0.0000 0.0000 0.0000 26.3298 0.0000 0.0000
# 5 0.0000 0.0000 0.0000 0.0000 24.7451 0.0000
# 6 0.0000 0.0000 0.0000 0.0000 0.0000 16.3350
#
#
#
# Elastic Compliance Matrix: (Units=1/GPa)
#
#
# Indices 1 2 3 4 5 6 
#
# 1 0.037205 -0.000716 -0.009226 0.000000 0.000000 0.000000
# 2 -0.000716 0.011328 -0.004490 0.000000 0.000000 0.000000
# 3 -0.009226 -0.004490 0.011387 0.000000 0.000000 0.000000
# 4 0.000000 0.000000 0.000000 0.037980 0.000000 0.000000
# 5 0.000000 0.000000 0.000000 0.000000 0.040412 0.000000
# 6 0.000000 0.000000 0.000000 0.000000 0.000000 0.061218
#
#
# Mechanical properties :
#
#
# Convention : Reuss Voigt Hill
#
# Bulk Modulus (GPa) = 32.19948 56.30280 44.25114
# Shear Modulus (GPa) = 20.94284 25.34512 23.14398
#
# Velocity S-wave (km/s) = 3.32689 3.65988 3.49735
# Velocity P-wave (km/s) = 5.63691 6.90039 6.30040
#
# Compressibility (1/GPa) = 0.03105641
#
# Stress axis : x y z
#
# Youngs Moduli (GPa) = 26.87843 88.27638 87.81968
#
# Poissons Ratio (x) = 0.06321 0.81020
# Poissons Ratio (y) = 0.01925 0.39429
# Poissons Ratio (z) = 0.24797 0.39634
#
# Static dielectric constant tensor:
#      x y z
#    x 3.376020 0.000000 0.000000 
#    y 0.000000 3.451520 0.000000 
#    z 0.000000 0.000000 3.702480 
# 
# 
# High freq. dielectric constant tensor:
#      x y z
#    x 1.722920 0.000000 0.000000 
#    y 0.000000 1.722120 0.000000 
#    z 0.000000 0.000000 1.744660 
# 
# From -- ./inp_files/49017.got.cif
#   From: 2010.03.12/outbox.cif.g09.slc.cpg/sg66_25_cif.got.tgz:49017.got - 2010.04.10 21:57:39.
