data_PCOD8276402
_publ_section_title
;
Structure prediction by ZEFSAII (Michael W. Deem and Ramdas Pophale) SiO2 
 PCOD8276402
Probable space group: C C C M
;
_chemical_formula_sum "Si O2"
_cell_formula_units_Z 116
_cell_length_a 22.076924
_cell_length_b 31.249961
_cell_length_c 8.953490
_cell_angle_alpha 90.000000
_cell_angle_beta 90.000000
_cell_angle_gamma 90.000000
_cell_volume 6177.039737
_symmetry_space_group_name_H-M "C C C M"
_symmetry_group_IT_number 66
_symmetry_cell_setting 'orthorhombic'
loop_
_space_group_symop_operation_xyz
x,y,z
-x,-y,z
x,-y,1/2-z
-x,y,1/2-z
-x,-y,-z
x,y,-z
-x,y,1/2+z
x,-y,1/2+z
1/2+x,1/2+y,z
1/2-x,1/2-y,z
1/2+x,1/2-y,1/2-z
1/2-x,1/2+y,1/2-z
1/2-x,1/2-y,-z
1/2+x,1/2+y,-z
1/2-x,1/2+y,1/2+z
1/2+x,1/2-y,1/2+z
loop_
_atom_site_type_symbol
_atom_site_label
_atom_site_fract_x
_atom_site_fract_y
_atom_site_fract_z
Si Si1 0.561374 0.845768 0.176921
Si Si2 0.592695 0.068682 0.165610
Si Si3 0.167811 0.285982 0.822534
Si Si4 0.676118 0.601331 0.175143
Si Si5 0.561957 0.544907 0.176739
Si Si6 0.500000 0.000000 0.750000
Si Si7 0.800504 0.194903 0.676512
Si Si8 0.272998 0.956347 0.175586
O O1 0.500000 0.828443 0.250000
O O2 0.571857 0.895071 0.219922
O O3 0.614408 0.815511 0.242560
O O4 0.555864 0.843220 0.000000
O O5 0.544039 0.030324 0.153631
O O6 0.657406 0.051300 0.221307
O O7 0.598839 0.088626 0.000000
O O8 0.161314 0.236373 0.767628
O O9 0.231768 0.303830 0.761260
O O10 0.165174 0.288772 0.000000
O O11 0.613869 0.578412 0.217748
O O12 0.668069 0.650726 0.226002
O O13 0.732617 0.582290 0.263858
O O14 0.690561 0.597359 0.000000
O O15 0.580455 0.500000 0.250000
O O16 0.500000 0.562090 0.250000
O O17 0.553444 0.539127 0.000000
O O18 0.796159 0.198014 0.500000
O O19 0.249653 0.000000 0.250000
O O20 0.264193 0.960546 0.000000
#
# Coordination Sequence:
#
# PCOD8276402 Si02
#       8
#    16  16  16  16  16   4  16  16
#     4  11  22  35  54  79 107 140 179 222 271 321
#     4  11  24  39  56  79 106 143 189 231 272 316
#     4   8  15  29  52  79 103 132 171 217 260 307
#     4  10  20  34  55  83 110 140 177 222 271 321
#     4  10  20  34  53  76 103 137 177 214 256 311
#     4  12  22  40  60  74 106 144 192 228 266 308
#     4   8  14  29  53  79 104 130 170 217 262 310
#     4  11  23  37  53  78 111 145 182 226 271 321
#
# _framework density 18.779223000000002
#
# number of rings (size 3 to 8) (size 9 to 14) (size 15 to 20)
#    0.000    2.069    1.379    3.931    0.000    4.966 
#    0.000    0.690    0.000    1.655    0.000    6.759 
#    0.000    0.000    0.000    0.000    0.000    0.000 
#
# Total GULP energy -719068.619834 kJ/mol
# GULP energy per Si atom -12397.734825 kJ/mol
# Density = 1.873648 g / cm^3
# Si number density = 18.779223 Si / 1000 Ang^3
#
#
#
# Elastic Constant Matrix: (Units=GPa)
#
#
# Indices 1 2 3 4 5 6 
#
# 1 121.9025 81.8488 35.0902 0.0000 0.0000 0.0000
# 2 81.8488 143.0345 30.1548 0.0000 0.0000 0.0000
# 3 35.0902 30.1548 57.9967 0.0000 0.0000 0.0000
# 4 0.0000 0.0000 0.0000 13.5280 0.0000 0.0000
# 5 0.0000 0.0000 0.0000 0.0000 22.8121 0.0000
# 6 0.0000 0.0000 0.0000 0.0000 0.0000 28.7464
#
#
#
# Elastic Compliance Matrix: (Units=1/GPa)
#
#
# Indices 1 2 3 4 5 6 
#
# 1 0.014512 -0.007248 -0.005012 0.000000 0.000000 0.000000
# 2 -0.007248 0.011472 -0.001579 0.000000 0.000000 0.000000
# 3 -0.005012 -0.001579 0.021096 0.000000 0.000000 0.000000
# 4 0.000000 0.000000 0.000000 0.073921 0.000000 0.000000
# 5 0.000000 0.000000 0.000000 0.000000 0.043836 0.000000
# 6 0.000000 0.000000 0.000000 0.000000 0.000000 0.034787
#
#
# Mechanical properties :
#
#
# Convention : Reuss Voigt Hill
#
# Bulk Modulus (GPa) = 51.54233 68.56903 60.05568
# Shear Modulus (GPa) = 21.38854 24.73997 23.06426
#
# Velocity S-wave (km/s) = 3.37849 3.63355 3.50834
# Velocity P-wave (km/s) = 6.53643 7.36180 6.96136
#
# Compressibility (1/GPa) = 0.01940153
#
# Stress axis : x y z
#
# Youngs Moduli (GPa) = 68.90650 87.17103 47.40212
#
# Poissons Ratio (x) = 0.63180 0.23759
# Poissons Ratio (y) = 0.49942 0.07487
# Poissons Ratio (z) = 0.34537 0.13768
#
# Static dielectric constant tensor:
#      x y z
#    x 3.589490 0.000000 0.000000 
#    y 0.000000 3.666380 0.000000 
#    z 0.000000 0.000000 3.140980 
# 
# 
# High freq. dielectric constant tensor:
#      x y z
#    x 1.731340 0.000000 0.000000 
#    y 0.000000 1.732390 0.000000 
#    z 0.000000 0.000000 1.703750 
# 
# From -- ./inp_files/9412.got.cif
#   From: 2010.03.12/outbox.cif.g09.slc.cpg/sg66_5_cif.got.tgz:9412.got - 2010.04.10 21:57:39.
