data_PCOD8276843
_publ_section_title
;
Structure prediction by ZEFSAII (Michael W. Deem and Ramdas Pophale) SiO2 
 PCOD8276843
Probable space group: C C C M
;
_chemical_formula_sum "Si O2"
_cell_formula_units_Z 92
_cell_length_a 22.585175
_cell_length_b 9.038452
_cell_length_c 21.193120
_cell_angle_alpha 90.000000
_cell_angle_beta 90.000000
_cell_angle_gamma 90.000000
_cell_volume 4326.257978
_symmetry_space_group_name_H-M "C C C M"
_symmetry_group_IT_number 66
_symmetry_cell_setting 'orthorhombic'
loop_
_space_group_symop_operation_xyz
x,y,z
-x,-y,z
x,-y,1/2-z
-x,y,1/2-z
-x,-y,-z
x,y,-z
-x,y,1/2+z
x,-y,1/2+z
1/2+x,1/2+y,z
1/2-x,1/2-y,z
1/2+x,1/2-y,1/2-z
1/2-x,1/2+y,1/2-z
1/2-x,1/2-y,-z
1/2+x,1/2+y,-z
1/2-x,1/2+y,1/2+z
1/2+x,1/2-y,1/2+z
loop_
_atom_site_type_symbol
_atom_site_label
_atom_site_fract_x
_atom_site_fract_y
_atom_site_fract_z
Si Si1 0.115536 0.000000 0.750000
Si Si2 0.423498 0.235141 0.675757
Si Si3 0.637401 0.200873 0.427913
Si Si4 0.503013 0.169929 0.570617
Si Si5 0.208921 0.884994 0.343663
Si Si6 0.500000 0.000000 0.250000
Si Si7 0.678387 0.033149 0.175570
O O1 0.073047 0.886477 0.785765
O O2 0.155150 0.903430 0.703534
O O3 0.457400 0.267831 0.610727
O O4 0.456815 0.101483 0.709606
O O5 0.354566 0.189424 0.663334
O O6 0.652085 0.147916 0.500000
O O7 0.568250 0.240308 0.423316
O O8 0.679638 0.342608 0.411586
O O9 0.648081 0.081724 0.372957
O O10 0.479082 0.178410 0.500000
O O11 0.500000 0.000000 0.593883
O O12 0.250000 0.750000 0.318342
O O13 0.251425 0.031101 0.343805
O O14 0.670681 0.000000 0.250000
#
# Coordination Sequence:
#
# PCOD8276843 Si02
#       7
#     8  16  16  16  16   4  16
#     4  12  28  40  64 102 145 179 228 292 364 410
#     4  12  24  40  64 101 136 179 228 287 345 423
#     4  10  21  40  67 101 135 179 242 297 349 426
#     4  10  20  39  67  97 132 182 237 286 343 419
#     4  10  23  41  63  93 131 183 232 284 353 421
#     4  12  24  40  66  92 130 182 224 278 338 410
#     4  11  20  37  64  93 135 173 228 290 350 413
#
# _framework density 21.265491000000001
#
# number of rings (size 3 to 8) (size 9 to 14) (size 15 to 20)
#    0.000    1.217    4.348    2.087    2.435    3.478 
#    0.000    0.870    0.000    2.087    0.000    7.304 
#    0.000    0.000    0.000    0.000    0.000    0.000 
#
# Total GULP energy -569943.485377 kJ/mol
# GULP energy per Si atom -12390.075769 kJ/mol
# Density = 2.121709 g / cm^3
# Si number density = 21.265491 Si / 1000 Ang^3
#
#
#
# Elastic Constant Matrix: (Units=GPa)
#
#
# Indices 1 2 3 4 5 6 
#
# 1 105.0833 50.5190 61.6534 0.0000 0.0000 0.0000
# 2 50.5190 82.3019 53.5915 0.0000 0.0000 0.0000
# 3 61.6534 53.5915 154.9222 0.0000 0.0000 0.0000
# 4 0.0000 0.0000 0.0000 27.5220 0.0000 0.0000
# 5 0.0000 0.0000 0.0000 0.0000 36.9619 0.0000
# 6 0.0000 0.0000 0.0000 0.0000 0.0000 20.8892
#
#
#
# Elastic Compliance Matrix: (Units=1/GPa)
#
#
# Indices 1 2 3 4 5 6 
#
# 1 0.014885 -0.006814 -0.003566 0.000000 0.000000 0.000000
# 2 -0.006814 0.018803 -0.003792 0.000000 0.000000 0.000000
# 3 -0.003566 -0.003792 0.009186 0.000000 0.000000 0.000000
# 4 0.000000 0.000000 0.000000 0.036335 0.000000 0.000000
# 5 0.000000 0.000000 0.000000 0.000000 0.027055 0.000000
# 6 0.000000 0.000000 0.000000 0.000000 0.000000 0.047872
#
#
# Mechanical properties :
#
#
# Convention : Reuss Voigt Hill
#
# Bulk Modulus (GPa) = 68.83667 74.87060 71.85364
# Shear Modulus (GPa) = 26.69184 28.84418 27.76801
#
# Velocity S-wave (km/s) = 3.54668 3.68691 3.61748
# Velocity P-wave (km/s) = 7.01515 7.30810 7.16313
#
# Compressibility (1/GPa) = 0.01452714
#
# Stress axis : x y z
#
# Youngs Moduli (GPa) = 67.18321 53.18381 108.86113
#
# Poissons Ratio (x) = 0.36241 0.38823
# Poissons Ratio (y) = 0.45781 0.41285
# Poissons Ratio (z) = 0.23960 0.20170
#
# Static dielectric constant tensor:
#      x y z
#    x 4.327210 0.000000 0.000000 
#    y 0.000000 3.638600 0.000000 
#    z 0.000000 0.000000 4.062330 
# 
# 
# High freq. dielectric constant tensor:
#      x y z
#    x 1.850320 0.000000 0.000000 
#    y 0.000000 1.790300 0.000000 
#    z 0.000000 0.000000 1.835700 
# 
# From -- ./inp_files/52434.got.cif
#   From: 2010.03.12/outbox.cif.g09.slc.cpg/sg66_27_cif.got.tgz:52434.got - 2010.04.10 21:57:39.
