data_PCOD8276393
_publ_section_title
;
Structure prediction by ZEFSAII (Michael W. Deem and Ramdas Pophale) SiO2 
 PCOD8276393
Probable space group: C C C M
;
_chemical_formula_sum "Si O2"
_cell_formula_units_Z 80
_cell_length_a 16.206257
_cell_length_b 8.610114
_cell_length_c 28.425937
_cell_angle_alpha 90.000000
_cell_angle_beta 90.000000
_cell_angle_gamma 90.000000
_cell_volume 3966.490446
_symmetry_space_group_name_H-M "C C C M"
_symmetry_group_IT_number 66
_symmetry_cell_setting 'orthorhombic'
loop_
_space_group_symop_operation_xyz
x,y,z
-x,-y,z
x,-y,1/2-z
-x,y,1/2-z
-x,-y,-z
x,y,-z
-x,y,1/2+z
x,-y,1/2+z
1/2+x,1/2+y,z
1/2-x,1/2-y,z
1/2+x,1/2-y,1/2-z
1/2-x,1/2+y,1/2-z
1/2-x,1/2-y,-z
1/2+x,1/2+y,-z
1/2-x,1/2+y,1/2+z
1/2+x,1/2-y,1/2+z
loop_
_atom_site_type_symbol
_atom_site_label
_atom_site_fract_x
_atom_site_fract_y
_atom_site_fract_z
Si Si1 0.345455 0.796421 0.135245
Si Si2 0.923378 0.604498 0.127013
Si Si3 0.987432 0.822712 0.304998
Si Si4 0.662696 0.294556 0.552810
Si Si5 0.919994 0.100749 0.946955
O O1 0.250000 0.750000 0.136222
O O2 0.394555 0.727796 0.180247
O O3 0.395708 0.736906 0.089025
O O4 0.348112 0.984864 0.137156
O O5 0.908854 0.715194 0.082765
O O6 0.000000 0.500000 0.113068
O O7 0.943230 0.712900 0.171646
O O8 0.000000 0.801954 0.250000
O O9 0.000000 0.000000 0.320982
O O10 0.655620 0.228425 0.500000
O O11 0.750000 0.250000 0.575632
O O12 0.656122 0.480479 0.553429
O O13 0.932877 0.168468 0.000000
O O14 0.000000 0.000000 0.931566
#
# Coordination Sequence:
#
# PCOD8276393 Si02
#       5
#    16  16  16  16  16
#     4  11  22  36  57  88 121 148 186 239 291 341
#     4  10  21  35  57  83 110 147 182 228 282 334
#     4  10  22  43  65  82 107 147 189 232 289 355
#     4  10  20  34  52  77 111 150 191 232 274 322
#     4  10  20  35  56  79 112 160 202 235 277 340
#
# _framework density 20.168963000000002
#
# number of rings (size 3 to 8) (size 9 to 14) (size 15 to 20)
#    0.000    1.800    0.000    5.400    0.000    5.200 
#    0.000    5.000    0.000    0.000    0.000    0.000 
#    0.000    0.000    0.000    0.000    0.000    0.000 
#
# Total GULP energy -495863.727457 kJ/mol
# GULP energy per Si atom -12396.593186 kJ/mol
# Density = 2.012306 g / cm^3
# Si number density = 20.168963 Si / 1000 Ang^3
#
#
#
# Elastic Constant Matrix: (Units=GPa)
#
#
# Indices 1 2 3 4 5 6 
#
# 1 89.2739 31.8889 44.6198 0.0000 0.0000 0.0000
# 2 31.8889 121.4410 53.2605 0.0000 0.0000 0.0000
# 3 44.6198 53.2605 114.5548 0.0000 0.0000 0.0000
# 4 0.0000 0.0000 0.0000 24.6494 0.0000 0.0000
# 5 0.0000 0.0000 0.0000 0.0000 13.5999 0.0000
# 6 0.0000 0.0000 0.0000 0.0000 0.0000 30.4597
#
#
#
# Elastic Compliance Matrix: (Units=1/GPa)
#
#
# Indices 1 2 3 4 5 6 
#
# 1 0.014162 -0.001632 -0.004757 0.000000 0.000000 0.000000
# 2 -0.001632 0.010532 -0.004261 0.000000 0.000000 0.000000
# 3 -0.004757 -0.004261 0.012563 0.000000 0.000000 0.000000
# 4 0.000000 0.000000 0.000000 0.040569 0.000000 0.000000
# 5 0.000000 0.000000 0.000000 0.000000 0.073530 0.000000
# 6 0.000000 0.000000 0.000000 0.000000 0.000000 0.032830
#
#
# Mechanical properties :
#
#
# Convention : Reuss Voigt Hill
#
# Bulk Modulus (GPa) = 62.67036 64.97867 63.82451
# Shear Modulus (GPa) = 23.71845 26.77518 25.24682
#
# Velocity S-wave (km/s) = 3.43299 3.64750 3.54187
# Velocity P-wave (km/s) = 6.84500 7.07291 6.95989
#
# Compressibility (1/GPa) = 0.01595651
#
# Stress axis : x y z
#
# Youngs Moduli (GPa) = 70.60974 94.95115 79.59619
#
# Poissons Ratio (x) = 0.15500 0.37867
# Poissons Ratio (y) = 0.11526 0.33914
# Poissons Ratio (z) = 0.33592 0.40456
#
# Static dielectric constant tensor:
#      x y z
#    x 3.731880 0.000000 0.000000 
#    y 0.000000 4.122720 0.000000 
#    z 0.000000 0.000000 3.505440 
# 
# 
# High freq. dielectric constant tensor:
#      x y z
#    x 1.783160 0.000000 0.000000 
#    y 0.000000 1.798060 0.000000 
#    z 0.000000 0.000000 1.776350 
# 
# From -- ./inp_files/65086.got.cif
#   From: 2010.03.12/outbox.cif.g09.slc.cpg/sg66_33_cif.got.tgz:65086.got - 2010.04.10 21:57:39.
