data_PCOD8276907
_publ_section_title
;
Structure prediction by ZEFSAII (Michael W. Deem and Ramdas Pophale) SiO2 
 PCOD8276907
Probable space group: C C C M
;
_chemical_formula_sum "Si O2"
_cell_formula_units_Z 80
_cell_length_a 11.790361
_cell_length_b 12.334387
_cell_length_c 28.061905
_cell_angle_alpha 90.000000
_cell_angle_beta 90.000000
_cell_angle_gamma 90.000000
_cell_volume 4080.955163
_symmetry_space_group_name_H-M "C C C M"
_symmetry_group_IT_number 66
_symmetry_cell_setting 'orthorhombic'
loop_
_space_group_symop_operation_xyz
x,y,z
-x,-y,z
x,-y,1/2-z
-x,y,1/2-z
-x,-y,-z
x,y,-z
-x,y,1/2+z
x,-y,1/2+z
1/2+x,1/2+y,z
1/2-x,1/2-y,z
1/2+x,1/2-y,1/2-z
1/2-x,1/2+y,1/2-z
1/2-x,1/2-y,-z
1/2+x,1/2+y,-z
1/2-x,1/2+y,1/2+z
1/2+x,1/2-y,1/2+z
loop_
_atom_site_type_symbol
_atom_site_label
_atom_site_fract_x
_atom_site_fract_y
_atom_site_fract_z
Si Si1 0.951099 0.380217 0.447418
Si Si2 0.820634 0.551458 0.862684
Si Si3 0.880742 0.944813 0.202407
Si Si4 0.962417 0.711078 0.200067
Si Si5 0.371413 0.805279 0.120867
O O1 0.916738 0.336916 0.500000
O O2 0.839190 0.386201 0.413292
O O3 0.000000 0.500000 0.452110
O O4 0.046609 0.298393 0.425590
O O5 0.691116 0.541631 0.846051
O O6 0.887816 0.617926 0.823162
O O7 0.867796 0.431178 0.865965
O O8 0.890108 0.817489 0.212565
O O9 0.826094 0.000000 0.250000
O O10 0.000000 0.000000 0.191607
O O11 0.000000 0.660028 0.250000
O O12 0.067390 0.749503 0.166284
O O13 0.250000 0.750000 0.110279
#
# Coordination Sequence:
#
# PCOD8276907 Si02
#       5
#    16  16  16  16  16
#     4   8  16  35  58  84 113 143 190 242 301 356
#     4  10  22  36  58  82 111 154 191 242 288 341
#     4  11  22  38  53  80 113 154 192 231 291 348
#     4  11  22  36  53  79 113 153 195 233 283 346
#     4  10  21  34  55  85 113 150 193 242 289 344
#
# _framework density 19.603254
#
# number of rings (size 3 to 8) (size 9 to 14) (size 15 to 20)
#    0.000    2.000    2.000    3.600    2.800    1.200 
#    0.000    0.000    0.000   10.200    0.000    0.000 
#    0.000    0.000    0.000    0.000    0.000    0.000 
#
# Total GULP energy -495707.760138 kJ/mol
# GULP energy per Si atom -12392.694003 kJ/mol
# Density = 1.955864 g / cm^3
# Si number density = 19.603254 Si / 1000 Ang^3
#
#
#
# Elastic Constant Matrix: (Units=GPa)
#
#
# Indices 1 2 3 4 5 6 
#
# 1 83.9170 13.4459 63.7455 0.0000 0.0000 0.0000
# 2 13.4459 85.3909 32.1915 0.0000 0.0000 0.0000
# 3 63.7455 32.1915 183.5377 0.0000 0.0000 0.0000
# 4 0.0000 0.0000 0.0000 14.3077 0.0000 0.0000
# 5 0.0000 0.0000 0.0000 0.0000 27.3925 0.0000
# 6 0.0000 0.0000 0.0000 0.0000 0.0000 28.6901
#
#
#
# Elastic Compliance Matrix: (Units=1/GPa)
#
#
# Indices 1 2 3 4 5 6 
#
# 1 0.016204 -0.000460 -0.005547 0.000000 0.000000 0.000000
# 2 -0.000460 0.012553 -0.002042 0.000000 0.000000 0.000000
# 3 -0.005547 -0.002042 0.007733 0.000000 0.000000 0.000000
# 4 0.000000 0.000000 0.000000 0.069893 0.000000 0.000000
# 5 0.000000 0.000000 0.000000 0.000000 0.036506 0.000000
# 6 0.000000 0.000000 0.000000 0.000000 0.000000 0.034855
#
#
# Mechanical properties :
#
#
# Convention : Reuss Voigt Hill
#
# Bulk Modulus (GPa) = 49.03964 63.51237 56.27601
# Shear Modulus (GPa) = 24.92017 30.30888 27.61453
#
# Velocity S-wave (km/s) = 3.56929 3.93633 3.75730
# Velocity P-wave (km/s) = 6.48513 7.28895 6.89876
#
# Compressibility (1/GPa) = 0.02039167
#
# Stress axis : x y z
#
# Youngs Moduli (GPa) = 61.71288 79.66158 129.31200
#
# Poissons Ratio (x) = 0.03667 0.71732
# Poissons Ratio (y) = 0.02841 0.26404
# Poissons Ratio (z) = 0.34233 0.16266
#
# Static dielectric constant tensor:
#      x y z
#    x 3.653090 0.000000 0.000000 
#    y 0.000000 3.465020 0.000000 
#    z 0.000000 0.000000 4.015950 
# 
# 
# High freq. dielectric constant tensor:
#      x y z
#    x 1.750490 0.000000 0.000000 
#    y 0.000000 1.754510 0.000000 
#    z 0.000000 0.000000 1.760670 
# 
# From -- ./inp_files/68737.got.cif
#   From: 2010.03.12/outbox.cif.g09.slc.cpg/sg66_35_cif.got.tgz:68737.got - 2010.04.10 21:57:39.
