data_PCOD8276494
_publ_section_title
;
Structure prediction by ZEFSAII (Michael W. Deem and Ramdas Pophale) SiO2 
 PCOD8276494
Probable space group: C C C M
;
_chemical_formula_sum "Si O2"
_cell_formula_units_Z 116
_cell_length_a 26.782459
_cell_length_b 26.623906
_cell_length_c 9.021198
_cell_angle_alpha 90.000000
_cell_angle_beta 90.000000
_cell_angle_gamma 90.000000
_cell_volume 6432.598349
_symmetry_space_group_name_H-M "C C C M"
_symmetry_group_IT_number 66
_symmetry_cell_setting 'orthorhombic'
loop_
_space_group_symop_operation_xyz
x,y,z
-x,-y,z
x,-y,1/2-z
-x,y,1/2-z
-x,-y,-z
x,y,-z
-x,y,1/2+z
x,-y,1/2+z
1/2+x,1/2+y,z
1/2-x,1/2-y,z
1/2+x,1/2-y,1/2-z
1/2-x,1/2+y,1/2-z
1/2-x,1/2-y,-z
1/2+x,1/2+y,-z
1/2-x,1/2+y,1/2+z
1/2+x,1/2-y,1/2+z
loop_
_atom_site_type_symbol
_atom_site_label
_atom_site_fract_x
_atom_site_fract_y
_atom_site_fract_z
Si Si1 0.575874 0.918657 0.833711
Si Si2 0.344352 0.690352 0.830243
Si Si3 0.500000 0.000000 0.250000
Si Si4 0.177433 0.449257 0.325595
Si Si5 0.753297 0.641927 0.669077
Si Si6 0.578473 0.177681 0.824844
Si Si7 0.047959 0.788855 0.170847
Si Si8 0.175569 0.709311 0.325667
O O1 0.535770 0.963738 0.845529
O O2 0.624170 0.933642 0.739495
O O3 0.551239 0.869229 0.756066
O O4 0.592536 0.905153 0.000000
O O5 0.307670 0.642061 0.814119
O O6 0.402290 0.678856 0.788637
O O7 0.324182 0.733058 0.721935
O O8 0.344219 0.710968 0.000000
O O9 0.195956 0.500000 0.250000
O O10 0.170085 0.456941 0.500000
O O11 0.222277 0.410940 0.287855
O O12 0.767567 0.655956 0.500000
O O13 0.771837 0.685083 0.780473
O O14 0.554306 0.230764 0.778009
O O15 0.635062 0.177001 0.765432
O O16 0.577620 0.169111 0.000000
O O17 0.000000 0.812907 0.250000
O O18 0.035778 0.791218 0.000000
O O19 0.165995 0.705028 0.500000
#
# Coordination Sequence:
#
# PCOD8276494 Si02
#       8
#    16  16   4  16  16  16  16  16
#     4  12  25  41  59  76  97 129 173 229 279 322
#     4   9  19  35  52  73 104 141 176 208 248 311
#     4  12  30  44  56  74 102 132 178 224 292 332
#     4  11  23  39  60  80 103 135 172 217 270 328
#     4  10  20  35  55  75 101 139 174 206 257 319
#     4  10  21  37  54  73  99 134 175 216 262 319
#     4   9  19  34  52  74 102 137 172 208 250 300
#     4  11  20  30  49  78 107 135 168 212 262 309
#
# _framework density 18.033148000000001
#
# number of rings (size 3 to 8) (size 9 to 14) (size 15 to 20)
#    0.000    1.655    2.069    3.931    0.966    7.172 
#    0.000    0.000    0.000    0.000    0.000    0.000 
#    0.000    0.552    0.000    6.897    0.000    0.000 
#
# Total GULP energy -718897.262278 kJ/mol
# GULP energy per Si atom -12394.780384 kJ/mol
# Density = 1.799210 g / cm^3
# Si number density = 18.033148 Si / 1000 Ang^3
#
#
#
# Elastic Constant Matrix: (Units=GPa)
#
#
# Indices 1 2 3 4 5 6 
#
# 1 130.8273 45.2221 40.0940 0.0000 0.0000 0.0000
# 2 45.2221 51.8723 26.3330 0.0000 0.0000 0.0000
# 3 40.0940 26.3330 85.5527 0.0000 0.0000 0.0000
# 4 0.0000 0.0000 0.0000 11.1330 0.0000 0.0000
# 5 0.0000 0.0000 0.0000 0.0000 18.9225 0.0000
# 6 0.0000 0.0000 0.0000 0.0000 0.0000 26.6207
#
#
#
# Elastic Compliance Matrix: (Units=1/GPa)
#
#
# Indices 1 2 3 4 5 6 
#
# 1 0.011450 -0.008602 -0.002718 0.000000 0.000000 0.000000
# 2 -0.008602 0.029311 -0.004990 0.000000 0.000000 0.000000
# 3 -0.002718 -0.004990 0.014499 0.000000 0.000000 0.000000
# 4 0.000000 0.000000 0.000000 0.089823 0.000000 0.000000
# 5 0.000000 0.000000 0.000000 0.000000 0.052847 0.000000
# 6 0.000000 0.000000 0.000000 0.000000 0.000000 0.037565
#
#
# Mechanical properties :
#
#
# Convention : Reuss Voigt Hill
#
# Bulk Modulus (GPa) = 44.17400 54.61672 49.39536
# Shear Modulus (GPa) = 18.13811 21.77546 19.95679
#
# Velocity S-wave (km/s) = 3.17491 3.47871 3.33028
# Velocity P-wave (km/s) = 6.16354 6.81820 6.49912
#
# Compressibility (1/GPa) = 0.02263775
#
# Stress axis : x y z
#
# Youngs Moduli (GPa) = 87.33436 34.11691 68.97182
#
# Poissons Ratio (x) = 0.29348 0.18749
# Poissons Ratio (y) = 0.75128 0.34420
# Poissons Ratio (z) = 0.23740 0.17026
#
# Static dielectric constant tensor:
#      x y z
#    x 3.438470 0.000000 0.000000 
#    y 0.000000 3.215150 0.000000 
#    z 0.000000 0.000000 3.293330 
# 
# 
# High freq. dielectric constant tensor:
#      x y z
#    x 1.697140 0.000000 0.000000 
#    y 0.000000 1.654630 0.000000 
#    z 0.000000 0.000000 1.703240 
# 
# From -- ./inp_files/10931.got.cif
#   From: 2010.03.12/outbox.cif.g09.slc.cpg/sg66_6_cif.got.tgz:10931.got - 2010.04.10 21:57:39.
