data_PCOD8276552
_publ_section_title
;
Structure prediction by ZEFSAII (Michael W. Deem and Ramdas Pophale) SiO2 
 PCOD8276552
Probable space group: C C C M
;
_chemical_formula_sum "Si O2"
_cell_formula_units_Z 80
_cell_length_a 20.157286
_cell_length_b 9.735819
_cell_length_c 22.775509
_cell_angle_alpha 90.000000
_cell_angle_beta 90.000000
_cell_angle_gamma 90.000000
_cell_volume 4469.640985
_symmetry_space_group_name_H-M "C C C M"
_symmetry_group_IT_number 66
_symmetry_cell_setting 'orthorhombic'
loop_
_space_group_symop_operation_xyz
x,y,z
-x,-y,z
x,-y,1/2-z
-x,y,1/2-z
-x,-y,-z
x,y,-z
-x,y,1/2+z
x,-y,1/2+z
1/2+x,1/2+y,z
1/2-x,1/2-y,z
1/2+x,1/2-y,1/2-z
1/2-x,1/2+y,1/2-z
1/2-x,1/2-y,-z
1/2+x,1/2+y,-z
1/2-x,1/2+y,1/2+z
1/2+x,1/2-y,1/2+z
loop_
_atom_site_type_symbol
_atom_site_label
_atom_site_fract_x
_atom_site_fract_y
_atom_site_fract_z
Si Si1 0.029584 0.726560 0.000000
Si Si2 0.695644 0.858259 0.768050
Si Si3 0.057902 0.628345 0.201203
Si Si4 0.099458 0.460403 0.000000
Si Si5 0.500388 0.659252 0.879877
Si Si6 0.611795 0.122959 0.626498
O O1 0.093014 0.625949 0.000000
O O2 0.969178 0.620950 0.000000
O O3 0.029936 0.826947 0.944621
O O4 0.750000 0.750000 0.748786
O O5 0.626270 0.845246 0.734328
O O6 0.679326 0.851899 0.837457
O O7 0.730125 0.000000 0.750000
O O8 0.064889 0.493814 0.157925
O O9 0.000000 0.608218 0.250000
O O10 0.048595 0.765417 0.164589
O O11 0.135684 0.420213 0.939002
O O12 0.500000 0.500000 0.862023
O O13 0.571981 0.732899 0.875940
#
# Coordination Sequence:
#
# PCOD8276552 Si02
#       6
#     8  16  16   8  16  16
#     4   9  17  30  48  76 120 139 179 221 277 328
#     4  10  23  38  57  78 111 150 182 225 276 331
#     4  11  21  35  59  81 109 148 189 227 268 331
#     4   9  16  30  57  80  96 143 193 234 253 322
#     4  11  21  30  48  84 117 146 171 230 284 322
#     4  10  20  35  58  80 108 146 191 224 269 327
#
# _framework density 17.898527999999999
#
# number of rings (size 3 to 8) (size 9 to 14) (size 15 to 20)
#    0.000    1.800    4.000    0.900    5.600    2.000 
#    0.000    0.500    0.000    0.000    0.000   17.500 
#    0.000    0.000    0.000    0.000    0.000    0.000 
#
# Total GULP energy -495590.387387 kJ/mol
# GULP energy per Si atom -12389.759685 kJ/mol
# Density = 1.785779 g / cm^3
# Si number density = 17.898528 Si / 1000 Ang^3
#
#
#
# Elastic Constant Matrix: (Units=GPa)
#
#
# Indices 1 2 3 4 5 6 
#
# 1 70.2757 42.3889 29.7156 0.0000 0.0000 0.0000
# 2 42.3889 154.8358 52.5791 0.0000 0.0000 0.0000
# 3 29.7156 52.5791 132.7133 0.0000 0.0000 0.0000
# 4 0.0000 0.0000 0.0000 24.4112 0.0000 0.0000
# 5 0.0000 0.0000 0.0000 0.0000 0.1108 0.0000
# 6 0.0000 0.0000 0.0000 0.0000 0.0000 17.7193
#
#
#
# Elastic Compliance Matrix: (Units=1/GPa)
#
#
# Indices 1 2 3 4 5 6 
#
# 1 0.017659 -0.004035 -0.002356 0.000000 0.000000 0.000000
# 2 -0.004035 0.008384 -0.002418 0.000000 0.000000 0.000000
# 3 -0.002356 -0.002418 0.009021 0.000000 0.000000 0.000000
# 4 0.000000 0.000000 0.000000 0.040965 0.000000 0.000000
# 5 0.000000 0.000000 0.000000 0.000000 9.027473 0.000000
# 6 0.000000 0.000000 0.000000 0.000000 0.000000 0.056436
#
#
# Mechanical properties :
#
#
# Convention : Reuss Voigt Hill
#
# Bulk Modulus (GPa) = 57.31638 67.46579 62.39109
# Shear Modulus (GPa) = 0.54446 23.99100 12.26773
#
# Velocity S-wave (km/s) = 0.55214 3.66511 2.62086
# Velocity P-wave (km/s) = 5.70079 7.46230 6.64022
#
# Compressibility (1/GPa) = 0.01744702
#
# Stress axis : x y z
#
# Youngs Moduli (GPa) = 56.62732 119.27183 110.85759
#
# Poissons Ratio (x) = 0.48122 0.26114
# Poissons Ratio (y) = 0.22847 0.26809
# Poissons Ratio (z) = 0.13339 0.28844
#
# Static dielectric constant tensor:
#      x y z
#    x 2.862070 0.000000 0.000000 
#    y 0.000000 3.420270 0.000000 
#    z 0.000000 0.000000 3.873300 
# 
# 
# High freq. dielectric constant tensor:
#      x y z
#    x 1.640260 0.000000 0.000000 
#    y 0.000000 1.691390 0.000000 
#    z 0.000000 0.000000 1.715680 
# 
# From -- ./inp_files/59332.got.cif
#   From: 2010.03.12/outbox.cif.g09.slc.cpg/sg66_30_cif.got.tgz:59332.got - 2010.04.10 21:57:39.
