data_PCOD8276475
_publ_section_title
;
Structure prediction by ZEFSAII (Michael W. Deem and Ramdas Pophale) SiO2 
 PCOD8276475
Probable space group: C C C M
;
_chemical_formula_sum "Si O2"
_cell_formula_units_Z 104
_cell_length_a 18.424915
_cell_length_b 22.746876
_cell_length_c 14.063039
_cell_angle_alpha 90.000000
_cell_angle_beta 90.000000
_cell_angle_gamma 90.000000
_cell_volume 5893.949824
_symmetry_space_group_name_H-M "C C C M"
_symmetry_group_IT_number 66
_symmetry_cell_setting 'orthorhombic'
loop_
_space_group_symop_operation_xyz
x,y,z
-x,-y,z
x,-y,1/2-z
-x,y,1/2-z
-x,-y,-z
x,y,-z
-x,y,1/2+z
x,-y,1/2+z
1/2+x,1/2+y,z
1/2-x,1/2-y,z
1/2+x,1/2-y,1/2-z
1/2-x,1/2+y,1/2-z
1/2-x,1/2-y,-z
1/2+x,1/2+y,-z
1/2-x,1/2+y,1/2+z
1/2+x,1/2-y,1/2+z
loop_
_atom_site_type_symbol
_atom_site_label
_atom_site_fract_x
_atom_site_fract_y
_atom_site_fract_z
Si Si1 0.839922 0.500000 0.250000
Si Si2 0.548959 0.153799 0.391990
Si Si3 0.422796 0.267820 0.768663
Si Si4 0.673520 0.220903 0.890223
Si Si5 0.393158 0.098831 0.610191
Si Si6 0.702665 0.695093 0.110281
Si Si7 0.695352 0.087629 0.606964
O O1 0.885876 0.544465 0.317080
O O2 0.787315 0.464838 0.320972
O O3 0.551552 0.177436 0.500000
O O4 0.563880 0.207222 0.322940
O O5 0.472147 0.125137 0.368156
O O6 0.611838 0.105834 0.376898
O O7 0.500000 0.299677 0.750000
O O8 0.387936 0.255212 0.666813
O O9 0.371808 0.309898 0.831364
O O10 0.750000 0.250000 0.860154
O O11 0.667333 0.150213 0.870584
O O12 0.656886 0.233219 0.000000
O O13 0.387981 0.077203 0.500000
O O14 0.750000 0.750000 0.146720
O O15 0.750181 0.639010 0.133059
O O16 0.683405 0.702307 0.000000
O O17 0.708301 0.065725 0.500000
#
# Coordination Sequence:
#
# PCOD8276475 Si02
#       7
#     8  16  16  16  16  16  16
#     4  12  24  35  54  76 109 154 200 232 259 314
#     4  10  20  35  52  76 109 146 184 226 270 317
#     4  12  21  30  55  84 111 139 178 220 279 341
#     4  10  22  37  53  75 109 145 178 222 276 334
#     4  10  22  38  53  74 111 153 191 228 271 322
#     4  10  20  35  57  83 111 141 179 233 287 333
#     4  10  22  37  54  78 108 144 186 231 275 316
#
# _framework density 17.645212999999998
#
# number of rings (size 3 to 8) (size 9 to 14) (size 15 to 20)
#    0.000    1.538    3.077    2.308    2.154    1.846 
#    0.000    2.308    0.000    0.000    0.000    0.538 
#    0.000    2.462    0.000    0.000    0.000    0.000 
#
# Total GULP energy -644696.041907 kJ/mol
# GULP energy per Si atom -12398.000806 kJ/mol
# Density = 1.760505 g / cm^3
# Si number density = 17.645213 Si / 1000 Ang^3
#
#
#
# Elastic Constant Matrix: (Units=GPa)
#
#
# Indices 1 2 3 4 5 6 
#
# 1 112.9908 52.6113 60.6544 0.0000 0.0000 0.0000
# 2 52.6113 80.4977 58.7217 0.0000 0.0000 0.0000
# 3 60.6544 58.7217 98.0456 0.0000 0.0000 0.0000
# 4 0.0000 0.0000 0.0000 33.8461 0.0000 0.0000
# 5 0.0000 0.0000 0.0000 0.0000 26.9492 0.0000
# 6 0.0000 0.0000 0.0000 0.0000 0.0000 10.8888
#
#
#
# Elastic Compliance Matrix: (Units=1/GPa)
#
#
# Indices 1 2 3 4 5 6 
#
# 1 0.014364 -0.005160 -0.005796 0.000000 0.000000 0.000000
# 2 -0.005160 0.023915 -0.011131 0.000000 0.000000 0.000000
# 3 -0.005796 -0.011131 0.020451 0.000000 0.000000 0.000000
# 4 0.000000 0.000000 0.000000 0.029546 0.000000 0.000000
# 5 0.000000 0.000000 0.000000 0.000000 0.037107 0.000000
# 6 0.000000 0.000000 0.000000 0.000000 0.000000 0.091838
#
#
# Mechanical properties :
#
#
# Convention : Reuss Voigt Hill
#
# Bulk Modulus (GPa) = 68.69583 70.61211 69.65397
# Shear Modulus (GPa) = 18.77958 22.30660 20.54309
#
# Velocity S-wave (km/s) = 3.26588 3.55938 3.41578
# Velocity P-wave (km/s) = 7.29641 7.54962 7.42409
#
# Compressibility (1/GPa) = 0.01455692
#
# Stress axis : x y z
#
# Youngs Moduli (GPa) = 69.61794 41.81429 48.89672
#
# Poissons Ratio (x) = 0.21577 0.28338
# Poissons Ratio (y) = 0.35925 0.54427
# Poissons Ratio (z) = 0.40347 0.46544
#
# Static dielectric constant tensor:
#      x y z
#    x 2.631280 0.000000 0.000000 
#    y 0.000000 3.079960 0.000000 
#    z 0.000000 0.000000 3.673740 
# 
# 
# High freq. dielectric constant tensor:
#      x y z
#    x 1.665330 0.000000 0.000000 
#    y 0.000000 1.645680 0.000000 
#    z 0.000000 0.000000 1.715390 
# 
# From -- ./inp_files/30200.got.cif
#   From: 2010.03.12/outbox.cif.g09.slc.cpg/sg66_16_cif.got.tgz:30200.got - 2010.04.10 21:57:39.
