data_PCOD8276933
_publ_section_title
;
Structure prediction by ZEFSAII (Michael W. Deem and Ramdas Pophale) SiO2 
 PCOD8276933
Probable space group: C C C M
;
_chemical_formula_sum "Si O2"
_cell_formula_units_Z 80
_cell_length_a 26.028285
_cell_length_b 9.464646
_cell_length_c 14.970907
_cell_angle_alpha 90.000000
_cell_angle_beta 90.000000
_cell_angle_gamma 90.000000
_cell_volume 3688.060536
_symmetry_space_group_name_H-M "C C C M"
_symmetry_group_IT_number 66
_symmetry_cell_setting 'orthorhombic'
loop_
_space_group_symop_operation_xyz
x,y,z
-x,-y,z
x,-y,1/2-z
-x,y,1/2-z
-x,-y,-z
x,y,-z
-x,y,1/2+z
x,-y,1/2+z
1/2+x,1/2+y,z
1/2-x,1/2-y,z
1/2+x,1/2-y,1/2-z
1/2-x,1/2+y,1/2-z
1/2-x,1/2-y,-z
1/2+x,1/2+y,-z
1/2-x,1/2+y,1/2+z
1/2+x,1/2-y,1/2+z
loop_
_atom_site_type_symbol
_atom_site_label
_atom_site_fract_x
_atom_site_fract_y
_atom_site_fract_z
Si Si1 0.843735 0.592690 0.605209
Si Si2 0.748843 0.092564 0.606962
Si Si3 0.457551 0.111574 0.605351
Si Si4 0.548217 0.426769 0.845853
Si Si5 0.339489 0.403881 0.398062
O O1 0.835619 0.603644 0.500000
O O2 0.802513 0.483213 0.645056
O O3 0.901860 0.542176 0.626170
O O4 0.834970 0.749095 0.647191
O O5 0.748650 0.096793 0.500000
O O6 0.750000 0.250000 0.646245
O O7 0.798977 0.011854 0.646199
O O8 0.463298 0.144852 0.500000
O O9 0.462751 0.258683 0.658656
O O10 0.500000 0.000000 0.638769
O O11 0.500000 0.500000 0.897526
O O12 0.551453 0.500000 0.750000
O O13 0.602133 0.460515 0.893587
O O14 0.323062 0.390213 0.500000
#
# Coordination Sequence:
#
# PCOD8276933 Si02
#       5
#    16  16  16  16  16
#     4   8  14  26  44  70 104 135 163 201 258 320
#     4   9  16  25  42  72 104 131 164 210 263 313
#     4   9  18  33  56  85 111 137 177 228 275 319
#     4  10  21  36  52  74 105 142 178 216 268 328
#     4   9  17  30  50  72  96 133 177 217 257 307
#
# _framework density 21.691617999999998
#
# number of rings (size 3 to 8) (size 9 to 14) (size 15 to 20)
#    0.000    3.000    0.000    2.400    0.000    5.600 
#    0.000    6.000    0.000    4.800    0.000    0.000 
#    0.000    0.000    0.000    0.000    0.000    0.000 
#
# Total GULP energy -495665.958749 kJ/mol
# GULP energy per Si atom -12391.648969 kJ/mol
# Density = 2.164225 g / cm^3
# Si number density = 21.691618 Si / 1000 Ang^3
#
#
#
# Elastic Constant Matrix: (Units=GPa)
#
#
# Indices 1 2 3 4 5 6 
#
# 1 223.4399 127.2414 -1.3385 0.0000 0.0000 0.0000
# 2 127.2414 174.6650 20.7544 0.0000 0.0000 0.0000
# 3 -1.3385 20.7544 19.6018 0.0000 0.0000 0.0000
# 4 0.0000 0.0000 0.0000 19.7341 0.0000 0.0000
# 5 0.0000 0.0000 0.0000 0.0000 2.2372 0.0000
# 6 0.0000 0.0000 0.0000 0.0000 0.0000 48.1690
#
#
#
# Elastic Compliance Matrix: (Units=1/GPa)
#
#
# Indices 1 2 3 4 5 6 
#
# 1 0.008700 -0.007331 0.008356 0.000000 0.000000 0.000000
# 2 -0.007331 0.012726 -0.013975 0.000000 0.000000 0.000000
# 3 0.008356 -0.013975 0.066383 0.000000 0.000000 0.000000
# 4 0.000000 0.000000 0.000000 0.050674 0.000000 0.000000
# 5 0.000000 0.000000 0.000000 0.000000 0.446990 0.000000
# 6 0.000000 0.000000 0.000000 0.000000 0.000000 0.020760
#
#
# Mechanical properties :
#
#
# Convention : Reuss Voigt Hill
#
# Bulk Modulus (GPa) = 16.15254 79.00235 47.57744
# Shear Modulus (GPa) = 7.65966 32.09801 19.87883
#
# Velocity S-wave (km/s) = 1.88118 3.85092 3.03054
# Velocity P-wave (km/s) = 3.49013 7.50150 5.85036
#
# Compressibility (1/GPa) = 0.06190979
#
# Stress axis : x y z
#
# Youngs Moduli (GPa) = 114.93910 78.57707 15.06401
#
# Poissons Ratio (x) = 0.57604 -0.12588
# Poissons Ratio (y) = 0.84261 0.21052
# Poissons Ratio (z) = -0.96045 1.09814
#
# Static dielectric constant tensor:
#      x y z
#    x 4.486250 0.000000 0.000000 
#    y 0.000000 4.094240 0.000000 
#    z 0.000000 0.000000 3.223460 
# 
# 
# High freq. dielectric constant tensor:
#      x y z
#    x 1.871350 0.000000 0.000000 
#    y 0.000000 1.848370 0.000000 
#    z 0.000000 0.000000 1.799400 
# 
# From -- ./inp_files/36945.got.cif
#   From: 2010.03.12/outbox.cif.g09.slc.cpg/sg66_19_cif.got.tgz:36945.got - 2010.04.10 21:57:39.
