data_PCOD8276359
_publ_section_title
;
Structure prediction by ZEFSAII (Michael W. Deem and Ramdas Pophale) SiO2 
 PCOD8276359
Probable space group: C C C M
;
_chemical_formula_sum "Si O2"
_cell_formula_units_Z 116
_cell_length_a 27.979479
_cell_length_b 22.209642
_cell_length_c 9.557891
_cell_angle_alpha 90.000000
_cell_angle_beta 90.000000
_cell_angle_gamma 90.000000
_cell_volume 5939.409304
_symmetry_space_group_name_H-M "C C C M"
_symmetry_group_IT_number 66
_symmetry_cell_setting 'orthorhombic'
loop_
_space_group_symop_operation_xyz
x,y,z
-x,-y,z
x,-y,1/2-z
-x,y,1/2-z
-x,-y,-z
x,y,-z
-x,y,1/2+z
x,-y,1/2+z
1/2+x,1/2+y,z
1/2-x,1/2-y,z
1/2+x,1/2-y,1/2-z
1/2-x,1/2+y,1/2-z
1/2-x,1/2-y,-z
1/2+x,1/2+y,-z
1/2-x,1/2+y,1/2+z
1/2+x,1/2-y,1/2+z
loop_
_atom_site_type_symbol
_atom_site_label
_atom_site_fract_x
_atom_site_fract_y
_atom_site_fract_z
Si Si1 0.803344 0.245287 0.657509
Si Si2 0.749854 0.942252 0.336300
Si Si3 0.500000 0.000000 0.750000
Si Si4 0.624199 0.314695 0.840126
Si Si5 0.069716 0.602159 0.657642
Si Si6 0.955253 0.282535 0.166086
Si Si7 0.860526 0.055002 0.841712
Si Si8 0.176085 0.620880 0.656385
O O1 0.801281 0.220334 0.500000
O O2 0.750000 0.250000 0.717623
O O3 0.829122 0.195417 0.748933
O O4 0.832739 0.307580 0.665403
O O5 0.738883 0.950321 0.500000
O O6 0.805394 0.929063 0.307454
O O7 0.716220 0.890589 0.273217
O O8 0.732917 0.000000 0.250000
O O9 0.464065 0.956976 0.662866
O O10 0.584262 0.266961 0.798432
O O11 0.608427 0.384380 0.814185
O O12 0.639609 0.306384 0.000000
O O13 0.064888 0.628841 0.500000
O O14 0.055096 0.651063 0.773561
O O15 0.125687 0.586824 0.686478
O O16 0.000000 0.256209 0.250000
O O17 0.964316 0.288532 0.000000
O O18 0.880327 0.000000 0.750000
O O19 0.865503 0.032841 0.000000
O O20 0.194663 0.603889 0.500000
#
# Coordination Sequence:
#
# PCOD8276359 Si02
#       8
#    16  16   4  16  16  16  16  16
#     4  10  20  33  53  83 117 152 189 233 286 346
#     4  10  20  34  53  77 108 151 194 235 281 337
#     4  12  26  40  64  90 110 144 200 256 306 348
#     4  10  21  37  58  86 116 150 192 238 289 347
#     4  11  24  42  61  83 112 146 191 247 300 348
#     4  11  23  40  64  89 116 149 189 239 295 353
#     4   9  19  36  57  84 118 151 191 235 278 334
#     4  10  21  36  52  76 112 149 187 238 289 342
#
# _framework density 19.530560000000001
#
# number of rings (size 3 to 8) (size 9 to 14) (size 15 to 20)
#    0.000    1.793    2.069    1.862    0.966    3.586 
#    0.000    0.000    0.000    0.414    0.000    2.897 
#    0.000    0.000    0.000    0.000    0.000    0.000 
#
# Total GULP energy -718913.861115 kJ/mol
# GULP energy per Si atom -12395.066571 kJ/mol
# Density = 1.948611 g / cm^3
# Si number density = 19.530560 Si / 1000 Ang^3
#
#
#
# Elastic Constant Matrix: (Units=GPa)
#
#
# Indices 1 2 3 4 5 6 
#
# 1 64.1457 39.1744 37.8939 0.0000 0.0000 0.0000
# 2 39.1744 106.1909 49.4288 0.0000 0.0000 0.0000
# 3 37.8939 49.4288 102.1013 0.0000 0.0000 0.0000
# 4 0.0000 0.0000 0.0000 30.2570 0.0000 0.0000
# 5 0.0000 0.0000 0.0000 0.0000 19.9693 0.0000
# 6 0.0000 0.0000 0.0000 0.0000 0.0000 32.7494
#
#
#
# Elastic Compliance Matrix: (Units=1/GPa)
#
#
# Indices 1 2 3 4 5 6 
#
# 1 0.022318 -0.005651 -0.005547 0.000000 0.000000 0.000000
# 2 -0.005651 0.013587 -0.004480 0.000000 0.000000 0.000000
# 3 -0.005547 -0.004480 0.014022 0.000000 0.000000 0.000000
# 4 0.000000 0.000000 0.000000 0.033050 0.000000 0.000000
# 5 0.000000 0.000000 0.000000 0.000000 0.050077 0.000000
# 6 0.000000 0.000000 0.000000 0.000000 0.000000 0.030535
#
#
# Mechanical properties :
#
#
# Convention : Reuss Voigt Hill
#
# Bulk Modulus (GPa) = 53.85175 58.38135 56.11655
# Shear Modulus (GPa) = 24.85878 26.32454 25.59166
#
# Velocity S-wave (km/s) = 3.57152 3.67531 3.62379
# Velocity P-wave (km/s) = 6.68136 6.92587 6.80472
#
# Compressibility (1/GPa) = 0.01856950
#
# Stress axis : x y z
#
# Youngs Moduli (GPa) = 44.80755 73.59855 71.31627
#
# Poissons Ratio (x) = 0.41591 0.39561
# Poissons Ratio (y) = 0.25321 0.31953
# Poissons Ratio (z) = 0.24856 0.32976
#
# Static dielectric constant tensor:
#      x y z
#    x 3.519350 0.000000 0.000000 
#    y 0.000000 3.551920 0.000000 
#    z 0.000000 0.000000 3.568550 
# 
# 
# High freq. dielectric constant tensor:
#      x y z
#    x 1.744540 0.000000 0.000000 
#    y 0.000000 1.756300 0.000000 
#    z 0.000000 0.000000 1.764890 
# 
# From -- ./inp_files/9625.got.cif
#   From: 2010.03.12/outbox.cif.g09.slc.cpg/sg66_5_cif.got.tgz:9625.got - 2010.04.10 21:57:39.
