data_PCOD8276599
_publ_section_title
;
Structure prediction by ZEFSAII (Michael W. Deem and Ramdas Pophale) SiO2 
 PCOD8276599
Probable space group: C C C M
;
_chemical_formula_sum "Si O2"
_cell_formula_units_Z 116
_cell_length_a 21.933515
_cell_length_b 29.165421
_cell_length_c 8.985974
_cell_angle_alpha 90.000000
_cell_angle_beta 90.000000
_cell_angle_gamma 90.000000
_cell_volume 5748.329356
_symmetry_space_group_name_H-M "C C C M"
_symmetry_group_IT_number 66
_symmetry_cell_setting 'orthorhombic'
loop_
_space_group_symop_operation_xyz
x,y,z
-x,-y,z
x,-y,1/2-z
-x,y,1/2-z
-x,-y,-z
x,y,-z
-x,y,1/2+z
x,-y,1/2+z
1/2+x,1/2+y,z
1/2-x,1/2-y,z
1/2+x,1/2-y,1/2-z
1/2-x,1/2+y,1/2-z
1/2-x,1/2-y,-z
1/2+x,1/2+y,-z
1/2-x,1/2+y,1/2+z
1/2+x,1/2-y,1/2+z
loop_
_atom_site_type_symbol
_atom_site_label
_atom_site_fract_x
_atom_site_fract_y
_atom_site_fract_z
Si Si1 0.563958 0.845427 0.674622
Si Si2 0.562783 0.758622 0.823532
Si Si3 0.227051 0.045527 0.825090
Si Si4 0.609822 0.670124 0.673618
Si Si5 0.313543 0.885529 0.831935
Si Si6 0.760713 0.200582 0.170225
Si Si7 0.603489 0.432248 0.834043
Si Si8 0.000000 0.000000 0.750000
O O1 0.500000 0.861150 0.750000
O O2 0.553271 0.834826 0.500000
O O3 0.599536 0.801712 0.754279
O O4 0.613269 0.887138 0.693812
O O5 0.500000 0.774363 0.750000
O O6 0.574777 0.707608 0.768884
O O7 0.563566 0.759323 0.000000
O O8 0.274239 0.085202 0.783074
O O9 0.156903 0.052036 0.775198
O O10 0.253556 0.000000 0.750000
O O11 0.225855 0.039783 0.000000
O O12 0.600482 0.681170 0.500000
O O13 0.679566 0.673902 0.729805
O O14 0.584010 0.619481 0.712403
O O15 0.296357 0.832268 0.808141
O O16 0.296625 0.901183 0.000000
O O17 0.750000 0.250000 0.252289
O O18 0.774801 0.211892 0.000000
O O19 0.544945 0.466078 0.840079
O O20 0.631482 0.430502 0.000000
#
# Coordination Sequence:
#
# PCOD8276599 Si02
#       8
#    16  16  16  16  16  16  16   4
#     4  10  20  36  62  91 125 165 204 248 296 360
#     4  11  22  36  54  79 116 160 208 256 301 360
#     4  12  25  42  67  93 124 159 201 255 313 374
#     4  10  20  36  56  79 114 156 198 251 311 371
#     4  10  20  38  63  91 122 161 207 249 305 371
#     4   9  16  29  54  85 116 153 197 241 291 362
#     4  11  24  43  64  88 119 155 203 262 322 380
#     4  12  26  40  68  98 118 156 212 272 330 380
#
# _framework density 20.179777000000001
#
# number of rings (size 3 to 8) (size 9 to 14) (size 15 to 20)
#    0.000    1.517    2.069    4.759    0.966    4.414 
#    0.000    0.000    0.000    2.069    0.000    2.897 
#    0.000    0.000    0.000    0.000    0.000    0.000 
#
# Total GULP energy -718516.863261 kJ/mol
# GULP energy per Si atom -12388.221780 kJ/mol
# Density = 2.013385 g / cm^3
# Si number density = 20.179777 Si / 1000 Ang^3
#
#
#
# Elastic Constant Matrix: (Units=GPa)
#
#
# Indices 1 2 3 4 5 6 
#
# 1 93.0730 46.8296 40.3442 0.0000 0.0000 0.0000
# 2 46.8296 96.7365 44.2325 0.0000 0.0000 0.0000
# 3 40.3442 44.2325 132.7293 0.0000 0.0000 0.0000
# 4 0.0000 0.0000 0.0000 25.1940 0.0000 0.0000
# 5 0.0000 0.0000 0.0000 0.0000 23.8944 0.0000
# 6 0.0000 0.0000 0.0000 0.0000 0.0000 36.5473
#
#
#
# Elastic Compliance Matrix: (Units=1/GPa)
#
#
# Indices 1 2 3 4 5 6 
#
# 1 0.014877 -0.006057 -0.002503 0.000000 0.000000 0.000000
# 2 -0.006057 0.014662 -0.003045 0.000000 0.000000 0.000000
# 3 -0.002503 -0.003045 0.009310 0.000000 0.000000 0.000000
# 4 0.000000 0.000000 0.000000 0.039692 0.000000 0.000000
# 5 0.000000 0.000000 0.000000 0.000000 0.041851 0.000000
# 6 0.000000 0.000000 0.000000 0.000000 0.000000 0.027362
#
#
# Mechanical properties :
#
#
# Convention : Reuss Voigt Hill
#
# Bulk Modulus (GPa) = 63.94862 65.03906 64.49384
# Shear Modulus (GPa) = 28.38049 29.86930 29.12490
#
# Velocity S-wave (km/s) = 3.75425 3.85146 3.80316
# Velocity P-wave (km/s) = 7.10990 7.21652 7.16341
#
# Compressibility (1/GPa) = 0.01563755
#
# Stress axis : x y z
#
# Youngs Moduli (GPa) = 67.21732 68.20370 107.41335
#
# Poissons Ratio (x) = 0.41313 0.26890
# Poissons Ratio (y) = 0.40715 0.32707
# Poissons Ratio (z) = 0.16827 0.20768
#
# Static dielectric constant tensor:
#      x y z
#    x 3.695340 0.000000 0.000000 
#    y 0.000000 3.740300 0.000000 
#    z 0.000000 0.000000 3.442150 
# 
# 
# High freq. dielectric constant tensor:
#      x y z
#    x 1.786840 0.000000 0.000000 
#    y 0.000000 1.786180 0.000000 
#    z 0.000000 0.000000 1.768590 
# 
# From -- ./inp_files/9424.got.cif
#   From: 2010.03.12/outbox.cif.g09.slc.cpg/sg66_5_cif.got.tgz:9424.got - 2010.04.10 21:57:39.
