data_PCOD8276161
_publ_section_title
;
Structure prediction by ZEFSAII (Michael W. Deem and Ramdas Pophale) SiO2 
 PCOD8276161
Probable space group: C C C M
;
_chemical_formula_sum "Si O2"
_cell_formula_units_Z 112
_cell_length_a 25.522816
_cell_length_b 12.834992
_cell_length_c 14.623349
_cell_angle_alpha 90.000000
_cell_angle_beta 90.000000
_cell_angle_gamma 90.000000
_cell_volume 4790.391817
_symmetry_space_group_name_H-M "C C C M"
_symmetry_group_IT_number 66
_symmetry_cell_setting 'orthorhombic'
loop_
_space_group_symop_operation_xyz
x,y,z
-x,-y,z
x,-y,1/2-z
-x,y,1/2-z
-x,-y,-z
x,y,-z
-x,y,1/2+z
x,-y,1/2+z
1/2+x,1/2+y,z
1/2-x,1/2-y,z
1/2+x,1/2-y,1/2-z
1/2-x,1/2+y,1/2-z
1/2-x,1/2-y,-z
1/2+x,1/2+y,-z
1/2-x,1/2+y,1/2+z
1/2+x,1/2-y,1/2+z
loop_
_atom_site_type_symbol
_atom_site_label
_atom_site_fract_x
_atom_site_fract_y
_atom_site_fract_z
Si Si1 0.229850 0.636198 0.101493
Si Si2 0.133827 0.666518 0.211658
Si Si3 0.024082 0.607327 0.845106
Si Si4 0.094324 0.139171 0.605753
Si Si5 0.321144 0.485307 0.144468
Si Si6 0.870812 0.776136 0.892763
Si Si7 0.514946 0.684381 0.099123
O O1 0.250000 0.750000 0.131498
O O2 0.185107 0.606758 0.174553
O O3 0.274067 0.546575 0.095878
O O4 0.205383 0.644410 0.000000
O O5 0.085853 0.595355 0.176300
O O6 0.128430 0.780398 0.165376
O O7 0.140404 0.680635 0.322295
O O8 0.000000 0.500000 0.882066
O O9 0.000000 0.643725 0.750000
O O10 0.007707 0.697625 0.914447
O O11 0.091362 0.176314 0.500000
O O12 0.034583 0.125135 0.646772
O O13 0.122832 0.029041 0.612284
O O14 0.311383 0.500000 0.250000
O O15 0.325147 0.363274 0.117247
O O16 0.927633 0.818364 0.854919
O O17 0.873652 0.738818 0.000000
O O18 0.523661 0.634043 0.000000
#
# Coordination Sequence:
#
# PCOD8276161 Si02
#       7
#    16  16  16  16  16  16  16
#     4  11  22  40  67  96 126 166 223 285 334 378
#     4  11  21  39  66  94 127 170 217 266 334 393
#     4  10  20  37  63  94 125 164 211 269 325 382
#     4  10  19  35  61  93 129 169 216 265 318 383
#     4  12  23  40  61  95 132 175 218 270 326 387
#     4  11  22  39  62  93 135 178 216 262 326 402
#     4   9  20  36  58  90 131 174 212 258 324 394
#
# _framework density 23.380134000000002
#
# number of rings (size 3 to 8) (size 9 to 14) (size 15 to 20)
#    0.000    1.429    4.286    1.714    0.000    1.429 
#    2.571    2.857    0.000    7.714    0.000    0.000 
#    0.000    0.000    0.000    0.000    0.000    0.000 
#
# Total GULP energy -693765.778555 kJ/mol
# GULP energy per Si atom -12388.674617 kJ/mol
# Density = 2.332692 g / cm^3
# Si number density = 23.380134 Si / 1000 Ang^3
#
#
#
# Elastic Constant Matrix: (Units=GPa)
#
#
# Indices 1 2 3 4 5 6 
#
# 1 142.5544 35.4545 25.1924 0.0000 0.0000 0.0000
# 2 35.4545 56.3510 1.4818 0.0000 0.0000 0.0000
# 3 25.1924 1.4818 99.7751 0.0000 0.0000 0.0000
# 4 0.0000 0.0000 0.0000 17.2209 0.0000 0.0000
# 5 0.0000 0.0000 0.0000 0.0000 50.7676 0.0000
# 6 0.0000 0.0000 0.0000 0.0000 0.0000 29.9254
#
#
#
# Elastic Compliance Matrix: (Units=1/GPa)
#
#
# Indices 1 2 3 4 5 6 
#
# 1 0.008745 -0.005446 -0.002127 0.000000 0.000000 0.000000
# 2 -0.005446 0.021145 0.001061 0.000000 0.000000 0.000000
# 3 -0.002127 0.001061 0.010544 0.000000 0.000000 0.000000
# 4 0.000000 0.000000 0.000000 0.058069 0.000000 0.000000
# 5 0.000000 0.000000 0.000000 0.000000 0.019698 0.000000
# 6 0.000000 0.000000 0.000000 0.000000 0.000000 0.033416
#
#
# Mechanical properties :
#
#
# Convention : Reuss Voigt Hill
#
# Bulk Modulus (GPa) = 36.48438 46.99308 41.73873
# Shear Modulus (GPa) = 28.77228 35.35291 32.06260
#
# Velocity S-wave (km/s) = 3.51184 3.89278 3.70721
# Velocity P-wave (km/s) = 5.66416 6.35202 6.01793
#
# Compressibility (1/GPa) = 0.02740899
#
# Stress axis : x y z
#
# Youngs Moduli (GPa) = 114.34640 47.29314 94.84161
#
# Poissons Ratio (x) = 0.25758 0.20175
# Poissons Ratio (y) = 0.62278 -0.10064
# Poissons Ratio (z) = 0.24324 -0.05019
#
# Static dielectric constant tensor:
#      x y z
#    x 4.308350 0.000000 0.000000 
#    y 0.000000 3.769310 0.000000 
#    z 0.000000 0.000000 4.162620 
# 
# 
# High freq. dielectric constant tensor:
#      x y z
#    x 1.925730 0.000000 0.000000 
#    y 0.000000 1.886780 0.000000 
#    z 0.000000 0.000000 1.924330 
# 
# From -- ./inp_files/32449.got.cif
#   From: 2010.03.12/outbox.cif.g09.slc.cpg/sg66_17_cif.got.tgz:32449.got - 2010.04.10 21:57:39.
