data_PCOD8276056
_publ_section_title
;
Structure prediction by ZEFSAII (Michael W. Deem and Ramdas Pophale) SiO2 
 PCOD8276056
Probable space group: C C C M
;
_chemical_formula_sum "Si O2"
_cell_formula_units_Z 120
_cell_length_a 15.984489
_cell_length_b 28.540061
_cell_length_c 14.440619
_cell_angle_alpha 90.000000
_cell_angle_beta 90.000000
_cell_angle_gamma 90.000000
_cell_volume 6587.785710
_symmetry_space_group_name_H-M "C C C M"
_symmetry_group_IT_number 66
_symmetry_cell_setting 'orthorhombic'
loop_
_space_group_symop_operation_xyz
x,y,z
-x,-y,z
x,-y,1/2-z
-x,y,1/2-z
-x,-y,-z
x,y,-z
-x,y,1/2+z
x,-y,1/2+z
1/2+x,1/2+y,z
1/2-x,1/2-y,z
1/2+x,1/2-y,1/2-z
1/2-x,1/2+y,1/2-z
1/2-x,1/2-y,-z
1/2+x,1/2+y,-z
1/2-x,1/2+y,1/2+z
1/2+x,1/2-y,1/2+z
loop_
_atom_site_type_symbol
_atom_site_label
_atom_site_fract_x
_atom_site_fract_y
_atom_site_fract_z
Si Si1 0.135288 0.326924 0.247163
Si Si2 0.409423 0.612482 0.211651
Si Si3 0.409341 0.294556 0.602908
Si Si4 0.750000 0.250000 0.178109
Si Si5 0.733913 0.921222 0.239092
Si Si6 0.756794 0.502757 0.393148
Si Si7 0.997170 0.700734 0.608209
Si Si8 0.424499 0.474457 0.602362
O O1 0.212338 0.290880 0.257049
O O2 0.167738 0.379517 0.237248
O O3 0.076798 0.326353 0.338293
O O4 0.085437 0.312258 0.154469
O O5 0.500000 0.598951 0.250000
O O6 0.413230 0.666098 0.180832
O O7 0.327719 0.601017 0.274999
O O8 0.398998 0.578053 0.126341
O O9 0.418583 0.315995 0.500000
O O10 0.320106 0.269665 0.609722
O O11 0.482752 0.256651 0.620393
O O12 0.721787 0.950236 0.335123
O O13 0.707806 0.955723 0.154714
O O14 0.788079 0.507933 0.500000
O O15 0.657365 0.493567 0.388060
O O16 0.996649 0.686291 0.500000
O O17 0.500000 0.500000 0.659559
O O18 0.457948 0.469161 0.500000
#
# Coordination Sequence:
#
# PCOD8276056 Si02
#       8
#    16  16  16   8  16  16  16  16
#     4  10  20  36  59  83 114 147 186 234 279 341
#     4  11  21  30  48  76 109 147 182 225 269 321
#     4  10  20  34  52  77 106 140 183 233 278 324
#     4  10  19  34  55  80 110 142 176 228 282 324
#     4  10  20  35  53  85 111 144 192 226 278 338
#     4   9  19  34  53  77 111 143 179 235 284 329
#     4   9  21  38  57  80 109 148 187 229 281 337
#     4   9  17  31  47  66  96 139 183 221 262 317
#
# _framework density 18.215527999999999
#
# number of rings (size 3 to 8) (size 9 to 14) (size 15 to 20)
#    0.000    2.267    1.333    1.400    3.733    3.467 
#    0.000    1.000    0.000    6.400    0.000    7.467 
#    0.000    0.000    0.000    0.000    0.000    0.000 
#
# Total GULP energy -743360.212876 kJ/mol
# GULP energy per Si atom -12389.336881 kJ/mol
# Density = 1.817407 g / cm^3
# Si number density = 18.215528 Si / 1000 Ang^3
#
#
#
# Elastic Constant Matrix: (Units=GPa)
#
#
# Indices 1 2 3 4 5 6 
#
# 1 59.4993 37.6133 29.9284 0.0000 0.0000 0.0000
# 2 37.6133 111.1753 43.7089 0.0000 0.0000 0.0000
# 3 29.9284 43.7089 105.5685 0.0000 0.0000 0.0000
# 4 0.0000 0.0000 0.0000 17.9614 0.0000 0.0000
# 5 0.0000 0.0000 0.0000 0.0000 17.1803 0.0000
# 6 0.0000 0.0000 0.0000 0.0000 0.0000 31.2582
#
#
#
# Elastic Compliance Matrix: (Units=1/GPa)
#
#
# Indices 1 2 3 4 5 6 
#
# 1 0.022635 -0.006133 -0.003877 0.000000 0.000000 0.000000
# 2 -0.006133 0.012406 -0.003398 0.000000 0.000000 0.000000
# 3 -0.003877 -0.003398 0.011978 0.000000 0.000000 0.000000
# 4 0.000000 0.000000 0.000000 0.055675 0.000000 0.000000
# 5 0.000000 0.000000 0.000000 0.000000 0.058206 0.000000
# 6 0.000000 0.000000 0.000000 0.000000 0.000000 0.031992
#
#
# Mechanical properties :
#
#
# Convention : Reuss Voigt Hill
#
# Bulk Modulus (GPa) = 49.50017 55.41603 52.45810
# Shear Modulus (GPa) = 22.08067 24.27946 23.18007
#
# Velocity S-wave (km/s) = 3.48543 3.65485 3.57114
# Velocity P-wave (km/s) = 6.59024 6.94975 6.77238
#
# Compressibility (1/GPa) = 0.02020195
#
# Stress axis : x y z
#
# Youngs Moduli (GPa) = 44.18018 80.60845 83.48325
#
# Poissons Ratio (x) = 0.49440 0.32370
# Poissons Ratio (y) = 0.27098 0.28364
# Poissons Ratio (z) = 0.17130 0.27387
#
# Static dielectric constant tensor:
#      x y z
#    x 3.332280 0.000000 0.000000 
#    y 0.000000 3.357510 0.000000 
#    z 0.000000 0.000000 3.271010 
# 
# 
# High freq. dielectric constant tensor:
#      x y z
#    x 1.689270 0.000000 0.000000 
#    y 0.000000 1.709770 0.000000 
#    z 0.000000 0.000000 1.695140 
# 
# From -- ./inp_files/29064.got.cif
#   From: 2010.03.12/outbox.cif.g09.slc.cpg/sg66_15_cif.got.tgz:29064.got - 2010.04.10 21:57:39.
