data_PCOD8276746
_publ_section_title
;
Structure prediction by ZEFSAII (Michael W. Deem and Ramdas Pophale) SiO2 
 PCOD8276746
Probable space group: C C C M
;
_chemical_formula_sum "Si O2"
_cell_formula_units_Z 112
_cell_length_a 22.753616
_cell_length_b 15.359766
_cell_length_c 14.400167
_cell_angle_alpha 90.000000
_cell_angle_beta 90.000000
_cell_angle_gamma 90.000000
_cell_volume 5032.717496
_symmetry_space_group_name_H-M "C C C M"
_symmetry_group_IT_number 66
_symmetry_cell_setting 'orthorhombic'
loop_
_space_group_symop_operation_xyz
x,y,z
-x,-y,z
x,-y,1/2-z
-x,y,1/2-z
-x,-y,-z
x,y,-z
-x,y,1/2+z
x,-y,1/2+z
1/2+x,1/2+y,z
1/2-x,1/2-y,z
1/2+x,1/2-y,1/2-z
1/2-x,1/2+y,1/2-z
1/2-x,1/2-y,-z
1/2+x,1/2+y,-z
1/2-x,1/2+y,1/2+z
1/2+x,1/2-y,1/2+z
loop_
_atom_site_type_symbol
_atom_site_label
_atom_site_fract_x
_atom_site_fract_y
_atom_site_fract_z
Si Si1 0.157583 0.027129 0.148984
Si Si2 0.894252 0.706778 0.603596
Si Si3 0.243086 0.654747 0.706727
Si Si4 0.464613 0.418804 0.897578
Si Si5 0.199291 0.152132 0.398547
Si Si6 0.117469 0.598795 0.726069
Si Si7 0.468593 0.224968 0.891499
O O1 0.205793 0.100999 0.159564
O O2 0.103185 0.059169 0.089625
O O3 0.133838 0.000000 0.250000
O O4 0.185916 0.948961 0.093305
O O5 0.879988 0.674946 0.500000
O O6 0.862735 0.799265 0.623941
O O7 0.868058 0.638338 0.674153
O O8 0.963553 0.704306 0.620579
O O9 0.250000 0.750000 0.661744
O O10 0.251997 0.665559 0.818743
O O11 0.181707 0.607774 0.678251
O O12 0.500000 0.500000 0.848093
O O13 0.464612 0.323390 0.848626
O O14 0.493452 0.406523 0.000000
O O15 0.224106 0.181732 0.500000
O O16 0.097306 0.500000 0.750000
O O17 0.069318 0.653949 0.667074
O O18 0.448834 0.220664 0.000000
#
# Coordination Sequence:
#
# PCOD8276746 Si02
#       7
#    16  16  16  16  16  16  16
#     4  10  21  35  56  89 123 163 203 251 314 385
#     4  10  22  41  66  95 123 162 215 273 330 385
#     4  11  22  41  63  88 126 167 211 266 319 385
#     4  10  20  37  61  90 127 166 206 260 324 390
#     4  10  20  37  63  93 124 157 202 263 329 385
#     4  12  25  43  65  92 130 176 220 271 332 396
#     4  10  23  42  64  92 131 173 220 272 326 392
#
# _framework density 22.254377000000002
#
# number of rings (size 3 to 8) (size 9 to 14) (size 15 to 20)
#    0.000    1.571    1.429    3.857    2.000    5.143 
#    2.571    4.286    0.000    3.857    0.000    0.000 
#    0.000    0.000    0.000    0.000    0.000    0.000 
#
# Total GULP energy -693746.080831 kJ/mol
# GULP energy per Si atom -12388.322872 kJ/mol
# Density = 2.220373 g / cm^3
# Si number density = 22.254377 Si / 1000 Ang^3
#
#
#
# Elastic Constant Matrix: (Units=GPa)
#
#
# Indices 1 2 3 4 5 6 
#
# 1 104.4330 44.1670 25.6257 0.0000 0.0000 0.0000
# 2 44.1670 180.1897 36.6452 0.0000 0.0000 0.0000
# 3 25.6257 36.6452 62.5476 0.0000 0.0000 0.0000
# 4 0.0000 0.0000 0.0000 14.2256 0.0000 0.0000
# 5 0.0000 0.0000 0.0000 0.0000 5.1916 0.0000
# 6 0.0000 0.0000 0.0000 0.0000 0.0000 38.4147
#
#
#
# Elastic Compliance Matrix: (Units=1/GPa)
#
#
# Indices 1 2 3 4 5 6 
#
# 1 0.011289 -0.002074 -0.003410 0.000000 0.000000 0.000000
# 2 -0.002074 0.006681 -0.003065 0.000000 0.000000 0.000000
# 3 -0.003410 -0.003065 0.019181 0.000000 0.000000 0.000000
# 4 0.000000 0.000000 0.000000 0.070296 0.000000 0.000000
# 5 0.000000 0.000000 0.000000 0.000000 0.192620 0.000000
# 6 0.000000 0.000000 0.000000 0.000000 0.000000 0.026032
#
#
# Mechanical properties :
#
#
# Convention : Reuss Voigt Hill
#
# Bulk Modulus (GPa) = 49.86625 62.22734 56.04680
# Shear Modulus (GPa) = 14.29059 27.61521 20.95290
#
# Velocity S-wave (km/s) = 2.53681 3.52645 3.07175
# Velocity P-wave (km/s) = 5.57105 6.67860 6.14981
#
# Compressibility (1/GPa) = 0.02005364
#
# Stress axis : x y z
#
# Youngs Moduli (GPa) = 88.57929 149.67212 52.13587
#
# Poissons Ratio (x) = 0.31036 0.17780
# Poissons Ratio (y) = 0.18368 0.15979
# Poissons Ratio (z) = 0.30209 0.45872
#
# Static dielectric constant tensor:
#      x y z
#    x 3.949570 0.000000 0.000000 
#    y 0.000000 4.139550 0.000000 
#    z 0.000000 0.000000 3.962820 
# 
# 
# High freq. dielectric constant tensor:
#      x y z
#    x 1.881550 0.000000 0.000000 
#    y 0.000000 1.882430 0.000000 
#    z 0.000000 0.000000 1.861440 
# 
# From -- ./inp_files/32451.got.cif
#   From: 2010.03.12/outbox.cif.g09.slc.cpg/sg66_17_cif.got.tgz:32451.got - 2010.04.10 21:57:39.
