data_PCOD8276842
_publ_section_title
;
Structure prediction by ZEFSAII (Michael W. Deem and Ramdas Pophale) SiO2 
 PCOD8276842
Probable space group: C C C M
;
_chemical_formula_sum "Si O2"
_cell_formula_units_Z 112
_cell_length_a 14.710552
_cell_length_b 22.434590
_cell_length_c 14.418539
_cell_angle_alpha 90.000000
_cell_angle_beta 90.000000
_cell_angle_gamma 90.000000
_cell_volume 4758.481257
_symmetry_space_group_name_H-M "C C C M"
_symmetry_group_IT_number 66
_symmetry_cell_setting 'orthorhombic'
loop_
_space_group_symop_operation_xyz
x,y,z
-x,-y,z
x,-y,1/2-z
-x,y,1/2-z
-x,-y,-z
x,y,-z
-x,y,1/2+z
x,-y,1/2+z
1/2+x,1/2+y,z
1/2-x,1/2-y,z
1/2+x,1/2-y,1/2-z
1/2-x,1/2+y,1/2-z
1/2-x,1/2-y,-z
1/2+x,1/2+y,-z
1/2-x,1/2+y,1/2+z
1/2+x,1/2-y,1/2+z
loop_
_atom_site_type_symbol
_atom_site_label
_atom_site_fract_x
_atom_site_fract_y
_atom_site_fract_z
Si Si1 0.398946 0.248863 0.729996
Si Si2 0.293511 0.449841 0.609207
Si Si3 0.642530 0.324377 0.607464
Si Si4 0.940404 0.859151 0.393556
Si Si5 0.145664 0.357147 0.604315
Si Si6 0.728479 0.074317 0.607910
Si Si7 0.019251 0.435001 0.142803
O O1 0.500000 0.225111 0.750000
O O2 0.354251 0.264460 0.830028
O O3 0.396324 0.308182 0.668599
O O4 0.345769 0.197912 0.674970
O O5 0.280786 0.456033 0.500000
O O6 0.393353 0.422736 0.633273
O O7 0.215324 0.405445 0.646063
O O8 0.272885 0.514732 0.654520
O O9 0.654137 0.305063 0.500000
O O10 0.548335 0.361009 0.622727
O O11 0.720661 0.367571 0.646252
O O12 0.917511 0.843682 0.500000
O O13 0.172270 0.336344 0.500000
O O14 0.044910 0.385276 0.597289
O O15 0.749302 0.071267 0.500000
O O16 0.622760 0.082935 0.626809
O O17 0.000000 0.500000 0.097584
O O18 0.000000 0.437682 0.250000
#
# Coordination Sequence:
#
# PCOD8276842 Si02
#       7
#    16  16  16  16  16  16  16
#     4  10  21  39  60  87 124 169 224 276 325 390
#     4   9  19  34  59  96 130 162 208 260 327 399
#     4   9  20  39  64  91 127 174 221 272 330 388
#     4   9  18  36  60  90 127 167 211 267 327 390
#     4  11  22  38  62  92 127 171 216 268 334 396
#     4  10  20  39  66  96 130 171 218 269 328 401
#     4  11  23  39  60  93 134 173 217 269 328 398
#
# _framework density 23.536921
#
# number of rings (size 3 to 8) (size 9 to 14) (size 15 to 20)
#    0.000    2.143    1.429    1.286    0.000    3.429 
#    0.000    7.857    0.000    5.143    0.000   25.000 
#    0.000    2.286    0.000    0.000    0.000    0.000 
#
# Total GULP energy -694305.712731 kJ/mol
# GULP energy per Si atom -12398.316299 kJ/mol
# Density = 2.348335 g / cm^3
# Si number density = 23.536921 Si / 1000 Ang^3
#
#
#
# Elastic Constant Matrix: (Units=GPa)
#
#
# Indices 1 2 3 4 5 6 
#
# 1 97.6640 42.9935 17.8110 0.0000 0.0000 0.0000
# 2 42.9935 112.1407 45.4614 0.0000 0.0000 0.0000
# 3 17.8110 45.4614 81.2672 0.0000 0.0000 0.0000
# 4 0.0000 0.0000 0.0000 23.4758 0.0000 0.0000
# 5 0.0000 0.0000 0.0000 0.0000 22.9138 0.0000
# 6 0.0000 0.0000 0.0000 0.0000 0.0000 31.3488
#
#
#
# Elastic Compliance Matrix: (Units=1/GPa)
#
#
# Indices 1 2 3 4 5 6 
#
# 1 0.012319 -0.004692 -0.000075 0.000000 0.000000 0.000000
# 2 -0.004692 0.013320 -0.006423 0.000000 0.000000 0.000000
# 3 -0.000075 -0.006423 0.015915 0.000000 0.000000 0.000000
# 4 0.000000 0.000000 0.000000 0.042597 0.000000 0.000000
# 5 0.000000 0.000000 0.000000 0.000000 0.043642 0.000000
# 6 0.000000 0.000000 0.000000 0.000000 0.000000 0.031899
#
#
# Mechanical properties :
#
#
# Convention : Reuss Voigt Hill
#
# Bulk Modulus (GPa) = 52.15728 55.95599 54.05663
# Shear Modulus (GPa) = 26.53042 27.86809 27.19925
#
# Velocity S-wave (km/s) = 3.36100 3.44469 3.40310
# Velocity P-wave (km/s) = 6.10488 6.29654 6.20145
#
# Compressibility (1/GPa) = 0.01917278
#
# Stress axis : x y z
#
# Youngs Moduli (GPa) = 81.17847 75.07350 62.83555
#
# Poissons Ratio (x) = 0.35228 0.00470
# Poissons Ratio (y) = 0.38093 0.40359
# Poissons Ratio (z) = 0.00607 0.48220
#
# Static dielectric constant tensor:
#      x y z
#    x 4.108700 0.000000 0.000000 
#    y 0.000000 4.314440 0.000000 
#    z 0.000000 0.000000 4.225280 
# 
# 
# High freq. dielectric constant tensor:
#      x y z
#    x 1.930010 0.000000 0.000000 
#    y 0.000000 1.918970 0.000000 
#    z 0.000000 0.000000 1.935600 
# 
# From -- ./inp_files/28679.got.cif
#   From: 2010.03.12/outbox.cif.g09.slc.cpg/sg66_15_cif.got.tgz:28679.got - 2010.04.10 21:57:39.
