data_PCOD8276794
_publ_section_title
;
Structure prediction by ZEFSAII (Michael W. Deem and Ramdas Pophale) SiO2 
 PCOD8276794
Probable space group: C C C M
;
_chemical_formula_sum "Si O2"
_cell_formula_units_Z 80
_cell_length_a 23.229888
_cell_length_b 12.003270
_cell_length_c 13.880722
_cell_angle_alpha 90.000000
_cell_angle_beta 90.000000
_cell_angle_gamma 90.000000
_cell_volume 3870.425813
_symmetry_space_group_name_H-M "C C C M"
_symmetry_group_IT_number 66
_symmetry_cell_setting 'orthorhombic'
loop_
_space_group_symop_operation_xyz
x,y,z
-x,-y,z
x,-y,1/2-z
-x,y,1/2-z
-x,-y,-z
x,y,-z
-x,y,1/2+z
x,-y,1/2+z
1/2+x,1/2+y,z
1/2-x,1/2-y,z
1/2+x,1/2-y,1/2-z
1/2-x,1/2+y,1/2-z
1/2-x,1/2-y,-z
1/2+x,1/2+y,-z
1/2-x,1/2+y,1/2+z
1/2+x,1/2-y,1/2+z
loop_
_atom_site_type_symbol
_atom_site_label
_atom_site_fract_x
_atom_site_fract_y
_atom_site_fract_z
Si Si1 0.957260 0.911669 0.386189
Si Si2 0.192333 0.812137 0.740300
Si Si3 0.667907 0.482591 0.113753
Si Si4 0.901869 0.620706 0.749427
Si Si5 0.501424 0.829701 0.613212
O O1 0.956511 0.923051 0.500000
O O2 0.893697 0.937934 0.349534
O O3 0.981276 0.793769 0.354303
O O4 0.000000 0.000000 0.338539
O O5 0.250000 0.750000 0.708869
O O6 0.208026 0.891406 0.832336
O O7 0.143474 0.720385 0.765243
O O8 0.175154 0.890873 0.650018
O O9 0.678658 0.478467 0.000000
O O10 0.869524 0.500000 0.750000
O O11 0.947229 0.600319 0.661630
O O12 0.938063 0.644189 0.846741
O O13 0.501128 0.851523 0.500000
#
# Coordination Sequence:
#
# PCOD8276794 Si02
#       5
#    16  16  16  16  16
#     4   9  16  30  58  90 121 154 191 245 310 370
#     4  11  25  43  67  92 127 171 216 270 320 373
#     4  10  22  43  67  96 127 161 213 269 319 379
#     4  11  24  39  60  92 129 171 214 254 312 384
#     4  10  20  38  60  90 129 164 205 257 313 382
#
# _framework density 20.669560000000001
#
# number of rings (size 3 to 8) (size 9 to 14) (size 15 to 20)
#    0.000    1.800    2.000    2.400    2.800    4.800 
#    0.000    0.000    0.000    0.000    0.000    0.000 
#    0.000    0.000    0.000    0.000    0.000    0.000 
#
# Total GULP energy -495710.237526 kJ/mol
# GULP energy per Si atom -12392.755938 kJ/mol
# Density = 2.062252 g / cm^3
# Si number density = 20.669560 Si / 1000 Ang^3
#
#
#
# Elastic Constant Matrix: (Units=GPa)
#
#
# Indices 1 2 3 4 5 6 
#
# 1 68.5786 38.2140 18.0522 0.0000 0.0000 0.0000
# 2 38.2140 142.9286 32.3655 0.0000 0.0000 0.0000
# 3 18.0522 32.3655 129.6323 0.0000 0.0000 0.0000
# 4 0.0000 0.0000 0.0000 19.3787 0.0000 0.0000
# 5 0.0000 0.0000 0.0000 0.0000 15.2140 0.0000
# 6 0.0000 0.0000 0.0000 0.0000 0.0000 32.4216
#
#
#
# Elastic Compliance Matrix: (Units=1/GPa)
#
#
# Indices 1 2 3 4 5 6 
#
# 1 0.017349 -0.004337 -0.001333 0.000000 0.000000 0.000000
# 2 -0.004337 0.008500 -0.001518 0.000000 0.000000 0.000000
# 3 -0.001333 -0.001518 0.008279 0.000000 0.000000 0.000000
# 4 0.000000 0.000000 0.000000 0.051603 0.000000 0.000000
# 5 0.000000 0.000000 0.000000 0.000000 0.065729 0.000000
# 6 0.000000 0.000000 0.000000 0.000000 0.000000 0.030844
#
#
# Mechanical properties :
#
#
# Convention : Reuss Voigt Hill
#
# Bulk Modulus (GPa) = 50.62888 57.60031 54.11460
# Shear Modulus (GPa) = 24.59858 30.23671 27.41764
#
# Velocity S-wave (km/s) = 3.45351 3.82889 3.64603
# Velocity P-wave (km/s) = 6.36002 6.89020 6.63041
#
# Compressibility (1/GPa) = 0.01975157
#
# Stress axis : x y z
#
# Youngs Moduli (GPa) = 57.63929 117.65026 120.78964
#
# Poissons Ratio (x) = 0.51021 0.16104
# Poissons Ratio (y) = 0.24996 0.18339
# Poissons Ratio (z) = 0.07685 0.17862
#
# Static dielectric constant tensor:
#      x y z
#    x 3.604990 0.000000 0.000000 
#    y 0.000000 4.081690 0.000000 
#    z 0.000000 0.000000 3.533970 
# 
# 
# High freq. dielectric constant tensor:
#      x y z
#    x 1.784610 0.000000 0.000000 
#    y 0.000000 1.832680 0.000000 
#    z 0.000000 0.000000 1.806990 
# 
# From -- ./inp_files/26394.got.cif
#   From: 2010.03.12/outbox.cif.g09.slc.cpg/sg66_14_cif.got.tgz:26394.got - 2010.04.10 21:57:39.
