data_PCOD8276952
_publ_section_title
;
Structure prediction by ZEFSAII (Michael W. Deem and Ramdas Pophale) SiO2 
 PCOD8276952
Probable space group: C C C M
;
_chemical_formula_sum "Si O2"
_cell_formula_units_Z 64
_cell_length_a 12.216521
_cell_length_b 16.604608
_cell_length_c 13.287547
_cell_angle_alpha 90.000000
_cell_angle_beta 90.000000
_cell_angle_gamma 90.000000
_cell_volume 2695.386115
_symmetry_space_group_name_H-M "C C C M"
_symmetry_group_IT_number 66
_symmetry_cell_setting 'orthorhombic'
loop_
_space_group_symop_operation_xyz
x,y,z
-x,-y,z
x,-y,1/2-z
-x,y,1/2-z
-x,-y,-z
x,y,-z
-x,y,1/2+z
x,-y,1/2+z
1/2+x,1/2+y,z
1/2-x,1/2-y,z
1/2+x,1/2-y,1/2-z
1/2-x,1/2+y,1/2-z
1/2-x,1/2-y,-z
1/2+x,1/2+y,-z
1/2-x,1/2+y,1/2+z
1/2+x,1/2-y,1/2+z
loop_
_atom_site_type_symbol
_atom_site_label
_atom_site_fract_x
_atom_site_fract_y
_atom_site_fract_z
Si Si1 0.833978 0.952030 0.119511
Si Si2 0.062313 0.111069 0.381179
Si Si3 0.436347 0.207450 0.613891
Si Si4 0.671517 0.825999 0.193134
O O1 0.725400 0.909723 0.160066
O O2 0.941149 0.906008 0.163900
O O3 0.846376 0.045852 0.156447
O O4 0.829484 0.947389 0.000000
O O5 0.049912 0.100396 0.500000
O O6 0.096062 0.201307 0.353840
O O7 0.399994 0.187984 0.500000
O O8 0.363723 0.156544 0.691263
O O9 0.564922 0.191039 0.625051
O O10 0.750000 0.750000 0.176610
#
# Coordination Sequence:
#
# PCOD8276952 Si02
#       4
#    16  16  16  16
#     4   9  16  29  55  89 124 164 209 267 336 394
#     4   8  15  30  54  85 121 161 207 267 334 387
#     4  10  21  36  55  86 129 172 222 276 323 390
#     4  11  21  33  55  89 128 174 223 268 333 394
#
# _framework density 23.744278999999999
#
# number of rings (size 3 to 8) (size 9 to 14) (size 15 to 20)
#    0.000    2.500    2.500    2.250    0.000    1.500 
#    0.000    1.250    0.000    0.000    0.000   26.250 
#    0.000   32.000    0.000    0.000    0.000    0.000 
#
# Total GULP energy -396737.220742 kJ/mol
# GULP energy per Si atom -12398.038148 kJ/mol
# Density = 2.369024 g / cm^3
# Si number density = 23.744279 Si / 1000 Ang^3
#
#
#
# Elastic Constant Matrix: (Units=GPa)
#
#
# Indices 1 2 3 4 5 6 
#
# 1 97.4963 68.5891 19.2740 0.0000 0.0000 0.0000
# 2 68.5891 103.0927 38.8307 0.0000 0.0000 0.0000
# 3 19.2740 38.8307 65.0782 0.0000 0.0000 0.0000
# 4 0.0000 0.0000 0.0000 23.4439 0.0000 0.0000
# 5 0.0000 0.0000 0.0000 0.0000 32.8062 0.0000
# 6 0.0000 0.0000 0.0000 0.0000 0.0000 46.6122
#
#
#
# Elastic Compliance Matrix: (Units=1/GPa)
#
#
# Indices 1 2 3 4 5 6 
#
# 1 0.019604 -0.014003 0.002549 0.000000 0.000000 0.000000
# 2 -0.014003 0.022514 -0.009287 0.000000 0.000000 0.000000
# 3 0.002549 -0.009287 0.020152 0.000000 0.000000 0.000000
# 4 0.000000 0.000000 0.000000 0.042655 0.000000 0.000000
# 5 0.000000 0.000000 0.000000 0.000000 0.030482 0.000000
# 6 0.000000 0.000000 0.000000 0.000000 0.000000 0.021454
#
#
# Mechanical properties :
#
#
# Convention : Reuss Voigt Hill
#
# Bulk Modulus (GPa) = 48.10041 57.67277 52.88659
# Shear Modulus (GPa) = 24.35792 29.83734 27.09763
#
# Velocity S-wave (km/s) = 3.20635 3.54872 3.38187
# Velocity P-wave (km/s) = 5.83175 6.41351 6.12953
#
# Compressibility (1/GPa) = 0.02078984
#
# Stress axis : x y z
#
# Youngs Moduli (GPa) = 51.00978 44.41617 49.62238
#
# Poissons Ratio (x) = 0.62196 -0.12650
# Poissons Ratio (y) = 0.71429 0.46082
# Poissons Ratio (z) = -0.13004 0.41247
#
# Static dielectric constant tensor:
#      x y z
#    x 4.157470 0.000000 0.000000 
#    y 0.000000 4.298390 0.000000 
#    z 0.000000 0.000000 4.387050 
# 
# 
# High freq. dielectric constant tensor:
#      x y z
#    x 1.925380 0.000000 0.000000 
#    y 0.000000 1.917410 0.000000 
#    z 0.000000 0.000000 1.969390 
# 
# From -- ./inp_files/25816.got.cif
#   From: 2010.03.12/outbox.cif.g09.slc.cpg/sg66_13_cif.got.tgz:25816.got - 2010.04.10 21:57:39.
