data_PCOD8276868
_publ_section_title
;
Structure prediction by ZEFSAII (Michael W. Deem and Ramdas Pophale) SiO2 
 PCOD8276868
Probable space group: C C C M
;
_chemical_formula_sum "Si O2"
_cell_formula_units_Z 116
_cell_length_a 28.725239
_cell_length_b 8.566416
_cell_length_c 26.481072
_cell_angle_alpha 90.000000
_cell_angle_beta 90.000000
_cell_angle_gamma 90.000000
_cell_volume 6516.259537
_symmetry_space_group_name_H-M "C C C M"
_symmetry_group_IT_number 66
_symmetry_cell_setting 'orthorhombic'
loop_
_space_group_symop_operation_xyz
x,y,z
-x,-y,z
x,-y,1/2-z
-x,y,1/2-z
-x,-y,-z
x,y,-z
-x,y,1/2+z
x,-y,1/2+z
1/2+x,1/2+y,z
1/2-x,1/2-y,z
1/2+x,1/2-y,1/2-z
1/2-x,1/2+y,1/2-z
1/2-x,1/2-y,-z
1/2+x,1/2+y,-z
1/2-x,1/2+y,1/2+z
1/2+x,1/2-y,1/2+z
loop_
_atom_site_type_symbol
_atom_site_label
_atom_site_fract_x
_atom_site_fract_y
_atom_site_fract_z
Si Si1 0.634126 0.256760 0.144431
Si Si2 0.151155 0.445521 0.800159
Si Si3 0.799852 0.329593 0.057633
Si Si4 0.051195 0.948043 0.173351
Si Si5 0.000000 0.500000 0.750000
Si Si6 0.274100 0.903351 0.624031
Si Si7 0.433489 0.252767 0.773758
Si Si8 0.217290 0.896442 0.799085
O O1 0.660645 0.255039 0.090861
O O2 0.585108 0.350355 0.135743
O O3 0.665384 0.345149 0.185736
O O4 0.626169 0.082442 0.166906
O O5 0.180345 0.500000 0.750000
O O6 0.185409 0.351988 0.836959
O O7 0.115993 0.330097 0.771587
O O8 0.750000 0.250000 0.064897
O O9 0.795209 0.508071 0.075868
O O10 0.816658 0.325276 0.000000
O O11 0.048481 0.838205 0.222889
O O12 0.073198 0.117329 0.183515
O O13 0.000000 0.000000 0.152562
O O14 0.969466 0.612464 0.786362
O O15 0.250000 0.750000 0.602427
O O16 0.238648 0.014192 0.653279
O O17 0.250000 0.750000 0.787023
O O18 0.211698 0.000000 0.750000
#
# Coordination Sequence:
#
# PCOD8276868 Si02
#       8
#    16  16  16  16   4  16  16  16
#     4  11  22  37  55  81 112 144 203 230 289 348
#     4  11  21  33  48  74 107 156 186 226 269 342
#     4  10  20  41  65  83 109 148 193 247 299 349
#     4  11  22  36  50  76 110 149 195 242 278 328
#     4  12  16  34  48  64 104 138 206 228 256 330
#     4  11  23  35  53  81 116 147 194 231 285 350
#     4  11  21  32  50  72 106 153 191 227 275 323
#     4  12  23  36  50  77 118 161 191 230 269 342
#
# _framework density 17.801624
#
# number of rings (size 3 to 8) (size 9 to 14) (size 15 to 20)
#    0.000    0.966    7.586    1.241    5.793    0.276 
#    0.000    0.000    0.000    0.414    0.000    0.000 
#    0.000    4.414    0.000    0.000    0.000    2.207 
#
# Total GULP energy -718542.384277 kJ/mol
# GULP energy per Si atom -12388.661798 kJ/mol
# Density = 1.776111 g / cm^3
# Si number density = 17.801624 Si / 1000 Ang^3
#
#
#
# Elastic Constant Matrix: (Units=GPa)
#
#
# Indices 1 2 3 4 5 6 
#
# 1 101.1347 40.4498 33.5748 0.0000 0.0000 0.0000
# 2 40.4498 97.0621 32.2592 0.0000 0.0000 0.0000
# 3 33.5748 32.2592 93.0392 0.0000 0.0000 0.0000
# 4 0.0000 0.0000 0.0000 16.8865 0.0000 0.0000
# 5 0.0000 0.0000 0.0000 0.0000 16.8231 0.0000
# 6 0.0000 0.0000 0.0000 0.0000 0.0000 34.0915
#
#
#
# Elastic Compliance Matrix: (Units=1/GPa)
#
#
# Indices 1 2 3 4 5 6 
#
# 1 0.012602 -0.004227 -0.003082 0.000000 0.000000 0.000000
# 2 -0.004227 0.013063 -0.003004 0.000000 0.000000 0.000000
# 3 -0.003082 -0.003004 0.012902 0.000000 0.000000 0.000000
# 4 0.000000 0.000000 0.000000 0.059219 0.000000 0.000000
# 5 0.000000 0.000000 0.000000 0.000000 0.059442 0.000000
# 6 0.000000 0.000000 0.000000 0.000000 0.000000 0.029333
#
#
# Mechanical properties :
#
#
# Convention : Reuss Voigt Hill
#
# Bulk Modulus (GPa) = 55.74002 55.97817 55.85909
# Shear Modulus (GPa) = 23.45595 25.89039 24.67317
#
# Velocity S-wave (km/s) = 3.63386 3.81778 3.72695
# Velocity P-wave (km/s) = 6.99902 7.13776 7.06873
#
# Compressibility (1/GPa) = 0.01794043
#
# Stress axis : x y z
#
# Youngs Moduli (GPa) = 79.35453 76.55392 77.50903
#
# Poissons Ratio (x) = 0.32362 0.23887
# Poissons Ratio (y) = 0.33546 0.23281
# Poissons Ratio (z) = 0.24455 0.22994
#
# Static dielectric constant tensor:
#      x y z
#    x 3.392990 0.000000 0.000000 
#    y 0.000000 3.827120 0.000000 
#    z 0.000000 0.000000 2.946310 
# 
# 
# High freq. dielectric constant tensor:
#      x y z
#    x 1.688950 0.000000 0.000000 
#    y 0.000000 1.707430 0.000000 
#    z 0.000000 0.000000 1.628920 
# 
# From -- ./inp_files/62994.got.cif
#   From: 2010.03.12/outbox.cif.g09.slc.cpg/sg66_32_cif.got.tgz:62994.got - 2010.04.10 21:57:39.
