data_PCOD8276530
_publ_section_title
;
Structure prediction by ZEFSAII (Michael W. Deem and Ramdas Pophale) SiO2 
 PCOD8276530
Probable space group: C C C M
;
_chemical_formula_sum "Si O2"
_cell_formula_units_Z 80
_cell_length_a 25.641066
_cell_length_b 9.251991
_cell_length_c 16.467468
_cell_angle_alpha 90.000000
_cell_angle_beta 90.000000
_cell_angle_gamma 90.000000
_cell_volume 3906.592450
_symmetry_space_group_name_H-M "C C C M"
_symmetry_group_IT_number 66
_symmetry_cell_setting 'orthorhombic'
loop_
_space_group_symop_operation_xyz
x,y,z
-x,-y,z
x,-y,1/2-z
-x,y,1/2-z
-x,-y,-z
x,y,-z
-x,y,1/2+z
x,-y,1/2+z
1/2+x,1/2+y,z
1/2-x,1/2-y,z
1/2+x,1/2-y,1/2-z
1/2-x,1/2+y,1/2-z
1/2-x,1/2-y,-z
1/2+x,1/2+y,-z
1/2-x,1/2+y,1/2+z
1/2+x,1/2-y,1/2+z
loop_
_atom_site_type_symbol
_atom_site_label
_atom_site_fract_x
_atom_site_fract_y
_atom_site_fract_z
Si Si1 0.140556 0.059811 0.339396
Si Si2 0.360037 0.870226 0.093937
Si Si3 0.546202 0.403002 0.593364
Si Si4 0.743501 0.914387 0.328439
Si Si5 0.449571 0.917274 0.403424
O O1 0.130222 0.231123 0.348943
O O2 0.201013 0.025327 0.361783
O O3 0.127538 0.000000 0.250000
O O4 0.102417 0.978156 0.400697
O O5 0.300625 0.927576 0.102416
O O6 0.398261 0.996272 0.124987
O O7 0.370209 0.828756 0.000000
O O8 0.500000 0.500000 0.634363
O O9 0.531378 0.381944 0.500000
O O10 0.549510 0.244224 0.634259
O O11 0.750000 0.750000 0.300043
O O12 0.724127 0.000000 0.250000
O O13 0.449991 0.909467 0.500000
O O14 0.500000 0.000000 0.369807
#
# Coordination Sequence:
#
# PCOD8276530 Si02
#       5
#    16  16  16  16  16
#     4  10  21  36  54  79 110 146 184 228 283 339
#     4  10  20  35  58  85 112 147 192 238 282 338
#     4  10  20  35  57  81 107 144 186 231 283 335
#     4   9  20  36  55  78 109 149 186 226 283 342
#     4   9  18  33  53  79 108 138 177 224 276 331
#
# _framework density 20.478204000000002
#
# number of rings (size 3 to 8) (size 9 to 14) (size 15 to 20)
#    0.000    2.400    0.000    1.800    0.000   12.800 
#    0.000    0.000    0.000    8.400    0.000    0.000 
#    0.000    0.000    0.000    0.000    0.000    0.000 
#
# Total GULP energy -495865.662434 kJ/mol
# GULP energy per Si atom -12396.641561 kJ/mol
# Density = 2.043159 g / cm^3
# Si number density = 20.478204 Si / 1000 Ang^3
#
#
#
# Elastic Constant Matrix: (Units=GPa)
#
#
# Indices 1 2 3 4 5 6 
#
# 1 146.3260 89.9654 24.1049 0.0000 0.0000 0.0000
# 2 89.9654 151.6001 30.5776 0.0000 0.0000 0.0000
# 3 24.1049 30.5776 38.8239 0.0000 0.0000 0.0000
# 4 0.0000 0.0000 0.0000 29.8673 0.0000 0.0000
# 5 0.0000 0.0000 0.0000 0.0000 4.3807 0.0000
# 6 0.0000 0.0000 0.0000 0.0000 0.0000 36.5927
#
#
#
# Elastic Compliance Matrix: (Units=1/GPa)
#
#
# Indices 1 2 3 4 5 6 
#
# 1 0.010887 -0.006060 -0.001987 0.000000 0.000000 0.000000
# 2 -0.006060 0.011215 -0.005071 0.000000 0.000000 0.000000
# 3 -0.001987 -0.005071 0.030984 0.000000 0.000000 0.000000
# 4 0.000000 0.000000 0.000000 0.033481 0.000000 0.000000
# 5 0.000000 0.000000 0.000000 0.000000 0.228277 0.000000
# 6 0.000000 0.000000 0.000000 0.000000 0.000000 0.027328
#
#
# Mechanical properties :
#
#
# Convention : Reuss Voigt Hill
#
# Bulk Modulus (GPa) = 37.24096 69.56066 53.40081
# Shear Modulus (GPa) = 13.24999 26.97493 20.11246
#
# Velocity S-wave (km/s) = 2.54644 3.63333 3.13731
# Velocity P-wave (km/s) = 5.18372 7.18633 6.26555
#
# Compressibility (1/GPa) = 0.02685215
#
# Stress axis : x y z
#
# Youngs Moduli (GPa) = 91.84965 89.16280 32.27435
#
# Poissons Ratio (x) = 0.54035 0.06412
# Poissons Ratio (y) = 0.55663 0.16365
# Poissons Ratio (z) = 0.18247 0.45211
#
# Static dielectric constant tensor:
#      x y z
#    x 3.957750 0.000000 0.000000 
#    y 0.000000 3.958140 0.000000 
#    z 0.000000 0.000000 3.234240 
# 
# 
# High freq. dielectric constant tensor:
#      x y z
#    x 1.816670 0.000000 0.000000 
#    y 0.000000 1.807390 0.000000 
#    z 0.000000 0.000000 1.755790 
# 
# From -- ./inp_files/36928.got.cif
#   From: 2010.03.12/outbox.cif.g09.slc.cpg/sg66_19_cif.got.tgz:36928.got - 2010.04.10 21:57:39.
