data_PCOD8276521
_publ_section_title
;
Structure prediction by ZEFSAII (Michael W. Deem and Ramdas Pophale) SiO2 
 PCOD8276521
Probable space group: C C C M
;
_chemical_formula_sum "Si O2"
_cell_formula_units_Z 116
_cell_length_a 22.503022
_cell_length_b 28.188328
_cell_length_c 9.181724
_cell_angle_alpha 90.000000
_cell_angle_beta 90.000000
_cell_angle_gamma 90.000000
_cell_volume 5824.174720
_symmetry_space_group_name_H-M "C C C M"
_symmetry_group_IT_number 66
_symmetry_cell_setting 'orthorhombic'
loop_
_space_group_symop_operation_xyz
x,y,z
-x,-y,z
x,-y,1/2-z
-x,y,1/2-z
-x,-y,-z
x,y,-z
-x,y,1/2+z
x,-y,1/2+z
1/2+x,1/2+y,z
1/2-x,1/2-y,z
1/2+x,1/2-y,1/2-z
1/2-x,1/2+y,1/2-z
1/2-x,1/2-y,-z
1/2+x,1/2+y,-z
1/2-x,1/2+y,1/2+z
1/2+x,1/2-y,1/2+z
loop_
_atom_site_type_symbol
_atom_site_label
_atom_site_fract_x
_atom_site_fract_y
_atom_site_fract_z
Si Si1 0.373377 0.325860 0.827992
Si Si2 0.058220 0.747458 0.828288
Si Si3 0.500000 0.500000 0.250000
Si Si4 0.399404 0.572219 0.335514
Si Si5 0.057622 0.639014 0.830377
Si Si6 0.728691 0.453850 0.327212
Si Si7 0.814656 0.387530 0.836495
Si Si8 0.236825 0.802736 0.835320
O O1 0.390023 0.279882 0.734847
O O2 0.410909 0.373612 0.779680
O O3 0.305263 0.331934 0.776932
O O4 0.378618 0.316113 0.000000
O O5 0.068732 0.693253 0.781694
O O6 0.000000 0.767683 0.750000
O O7 0.052648 0.754271 0.000000
O O8 0.455929 0.536288 0.332864
O O9 0.380367 0.579338 0.500000
O O10 0.338869 0.552720 0.262157
O O11 0.116078 0.608530 0.790070
O O12 0.000000 0.617466 0.750000
O O13 0.044028 0.636770 0.000000
O O14 0.754937 0.500000 0.250000
O O15 0.729777 0.459449 0.500000
O O16 0.772958 0.412446 0.280644
O O17 0.798520 0.331676 0.838774
O O18 0.805421 0.408587 0.000000
O O19 0.250000 0.750000 0.776876
O O20 0.209724 0.800507 0.000000
#
# Coordination Sequence:
#
# PCOD8276521 Si02
#       8
#    16  16   4  16  16  16  16  16
#     4  11  22  37  53  79 116 152 195 250 303 357
#     4  10  20  36  55  80 113 157 201 243 290 346
#     4  12  22  44  64  82 108 156 204 256 318 364
#     4  10  23  40  58  82 113 146 192 249 305 360
#     4   9  19  36  59  86 121 155 197 239 281 346
#     4  11  22  41  63  88 119 151 193 248 300 361
#     4  10  20  36  59  88 117 155 197 240 295 358
#     4  10  20  35  56  83 116 156 200 244 295 358
#
# _framework density 19.916985
#
# number of rings (size 3 to 8) (size 9 to 14) (size 15 to 20)
#    0.000    1.793    2.069    2.276    0.966    3.586 
#    0.000    3.448    0.000    0.414    0.000    2.897 
#    0.000    0.000    0.000    0.000    0.000    0.000 
#
# Total GULP energy -718630.568437 kJ/mol
# GULP energy per Si atom -12390.182214 kJ/mol
# Density = 1.987165 g / cm^3
# Si number density = 19.916985 Si / 1000 Ang^3
#
#
#
# Elastic Constant Matrix: (Units=GPa)
#
#
# Indices 1 2 3 4 5 6 
#
# 1 118.1800 36.7030 34.7329 0.0000 0.0000 0.0000
# 2 36.7030 77.9670 28.1046 0.0000 0.0000 0.0000
# 3 34.7329 28.1046 74.1224 0.0000 0.0000 0.0000
# 4 0.0000 0.0000 0.0000 26.7760 0.0000 0.0000
# 5 0.0000 0.0000 0.0000 0.0000 32.1396 0.0000
# 6 0.0000 0.0000 0.0000 0.0000 0.0000 31.8987
#
#
#
# Elastic Compliance Matrix: (Units=1/GPa)
#
#
# Indices 1 2 3 4 5 6 
#
# 1 0.010675 -0.003732 -0.003587 0.000000 0.000000 0.000000
# 2 -0.003732 0.016161 -0.004379 0.000000 0.000000 0.000000
# 3 -0.003587 -0.004379 0.016832 0.000000 0.000000 0.000000
# 4 0.000000 0.000000 0.000000 0.037347 0.000000 0.000000
# 5 0.000000 0.000000 0.000000 0.000000 0.031114 0.000000
# 6 0.000000 0.000000 0.000000 0.000000 0.000000 0.031349
#
#
# Mechanical properties :
#
#
# Convention : Reuss Voigt Hill
#
# Bulk Modulus (GPa) = 49.32840 52.15005 50.73922
# Shear Modulus (GPa) = 28.79637 29.54479 29.17058
#
# Velocity S-wave (km/s) = 3.80652 3.85567 3.83117
# Velocity P-wave (km/s) = 6.64381 6.78691 6.71574
#
# Compressibility (1/GPa) = 0.02027230
#
# Stress axis : x y z
#
# Youngs Moduli (GPa) = 93.67665 61.87592 59.40928
#
# Poissons Ratio (x) = 0.23094 0.21310
# Poissons Ratio (y) = 0.34963 0.26015
# Poissons Ratio (z) = 0.33602 0.27095
#
# Static dielectric constant tensor:
#      x y z
#    x 3.626920 0.000000 0.000000 
#    y 0.000000 3.517940 0.000000 
#    z 0.000000 0.000000 3.445640 
# 
# 
# High freq. dielectric constant tensor:
#      x y z
#    x 1.775980 0.000000 0.000000 
#    y 0.000000 1.766540 0.000000 
#    z 0.000000 0.000000 1.763030 
# 
# From -- ./inp_files/9435.got.cif
#   From: 2010.03.12/outbox.cif.g09.slc.cpg/sg66_5_cif.got.tgz:9435.got - 2010.04.10 21:57:39.
