data_PCOD8276485
_publ_section_title
;
Structure prediction by ZEFSAII (Michael W. Deem and Ramdas Pophale) SiO2 
 PCOD8276485
Probable space group: C C C M
;
_chemical_formula_sum "Si O2"
_cell_formula_units_Z 80
_cell_length_a 19.636732
_cell_length_b 25.549287
_cell_length_c 8.647792
_cell_angle_alpha 90.000000
_cell_angle_beta 90.000000
_cell_angle_gamma 90.000000
_cell_volume 4338.636175
_symmetry_space_group_name_H-M "C C C M"
_symmetry_group_IT_number 66
_symmetry_cell_setting 'orthorhombic'
loop_
_space_group_symop_operation_xyz
x,y,z
-x,-y,z
x,-y,1/2-z
-x,y,1/2-z
-x,-y,-z
x,y,-z
-x,y,1/2+z
x,-y,1/2+z
1/2+x,1/2+y,z
1/2-x,1/2-y,z
1/2+x,1/2-y,1/2-z
1/2-x,1/2+y,1/2-z
1/2-x,1/2-y,-z
1/2+x,1/2+y,-z
1/2-x,1/2+y,1/2+z
1/2+x,1/2-y,1/2+z
loop_
_atom_site_type_symbol
_atom_site_label
_atom_site_fract_x
_atom_site_fract_y
_atom_site_fract_z
Si Si1 0.572010 0.555578 0.682456
Si Si2 0.669297 0.754860 0.329365
Si Si3 0.072653 0.444277 0.317848
Si Si4 0.172010 0.639377 0.320703
Si Si5 0.680478 0.358508 0.817446
O O1 0.594683 0.500000 0.750000
O O2 0.500000 0.573980 0.750000
O O3 0.565369 0.551116 0.500000
O O4 0.628497 0.596925 0.733949
O O5 0.640259 0.768132 0.500000
O O6 0.750000 0.750000 0.337237
O O7 0.646770 0.801251 0.214711
O O8 0.644779 0.697262 0.273580
O O9 0.096150 0.500000 0.250000
O O10 0.065844 0.449800 0.500000
O O11 0.128339 0.401095 0.277660
O O12 0.000000 0.426884 0.250000
O O13 0.161250 0.627671 0.500000
O O14 0.250545 0.632137 0.276316
O O15 0.697358 0.359725 0.000000
#
# Coordination Sequence:
#
# PCOD8276485 Si02
#       5
#    16  16  16  16  16
#     4  10  20  35  54  75 102 136 173 212 260 313
#     4   8  15  31  52  73 102 139 174 213 264 312
#     4  11  22  39  59  79 106 139 175 214 260 312
#     4  11  21  33  53  82 110 138 174 215 259 309
#     4   9  19  35  54  76 104 140 178 219 266 311
#
# _framework density 18.438974999999999
#
# number of rings (size 3 to 8) (size 9 to 14) (size 15 to 20)
#    0.000    2.200    0.000    6.600    0.000    6.000 
#    0.000    3.000    0.000    2.400    0.000    0.000 
#    0.000    0.000    0.000    0.000    0.000    0.000 
#
# Total GULP energy -495937.290000 kJ/mol
# GULP energy per Si atom -12398.432250 kJ/mol
# Density = 1.839701 g / cm^3
# Si number density = 18.438975 Si / 1000 Ang^3
#
#
#
# Elastic Constant Matrix: (Units=GPa)
#
#
# Indices 1 2 3 4 5 6 
#
# 1 68.7814 68.3001 34.8482 0.0000 0.0000 0.0000
# 2 68.3001 136.7409 46.0875 0.0000 0.0000 0.0000
# 3 34.8482 46.0875 110.7071 0.0000 0.0000 0.0000
# 4 0.0000 0.0000 0.0000 27.4394 0.0000 0.0000
# 5 0.0000 0.0000 0.0000 0.0000 24.5532 0.0000
# 6 0.0000 0.0000 0.0000 0.0000 0.0000 -4.6604
#
#
#
# Elastic Compliance Matrix: (Units=1/GPa)
#
#
# Indices 1 2 3 4 5 6 
#
# 1 0.030124 -0.013785 -0.003744 0.000000 0.000000 0.000000
# 2 -0.013785 0.014814 -0.001828 0.000000 0.000000 0.000000
# 3 -0.003744 -0.001828 0.010972 0.000000 0.000000 0.000000
# 4 0.000000 0.000000 0.000000 0.036444 0.000000 0.000000
# 5 0.000000 0.000000 0.000000 0.000000 0.040728 0.000000
# 6 0.000000 0.000000 0.000000 0.000000 0.000000 -0.214575
#
#
# Mechanical properties :
#
#
# Convention : Reuss Voigt Hill
#
# Bulk Modulus (GPa) = 58.14795 68.30011 63.22403
# Shear Modulus (GPa) = -134.96238 20.59935 -57.18152
#
# Velocity S-wave (km/s) = -8.56464 3.34603 -5.57481
# Velocity P-wave (km/s) = 8.13635 7.21453 2.65996
#
# Compressibility (1/GPa) = 0.01719751
#
# Stress axis : x y z
#
# Youngs Moduli (GPa) = 33.19647 67.50161 91.13792
#
# Poissons Ratio (x) = 0.93048 0.34120
# Poissons Ratio (y) = 0.45760 0.16662
# Poissons Ratio (z) = 0.12428 0.12341
#
# Static dielectric constant tensor:
#      x y z
#    x 3.157860 0.000000 0.000000 
#    y 0.000000 3.887620 0.000000 
#    z 0.000000 0.000000 3.434940 
# 
# 
# High freq. dielectric constant tensor:
#      x y z
#    x 1.686980 0.000000 0.000000 
#    y 0.000000 1.731520 0.000000 
#    z 0.000000 0.000000 1.720440 
# 
# From -- ./inp_files/6700.got.cif
#   From: 2010.03.12/outbox.cif.g09.slc.cpg/sg66_4_cif.got.tgz:6700.got - 2010.04.10 21:57:39.
