data_PCOD8276832
_publ_section_title
;
Structure prediction by ZEFSAII (Michael W. Deem and Ramdas Pophale) SiO2 
 PCOD8276832
Probable space group: C C C M
;
_chemical_formula_sum "Si O2"
_cell_formula_units_Z 96
_cell_length_a 9.703969
_cell_length_b 27.933282
_cell_length_c 18.077694
_cell_angle_alpha 90.000000
_cell_angle_beta 90.000000
_cell_angle_gamma 90.000000
_cell_volume 4900.206670
_symmetry_space_group_name_H-M "C C C M"
_symmetry_group_IT_number 66
_symmetry_cell_setting 'orthorhombic'
loop_
_space_group_symop_operation_xyz
x,y,z
-x,-y,z
x,-y,1/2-z
-x,y,1/2-z
-x,-y,-z
x,y,-z
-x,y,1/2+z
x,-y,1/2+z
1/2+x,1/2+y,z
1/2-x,1/2-y,z
1/2+x,1/2-y,1/2-z
1/2-x,1/2+y,1/2-z
1/2-x,1/2-y,-z
1/2+x,1/2+y,-z
1/2-x,1/2+y,1/2+z
1/2+x,1/2-y,1/2+z
loop_
_atom_site_type_symbol
_atom_site_label
_atom_site_fract_x
_atom_site_fract_y
_atom_site_fract_z
Si Si1 0.592477 0.956202 0.587614
Si Si2 0.251476 0.804794 0.351863
Si Si3 0.002846 0.853204 0.414867
Si Si4 0.714160 0.303550 0.818538
Si Si5 0.594740 0.457373 0.087600
Si Si6 0.020680 0.637447 0.834067
O O1 0.597136 0.954625 0.500000
O O2 0.748892 0.960470 0.619263
O O3 0.514724 0.908904 0.614800
O O4 0.500000 0.000000 0.616612
O O5 0.250000 0.750000 0.380091
O O6 0.162585 0.839193 0.405118
O O7 0.190480 0.807899 0.269095
O O8 0.406668 0.823779 0.356508
O O9 0.957454 0.846936 0.500000
O O10 0.922962 0.816756 0.362187
O O11 0.975572 0.907505 0.388549
O O12 0.750000 0.250000 0.840925
O O13 0.832761 0.338356 0.846987
O O14 0.500000 0.500000 0.121025
O O15 0.599989 0.462406 0.000000
O O16 0.000000 0.620845 0.750000
#
# Coordination Sequence:
#
# PCOD8276832 Si02
#       6
#    16  16  16  16  16  16
#     4  10  21  37  60  85 111 149 191 233 286 348
#     4  10  22  39  59  84 116 159 197 230 280 346
#     4  11  22  36  59  89 119 149 186 243 292 330
#     4  10  20  39  63  82 111 156 200 233 278 346
#     4   9  19  36  57  83 113 147 187 228 283 349
#     4  10  21  37  59  86 115 150 192 242 286 328
#
# _framework density 19.591010000000001
#
# number of rings (size 3 to 8) (size 9 to 14) (size 15 to 20)
#    0.000    2.000    1.667    1.500    2.333    4.333 
#    0.000    1.667    0.000    2.000    0.000    0.000 
#    0.000    0.000    0.000    0.000    0.000    0.000 
#
# Total GULP energy -595325.720885 kJ/mol
# GULP energy per Si atom -12402.619185 kJ/mol
# Density = 1.954642 g / cm^3
# Si number density = 19.591010 Si / 1000 Ang^3
#
#
#
# Elastic Constant Matrix: (Units=GPa)
#
#
# Indices 1 2 3 4 5 6 
#
# 1 88.7316 41.8257 15.6480 0.0000 0.0000 0.0000
# 2 41.8257 147.9227 25.3496 0.0000 0.0000 0.0000
# 3 15.6480 25.3496 24.2033 0.0000 0.0000 0.0000
# 4 0.0000 0.0000 0.0000 36.1558 0.0000 0.0000
# 5 0.0000 0.0000 0.0000 0.0000 27.5706 0.0000
# 6 0.0000 0.0000 0.0000 0.0000 0.0000 37.3433
#
#
#
# Elastic Compliance Matrix: (Units=1/GPa)
#
#
# Indices 1 2 3 4 5 6 
#
# 1 0.013646 -0.002860 -0.005827 0.000000 0.000000 0.000000
# 2 -0.002860 0.008838 -0.007408 0.000000 0.000000 0.000000
# 3 -0.005827 -0.007408 0.052843 0.000000 0.000000 0.000000
# 4 0.000000 0.000000 0.000000 0.027658 0.000000 0.000000
# 5 0.000000 0.000000 0.000000 0.000000 0.036270 0.000000
# 6 0.000000 0.000000 0.000000 0.000000 0.000000 0.026779
#
#
# Mechanical properties :
#
#
# Convention : Reuss Voigt Hill
#
# Bulk Modulus (GPa) = 23.18187 47.38938 35.28562
# Shear Modulus (GPa) = 23.51804 32.08289 27.80047
#
# Velocity S-wave (km/s) = 3.46851 4.05116 3.77110
# Velocity P-wave (km/s) = 5.28198 6.79149 6.08374
#
# Compressibility (1/GPa) = 0.04313716
#
# Stress axis : x y z
#
# Youngs Moduli (GPa) = 73.28391 113.14229 18.92402
#
# Poissons Ratio (x) = 0.32356 0.11027
# Poissons Ratio (y) = 0.20957 0.14019
# Poissons Ratio (z) = 0.42702 0.83817
#
# Static dielectric constant tensor:
#      x y z
#    x 4.019100 0.000000 0.000000 
#    y 0.000000 3.664830 0.000000 
#    z 0.000000 0.000000 3.260340 
# 
# 
# High freq. dielectric constant tensor:
#      x y z
#    x 1.774660 0.000000 0.000000 
#    y 0.000000 1.773490 0.000000 
#    z 0.000000 0.000000 1.733060 
# 
# From -- ./inp_files/38817.got.cif
#   From: 2010.03.12/outbox.cif.g09.slc.cpg/sg66_20_cif.got.tgz:38817.got - 2010.04.10 21:57:39.
