data_PCOD8276364
_publ_section_title
;
Structure prediction by ZEFSAII (Michael W. Deem and Ramdas Pophale) SiO2 
 PCOD8276364
Probable space group: C C C M
;
_chemical_formula_sum "Si O2"
_cell_formula_units_Z 60
_cell_length_a 11.570586
_cell_length_b 25.173809
_cell_length_c 9.038684
_cell_angle_alpha 90.000000
_cell_angle_beta 90.000000
_cell_angle_gamma 90.000000
_cell_volume 2632.749208
_symmetry_space_group_name_H-M "C C C M"
_symmetry_group_IT_number 66
_symmetry_cell_setting 'orthorhombic'
loop_
_space_group_symop_operation_xyz
x,y,z
-x,-y,z
x,-y,1/2-z
-x,y,1/2-z
-x,-y,-z
x,y,-z
-x,y,1/2+z
x,-y,1/2+z
1/2+x,1/2+y,z
1/2-x,1/2-y,z
1/2+x,1/2-y,1/2-z
1/2-x,1/2+y,1/2-z
1/2-x,1/2-y,-z
1/2+x,1/2+y,-z
1/2-x,1/2+y,1/2+z
1/2+x,1/2-y,1/2+z
loop_
_atom_site_type_symbol
_atom_site_label
_atom_site_fract_x
_atom_site_fract_y
_atom_site_fract_z
Si Si1 0.352198 0.616162 0.500000
Si Si2 0.750000 0.250000 0.749626
Si Si3 0.155055 0.467166 0.000000
Si Si4 0.655530 0.552339 0.500000
Si Si5 0.093215 0.770808 0.500000
Si Si6 0.000000 0.067232 0.250000
Si Si7 0.663845 0.319662 0.000000
Si Si8 0.000000 0.500000 0.750000
O O1 0.237382 0.582425 0.500000
O O2 0.321148 0.677752 0.500000
O O3 0.425779 0.605403 0.353421
O O4 0.865827 0.259832 0.649076
O O5 0.733119 0.301720 0.853854
O O6 0.077771 0.462478 0.146529
O O7 0.220740 0.524240 0.000000
O O8 0.585550 0.531884 0.354121
O O9 0.658707 0.616463 0.500000
O O10 0.960592 0.789520 0.500000
#
# Coordination Sequence:
#
# PCOD8276364 Si02
#       8
#     8   8   8   8   8   8   8   4
#     4  11  22  37  66  99 127 166 194 256 316 388
#     4  10  24  36  64  88 120 170 216 244 310 382
#     4  11  24  43  68  92 126 167 222 243 306 366
#     4  11  22  37  66  99 127 166 194 256 316 388
#     4  11  21  41  65  92 128 166 198 262 319 373
#     4  10  20  33  54 104 131 162 175 242 324 379
#     4  11  21  41  65  92 128 166 198 262 319 373
#     4  10  24  46  64  76 118 194 206 266 284 340
#
# _framework density 22.789867000000001
#
# number of rings (size 3 to 8) (size 9 to 14) (size 15 to 20)
#    0.000    1.333    2.667    4.000    0.000    3.200 
#    0.000    0.000   58.667    0.000    0.000    0.000 
#    0.000    0.000    0.000    0.000    0.000    0.000 
#
# Total GULP energy -371849.004798 kJ/mol
# GULP energy per Si atom -12394.966827 kJ/mol
# Density = 2.273800 g / cm^3
# Si number density = 22.789867 Si / 1000 Ang^3
#
#
#
# Elastic Constant Matrix: (Units=GPa)
#
#
# Indices 1 2 3 4 5 6 
#
# 1 137.1908 55.4415 66.4211 0.0000 0.0000 0.0000
# 2 55.4415 79.6956 33.0686 0.0000 0.0000 0.0000
# 3 66.4211 33.0686 184.0440 0.0000 0.0000 0.0000
# 4 0.0000 0.0000 0.0000 17.3984 0.0000 0.0000
# 5 0.0000 0.0000 0.0000 0.0000 -7.7134 0.0000
# 6 0.0000 0.0000 0.0000 0.0000 0.0000 22.2052
#
#
#
# Elastic Compliance Matrix: (Units=1/GPa)
#
#
# Indices 1 2 3 4 5 6 
#
# 1 0.011421 -0.006737 -0.002911 0.000000 0.000000 0.000000
# 2 -0.006737 0.017533 -0.000719 0.000000 0.000000 0.000000
# 3 -0.002911 -0.000719 0.006613 0.000000 0.000000 0.000000
# 4 0.000000 0.000000 0.000000 0.057477 0.000000 0.000000
# 5 0.000000 0.000000 0.000000 0.000000 -0.129644 0.000000
# 6 0.000000 0.000000 0.000000 0.000000 0.000000 0.045035
#
#
# Mechanical properties :
#
#
# Convention : Reuss Voigt Hill
#
# Bulk Modulus (GPa) = 67.41926 78.97699 73.19812
# Shear Modulus (GPa) = 146.56606 22.77796 84.67201
#
# Velocity S-wave (km/s) = 8.02817 3.16488 6.10197
# Velocity P-wave (km/s) = 10.75094 6.93433 9.04620
#
# Compressibility (1/GPa) = 0.01483256
#
# Stress axis : x y z
#
# Youngs Moduli (GPa) = 87.55489 57.03526 151.20945
#
# Poissons Ratio (x) = 0.38427 0.44023
# Poissons Ratio (y) = 0.58990 0.10868
# Poissons Ratio (z) = 0.25491 0.04099
#
# Static dielectric constant tensor:
#      x y z
#    x 4.353280 0.000000 0.000000 
#    y 0.000000 3.751590 0.000000 
#    z 0.000000 0.000000 4.741530 
# 
# 
# High freq. dielectric constant tensor:
#      x y z
#    x 1.892270 0.000000 0.000000 
#    y 0.000000 1.871280 0.000000 
#    z 0.000000 0.000000 1.938960 
# 
# From -- ./inp_files/3819.got.cif
#   From: 2010.03.12/outbox.cif.g09.slc.cpg/sg66_2_cif.got.tgz:3819.got - 2010.04.10 21:57:39.
