data_PCOD8276536
_publ_section_title
;
Structure prediction by ZEFSAII (Michael W. Deem and Ramdas Pophale) SiO2 
 PCOD8276536
Probable space group: C C C M
;
_chemical_formula_sum "Si O2"
_cell_formula_units_Z 116
_cell_length_a 22.237579
_cell_length_b 27.460604
_cell_length_c 9.023081
_cell_angle_alpha 90.000000
_cell_angle_beta 90.000000
_cell_angle_gamma 90.000000
_cell_volume 5510.010740
_symmetry_space_group_name_H-M "C C C M"
_symmetry_group_IT_number 66
_symmetry_cell_setting 'orthorhombic'
loop_
_space_group_symop_operation_xyz
x,y,z
-x,-y,z
x,-y,1/2-z
-x,y,1/2-z
-x,-y,-z
x,y,-z
-x,y,1/2+z
x,-y,1/2+z
1/2+x,1/2+y,z
1/2-x,1/2-y,z
1/2+x,1/2-y,1/2-z
1/2-x,1/2+y,1/2-z
1/2-x,1/2-y,-z
1/2+x,1/2+y,-z
1/2-x,1/2+y,1/2+z
1/2+x,1/2-y,1/2+z
loop_
_atom_site_type_symbol
_atom_site_label
_atom_site_fract_x
_atom_site_fract_y
_atom_site_fract_z
Si Si1 0.940337 0.784214 0.176618
Si Si2 0.806120 0.547818 0.171285
Si Si3 0.728673 0.800941 0.326432
Si Si4 0.407231 0.189187 0.329521
Si Si5 0.653560 0.646304 0.675591
Si Si6 0.089264 0.583059 0.161947
Si Si7 0.830596 0.949859 0.175876
Si Si8 0.500000 0.000000 0.750000
O O1 0.939070 0.727206 0.220244
O O2 0.883791 0.810600 0.249823
O O3 0.000000 0.807542 0.250000
O O4 0.940788 0.790690 0.000000
O O5 0.830312 0.500000 0.250000
O O6 0.857108 0.585738 0.218184
O O7 0.738643 0.559900 0.221256
O O8 0.807844 0.538500 0.000000
O O9 0.728726 0.793078 0.500000
O O10 0.750000 0.750000 0.251330
O O11 0.662204 0.816030 0.274893
O O12 0.776582 0.843106 0.285186
O O13 0.410809 0.208242 0.500000
O O14 0.440766 0.136536 0.315535
O O15 0.641398 0.644422 0.500000
O O16 0.633810 0.595149 0.750776
O O17 0.042386 0.537840 0.161671
O O18 0.119935 0.582055 0.000000
O O19 0.853398 0.000000 0.250000
O O20 0.841365 0.951909 0.000000
#
# Coordination Sequence:
#
# PCOD8276536 Si02
#       8
#    16  16  16  16  16  16  16   4
#     4  12  26  44  64  90 123 164 210 258 308 370
#     4  10  20  35  57  82 116 155 199 250 306 367
#     4   9  16  31  59  92 125 158 199 247 309 386
#     4  10  21  40  63  89 119 160 208 258 320 389
#     4  11  21  38  66  96 129 170 208 253 310 373
#     4  11  24  40  59  80 111 154 206 265 327 385
#     4  10  21  37  59  93 130 164 203 249 302 367
#     4  12  26  40  56  86 114 156 218 284 334 380
#
# _framework density 21.052591
#
# number of rings (size 3 to 8) (size 9 to 14) (size 15 to 20)
#    0.000    1.517    2.069    3.517    0.966    3.862 
#    0.000    2.069    0.000    0.414    0.000    2.897 
#    0.000    0.000    0.000    0.000    0.000    0.000 
#
# Total GULP energy -718717.599354 kJ/mol
# GULP energy per Si atom -12391.682747 kJ/mol
# Density = 2.100467 g / cm^3
# Si number density = 21.052591 Si / 1000 Ang^3
#
#
#
# Elastic Constant Matrix: (Units=GPa)
#
#
# Indices 1 2 3 4 5 6 
#
# 1 57.9419 9.9151 19.6109 0.0000 0.0000 0.0000
# 2 9.9151 131.3516 39.0209 0.0000 0.0000 0.0000
# 3 19.6109 39.0209 89.4950 0.0000 0.0000 0.0000
# 4 0.0000 0.0000 0.0000 33.8759 0.0000 0.0000
# 5 0.0000 0.0000 0.0000 0.0000 21.7195 0.0000
# 6 0.0000 0.0000 0.0000 0.0000 0.0000 16.8357
#
#
#
# Elastic Compliance Matrix: (Units=1/GPa)
#
#
# Indices 1 2 3 4 5 6 
#
# 1 0.018647 -0.000223 -0.003989 0.000000 0.000000 0.000000
# 2 -0.000223 0.008749 -0.003766 0.000000 0.000000 0.000000
# 3 -0.003989 -0.003766 0.013690 0.000000 0.000000 0.000000
# 4 0.000000 0.000000 0.000000 0.029519 0.000000 0.000000
# 5 0.000000 0.000000 0.000000 0.000000 0.046042 0.000000
# 6 0.000000 0.000000 0.000000 0.000000 0.000000 0.059398
#
#
# Mechanical properties :
#
#
# Convention : Reuss Voigt Hill
#
# Bulk Modulus (GPa) = 39.79196 46.20916 43.00056
# Shear Modulus (GPa) = 24.95314 28.50233 26.72774
#
# Velocity S-wave (km/s) = 3.44652 3.68348 3.56697
# Velocity P-wave (km/s) = 5.89748 6.33149 6.11833
#
# Compressibility (1/GPa) = 0.02513070
#
# Stress axis : x y z
#
# Youngs Moduli (GPa) = 53.62835 114.30326 73.04691
#
# Poissons Ratio (x) = 0.02544 0.29139
# Poissons Ratio (y) = 0.01193 0.27508
# Poissons Ratio (z) = 0.21392 0.43044
#
# Static dielectric constant tensor:
#      x y z
#    x 3.709750 0.000000 0.000000 
#    y 0.000000 3.840130 0.000000 
#    z 0.000000 0.000000 3.657240 
# 
# 
# High freq. dielectric constant tensor:
#      x y z
#    x 1.803050 0.000000 0.000000 
#    y 0.000000 1.835070 0.000000 
#    z 0.000000 0.000000 1.810250 
# 
# From -- ./inp_files/9439.got.cif
#   From: 2010.03.12/outbox.cif.g09.slc.cpg/sg66_5_cif.got.tgz:9439.got - 2010.04.10 21:57:39.
