data_PCOD8276558
_publ_section_title
;
Structure prediction by ZEFSAII (Michael W. Deem and Ramdas Pophale) SiO2 
 PCOD8276558
Probable space group: C C C M
;
_chemical_formula_sum "Si O2"
_cell_formula_units_Z 64
_cell_length_a 8.080097
_cell_length_b 16.520209
_cell_length_c 24.446061
_cell_angle_alpha 90.000000
_cell_angle_beta 90.000000
_cell_angle_gamma 90.000000
_cell_volume 3263.179792
_symmetry_space_group_name_H-M "C C C M"
_symmetry_group_IT_number 66
_symmetry_cell_setting 'orthorhombic'
loop_
_space_group_symop_operation_xyz
x,y,z
-x,-y,z
x,-y,1/2-z
-x,y,1/2-z
-x,-y,-z
x,y,-z
-x,y,1/2+z
x,-y,1/2+z
1/2+x,1/2+y,z
1/2-x,1/2-y,z
1/2+x,1/2-y,1/2-z
1/2-x,1/2+y,1/2-z
1/2-x,1/2-y,-z
1/2+x,1/2+y,-z
1/2-x,1/2+y,1/2+z
1/2+x,1/2-y,1/2+z
loop_
_atom_site_type_symbol
_atom_site_label
_atom_site_fract_x
_atom_site_fract_y
_atom_site_fract_z
Si Si1 0.440989 0.769992 0.688364
Si Si2 0.059399 0.408204 0.387065
Si Si3 0.620326 0.325916 0.500000
Si Si4 0.932618 0.410219 0.500000
Si Si5 0.372928 0.321270 0.400027
O O1 0.500000 0.772094 0.750000
O O2 0.250000 0.750000 0.684549
O O3 0.479168 0.857158 0.661789
O O4 0.539492 0.699574 0.657093
O O5 0.260436 0.401425 0.388656
O O6 0.000000 0.500000 0.380128
O O7 0.998140 0.368132 0.444546
O O8 0.750000 0.250000 0.500000
O O9 0.733433 0.406530 0.500000
O O10 0.508863 0.332158 0.446510
O O11 0.000000 0.500000 0.500000
O O12 0.250000 0.250000 0.418222
#
# Coordination Sequence:
#
# PCOD8276558 Si02
#       5
#    16  16   8   8  16
#     4  11  22  39  60  84 113 150 192 237 286 339
#     4  10  21  39  59  82 116 153 188 235 288 341
#     4  12  20  33  60  88 114 154 199 237 277 340
#     4  10  21  37  53  80 119 152 180 227 288 336
#     4  10  20  35  58  88 116 149 191 239 287 340
#
# _framework density 19.612770000000001
#
# number of rings (size 3 to 8) (size 9 to 14) (size 15 to 20)
#    0.000    1.500    0.000    8.625    0.000    0.500 
#    0.000   16.250    0.000    1.500    0.000    0.000 
#    0.000    0.000    0.000    0.000    0.000    0.000 
#
# Total GULP energy -396630.597205 kJ/mol
# GULP energy per Si atom -12394.706163 kJ/mol
# Density = 1.956813 g / cm^3
# Si number density = 19.612770 Si / 1000 Ang^3
#
#
#
# Elastic Constant Matrix: (Units=GPa)
#
#
# Indices 1 2 3 4 5 6 
#
# 1 191.5328 81.8745 85.1160 0.0000 0.0000 0.0000
# 2 81.8745 95.9555 54.8084 0.0000 0.0000 0.0000
# 3 85.1160 54.8084 190.9886 0.0000 0.0000 0.0000
# 4 0.0000 0.0000 0.0000 -4.2579 0.0000 0.0000
# 5 0.0000 0.0000 0.0000 0.0000 58.1595 0.0000
# 6 0.0000 0.0000 0.0000 0.0000 0.0000 42.8069
#
#
#
# Elastic Compliance Matrix: (Units=1/GPa)
#
#
# Indices 1 2 3 4 5 6 
#
# 1 0.008892 -0.006367 -0.002136 0.000000 0.000000 0.000000
# 2 -0.006367 0.017024 -0.002048 0.000000 0.000000 0.000000
# 3 -0.002136 -0.002048 0.006775 0.000000 0.000000 0.000000
# 4 0.000000 0.000000 0.000000 -0.234860 0.000000 0.000000
# 5 0.000000 0.000000 0.000000 0.000000 0.017194 0.000000
# 6 0.000000 0.000000 0.000000 0.000000 0.000000 0.023361
#
#
# Mechanical properties :
#
#
# Convention : Reuss Voigt Hill
#
# Bulk Modulus (GPa) = 86.28074 102.45272 94.36673
# Shear Modulus (GPa) = -36.59003 36.45359 -0.06822
#
# Velocity S-wave (km/s) = -4.32397 4.31590 -0.18671
# Velocity P-wave (km/s) = 4.37706 8.78562 6.94067
#
# Compressibility (1/GPa) = 0.01159007
#
# Stress axis : x y z
#
# Youngs Moduli (GPa) = 112.46258 58.74042 147.59503
#
# Poissons Ratio (x) = 0.37401 0.31519
# Poissons Ratio (y) = 0.71608 0.30225
# Poissons Ratio (z) = 0.24017 0.12029
#
# Static dielectric constant tensor:
#      x y z
#    x 4.296670 0.000000 0.000000 
#    y 0.000000 3.408520 0.000000 
#    z 0.000000 0.000000 3.904920 
# 
# 
# High freq. dielectric constant tensor:
#      x y z
#    x 1.787060 0.000000 0.000000 
#    y 0.000000 1.740870 0.000000 
#    z 0.000000 0.000000 1.773480 
# 
# From -- ./inp_files/55185.got.cif
#   From: 2010.03.12/outbox.cif.g09.slc.cpg/sg66_28_cif.got.tgz:55185.got - 2010.04.10 21:57:39.
