data_PCOD8276709
_publ_section_title
;
Structure prediction by ZEFSAII (Michael W. Deem and Ramdas Pophale) SiO2 
 PCOD8276709
Probable space group: C C C M
;
_chemical_formula_sum "Si O2"
_cell_formula_units_Z 88
_cell_length_a 18.033126
_cell_length_b 20.585203
_cell_length_c 13.245679
_cell_angle_alpha 90.000000
_cell_angle_beta 90.000000
_cell_angle_gamma 90.000000
_cell_volume 4917.002140
_symmetry_space_group_name_H-M "C C C M"
_symmetry_group_IT_number 66
_symmetry_cell_setting 'orthorhombic'
loop_
_space_group_symop_operation_xyz
x,y,z
-x,-y,z
x,-y,1/2-z
-x,y,1/2-z
-x,-y,-z
x,y,-z
-x,y,1/2+z
x,-y,1/2+z
1/2+x,1/2+y,z
1/2-x,1/2-y,z
1/2+x,1/2-y,1/2-z
1/2-x,1/2+y,1/2-z
1/2-x,1/2-y,-z
1/2+x,1/2+y,-z
1/2-x,1/2+y,1/2+z
1/2+x,1/2-y,1/2+z
loop_
_atom_site_type_symbol
_atom_site_label
_atom_site_fract_x
_atom_site_fract_y
_atom_site_fract_z
Si Si1 0.619836 0.237220 0.384104
Si Si2 0.048799 0.294870 0.614273
Si Si3 0.294542 0.407136 0.619393
Si Si4 0.715867 0.000000 0.750000
Si Si5 0.664563 0.863902 0.261648
Si Si6 0.418190 0.334129 0.274257
O O1 0.642671 0.247480 0.500000
O O2 0.539352 0.203600 0.370955
O O3 0.676364 0.186930 0.330477
O O4 0.619767 0.307357 0.329107
O O5 0.071681 0.307721 0.500000
O O6 0.087097 0.350687 0.681175
O O7 0.079241 0.224838 0.646604
O O8 0.304156 0.404177 0.500000
O O9 0.267984 0.479082 0.654948
O O10 0.232854 0.355175 0.658931
O O11 0.371886 0.391801 0.675162
O O12 0.664894 0.061913 0.718721
O O13 0.500000 0.361584 0.250000
#
# Coordination Sequence:
#
# PCOD8276709 Si02
#       6
#    16  16  16   8  16  16
#     4   9  18  32  50  76 114 146 171 205 263 322
#     4   9  16  29  52  81 109 140 170 211 263 314
#     4  10  20  37  58  77 100 136 176 217 262 309
#     4   8  22  36  50  72 106 136 172 230 262 298
#     4   9  18  34  51  76 103 140 176 223 258 302
#     4   9  18  33  54  81 110 131 164 213 265 322
#
# _framework density 17.897082999999999
#
# number of rings (size 3 to 8) (size 9 to 14) (size 15 to 20)
#    1.091    1.818    0.000    2.727    0.000    4.364 
#    0.000    9.545    0.000    3.273    0.000    0.000 
#    0.000    0.000    0.000    0.000    0.000    0.000 
#
# Total GULP energy -545167.305044 kJ/mol
# GULP energy per Si atom -12390.166024 kJ/mol
# Density = 1.785635 g / cm^3
# Si number density = 17.897083 Si / 1000 Ang^3
#
#
#
# Elastic Constant Matrix: (Units=GPa)
#
#
# Indices 1 2 3 4 5 6 
#
# 1 53.4895 17.6773 30.1586 0.0000 0.0000 0.0000
# 2 17.6773 46.0853 28.1933 0.0000 0.0000 0.0000
# 3 30.1586 28.1933 141.4277 0.0000 0.0000 0.0000
# 4 0.0000 0.0000 0.0000 22.8908 0.0000 0.0000
# 5 0.0000 0.0000 0.0000 0.0000 27.7809 0.0000
# 6 0.0000 0.0000 0.0000 0.0000 0.0000 30.6758
#
#
#
# Elastic Compliance Matrix: (Units=1/GPa)
#
#
# Indices 1 2 3 4 5 6 
#
# 1 0.022886 -0.006597 -0.003565 0.000000 0.000000 0.000000
# 2 -0.006597 0.026615 -0.003899 0.000000 0.000000 0.000000
# 3 -0.003565 -0.003899 0.008608 0.000000 0.000000 0.000000
# 4 0.000000 0.000000 0.000000 0.043686 0.000000 0.000000
# 5 0.000000 0.000000 0.000000 0.000000 0.035996 0.000000
# 6 0.000000 0.000000 0.000000 0.000000 0.000000 0.032599
#
#
# Mechanical properties :
#
#
# Convention : Reuss Voigt Hill
#
# Bulk Modulus (GPa) = 33.34888 43.67344 38.51116
# Shear Modulus (GPa) = 23.98005 27.26773 25.62389
#
# Velocity S-wave (km/s) = 3.66442 3.90755 3.78793
# Velocity P-wave (km/s) = 6.04798 6.69433 6.37935
#
# Compressibility (1/GPa) = 0.02998602
#
# Stress axis : x y z
#
# Youngs Moduli (GPa) = 43.69554 37.57341 116.16878
#
# Poissons Ratio (x) = 0.24789 0.41415
# Poissons Ratio (y) = 0.28828 0.45290
# Poissons Ratio (z) = 0.15578 0.14649
#
# Static dielectric constant tensor:
#      x y z
#    x 3.231080 0.000000 0.000000 
#    y 0.000000 2.955200 0.000000 
#    z 0.000000 0.000000 3.430060 
# 
# 
# High freq. dielectric constant tensor:
#      x y z
#    x 1.686280 0.000000 0.000000 
#    y 0.000000 1.653620 0.000000 
#    z 0.000000 0.000000 1.697950 
# 
# From -- ./inp_files/30143.got.cif
#   From: 2010.03.12/outbox.cif.g09.slc.cpg/sg66_16_cif.got.tgz:30143.got - 2010.04.10 21:57:39.
