data_PCOD8276752
_publ_section_title
;
Structure prediction by ZEFSAII (Michael W. Deem and Ramdas Pophale) SiO2 
 PCOD8276752
Probable space group: C C C M
;
_chemical_formula_sum "Si O2"
_cell_formula_units_Z 80
_cell_length_a 14.477468
_cell_length_b 19.902074
_cell_length_c 13.919227
_cell_angle_alpha 90.000000
_cell_angle_beta 90.000000
_cell_angle_gamma 90.000000
_cell_volume 4010.569696
_symmetry_space_group_name_H-M "C C C M"
_symmetry_group_IT_number 66
_symmetry_cell_setting 'orthorhombic'
loop_
_space_group_symop_operation_xyz
x,y,z
-x,-y,z
x,-y,1/2-z
-x,y,1/2-z
-x,-y,-z
x,y,-z
-x,y,1/2+z
x,-y,1/2+z
1/2+x,1/2+y,z
1/2-x,1/2-y,z
1/2+x,1/2-y,1/2-z
1/2-x,1/2+y,1/2-z
1/2-x,1/2-y,-z
1/2+x,1/2+y,-z
1/2-x,1/2+y,1/2+z
1/2+x,1/2-y,1/2+z
loop_
_atom_site_type_symbol
_atom_site_label
_atom_site_fract_x
_atom_site_fract_y
_atom_site_fract_z
Si Si1 0.130860 0.420347 0.252531
Si Si2 0.163368 0.099272 0.725673
Si Si3 0.144942 0.771728 0.110704
Si Si4 0.516132 0.854031 0.610628
Si Si5 0.896257 0.978049 0.894620
O O1 0.118974 0.500000 0.250000
O O2 0.232846 0.393187 0.236133
O O3 0.098962 0.404365 0.361478
O O4 0.070674 0.375727 0.176943
O O5 0.121525 0.164949 0.677118
O O6 0.103742 0.084713 0.821486
O O7 0.164298 0.037984 0.649948
O O8 0.250000 0.750000 0.136095
O O9 0.062369 0.718952 0.131420
O O10 0.141763 0.793961 0.000000
O O11 0.487248 0.861919 0.500000
O O12 0.856219 0.958750 0.000000
O O13 0.000000 0.000000 0.906057
#
# Coordination Sequence:
#
# PCOD8276752 Si02
#       5
#    16  16  16  16  16
#     4  11  22  38  58  93 129 160 207 253 315 380
#     4  11  20  38  64  92 122 162 204 259 315 367
#     4  10  20  37  62  88 116 158 212 259 301 361
#     4  10  22  39  58  85 125 167 207 254 301 365
#     4  10  22  41  62  91 123 155 206 258 313 376
#
# _framework density 19.947291
#
# number of rings (size 3 to 8) (size 9 to 14) (size 15 to 20)
#    0.000    1.600    4.000    3.000    0.000    3.200 
#    7.200    0.000    0.000    0.600    0.000    0.000 
#    0.000    0.000    0.000    0.000    0.000    0.000 
#
# Total GULP energy -495531.396369 kJ/mol
# GULP energy per Si atom -12388.284909 kJ/mol
# Density = 1.990189 g / cm^3
# Si number density = 19.947291 Si / 1000 Ang^3
#
#
#
# Elastic Constant Matrix: (Units=GPa)
#
#
# Indices 1 2 3 4 5 6 
#
# 1 76.3636 33.5787 40.4746 0.0000 0.0000 0.0000
# 2 33.5787 127.7265 70.8425 0.0000 0.0000 0.0000
# 3 40.4746 70.8425 139.9410 0.0000 0.0000 0.0000
# 4 0.0000 0.0000 0.0000 6.1132 0.0000 0.0000
# 5 0.0000 0.0000 0.0000 0.0000 24.6630 0.0000
# 6 0.0000 0.0000 0.0000 0.0000 0.0000 13.7805
#
#
#
# Elastic Compliance Matrix: (Units=1/GPa)
#
#
# Indices 1 2 3 4 5 6 
#
# 1 0.015926 -0.002269 -0.003457 0.000000 0.000000 0.000000
# 2 -0.002269 0.011209 -0.005018 0.000000 0.000000 0.000000
# 3 -0.003457 -0.005018 0.010686 0.000000 0.000000 0.000000
# 4 0.000000 0.000000 0.000000 0.163580 0.000000 0.000000
# 5 0.000000 0.000000 0.000000 0.000000 0.040547 0.000000
# 6 0.000000 0.000000 0.000000 0.000000 0.000000 0.072566
#
#
# Mechanical properties :
#
#
# Convention : Reuss Voigt Hill
#
# Bulk Modulus (GPa) = 61.23125 70.42474 65.82800
# Shear Modulus (GPa) = 14.64359 22.18703 18.41531
#
# Velocity S-wave (km/s) = 2.71239 3.33871 3.04171
# Velocity P-wave (km/s) = 6.36966 7.08835 6.73859
#
# Compressibility (1/GPa) = 0.01633153
#
# Stress axis : x y z
#
# Youngs Moduli (GPa) = 62.79226 89.21404 93.57936
#
# Poissons Ratio (x) = 0.20244 0.32354
# Poissons Ratio (y) = 0.14249 0.46959
# Poissons Ratio (z) = 0.21710 0.44768
#
# Static dielectric constant tensor:
#      x y z
#    x 3.674320 0.000000 0.000000 
#    y 0.000000 3.620090 0.000000 
#    z 0.000000 0.000000 4.087360 
# 
# 
# High freq. dielectric constant tensor:
#      x y z
#    x 1.779880 0.000000 0.000000 
#    y 0.000000 1.769530 0.000000 
#    z 0.000000 0.000000 1.781930 
# 
# From -- ./inp_files/28118.got.cif
#   From: 2010.03.12/outbox.cif.g09.slc.cpg/sg66_15_cif.got.tgz:28118.got - 2010.04.10 21:57:39.
