data_PCOD8276098
_publ_section_title
;
Structure prediction by ZEFSAII (Michael W. Deem and Ramdas Pophale) SiO2 
 PCOD8276098
Probable space group: C C C M
;
_chemical_formula_sum "Si O2"
_cell_formula_units_Z 96
_cell_length_a 29.516390
_cell_length_b 18.770001
_cell_length_c 8.430231
_cell_angle_alpha 90.000000
_cell_angle_beta 90.000000
_cell_angle_gamma 90.000000
_cell_volume 4670.539086
_symmetry_space_group_name_H-M "C C C M"
_symmetry_group_IT_number 66
_symmetry_cell_setting 'orthorhombic'
loop_
_space_group_symop_operation_xyz
x,y,z
-x,-y,z
x,-y,1/2-z
-x,y,1/2-z
-x,-y,-z
x,y,-z
-x,y,1/2+z
x,-y,1/2+z
1/2+x,1/2+y,z
1/2-x,1/2-y,z
1/2+x,1/2-y,1/2-z
1/2-x,1/2+y,1/2-z
1/2-x,1/2-y,-z
1/2+x,1/2+y,-z
1/2-x,1/2+y,1/2+z
1/2+x,1/2-y,1/2+z
loop_
_atom_site_type_symbol
_atom_site_label
_atom_site_fract_x
_atom_site_fract_y
_atom_site_fract_z
Si Si1 0.954936 0.285336 0.682003
Si Si2 0.951154 0.922797 0.814616
Si Si3 0.116414 0.192245 0.681930
Si Si4 0.200267 0.728559 0.686289
Si Si5 0.333749 0.926693 0.688605
Si Si6 0.066386 0.426734 0.314692
O O1 0.947586 0.263156 0.500000
O O2 0.912468 0.263351 0.788964
O O3 0.959236 0.369425 0.705572
O O4 0.000000 0.247324 0.750000
O O5 0.909315 0.870609 0.775384
O O6 0.000000 0.896161 0.750000
O O7 0.938137 0.000000 0.750000
O O8 0.956596 0.927828 0.000000
O O9 0.118133 0.169939 0.500000
O O10 0.166670 0.212600 0.738595
O O11 0.194482 0.736893 0.500000
O O12 0.250000 0.750000 0.745295
O O13 0.192943 0.645694 0.735140
O O14 0.342071 0.930547 0.500000
O O15 0.380264 0.923223 0.783670
O O16 0.308683 0.000000 0.750000
O O17 0.045953 0.500000 0.250000
O O18 0.056182 0.415033 0.500000
#
# Coordination Sequence:
#
# PCOD8276098 Si02
#       6
#    16  16  16  16  16  16
#     4  12  24  39  57  83 117 156 200 247 297 352
#     4  11  22  40  65  95 130 167 209 255 308 376
#     4  12  24  40  62  90 122 160 203 252 307 365
#     4  10  22  41  64  90 121 161 206 258 317 373
#     4  10  19  34  59  86 116 154 199 246 298 359
#     4  11  21  35  55  81 113 153 196 242 289 344
#
# _framework density 20.554372000000001
#
# number of rings (size 3 to 8) (size 9 to 14) (size 15 to 20)
#    0.000    1.000    1.667    8.500    0.000    1.333 
#    0.000    2.500    0.000    2.000    0.000    0.000 
#    0.000    0.000    0.000    0.000    0.000    0.000 
#
# Total GULP energy -595010.082931 kJ/mol
# GULP energy per Si atom -12396.043394 kJ/mol
# Density = 2.050759 g / cm^3
# Si number density = 20.554372 Si / 1000 Ang^3
#
#
#
# Elastic Constant Matrix: (Units=GPa)
#
#
# Indices 1 2 3 4 5 6 
#
# 1 118.3300 44.2980 35.0156 0.0000 0.0000 0.0000
# 2 44.2980 126.9457 30.9303 0.0000 0.0000 0.0000
# 3 35.0156 30.9303 118.4132 0.0000 0.0000 0.0000
# 4 0.0000 0.0000 0.0000 32.2660 0.0000 0.0000
# 5 0.0000 0.0000 0.0000 0.0000 27.5300 0.0000
# 6 0.0000 0.0000 0.0000 0.0000 0.0000 -177.6388
#
#
#
# Elastic Compliance Matrix: (Units=1/GPa)
#
#
# Indices 1 2 3 4 5 6 
#
# 1 0.010248 -0.003031 -0.002239 0.000000 0.000000 0.000000
# 2 -0.003031 0.009309 -0.001535 0.000000 0.000000 0.000000
# 3 -0.002239 -0.001535 0.009508 0.000000 0.000000 0.000000
# 4 0.000000 0.000000 0.000000 0.030992 0.000000 0.000000
# 5 0.000000 0.000000 0.000000 0.000000 0.036324 0.000000
# 6 0.000000 0.000000 0.000000 0.000000 0.000000 -0.005629
#
#
# Mechanical properties :
#
#
# Convention : Reuss Voigt Hill
#
# Bulk Modulus (GPa) = 64.70179 64.90850 64.80515
# Shear Modulus (GPa) = 45.65649 -6.67223 19.49213
#
# Velocity S-wave (km/s) = 4.71813 -1.80366 3.08282
# Velocity P-wave (km/s) = 7.82481 5.22589 6.65348
#
# Compressibility (1/GPa) = 0.01545552
#
# Stress axis : x y z
#
# Youngs Moduli (GPa) = 97.58042 107.42285 105.17363
#
# Poissons Ratio (x) = 0.32555 0.23546
# Poissons Ratio (y) = 0.29572 0.16148
# Poissons Ratio (z) = 0.21846 0.16494
#
# Static dielectric constant tensor:
#      x y z
#    x 3.630800 0.000000 0.000000 
#    y 0.000000 4.099670 0.000000 
#    z 0.000000 0.000000 3.737100 
# 
# 
# High freq. dielectric constant tensor:
#      x y z
#    x 1.781770 0.000000 0.000000 
#    y 0.000000 1.817480 0.000000 
#    z 0.000000 0.000000 1.811870 
# 
# From -- ./inp_files/10247.got.cif
#   From: 2010.03.12/outbox.cif.g09.slc.cpg/sg66_6_cif.got.tgz:10247.got - 2010.04.10 21:57:39.
