data_PCOD8276628
_publ_section_title
;
Structure prediction by ZEFSAII (Michael W. Deem and Ramdas Pophale) SiO2 
 PCOD8276628
Probable space group: C C C M
;
_chemical_formula_sum "Si O2"
_cell_formula_units_Z 64
_cell_length_a 13.170265
_cell_length_b 12.740627
_cell_length_c 18.300023
_cell_angle_alpha 90.000000
_cell_angle_beta 90.000000
_cell_angle_gamma 90.000000
_cell_volume 3070.696899
_symmetry_space_group_name_H-M "C C C M"
_symmetry_group_IT_number 66
_symmetry_cell_setting 'orthorhombic'
loop_
_space_group_symop_operation_xyz
x,y,z
-x,-y,z
x,-y,1/2-z
-x,y,1/2-z
-x,-y,-z
x,y,-z
-x,y,1/2+z
x,-y,1/2+z
1/2+x,1/2+y,z
1/2-x,1/2-y,z
1/2+x,1/2-y,1/2-z
1/2-x,1/2+y,1/2-z
1/2-x,1/2-y,-z
1/2+x,1/2+y,-z
1/2-x,1/2+y,1/2+z
1/2+x,1/2-y,1/2+z
loop_
_atom_site_type_symbol
_atom_site_label
_atom_site_fract_x
_atom_site_fract_y
_atom_site_fract_z
Si Si1 0.648888 0.310739 0.413584
Si Si2 0.597817 0.947845 0.671556
Si Si3 0.680923 0.478275 0.163739
Si Si4 0.041157 0.785142 0.172455
O O1 0.649382 0.317354 0.500000
O O2 0.750000 0.250000 0.385364
O O3 0.633288 0.425163 0.379153
O O4 0.547967 0.253617 0.384623
O O5 0.704284 0.971049 0.631729
O O6 0.598724 0.823538 0.683696
O O7 0.500000 0.000000 0.629381
O O8 0.600110 0.000000 0.750000
O O9 0.679386 0.500000 0.250000
O O10 0.618003 0.373905 0.142731
O O11 0.000000 0.826659 0.250000
#
# Coordination Sequence:
#
# PCOD8276628 Si02
#       4
#    16  16  16  16
#     4  11  26  45  65  93 136 183 222 268 343 422
#     4  10  20  36  58  94 129 170 215 276 334 393
#     4  11  23  36  64  97 129 168 220 279 332 397
#     4  12  22  37  63  98 131 169 221 280 335 395
#
# _framework density 20.842174
#
# number of rings (size 3 to 8) (size 9 to 14) (size 15 to 20)
#    0.000    1.000    5.000    3.000    3.500    2.000 
#    0.000    1.250    0.000    7.500    0.000    0.000 
#    0.000    0.000    0.000    0.000    0.000    0.000 
#
# Total GULP energy -396662.650377 kJ/mol
# GULP energy per Si atom -12395.707824 kJ/mol
# Density = 2.079474 g / cm^3
# Si number density = 20.842174 Si / 1000 Ang^3
#
#
#
# Elastic Constant Matrix: (Units=GPa)
#
#
# Indices 1 2 3 4 5 6 
#
# 1 114.9712 18.2778 19.1120 0.0000 0.0000 0.0000
# 2 18.2778 129.0232 14.7266 0.0000 0.0000 0.0000
# 3 19.1120 14.7266 61.3552 0.0000 0.0000 0.0000
# 4 0.0000 0.0000 0.0000 14.5554 0.0000 0.0000
# 5 0.0000 0.0000 0.0000 0.0000 15.6000 0.0000
# 6 0.0000 0.0000 0.0000 0.0000 0.0000 32.7775
#
#
#
# Elastic Compliance Matrix: (Units=1/GPa)
#
#
# Indices 1 2 3 4 5 6 
#
# 1 0.009300 -0.001015 -0.002653 0.000000 0.000000 0.000000
# 2 -0.001015 0.008080 -0.001623 0.000000 0.000000 0.000000
# 3 -0.002653 -0.001623 0.017515 0.000000 0.000000 0.000000
# 4 0.000000 0.000000 0.000000 0.068703 0.000000 0.000000
# 5 0.000000 0.000000 0.000000 0.000000 0.064102 0.000000
# 6 0.000000 0.000000 0.000000 0.000000 0.000000 0.030509
#
#
# Mechanical properties :
#
#
# Convention : Reuss Voigt Hill
#
# Bulk Modulus (GPa) = 41.13220 45.50914 43.32067
# Shear Modulus (GPa) = 23.05261 29.46880 26.26071
#
# Velocity S-wave (km/s) = 3.32935 3.76427 3.55347
# Velocity P-wave (km/s) = 5.87855 6.38557 6.13730
#
# Compressibility (1/GPa) = 0.02431185
#
# Stress axis : x y z
#
# Youngs Moduli (GPa) = 107.52425 123.76920 57.09493
#
# Poissons Ratio (x) = 0.12558 0.15150
# Poissons Ratio (y) = 0.10910 0.09268
# Poissons Ratio (z) = 0.28531 0.20090
#
# Static dielectric constant tensor:
#      x y z
#    x 4.907530 0.000000 0.000000 
#    y 0.000000 3.781690 0.000000 
#    z 0.000000 0.000000 3.276390 
# 
# 
# High freq. dielectric constant tensor:
#      x y z
#    x 1.840990 0.000000 0.000000 
#    y 0.000000 1.832580 0.000000 
#    z 0.000000 0.000000 1.757650 
# 
# From -- ./inp_files/37997.got.cif
#   From: 2010.03.12/outbox.cif.g09.slc.cpg/sg66_19_cif.got.tgz:37997.got - 2010.04.10 21:57:39.
