data_PCOD8276626
_publ_section_title
;
Structure prediction by ZEFSAII (Michael W. Deem and Ramdas Pophale) SiO2 
 PCOD8276626
Probable space group: C C C M
;
_chemical_formula_sum "Si O2"
_cell_formula_units_Z 72
_cell_length_a 19.714735
_cell_length_b 10.764035
_cell_length_c 16.929714
_cell_angle_alpha 90.000000
_cell_angle_beta 90.000000
_cell_angle_gamma 90.000000
_cell_volume 3592.656260
_symmetry_space_group_name_H-M "C C C M"
_symmetry_group_IT_number 66
_symmetry_cell_setting 'orthorhombic'
loop_
_space_group_symop_operation_xyz
x,y,z
-x,-y,z
x,-y,1/2-z
-x,y,1/2-z
-x,-y,-z
x,y,-z
-x,y,1/2+z
x,-y,1/2+z
1/2+x,1/2+y,z
1/2-x,1/2-y,z
1/2+x,1/2-y,1/2-z
1/2-x,1/2+y,1/2-z
1/2-x,1/2-y,-z
1/2+x,1/2+y,-z
1/2-x,1/2+y,1/2+z
1/2+x,1/2-y,1/2+z
loop_
_atom_site_type_symbol
_atom_site_label
_atom_site_fract_x
_atom_site_fract_y
_atom_site_fract_z
Si Si1 0.750000 0.750000 0.162369
Si Si2 0.393686 0.712807 0.089887
Si Si3 0.530017 0.672258 0.172808
Si Si4 0.653191 0.555056 0.089251
Si Si5 0.875424 0.645026 0.254039
O O1 0.720340 0.633859 0.111602
O O2 0.806451 0.691321 0.216621
O O3 0.473210 0.682334 0.104861
O O4 0.342331 0.594523 0.099460
O O5 0.373224 0.815657 0.153860
O O6 0.387277 0.764149 0.000000
O O7 0.500000 0.604027 0.250000
O O8 0.590507 0.588732 0.143343
O O9 0.560549 0.803288 0.204446
O O10 0.635323 0.589839 0.000000
O O11 0.881189 0.500000 0.250000
#
# Coordination Sequence:
#
# PCOD8276626 Si02
#       5
#     8  16  16  16  16
#     4  10  23  38  63  82 116 162 208 252 297 364
#     4  10  21  37  60  90 120 153 197 250 309 361
#     4   9  19  34  57  89 121 159 200 247 303 363
#     4  10  20  36  58  90 124 157 200 254 306 355
#     4  10  23  40  59  85 118 161 208 250 299 360
#
# _framework density 20.040880999999999
#
# number of rings (size 3 to 8) (size 9 to 14) (size 15 to 20)
#    0.000    2.222    0.000    1.667    3.111   15.556 
#    0.000    8.333    0.000    0.000    0.000    0.000 
#    0.000    0.000    0.000    0.000    0.000    0.000 
#
# Total GULP energy -446056.687831 kJ/mol
# GULP energy per Si atom -12390.463551 kJ/mol
# Density = 1.999527 g / cm^3
# Si number density = 20.040881 Si / 1000 Ang^3
#
#
#
# Elastic Constant Matrix: (Units=GPa)
#
#
# Indices 1 2 3 4 5 6 
#
# 1 90.2671 37.9060 38.0402 0.0000 0.0000 0.0000
# 2 37.9060 133.9526 62.6476 0.0000 0.0000 0.0000
# 3 38.0402 62.6476 137.3948 0.0000 0.0000 0.0000
# 4 0.0000 0.0000 0.0000 29.5159 0.0000 0.0000
# 5 0.0000 0.0000 0.0000 0.0000 25.5565 0.0000
# 6 0.0000 0.0000 0.0000 0.0000 0.0000 15.1944
#
#
#
# Elastic Compliance Matrix: (Units=1/GPa)
#
#
# Indices 1 2 3 4 5 6 
#
# 1 0.013206 -0.002576 -0.002482 0.000000 0.000000 0.000000
# 2 -0.002576 0.009991 -0.003842 0.000000 0.000000 0.000000
# 3 -0.002482 -0.003842 0.009717 0.000000 0.000000 0.000000
# 4 0.000000 0.000000 0.000000 0.033880 0.000000 0.000000
# 5 0.000000 0.000000 0.000000 0.000000 0.039129 0.000000
# 6 0.000000 0.000000 0.000000 0.000000 0.000000 0.065814
#
#
# Mechanical properties :
#
#
# Convention : Reuss Voigt Hill
#
# Bulk Modulus (GPa) = 66.16411 70.97801 68.57106
# Shear Modulus (GPa) = 25.69686 28.92141 27.30914
#
# Velocity S-wave (km/s) = 3.58470 3.80296 3.69544
# Velocity P-wave (km/s) = 7.08658 7.40114 7.24557
#
# Compressibility (1/GPa) = 0.01511393
#
# Stress axis : x y z
#
# Youngs Moduli (GPa) = 75.72356 100.08538 102.90834
#
# Poissons Ratio (x) = 0.25787 0.25537
# Poissons Ratio (y) = 0.19510 0.39542
# Poissons Ratio (z) = 0.18791 0.38457
#
# Static dielectric constant tensor:
#      x y z
#    x 3.889980 0.000000 0.000000 
#    y 0.000000 3.688230 0.000000 
#    z 0.000000 0.000000 3.813700 
# 
# 
# High freq. dielectric constant tensor:
#      x y z
#    x 1.783510 0.000000 0.000000 
#    y 0.000000 1.772630 0.000000 
#    z 0.000000 0.000000 1.791620 
# 
# From -- ./inp_files/30882.got.cif
#   From: 2010.03.12/outbox.cif.g09.slc.cpg/sg66_16_cif.got.tgz:30882.got - 2010.04.10 21:57:39.
