data_PCOD8276684
_publ_section_title
;
Structure prediction by ZEFSAII (Michael W. Deem and Ramdas Pophale) SiO2 
 PCOD8276684
Probable space group: C C C M
;
_chemical_formula_sum "Si O2"
_cell_formula_units_Z 88
_cell_length_a 12.541244
_cell_length_b 19.697095
_cell_length_c 17.513185
_cell_angle_alpha 90.000000
_cell_angle_beta 90.000000
_cell_angle_gamma 90.000000
_cell_volume 4326.213342
_symmetry_space_group_name_H-M "C C C M"
_symmetry_group_IT_number 66
_symmetry_cell_setting 'orthorhombic'
loop_
_space_group_symop_operation_xyz
x,y,z
-x,-y,z
x,-y,1/2-z
-x,y,1/2-z
-x,-y,-z
x,y,-z
-x,y,1/2+z
x,-y,1/2+z
1/2+x,1/2+y,z
1/2-x,1/2-y,z
1/2+x,1/2-y,1/2-z
1/2-x,1/2+y,1/2-z
1/2-x,1/2-y,-z
1/2+x,1/2+y,-z
1/2-x,1/2+y,1/2+z
1/2+x,1/2-y,1/2+z
loop_
_atom_site_type_symbol
_atom_site_label
_atom_site_fract_x
_atom_site_fract_y
_atom_site_fract_z
Si Si1 0.619736 0.024713 0.913161
Si Si2 0.429507 0.150790 0.671582
Si Si3 0.898280 0.289712 0.415428
Si Si4 0.271315 0.597809 0.586312
Si Si5 0.900363 0.832320 0.802764
Si Si6 0.750000 0.250000 0.208440
O O1 0.637311 0.082817 0.848662
O O2 0.500000 0.000000 0.909236
O O3 0.695391 0.962798 0.887421
O O4 0.648499 0.047976 0.000000
O O5 0.500000 0.147828 0.750000
O O6 0.510344 0.154510 0.599679
O O7 0.349921 0.215722 0.665063
O O8 0.908440 0.258651 0.500000
O O9 0.784848 0.327611 0.407143
O O10 0.925638 0.233547 0.353010
O O11 0.310814 0.586139 0.500000
O O12 0.372685 0.603137 0.643097
O O13 0.795132 0.814300 0.754776
O O14 0.000000 0.851847 0.750000
#
# Coordination Sequence:
#
# PCOD8276684 Si02
#       6
#    16  16  16  16  16   8
#     4  10  21  39  62  92 127 156 196 254 315 379
#     4  12  22  39  59  90 128 162 197 251 317 373
#     4  11  19  34  59  89 121 160 204 249 307 368
#     4  10  20  36  62  92 124 162 205 251 307 373
#     4  12  21  37  58  86 125 165 207 259 303 360
#     4  12  22  38  56  84 128 162 202 252 308 362
#
# _framework density 20.341114000000001
#
# number of rings (size 3 to 8) (size 9 to 14) (size 15 to 20)
#    0.000    0.909    7.273    1.091    0.000    1.818 
#    0.000    1.818    0.000    3.273    0.000    2.545 
#    0.000    0.000    0.000    0.000    0.000    0.000 
#
# Total GULP energy -545233.694889 kJ/mol
# GULP energy per Si atom -12391.674884 kJ/mol
# Density = 2.029482 g / cm^3
# Si number density = 20.341114 Si / 1000 Ang^3
#
#
#
# Elastic Constant Matrix: (Units=GPa)
#
#
# Indices 1 2 3 4 5 6 
#
# 1 89.2880 29.0737 55.0300 0.0000 0.0000 0.0000
# 2 29.0737 85.2728 41.9124 0.0000 0.0000 0.0000
# 3 55.0300 41.9124 96.0775 0.0000 0.0000 0.0000
# 4 0.0000 0.0000 0.0000 8.6430 0.0000 0.0000
# 5 0.0000 0.0000 0.0000 0.0000 36.0533 0.0000
# 6 0.0000 0.0000 0.0000 0.0000 0.0000 35.1298
#
#
#
# Elastic Compliance Matrix: (Units=1/GPa)
#
#
# Indices 1 2 3 4 5 6 
#
# 1 0.017426 -0.001318 -0.009406 0.000000 0.000000 0.000000
# 2 -0.001318 0.015028 -0.005800 0.000000 0.000000 0.000000
# 3 -0.009406 -0.005800 0.018326 0.000000 0.000000 0.000000
# 4 0.000000 0.000000 0.000000 0.115701 0.000000 0.000000
# 5 0.000000 0.000000 0.000000 0.000000 0.027737 0.000000
# 6 0.000000 0.000000 0.000000 0.000000 0.000000 0.028466
#
#
# Mechanical properties :
#
#
# Convention : Reuss Voigt Hill
#
# Bulk Modulus (GPa) = 56.40099 58.07450 57.23775
# Shear Modulus (GPa) = 19.11002 25.60668 22.35835
#
# Velocity S-wave (km/s) = 3.06841 3.55190 3.31897
# Velocity P-wave (km/s) = 6.35148 6.74044 6.54885
#
# Compressibility (1/GPa) = 0.01773018
#
# Stress axis : x y z
#
# Youngs Moduli (GPa) = 57.38527 66.54461 54.56708
#
# Poissons Ratio (x) = 0.08772 0.51326
# Poissons Ratio (y) = 0.07565 0.31651
# Poissons Ratio (z) = 0.53977 0.38599
#
# Static dielectric constant tensor:
#      x y z
#    x 3.595470 0.000000 0.000000 
#    y 0.000000 3.552510 0.000000 
#    z 0.000000 0.000000 3.783540 
# 
# 
# High freq. dielectric constant tensor:
#      x y z
#    x 1.778100 0.000000 0.000000 
#    y 0.000000 1.776570 0.000000 
#    z 0.000000 0.000000 1.793920 
# 
# From -- ./inp_files/38638.got.cif
#   From: 2010.03.12/outbox.cif.g09.slc.cpg/sg66_20_cif.got.tgz:38638.got - 2010.04.10 21:57:39.
