data_PCOD8276531
_publ_section_title
;
Structure prediction by ZEFSAII (Michael W. Deem and Ramdas Pophale) SiO2 
 PCOD8276531
Probable space group: C C C M
;
_chemical_formula_sum "Si O2"
_cell_formula_units_Z 104
_cell_length_a 27.744961
_cell_length_b 19.940321
_cell_length_c 9.740010
_cell_angle_alpha 90.000000
_cell_angle_beta 90.000000
_cell_angle_gamma 90.000000
_cell_volume 5388.596526
_symmetry_space_group_name_H-M "C C C M"
_symmetry_group_IT_number 66
_symmetry_cell_setting 'orthorhombic'
loop_
_space_group_symop_operation_xyz
x,y,z
-x,-y,z
x,-y,1/2-z
-x,y,1/2-z
-x,-y,-z
x,y,-z
-x,y,1/2+z
x,-y,1/2+z
1/2+x,1/2+y,z
1/2-x,1/2-y,z
1/2+x,1/2-y,1/2-z
1/2-x,1/2+y,1/2-z
1/2-x,1/2-y,-z
1/2+x,1/2+y,-z
1/2-x,1/2+y,1/2+z
1/2+x,1/2-y,1/2+z
loop_
_atom_site_type_symbol
_atom_site_label
_atom_site_fract_x
_atom_site_fract_y
_atom_site_fract_z
Si Si1 0.862019 0.831685 0.652385
Si Si2 0.876130 0.500000 0.750000
Si Si3 0.454760 0.103976 0.342979
Si Si4 0.205192 0.710375 0.152096
Si Si5 0.044432 0.243474 0.658144
Si Si6 0.688009 0.561632 0.839001
Si Si7 0.202207 0.407712 0.149337
O O1 0.857665 0.866092 0.500000
O O2 0.839941 0.758148 0.642306
O O3 0.916721 0.814388 0.691288
O O4 0.836417 0.872991 0.772508
O O5 0.909210 0.555382 0.677037
O O6 0.839469 0.535954 0.855753
O O7 0.500000 0.081020 0.250000
O O8 0.472070 0.098650 0.500000
O O9 0.438971 0.180203 0.305521
O O10 0.250000 0.750000 0.221139
O O11 0.189001 0.646845 0.238277
O O12 0.221024 0.685221 0.000000
O O13 0.029003 0.240568 0.500000
O O14 0.000000 0.221831 0.750000
O O15 0.667129 0.500000 0.750000
O O16 0.745358 0.561965 0.818670
O O17 0.673729 0.556147 0.000000
O O18 0.203649 0.373143 0.000000
#
# Coordination Sequence:
#
# PCOD8276531 Si02
#       7
#    16   8  16  16  16  16  16
#     4  10  20  37  60  86 114 150 191 233 288 351
#     4  12  23  38  56  80 116 160 207 244 288 340
#     4  10  22  40  61  83 113 152 197 246 294 345
#     4  10  20  35  57  81 109 149 193 238 291 348
#     4   9  19  37  61  88 116 146 187 237 290 347
#     4  11  23  39  57  82 115 154 194 233 282 340
#     4  11  24  37  53  80 114 152 197 247 290 334
#
# _framework density 19.300015999999999
#
# number of rings (size 3 to 8) (size 9 to 14) (size 15 to 20)
#    0.000    1.692    2.308    2.077    0.000    6.462 
#    0.000    3.077    0.000    0.462    0.000    3.231 
#    0.000    0.000    0.000    0.000    0.000    0.000 
#
# Total GULP energy -644585.589239 kJ/mol
# GULP energy per Si atom -12395.876716 kJ/mol
# Density = 1.925609 g / cm^3
# Si number density = 19.300016 Si / 1000 Ang^3
#
#
#
# Elastic Constant Matrix: (Units=GPa)
#
#
# Indices 1 2 3 4 5 6 
#
# 1 109.8694 38.1283 54.1180 0.0000 0.0000 0.0000
# 2 38.1283 72.8286 56.9905 0.0000 0.0000 0.0000
# 3 54.1180 56.9905 122.4231 0.0000 0.0000 0.0000
# 4 0.0000 0.0000 0.0000 26.1349 0.0000 0.0000
# 5 0.0000 0.0000 0.0000 0.0000 12.5255 0.0000
# 6 0.0000 0.0000 0.0000 0.0000 0.0000 31.8605
#
#
#
# Elastic Compliance Matrix: (Units=1/GPa)
#
#
# Indices 1 2 3 4 5 6 
#
# 1 0.012146 -0.003393 -0.003789 0.000000 0.000000 0.000000
# 2 -0.003393 0.022547 -0.008996 0.000000 0.000000 0.000000
# 3 -0.003789 -0.008996 0.014031 0.000000 0.000000 0.000000
# 4 0.000000 0.000000 0.000000 0.038263 0.000000 0.000000
# 5 0.000000 0.000000 0.000000 0.000000 0.079837 0.000000
# 6 0.000000 0.000000 0.000000 0.000000 0.000000 0.031387
#
#
# Mechanical properties :
#
#
# Convention : Reuss Voigt Hill
#
# Bulk Modulus (GPa) = 61.10038 67.06608 64.08323
# Shear Modulus (GPa) = 21.18421 24.49647 22.84034
#
# Velocity S-wave (km/s) = 3.31664 3.56651 3.44384
# Velocity P-wave (km/s) = 6.81129 7.19616 7.00637
#
# Compressibility (1/GPa) = 0.01636651
#
# Stress axis : x y z
#
# Youngs Moduli (GPa) = 82.33213 44.35155 71.26870
#
# Poissons Ratio (x) = 0.15050 0.27007
# Poissons Ratio (y) = 0.27939 0.64114
# Poissons Ratio (z) = 0.31200 0.39899
#
# Static dielectric constant tensor:
#      x y z
#    x 3.459300 0.000000 0.000000 
#    y 0.000000 3.352390 0.000000 
#    z 0.000000 0.000000 3.551460 
# 
# 
# High freq. dielectric constant tensor:
#      x y z
#    x 1.744860 0.000000 0.000000 
#    y 0.000000 1.736570 0.000000 
#    z 0.000000 0.000000 1.753550 
# 
# From -- ./inp_files/10387.got.cif
#   From: 2010.03.12/outbox.cif.g09.slc.cpg/sg66_6_cif.got.tgz:10387.got - 2010.04.10 21:57:39.
