data_PCOD8276904
_publ_section_title
;
Structure prediction by ZEFSAII (Michael W. Deem and Ramdas Pophale) SiO2 
 PCOD8276904
Probable space group: C C C M
;
_chemical_formula_sum "Si O2"
_cell_formula_units_Z 96
_cell_length_a 10.777159
_cell_length_b 21.283564
_cell_length_c 22.030299
_cell_angle_alpha 90.000000
_cell_angle_beta 90.000000
_cell_angle_gamma 90.000000
_cell_volume 5053.229647
_symmetry_space_group_name_H-M "C C C M"
_symmetry_group_IT_number 66
_symmetry_cell_setting 'orthorhombic'
loop_
_space_group_symop_operation_xyz
x,y,z
-x,-y,z
x,-y,1/2-z
-x,y,1/2-z
-x,-y,-z
x,y,-z
-x,y,1/2+z
x,-y,1/2+z
1/2+x,1/2+y,z
1/2-x,1/2-y,z
1/2+x,1/2-y,1/2-z
1/2-x,1/2+y,1/2-z
1/2-x,1/2-y,-z
1/2+x,1/2+y,-z
1/2-x,1/2+y,1/2+z
1/2+x,1/2-y,1/2+z
loop_
_atom_site_type_symbol
_atom_site_label
_atom_site_fract_x
_atom_site_fract_y
_atom_site_fract_z
Si Si1 0.748892 0.609870 0.652125
Si Si2 0.218946 0.025422 0.817294
Si Si3 0.613973 0.248976 0.363428
Si Si4 0.629602 0.133148 0.275561
Si Si5 0.132432 0.293092 0.571074
Si Si6 0.978821 0.121671 0.678897
O O1 0.762958 0.534610 0.643845
O O2 0.775909 0.637512 0.719148
O O3 0.842554 0.640654 0.603894
O O4 0.605021 0.626579 0.640148
O O5 0.326305 0.078049 0.820590
O O6 0.094477 0.058934 0.842612
O O7 0.192483 0.000000 0.750000
O O8 0.750000 0.250000 0.396461
O O9 0.615264 0.199477 0.308578
O O10 0.500035 0.235403 0.408769
O O11 0.602772 0.317093 0.333455
O O12 0.500000 0.109599 0.250000
O O13 0.126216 0.304922 0.500000
O O14 0.250000 0.250000 0.589118
O O15 0.000000 0.115556 0.750000
#
# Coordination Sequence:
#
# PCOD8276904 Si02
#       6
#    16  16  16  16  16  16
#     4  11  22  37  60  86 122 163 196 245 294 359
#     4  10  21  34  53  87 128 164 193 229 292 374
#     4  12  23  38  61  92 122 154 194 254 309 359
#     4  11  21  34  55  92 125 158 191 232 304 372
#     4  11  25  45  65  85 112 158 214 256 298 347
#     4  12  20  33  57  90 129 157 192 234 303 369
#
# _framework density 18.997751999999998
#
# number of rings (size 3 to 8) (size 9 to 14) (size 15 to 20)
#    0.000    0.833    8.333    1.000    0.000    4.000 
#    0.000    0.000    0.000    5.000    0.000    0.000 
#    0.000    0.000    0.000    0.000    0.000    0.000 
#
# Total GULP energy -594995.369651 kJ/mol
# GULP energy per Si atom -12395.736868 kJ/mol
# Density = 1.895451 g / cm^3
# Si number density = 18.997752 Si / 1000 Ang^3
#
#
#
# Elastic Constant Matrix: (Units=GPa)
#
#
# Indices 1 2 3 4 5 6 
#
# 1 136.5295 37.6275 24.9242 0.0000 0.0000 0.0000
# 2 37.6275 136.6778 40.1707 0.0000 0.0000 0.0000
# 3 24.9242 40.1707 55.1913 0.0000 0.0000 0.0000
# 4 0.0000 0.0000 0.0000 14.4014 0.0000 0.0000
# 5 0.0000 0.0000 0.0000 0.0000 17.9098 0.0000
# 6 0.0000 0.0000 0.0000 0.0000 0.0000 31.8075
#
#
#
# Elastic Compliance Matrix: (Units=1/GPa)
#
#
# Indices 1 2 3 4 5 6 
#
# 1 0.008214 -0.001490 -0.002625 0.000000 0.000000 0.000000
# 2 -0.001490 0.009578 -0.006298 0.000000 0.000000 0.000000
# 3 -0.002625 -0.006298 0.023889 0.000000 0.000000 0.000000
# 4 0.000000 0.000000 0.000000 0.069438 0.000000 0.000000
# 5 0.000000 0.000000 0.000000 0.000000 0.055835 0.000000
# 6 0.000000 0.000000 0.000000 0.000000 0.000000 0.031439
#
#
# Mechanical properties :
#
#
# Convention : Reuss Voigt Hill
#
# Bulk Modulus (GPa) = 47.95266 59.31593 53.63430
# Shear Modulus (GPa) = 22.10720 27.86883 24.98802
#
# Velocity S-wave (km/s) = 3.41497 3.83424 3.63066
# Velocity P-wave (km/s) = 6.39104 7.13388 6.77265
#
# Compressibility (1/GPa) = 0.02085390
#
# Stress axis : x y z
#
# Youngs Moduli (GPa) = 121.73956 104.40858 41.86113
#
# Poissons Ratio (x) = 0.15555 0.10989
# Poissons Ratio (y) = 0.18137 0.26365
# Poissons Ratio (z) = 0.31959 0.65760
#
# Static dielectric constant tensor:
#      x y z
#    x 3.996700 0.000000 0.000000 
#    y 0.000000 3.975220 0.000000 
#    z 0.000000 0.000000 2.918280 
# 
# 
# High freq. dielectric constant tensor:
#      x y z
#    x 1.765740 0.000000 0.000000 
#    y 0.000000 1.755820 0.000000 
#    z 0.000000 0.000000 1.666330 
# 
# From -- ./inp_files/48796.got.cif
#   From: 2010.03.12/outbox.cif.g09.slc.cpg/sg66_25_cif.got.tgz:48796.got - 2010.04.10 21:57:39.
