data_PCOD8276690
_publ_section_title
;
Structure prediction by ZEFSAII (Michael W. Deem and Ramdas Pophale) SiO2 
 PCOD8276690
Probable space group: C C C M
;
_chemical_formula_sum "Si O2"
_cell_formula_units_Z 112
_cell_length_a 23.253016
_cell_length_b 13.656459
_cell_length_c 15.184148
_cell_angle_alpha 90.000000
_cell_angle_beta 90.000000
_cell_angle_gamma 90.000000
_cell_volume 4821.784803
_symmetry_space_group_name_H-M "C C C M"
_symmetry_group_IT_number 66
_symmetry_cell_setting 'orthorhombic'
loop_
_space_group_symop_operation_xyz
x,y,z
-x,-y,z
x,-y,1/2-z
-x,y,1/2-z
-x,-y,-z
x,y,-z
-x,y,1/2+z
x,-y,1/2+z
1/2+x,1/2+y,z
1/2-x,1/2-y,z
1/2+x,1/2-y,1/2-z
1/2-x,1/2+y,1/2-z
1/2-x,1/2-y,-z
1/2+x,1/2+y,-z
1/2-x,1/2+y,1/2+z
1/2+x,1/2-y,1/2+z
loop_
_atom_site_type_symbol
_atom_site_label
_atom_site_fract_x
_atom_site_fract_y
_atom_site_fract_z
Si Si1 0.705614 0.163706 0.902209
Si Si2 0.561370 0.532646 0.650950
Si Si3 0.865717 0.319809 0.600458
Si Si4 0.263771 0.864732 0.282438
Si Si5 0.837818 0.099996 0.598523
Si Si6 0.913417 0.243432 0.098078
Si Si7 0.008837 0.610968 0.647296
O O1 0.750000 0.250000 0.916145
O O2 0.727127 0.095897 0.819232
O O3 0.645072 0.206982 0.867382
O O4 0.699662 0.111217 0.000000
O O5 0.500000 0.500000 0.608627
O O6 0.564110 0.500000 0.750000
O O7 0.613605 0.483278 0.598793
O O8 0.568553 0.649623 0.654717
O O9 0.848016 0.339990 0.500000
O O10 0.821476 0.380016 0.661129
O O11 0.866061 0.204337 0.621051
O O12 0.928190 0.359086 0.619744
O O13 0.250000 0.750000 0.279118
O O14 0.211896 0.922714 0.329949
O O15 0.810865 0.101285 0.500000
O O16 0.963577 0.322809 0.096181
O O17 0.902512 0.204407 0.000000
O O18 0.000000 0.500000 0.617543
O O19 0.000000 0.626455 0.750000
#
# Coordination Sequence:
#
# PCOD8276690 Si02
#       7
#    16  16  16  16  16  16  16
#     4   9  19  36  61  92 126 173 227 280 343 415
#     4  11  26  40  63 100 138 187 231 282 341 424
#     4  10  20  36  63  95 130 172 217 274 345 403
#     4   9  18  33  63  93 128 169 216 277 333 405
#     4  10  21  39  64  98 136 174 221 276 334 408
#     4  11  24  42  67  95 134 180 230 287 354 426
#     4  11  25  42  66  94 127 173 229 287 345 410
#
# _framework density 23.227913000000001
#
# number of rings (size 3 to 8) (size 9 to 14) (size 15 to 20)
#    0.000    1.857    0.000    3.000   10.000    5.143 
#    0.000    1.429    3.143    3.429    0.000    0.000 
#    0.000    0.000    0.000    0.000    0.000    0.000 
#
# Total GULP energy -694309.244267 kJ/mol
# GULP energy per Si atom -12398.379362 kJ/mol
# Density = 2.317505 g / cm^3
# Si number density = 23.227913 Si / 1000 Ang^3
#
#
#
# Elastic Constant Matrix: (Units=GPa)
#
#
# Indices 1 2 3 4 5 6 
#
# 1 174.6142 45.9190 53.6122 0.0000 0.0000 0.0000
# 2 45.9190 89.9813 32.0453 0.0000 0.0000 0.0000
# 3 53.6122 32.0453 150.6538 0.0000 0.0000 0.0000
# 4 0.0000 0.0000 0.0000 33.4144 0.0000 0.0000
# 5 0.0000 0.0000 0.0000 0.0000 38.1398 0.0000
# 6 0.0000 0.0000 0.0000 0.0000 0.0000 30.1782
#
#
#
# Elastic Compliance Matrix: (Units=1/GPa)
#
#
# Indices 1 2 3 4 5 6 
#
# 1 0.007082 -0.002939 -0.001895 0.000000 0.000000 0.000000
# 2 -0.002939 0.013244 -0.001771 0.000000 0.000000 0.000000
# 3 -0.001895 -0.001771 0.007689 0.000000 0.000000 0.000000
# 4 0.000000 0.000000 0.000000 0.029927 0.000000 0.000000
# 5 0.000000 0.000000 0.000000 0.000000 0.026219 0.000000
# 6 0.000000 0.000000 0.000000 0.000000 0.000000 0.033136
#
#
# Mechanical properties :
#
#
# Convention : Reuss Voigt Hill
#
# Bulk Modulus (GPa) = 67.54877 75.37803 71.46340
# Shear Modulus (GPa) = 36.91601 39.25800 38.08701
#
# Velocity S-wave (km/s) = 3.99092 4.11557 4.05372
# Velocity P-wave (km/s) = 7.09793 7.42333 7.26245
#
# Compressibility (1/GPa) = 0.01480412
#
# Stress axis : x y z
#
# Youngs Moduli (GPa) = 141.21100 75.50567 130.05885
#
# Poissons Ratio (x) = 0.22191 0.24645
# Poissons Ratio (y) = 0.41502 0.23036
# Poissons Ratio (z) = 0.26759 0.13374
#
# Static dielectric constant tensor:
#      x y z
#    x 4.546440 0.000000 0.000000 
#    y 0.000000 3.930110 0.000000 
#    z 0.000000 0.000000 4.435840 
# 
# 
# High freq. dielectric constant tensor:
#      x y z
#    x 1.929680 0.000000 0.000000 
#    y 0.000000 1.895480 0.000000 
#    z 0.000000 0.000000 1.935970 
# 
# From -- ./inp_files/32455.got.cif
#   From: 2010.03.12/outbox.cif.g09.slc.cpg/sg66_17_cif.got.tgz:32455.got - 2010.04.10 21:57:39.
