data_PCOD8276582
_publ_section_title
;
Structure prediction by ZEFSAII (Michael W. Deem and Ramdas Pophale) SiO2 
 PCOD8276582
Probable space group: C C C M
;
_chemical_formula_sum "Si O2"
_cell_formula_units_Z 80
_cell_length_a 11.104581
_cell_length_b 25.109353
_cell_length_c 14.224099
_cell_angle_alpha 90.000000
_cell_angle_beta 90.000000
_cell_angle_gamma 90.000000
_cell_volume 3966.089085
_symmetry_space_group_name_H-M "C C C M"
_symmetry_group_IT_number 66
_symmetry_cell_setting 'orthorhombic'
loop_
_space_group_symop_operation_xyz
x,y,z
-x,-y,z
x,-y,1/2-z
-x,y,1/2-z
-x,-y,-z
x,y,-z
-x,y,1/2+z
x,-y,1/2+z
1/2+x,1/2+y,z
1/2-x,1/2-y,z
1/2+x,1/2-y,1/2-z
1/2-x,1/2+y,1/2-z
1/2-x,1/2-y,-z
1/2+x,1/2+y,-z
1/2-x,1/2+y,1/2+z
1/2+x,1/2-y,1/2+z
loop_
_atom_site_type_symbol
_atom_site_label
_atom_site_fract_x
_atom_site_fract_y
_atom_site_fract_z
Si Si1 0.689387 0.306137 0.746153
Si Si2 0.002481 0.167654 0.602976
Si Si3 0.040059 0.560004 0.605470
Si Si4 0.314805 0.912411 0.217527
Si Si5 0.938107 0.945051 0.346598
O O1 0.750000 0.250000 0.727906
O O2 0.627210 0.325160 0.649909
O O3 0.598071 0.301182 0.833218
O O4 0.785815 0.350634 0.771213
O O5 0.001688 0.194054 0.500000
O O6 0.034213 0.104958 0.587174
O O7 0.075935 0.580547 0.500000
O O8 0.149961 0.564135 0.679723
O O9 0.000000 0.500000 0.599000
O O10 0.924825 0.591136 0.644901
O O11 0.205917 0.948377 0.173344
O O12 0.000000 0.928725 0.250000
O O13 0.000000 0.000000 0.385103
#
# Coordination Sequence:
#
# PCOD8276582 Si02
#       5
#    16  16  16  16  16
#     4  10  22  41  60  82 112 153 195 247 297 345
#     4  10  21  39  58  88 121 148 188 243 300 351
#     4  10  23  37  56  86 118 155 192 231 282 342
#     4  10  20  39  61  81 115 155 190 241 284 342
#     4  10  20  35  62  91 118 156 194 229 292 360
#
# _framework density 20.171005999999998
#
# number of rings (size 3 to 8) (size 9 to 14) (size 15 to 20)
#    0.000    2.000    4.000    1.200    5.600    8.400 
#    0.000    2.000    0.000    0.600    0.000    0.000 
#    0.000    0.000    0.000    0.000    0.000    0.000 
#
# Total GULP energy -495700.392533 kJ/mol
# GULP energy per Si atom -12392.509813 kJ/mol
# Density = 2.012510 g / cm^3
# Si number density = 20.171006 Si / 1000 Ang^3
#
#
#
# Elastic Constant Matrix: (Units=GPa)
#
#
# Indices 1 2 3 4 5 6 
#
# 1 101.2762 51.6272 29.7263 0.0000 0.0000 0.0000
# 2 51.6272 96.0126 27.8774 0.0000 0.0000 0.0000
# 3 29.7263 27.8774 131.6313 0.0000 0.0000 0.0000
# 4 0.0000 0.0000 0.0000 6.1501 0.0000 0.0000
# 5 0.0000 0.0000 0.0000 0.0000 122.4264 0.0000
# 6 0.0000 0.0000 0.0000 0.0000 0.0000 26.3704
#
#
#
# Elastic Compliance Matrix: (Units=1/GPa)
#
#
# Indices 1 2 3 4 5 6 
#
# 1 0.013936 -0.007011 -0.001662 0.000000 0.000000 0.000000
# 2 -0.007011 0.014625 -0.001514 0.000000 0.000000 0.000000
# 3 -0.001662 -0.001514 0.008293 0.000000 0.000000 0.000000
# 4 0.000000 0.000000 0.000000 0.162598 0.000000 0.000000
# 5 0.000000 0.000000 0.000000 0.000000 0.008168 0.000000
# 6 0.000000 0.000000 0.000000 0.000000 0.000000 0.037921
#
#
# Mechanical properties :
#
#
# Convention : Reuss Voigt Hill
#
# Bulk Modulus (GPa) = 60.68260 60.82020 60.75140
# Shear Modulus (GPa) = 18.42239 45.63532 32.02886
#
# Velocity S-wave (km/s) = 3.02538 4.76165 3.98913
# Velocity P-wave (km/s) = 6.50794 7.77489 7.16945
#
# Compressibility (1/GPa) = 0.01647919
#
# Stress axis : x y z
#
# Youngs Moduli (GPa) = 71.75778 68.37760 120.58313
#
# Poissons Ratio (x) = 0.47938 0.20045
# Poissons Ratio (y) = 0.50308 0.18257
# Poissons Ratio (z) = 0.11929 0.10353
#
# Static dielectric constant tensor:
#      x y z
#    x 3.751380 0.000000 0.000000 
#    y 0.000000 3.533720 0.000000 
#    z 0.000000 0.000000 3.888600 
# 
# 
# High freq. dielectric constant tensor:
#      x y z
#    x 1.789610 0.000000 0.000000 
#    y 0.000000 1.770090 0.000000 
#    z 0.000000 0.000000 1.784140 
# 
# From -- ./inp_files/26400.got.cif
#   From: 2010.03.12/outbox.cif.g09.slc.cpg/sg66_14_cif.got.tgz:26400.got - 2010.04.10 21:57:39.
