data_PCOD8276819
_publ_section_title
;
Structure prediction by ZEFSAII (Michael W. Deem and Ramdas Pophale) SiO2 
 PCOD8276819
Probable space group: C C C M
;
_chemical_formula_sum "Si O2"
_cell_formula_units_Z 64
_cell_length_a 11.396353
_cell_length_b 17.230802
_cell_length_c 14.051644
_cell_angle_alpha 90.000000
_cell_angle_beta 90.000000
_cell_angle_gamma 90.000000
_cell_volume 2759.297474
_symmetry_space_group_name_H-M "C C C M"
_symmetry_group_IT_number 66
_symmetry_cell_setting 'orthorhombic'
loop_
_space_group_symop_operation_xyz
x,y,z
-x,-y,z
x,-y,1/2-z
-x,y,1/2-z
-x,-y,-z
x,y,-z
-x,y,1/2+z
x,-y,1/2+z
1/2+x,1/2+y,z
1/2-x,1/2-y,z
1/2+x,1/2-y,1/2-z
1/2-x,1/2+y,1/2-z
1/2-x,1/2-y,-z
1/2+x,1/2+y,-z
1/2-x,1/2+y,1/2+z
1/2+x,1/2-y,1/2+z
loop_
_atom_site_type_symbol
_atom_site_label
_atom_site_fract_x
_atom_site_fract_y
_atom_site_fract_z
Si Si1 0.626378 0.018336 0.140528
Si Si2 0.472506 0.414160 0.392633
Si Si3 0.252300 0.662967 0.809682
Si Si4 0.732091 0.625757 0.897876
O O1 0.661449 0.109366 0.130114
O O2 0.500000 0.000000 0.091991
O O3 0.618132 0.000000 0.250000
O O4 0.727808 0.964671 0.096142
O O5 0.500000 0.500000 0.354278
O O6 0.420502 0.416416 0.500000
O O7 0.618288 0.373426 0.179288
O O8 0.592585 0.366212 0.391476
O O9 0.250000 0.750000 0.851171
O O10 0.214875 0.665728 0.697055
O O11 0.772462 0.663800 0.000000
#
# Coordination Sequence:
#
# PCOD8276819 Si02
#       4
#    16  16  16  16
#     4   9  19  38  61  86 119 165 216 255 301 377
#     4  10  20  38  67  96 124 164 218 265 311 382
#     4  11  23  39  64  96 130 163 204 269 331 374
#     4  10  21  39  63  90 124 172 221 256 304 385
#
# _framework density 23.194310000000002
#
# number of rings (size 3 to 8) (size 9 to 14) (size 15 to 20)
#    0.000    2.000    2.500    0.750    0.000    2.500 
#   18.000    0.000    0.000    0.000    0.000    0.000 
#    0.000    0.000    0.000    0.000    0.000    0.000 
#
# Total GULP energy -396492.418420 kJ/mol
# GULP energy per Si atom -12390.388076 kJ/mol
# Density = 2.314152 g / cm^3
# Si number density = 23.194310 Si / 1000 Ang^3
#
#
#
# Elastic Constant Matrix: (Units=GPa)
#
#
# Indices 1 2 3 4 5 6 
#
# 1 122.2712 47.6813 16.6473 0.0000 0.0000 0.0000
# 2 47.6813 152.9653 5.8083 0.0000 0.0000 0.0000
# 3 16.6473 5.8083 96.2316 0.0000 0.0000 0.0000
# 4 0.0000 0.0000 0.0000 8.1422 0.0000 0.0000
# 5 0.0000 0.0000 0.0000 0.0000 -59.3113 0.0000
# 6 0.0000 0.0000 0.0000 0.0000 0.0000 23.8324
#
#
#
# Elastic Compliance Matrix: (Units=1/GPa)
#
#
# Indices 1 2 3 4 5 6 
#
# 1 0.009513 -0.002910 -0.001470 0.000000 0.000000 0.000000
# 2 -0.002910 0.007442 0.000054 0.000000 0.000000 0.000000
# 3 -0.001470 0.000054 0.010643 0.000000 0.000000 0.000000
# 4 0.000000 0.000000 0.000000 0.122818 0.000000 0.000000
# 5 0.000000 0.000000 0.000000 0.000000 -0.016860 0.000000
# 6 0.000000 0.000000 0.000000 0.000000 0.000000 0.041960
#
#
# Mechanical properties :
#
#
# Convention : Reuss Voigt Hill
#
# Bulk Modulus (GPa) = 52.77837 56.86020 54.81929
# Shear Modulus (GPa) = 26.24918 14.62141 20.43530
#
# Velocity S-wave (km/s) = 3.36774 2.51348 2.97147
# Velocity P-wave (km/s) = 6.15845 5.74381 5.95474
#
# Compressibility (1/GPa) = 0.01894716
#
# Stress axis : x y z
#
# Youngs Moduli (GPa) = 105.11562 134.36645 93.96157
#
# Poissons Ratio (x) = 0.39095 0.13813
# Poissons Ratio (y) = 0.30584 -0.00509
# Poissons Ratio (z) = 0.15453 -0.00727
#
# Static dielectric constant tensor:
#      x y z
#    x 4.403060 0.000000 0.000000 
#    y 0.000000 3.836580 0.000000 
#    z 0.000000 0.000000 4.349090 
# 
# 
# High freq. dielectric constant tensor:
#      x y z
#    x 1.903400 0.000000 0.000000 
#    y 0.000000 1.879250 0.000000 
#    z 0.000000 0.000000 1.924980 
# 
# From -- ./inp_files/27873.got.cif
#   From: 2010.03.12/outbox.cif.g09.slc.cpg/sg66_14_cif.got.tgz:27873.got - 2010.04.10 21:57:39.
