data_PCOD8276447
_publ_section_title
;
Structure prediction by ZEFSAII (Michael W. Deem and Ramdas Pophale) SiO2 
 PCOD8276447
Probable space group: C C C M
;
_chemical_formula_sum "Si O2"
_cell_formula_units_Z 112
_cell_length_a 23.659524
_cell_length_b 16.134278
_cell_length_c 14.234404
_cell_angle_alpha 90.000000
_cell_angle_beta 90.000000
_cell_angle_gamma 90.000000
_cell_volume 5433.689610
_symmetry_space_group_name_H-M "C C C M"
_symmetry_group_IT_number 66
_symmetry_cell_setting 'orthorhombic'
loop_
_space_group_symop_operation_xyz
x,y,z
-x,-y,z
x,-y,1/2-z
-x,y,1/2-z
-x,-y,-z
x,y,-z
-x,y,1/2+z
x,-y,1/2+z
1/2+x,1/2+y,z
1/2-x,1/2-y,z
1/2+x,1/2-y,1/2-z
1/2-x,1/2+y,1/2-z
1/2-x,1/2-y,-z
1/2+x,1/2+y,-z
1/2-x,1/2+y,1/2+z
1/2+x,1/2-y,1/2+z
loop_
_atom_site_type_symbol
_atom_site_label
_atom_site_fract_x
_atom_site_fract_y
_atom_site_fract_z
Si Si1 0.126595 0.138374 0.399165
Si Si2 0.867211 0.659281 0.792296
Si Si3 0.856213 0.151751 0.695182
Si Si4 0.560032 0.529439 0.894682
Si Si5 0.526644 0.913461 0.109025
Si Si6 0.243128 0.652207 0.605822
Si Si7 0.080357 0.310682 0.395606
O O1 0.159905 0.149572 0.500000
O O2 0.163837 0.146261 0.304761
O O3 0.078964 0.210678 0.393677
O O4 0.099038 0.049773 0.399390
O O5 0.871637 0.753587 0.830953
O O6 0.916130 0.603212 0.835616
O O7 0.806868 0.621782 0.824876
O O8 0.873109 0.655964 0.678952
O O9 0.911824 0.097219 0.673974
O O10 0.803691 0.114707 0.636151
O O11 0.500000 0.500000 0.853005
O O12 0.552711 0.567077 0.000000
O O13 0.482050 0.840919 0.132483
O O14 0.500000 0.000000 0.143245
O O15 0.542212 0.917009 0.000000
O O16 0.229047 0.623614 0.500000
O O17 0.250000 0.750000 0.613800
O O18 0.096466 0.344495 0.500000
#
# Coordination Sequence:
#
# PCOD8276447 Si02
#       7
#    16  16  16  16  16  16  16
#     4   9  19  35  52  75 111 149 187 227 272 330
#     4  10  20  34  57  86 111 146 189 228 280 339
#     4  10  20  34  56  82 114 151 188 230 280 331
#     4  10  21  34  52  81 116 151 187 231 282 335
#     4  10  21  36  57  83 114 146 179 228 288 343
#     4   9  18  34  55  82 112 141 181 233 279 327
#     4   9  19  35  54  78 112 148 183 228 281 336
#
# _framework density 20.612145000000002
#
# number of rings (size 3 to 8) (size 9 to 14) (size 15 to 20)
#    0.000    2.429    0.000    1.714    2.000    4.000 
#    0.000    0.714    6.286    4.286    0.000    0.000 
#    0.000    0.000    0.000    0.000    0.000    0.000 
#
# Total GULP energy -693991.287087 kJ/mol
# GULP energy per Si atom -12392.701555 kJ/mol
# Density = 2.056523 g / cm^3
# Si number density = 20.612145 Si / 1000 Ang^3
#
#
#
# Elastic Constant Matrix: (Units=GPa)
#
#
# Indices 1 2 3 4 5 6 
#
# 1 111.6570 23.9250 51.9921 0.0000 0.0000 0.0000
# 2 23.9250 64.2423 16.7722 0.0000 0.0000 0.0000
# 3 51.9921 16.7722 113.3862 0.0000 0.0000 0.0000
# 4 0.0000 0.0000 0.0000 20.5562 0.0000 0.0000
# 5 0.0000 0.0000 0.0000 0.0000 30.1159 0.0000
# 6 0.0000 0.0000 0.0000 0.0000 0.0000 20.5102
#
#
#
# Elastic Compliance Matrix: (Units=1/GPa)
#
#
# Indices 1 2 3 4 5 6 
#
# 1 0.011969 -0.003146 -0.005023 0.000000 0.000000 0.000000
# 2 -0.003146 0.017018 -0.001075 0.000000 0.000000 0.000000
# 3 -0.005023 -0.001075 0.011282 0.000000 0.000000 0.000000
# 4 0.000000 0.000000 0.000000 0.048647 0.000000 0.000000
# 5 0.000000 0.000000 0.000000 0.000000 0.033205 0.000000
# 6 0.000000 0.000000 0.000000 0.000000 0.000000 0.048756
#
#
# Mechanical properties :
#
#
# Convention : Reuss Voigt Hill
#
# Bulk Modulus (GPa) = 45.91071 52.74047 49.32559
# Shear Modulus (GPa) = 25.42907 27.34286 26.38597
#
# Velocity S-wave (km/s) = 3.51621 3.64612 3.58175
# Velocity P-wave (km/s) = 6.22952 6.58546 6.40996
#
# Compressibility (1/GPa) = 0.02178141
#
# Stress axis : x y z
#
# Youngs Moduli (GPa) = 83.54927 58.76017 88.63995
#
# Poissons Ratio (x) = 0.18487 0.44523
# Poissons Ratio (y) = 0.26285 0.09527
# Poissons Ratio (z) = 0.41966 0.06315
#
# Static dielectric constant tensor:
#      x y z
#    x 3.589950 0.000000 0.000000 
#    y 0.000000 3.586830 0.000000 
#    z 0.000000 0.000000 4.257990 
# 
# 
# High freq. dielectric constant tensor:
#      x y z
#    x 1.770710 0.000000 0.000000 
#    y 0.000000 1.788500 0.000000 
#    z 0.000000 0.000000 1.827360 
# 
# From -- ./inp_files/32493.got.cif
#   From: 2010.03.12/outbox.cif.g09.slc.cpg/sg66_17_cif.got.tgz:32493.got - 2010.04.10 21:57:39.
