data_PCOD8276170
_publ_section_title
;
Structure prediction by ZEFSAII (Michael W. Deem and Ramdas Pophale) SiO2 
 PCOD8276170
Probable space group: C C C M
;
_chemical_formula_sum "Si O2"
_cell_formula_units_Z 112
_cell_length_a 16.379757
_cell_length_b 14.448308
_cell_length_c 22.861799
_cell_angle_alpha 90.000000
_cell_angle_beta 90.000000
_cell_angle_gamma 90.000000
_cell_volume 5410.468187
_symmetry_space_group_name_H-M "C C C M"
_symmetry_group_IT_number 66
_symmetry_cell_setting 'orthorhombic'
loop_
_space_group_symop_operation_xyz
x,y,z
-x,-y,z
x,-y,1/2-z
-x,y,1/2-z
-x,-y,-z
x,y,-z
-x,y,1/2+z
x,-y,1/2+z
1/2+x,1/2+y,z
1/2-x,1/2-y,z
1/2+x,1/2-y,1/2-z
1/2-x,1/2+y,1/2-z
1/2-x,1/2-y,-z
1/2+x,1/2+y,-z
1/2-x,1/2+y,1/2+z
1/2+x,1/2-y,1/2+z
loop_
_atom_site_type_symbol
_atom_site_label
_atom_site_fract_x
_atom_site_fract_y
_atom_site_fract_z
Si Si1 0.781587 0.468061 0.165103
Si Si2 0.182293 0.173963 0.722611
Si Si3 0.963721 0.586400 0.313555
Si Si4 0.203605 0.156810 0.853249
Si Si5 0.558243 0.259405 0.871168
Si Si6 0.949450 0.092802 0.569173
Si Si7 0.803965 0.340162 0.935753
O O1 0.715494 0.429462 0.211256
O O2 0.866824 0.429777 0.189708
O O3 0.773122 0.578758 0.158373
O O4 0.762885 0.420907 0.102402
O O5 0.250000 0.250000 0.703996
O O6 0.159931 0.182794 0.791416
O O7 0.104831 0.186480 0.680477
O O8 0.997434 0.683059 0.339152
O O9 0.000000 0.500000 0.350743
O O10 0.000000 0.582832 0.250000
O O11 0.250000 0.250000 0.877495
O O12 0.135834 0.111623 0.896577
O O13 0.509185 0.324548 0.914152
O O14 0.609887 0.191604 0.911861
O O15 0.930598 0.092849 0.500000
O O16 0.000000 0.000000 0.586983
O O17 0.750000 0.250000 0.936240
O O18 0.813796 0.382885 0.000000
#
# Coordination Sequence:
#
# PCOD8276170 Si02
#       7
#    16  16  16  16  16  16  16
#     4  11  21  41  60  92 132 164 213 265 313 392
#     4  11  20  38  64 102 132 170 207 272 328 401
#     4  10  24  34  63  95 130 167 204 252 320 392
#     4  11  28  41  67  94 135 180 221 263 334 406
#     4  11  21  40  66  93 134 162 216 272 326 384
#     4  11  27  48  68  92 127 177 233 282 333 396
#     4  10  19  35  65  97 121 159 209 272 328 365
#
# _framework density 20.700612
#
# number of rings (size 3 to 8) (size 9 to 14) (size 15 to 20)
#    0.000    1.286    4.286    1.714    8.000    0.857 
#    0.000    0.714    0.000    2.143    0.000    0.000 
#    0.000    0.000    0.000    0.000    0.000    0.000 
#
# Total GULP energy -693784.610199 kJ/mol
# GULP energy per Si atom -12389.010896 kJ/mol
# Density = 2.065350 g / cm^3
# Si number density = 20.700612 Si / 1000 Ang^3
#
#
#
# Elastic Constant Matrix: (Units=GPa)
#
#
# Indices 1 2 3 4 5 6 
#
# 1 62.4876 32.9237 34.7356 0.0000 0.0000 0.0000
# 2 32.9237 141.8592 28.5434 0.0000 0.0000 0.0000
# 3 34.7356 28.5434 111.1770 0.0000 0.0000 0.0000
# 4 0.0000 0.0000 0.0000 34.4880 0.0000 0.0000
# 5 0.0000 0.0000 0.0000 0.0000 34.1737 0.0000
# 6 0.0000 0.0000 0.0000 0.0000 0.0000 39.3207
#
#
#
# Elastic Compliance Matrix: (Units=1/GPa)
#
#
# Indices 1 2 3 4 5 6 
#
# 1 0.021119 -0.003768 -0.005631 0.000000 0.000000 0.000000
# 2 -0.003768 0.008106 -0.000904 0.000000 0.000000 0.000000
# 3 -0.005631 -0.000904 0.010986 0.000000 0.000000 0.000000
# 4 0.000000 0.000000 0.000000 0.028996 0.000000 0.000000
# 5 0.000000 0.000000 0.000000 0.000000 0.029262 0.000000
# 6 0.000000 0.000000 0.000000 0.000000 0.000000 0.025432
#
#
# Mechanical properties :
#
#
# Convention : Reuss Voigt Hill
#
# Bulk Modulus (GPa) = 51.00823 56.43657 53.72240
# Shear Modulus (GPa) = 33.10368 36.21787 34.66077
#
# Velocity S-wave (km/s) = 4.00329 4.18736 4.09636
# Velocity P-wave (km/s) = 6.78697 7.12047 6.95572
#
# Compressibility (1/GPa) = 0.01960468
#
# Stress axis : x y z
#
# Youngs Moduli (GPa) = 47.35138 123.37044 91.02570
#
# Poissons Ratio (x) = 0.46491 0.51254
# Poissons Ratio (y) = 0.17844 0.08225
# Poissons Ratio (z) = 0.26662 0.11148
#
# Static dielectric constant tensor:
#      x y z
#    x 3.551960 0.000000 0.000000 
#    y 0.000000 3.760850 0.000000 
#    z 0.000000 0.000000 4.081830 
# 
# 
# High freq. dielectric constant tensor:
#      x y z
#    x 1.790480 0.000000 0.000000 
#    y 0.000000 1.826510 0.000000 
#    z 0.000000 0.000000 1.808410 
# 
# From -- ./inp_files/58249.got.cif
#   From: 2010.03.12/outbox.cif.g09.slc.cpg/sg66_30_cif.got.tgz:58249.got - 2010.04.10 21:57:39.
