data_PCOD8276881
_publ_section_title
;
Structure prediction by ZEFSAII (Michael W. Deem and Ramdas Pophale) SiO2 
 PCOD8276881
Probable space group: C C C M
;
_chemical_formula_sum "Si O2"
_cell_formula_units_Z 80
_cell_length_a 10.917450
_cell_length_b 23.338575
_cell_length_c 14.630218
_cell_angle_alpha 90.000000
_cell_angle_beta 90.000000
_cell_angle_gamma 90.000000
_cell_volume 3727.746272
_symmetry_space_group_name_H-M "C C C M"
_symmetry_group_IT_number 66
_symmetry_cell_setting 'orthorhombic'
loop_
_space_group_symop_operation_xyz
x,y,z
-x,-y,z
x,-y,1/2-z
-x,y,1/2-z
-x,-y,-z
x,y,-z
-x,y,1/2+z
x,-y,1/2+z
1/2+x,1/2+y,z
1/2-x,1/2-y,z
1/2+x,1/2-y,1/2-z
1/2-x,1/2+y,1/2-z
1/2-x,1/2-y,-z
1/2+x,1/2+y,-z
1/2-x,1/2+y,1/2+z
1/2+x,1/2-y,1/2+z
loop_
_atom_site_type_symbol
_atom_site_label
_atom_site_fract_x
_atom_site_fract_y
_atom_site_fract_z
Si Si1 0.008699 0.068247 0.500000
Si Si2 0.836884 0.473879 0.342416
Si Si3 0.111142 0.770975 0.691162
Si Si4 0.386602 0.771723 0.500000
Si Si5 0.603986 0.402763 0.686138
Si Si6 0.038148 0.402437 0.000000
Si Si7 0.278336 0.058794 0.500000
O O1 0.148436 0.091229 0.500000
O O2 0.935914 0.094919 0.582532
O O3 0.000000 0.000000 0.500000
O O4 0.900534 0.500000 0.250000
O O5 0.731154 0.434699 0.300007
O O6 0.929796 0.437516 0.406831
O O7 0.779048 0.521574 0.407821
O O8 0.250000 0.750000 0.710845
O O9 0.057635 0.755060 0.591275
O O10 0.122281 0.837440 0.713534
O O11 0.000000 0.743467 0.750000
O O12 0.250000 0.750000 0.500000
O O13 0.395957 0.841123 0.500000
O O14 0.500000 0.431577 0.750000
O O15 0.890791 0.396132 0.000000
#
# Coordination Sequence:
#
# PCOD8276881 Si02
#       7
#     8  16  16   8  16   8   8
#     4  12  21  40  64  88 129 177 210 264 322 376
#     4  11  21  38  63  88 130 178 211 261 319 384
#     4  10  22  44  70  98 130 166 221 285 340 402
#     4  10  20  44  73  89 125 174 229 274 332 407
#     4  11  23  38  67  98 124 162 229 271 318 401
#     4  11  25  43  59  98 128 171 235 263 318 420
#     4  11  24  39  56  88 138 163 216 267 314 391
#
# _framework density 21.460688999999999
#
# number of rings (size 3 to 8) (size 9 to 14) (size 15 to 20)
#    0.000    1.200    2.000    6.000    0.000    1.600 
#   14.400    0.500    0.000    0.000    0.000    0.000 
#    0.000    0.000    0.000    0.000    0.000    0.000 
#
# Total GULP energy -495675.747313 kJ/mol
# GULP energy per Si atom -12391.893683 kJ/mol
# Density = 2.141184 g / cm^3
# Si number density = 21.460689 Si / 1000 Ang^3
#
#
#
# Elastic Constant Matrix: (Units=GPa)
#
#
# Indices 1 2 3 4 5 6 
#
# 1 143.1779 27.8674 36.2688 0.0000 0.0000 0.0000
# 2 27.8674 63.8722 12.4265 0.0000 0.0000 0.0000
# 3 36.2688 12.4265 143.2315 0.0000 0.0000 0.0000
# 4 0.0000 0.0000 0.0000 31.7586 0.0000 0.0000
# 5 0.0000 0.0000 0.0000 0.0000 -9.5654 0.0000
# 6 0.0000 0.0000 0.0000 0.0000 0.0000 13.3166
#
#
#
# Elastic Compliance Matrix: (Units=1/GPa)
#
#
# Indices 1 2 3 4 5 6 
#
# 1 0.008048 -0.003168 -0.001763 0.000000 0.000000 0.000000
# 2 -0.003168 0.017172 -0.000688 0.000000 0.000000 0.000000
# 3 -0.001763 -0.000688 0.007488 0.000000 0.000000 0.000000
# 4 0.000000 0.000000 0.000000 0.031488 0.000000 0.000000
# 5 0.000000 0.000000 0.000000 0.000000 -0.104544 0.000000
# 6 0.000000 0.000000 0.000000 0.000000 0.000000 0.075094
#
#
# Mechanical properties :
#
#
# Convention : Reuss Voigt Hill
#
# Bulk Modulus (GPa) = 46.57609 55.93412 51.25510
# Shear Modulus (GPa) = 94.09144 25.34989 59.72066
#
# Velocity S-wave (km/s) = 6.62864 3.44062 5.28094
# Velocity P-wave (km/s) = 8.96299 6.47333 7.81790
#
# Compressibility (1/GPa) = 0.02147024
#
# Stress axis : x y z
#
# Youngs Moduli (GPa) = 124.26191 58.23331 133.55125
#
# Poissons Ratio (x) = 0.18449 0.23544
# Poissons Ratio (y) = 0.39368 0.09183
# Poissons Ratio (z) = 0.21906 0.04004
#
# Static dielectric constant tensor:
#      x y z
#    x 4.045040 0.000000 0.000000 
#    y 0.000000 3.799140 0.000000 
#    z 0.000000 0.000000 4.860650 
# 
# 
# High freq. dielectric constant tensor:
#      x y z
#    x 1.851860 0.000000 0.000000 
#    y 0.000000 1.820380 0.000000 
#    z 0.000000 0.000000 1.858780 
# 
# From -- ./inp_files/26486.got.cif
#   From: 2010.03.12/outbox.cif.g09.slc.cpg/sg66_14_cif.got.tgz:26486.got - 2010.04.10 21:57:39.
