data_PCOD8276539
_publ_section_title
;
Structure prediction by ZEFSAII (Michael W. Deem and Ramdas Pophale) SiO2 
 PCOD8276539
Probable space group: C C C M
;
_chemical_formula_sum "Si O2"
_cell_formula_units_Z 64
_cell_length_a 16.977693
_cell_length_b 11.603813
_cell_length_c 15.273643
_cell_angle_alpha 90.000000
_cell_angle_beta 90.000000
_cell_angle_gamma 90.000000
_cell_volume 3008.998927
_symmetry_space_group_name_H-M "C C C M"
_symmetry_group_IT_number 66
_symmetry_cell_setting 'orthorhombic'
loop_
_space_group_symop_operation_xyz
x,y,z
-x,-y,z
x,-y,1/2-z
-x,y,1/2-z
-x,-y,-z
x,y,-z
-x,y,1/2+z
x,-y,1/2+z
1/2+x,1/2+y,z
1/2-x,1/2-y,z
1/2+x,1/2-y,1/2-z
1/2-x,1/2+y,1/2-z
1/2-x,1/2-y,-z
1/2+x,1/2+y,-z
1/2-x,1/2+y,1/2+z
1/2+x,1/2-y,1/2+z
loop_
_atom_site_type_symbol
_atom_site_label
_atom_site_fract_x
_atom_site_fract_y
_atom_site_fract_z
Si Si1 0.308699 0.661431 0.097882
Si Si2 0.478797 0.625151 0.103469
Si Si3 0.636185 0.744955 0.897027
Si Si4 0.258148 0.937022 0.342086
O O1 0.250000 0.750000 0.148651
O O2 0.394463 0.661707 0.145090
O O3 0.269519 0.535546 0.091066
O O4 0.321299 0.708822 0.000000
O O5 0.500000 0.500000 0.143060
O O6 0.544987 0.720298 0.127010
O O7 0.468445 0.612051 0.000000
O O8 0.659927 0.876565 0.872606
O O9 0.689803 0.658886 0.840106
O O10 0.651825 0.722642 0.000000
O O11 0.269077 0.000000 0.250000
#
# Coordination Sequence:
#
# PCOD8276539 Si02
#       4
#    16  16  16  16
#     4  10  20  35  57  84 116 152 191 239 295 351
#     4   9  16  32  59  89 112 140 197 254 280 328
#     4  10  20  38  64  88 114 157 208 247 292 355
#     4  11  22  34  56  84 123 152 193 244 301 354
#
# _framework density 21.269532999999999
#
# number of rings (size 3 to 8) (size 9 to 14) (size 15 to 20)
#    0.000    2.000    2.500    3.000    3.500    0.000 
#    0.000    3.750    0.000    7.500    0.000    0.000 
#    0.000    0.000    0.000    0.000    0.000    0.000 
#
# Total GULP energy -396570.081015 kJ/mol
# GULP energy per Si atom -12392.815032 kJ/mol
# Density = 2.122112 g / cm^3
# Si number density = 21.269533 Si / 1000 Ang^3
#
#
#
# Elastic Constant Matrix: (Units=GPa)
#
#
# Indices 1 2 3 4 5 6 
#
# 1 219.6911 110.1258 21.2088 0.0000 0.0000 0.0000
# 2 110.1258 126.5265 15.0617 0.0000 0.0000 0.0000
# 3 21.2088 15.0617 47.7370 0.0000 0.0000 0.0000
# 4 0.0000 0.0000 0.0000 21.7533 0.0000 0.0000
# 5 0.0000 0.0000 0.0000 0.0000 6.3714 0.0000
# 6 0.0000 0.0000 0.0000 0.0000 0.0000 46.4385
#
#
#
# Elastic Compliance Matrix: (Units=1/GPa)
#
#
# Indices 1 2 3 4 5 6 
#
# 1 0.008169 -0.006939 -0.001440 0.000000 0.000000 0.000000
# 2 -0.006939 0.014106 -0.001368 0.000000 0.000000 0.000000
# 3 -0.001440 -0.001368 0.022019 0.000000 0.000000 0.000000
# 4 0.000000 0.000000 0.000000 0.045970 0.000000 0.000000
# 5 0.000000 0.000000 0.000000 0.000000 0.156952 0.000000
# 6 0.000000 0.000000 0.000000 0.000000 0.000000 0.021534
#
#
# Mechanical properties :
#
#
# Convention : Reuss Voigt Hill
#
# Bulk Modulus (GPa) = 40.32105 76.30525 58.31315
# Shear Modulus (GPa) = 16.86278 31.41650 24.13964
#
# Velocity S-wave (km/s) = 2.81875 3.84743 3.37254
# Velocity P-wave (km/s) = 5.43987 7.46259 6.53002
#
# Compressibility (1/GPa) = 0.02480094
#
# Stress axis : x y z
#
# Youngs Moduli (GPa) = 122.41210 70.89346 45.41438
#
# Poissons Ratio (x) = 0.49192 0.06540
# Poissons Ratio (y) = 0.84939 0.06211
# Poissons Ratio (z) = 0.17629 0.09696
#
# Static dielectric constant tensor:
#      x y z
#    x 4.227020 0.000000 0.000000 
#    y 0.000000 3.974420 0.000000 
#    z 0.000000 0.000000 3.426780 
# 
# 
# High freq. dielectric constant tensor:
#      x y z
#    x 1.833230 0.000000 0.000000 
#    y 0.000000 1.821880 0.000000 
#    z 0.000000 0.000000 1.810790 
# 
# From -- ./inp_files/25772.got.cif
#   From: 2010.03.12/outbox.cif.g09.slc.cpg/sg66_13_cif.got.tgz:25772.got - 2010.04.10 21:57:39.
