data_PCOD8276443
_publ_section_title
;
Structure prediction by ZEFSAII (Michael W. Deem and Ramdas Pophale) SiO2 
 PCOD8276443
Probable space group: C C C M
;
_chemical_formula_sum "Si O2"
_cell_formula_units_Z 104
_cell_length_a 13.815301
_cell_length_b 16.749530
_cell_length_c 23.169101
_cell_angle_alpha 90.000000
_cell_angle_beta 90.000000
_cell_angle_gamma 90.000000
_cell_volume 5361.325304
_symmetry_space_group_name_H-M "C C C M"
_symmetry_group_IT_number 66
_symmetry_cell_setting 'orthorhombic'
loop_
_space_group_symop_operation_xyz
x,y,z
-x,-y,z
x,-y,1/2-z
-x,y,1/2-z
-x,-y,-z
x,y,-z
-x,y,1/2+z
x,-y,1/2+z
1/2+x,1/2+y,z
1/2-x,1/2-y,z
1/2+x,1/2-y,1/2-z
1/2-x,1/2+y,1/2-z
1/2-x,1/2-y,-z
1/2+x,1/2+y,-z
1/2-x,1/2+y,1/2+z
1/2+x,1/2-y,1/2+z
loop_
_atom_site_type_symbol
_atom_site_label
_atom_site_fract_x
_atom_site_fract_y
_atom_site_fract_z
Si Si1 0.634374 0.619262 0.564415
Si Si2 0.415902 0.619796 0.295431
Si Si3 0.702398 0.090421 0.741232
Si Si4 0.144273 0.281151 0.151525
Si Si5 0.500000 0.500000 0.113689
Si Si6 0.474789 0.219172 0.432420
Si Si7 0.698332 0.165264 0.137672
O O1 0.675457 0.631016 0.500000
O O2 0.576366 0.538081 0.570260
O O3 0.561372 0.691170 0.579689
O O4 0.723975 0.607776 0.607654
O O5 0.500000 0.608204 0.250000
O O6 0.317538 0.588344 0.266870
O O7 0.407591 0.713227 0.310407
O O8 0.443163 0.566458 0.350040
O O9 0.651774 0.136089 0.687596
O O10 0.673483 0.139113 0.798035
O O11 0.663764 0.000000 0.750000
O O12 0.250000 0.250000 0.132602
O O13 0.081161 0.295653 0.094160
O O14 0.479038 0.198388 0.500000
O O15 0.399081 0.161694 0.400026
O O16 0.750000 0.250000 0.138257
#
# Coordination Sequence:
#
# PCOD8276443 Si02
#       7
#    16  16  16  16   8  16  16
#     4  10  20  34  55  88 124 155 195 246 302 358
#     4  11  21  34  58  88 123 157 189 237 307 371
#     4  11  23  38  58  88 121 153 196 248 301 358
#     4  10  23  39  59  87 120 157 199 242 295 366
#     4  12  20  32  56  88 126 164 190 240 302 372
#     4  10  21  39  62  84 112 157 208 248 291 356
#     4  10  20  36  61  88 117 152 193 247 305 358
#
# _framework density 19.398187
#
# number of rings (size 3 to 8) (size 9 to 14) (size 15 to 20)
#    0.000    1.538    1.538    5.077    4.308    2.154 
#    0.000    1.538    0.000    2.769    0.000    0.000 
#    0.000    0.000    0.000    0.000    0.000    0.000 
#
# Total GULP energy -644803.875749 kJ/mol
# GULP energy per Si atom -12400.074534 kJ/mol
# Density = 1.935404 g / cm^3
# Si number density = 19.398187 Si / 1000 Ang^3
#
#
#
# Elastic Constant Matrix: (Units=GPa)
#
#
# Indices 1 2 3 4 5 6 
#
# 1 92.0274 28.6044 57.7696 0.0000 0.0000 0.0000
# 2 28.6044 57.6184 8.4464 0.0000 0.0000 0.0000
# 3 57.7696 8.4464 103.1219 0.0000 0.0000 0.0000
# 4 0.0000 0.0000 0.0000 244.0055 0.0000 0.0000
# 5 0.0000 0.0000 0.0000 0.0000 34.8968 0.0000
# 6 0.0000 0.0000 0.0000 0.0000 0.0000 50.5398
#
#
#
# Elastic Compliance Matrix: (Units=1/GPa)
#
#
# Indices 1 2 3 4 5 6 
#
# 1 0.020140 -0.008446 -0.010591 0.000000 0.000000 0.000000
# 2 -0.008446 0.021108 0.003002 0.000000 0.000000 0.000000
# 3 -0.010591 0.003002 0.015384 0.000000 0.000000 0.000000
# 4 0.000000 0.000000 0.000000 0.004098 0.000000 0.000000
# 5 0.000000 0.000000 0.000000 0.000000 0.028656 0.000000
# 6 0.000000 0.000000 0.000000 0.000000 0.000000 0.019786
#
#
# Mechanical properties :
#
#
# Convention : Reuss Voigt Hill
#
# Bulk Modulus (GPa) = 40.70933 49.15652 44.93292
# Shear Modulus (GPa) = 33.46076 76.41825 54.93950
#
# Velocity S-wave (km/s) = 4.15775 6.28332 5.32761
# Velocity P-wave (km/s) = 6.63934 8.83379 7.81399
#
# Compressibility (1/GPa) = 0.02456439
#
# Stress axis : x y z
#
# Youngs Moduli (GPa) = 49.65325 47.37475 65.00147
#
# Poissons Ratio (x) = 0.40012 0.68841
# Poissons Ratio (y) = 0.41936 -0.19516
# Poissons Ratio (z) = 0.52586 -0.14224
#
# Static dielectric constant tensor:
#      x y z
#    x 4.056600 0.000000 0.000000 
#    y 0.000000 3.520710 0.000000 
#    z 0.000000 0.000000 3.123220 
# 
# 
# High freq. dielectric constant tensor:
#      x y z
#    x 1.753410 0.000000 0.000000 
#    y 0.000000 1.742330 0.000000 
#    z 0.000000 0.000000 1.757000 
# 
# From -- ./inp_files/50075.got.cif
#   From: 2010.03.12/outbox.cif.g09.slc.cpg/sg66_26_cif.got.tgz:50075.got - 2010.04.10 21:57:39.
