data_PCOD8276850
_publ_section_title
;
Structure prediction by ZEFSAII (Michael W. Deem and Ramdas Pophale) SiO2 
 PCOD8276850
Probable space group: C C C M
;
_chemical_formula_sum "Si O2"
_cell_formula_units_Z 52
_cell_length_a 10.257703
_cell_length_b 27.627108
_cell_length_c 10.032531
_cell_angle_alpha 90.000000
_cell_angle_beta 90.000000
_cell_angle_gamma 90.000000
_cell_volume 2843.125668
_symmetry_space_group_name_H-M "C C C M"
_symmetry_group_IT_number 66
_symmetry_cell_setting 'orthorhombic'
loop_
_space_group_symop_operation_xyz
x,y,z
-x,-y,z
x,-y,1/2-z
-x,y,1/2-z
-x,-y,-z
x,y,-z
-x,y,1/2+z
x,-y,1/2+z
1/2+x,1/2+y,z
1/2-x,1/2-y,z
1/2+x,1/2-y,1/2-z
1/2-x,1/2+y,1/2-z
1/2-x,1/2-y,-z
1/2+x,1/2+y,-z
1/2-x,1/2+y,1/2+z
1/2+x,1/2-y,1/2+z
loop_
_atom_site_type_symbol
_atom_site_label
_atom_site_fract_x
_atom_site_fract_y
_atom_site_fract_z
Si Si1 0.353937 0.292334 0.500000
Si Si2 0.649220 0.640644 0.745602
Si Si3 0.747005 0.958862 0.346248
Si Si4 0.343082 0.703795 0.500000
Si Si5 0.500000 0.000000 0.250000
O O1 0.250000 0.250000 0.500000
O O2 0.321165 0.323248 0.627645
O O3 0.506977 0.276816 0.500000
O O4 0.500000 0.624224 0.750000
O O5 0.731313 0.592411 0.723905
O O6 0.690390 0.669303 0.876901
O O7 0.799173 0.960955 0.500000
O O8 0.813756 0.000000 0.250000
O O9 0.590861 0.967005 0.345555
O O10 0.250000 0.750000 0.500000
#
# Coordination Sequence:
#
# PCOD8276850 Si02
#       5
#     8  16  16   8   4
#     4  10  20  40  61  82 115 155 196 243 299 350
#     4  10  21  38  60  82 117 154 193 239 290 353
#     4  10  21  39  59  85 117 153 189 237 295 345
#     4  10  22  40  57  88 119 147 198 251 293 338
#     4   8  22  36  60  80 130 144 194 246 286 340
#
# _framework density 18.289729999999999
#
# number of rings (size 3 to 8) (size 9 to 14) (size 15 to 20)
#    0.923    1.231    1.538    1.385    2.154    0.615 
#    5.538    1.538    0.000    0.000    0.000    0.000 
#    0.000    0.000    0.000    0.000    0.000    0.000 
#
# Total GULP energy -322168.403735 kJ/mol
# GULP energy per Si atom -12391.092451 kJ/mol
# Density = 1.824810 g / cm^3
# Si number density = 18.289730 Si / 1000 Ang^3
#
#
#
# Elastic Constant Matrix: (Units=GPa)
#
#
# Indices 1 2 3 4 5 6 
#
# 1 78.1849 81.4842 38.1297 0.0000 0.0000 0.0000
# 2 81.4842 166.6969 82.1750 0.0000 0.0000 0.0000
# 3 38.1297 82.1750 167.7883 0.0000 0.0000 0.0000
# 4 0.0000 0.0000 0.0000 -967.1211 0.0000 0.0000
# 5 0.0000 0.0000 0.0000 0.0000 22.8333 0.0000
# 6 0.0000 0.0000 0.0000 0.0000 0.0000 44.3127
#
#
#
# Elastic Compliance Matrix: (Units=1/GPa)
#
#
# Indices 1 2 3 4 5 6 
#
# 1 0.026095 -0.012962 0.000418 0.000000 0.000000 0.000000
# 2 -0.012962 0.014346 -0.004081 0.000000 0.000000 0.000000
# 3 0.000418 -0.004081 0.007863 0.000000 0.000000 0.000000
# 4 0.000000 0.000000 0.000000 -0.001034 0.000000 0.000000
# 5 0.000000 0.000000 0.000000 0.000000 0.043796 0.000000
# 6 0.000000 0.000000 0.000000 0.000000 0.000000 0.022567
#
#
# Mechanical properties :
#
#
# Convention : Reuss Voigt Hill
#
# Bulk Modulus (GPa) = 66.41842 90.69420 78.55631
# Shear Modulus (GPa) = 32.91615 -165.93629 -66.51007
#
# Velocity S-wave (km/s) = 4.24690 -9.53538 -6.03686
# Velocity P-wave (km/s) = 7.77442 8.45790 2.35526
#
# Compressibility (1/GPa) = 0.01505606
#
# Stress axis : x y z
#
# Youngs Moduli (GPa) = 38.32141 69.70363 127.17088
#
# Poissons Ratio (x) = 0.90348 -0.05316
# Poissons Ratio (y) = 0.49671 0.51894
# Poissons Ratio (z) = -0.01602 0.28444
#
# Static dielectric constant tensor:
#      x y z
#    x 3.305010 0.000000 0.000000 
#    y 0.000000 3.269720 0.000000 
#    z 0.000000 0.000000 3.700770 
# 
# 
# High freq. dielectric constant tensor:
#      x y z
#    x 1.689670 0.000000 0.000000 
#    y 0.000000 1.710760 0.000000 
#    z 0.000000 0.000000 1.727950 
# 
# From -- ./inp_files/3664.got.cif
#   From: 2010.03.12/outbox.cif.g09.slc.cpg/sg66_2_cif.got.tgz:3664.got - 2010.04.10 21:57:39.
