data_PCOD8276356
_publ_section_title
;
Structure prediction by ZEFSAII (Michael W. Deem and Ramdas Pophale) SiO2 
 PCOD8276356
Probable space group: C C C M
;
_chemical_formula_sum "Si O2"
_cell_formula_units_Z 112
_cell_length_a 17.026377
_cell_length_b 13.607063
_cell_length_c 28.312203
_cell_angle_alpha 90.000000
_cell_angle_beta 90.000000
_cell_angle_gamma 90.000000
_cell_volume 6559.342440
_symmetry_space_group_name_H-M "C C C M"
_symmetry_group_IT_number 66
_symmetry_cell_setting 'orthorhombic'
loop_
_space_group_symop_operation_xyz
x,y,z
-x,-y,z
x,-y,1/2-z
-x,y,1/2-z
-x,-y,-z
x,y,-z
-x,y,1/2+z
x,-y,1/2+z
1/2+x,1/2+y,z
1/2-x,1/2-y,z
1/2+x,1/2-y,1/2-z
1/2-x,1/2+y,1/2-z
1/2-x,1/2-y,-z
1/2+x,1/2+y,-z
1/2-x,1/2+y,1/2+z
1/2+x,1/2-y,1/2+z
loop_
_atom_site_type_symbol
_atom_site_label
_atom_site_fract_x
_atom_site_fract_y
_atom_site_fract_z
Si Si1 0.714004 0.011418 0.861971
Si Si2 0.818805 0.923404 0.213306
Si Si3 0.554741 0.904585 0.858841
Si Si4 0.524221 0.114773 0.051361
Si Si5 0.290258 0.144933 0.446301
Si Si6 0.427719 0.750101 0.722493
Si Si7 0.302234 0.162518 0.715326
O O1 0.742933 0.061674 0.910791
O O2 0.676257 0.091309 0.827166
O O3 0.791768 0.968340 0.836734
O O4 0.645409 0.931892 0.869837
O O5 0.877154 0.836303 0.198899
O O6 0.741511 0.886562 0.240341
O O7 0.860066 0.000000 0.250000
O O8 0.524201 0.841801 0.904496
O O9 0.548132 0.831671 0.815129
O O10 0.500000 0.000000 0.849448
O O11 0.615516 0.140847 0.059963
O O12 0.500000 0.000000 0.051875
O O13 0.499651 0.158646 0.000000
O O14 0.267660 0.116253 0.500000
O O15 0.250000 0.250000 0.433887
O O16 0.500000 0.701249 0.750000
O O17 0.383920 0.801001 0.765599
O O18 0.250000 0.250000 0.693883
#
# Coordination Sequence:
#
# PCOD8276356 Si02
#       7
#    16  16  16  16  16  16  16
#     4  11  18  31  53  73 106 138 174 216 263 339
#     4   9  20  37  53  68  97 148 185 211 265 314
#     4  11  20  30  50  80 107 133 169 208 278 333
#     4   9  17  32  50  73 109 140 167 210 278 341
#     4  10  20  33  53  81 108 137 179 230 279 334
#     4  11  22  33  50  74 108 137 179 232 256 313
#     4   9  18  32  48  71  98 136 173 211 267 307
#
# _framework density 17.074881999999999
#
# number of rings (size 3 to 8) (size 9 to 14) (size 15 to 20)
#    0.000    2.000    4.286    1.286    0.000    1.714 
#    0.000    0.000    0.000    0.857    0.000    2.000 
#    0.000    3.429    0.000    0.000    0.000    0.000 
#
# Total GULP energy -693844.582619 kJ/mol
# GULP energy per Si atom -12390.081832 kJ/mol
# Density = 1.703602 g / cm^3
# Si number density = 17.074882 Si / 1000 Ang^3
#
#
#
# Elastic Constant Matrix: (Units=GPa)
#
#
# Indices 1 2 3 4 5 6 
#
# 1 66.0557 38.3104 55.7955 0.0000 0.0000 0.0000
# 2 38.3104 70.7477 42.2441 0.0000 0.0000 0.0000
# 3 55.7955 42.2441 107.4508 0.0000 0.0000 0.0000
# 4 0.0000 0.0000 0.0000 24.9239 0.0000 0.0000
# 5 0.0000 0.0000 0.0000 0.0000 32.8246 0.0000
# 6 0.0000 0.0000 0.0000 0.0000 0.0000 30.1728
#
#
#
# Elastic Compliance Matrix: (Units=1/GPa)
#
#
# Indices 1 2 3 4 5 6 
#
# 1 0.031123 -0.009413 -0.012460 0.000000 0.000000 0.000000
# 2 -0.009413 0.021318 -0.003493 0.000000 0.000000 0.000000
# 3 -0.012460 -0.003493 0.017150 0.000000 0.000000 0.000000
# 4 0.000000 0.000000 0.000000 0.040122 0.000000 0.000000
# 5 0.000000 0.000000 0.000000 0.000000 0.030465 0.000000
# 6 0.000000 0.000000 0.000000 0.000000 0.000000 0.033142
#
#
# Mechanical properties :
#
#
# Convention : Reuss Voigt Hill
#
# Bulk Modulus (GPa) = 53.02874 57.43933 55.23403
# Shear Modulus (GPa) = 21.70708 24.77786 23.24247
#
# Velocity S-wave (km/s) = 3.56938 3.81350 3.69346
# Velocity P-wave (km/s) = 6.93623 7.28719 7.11387
#
# Compressibility (1/GPa) = 0.01885770
#
# Stress axis : x y z
#
# Youngs Moduli (GPa) = 32.13059 46.90915 58.30870
#
# Poissons Ratio (x) = 0.44156 0.72654
# Poissons Ratio (y) = 0.30245 0.20368
# Poissons Ratio (z) = 0.40036 0.16386
#
# Static dielectric constant tensor:
#      x y z
#    x -1.900300 0.000000 0.000000 
#    y 0.000000 3.176350 0.000000 
#    z 0.000000 0.000000 3.502890 
# 
# 
# High freq. dielectric constant tensor:
#      x y z
#    x 1.646490 0.000000 0.000000 
#    y 0.000000 1.635000 0.000000 
#    z 0.000000 0.000000 1.664820 
# 
# From -- ./inp_files/69618.got.cif
#   From: 2010.03.12/outbox.cif.g09.slc.cpg/sg66_35_cif.got.tgz:69618.got - 2010.04.10 21:57:39.
