data_PCOD8276645
_publ_section_title
;
Structure prediction by ZEFSAII (Michael W. Deem and Ramdas Pophale) SiO2 
 PCOD8276645
Probable space group: C C C M
;
_chemical_formula_sum "Si O2"
_cell_formula_units_Z 88
_cell_length_a 11.592692
_cell_length_b 25.335571
_cell_length_c 14.588596
_cell_angle_alpha 90.000000
_cell_angle_beta 90.000000
_cell_angle_gamma 90.000000
_cell_volume 4284.779640
_symmetry_space_group_name_H-M "C C C M"
_symmetry_group_IT_number 66
_symmetry_cell_setting 'orthorhombic'
loop_
_space_group_symop_operation_xyz
x,y,z
-x,-y,z
x,-y,1/2-z
-x,y,1/2-z
-x,-y,-z
x,y,-z
-x,y,1/2+z
x,-y,1/2+z
1/2+x,1/2+y,z
1/2-x,1/2-y,z
1/2+x,1/2-y,1/2-z
1/2-x,1/2+y,1/2-z
1/2-x,1/2-y,-z
1/2+x,1/2+y,-z
1/2-x,1/2+y,1/2+z
1/2+x,1/2-y,1/2+z
loop_
_atom_site_type_symbol
_atom_site_label
_atom_site_fract_x
_atom_site_fract_y
_atom_site_fract_z
Si Si1 0.547684 0.139587 0.000000
Si Si2 0.496018 0.441441 0.104133
Si Si3 0.608079 0.348481 0.189074
Si Si4 0.685259 0.806127 0.000000
Si Si5 0.206277 0.808598 0.000000
Si Si6 0.237683 0.115035 0.148940
Si Si7 0.967130 0.441407 0.353517
O O1 0.457011 0.189747 0.000000
O O2 0.680551 0.155652 0.000000
O O3 0.530798 0.103187 0.911448
O O4 0.500000 0.500000 0.145246
O O5 0.584593 0.409097 0.164873
O O6 0.374276 0.412733 0.109293
O O7 0.540218 0.442092 0.000000
O O8 0.500000 0.324375 0.250000
O O9 0.720553 0.355828 0.252717
O O10 0.631209 0.316881 0.093839
O O11 0.750000 0.750000 0.000000
O O12 0.727711 0.835391 0.910733
O O13 0.250000 0.750000 0.000000
O O14 0.330319 0.068104 0.143282
O O15 0.000000 0.500000 0.389525
O O16 0.000000 0.433325 0.250000
#
# Coordination Sequence:
#
# PCOD8276645 Si02
#       7
#     8  16  16   8   8  16  16
#     4  10  23  40  60  90 124 160 205 263 311 369
#     4  10  20  36  59  91 125 161 202 247 311 380
#     4  10  23  41  65  91 127 166 209 262 313 378
#     4  10  22  41  66  89 118 167 219 269 315 369
#     4  12  26  45  64  93 130 165 206 266 327 366
#     4  10  21  38  61  89 123 159 211 260 306 373
#     4  10  21  38  59  87 122 163 205 247 303 375
#
# _framework density 20.537813
#
# number of rings (size 3 to 8) (size 9 to 14) (size 15 to 20)
#    0.000    1.818    1.818    1.364    0.000   11.273 
#    0.000    2.727    0.000    0.000    0.000    0.000 
#    0.000    0.000    0.000    0.000    0.000    0.000 
#
# Total GULP energy -545155.300518 kJ/mol
# GULP energy per Si atom -12389.893194 kJ/mol
# Density = 2.049107 g / cm^3
# Si number density = 20.537813 Si / 1000 Ang^3
#
#
#
# Elastic Constant Matrix: (Units=GPa)
#
#
# Indices 1 2 3 4 5 6 
#
# 1 91.2886 41.5026 41.9169 0.0000 0.0000 0.0000
# 2 41.5026 106.6397 42.5905 0.0000 0.0000 0.0000
# 3 41.9169 42.5905 130.7922 0.0000 0.0000 0.0000
# 4 0.0000 0.0000 0.0000 34.0029 0.0000 0.0000
# 5 0.0000 0.0000 0.0000 0.0000 34.0477 0.0000
# 6 0.0000 0.0000 0.0000 0.0000 0.0000 29.6837
#
#
#
# Elastic Compliance Matrix: (Units=1/GPa)
#
#
# Indices 1 2 3 4 5 6 
#
# 1 0.014390 -0.004320 -0.003205 0.000000 0.000000 0.000000
# 2 -0.004320 0.012076 -0.002548 0.000000 0.000000 0.000000
# 3 -0.003205 -0.002548 0.009503 0.000000 0.000000 0.000000
# 4 0.000000 0.000000 0.000000 0.029409 0.000000 0.000000
# 5 0.000000 0.000000 0.000000 0.000000 0.029371 0.000000
# 6 0.000000 0.000000 0.000000 0.000000 0.000000 0.033689
#
#
# Mechanical properties :
#
#
# Convention : Reuss Voigt Hill
#
# Bulk Modulus (GPa) = 63.20078 64.52672 63.86375
# Shear Modulus (GPa) = 32.49753 33.06090 32.77922
#
# Velocity S-wave (km/s) = 3.98216 4.01653 3.99938
# Velocity P-wave (km/s) = 7.20994 7.27989 7.24500
#
# Compressibility (1/GPa) = 0.01582259
#
# Stress axis : x y z
#
# Youngs Moduli (GPa) = 69.49238 82.80617 105.23522
#
# Poissons Ratio (x) = 0.35776 0.33727
# Poissons Ratio (y) = 0.30023 0.26813
# Poissons Ratio (z) = 0.22272 0.21098
#
# Static dielectric constant tensor:
#      x y z
#    x 3.194350 0.000000 0.000000 
#    y 0.000000 3.585240 0.000000 
#    z 0.000000 0.000000 4.057520 
# 
# 
# High freq. dielectric constant tensor:
#      x y z
#    x 1.801710 0.000000 0.000000 
#    y 0.000000 1.787790 0.000000 
#    z 0.000000 0.000000 1.827880 
# 
# From -- ./inp_files/26592.got.cif
#   From: 2010.03.12/outbox.cif.g09.slc.cpg/sg66_14_cif.got.tgz:26592.got - 2010.04.10 21:57:39.
