data_PCOD8276809
_publ_section_title
;
Structure prediction by ZEFSAII (Michael W. Deem and Ramdas Pophale) SiO2 
 PCOD8276809
Probable space group: C C C M
;
_chemical_formula_sum "Si O2"
_cell_formula_units_Z 112
_cell_length_a 12.573863
_cell_length_b 14.836000
_cell_length_c 29.121354
_cell_angle_alpha 90.000000
_cell_angle_beta 90.000000
_cell_angle_gamma 90.000000
_cell_volume 5432.467195
_symmetry_space_group_name_H-M "C C C M"
_symmetry_group_IT_number 66
_symmetry_cell_setting 'orthorhombic'
loop_
_space_group_symop_operation_xyz
x,y,z
-x,-y,z
x,-y,1/2-z
-x,y,1/2-z
-x,-y,-z
x,y,-z
-x,y,1/2+z
x,-y,1/2+z
1/2+x,1/2+y,z
1/2-x,1/2-y,z
1/2+x,1/2-y,1/2-z
1/2-x,1/2+y,1/2-z
1/2-x,1/2-y,-z
1/2+x,1/2+y,-z
1/2-x,1/2+y,1/2+z
1/2+x,1/2-y,1/2+z
loop_
_atom_site_type_symbol
_atom_site_label
_atom_site_fract_x
_atom_site_fract_y
_atom_site_fract_z
Si Si1 0.199634 0.942352 0.707824
Si Si2 0.381788 0.015226 0.448111
Si Si3 0.547005 0.285611 0.300563
Si Si4 0.671342 0.483004 0.605955
Si Si5 0.362988 0.774188 0.051417
Si Si6 0.558451 0.084683 0.702592
Si Si7 0.018366 0.141490 0.392569
O O1 0.157857 0.839464 0.704978
O O2 0.178286 0.993913 0.660530
O O3 0.323790 0.941226 0.715352
O O4 0.147862 0.000000 0.750000
O O5 0.373492 0.975084 0.500000
O O6 0.368384 0.120276 0.449065
O O7 0.500000 0.000000 0.427406
O O8 0.287857 0.971358 0.417090
O O9 0.500000 0.285008 0.250000
O O10 0.558218 0.183658 0.321516
O O11 0.475663 0.340024 0.337662
O O12 0.598442 0.396153 0.593662
O O13 0.610019 0.572956 0.590260
O O14 0.250000 0.750000 0.074631
O O15 0.460977 0.733920 0.080300
O O16 0.369062 0.734038 0.000000
O O17 0.500000 0.098261 0.750000
O O18 0.500000 0.000000 0.675587
#
# Coordination Sequence:
#
# PCOD8276809 Si02
#       7
#    16  16  16  16  16  16  16
#     4  11  21  37  59  84 120 160 201 254 306 360
#     4  10  22  42  63  90 124 160 201 247 311 383
#     4  10  22  38  58  83 119 162 204 253 306 360
#     4  10  22  37  61  88 120 160 204 255 311 364
#     4  10  20  38  63  90 123 157 197 255 316 369
#     4  10  20  39  55  80 114 153 204 257 298 361
#     4  10  21  39  58  92 121 153 212 257 302 377
#
# _framework density 20.616783999999999
#
# number of rings (size 3 to 8) (size 9 to 14) (size 15 to 20)
#    0.000    1.857    2.857    1.286    0.000    4.857 
#    0.000    3.571    0.000    2.571    0.000    0.000 
#    0.000    0.000    0.000    0.000    0.000    0.000 
#
# Total GULP energy -693822.708170 kJ/mol
# GULP energy per Si atom -12389.691217 kJ/mol
# Density = 2.056986 g / cm^3
# Si number density = 20.616784 Si / 1000 Ang^3
#
#
#
# Elastic Constant Matrix: (Units=GPa)
#
#
# Indices 1 2 3 4 5 6 
#
# 1 134.3542 45.4273 39.8649 0.0000 0.0000 0.0000
# 2 45.4273 102.9739 22.7178 0.0000 0.0000 0.0000
# 3 39.8649 22.7178 82.7876 0.0000 0.0000 0.0000
# 4 0.0000 0.0000 0.0000 32.0121 0.0000 0.0000
# 5 0.0000 0.0000 0.0000 0.0000 28.9933 0.0000
# 6 0.0000 0.0000 0.0000 0.0000 0.0000 30.9609
#
#
#
# Elastic Compliance Matrix: (Units=1/GPa)
#
#
# Indices 1 2 3 4 5 6 
#
# 1 0.009722 -0.003466 -0.003730 0.000000 0.000000 0.000000
# 2 -0.003466 0.011573 -0.001507 0.000000 0.000000 0.000000
# 3 -0.003730 -0.001507 0.014289 0.000000 0.000000 0.000000
# 4 0.000000 0.000000 0.000000 0.031238 0.000000 0.000000
# 5 0.000000 0.000000 0.000000 0.000000 0.034491 0.000000
# 6 0.000000 0.000000 0.000000 0.000000 0.000000 0.032299
#
#
# Mechanical properties :
#
#
# Convention : Reuss Voigt Hill
#
# Bulk Modulus (GPa) = 55.01315 59.57064 57.29189
# Shear Modulus (GPa) = 31.83181 32.53362 32.18272
#
# Velocity S-wave (km/s) = 3.93361 3.97673 3.95523
# Velocity P-wave (km/s) = 6.88278 7.07410 6.97909
#
# Compressibility (1/GPa) = 0.01817747
#
# Stress axis : x y z
#
# Youngs Moduli (GPa) = 102.86288 86.41126 69.98481
#
# Poissons Ratio (x) = 0.29948 0.26106
# Poissons Ratio (y) = 0.35650 0.10545
# Poissons Ratio (z) = 0.38371 0.13020
#
# Static dielectric constant tensor:
#      x y z
#    x 3.554020 0.000000 0.000000 
#    y 0.000000 4.197850 0.000000 
#    z 0.000000 0.000000 3.673840 
# 
# 
# High freq. dielectric constant tensor:
#      x y z
#    x 1.806150 0.000000 0.000000 
#    y 0.000000 1.810750 0.000000 
#    z 0.000000 0.000000 1.789230 
# 
# From -- ./inp_files/69073.got.cif
#   From: 2010.03.12/outbox.cif.g09.slc.cpg/sg66_35_cif.got.tgz:69073.got - 2010.04.10 21:57:39.
