data_PCOD8276417
_publ_section_title
;
Structure prediction by ZEFSAII (Michael W. Deem and Ramdas Pophale) SiO2 
 PCOD8276417
Probable space group: C C C M
;
_chemical_formula_sum "Si O2"
_cell_formula_units_Z 128
_cell_length_a 19.776213
_cell_length_b 18.880237
_cell_length_c 19.811790
_cell_angle_alpha 90.000000
_cell_angle_beta 90.000000
_cell_angle_gamma 90.000000
_cell_volume 7397.317996
_symmetry_space_group_name_H-M "C C C M"
_symmetry_group_IT_number 66
_symmetry_cell_setting 'orthorhombic'
loop_
_space_group_symop_operation_xyz
x,y,z
-x,-y,z
x,-y,1/2-z
-x,y,1/2-z
-x,-y,-z
x,y,-z
-x,y,1/2+z
x,-y,1/2+z
1/2+x,1/2+y,z
1/2-x,1/2-y,z
1/2+x,1/2-y,1/2-z
1/2-x,1/2+y,1/2-z
1/2-x,1/2-y,-z
1/2+x,1/2+y,-z
1/2-x,1/2+y,1/2+z
1/2+x,1/2-y,1/2+z
loop_
_atom_site_type_symbol
_atom_site_label
_atom_site_fract_x
_atom_site_fract_y
_atom_site_fract_z
Si Si1 0.684517 0.976084 0.855963
Si Si2 0.451834 0.838867 0.810248
Si Si3 0.065258 0.546908 0.926057
Si Si4 0.533683 0.679416 0.319239
Si Si5 0.166903 0.110660 0.284420
Si Si6 0.466889 0.426864 0.921915
Si Si7 0.815080 0.385071 0.765487
Si Si8 0.166287 0.033836 0.856571
O O1 0.669692 0.905281 0.812487
O O2 0.758384 0.961454 0.888621
O O3 0.627323 0.993336 0.910587
O O4 0.685715 0.042444 0.806517
O O5 0.500000 0.868922 0.750000
O O6 0.450021 0.891791 0.872862
O O7 0.479288 0.762481 0.833257
O O8 0.374251 0.831151 0.785608
O O9 0.000000 0.500000 0.928745
O O10 0.079369 0.580810 0.000000
O O11 0.500000 0.653422 0.250000
O O12 0.613722 0.669009 0.309035
O O13 0.500309 0.636991 0.380532
O O14 0.241116 0.147903 0.281439
O O15 0.154790 0.080740 0.209858
O O16 0.156465 0.048317 0.338635
O O17 0.500000 0.500000 0.897431
O O18 0.386637 0.436045 0.910829
O O19 0.481265 0.410989 0.000000
#
# Coordination Sequence:
#
# PCOD8276417 Si02
#       8
#    16  16  16  16  16  16  16  16
#     4   8  15  28  50  77 102 126 164 211 256 303
#     4  10  21  34  51  76 105 134 169 216 265 308
#     4  10  20  34  54  78 102 135 172 207 260 324
#     4  11  21  33  51  73 100 136 180 213 258 313
#     4   9  16  28  51  75  99 130 170 212 256 303
#     4  11  22  33  48  73 101 136 179 219 261 308
#     4   8  15  29  48  76 103 127 162 209 259 302
#     4   9  16  29  50  75 100 132 168 215 261 294
#
# _framework density 17.303567999999999
#
# number of rings (size 3 to 8) (size 9 to 14) (size 15 to 20)
#    0.000    2.500    2.500    2.250    0.000    3.000 
#    0.000    0.000    0.000    0.000    0.000    3.500 
#    0.000    8.000    0.000    0.000    0.000    0.000 
#
# Total GULP energy -792961.520381 kJ/mol
# GULP energy per Si atom -12390.023756 kJ/mol
# Density = 1.726418 g / cm^3
# Si number density = 17.303568 Si / 1000 Ang^3
#
#
#
# Elastic Constant Matrix: (Units=GPa)
#
#
# Indices 1 2 3 4 5 6 
#
# 1 125.1446 31.9390 50.6418 0.0000 0.0000 0.0000
# 2 31.9390 55.5196 39.5767 0.0000 0.0000 0.0000
# 3 50.6418 39.5767 92.9074 0.0000 0.0000 0.0000
# 4 0.0000 0.0000 0.0000 17.6805 0.0000 0.0000
# 5 0.0000 0.0000 0.0000 0.0000 9.8912 0.0000
# 6 0.0000 0.0000 0.0000 0.0000 0.0000 22.4517
#
#
#
# Elastic Compliance Matrix: (Units=1/GPa)
#
#
# Indices 1 2 3 4 5 6 
#
# 1 0.010553 -0.002830 -0.004547 0.000000 0.000000 0.000000
# 2 -0.002830 0.026625 -0.009799 0.000000 0.000000 0.000000
# 3 -0.004547 -0.009799 0.017416 0.000000 0.000000 0.000000
# 4 0.000000 0.000000 0.000000 0.056560 0.000000 0.000000
# 5 0.000000 0.000000 0.000000 0.000000 0.101100 0.000000
# 6 0.000000 0.000000 0.000000 0.000000 0.000000 0.044540
#
#
# Mechanical properties :
#
#
# Convention : Reuss Voigt Hill
#
# Bulk Modulus (GPa) = 49.40140 57.54298 53.47219
# Shear Modulus (GPa) = 16.78463 20.09896 18.44179
#
# Velocity S-wave (km/s) = 3.11788 3.41185 3.26817
# Velocity P-wave (km/s) = 6.44774 6.98914 6.72389
#
# Compressibility (1/GPa) = 0.02024234
#
# Stress axis : x y z
#
# Youngs Moduli (GPa) = 94.76112 37.55896 57.41842
#
# Poissons Ratio (x) = 0.10628 0.26107
# Poissons Ratio (y) = 0.26814 0.56266
# Poissons Ratio (z) = 0.43085 0.36805
#
# Static dielectric constant tensor:
#      x y z
#    x 3.617430 0.000000 0.000000 
#    y 0.000000 2.992740 0.000000 
#    z 0.000000 0.000000 3.181590 
# 
# 
# High freq. dielectric constant tensor:
#      x y z
#    x 1.688470 0.000000 0.000000 
#    y 0.000000 1.638790 0.000000 
#    z 0.000000 0.000000 1.645110 
# 
# From -- ./inp_files/51286.got.cif
#   From: 2010.03.12/outbox.cif.g09.slc.cpg/sg66_26_cif.got.tgz:51286.got - 2010.04.10 21:57:39.
