data_PCOD8276640
_publ_section_title
;
Structure prediction by ZEFSAII (Michael W. Deem and Ramdas Pophale) SiO2 
 PCOD8276640
Probable space group: C C C M
;
_chemical_formula_sum "Si O2"
_cell_formula_units_Z 80
_cell_length_a 11.443975
_cell_length_b 23.179672
_cell_length_c 14.904684
_cell_angle_alpha 90.000000
_cell_angle_beta 90.000000
_cell_angle_gamma 90.000000
_cell_volume 3953.729558
_symmetry_space_group_name_H-M "C C C M"
_symmetry_group_IT_number 66
_symmetry_cell_setting 'orthorhombic'
loop_
_space_group_symop_operation_xyz
x,y,z
-x,-y,z
x,-y,1/2-z
-x,y,1/2-z
-x,-y,-z
x,y,-z
-x,y,1/2+z
x,-y,1/2+z
1/2+x,1/2+y,z
1/2-x,1/2-y,z
1/2+x,1/2-y,1/2-z
1/2-x,1/2+y,1/2-z
1/2-x,1/2-y,-z
1/2+x,1/2+y,-z
1/2-x,1/2+y,1/2+z
1/2+x,1/2-y,1/2+z
loop_
_atom_site_type_symbol
_atom_site_label
_atom_site_fract_x
_atom_site_fract_y
_atom_site_fract_z
Si Si1 0.176691 0.364788 0.000000
Si Si2 0.371644 0.518339 0.651130
Si Si3 0.814490 0.147840 0.329673
Si Si4 0.298063 0.998838 0.000000
Si Si5 0.918283 0.616927 0.500000
Si Si6 0.611290 0.839383 0.305821
Si Si7 0.000000 0.770242 0.750000
O O1 0.235460 0.334464 0.085531
O O2 0.167824 0.434409 0.000000
O O3 0.041595 0.350663 0.000000
O O4 0.500000 0.500000 0.621368
O O5 0.337663 0.500000 0.750000
O O6 0.369991 0.586963 0.644901
O O7 0.279351 0.486680 0.587697
O O8 0.731950 0.145480 0.243340
O O9 0.921995 0.191297 0.316574
O O10 0.406726 0.953538 0.000000
O O11 0.863559 0.638188 0.406212
O O12 0.500000 0.868077 0.250000
O O13 0.587426 0.770283 0.308398
#
# Coordination Sequence:
#
# PCOD8276640 Si02
#       7
#     8  16  16   8   8  16   8
#     4  10  21  38  63  90 120 163 215 245 310 389
#     4  10  20  36  59  89 120 162 204 246 309 381
#     4  11  21  41  63  90 125 161 201 265 311 366
#     4  10  22  34  58  89 127 154 205 263 308 369
#     4  12  21  40  60  87 122 173 201 259 320 367
#     4  10  23  39  62  86 123 159 210 258 307 368
#     4  10  22  40  63  88 125 156 208 260 312 364
#
# _framework density 20.234058999999998
#
# number of rings (size 3 to 8) (size 9 to 14) (size 15 to 20)
#    0.600    1.000    2.000    3.600    0.000    0.800 
#    0.000    5.000    0.000    0.000    0.000    0.000 
#    0.000    0.000    0.000    0.000    0.000    0.000 
#
# Total GULP energy -495652.216979 kJ/mol
# GULP energy per Si atom -12391.305424 kJ/mol
# Density = 2.018801 g / cm^3
# Si number density = 20.234059 Si / 1000 Ang^3
#
#
#
# Elastic Constant Matrix: (Units=GPa)
#
#
# Indices 1 2 3 4 5 6 
#
# 1 84.5035 24.6475 21.6391 0.0000 0.0000 0.0000
# 2 24.6475 82.5198 17.7675 0.0000 0.0000 0.0000
# 3 21.6391 17.7675 121.7001 0.0000 0.0000 0.0000
# 4 0.0000 0.0000 0.0000 23.5000 0.0000 0.0000
# 5 0.0000 0.0000 0.0000 0.0000 15.2317 0.0000
# 6 0.0000 0.0000 0.0000 0.0000 0.0000 25.3322
#
#
#
# Elastic Compliance Matrix: (Units=1/GPa)
#
#
# Indices 1 2 3 4 5 6 
#
# 1 0.013355 -0.003591 -0.001850 0.000000 0.000000 0.000000
# 2 -0.003591 0.013477 -0.001329 0.000000 0.000000 0.000000
# 3 -0.001850 -0.001329 0.008740 0.000000 0.000000 0.000000
# 4 0.000000 0.000000 0.000000 0.042553 0.000000 0.000000
# 5 0.000000 0.000000 0.000000 0.000000 0.065652 0.000000
# 6 0.000000 0.000000 0.000000 0.000000 0.000000 0.039475
#
#
# Mechanical properties :
#
#
# Convention : Reuss Voigt Hill
#
# Bulk Modulus (GPa) = 45.38907 46.31461 45.85184
# Shear Modulus (GPa) = 24.49338 27.79075 26.14206
#
# Velocity S-wave (km/s) = 3.48300 3.71005 3.59832
# Velocity P-wave (km/s) = 6.21738 6.42586 6.32248
#
# Compressibility (1/GPa) = 0.02203173
#
# Stress axis : x y z
#
# Youngs Moduli (GPa) = 74.87875 74.20096 114.41673
#
# Poissons Ratio (x) = 0.26642 0.21172
# Poissons Ratio (y) = 0.26885 0.15207
# Poissons Ratio (z) = 0.13856 0.09862
#
# Static dielectric constant tensor:
#      x y z
#    x 0.000000 0.000000 0.000000 
#    y 0.000000 0.000000 0.000000 
#    z 0.000000 0.000000 0.000000 
# 
# 
# High freq. dielectric constant tensor:
#      x y z
#    x 1.790460 0.000000 0.000000 
#    y 0.000000 1.779250 0.000000 
#    z 0.000000 0.000000 1.793220 
# 
# From -- ./inp_files/26493.got.cif
#   From: 2010.03.12/outbox.cif.g09.slc.cpg/sg66_14_cif.got.tgz:26493.got - 2010.04.10 21:57:39.
