data_PCOD8276126
_publ_section_title
;
Structure prediction by ZEFSAII (Michael W. Deem and Ramdas Pophale) SiO2 
 PCOD8276126
Probable space group: C C C M
;
_chemical_formula_sum "Si O2"
_cell_formula_units_Z 96
_cell_length_a 19.608614
_cell_length_b 30.035574
_cell_length_c 8.849405
_cell_angle_alpha 90.000000
_cell_angle_beta 90.000000
_cell_angle_gamma 90.000000
_cell_volume 5211.909966
_symmetry_space_group_name_H-M "C C C M"
_symmetry_group_IT_number 66
_symmetry_cell_setting 'orthorhombic'
loop_
_space_group_symop_operation_xyz
x,y,z
-x,-y,z
x,-y,1/2-z
-x,y,1/2-z
-x,-y,-z
x,y,-z
-x,y,1/2+z
x,-y,1/2+z
1/2+x,1/2+y,z
1/2-x,1/2-y,z
1/2+x,1/2-y,1/2-z
1/2-x,1/2+y,1/2-z
1/2-x,1/2-y,-z
1/2+x,1/2+y,-z
1/2-x,1/2+y,1/2+z
1/2+x,1/2-y,1/2+z
loop_
_atom_site_type_symbol
_atom_site_label
_atom_site_fract_x
_atom_site_fract_y
_atom_site_fract_z
Si Si1 0.295633 0.373846 0.821561
Si Si2 0.931764 0.737642 0.676328
Si Si3 0.285335 0.048391 0.323024
Si Si4 0.563979 0.047890 0.174355
Si Si5 0.286965 0.796232 0.824328
Si Si6 0.070034 0.160770 0.320722
O O1 0.267528 0.420450 0.762139
O O2 0.244619 0.334325 0.777835
O O3 0.368903 0.367998 0.745776
O O4 0.303855 0.375358 0.000000
O O5 0.943940 0.737551 0.500000
O O6 0.866562 0.707899 0.719722
O O7 0.918924 0.788145 0.731278
O O8 0.000000 0.717242 0.750000
O O9 0.267555 0.045216 0.500000
O O10 0.361468 0.069730 0.301030
O O11 0.280039 0.000000 0.250000
O O12 0.500000 0.074945 0.250000
O O13 0.567157 0.000000 0.250000
O O14 0.547163 0.042619 0.000000
O O15 0.250000 0.750000 0.789317
O O16 0.277135 0.809053 0.000000
O O17 0.068553 0.155760 0.500000
O O18 0.000000 0.142315 0.250000
#
# Coordination Sequence:
#
# PCOD8276126 Si02
#       6
#    16  16  16  16  16  16
#     4  12  24  36  55  85 114 147 188 232 278 333
#     4   9  18  32  53  77 107 147 186 226 276 330
#     4  10  21  38  58  81 110 146 186 234 285 336
#     4   9  16  27  48  75 102 133 172 217 268 320
#     4  10  19  36  56  77 109 149 185 225 280 332
#     4  10  19  35  56  82 112 145 184 229 275 329
#
# _framework density 18.419352
#
# number of rings (size 3 to 8) (size 9 to 14) (size 15 to 20)
#    0.000    2.000    1.667    3.500    0.000    3.667 
#    0.000    0.833    0.000    0.500    0.000    3.500 
#    0.000    0.000    0.000    0.000    0.000    0.000 
#
# Total GULP energy -595087.503373 kJ/mol
# GULP energy per Si atom -12397.656320 kJ/mol
# Density = 1.837743 g / cm^3
# Si number density = 18.419352 Si / 1000 Ang^3
#
#
#
# Elastic Constant Matrix: (Units=GPa)
#
#
# Indices 1 2 3 4 5 6 
#
# 1 155.4297 50.6354 64.5814 0.0000 0.0000 0.0000
# 2 50.6354 58.6001 34.9600 0.0000 0.0000 0.0000
# 3 64.5814 34.9600 110.5317 0.0000 0.0000 0.0000
# 4 0.0000 0.0000 0.0000 25.2594 0.0000 0.0000
# 5 0.0000 0.0000 0.0000 0.0000 35.5746 0.0000
# 6 0.0000 0.0000 0.0000 0.0000 0.0000 27.3847
#
#
#
# Elastic Compliance Matrix: (Units=1/GPa)
#
#
# Indices 1 2 3 4 5 6 
#
# 1 0.010152 -0.006451 -0.003891 0.000000 0.000000 0.000000
# 2 -0.006451 0.025133 -0.004180 0.000000 0.000000 0.000000
# 3 -0.003891 -0.004180 0.012643 0.000000 0.000000 0.000000
# 4 0.000000 0.000000 0.000000 0.039589 0.000000 0.000000
# 5 0.000000 0.000000 0.000000 0.000000 0.028110 0.000000
# 6 0.000000 0.000000 0.000000 0.000000 0.000000 0.036517
#
#
# Mechanical properties :
#
#
# Convention : Reuss Voigt Hill
#
# Bulk Modulus (GPa) = 52.95720 69.43501 61.19610
# Shear Modulus (GPa) = 26.66913 29.26939 27.96926
#
# Velocity S-wave (km/s) = 3.80924 3.99062 3.90098
# Velocity P-wave (km/s) = 6.93976 7.68193 7.32026
#
# Compressibility (1/GPa) = 0.01888317
#
# Stress axis : x y z
#
# Youngs Moduli (GPa) = 98.50112 39.78893 79.09535
#
# Poissons Ratio (x) = 0.25667 0.30779
# Poissons Ratio (y) = 0.63541 0.33063
# Poissons Ratio (z) = 0.38331 0.16632
#
# Static dielectric constant tensor:
#      x y z
#    x 3.944130 0.000000 0.000000 
#    y 0.000000 3.057880 0.000000 
#    z 0.000000 0.000000 3.434660 
# 
# 
# High freq. dielectric constant tensor:
#      x y z
#    x 1.731740 0.000000 0.000000 
#    y 0.000000 1.672650 0.000000 
#    z 0.000000 0.000000 1.722440 
# 
# From -- ./inp_files/7996.got.cif
#   From: 2010.03.12/outbox.cif.g09.slc.cpg/sg66_4_cif.got.tgz:7996.got - 2010.04.10 21:57:39.
