data_PCOD8276297
_publ_section_title
;
Structure prediction by ZEFSAII (Michael W. Deem and Ramdas Pophale) SiO2 
 PCOD8276297
Probable space group: C C C M
;
_chemical_formula_sum "Si O2"
_cell_formula_units_Z 80
_cell_length_a 18.649667
_cell_length_b 26.697643
_cell_length_c 8.503222
_cell_angle_alpha 90.000000
_cell_angle_beta 90.000000
_cell_angle_gamma 90.000000
_cell_volume 4233.772530
_symmetry_space_group_name_H-M "C C C M"
_symmetry_group_IT_number 66
_symmetry_cell_setting 'orthorhombic'
loop_
_space_group_symop_operation_xyz
x,y,z
-x,-y,z
x,-y,1/2-z
-x,y,1/2-z
-x,-y,-z
x,y,-z
-x,y,1/2+z
x,-y,1/2+z
1/2+x,1/2+y,z
1/2-x,1/2-y,z
1/2+x,1/2-y,1/2-z
1/2-x,1/2+y,1/2-z
1/2-x,1/2-y,-z
1/2+x,1/2+y,-z
1/2-x,1/2+y,1/2+z
1/2+x,1/2-y,1/2+z
loop_
_atom_site_type_symbol
_atom_site_label
_atom_site_fract_x
_atom_site_fract_y
_atom_site_fract_z
Si Si1 0.783065 0.196639 0.184332
Si Si2 0.573109 0.944926 0.184478
Si Si3 0.922715 0.846423 0.185969
Si Si4 0.221370 0.599163 0.316229
Si Si5 0.358524 0.446330 0.684558
O O1 0.750000 0.250000 0.228033
O O2 0.865571 0.192083 0.238509
O O3 0.735775 0.156802 0.278612
O O4 0.778197 0.185191 0.000000
O O5 0.500000 0.920170 0.250000
O O6 0.640399 0.911658 0.237786
O O7 0.584132 0.000000 0.250000
O O8 0.566733 0.948305 0.000000
O O9 0.905641 0.903581 0.232635
O O10 0.000000 0.830544 0.250000
O O11 0.920127 0.841090 0.000000
O O12 0.233371 0.588485 0.500000
O O13 0.274753 0.562882 0.220904
O O14 0.383175 0.500000 0.750000
O O15 0.372649 0.444029 0.500000
#
# Coordination Sequence:
#
# PCOD8276297 Si02
#       5
#    16  16  16  16  16
#     4  10  21  38  60  84 108 138 177 220 268 319
#     4  10  20  32  49  73 103 139 177 215 261 314
#     4  11  22  38  59  83 112 144 179 219 266 317
#     4  10  20  34  53  78 105 138 179 222 269 319
#     4  11  21  34  53  79 110 145 183 220 262 313
#
# _framework density 18.895676999999999
#
# number of rings (size 3 to 8) (size 9 to 14) (size 15 to 20)
#    0.000    1.600    0.000    9.000    0.000    6.800 
#    0.000    3.000    0.000    2.400    0.000    0.000 
#    0.000    0.000    0.000    0.000    0.000    0.000 
#
# Total GULP energy -496112.817373 kJ/mol
# GULP energy per Si atom -12402.820434 kJ/mol
# Density = 1.885267 g / cm^3
# Si number density = 18.895677 Si / 1000 Ang^3
#
#
#
# Elastic Constant Matrix: (Units=GPa)
#
#
# Indices 1 2 3 4 5 6 
#
# 1 147.9626 40.1947 17.2232 0.0000 0.0000 0.0000
# 2 40.1947 78.4130 4.3180 0.0000 0.0000 0.0000
# 3 17.2232 4.3180 56.9840 0.0000 0.0000 0.0000
# 4 0.0000 0.0000 0.0000 13.3472 0.0000 0.0000
# 5 0.0000 0.0000 0.0000 0.0000 58.1136 0.0000
# 6 0.0000 0.0000 0.0000 0.0000 0.0000 14.0789
#
#
#
# Elastic Compliance Matrix: (Units=1/GPa)
#
#
# Indices 1 2 3 4 5 6 
#
# 1 0.008104 -0.004036 -0.002144 0.000000 0.000000 0.000000
# 2 -0.004036 0.014817 0.000097 0.000000 0.000000 0.000000
# 3 -0.002144 0.000097 0.018189 0.000000 0.000000 0.000000
# 4 0.000000 0.000000 0.000000 0.074922 0.000000 0.000000
# 5 0.000000 0.000000 0.000000 0.000000 0.017208 0.000000
# 6 0.000000 0.000000 0.000000 0.000000 0.000000 0.071028
#
#
# Mechanical properties :
#
#
# Convention : Reuss Voigt Hill
#
# Bulk Modulus (GPa) = 34.54838 45.20347 39.87593
# Shear Modulus (GPa) = 22.11583 31.88286 26.99935
#
# Velocity S-wave (km/s) = 3.42485 4.11214 3.78413
# Velocity P-wave (km/s) = 5.82777 6.82062 6.34365
#
# Compressibility (1/GPa) = 0.02894491
#
# Stress axis : x y z
#
# Youngs Moduli (GPa) = 123.38844 67.49155 54.97722
#
# Poissons Ratio (x) = 0.27242 0.11785
# Poissons Ratio (y) = 0.49804 -0.00535
# Poissons Ratio (z) = 0.26451 -0.00656
#
# Static dielectric constant tensor:
#      x y z
#    x 3.766740 0.000000 0.000000 
#    y 0.000000 3.284540 0.000000 
#    z 0.000000 0.000000 3.604220 
# 
# 
# High freq. dielectric constant tensor:
#      x y z
#    x 1.741930 0.000000 0.000000 
#    y 0.000000 1.713030 0.000000 
#    z 0.000000 0.000000 1.754360 
# 
# From -- ./inp_files/6673.got.cif
#   From: 2010.03.12/outbox.cif.g09.slc.cpg/sg66_4_cif.got.tgz:6673.got - 2010.04.10 21:57:39.
