data_PCOD8276908
_publ_section_title
;
Structure prediction by ZEFSAII (Michael W. Deem and Ramdas Pophale) SiO2 
 PCOD8276908
Probable space group: C C C M
;
_chemical_formula_sum "Si O2"
_cell_formula_units_Z 68
_cell_length_a 32.667068
_cell_length_b 5.185542
_cell_length_c 20.921270
_cell_angle_alpha 90.000000
_cell_angle_beta 90.000000
_cell_angle_gamma 90.000000
_cell_volume 3543.988933
_symmetry_space_group_name_H-M "C C C M"
_symmetry_group_IT_number 66
_symmetry_cell_setting 'orthorhombic'
loop_
_space_group_symop_operation_xyz
x,y,z
-x,-y,z
x,-y,1/2-z
-x,y,1/2-z
-x,-y,-z
x,y,-z
-x,y,1/2+z
x,-y,1/2+z
1/2+x,1/2+y,z
1/2-x,1/2-y,z
1/2+x,1/2-y,1/2-z
1/2-x,1/2+y,1/2-z
1/2-x,1/2-y,-z
1/2+x,1/2+y,-z
1/2-x,1/2+y,1/2+z
1/2+x,1/2-y,1/2+z
loop_
_atom_site_type_symbol
_atom_site_label
_atom_site_fract_x
_atom_site_fract_y
_atom_site_fract_z
Si Si1 0.225026 0.499756 0.674817
Si Si2 0.500000 0.000000 0.750000
Si Si3 0.099776 0.040759 0.929210
Si Si4 0.070099 0.182447 0.691665
Si Si5 0.363919 0.943046 0.879931
O O1 0.217436 0.500000 0.750000
O O2 0.250000 0.750000 0.652715
O O3 0.181633 0.503160 0.640946
O O4 0.250000 0.250000 0.652780
O O5 0.527134 0.820539 0.704435
O O6 0.065710 0.987757 0.873762
O O7 0.134514 0.816776 0.923035
O O8 0.120165 0.317674 0.920801
O O9 0.079813 0.029054 0.000000
O O10 0.106127 0.395124 0.681640
O O11 0.083230 0.000000 0.750000
#
# Coordination Sequence:
#
# PCOD8276908 Si02
#       5
#    16   4  16  16  16
#     4  10  21  34  55  91 132 166 209 270 320 372
#     4  12  22  44  62 106 132 154 208 264 328 382
#     4  10  22  40  64  94 126 174 221 258 310 380
#     4  10  24  38  67  97 129 165 202 266 318 382
#     4  10  22  37  66  90 126 170 216 257 320 370
#
# _framework density 19.187418000000001
#
# number of rings (size 3 to 8) (size 9 to 14) (size 15 to 20)
#    1.412    0.471    0.000    3.882    4.941    0.941 
#    0.000    0.588    0.000   18.353    0.000    0.000 
#    0.000    0.000    0.000    0.000    0.000    0.000 
#
# Total GULP energy -421321.732798 kJ/mol
# GULP energy per Si atom -12391.815671 kJ/mol
# Density = 1.914375 g / cm^3
# Si number density = 19.187418 Si / 1000 Ang^3
#
#
#
# Elastic Constant Matrix: (Units=GPa)
#
#
# Indices 1 2 3 4 5 6 
#
# 1 92.0865 35.0251 55.1513 0.0000 0.0000 0.0000
# 2 35.0251 144.6986 48.8746 0.0000 0.0000 0.0000
# 3 55.1513 48.8746 137.2398 0.0000 0.0000 0.0000
# 4 0.0000 0.0000 0.0000 6.5759 0.0000 0.0000
# 5 0.0000 0.0000 0.0000 0.0000 12.2019 0.0000
# 6 0.0000 0.0000 0.0000 0.0000 0.0000 25.7984
#
#
#
# Elastic Compliance Matrix: (Units=1/GPa)
#
#
# Indices 1 2 3 4 5 6 
#
# 1 0.014692 -0.001776 -0.005272 0.000000 0.000000 0.000000
# 2 -0.001776 0.008070 -0.002161 0.000000 0.000000 0.000000
# 3 -0.005272 -0.002161 0.010174 0.000000 0.000000 0.000000
# 4 0.000000 0.000000 0.000000 0.152069 0.000000 0.000000
# 5 0.000000 0.000000 0.000000 0.000000 0.081955 0.000000
# 6 0.000000 0.000000 0.000000 0.000000 0.000000 0.038762
#
#
# Mechanical properties :
#
#
# Convention : Reuss Voigt Hill
#
# Bulk Modulus (GPa) = 68.86570 72.45853 70.66211
# Shear Modulus (GPa) = 15.19853 24.58017 19.88935
#
# Velocity S-wave (km/s) = 2.81750 3.58307 3.22309
# Velocity P-wave (km/s) = 6.82300 7.41373 7.12449
#
# Compressibility (1/GPa) = 0.01452102
#
# Stress axis : x y z
#
# Youngs Moduli (GPa) = 68.06409 123.90829 98.28520
#
# Poissons Ratio (x) = 0.22002 0.51814
# Poissons Ratio (y) = 0.12086 0.21235
# Poissons Ratio (z) = 0.35882 0.26771
#
# Static dielectric constant tensor:
#      x y z
#    x 3.218650 0.000000 0.000000 
#    y 0.000000 0.062450 0.000000 
#    z 0.000000 0.000000 3.378330 
# 
# 
# High freq. dielectric constant tensor:
#      x y z
#    x 1.719780 0.000000 0.000000 
#    y 0.000000 1.771230 0.000000 
#    z 0.000000 0.000000 1.730690 
# 
# From -- ./inp_files/52834.got.cif
#   From: 2010.03.12/outbox.cif.g09.slc.cpg/sg66_27_cif.got.tgz:52834.got - 2010.04.10 21:57:39.
