data_PCOD8276522
_publ_section_title
;
Structure prediction by ZEFSAII (Michael W. Deem and Ramdas Pophale) SiO2 
 PCOD8276522
Probable space group: C C C M
;
_chemical_formula_sum "Si O2"
_cell_formula_units_Z 116
_cell_length_a 27.338214
_cell_length_b 22.204909
_cell_length_c 9.519143
_cell_angle_alpha 90.000000
_cell_angle_beta 90.000000
_cell_angle_gamma 90.000000
_cell_volume 5778.524879
_symmetry_space_group_name_H-M "C C C M"
_symmetry_group_IT_number 66
_symmetry_cell_setting 'orthorhombic'
loop_
_space_group_symop_operation_xyz
x,y,z
-x,-y,z
x,-y,1/2-z
-x,y,1/2-z
-x,-y,-z
x,y,-z
-x,y,1/2+z
x,-y,1/2+z
1/2+x,1/2+y,z
1/2-x,1/2-y,z
1/2+x,1/2-y,1/2-z
1/2-x,1/2+y,1/2-z
1/2-x,1/2-y,-z
1/2+x,1/2+y,-z
1/2-x,1/2+y,1/2+z
1/2+x,1/2-y,1/2+z
loop_
_atom_site_type_symbol
_atom_site_label
_atom_site_fract_x
_atom_site_fract_y
_atom_site_fract_z
Si Si1 0.500000 0.000000 0.250000
Si Si2 0.130383 0.059837 0.333089
Si Si3 0.043554 0.272199 0.159193
Si Si4 0.376248 0.670918 0.337678
Si Si5 0.806565 0.242303 0.161728
Si Si6 0.076285 0.402513 0.840922
Si Si7 0.257185 0.554687 0.841173
Si Si8 0.163512 0.626027 0.159328
O O1 0.536208 0.956201 0.163332
O O2 0.117736 0.056025 0.500000
O O3 0.102816 0.115051 0.254811
O O4 0.187545 0.072844 0.304020
O O5 0.113780 0.000000 0.250000
O O6 0.088248 0.227287 0.174842
O O7 0.055174 0.339280 0.216446
O O8 0.000000 0.244521 0.250000
O O9 0.025456 0.276911 0.000000
O O10 0.368279 0.651479 0.500000
O O11 0.325357 0.691461 0.267813
O O12 0.750000 0.250000 0.195263
O O13 0.837945 0.302874 0.189842
O O14 0.813764 0.220913 0.000000
O O15 0.125587 0.413631 0.751235
O O16 0.093664 0.394840 0.000000
O O17 0.237841 0.500000 0.750000
O O18 0.220113 0.609181 0.812290
O O19 0.255022 0.532188 0.000000
O O20 0.148728 0.611539 0.000000
#
# Coordination Sequence:
#
# PCOD8276522 Si02
#       8
#     4  16  16  16  16  16  16  16
#     4  12  26  44  64  86 110 152 210 262 318 376
#     4  10  20  37  61  88 122 160 199 240 284 345
#     4  10  22  41  63  87 117 151 193 248 304 365
#     4  11  22  37  58  88 120 153 196 245 302 361
#     4  10  20  35  56  83 117 158 201 245 296 360
#     4  11  24  42  61  83 112 148 194 253 310 361
#     4   9  19  35  53  78 112 153 198 240 284 342
#     4  10  21  36  55  80 113 152 193 242 298 354
#
# _framework density 20.074327
#
# number of rings (size 3 to 8) (size 9 to 14) (size 15 to 20)
#    0.000    1.793    2.069    1.862    0.966    6.345 
#    0.000    1.379    0.000    0.414    0.000    2.897 
#    0.000    0.000    0.000    0.000    0.000    0.000 
#
# Total GULP energy -718973.183175 kJ/mol
# GULP energy per Si atom -12396.089365 kJ/mol
# Density = 2.002864 g / cm^3
# Si number density = 20.074327 Si / 1000 Ang^3
#
#
#
# Elastic Constant Matrix: (Units=GPa)
#
#
# Indices 1 2 3 4 5 6 
#
# 1 49.5973 14.6690 25.9358 0.0000 0.0000 0.0000
# 2 14.6690 105.2309 48.6120 0.0000 0.0000 0.0000
# 3 25.9358 48.6120 97.7920 0.0000 0.0000 0.0000
# 4 0.0000 0.0000 0.0000 32.3657 0.0000 0.0000
# 5 0.0000 0.0000 0.0000 0.0000 23.5744 0.0000
# 6 0.0000 0.0000 0.0000 0.0000 0.0000 24.5252
#
#
#
# Elastic Compliance Matrix: (Units=1/GPa)
#
#
# Indices 1 2 3 4 5 6 
#
# 1 0.023430 -0.000513 -0.005959 0.000000 0.000000 0.000000
# 2 -0.000513 0.012347 -0.006001 0.000000 0.000000 0.000000
# 3 -0.005959 -0.006001 0.014789 0.000000 0.000000 0.000000
# 4 0.000000 0.000000 0.000000 0.030897 0.000000 0.000000
# 5 0.000000 0.000000 0.000000 0.000000 0.042419 0.000000
# 6 0.000000 0.000000 0.000000 0.000000 0.000000 0.040774
#
#
# Mechanical properties :
#
#
# Convention : Reuss Voigt Hill
#
# Bulk Modulus (GPa) = 39.03314 47.89488 43.46401
# Shear Modulus (GPa) = 25.23420 26.98662 26.11041
#
# Velocity S-wave (km/s) = 3.54932 3.67050 3.61042
# Velocity P-wave (km/s) = 6.02357 6.47101 6.25129
#
# Compressibility (1/GPa) = 0.02561925
#
# Stress axis : x y z
#
# Youngs Moduli (GPa) = 42.67985 80.99219 67.61586
#
# Poissons Ratio (x) = 0.04158 0.40291
# Poissons Ratio (y) = 0.02191 0.40579
# Poissons Ratio (z) = 0.25432 0.48607
#
# Static dielectric constant tensor:
#      x y z
#    x 3.395210 0.000000 0.000000 
#    y 0.000000 3.812250 0.000000 
#    z 0.000000 0.000000 3.656130 
# 
# 
# High freq. dielectric constant tensor:
#      x y z
#    x 1.759840 0.000000 0.000000 
#    y 0.000000 1.788930 0.000000 
#    z 0.000000 0.000000 1.784160 
# 
# From -- ./inp_files/10606.got.cif
#   From: 2010.03.12/outbox.cif.g09.slc.cpg/sg66_6_cif.got.tgz:10606.got - 2010.04.10 21:57:39.
