data_PCOD8276139
_publ_section_title
;
Structure prediction by ZEFSAII (Michael W. Deem and Ramdas Pophale) SiO2 
 PCOD8276139
Probable space group: C C C M
;
_chemical_formula_sum "Si O2"
_cell_formula_units_Z 96
_cell_length_a 13.123110
_cell_length_b 21.346576
_cell_length_c 17.728944
_cell_angle_alpha 90.000000
_cell_angle_beta 90.000000
_cell_angle_gamma 90.000000
_cell_volume 4966.470513
_symmetry_space_group_name_H-M "C C C M"
_symmetry_group_IT_number 66
_symmetry_cell_setting 'orthorhombic'
loop_
_space_group_symop_operation_xyz
x,y,z
-x,-y,z
x,-y,1/2-z
-x,y,1/2-z
-x,-y,-z
x,y,-z
-x,y,1/2+z
x,-y,1/2+z
1/2+x,1/2+y,z
1/2-x,1/2-y,z
1/2+x,1/2-y,1/2-z
1/2-x,1/2+y,1/2-z
1/2-x,1/2-y,-z
1/2+x,1/2+y,-z
1/2-x,1/2+y,1/2+z
1/2+x,1/2-y,1/2+z
loop_
_atom_site_type_symbol
_atom_site_label
_atom_site_fract_x
_atom_site_fract_y
_atom_site_fract_z
Si Si1 0.080895 0.174161 0.911454
Si Si2 0.749143 0.511591 0.665706
Si Si3 0.515591 0.812844 0.086033
Si Si4 0.099205 0.609724 0.204055
Si Si5 0.787076 0.627700 0.851763
Si Si6 0.559690 0.438551 0.911372
O O1 0.031693 0.240650 0.892394
O O2 0.187107 0.168886 0.866998
O O3 0.001571 0.121930 0.881992
O O4 0.103791 0.165965 0.000000
O O5 0.708607 0.500000 0.750000
O O6 0.857525 0.547254 0.664898
O O7 0.763746 0.444524 0.625391
O O8 0.671321 0.557796 0.624019
O O9 0.427436 0.838652 0.141033
O O10 0.621335 0.849721 0.095157
O O11 0.478221 0.819929 0.000000
O O12 0.182655 0.636073 0.263612
O O13 0.000000 0.588917 0.250000
O O14 0.500000 0.500000 0.885091
O O15 0.573397 0.435160 0.000000
#
# Coordination Sequence:
#
# PCOD8276139 Si02
#       6
#    16  16  16  16  16  16
#     4  10  20  37  59  85 117 148 183 233 288 341
#     4  10  21  37  58  85 113 151 188 234 286 338
#     4  10  21  37  58  82 113 153 191 232 282 338
#     4   9  21  40  56  80 118 153 192 236 284 337
#     4  10  19  35  58  85 113 145 190 238 286 334
#     4  10  20  36  58  85 117 145 180 234 287 341
#
# _framework density 19.329623000000002
#
# number of rings (size 3 to 8) (size 9 to 14) (size 15 to 20)
#    0.000    2.167    1.667    1.000    0.000   10.667 
#    0.000   16.667    0.000    3.000    0.000    0.000 
#    0.000    0.000    0.000    0.000    0.000    0.000 
#
# Total GULP energy -595269.808699 kJ/mol
# GULP energy per Si atom -12401.454348 kJ/mol
# Density = 1.928563 g / cm^3
# Si number density = 19.329623 Si / 1000 Ang^3
#
#
#
# Elastic Constant Matrix: (Units=GPa)
#
#
# Indices 1 2 3 4 5 6 
#
# 1 97.7899 43.9455 47.7866 0.0000 0.0000 0.0000
# 2 43.9455 93.7566 43.5360 0.0000 0.0000 0.0000
# 3 47.7866 43.5360 61.0436 0.0000 0.0000 0.0000
# 4 0.0000 0.0000 0.0000 27.6573 0.0000 0.0000
# 5 0.0000 0.0000 0.0000 0.0000 34.5509 0.0000
# 6 0.0000 0.0000 0.0000 0.0000 0.0000 26.3488
#
#
#
# Elastic Compliance Matrix: (Units=1/GPa)
#
#
# Indices 1 2 3 4 5 6 
#
# 1 0.016998 -0.002674 -0.011400 0.000000 0.000000 0.000000
# 2 -0.002674 0.016368 -0.009580 0.000000 0.000000 0.000000
# 3 -0.011400 -0.009580 0.032138 0.000000 0.000000 0.000000
# 4 0.000000 0.000000 0.000000 0.036157 0.000000 0.000000
# 5 0.000000 0.000000 0.000000 0.000000 0.028943 0.000000
# 6 0.000000 0.000000 0.000000 0.000000 0.000000 0.037952
#
#
# Mechanical properties :
#
#
# Convention : Reuss Voigt Hill
#
# Bulk Modulus (GPa) = 54.95501 58.12514 56.54007
# Shear Modulus (GPa) = 22.52970 25.53289 24.03129
#
# Velocity S-wave (km/s) = 3.41772 3.63839 3.52978
# Velocity P-wave (km/s) = 6.63827 6.91276 6.77691
#
# Compressibility (1/GPa) = 0.01819670
#
# Stress axis : x y z
#
# Youngs Moduli (GPa) = 58.82954 61.09548 31.11566
#
# Poissons Ratio (x) = 0.16337 0.35471
# Poissons Ratio (y) = 0.15731 0.29809
# Poissons Ratio (z) = 0.67063 0.58530
#
# Static dielectric constant tensor:
#      x y z
#    x 3.487660 0.000000 0.000000 
#    y 0.000000 3.643580 0.000000 
#    z 0.000000 0.000000 3.463480 
# 
# 
# High freq. dielectric constant tensor:
#      x y z
#    x 1.748440 0.000000 0.000000 
#    y 0.000000 1.755850 0.000000 
#    z 0.000000 0.000000 1.741310 
# 
# From -- ./inp_files/38815.got.cif
#   From: 2010.03.12/outbox.cif.g09.slc.cpg/sg66_20_cif.got.tgz:38815.got - 2010.04.10 21:57:39.
