data_PCOD8276697
_publ_section_title
;
Structure prediction by ZEFSAII (Michael W. Deem and Ramdas Pophale) SiO2 
 PCOD8276697
Probable space group: C C C M
;
_chemical_formula_sum "Si O2"
_cell_formula_units_Z 112
_cell_length_a 15.905957
_cell_length_b 15.395183
_cell_length_c 23.640727
_cell_angle_alpha 90.000000
_cell_angle_beta 90.000000
_cell_angle_gamma 90.000000
_cell_volume 5789.025833
_symmetry_space_group_name_H-M "C C C M"
_symmetry_group_IT_number 66
_symmetry_cell_setting 'orthorhombic'
loop_
_space_group_symop_operation_xyz
x,y,z
-x,-y,z
x,-y,1/2-z
-x,y,1/2-z
-x,-y,-z
x,y,-z
-x,y,1/2+z
x,-y,1/2+z
1/2+x,1/2+y,z
1/2-x,1/2-y,z
1/2+x,1/2-y,1/2-z
1/2-x,1/2+y,1/2-z
1/2-x,1/2-y,-z
1/2+x,1/2+y,-z
1/2-x,1/2+y,1/2+z
1/2+x,1/2-y,1/2+z
loop_
_atom_site_type_symbol
_atom_site_label
_atom_site_fract_x
_atom_site_fract_y
_atom_site_fract_z
Si Si1 0.927633 0.621453 0.363458
Si Si2 0.679087 0.138770 0.753784
Si Si3 0.131949 0.168738 0.242610
Si Si4 0.392210 0.067563 0.851158
Si Si5 0.328760 0.806031 0.436737
Si Si6 0.487629 0.728162 0.935911
Si Si7 0.001529 0.103736 0.663963
O O1 0.859047 0.640330 0.316096
O O2 0.907331 0.523628 0.383105
O O3 0.926860 0.693618 0.413131
O O4 0.022187 0.620881 0.339482
O O5 0.778890 0.126096 0.757921
O O6 0.647966 0.230380 0.728461
O O7 0.647935 0.061620 0.711728
O O8 0.091257 0.130943 0.185294
O O9 0.070324 0.146604 0.294593
O O10 0.329294 0.114889 0.893441
O O11 0.313849 0.842033 0.500000
O O12 0.250000 0.750000 0.416823
O O13 0.415096 0.753404 0.434525
O O14 0.477986 0.641724 0.898032
O O15 0.458754 0.707391 0.000000
O O16 0.000000 0.000000 0.662598
#
# Coordination Sequence:
#
# PCOD8276697 Si02
#       7
#    16  16  16  16  16  16  16
#     4  10  20  37  52  82 121 151 192 240 282 350
#     4  11  21  34  58  86 119 154 189 237 290 363
#     4  10  22  37  58  86 116 153 190 235 311 356
#     4  10  21  30  55  87 115 156 191 228 291 350
#     4   9  19  35  54  81 116 147 188 243 295 347
#     4  10  21  39  63  82 110 160 203 243 297 352
#     4  11  23  40  60  85 118 150 197 256 297 358
#
# _framework density 19.346952000000002
#
# number of rings (size 3 to 8) (size 9 to 14) (size 15 to 20)
#    0.000    1.857    1.429    3.429    6.000    4.286 
#    0.000    2.857    0.000    1.714    0.000    0.000 
#    0.000    0.000    0.000    0.000    0.000    0.000 
#
# Total GULP energy -693994.339946 kJ/mol
# GULP energy per Si atom -12392.756070 kJ/mol
# Density = 1.930292 g / cm^3
# Si number density = 19.346952 Si / 1000 Ang^3
#
#
#
# Elastic Constant Matrix: (Units=GPa)
#
#
# Indices 1 2 3 4 5 6 
#
# 1 104.7881 38.0045 46.4164 0.0000 0.0000 0.0000
# 2 38.0045 76.5984 46.8029 0.0000 0.0000 0.0000
# 3 46.4164 46.8029 122.6738 0.0000 0.0000 0.0000
# 4 0.0000 0.0000 0.0000 23.4400 0.0000 0.0000
# 5 0.0000 0.0000 0.0000 0.0000 21.5582 0.0000
# 6 0.0000 0.0000 0.0000 0.0000 0.0000 25.4992
#
#
#
# Elastic Compliance Matrix: (Units=1/GPa)
#
#
# Indices 1 2 3 4 5 6 
#
# 1 0.012467 -0.004307 -0.003074 0.000000 0.000000 0.000000
# 2 -0.004307 0.018512 -0.005433 0.000000 0.000000 0.000000
# 3 -0.003074 -0.005433 0.011388 0.000000 0.000000 0.000000
# 4 0.000000 0.000000 0.000000 0.042662 0.000000 0.000000
# 5 0.000000 0.000000 0.000000 0.000000 0.046386 0.000000
# 6 0.000000 0.000000 0.000000 0.000000 0.000000 0.039217
#
#
# Mechanical properties :
#
#
# Convention : Reuss Voigt Hill
#
# Bulk Modulus (GPa) = 59.74381 62.94530 61.34456
# Shear Modulus (GPa) = 24.77228 25.62191 25.19709
#
# Velocity S-wave (km/s) = 3.58218 3.64309 3.61277
# Velocity P-wave (km/s) = 6.93229 7.09238 7.01279
#
# Compressibility (1/GPa) = 0.01673814
#
# Stress axis : x y z
#
# Youngs Moduli (GPa) = 80.21320 54.01964 87.81559
#
# Poissons Ratio (x) = 0.23268 0.26992
# Poissons Ratio (y) = 0.34550 0.47709
# Poissons Ratio (z) = 0.24656 0.29348
#
# Static dielectric constant tensor:
#      x y z
#    x 3.545060 0.000000 0.000000 
#    y 0.000000 3.651180 0.000000 
#    z 0.000000 0.000000 3.560330 
# 
# 
# High freq. dielectric constant tensor:
#      x y z
#    x 1.748500 0.000000 0.000000 
#    y 0.000000 1.750730 0.000000 
#    z 0.000000 0.000000 1.743190 
# 
# From -- ./inp_files/64687.got.cif
#   From: 2010.03.12/outbox.cif.g09.slc.cpg/sg66_33_cif.got.tgz:64687.got - 2010.04.10 21:57:39.
