data_PCOD8276744
_publ_section_title
;
Structure prediction by ZEFSAII (Michael W. Deem and Ramdas Pophale) SiO2 
 PCOD8276744
Probable space group: C C C M
;
_chemical_formula_sum "Si O2"
_cell_formula_units_Z 80
_cell_length_a 6.375686
_cell_length_b 29.626354
_cell_length_c 20.399804
_cell_angle_alpha 90.000000
_cell_angle_beta 90.000000
_cell_angle_gamma 90.000000
_cell_volume 3853.284919
_symmetry_space_group_name_H-M "C C C M"
_symmetry_group_IT_number 66
_symmetry_cell_setting 'orthorhombic'
loop_
_space_group_symop_operation_xyz
x,y,z
-x,-y,z
x,-y,1/2-z
-x,y,1/2-z
-x,-y,-z
x,y,-z
-x,y,1/2+z
x,-y,1/2+z
1/2+x,1/2+y,z
1/2-x,1/2-y,z
1/2+x,1/2-y,1/2-z
1/2-x,1/2+y,1/2-z
1/2-x,1/2-y,-z
1/2+x,1/2+y,-z
1/2-x,1/2+y,1/2+z
1/2+x,1/2-y,1/2+z
loop_
_atom_site_type_symbol
_atom_site_label
_atom_site_fract_x
_atom_site_fract_y
_atom_site_fract_z
Si Si1 0.662617 0.299486 0.810451
Si Si2 0.000000 0.000000 0.130356
Si Si3 0.228570 0.420750 0.847833
Si Si4 0.524749 0.641255 0.425057
Si Si5 0.336072 0.938046 0.072537
Si Si6 0.000000 0.360699 0.750000
O O1 0.500000 0.300888 0.750000
O O2 0.750000 0.250000 0.822808
O O3 0.546135 0.315918 0.876574
O O4 0.867116 0.330233 0.799461
O O5 0.110361 0.039312 0.173827
O O6 0.829698 0.022254 0.083000
O O7 0.325744 0.388634 0.903675
O O8 0.174529 0.391641 0.784412
O O9 0.019856 0.443782 0.875322
O O10 0.490373 0.657881 0.500000
O O11 0.732736 0.611103 0.419055
O O12 0.429383 0.943458 0.000000
#
# Coordination Sequence:
#
# PCOD8276744 Si02
#       6
#    16   8  16  16  16   8
#     4  12  24  43  72 100 130 167 220 265 318 401
#     4  10  23  38  57  92 126 166 218 274 322 370
#     4  11  22  40  65  89 128 173 221 268 320 385
#     4  10  22  40  66 100 134 169 212 270 331 386
#     4  10  20  37  61  89 126 172 218 263 322 388
#     4  12  24  42  69  92 126 182 218 265 330 388
#
# _framework density 20.761507000000002
#
# number of rings (size 3 to 8) (size 9 to 14) (size 15 to 20)
#    0.000    1.200    5.000    1.500    0.000    3.600 
#    0.000    3.000    0.000    1.800    0.000    0.000 
#    0.000    0.000    0.000    0.000    0.000    0.000 
#
# Total GULP energy -496026.200500 kJ/mol
# GULP energy per Si atom -12400.655012 kJ/mol
# Density = 2.071425 g / cm^3
# Si number density = 20.761507 Si / 1000 Ang^3
#
#
#
# Elastic Constant Matrix: (Units=GPa)
#
#
# Indices 1 2 3 4 5 6 
#
# 1 92.4659 48.5495 39.2135 0.0000 0.0000 0.0000
# 2 48.5495 135.7441 68.0615 0.0000 0.0000 0.0000
# 3 39.2135 68.0615 109.2036 0.0000 0.0000 0.0000
# 4 0.0000 0.0000 0.0000 23.6479 0.0000 0.0000
# 5 0.0000 0.0000 0.0000 0.0000 34.7420 0.0000
# 6 0.0000 0.0000 0.0000 0.0000 0.0000 34.3803
#
#
#
# Elastic Compliance Matrix: (Units=1/GPa)
#
#
# Indices 1 2 3 4 5 6 
#
# 1 0.013859 -0.003580 -0.002745 0.000000 0.000000 0.000000
# 2 -0.003580 0.011640 -0.005969 0.000000 0.000000 0.000000
# 3 -0.002745 -0.005969 0.013863 0.000000 0.000000 0.000000
# 4 0.000000 0.000000 0.000000 0.042287 0.000000 0.000000
# 5 0.000000 0.000000 0.000000 0.000000 0.028784 0.000000
# 6 0.000000 0.000000 0.000000 0.000000 0.000000 0.029086
#
#
# Mechanical properties :
#
#
# Convention : Reuss Voigt Hill
#
# Bulk Modulus (GPa) = 67.69027 72.11806 69.90416
# Shear Modulus (GPa) = 29.58004 30.65997 30.12001
#
# Velocity S-wave (km/s) = 3.77869 3.84705 3.81302
# Velocity P-wave (km/s) = 7.19114 7.38545 7.28894
#
# Compressibility (1/GPa) = 0.01477317
#
# Stress axis : x y z
#
# Youngs Moduli (GPa) = 72.15637 85.90893 72.13322
#
# Poissons Ratio (x) = 0.30758 0.19801
# Poissons Ratio (y) = 0.25834 0.43058
# Poissons Ratio (z) = 0.19807 0.51281
#
# Static dielectric constant tensor:
#      x y z
#    x 3.895630 0.000000 0.000000 
#    y 0.000000 3.811920 0.000000 
#    z 0.000000 0.000000 3.565400 
# 
# 
# High freq. dielectric constant tensor:
#      x y z
#    x 1.824050 0.000000 0.000000 
#    y 0.000000 1.810500 0.000000 
#    z 0.000000 0.000000 1.796690 
# 
# From -- ./inp_files/54386.got.cif
#   From: 2010.03.12/outbox.cif.g09.slc.cpg/sg66_28_cif.got.tgz:54386.got - 2010.04.10 21:57:39.
