data_PCOD8276771
_publ_section_title
;
Structure prediction by ZEFSAII (Michael W. Deem and Ramdas Pophale) SiO2 
 PCOD8276771
Probable space group: C C C M
;
_chemical_formula_sum "Si O2"
_cell_formula_units_Z 104
_cell_length_a 27.321595
_cell_length_b 9.137006
_cell_length_c 20.470678
_cell_angle_alpha 90.000000
_cell_angle_beta 90.000000
_cell_angle_gamma 90.000000
_cell_volume 5110.250465
_symmetry_space_group_name_H-M "C C C M"
_symmetry_group_IT_number 66
_symmetry_cell_setting 'orthorhombic'
loop_
_space_group_symop_operation_xyz
x,y,z
-x,-y,z
x,-y,1/2-z
-x,y,1/2-z
-x,-y,-z
x,y,-z
-x,y,1/2+z
x,-y,1/2+z
1/2+x,1/2+y,z
1/2-x,1/2-y,z
1/2+x,1/2-y,1/2-z
1/2-x,1/2+y,1/2-z
1/2-x,1/2-y,-z
1/2+x,1/2+y,-z
1/2-x,1/2+y,1/2+z
1/2+x,1/2-y,1/2+z
loop_
_atom_site_type_symbol
_atom_site_label
_atom_site_fract_x
_atom_site_fract_y
_atom_site_fract_z
Si Si1 0.443331 0.469735 0.325599
Si Si2 0.797727 0.329694 0.926003
Si Si3 0.611185 0.184401 0.845794
Si Si4 0.447118 0.034813 0.073485
Si Si5 0.797178 0.646586 0.876494
Si Si6 0.391756 0.680039 0.425197
Si Si7 0.163618 0.500000 0.750000
O O1 0.500000 0.500000 0.341338
O O2 0.430626 0.500000 0.250000
O O3 0.432393 0.299680 0.338686
O O4 0.407397 0.554653 0.374590
O O5 0.750000 0.250000 0.897468
O O6 0.841788 0.257707 0.884921
O O7 0.792125 0.506036 0.923506
O O8 0.806684 0.282076 0.000000
O O9 0.593974 0.041459 0.884093
O O10 0.628740 0.130001 0.775276
O O11 0.500000 0.000000 0.104112
O O12 0.436870 0.206916 0.074770
O O13 0.444426 0.971435 0.000000
O O14 0.750000 0.750000 0.878879
O O15 0.842485 0.744622 0.899857
O O16 0.802869 0.576048 0.804655
O O17 0.384456 0.621267 0.500000
#
# Coordination Sequence:
#
# PCOD8276771 Si02
#       7
#    16  16  16  16  16  16   8
#     4  11  26  45  64  93 137 179 222 273 333 401
#     4  10  22  40  64  94 125 159 206 258 322 391
#     4  11  22  41  65  89 123 168 209 270 313 390
#     4  10  20  37  65  95 123 159 208 266 324 385
#     4  11  24  42  64  94 128 171 212 274 329 399
#     4  11  23  42  66  97 135 171 219 275 333 398
#     4  10  22  42  65  90 126 164 229 262 330 386
#
# _framework density 20.351251999999999
#
# number of rings (size 3 to 8) (size 9 to 14) (size 15 to 20)
#    0.000    1.385    3.077    2.769    2.154    5.231 
#    1.385    0.000    0.000    0.000    0.000    0.000 
#    0.000    0.000    0.000    0.000    0.000    0.000 
#
# Total GULP energy -644729.575554 kJ/mol
# GULP energy per Si atom -12398.645684 kJ/mol
# Density = 2.030493 g / cm^3
# Si number density = 20.351252 Si / 1000 Ang^3
#
#
#
# Elastic Constant Matrix: (Units=GPa)
#
#
# Indices 1 2 3 4 5 6 
#
# 1 112.4439 33.6571 33.5396 0.0000 0.0000 0.0000
# 2 33.6571 79.2791 22.9413 0.0000 0.0000 0.0000
# 3 33.5396 22.9413 106.1156 0.0000 0.0000 0.0000
# 4 0.0000 0.0000 0.0000 36.0870 0.0000 0.0000
# 5 0.0000 0.0000 0.0000 0.0000 16.3507 0.0000
# 6 0.0000 0.0000 0.0000 0.0000 0.0000 47.5139
#
#
#
# Elastic Compliance Matrix: (Units=1/GPa)
#
#
# Indices 1 2 3 4 5 6 
#
# 1 0.010815 -0.003843 -0.002588 0.000000 0.000000 0.000000
# 2 -0.003843 0.014821 -0.001990 0.000000 0.000000 0.000000
# 3 -0.002588 -0.001990 0.010672 0.000000 0.000000 0.000000
# 4 0.000000 0.000000 0.000000 0.027711 0.000000 0.000000
# 5 0.000000 0.000000 0.000000 0.000000 0.061159 0.000000
# 6 0.000000 0.000000 0.000000 0.000000 0.000000 0.021046
#
#
# Mechanical properties :
#
#
# Convention : Reuss Voigt Hill
#
# Bulk Modulus (GPa) = 51.36639 53.12383 52.24511
# Shear Modulus (GPa) = 29.48918 33.83702 31.66310
#
# Velocity S-wave (km/s) = 3.81072 4.08198 3.94868
# Velocity P-wave (km/s) = 6.68257 6.95535 6.82033
#
# Compressibility (1/GPa) = 0.01946798
#
# Stress axis : x y z
#
# Youngs Moduli (GPa) = 92.46091 67.47275 93.70602
#
# Poissons Ratio (x) = 0.25928 0.24248
# Poissons Ratio (y) = 0.35531 0.18643
# Poissons Ratio (z) = 0.23925 0.13424
#
# Static dielectric constant tensor:
#      x y z
#    x 3.764160 0.000000 0.000000 
#    y 0.000000 3.602570 0.000000 
#    z 0.000000 0.000000 3.791250 
# 
# 
# High freq. dielectric constant tensor:
#      x y z
#    x 1.802080 0.000000 0.000000 
#    y 0.000000 1.789280 0.000000 
#    z 0.000000 0.000000 1.803520 
# 
# From -- ./inp_files/53042.got.cif
#   From: 2010.03.12/outbox.cif.g09.slc.cpg/sg66_27_cif.got.tgz:53042.got - 2010.04.10 21:57:39.
