data_PCOD8276860
_publ_section_title
;
Structure prediction by ZEFSAII (Michael W. Deem and Ramdas Pophale) SiO2 
 PCOD8276860
Probable space group: C C C M
;
_chemical_formula_sum "Si O2"
_cell_formula_units_Z 116
_cell_length_a 11.304149
_cell_length_b 26.710031
_cell_length_c 18.206705
_cell_angle_alpha 90.000000
_cell_angle_beta 90.000000
_cell_angle_gamma 90.000000
_cell_volume 5497.226367
_symmetry_space_group_name_H-M "C C C M"
_symmetry_group_IT_number 66
_symmetry_cell_setting 'orthorhombic'
loop_
_space_group_symop_operation_xyz
x,y,z
-x,-y,z
x,-y,1/2-z
-x,y,1/2-z
-x,-y,-z
x,y,-z
-x,y,1/2+z
x,-y,1/2+z
1/2+x,1/2+y,z
1/2-x,1/2-y,z
1/2+x,1/2-y,1/2-z
1/2-x,1/2+y,1/2-z
1/2-x,1/2-y,-z
1/2+x,1/2+y,-z
1/2-x,1/2+y,1/2+z
1/2+x,1/2-y,1/2+z
loop_
_atom_site_type_symbol
_atom_site_label
_atom_site_fract_x
_atom_site_fract_y
_atom_site_fract_z
Si Si1 0.500000 0.000000 0.750000
Si Si2 0.205188 0.694872 0.151107
Si Si3 0.229593 0.543161 0.301331
Si Si4 0.044878 0.682199 0.583046
Si Si5 0.913108 0.860528 0.582302
Si Si6 0.622839 0.292664 0.418859
Si Si7 0.785730 0.346603 0.695651
Si Si8 0.925593 0.049636 0.583789
O O1 0.413118 0.967517 0.696258
O O2 0.250000 0.750000 0.133660
O O3 0.298262 0.651118 0.130860
O O4 0.177798 0.689683 0.237631
O O5 0.091262 0.688237 0.101205
O O6 0.289002 0.500000 0.250000
O O7 0.249582 0.599365 0.270655
O O8 0.297562 0.542197 0.378836
O O9 0.055495 0.662447 0.500000
O O10 0.123359 0.732975 0.593962
O O11 0.102931 0.643949 0.640975
O O12 0.872754 0.876067 0.500000
O O13 0.986543 0.809102 0.580298
O O14 0.994778 0.904908 0.616635
O O15 0.678792 0.305105 0.500000
O O16 0.681894 0.322269 0.352270
O O17 0.895771 0.062586 0.500000
O O18 0.000000 0.000000 0.593156
#
# Coordination Sequence:
#
# PCOD8276860 Si02
#       8
#     4  16  16  16  16  16  16  16
#     4   8  24  44  64  88 124 168 214 270 324 420
#     4  12  25  39  60  93 139 178 211 262 326 389
#     4  10  24  45  69  90 130 171 214 267 344 398
#     4  11  24  41  65  92 127 177 223 263 319 390
#     4  10  21  39  64  94 130 171 213 257 317 388
#     4  10  20  40  65  91 126 168 216 263 314 383
#     4  12  25  40  63  94 128 166 216 279 321 389
#     4  10  22  43  71 103 132 162 217 281 330 391
#
# _framework density 21.101548999999999
#
# number of rings (size 3 to 8) (size 9 to 14) (size 15 to 20)
#    0.414    0.966    2.759    2.483    3.862    3.034 
#    0.000    0.345    0.000    0.000    0.000    0.000 
#    0.000    0.000    0.000    0.000    0.000    0.000 
#
# Total GULP energy -718792.466290 kJ/mol
# GULP energy per Si atom -12392.973557 kJ/mol
# Density = 2.105352 g / cm^3
# Si number density = 21.101549 Si / 1000 Ang^3
#
#
#
# Elastic Constant Matrix: (Units=GPa)
#
#
# Indices 1 2 3 4 5 6 
#
# 1 108.2816 26.1171 54.6008 0.0000 0.0000 0.0000
# 2 26.1171 92.3527 29.1060 0.0000 0.0000 0.0000
# 3 54.6008 29.1060 102.2431 0.0000 0.0000 0.0000
# 4 0.0000 0.0000 0.0000 24.5953 0.0000 0.0000
# 5 0.0000 0.0000 0.0000 0.0000 30.9286 0.0000
# 6 0.0000 0.0000 0.0000 0.0000 0.0000 28.4175
#
#
#
# Elastic Compliance Matrix: (Units=1/GPa)
#
#
# Indices 1 2 3 4 5 6 
#
# 1 0.012855 -0.001617 -0.006404 0.000000 0.000000 0.000000
# 2 -0.001617 0.012099 -0.002581 0.000000 0.000000 0.000000
# 3 -0.006404 -0.002581 0.013935 0.000000 0.000000 0.000000
# 4 0.000000 0.000000 0.000000 0.040658 0.000000 0.000000
# 5 0.000000 0.000000 0.000000 0.000000 0.032332 0.000000
# 6 0.000000 0.000000 0.000000 0.000000 0.000000 0.035190
#
#
# Mechanical properties :
#
#
# Convention : Reuss Voigt Hill
#
# Bulk Modulus (GPa) = 56.54624 58.05835 57.30229
# Shear Modulus (GPa) = 28.70796 29.65853 29.18325
#
# Velocity S-wave (km/s) = 3.69245 3.75309 3.72289
# Velocity P-wave (km/s) = 6.71076 6.80841 6.75976
#
# Compressibility (1/GPa) = 0.01768464
#
# Stress axis : x y z
#
# Youngs Moduli (GPa) = 77.79329 82.65391 71.75941
#
# Poissons Ratio (x) = 0.13363 0.45958
# Poissons Ratio (y) = 0.12578 0.18519
# Poissons Ratio (z) = 0.49822 0.21331
#
# Static dielectric constant tensor:
#      x y z
#    x 3.731140 0.000000 0.000000 
#    y 0.000000 3.838200 0.000000 
#    z 0.000000 0.000000 3.755120 
# 
# 
# High freq. dielectric constant tensor:
#      x y z
#    x 1.827720 0.000000 0.000000 
#    y 0.000000 1.823220 0.000000 
#    z 0.000000 0.000000 1.818100 
# 
# From -- ./inp_files/39139.got.cif
#   From: 2010.03.12/outbox.cif.g09.slc.cpg/sg66_20_cif.got.tgz:39139.got - 2010.04.10 21:57:39.
