data_PCOD8276037
_publ_section_title
;
Structure prediction by ZEFSAII (Michael W. Deem and Ramdas Pophale) SiO2 
 PCOD8276037
Probable space group: C C C M
;
_chemical_formula_sum "Si O2"
_cell_formula_units_Z 128
_cell_length_a 12.338202
_cell_length_b 22.412150
_cell_length_c 24.153188
_cell_angle_alpha 90.000000
_cell_angle_beta 90.000000
_cell_angle_gamma 90.000000
_cell_volume 6678.975624
_symmetry_space_group_name_H-M "C C C M"
_symmetry_group_IT_number 66
_symmetry_cell_setting 'orthorhombic'
loop_
_space_group_symop_operation_xyz
x,y,z
-x,-y,z
x,-y,1/2-z
-x,y,1/2-z
-x,-y,-z
x,y,-z
-x,y,1/2+z
x,-y,1/2+z
1/2+x,1/2+y,z
1/2-x,1/2-y,z
1/2+x,1/2-y,1/2-z
1/2-x,1/2+y,1/2-z
1/2-x,1/2-y,-z
1/2+x,1/2+y,-z
1/2-x,1/2+y,1/2+z
1/2+x,1/2-y,1/2+z
loop_
_atom_site_type_symbol
_atom_site_label
_atom_site_fract_x
_atom_site_fract_y
_atom_site_fract_z
Si Si1 0.830473 0.391589 0.937452
Si Si2 0.257712 0.476900 0.061330
Si Si3 0.221213 0.121562 0.212759
Si Si4 0.924909 0.610412 0.935423
Si Si5 0.125598 0.007439 0.834280
Si Si6 0.308757 0.372217 0.663242
Si Si7 0.019218 0.804210 0.686658
Si Si8 0.151319 0.704673 0.639328
O O1 0.775036 0.454979 0.942872
O O2 0.766876 0.354392 0.889359
O O3 0.952537 0.398802 0.914344
O O4 0.826556 0.361934 0.000000
O O5 0.155566 0.440890 0.086914
O O6 0.359295 0.467398 0.102913
O O7 0.291485 0.453477 0.000000
O O8 0.194600 0.050441 0.207431
O O9 0.239421 0.143286 0.276071
O O10 0.117459 0.149852 0.182598
O O11 0.324868 0.148874 0.180840
O O12 0.879575 0.675365 0.919006
O O13 0.926567 0.604997 0.000000
O O14 0.177390 0.942745 0.833493
O O15 0.000000 0.000000 0.817102
O O16 0.419060 0.335140 0.655322
O O17 0.046037 0.741144 0.658598
O O18 0.000000 0.789386 0.750000
O O19 0.250000 0.750000 0.632638
#
# Coordination Sequence:
#
# PCOD8276037 Si02
#       8
#    16  16  16  16  16  16  16  16
#     4   9  19  35  55  82 110 141 182 228 276 329
#     4   9  18  33  54  80 110 147 187 223 268 331
#     4  10  19  34  52  81 111 142 184 225 273 337
#     4  10  19  35  58  78 103 145 188 227 274 329
#     4  11  19  30  55  84 117 145 174 226 283 334
#     4  10  20  33  55  82 113 144 184 224 278 338
#     4   9  19  35  54  76 106 148 189 223 268 326
#     4  10  21  36  55  76 109 140 183 235 268 316
#
# _framework density 19.164614
#
# number of rings (size 3 to 8) (size 9 to 14) (size 15 to 20)
#    0.000    2.250    2.500    0.750    0.000    3.500 
#    0.000    2.500    0.000    2.250    0.000    0.000 
#    0.000    0.000    0.000    0.000    0.000    0.000 
#
# Total GULP energy -792925.024588 kJ/mol
# GULP energy per Si atom -12389.453509 kJ/mol
# Density = 1.912099 g / cm^3
# Si number density = 19.164614 Si / 1000 Ang^3
#
#
#
# Elastic Constant Matrix: (Units=GPa)
#
#
# Indices 1 2 3 4 5 6 
#
# 1 57.5765 23.8998 27.5755 0.0000 0.0000 0.0000
# 2 23.8998 44.5616 2.1945 0.0000 0.0000 0.0000
# 3 27.5755 2.1945 45.2781 0.0000 0.0000 0.0000
# 4 0.0000 0.0000 0.0000 23.2935 0.0000 0.0000
# 5 0.0000 0.0000 0.0000 0.0000 24.2060 0.0000
# 6 0.0000 0.0000 0.0000 0.0000 0.0000 30.5457
#
#
#
# Elastic Compliance Matrix: (Units=1/GPa)
#
#
# Indices 1 2 3 4 5 6 
#
# 1 0.034094 -0.017305 -0.019926 0.000000 0.000000 0.000000
# 2 -0.017305 0.031277 0.009023 0.000000 0.000000 0.000000
# 3 -0.019926 0.009023 0.033784 0.000000 0.000000 0.000000
# 4 0.000000 0.000000 0.000000 0.042931 0.000000 0.000000
# 5 0.000000 0.000000 0.000000 0.000000 0.041312 0.000000
# 6 0.000000 0.000000 0.000000 0.000000 0.000000 0.032738
#
#
# Mechanical properties :
#
#
# Convention : Reuss Voigt Hill
#
# Bulk Modulus (GPa) = 23.39673 28.30619 25.85146
# Shear Modulus (GPa) = 17.43393 21.85879 19.64636
#
# Velocity S-wave (km/s) = 3.01938 3.38091 3.20525
# Velocity P-wave (km/s) = 4.93866 5.48114 5.21695
#
# Compressibility (1/GPa) = 0.04274102
#
# Stress axis : x y z
#
# Youngs Moduli (GPa) = 29.33041 31.97191 29.60018
#
# Poissons Ratio (x) = 0.55326 0.58980
# Poissons Ratio (y) = 0.50755 -0.26708
# Poissons Ratio (z) = 0.58442 -0.28848
#
# Static dielectric constant tensor:
#      x y z
#    x 3.674890 0.000000 0.000000 
#    y 0.000000 3.444960 0.000000 
#    z 0.000000 0.000000 3.849380 
# 
# 
# High freq. dielectric constant tensor:
#      x y z
#    x 1.730150 0.000000 0.000000 
#    y 0.000000 1.733780 0.000000 
#    z 0.000000 0.000000 1.745200 
# 
# From -- ./inp_files/64032.got.cif
#   From: 2010.03.12/outbox.cif.g09.slc.cpg/sg66_33_cif.got.tgz:64032.got - 2010.04.10 21:57:39.
