data_PCOD8276945
_publ_section_title
;
Structure prediction by ZEFSAII (Michael W. Deem and Ramdas Pophale) SiO2 
 PCOD8276945
Probable space group: C C C M
;
_chemical_formula_sum "Si O2"
_cell_formula_units_Z 112
_cell_length_a 13.628902
_cell_length_b 27.653289
_cell_length_c 15.023689
_cell_angle_alpha 90.000000
_cell_angle_beta 90.000000
_cell_angle_gamma 90.000000
_cell_volume 5662.187491
_symmetry_space_group_name_H-M "C C C M"
_symmetry_group_IT_number 66
_symmetry_cell_setting 'orthorhombic'
loop_
_space_group_symop_operation_xyz
x,y,z
-x,-y,z
x,-y,1/2-z
-x,y,1/2-z
-x,-y,-z
x,y,-z
-x,y,1/2+z
x,-y,1/2+z
1/2+x,1/2+y,z
1/2-x,1/2-y,z
1/2+x,1/2-y,1/2-z
1/2-x,1/2+y,1/2-z
1/2-x,1/2-y,-z
1/2+x,1/2+y,-z
1/2-x,1/2+y,1/2+z
1/2+x,1/2-y,1/2+z
loop_
_atom_site_type_symbol
_atom_site_label
_atom_site_fract_x
_atom_site_fract_y
_atom_site_fract_z
Si Si1 0.884137 0.774411 0.750000
Si Si2 0.615237 0.167156 0.750000
Si Si3 0.389178 0.000000 0.894628
Si Si4 0.699444 0.900165 0.102618
Si Si5 0.889671 0.152304 0.399201
Si Si6 0.300556 0.099835 0.397382
Si Si7 0.610329 0.652304 0.399201
O O1 0.835108 0.720925 0.750000
O O2 0.851998 0.804158 0.837346
O O3 0.851998 0.804158 0.662654
O O4 0.000000 0.767625 0.750000
O O5 0.500000 0.172229 0.750000
O O6 0.645645 0.140145 0.660315
O O7 0.645645 0.140145 0.839685
O O8 0.330967 0.047163 0.860575
O O9 0.500000 0.000000 0.855816
O O10 0.330967 0.952837 0.860575
O O11 0.392443 0.000000 0.000000
O O12 0.817097 0.893566 0.112809
O O13 0.666319 0.893532 0.000000
O O14 0.885907 0.171777 0.500000
O O15 1.000000 0.135382 0.373460
O O16 0.333681 0.106468 0.500000
O O17 0.182903 0.106434 0.387191
O O18 0.614093 0.671777 0.500000
#
# Coordination Sequence:
#
# PCOD8276945 Si02
#       7
#    16  16  16  16  16  16  16
#     4   9  19  35  53  75 107 142 174 215 264 309
#     4  11  23  36  53  79 107 139 180 220 260 310
#     4   9  18  35  56  76 104 140 173 213 266 312
#     4  10  21  36  55  79 106 138 177 218 262 313
#     4   9  18  34  55  78 106 140 175 213 260 312
#     4  10  21  36  55  79 106 138 177 218 262 313
#     4   9  18  34  55  78 106 140 175 213 260 312
#
# _framework density 19.780341
#
# number of rings (size 3 to 8) (size 9 to 14) (size 15 to 20)
#    0.000    2.429    0.000    1.714    0.000    5.714 
#    0.000    7.857    0.000    4.286    0.000    5.000 
#    0.000    0.000    0.000    0.000    0.000    0.000 
#
# Total GULP energy -694261.046611 kJ/mol
# GULP energy per Si atom -12397.518689 kJ/mol
# Density = 1.973532 g / cm^3
# Si number density = 19.780341 Si / 1000 Ang^3
#
#
#
# Elastic Constant Matrix: (Units=GPa)
#
#
# Indices 1 2 3 4 5 6 
#
# 1 99.1568 83.0668 40.4286 0.0000 0.0000 0.0000
# 2 83.0668 175.8646 57.4134 0.0000 0.0000 0.0000
# 3 40.4286 57.4134 94.6631 0.0000 0.0000 0.0000
# 4 0.0000 0.0000 0.0000 151.3081 0.0000 0.0000
# 5 0.0000 0.0000 0.0000 0.0000 21.1825 0.0000
# 6 0.0000 0.0000 0.0000 0.0000 0.0000 34.0857
#
#
#
# Elastic Compliance Matrix: (Units=1/GPa)
#
#
# Indices 1 2 3 4 5 6 
#
# 1 0.017365 -0.007208 -0.003044 0.000000 0.000000 0.000000
# 2 -0.007208 0.010082 -0.003036 0.000000 0.000000 0.000000
# 3 -0.003044 -0.003036 0.013706 0.000000 0.000000 0.000000
# 4 0.000000 0.000000 0.000000 0.006609 0.000000 0.000000
# 5 0.000000 0.000000 0.000000 0.000000 0.047209 0.000000
# 6 0.000000 0.000000 0.000000 0.000000 0.000000 0.029338
#
#
# Mechanical properties :
#
#
# Convention : Reuss Voigt Hill
#
# Bulk Modulus (GPa) = 68.61224 81.27798 74.94511
# Shear Modulus (GPa) = 32.10397 53.90030 43.00213
#
# Velocity S-wave (km/s) = 4.03305 5.22576 4.66766
# Velocity P-wave (km/s) = 7.51330 8.80857 8.18659
#
# Compressibility (1/GPa) = 0.01457466
#
# Stress axis : x y z
#
# Youngs Moduli (GPa) = 57.58798 99.18593 72.96311
#
# Poissons Ratio (x) = 0.71494 0.22213
# Poissons Ratio (y) = 0.41510 0.22154
# Poissons Ratio (z) = 0.17532 0.30117
#
# Static dielectric constant tensor:
#      x y z
#    x 3.834830 0.000000 0.000000 
#    y 0.000000 3.718130 0.000000 
#    z 0.000000 0.000000 3.622040 
# 
# 
# High freq. dielectric constant tensor:
#      x y z
#    x 1.782650 0.000000 0.000000 
#    y 0.000000 1.754040 0.000000 
#    z 0.000000 0.000000 1.776000 
# 
# From -- ./inp_files/28861.got.cif
#   From: 2010.03.12/outbox.cif.g09.slc.cpg/sg66_15_cif.got.tgz:28861.got - 2010.04.10 21:57:39.
