data_PCOD8276510
_publ_section_title
;
Structure prediction by ZEFSAII (Michael W. Deem and Ramdas Pophale) SiO2 
 PCOD8276510
Probable space group: C C C M
;
_chemical_formula_sum "Si O2"
_cell_formula_units_Z 68
_cell_length_a 22.914106
_cell_length_b 10.284287
_cell_length_c 14.750161
_cell_angle_alpha 90.000000
_cell_angle_beta 90.000000
_cell_angle_gamma 90.000000
_cell_volume 3475.952767
_symmetry_space_group_name_H-M "C C C M"
_symmetry_group_IT_number 66
_symmetry_cell_setting 'orthorhombic'
loop_
_space_group_symop_operation_xyz
x,y,z
-x,-y,z
x,-y,1/2-z
-x,y,1/2-z
-x,-y,-z
x,y,-z
-x,y,1/2+z
x,-y,1/2+z
1/2+x,1/2+y,z
1/2-x,1/2-y,z
1/2+x,1/2-y,1/2-z
1/2-x,1/2+y,1/2-z
1/2-x,1/2-y,-z
1/2+x,1/2+y,-z
1/2-x,1/2+y,1/2+z
1/2+x,1/2-y,1/2+z
loop_
_atom_site_type_symbol
_atom_site_label
_atom_site_fract_x
_atom_site_fract_y
_atom_site_fract_z
Si Si1 0.397641 0.397265 0.898265
Si Si2 0.887113 0.190153 0.103733
Si Si3 0.491290 0.810091 0.602975
Si Si4 0.198363 0.152136 0.756879
Si Si5 0.500000 0.000000 0.750000
O O1 0.410779 0.546168 0.874260
O O2 0.459050 0.326037 0.885516
O O3 0.349147 0.333872 0.835181
O O4 0.373685 0.382459 0.000000
O O5 0.829940 0.210784 0.164949
O O6 0.939947 0.289512 0.124796
O O7 0.867022 0.205306 0.000000
O O8 0.482762 0.863592 0.500000
O O9 0.464392 0.909164 0.678270
O O10 0.250000 0.250000 0.782636
O O11 0.218698 0.000000 0.750000
#
# Coordination Sequence:
#
# PCOD8276510 Si02
#       5
#    16  16  16  16   4
#     4   9  18  35  60  84 106 134 175 229 278 322
#     4   9  18  35  60  84 106 134 175 229 278 322
#     4  10  20  35  55  83 111 140 179 218 272 334
#     4  10  21  37  54  79 111 145 187 229 270 324
#     4  12  22  32  46  70 120 164 170 202 256 320
#
# _framework density 19.562982000000002
#
# number of rings (size 3 to 8) (size 9 to 14) (size 15 to 20)
#    0.000    2.353    0.000    2.471    0.000    3.765 
#    8.471    4.706    0.000    0.000    0.000    0.000 
#    0.000    0.000    0.000    0.000    0.000    0.000 
#
# Total GULP energy -421309.216432 kJ/mol
# GULP energy per Si atom -12391.447542 kJ/mol
# Density = 1.951846 g / cm^3
# Si number density = 19.562982 Si / 1000 Ang^3
#
#
#
# Elastic Constant Matrix: (Units=GPa)
#
#
# Indices 1 2 3 4 5 6 
#
# 1 63.9764 23.0450 26.4295 0.0000 0.0000 0.0000
# 2 23.0450 62.8361 29.1529 0.0000 0.0000 0.0000
# 3 26.4295 29.1529 112.6298 0.0000 0.0000 0.0000
# 4 0.0000 0.0000 0.0000 30.7425 0.0000 0.0000
# 5 0.0000 0.0000 0.0000 0.0000 18.8638 0.0000
# 6 0.0000 0.0000 0.0000 0.0000 0.0000 25.0335
#
#
#
# Elastic Compliance Matrix: (Units=1/GPa)
#
#
# Indices 1 2 3 4 5 6 
#
# 1 0.018859 -0.005527 -0.002995 0.000000 0.000000 0.000000
# 2 -0.005527 0.019706 -0.003804 0.000000 0.000000 0.000000
# 3 -0.002995 -0.003804 0.010566 0.000000 0.000000 0.000000
# 4 0.000000 0.000000 0.000000 0.032528 0.000000 0.000000
# 5 0.000000 0.000000 0.000000 0.000000 0.053011 0.000000
# 6 0.000000 0.000000 0.000000 0.000000 0.000000 0.039946
#
#
# Mechanical properties :
#
#
# Convention : Reuss Voigt Hill
#
# Bulk Modulus (GPa) = 40.84987 44.07748 42.46367
# Shear Modulus (GPa) = 24.10472 25.64895 24.87684
#
# Velocity S-wave (km/s) = 3.51402 3.62483 3.56986
# Velocity P-wave (km/s) = 6.11482 6.33239 6.22456
#
# Compressibility (1/GPa) = 0.02447988
#
# Stress axis : x y z
#
# Youngs Moduli (GPa) = 53.02556 50.74543 94.64356
#
# Poissons Ratio (x) = 0.28047 0.28344
# Poissons Ratio (y) = 0.29307 0.36000
# Poissons Ratio (z) = 0.15880 0.19302
#
# Static dielectric constant tensor:
#      x y z
#    x 3.212330 0.000000 0.000000 
#    y 0.000000 3.519900 0.000000 
#    z 0.000000 0.000000 3.922730 
# 
# 
# High freq. dielectric constant tensor:
#      x y z
#    x 1.721170 0.000000 0.000000 
#    y 0.000000 1.756540 0.000000 
#    z 0.000000 0.000000 1.784970 
# 
# From -- ./inp_files/26088.got.cif
#   From: 2010.03.12/outbox.cif.g09.slc.cpg/sg66_14_cif.got.tgz:26088.got - 2010.04.10 21:57:39.
