data_PCOD8276518
_publ_section_title
;
Structure prediction by ZEFSAII (Michael W. Deem and Ramdas Pophale) SiO2 
 PCOD8276518
Probable space group: C C C M
;
_chemical_formula_sum "Si O2"
_cell_formula_units_Z 104
_cell_length_a 8.971028
_cell_length_b 23.681054
_cell_length_c 25.959862
_cell_angle_alpha 90.000000
_cell_angle_beta 90.000000
_cell_angle_gamma 90.000000
_cell_volume 5515.001308
_symmetry_space_group_name_H-M "C C C M"
_symmetry_group_IT_number 66
_symmetry_cell_setting 'orthorhombic'
loop_
_space_group_symop_operation_xyz
x,y,z
-x,-y,z
x,-y,1/2-z
-x,y,1/2-z
-x,-y,-z
x,y,-z
-x,y,1/2+z
x,-y,1/2+z
1/2+x,1/2+y,z
1/2-x,1/2-y,z
1/2+x,1/2-y,1/2-z
1/2-x,1/2+y,1/2-z
1/2-x,1/2-y,-z
1/2+x,1/2+y,-z
1/2-x,1/2+y,1/2+z
1/2+x,1/2-y,1/2+z
loop_
_atom_site_type_symbol
_atom_site_label
_atom_site_fract_x
_atom_site_fract_y
_atom_site_fract_z
Si Si1 0.521787 0.407015 0.000000
Si Si2 0.197901 0.084985 0.664447
Si Si3 0.261453 0.495895 0.000000
Si Si4 0.771731 0.814225 0.182759
Si Si5 0.226068 0.470382 0.886794
Si Si6 0.553957 0.368036 0.604777
Si Si7 0.500000 0.383499 0.750000
Si Si8 0.476239 0.905014 0.308507
O O1 0.405793 0.457369 0.000000
O O2 0.684537 0.437961 0.000000
O O3 0.492708 0.363273 0.045903
O O4 0.361580 0.110937 0.670622
O O5 0.102825 0.132028 0.634617
O O6 0.113918 0.075961 0.719112
O O7 0.200408 0.027290 0.633275
O O8 0.171088 0.480905 0.053293
O O9 0.750000 0.750000 0.199520
O O10 0.834436 0.818005 0.123618
O O11 0.617527 0.847353 0.191043
O O12 0.901383 0.842867 0.215111
O O13 0.359176 0.426127 0.883710
O O14 0.093350 0.451652 0.847817
O O15 0.500000 0.928897 0.250000
#
# Coordination Sequence:
#
# PCOD8276518 Si02
#       8
#     8  16   8  16  16  16   8  16
#     4   9  14  30  58  82 115 148 191 240 268 314
#     4  11  20  35  50  79 114 151 181 226 272 338
#     4   9  16  30  56  85 109 158 198 232 268 313
#     4  10  22  40  60  80 105 138 190 244 291 340
#     4  10  20  35  56  81 120 154 193 226 270 334
#     4   9  19  35  55  87 110 147 195 231 270 332
#     4  10  22  36  55  78 102 142 197 224 278 342
#     4  11  23  40  51  79 117 152 183 229 288 345
#
# _framework density 18.857655999999999
#
# number of rings (size 3 to 8) (size 9 to 14) (size 15 to 20)
#    0.000    2.000    3.077    0.923    1.077    1.231 
#    2.769    5.000    0.000    0.000    0.000    1.077 
#    0.000    0.000    0.000    0.000    0.000    0.000 
#
# Total GULP energy -644200.126311 kJ/mol
# GULP energy per Si atom -12388.463968 kJ/mol
# Density = 1.881473 g / cm^3
# Si number density = 18.857656 Si / 1000 Ang^3
#
#
#
# Elastic Constant Matrix: (Units=GPa)
#
#
# Indices 1 2 3 4 5 6 
#
# 1 113.1574 17.7495 45.7131 0.0000 0.0000 0.0000
# 2 17.7495 51.0848 25.8968 0.0000 0.0000 0.0000
# 3 45.7131 25.8968 146.3473 0.0000 0.0000 0.0000
# 4 0.0000 0.0000 0.0000 13.8739 0.0000 0.0000
# 5 0.0000 0.0000 0.0000 0.0000 22.5971 0.0000
# 6 0.0000 0.0000 0.0000 0.0000 0.0000 15.3946
#
#
#
# Elastic Compliance Matrix: (Units=1/GPa)
#
#
# Indices 1 2 3 4 5 6 
#
# 1 0.010323 -0.002144 -0.002845 0.000000 0.000000 0.000000
# 2 -0.002144 0.021950 -0.003214 0.000000 0.000000 0.000000
# 3 -0.002845 -0.003214 0.008291 0.000000 0.000000 0.000000
# 4 0.000000 0.000000 0.000000 0.072078 0.000000 0.000000
# 5 0.000000 0.000000 0.000000 0.000000 0.044254 0.000000
# 6 0.000000 0.000000 0.000000 0.000000 0.000000 0.064958
#
#
# Mechanical properties :
#
#
# Convention : Reuss Voigt Hill
#
# Bulk Modulus (GPa) = 41.39796 54.36758 47.88277
# Shear Modulus (GPa) = 20.29945 25.12178 22.71062
#
# Velocity S-wave (km/s) = 3.28450 3.65386 3.47409
# Velocity P-wave (km/s) = 6.03195 6.83330 6.44509
#
# Compressibility (1/GPa) = 0.02415578
#
# Stress axis : x y z
#
# Youngs Moduli (GPa) = 96.87164 45.55842 120.61993
#
# Poissons Ratio (x) = 0.09770 0.34316
# Poissons Ratio (y) = 0.20774 0.38770
# Poissons Ratio (z) = 0.27560 0.14644
#
# Static dielectric constant tensor:
#      x y z
#    x 3.551080 0.000000 0.000000 
#    y 0.000000 3.020120 0.000000 
#    z 0.000000 0.000000 4.152410 
# 
# 
# High freq. dielectric constant tensor:
#      x y z
#    x 1.738900 0.000000 0.000000 
#    y 0.000000 1.679520 0.000000 
#    z 0.000000 0.000000 1.747670 
# 
# From -- ./inp_files/62861.got.cif
#   From: 2010.03.12/outbox.cif.g09.slc.cpg/sg66_32_cif.got.tgz:62861.got - 2010.04.10 21:57:39.
