data_PCOD8276614
_publ_section_title
;
Structure prediction by ZEFSAII (Michael W. Deem and Ramdas Pophale) SiO2 
 PCOD8276614
Probable space group: C C C M
;
_chemical_formula_sum "Si O2"
_cell_formula_units_Z 56
_cell_length_a 7.943899
_cell_length_b 21.777606
_cell_length_c 14.561862
_cell_angle_alpha 90.000000
_cell_angle_beta 90.000000
_cell_angle_gamma 90.000000
_cell_volume 2519.189057
_symmetry_space_group_name_H-M "C C C M"
_symmetry_group_IT_number 66
_symmetry_cell_setting 'orthorhombic'
loop_
_space_group_symop_operation_xyz
x,y,z
-x,-y,z
x,-y,1/2-z
-x,y,1/2-z
-x,-y,-z
x,y,-z
-x,y,1/2+z
x,-y,1/2+z
1/2+x,1/2+y,z
1/2-x,1/2-y,z
1/2+x,1/2-y,1/2-z
1/2-x,1/2+y,1/2-z
1/2-x,1/2-y,-z
1/2+x,1/2+y,-z
1/2-x,1/2+y,1/2+z
1/2+x,1/2-y,1/2+z
loop_
_atom_site_type_symbol
_atom_site_label
_atom_site_fract_x
_atom_site_fract_y
_atom_site_fract_z
Si Si1 0.306474 0.393762 0.500000
Si Si2 0.959567 0.653519 0.000000
Si Si3 0.164683 0.687124 0.309633
Si Si4 0.244435 0.529653 0.500000
Si Si5 0.938738 0.913377 0.156203
O O1 0.198611 0.458064 0.500000
O O2 0.416501 0.383039 0.407930
O O3 0.161460 0.342963 0.500000
O O4 0.892564 0.691856 0.914612
O O5 0.899119 0.581651 0.000000
O O6 0.250000 0.750000 0.275746
O O7 0.307530 0.635878 0.303941
O O8 0.000000 0.669798 0.250000
O O9 0.353311 0.535503 0.407299
O O10 0.000000 0.945632 0.250000
#
# Coordination Sequence:
#
# PCOD8276614 Si02
#       5
#     8   8  16   8  16
#     4  11  21  37  59  86 118 156 192 237 289 339
#     4  10  22  39  60  87 120 152 193 239 286 342
#     4  11  23  41  61  85 115 150 192 243 296 353
#     4   9  21  36  56  85 119 156 195 234 279 339
#     4  10  20  36  57  85 116 151 195 239 286 347
#
# _framework density 22.229375000000001
#
# number of rings (size 3 to 8) (size 9 to 14) (size 15 to 20)
#    0.000    1.714    0.000    6.000    0.000    2.286 
#    0.000    2.143    0.000    5.143    0.000    0.000 
#    0.000    0.000    0.000    0.000    0.000    0.000 
#
# Total GULP energy -346962.132794 kJ/mol
# GULP energy per Si atom -12391.504743 kJ/mol
# Density = 2.217878 g / cm^3
# Si number density = 22.229375 Si / 1000 Ang^3
#
#
#
# Elastic Constant Matrix: (Units=GPa)
#
#
# Indices 1 2 3 4 5 6 
#
# 1 99.3443 18.8835 31.9213 0.0000 0.0000 0.0000
# 2 18.8835 67.8782 4.5086 0.0000 0.0000 0.0000
# 3 31.9213 4.5086 171.1727 0.0000 0.0000 0.0000
# 4 0.0000 0.0000 0.0000 4.7222 0.0000 0.0000
# 5 0.0000 0.0000 0.0000 0.0000 46.0231 0.0000
# 6 0.0000 0.0000 0.0000 0.0000 0.0000 25.4888
#
#
#
# Elastic Compliance Matrix: (Units=1/GPa)
#
#
# Indices 1 2 3 4 5 6 
#
# 1 0.011288 -0.003006 -0.002026 0.000000 0.000000 0.000000
# 2 -0.003006 0.015558 0.000151 0.000000 0.000000 0.000000
# 3 -0.002026 0.000151 0.006216 0.000000 0.000000 0.000000
# 4 0.000000 0.000000 0.000000 0.211766 0.000000 0.000000
# 5 0.000000 0.000000 0.000000 0.000000 0.021728 0.000000
# 6 0.000000 0.000000 0.000000 0.000000 0.000000 0.039233
#
#
# Mechanical properties :
#
#
# Convention : Reuss Voigt Hill
#
# Bulk Modulus (GPa) = 42.91724 49.89133 46.40428
# Shear Modulus (GPa) = 15.46461 34.11895 24.79178
#
# Velocity S-wave (km/s) = 2.64044 3.92198 3.34319
# Velocity P-wave (km/s) = 5.35204 6.55758 5.98524
#
# Compressibility (1/GPa) = 0.02330066
#
# Stress axis : x y z
#
# Youngs Moduli (GPa) = 88.58711 64.27374 160.87799
#
# Poissons Ratio (x) = 0.19319 0.32593
# Poissons Ratio (y) = 0.26628 -0.02425
# Poissons Ratio (z) = 0.17947 -0.00969
#
# Static dielectric constant tensor:
#      x y z
#    x 4.113310 0.000000 0.000000 
#    y 0.000000 3.554450 0.000000 
#    z 0.000000 0.000000 4.147480 
# 
# 
# High freq. dielectric constant tensor:
#      x y z
#    x 1.887020 0.000000 0.000000 
#    y 0.000000 1.850230 0.000000 
#    z 0.000000 0.000000 1.888100 
# 
# From -- ./inp_files/23908.got.cif
#   From: 2010.03.12/outbox.cif.g09.slc.cpg/sg66_12_cif.got.tgz:23908.got - 2010.04.10 21:57:39.
