data_PCOD8276457
_publ_section_title
;
Structure prediction by ZEFSAII (Michael W. Deem and Ramdas Pophale) SiO2 
 PCOD8276457
Probable space group: C C C M
;
_chemical_formula_sum "Si O2"
_cell_formula_units_Z 68
_cell_length_a 22.637274
_cell_length_b 8.571110
_cell_length_c 17.179757
_cell_angle_alpha 90.000000
_cell_angle_beta 90.000000
_cell_angle_gamma 90.000000
_cell_volume 3333.329248
_symmetry_space_group_name_H-M "C C C M"
_symmetry_group_IT_number 66
_symmetry_cell_setting 'orthorhombic'
loop_
_space_group_symop_operation_xyz
x,y,z
-x,-y,z
x,-y,1/2-z
-x,y,1/2-z
-x,-y,-z
x,y,-z
-x,y,1/2+z
x,-y,1/2+z
1/2+x,1/2+y,z
1/2-x,1/2-y,z
1/2+x,1/2-y,1/2-z
1/2-x,1/2+y,1/2-z
1/2-x,1/2-y,-z
1/2+x,1/2+y,-z
1/2-x,1/2+y,1/2+z
1/2+x,1/2-y,1/2+z
loop_
_atom_site_type_symbol
_atom_site_label
_atom_site_fract_x
_atom_site_fract_y
_atom_site_fract_z
Si Si1 0.384412 0.317378 0.408751
Si Si2 0.496047 0.831693 0.411506
Si Si3 0.899720 0.148013 0.653307
Si Si4 0.185179 0.318869 0.728494
Si Si5 0.000000 0.000000 0.750000
O O1 0.371568 0.287105 0.500000
O O2 0.452140 0.285044 0.381653
O O3 0.371519 0.498383 0.389027
O O4 0.342254 0.206496 0.357401
O O5 0.513405 0.859078 0.500000
O O6 0.428673 0.768043 0.408159
O O7 0.500000 0.000000 0.367968
O O8 0.850076 0.224415 0.706100
O O9 0.957855 0.113722 0.702588
O O10 0.185224 0.500000 0.750000
O O11 0.250000 0.250000 0.728157
#
# Coordination Sequence:
#
# PCOD8276457 Si02
#       5
#    16  16  16  16   4
#     4  11  22  39  63  94 128 164 206 262 321 377
#     4  10  20  34  57  93 131 164 201 255 322 382
#     4  12  20  38  62  92 126 165 213 258 318 379
#     4  12  26  45  67  90 123 171 221 266 311 373
#     4  12  20  32  64  92 124 160 204 266 304 376
#
# _framework density 20.400024999999999
#
# number of rings (size 3 to 8) (size 9 to 14) (size 15 to 20)
#    0.000    0.706    4.706    3.529    0.000    2.353 
#    0.000    3.529    0.000    4.941    0.000    0.000 
#    0.000    0.000    0.000    0.000    0.000    0.000 
#
# Total GULP energy -421435.036594 kJ/mol
# GULP energy per Si atom -12395.148135 kJ/mol
# Density = 2.035359 g / cm^3
# Si number density = 20.400025 Si / 1000 Ang^3
#
#
#
# Elastic Constant Matrix: (Units=GPa)
#
#
# Indices 1 2 3 4 5 6 
#
# 1 131.3035 41.9102 62.4188 0.0000 0.0000 0.0000
# 2 41.9102 134.1909 60.3862 0.0000 0.0000 0.0000
# 3 62.4188 60.3862 100.8981 0.0000 0.0000 0.0000
# 4 0.0000 0.0000 0.0000 29.2959 0.0000 0.0000
# 5 0.0000 0.0000 0.0000 0.0000 19.5411 0.0000
# 6 0.0000 0.0000 0.0000 0.0000 0.0000 36.6165
#
#
#
# Elastic Compliance Matrix: (Units=1/GPa)
#
#
# Indices 1 2 3 4 5 6 
#
# 1 0.010813 -0.000502 -0.006389 0.000000 0.000000 0.000000
# 2 -0.000502 0.010222 -0.005807 0.000000 0.000000 0.000000
# 3 -0.006389 -0.005807 0.017339 0.000000 0.000000 0.000000
# 4 0.000000 0.000000 0.000000 0.034134 0.000000 0.000000
# 5 0.000000 0.000000 0.000000 0.000000 0.051174 0.000000
# 6 0.000000 0.000000 0.000000 0.000000 0.000000 0.027310
#
#
# Mechanical properties :
#
#
# Convention : Reuss Voigt Hill
#
# Bulk Modulus (GPa) = 77.05432 77.31366 77.18399
# Shear Modulus (GPa) = 27.66776 30.53586 29.10181
#
# Velocity S-wave (km/s) = 3.68674 3.87312 3.78108
# Velocity P-wave (km/s) = 7.48174 7.61462 7.54847
#
# Compressibility (1/GPa) = 0.01297786
#
# Stress axis : x y z
#
# Youngs Moduli (GPa) = 92.47776 97.82685 57.67370
#
# Poissons Ratio (x) = 0.04912 0.36848
# Poissons Ratio (y) = 0.04644 0.33492
# Poissons Ratio (z) = 0.59084 0.56810
#
# Static dielectric constant tensor:
#      x y z
#    x 3.695960 0.000000 0.000000 
#    y 0.000000 3.996090 0.000000 
#    z 0.000000 0.000000 3.823580 
# 
# 
# High freq. dielectric constant tensor:
#      x y z
#    x 1.784440 0.000000 0.000000 
#    y 0.000000 1.812600 0.000000 
#    z 0.000000 0.000000 1.796060 
# 
# From -- ./inp_files/36487.got.cif
#   From: 2010.03.12/outbox.cif.g09.slc.cpg/sg66_19_cif.got.tgz:36487.got - 2010.04.10 21:57:39.
