data_PCOD8276914
_publ_section_title
;
Structure prediction by ZEFSAII (Michael W. Deem and Ramdas Pophale) SiO2 
 PCOD8276914
Probable space group: C C C M
;
_chemical_formula_sum "Si O2"
_cell_formula_units_Z 80
_cell_length_a 27.735586
_cell_length_b 8.508383
_cell_length_c 16.355163
_cell_angle_alpha 90.000000
_cell_angle_beta 90.000000
_cell_angle_gamma 90.000000
_cell_volume 3859.572951
_symmetry_space_group_name_H-M "C C C M"
_symmetry_group_IT_number 66
_symmetry_cell_setting 'orthorhombic'
loop_
_space_group_symop_operation_xyz
x,y,z
-x,-y,z
x,-y,1/2-z
-x,y,1/2-z
-x,-y,-z
x,y,-z
-x,y,1/2+z
x,-y,1/2+z
1/2+x,1/2+y,z
1/2-x,1/2-y,z
1/2+x,1/2-y,1/2-z
1/2-x,1/2+y,1/2-z
1/2-x,1/2-y,-z
1/2+x,1/2+y,-z
1/2-x,1/2+y,1/2+z
1/2+x,1/2-y,1/2+z
loop_
_atom_site_type_symbol
_atom_site_label
_atom_site_fract_x
_atom_site_fract_y
_atom_site_fract_z
Si Si1 0.622034 0.608689 0.171873
Si Si2 0.470926 0.801379 0.334484
Si Si3 0.346752 0.686725 0.907122
Si Si4 0.699140 0.813520 0.251433
Si Si5 0.561553 0.110401 0.908196
O O1 0.620311 0.500000 0.250000
O O2 0.568002 0.664988 0.152501
O O3 0.642722 0.500471 0.098664
O O4 0.657700 0.754084 0.189490
O O5 0.500000 0.788333 0.250000
O O6 0.511687 0.789716 0.405018
O O7 0.442754 0.967630 0.343637
O O8 0.306366 0.745276 0.843688
O O9 0.394939 0.779298 0.880671
O O10 0.330667 0.724742 0.000000
O O11 0.750000 0.750000 0.217892
O O12 0.698388 0.000000 0.250000
O O13 0.569546 0.046758 0.000000
#
# Coordination Sequence:
#
# PCOD8276914 Si02
#       5
#    16  16  16  16  16
#     4  10  22  37  55  83 113 147 190 235 287 342
#     4  11  20  32  53  79 109 150 199 242 277 331
#     4  10  22  39  59  86 120 154 192 241 292 345
#     4  11  22  41  66  88 114 149 189 236 292 352
#     4  10  21  35  51  77 113 152 190 230 284 338
#
# _framework density 20.727681
#
# number of rings (size 3 to 8) (size 9 to 14) (size 15 to 20)
#    0.000    1.600    0.000    7.800    0.000    6.400 
#    0.000    3.000    0.000    2.400    0.000    0.000 
#    0.000    0.000    0.000    0.000    0.000    0.000 
#
# Total GULP energy -495873.199908 kJ/mol
# GULP energy per Si atom -12396.829998 kJ/mol
# Density = 2.068050 g / cm^3
# Si number density = 20.727681 Si / 1000 Ang^3
#
#
#
# Elastic Constant Matrix: (Units=GPa)
#
#
# Indices 1 2 3 4 5 6 
#
# 1 77.9857 29.0977 3.7338 0.0000 0.0000 0.0000
# 2 29.0977 105.9893 11.2354 0.0000 0.0000 0.0000
# 3 3.7338 11.2354 59.4935 0.0000 0.0000 0.0000
# 4 0.0000 0.0000 0.0000 15.4074 0.0000 0.0000
# 5 0.0000 0.0000 0.0000 0.0000 24.7121 0.0000
# 6 0.0000 0.0000 0.0000 0.0000 0.0000 40.1553
#
#
#
# Elastic Compliance Matrix: (Units=1/GPa)
#
#
# Indices 1 2 3 4 5 6 
#
# 1 0.014288 -0.003906 -0.000159 0.000000 0.000000 0.000000
# 2 -0.003906 0.010695 -0.001775 0.000000 0.000000 0.000000
# 3 -0.000159 -0.001775 0.017154 0.000000 0.000000 0.000000
# 4 0.000000 0.000000 0.000000 0.064904 0.000000 0.000000
# 5 0.000000 0.000000 0.000000 0.000000 0.040466 0.000000
# 6 0.000000 0.000000 0.000000 0.000000 0.000000 0.024903
#
#
# Mechanical properties :
#
#
# Convention : Reuss Voigt Hill
#
# Bulk Modulus (GPa) = 32.83225 36.84470 34.83848
# Shear Modulus (GPa) = 25.74115 29.34840 27.54478
#
# Velocity S-wave (km/s) = 3.52785 3.76693 3.64935
# Velocity P-wave (km/s) = 5.69811 6.06085 5.88228
#
# Compressibility (1/GPa) = 0.03045786
#
# Stress axis : x y z
#
# Youngs Moduli (GPa) = 69.99016 93.49924 58.29645
#
# Poissons Ratio (x) = 0.36517 0.00928
# Poissons Ratio (y) = 0.27335 0.10346
# Poissons Ratio (z) = 0.01114 0.16593
#
# Static dielectric constant tensor:
#      x y z
#    x 3.948190 0.000000 0.000000 
#    y 0.000000 3.949840 0.000000 
#    z 0.000000 0.000000 3.773040 
# 
# 
# High freq. dielectric constant tensor:
#      x y z
#    x 1.812850 0.000000 0.000000 
#    y 0.000000 1.808550 0.000000 
#    z 0.000000 0.000000 1.796660 
# 
# From -- ./inp_files/44600.got.cif
#   From: 2010.03.12/outbox.cif.g09.slc.cpg/sg66_23_cif.got.tgz:44600.got - 2010.04.10 21:57:39.
