data_PCOD8276601
_publ_section_title
;
Structure prediction by ZEFSAII (Michael W. Deem and Ramdas Pophale) SiO2 
 PCOD8276601
Probable space group: C C C M
;
_chemical_formula_sum "Si O2"
_cell_formula_units_Z 96
_cell_length_a 9.452649
_cell_length_b 29.601860
_cell_length_c 18.573290
_cell_angle_alpha 90.000000
_cell_angle_beta 90.000000
_cell_angle_gamma 90.000000
_cell_volume 5197.103572
_symmetry_space_group_name_H-M "C C C M"
_symmetry_group_IT_number 66
_symmetry_cell_setting 'orthorhombic'
loop_
_space_group_symop_operation_xyz
x,y,z
-x,-y,z
x,-y,1/2-z
-x,y,1/2-z
-x,-y,-z
x,y,-z
-x,y,1/2+z
x,-y,1/2+z
1/2+x,1/2+y,z
1/2-x,1/2-y,z
1/2+x,1/2-y,1/2-z
1/2-x,1/2+y,1/2-z
1/2-x,1/2-y,-z
1/2+x,1/2+y,-z
1/2-x,1/2+y,1/2+z
1/2+x,1/2-y,1/2+z
loop_
_atom_site_type_symbol
_atom_site_label
_atom_site_fract_x
_atom_site_fract_y
_atom_site_fract_z
Si Si1 0.127049 0.714019 0.416064
Si Si2 0.672513 0.879743 0.319063
Si Si3 0.887936 0.720540 0.315702
Si Si4 0.670304 0.456093 0.584442
Si Si5 0.353120 0.444124 0.585229
Si Si6 0.353310 0.882710 0.342136
O O1 0.106297 0.703555 0.500000
O O2 0.250000 0.750000 0.402449
O O3 0.165149 0.667447 0.375006
O O4 0.981726 0.735989 0.384534
O O5 0.679013 0.827085 0.336274
O O6 0.776818 0.904670 0.372382
O O7 0.515285 0.897354 0.334305
O O8 0.719509 0.885972 0.236131
O O9 0.750000 0.750000 0.297748
O O10 0.000000 0.716985 0.250000
O O11 0.666042 0.458452 0.500000
O O12 0.515576 0.441091 0.610436
O O13 0.707530 0.506999 0.610572
O O14 0.785277 0.420062 0.607513
O O15 0.333747 0.436226 0.500000
#
# Coordination Sequence:
#
# PCOD8276601 Si02
#       6
#    16  16  16  16  16  16
#     4  10  21  38  60  87 119 154 195 243 292 344
#     4  10  21  37  55  84 113 146 190 236 285 346
#     4  11  22  40  61  83 117 155 196 236 293 354
#     4   9  19  37  58  80 111 154 195 235 290 346
#     4   9  20  38  57  81 115 150 191 242 289 340
#     4  10  20  36  56  81 115 149 192 235 286 344
#
# _framework density 18.471827999999999
#
# number of rings (size 3 to 8) (size 9 to 14) (size 15 to 20)
#    0.000    2.167    3.333    2.000    0.000    7.000 
#    0.000    6.667    0.000    0.000    0.000    0.000 
#    0.000    0.000    0.000    0.000    0.000    0.000 
#
# Total GULP energy -594911.398918 kJ/mol
# GULP energy per Si atom -12393.987477 kJ/mol
# Density = 1.842978 g / cm^3
# Si number density = 18.471828 Si / 1000 Ang^3
#
#
#
# Elastic Constant Matrix: (Units=GPa)
#
#
# Indices 1 2 3 4 5 6 
#
# 1 85.4984 68.6398 41.9339 0.0000 0.0000 0.0000
# 2 68.6398 105.1255 42.5039 0.0000 0.0000 0.0000
# 3 41.9339 42.5039 72.7021 0.0000 0.0000 0.0000
# 4 0.0000 0.0000 0.0000 27.4594 0.0000 0.0000
# 5 0.0000 0.0000 0.0000 0.0000 30.7179 0.0000
# 6 0.0000 0.0000 0.0000 0.0000 0.0000 27.7330
#
#
#
# Elastic Compliance Matrix: (Units=1/GPa)
#
#
# Indices 1 2 3 4 5 6 
#
# 1 0.026984 -0.014832 -0.006893 0.000000 0.000000 0.000000
# 2 -0.014832 0.020609 -0.003494 0.000000 0.000000 0.000000
# 3 -0.006893 -0.003494 0.019773 0.000000 0.000000 0.000000
# 4 0.000000 0.000000 0.000000 0.036417 0.000000 0.000000
# 5 0.000000 0.000000 0.000000 0.000000 0.032554 0.000000
# 6 0.000000 0.000000 0.000000 0.000000 0.000000 0.036058
#
#
# Mechanical properties :
#
#
# Convention : Reuss Voigt Hill
#
# Bulk Modulus (GPa) = 59.07016 63.27570 61.17293
# Shear Modulus (GPa) = 21.88395 24.53193 23.20794
#
# Velocity S-wave (km/s) = 3.44571 3.64823 3.54841
# Velocity P-wave (km/s) = 6.91943 7.21635 7.06945
#
# Compressibility (1/GPa) = 0.01692902
#
# Stress axis : x y z
#
# Youngs Moduli (GPa) = 37.05856 48.52160 50.57325
#
# Poissons Ratio (x) = 0.71967 0.34860
# Poissons Ratio (y) = 0.54965 0.17670
# Poissons Ratio (z) = 0.25545 0.16953
#
# Static dielectric constant tensor:
#      x y z
#    x 3.205060 0.000000 0.000000 
#    y 0.000000 3.652520 0.000000 
#    z 0.000000 0.000000 3.465570 
# 
# 
# High freq. dielectric constant tensor:
#      x y z
#    x 1.711940 0.000000 0.000000 
#    y 0.000000 1.718060 0.000000 
#    z 0.000000 0.000000 1.721410 
# 
# From -- ./inp_files/47289.got.cif
#   From: 2010.03.12/outbox.cif.g09.slc.cpg/sg66_24_cif.got.tgz:47289.got - 2010.04.10 21:57:39.
