data_PCOD8276844
_publ_section_title
;
Structure prediction by ZEFSAII (Michael W. Deem and Ramdas Pophale) SiO2 
 PCOD8276844
Probable space group: C C C M
;
_chemical_formula_sum "Si O2"
_cell_formula_units_Z 64
_cell_length_a 11.288490
_cell_length_b 17.396937
_cell_length_c 14.364969
_cell_angle_alpha 90.000000
_cell_angle_beta 90.000000
_cell_angle_gamma 90.000000
_cell_volume 2821.066583
_symmetry_space_group_name_H-M "C C C M"
_symmetry_group_IT_number 66
_symmetry_cell_setting 'orthorhombic'
loop_
_space_group_symop_operation_xyz
x,y,z
-x,-y,z
x,-y,1/2-z
-x,y,1/2-z
-x,-y,-z
x,y,-z
-x,y,1/2+z
x,-y,1/2+z
1/2+x,1/2+y,z
1/2-x,1/2-y,z
1/2+x,1/2-y,1/2-z
1/2-x,1/2+y,1/2-z
1/2-x,1/2-y,-z
1/2+x,1/2+y,-z
1/2-x,1/2+y,1/2+z
1/2+x,1/2-y,1/2+z
loop_
_atom_site_type_symbol
_atom_site_label
_atom_site_fract_x
_atom_site_fract_y
_atom_site_fract_z
Si Si1 0.622086 0.032680 0.106409
Si Si2 0.253532 0.663632 0.200659
Si Si3 0.967324 0.916027 0.604447
Si Si4 0.230905 0.116248 0.898168
O O1 0.650512 0.112776 0.155975
O O2 0.500000 0.000000 0.149717
O O3 0.730273 0.972567 0.120313
O O4 0.600143 0.053363 0.000000
O O5 0.250000 0.750000 0.160738
O O6 0.380764 0.626277 0.176631
O O7 0.225630 0.667007 0.311500
O O8 0.909110 0.920515 0.500000
O O9 0.090556 0.871359 0.598010
O O10 0.000000 0.000000 0.642767
O O11 0.283698 0.141994 0.000000
#
# Coordination Sequence:
#
# PCOD8276844 Si02
#       4
#    16  16  16  16
#     4  10  22  43  69  96 128 173 223 268 323 396
#     4  12  25  40  66 103 136 166 214 278 338 384
#     4  10  20  39  69  98 127 169 222 270 322 391
#     4  10  22  42  66  91 128 181 229 265 314 393
#
# _framework density 22.686456
#
# number of rings (size 3 to 8) (size 9 to 14) (size 15 to 20)
#    0.000    1.500    2.500    2.250    0.000    5.500 
#    9.000    0.000    0.000    0.000    0.000    0.000 
#    0.000    0.000    0.000    0.000    0.000    0.000 
#
# Total GULP energy -396670.021056 kJ/mol
# GULP energy per Si atom -12395.938158 kJ/mol
# Density = 2.263482 g / cm^3
# Si number density = 22.686456 Si / 1000 Ang^3
#
#
#
# Elastic Constant Matrix: (Units=GPa)
#
#
# Indices 1 2 3 4 5 6 
#
# 1 113.1553 56.9966 39.2407 0.0000 0.0000 0.0000
# 2 56.9966 136.4866 50.0004 0.0000 0.0000 0.0000
# 3 39.2407 50.0004 123.4990 0.0000 0.0000 0.0000
# 4 0.0000 0.0000 0.0000 9.5768 0.0000 0.0000
# 5 0.0000 0.0000 0.0000 0.0000 5.6127 0.0000
# 6 0.0000 0.0000 0.0000 0.0000 0.0000 25.7297
#
#
#
# Elastic Compliance Matrix: (Units=1/GPa)
#
#
# Indices 1 2 3 4 5 6 
#
# 1 0.011608 -0.004105 -0.002026 0.000000 0.000000 0.000000
# 2 -0.004105 0.010054 -0.002766 0.000000 0.000000 0.000000
# 3 -0.002026 -0.002766 0.009861 0.000000 0.000000 0.000000
# 4 0.000000 0.000000 0.000000 0.104419 0.000000 0.000000
# 5 0.000000 0.000000 0.000000 0.000000 0.178166 0.000000
# 6 0.000000 0.000000 0.000000 0.000000 0.000000 0.038866
#
#
# Mechanical properties :
#
#
# Convention : Reuss Voigt Hill
#
# Bulk Modulus (GPa) = 72.84432 73.95737 73.40084
# Shear Modulus (GPa) = 13.32104 23.31071 18.31587
#
# Velocity S-wave (km/s) = 2.42581 3.20897 2.84447
# Velocity P-wave (km/s) = 6.32653 6.81179 6.57364
#
# Compressibility (1/GPa) = 0.01372791
#
# Stress axis : x y z
#
# Youngs Moduli (GPa) = 86.14859 99.45864 101.40906
#
# Poissons Ratio (x) = 0.40829 0.20548
# Poissons Ratio (y) = 0.35365 0.28053
# Poissons Ratio (z) = 0.17456 0.27513
#
# Static dielectric constant tensor:
#      x y z
#    x 4.035430 0.000000 0.000000 
#    y 0.000000 3.599900 0.000000 
#    z 0.000000 0.000000 4.357940 
# 
# 
# High freq. dielectric constant tensor:
#      x y z
#    x 1.888980 0.000000 0.000000 
#    y 0.000000 1.854150 0.000000 
#    z 0.000000 0.000000 1.911320 
# 
# From -- ./inp_files/25754.got.cif
#   From: 2010.03.12/outbox.cif.g09.slc.cpg/sg66_13_cif.got.tgz:25754.got - 2010.04.10 21:57:39.
