data_PCOD8276077
_publ_section_title
;
Structure prediction by ZEFSAII (Michael W. Deem and Ramdas Pophale) SiO2 
 PCOD8276077
Probable space group: C C C M
;
_chemical_formula_sum "Si O2"
_cell_formula_units_Z 80
_cell_length_a 8.147457
_cell_length_b 18.230739
_cell_length_c 27.845163
_cell_angle_alpha 90.000000
_cell_angle_beta 90.000000
_cell_angle_gamma 90.000000
_cell_volume 4135.957954
_symmetry_space_group_name_H-M "C C C M"
_symmetry_group_IT_number 66
_symmetry_cell_setting 'orthorhombic'
loop_
_space_group_symop_operation_xyz
x,y,z
-x,-y,z
x,-y,1/2-z
-x,y,1/2-z
-x,-y,-z
x,y,-z
-x,y,1/2+z
x,-y,1/2+z
1/2+x,1/2+y,z
1/2-x,1/2-y,z
1/2+x,1/2-y,1/2-z
1/2-x,1/2+y,1/2-z
1/2-x,1/2-y,-z
1/2+x,1/2+y,-z
1/2-x,1/2+y,1/2+z
1/2+x,1/2-y,1/2+z
loop_
_atom_site_type_symbol
_atom_site_label
_atom_site_fract_x
_atom_site_fract_y
_atom_site_fract_z
Si Si1 0.008630 0.269048 0.500000
Si Si2 0.912533 0.075827 0.096308
Si Si3 0.000000 0.000000 0.250000
Si Si4 0.750000 0.250000 0.835724
Si Si5 0.000000 0.500000 0.750000
Si Si6 0.074486 0.227232 0.897241
Si Si7 0.776413 0.875024 0.500000
Si Si8 0.748953 0.407067 0.807833
O O1 0.135227 0.202624 0.500000
O O2 0.086379 0.351016 0.500000
O O3 0.908203 0.262175 0.549488
O O4 0.822228 0.076220 0.045508
O O5 0.766246 0.083938 0.134833
O O6 0.051137 0.139259 0.100817
O O7 0.000000 0.000000 0.104800
O O8 0.094763 0.944665 0.216297
O O9 0.586113 0.242395 0.868974
O O10 0.747517 0.319356 0.799513
O O11 0.093699 0.553932 0.785793
O O12 0.250000 0.250000 0.872240
#
# Coordination Sequence:
#
# PCOD8276077 Si02
#       8
#     8  16   4   8   4  16   8  16
#     4   9  15  30  51  76 114 154 201 248 283 340
#     4  10  19  34  57  84 120 158 193 239 295 358
#     4  10  20  40  64  80 112 156 196 234 304 362
#     4  10  22  39  58  88 120 146 194 247 298 356
#     4  10  24  40  64  88 112 152 204 246 304 366
#     4  10  20  34  56  85 114 157 201 243 294 347
#     4   9  17  30  55  83 116 159 196 237 293 348
#     4  10  21  40  61  87 116 153 195 246 299 356
#
# _framework density 19.342555999999998
#
# number of rings (size 3 to 8) (size 9 to 14) (size 15 to 20)
#    0.000    2.200    1.000    4.200    0.000    2.400 
#    3.600    0.000    0.000    1.800    0.000    0.000 
#    0.000    0.000    0.000    0.000    0.000    0.000 
#
# Total GULP energy -495608.435902 kJ/mol
# GULP energy per Si atom -12390.210898 kJ/mol
# Density = 1.929853 g / cm^3
# Si number density = 19.342556 Si / 1000 Ang^3
#
#
#
# Elastic Constant Matrix: (Units=GPa)
#
#
# Indices 1 2 3 4 5 6 
#
# 1 127.4144 52.9831 45.3560 0.0000 0.0000 0.0000
# 2 52.9831 145.0088 44.2491 0.0000 0.0000 0.0000
# 3 45.3560 44.2491 97.6039 0.0000 0.0000 0.0000
# 4 0.0000 0.0000 0.0000 -6.0100 0.0000 0.0000
# 5 0.0000 0.0000 0.0000 0.0000 36.5188 0.0000
# 6 0.0000 0.0000 0.0000 0.0000 0.0000 23.5795
#
#
#
# Elastic Compliance Matrix: (Units=1/GPa)
#
#
# Indices 1 2 3 4 5 6 
#
# 1 0.010212 -0.002650 -0.003544 0.000000 0.000000 0.000000
# 2 -0.002650 0.008691 -0.002709 0.000000 0.000000 0.000000
# 3 -0.003544 -0.002709 0.013120 0.000000 0.000000 0.000000
# 4 0.000000 0.000000 0.000000 -0.166388 0.000000 0.000000
# 5 0.000000 0.000000 0.000000 0.000000 0.027383 0.000000
# 6 0.000000 0.000000 0.000000 0.000000 0.000000 0.042410
#
#
# Mechanical properties :
#
#
# Convention : Reuss Voigt Hill
#
# Bulk Modulus (GPa) = 70.33337 72.80041 71.56689
# Shear Modulus (GPa) = -118.96851 25.98024 -46.49413
#
# Velocity S-wave (km/s) = -7.85109 3.66890 -4.90810
# Velocity P-wave (km/s) = 6.76352 7.46102 2.22729
#
# Compressibility (1/GPa) = 0.01421800
#
# Stress axis : x y z
#
# Youngs Moduli (GPa) = 97.92535 115.06364 76.21692
#
# Poissons Ratio (x) = 0.30489 0.27012
# Poissons Ratio (y) = 0.25947 0.20645
# Poissons Ratio (z) = 0.34706 0.31168
#
# Static dielectric constant tensor:
#      x y z
#    x 3.444720 0.000000 0.000000 
#    y 0.000000 3.589750 0.000000 
#    z 0.000000 0.000000 3.602070 
# 
# 
# High freq. dielectric constant tensor:
#      x y z
#    x 1.739560 0.000000 0.000000 
#    y 0.000000 1.754480 0.000000 
#    z 0.000000 0.000000 1.751760 
# 
# From -- ./inp_files/62492.got.cif
#   From: 2010.03.12/outbox.cif.g09.slc.cpg/sg66_32_cif.got.tgz:62492.got - 2010.04.10 21:57:39.
