data_PCOD8276596
_publ_section_title
;
Structure prediction by ZEFSAII (Michael W. Deem and Ramdas Pophale) SiO2 
 PCOD8276596
Probable space group: C C C M
;
_chemical_formula_sum "Si O2"
_cell_formula_units_Z 96
_cell_length_a 23.720156
_cell_length_b 23.851092
_cell_length_c 8.747547
_cell_angle_alpha 90.000000
_cell_angle_beta 90.000000
_cell_angle_gamma 90.000000
_cell_volume 4948.938913
_symmetry_space_group_name_H-M "C C C M"
_symmetry_group_IT_number 66
_symmetry_cell_setting 'orthorhombic'
loop_
_space_group_symop_operation_xyz
x,y,z
-x,-y,z
x,-y,1/2-z
-x,y,1/2-z
-x,-y,-z
x,y,-z
-x,y,1/2+z
x,-y,1/2+z
1/2+x,1/2+y,z
1/2-x,1/2-y,z
1/2+x,1/2-y,1/2-z
1/2-x,1/2+y,1/2-z
1/2-x,1/2-y,-z
1/2+x,1/2+y,-z
1/2-x,1/2+y,1/2+z
1/2+x,1/2-y,1/2+z
loop_
_atom_site_type_symbol
_atom_site_label
_atom_site_fract_x
_atom_site_fract_y
_atom_site_fract_z
Si Si1 0.140728 0.652092 0.820376
Si Si2 0.641492 0.267114 0.676999
Si Si3 0.270093 0.341140 0.321784
Si Si4 0.059892 0.130270 0.177122
Si Si5 0.649444 0.558066 0.321335
Si Si6 0.060199 0.560151 0.317889
O O1 0.119627 0.713535 0.771466
O O2 0.206064 0.648697 0.771567
O O3 0.107126 0.605052 0.728233
O O4 0.131490 0.642684 0.000000
O O5 0.645620 0.251167 0.500000
O O6 0.702812 0.288222 0.733813
O O7 0.596000 0.314647 0.710724
O O8 0.274993 0.327171 0.500000
O O9 0.302798 0.397452 0.276672
O O10 0.089437 0.076552 0.252891
O O11 0.000000 0.140852 0.250000
O O12 0.053217 0.117585 0.000000
O O13 0.669459 0.500000 0.250000
O O14 0.642319 0.551015 0.500000
O O15 0.077986 0.500000 0.250000
O O16 0.055751 0.555946 0.500000
O O17 0.000000 0.579137 0.250000
#
# Coordination Sequence:
#
# PCOD8276596 Si02
#       6
#    16  16  16  16  16  16
#     4  11  22  37  59  87 116 149 189 228 272 331
#     4  10  21  36  55  82 115 149 187 233 283 332
#     4   9  20  37  56  80 113 151 187 229 281 332
#     4  10  21  37  56  79 108 143 184 229 278 328
#     4  10  20  36  56  79 109 144 184 228 276 326
#     4  11  23  42  64  86 114 147 184 228 280 332
#
# _framework density 19.398097
#
# number of rings (size 3 to 8) (size 9 to 14) (size 15 to 20)
#    0.000    1.833    0.000    4.500    0.000    7.667 
#    0.000    5.000    0.000    0.000    0.000    0.000 
#    0.000    0.000    0.000    0.000    0.000    0.000 
#
# Total GULP energy -595423.864336 kJ/mol
# GULP energy per Si atom -12404.663840 kJ/mol
# Density = 1.935395 g / cm^3
# Si number density = 19.398097 Si / 1000 Ang^3
#
#
#
# Elastic Constant Matrix: (Units=GPa)
#
#
# Indices 1 2 3 4 5 6 
#
# 1 72.3219 31.1468 23.8000 0.0000 0.0000 0.0000
# 2 31.1468 106.0257 42.0994 0.0000 0.0000 0.0000
# 3 23.8000 42.0994 88.7244 0.0000 0.0000 0.0000
# 4 0.0000 0.0000 0.0000 38.7825 0.0000 0.0000
# 5 0.0000 0.0000 0.0000 0.0000 31.3188 0.0000
# 6 0.0000 0.0000 0.0000 0.0000 0.0000 25.5458
#
#
#
# Elastic Compliance Matrix: (Units=1/GPa)
#
#
# Indices 1 2 3 4 5 6 
#
# 1 0.016298 -0.003760 -0.002588 0.000000 0.000000 0.000000
# 2 -0.003760 0.012489 -0.004917 0.000000 0.000000 0.000000
# 3 -0.002588 -0.004917 0.014298 0.000000 0.000000 0.000000
# 4 0.000000 0.000000 0.000000 0.025785 0.000000 0.000000
# 5 0.000000 0.000000 0.000000 0.000000 0.031930 0.000000
# 6 0.000000 0.000000 0.000000 0.000000 0.000000 0.039145
#
#
# Mechanical properties :
#
#
# Convention : Reuss Voigt Hill
#
# Bulk Modulus (GPa) = 48.65068 51.24050 49.94559
# Shear Modulus (GPa) = 29.52869 30.46447 29.99658
#
# Velocity S-wave (km/s) = 3.90583 3.96724 3.93665
# Velocity P-wave (km/s) = 6.74353 6.88897 6.81664
#
# Compressibility (1/GPa) = 0.02055470
#
# Stress axis : x y z
#
# Youngs Moduli (GPa) = 61.35690 80.07162 69.93907
#
# Poissons Ratio (x) = 0.30110 0.18097
# Poissons Ratio (y) = 0.23073 0.34390
# Poissons Ratio (z) = 0.15877 0.39373
#
# Static dielectric constant tensor:
#      x y z
#    x 3.552000 0.000000 0.000000 
#    y 0.000000 3.626830 0.000000 
#    z 0.000000 0.000000 3.638700 
# 
# 
# High freq. dielectric constant tensor:
#      x y z
#    x 1.754170 0.000000 0.000000 
#    y 0.000000 1.761470 0.000000 
#    z 0.000000 0.000000 1.767820 
# 
# From -- ./inp_files/9111.got.cif
#   From: 2010.03.12/outbox.cif.g09.slc.cpg/sg66_5_cif.got.tgz:9111.got - 2010.04.10 21:57:39.
