data_PCOD8276982
_publ_section_title
;
Structure prediction by ZEFSAII (Michael W. Deem and Ramdas Pophale) SiO2 
 PCOD8276982
Probable space group: C C C M
;
_chemical_formula_sum "Si O2"
_cell_formula_units_Z 52
_cell_length_a 7.362097
_cell_length_b 19.039533
_cell_length_c 18.105380
_cell_angle_alpha 90.000000
_cell_angle_beta 90.000000
_cell_angle_gamma 90.000000
_cell_volume 2537.847206
_symmetry_space_group_name_H-M "C C C M"
_symmetry_group_IT_number 66
_symmetry_cell_setting 'orthorhombic'
loop_
_space_group_symop_operation_xyz
x,y,z
-x,-y,z
x,-y,1/2-z
-x,y,1/2-z
-x,-y,-z
x,y,-z
-x,y,1/2+z
x,-y,1/2+z
1/2+x,1/2+y,z
1/2-x,1/2-y,z
1/2+x,1/2-y,1/2-z
1/2-x,1/2+y,1/2-z
1/2-x,1/2-y,-z
1/2+x,1/2+y,-z
1/2-x,1/2+y,1/2+z
1/2+x,1/2-y,1/2+z
loop_
_atom_site_type_symbol
_atom_site_label
_atom_site_fract_x
_atom_site_fract_y
_atom_site_fract_z
Si Si1 0.308971 0.373954 0.818036
Si Si2 0.806325 0.173363 0.156101
Si Si3 0.500000 0.500000 0.250000
Si Si4 0.013584 0.419056 0.413559
O O1 0.477430 0.333484 0.855717
O O2 0.252086 0.336072 0.741962
O O3 0.371601 0.453330 0.801678
O O4 0.139628 0.373205 0.872656
O O5 0.750000 0.250000 0.127725
O O6 0.708246 0.113042 0.108080
O O7 0.980095 0.411922 0.500000
O O8 0.000000 0.500000 0.388391
#
# Coordination Sequence:
#
# PCOD8276982 Si02
#       4
#    16  16   4  16
#     4  10  21  36  64  87 118 156 202 254 308 355
#     4  10  23  39  62  90 122 155 206 258 303 359
#     4   8  16  36  56  92 112 146 202 262 298 348
#     4  11  24  40  61  90 125 164 203 248 307 372
#
# _framework density 20.489806999999999
#
# number of rings (size 3 to 8) (size 9 to 14) (size 15 to 20)
#    0.000    2.154    0.000    4.615    8.615    3.077 
#    0.000    5.385    0.000    0.000    0.000    0.000 
#    0.000    0.000    0.000    0.000    0.000    0.000 
#
# Total GULP energy -322458.818674 kJ/mol
# GULP energy per Si atom -12402.262257 kJ/mol
# Density = 2.044317 g / cm^3
# Si number density = 20.489807 Si / 1000 Ang^3
#
#
#
# Elastic Constant Matrix: (Units=GPa)
#
#
# Indices 1 2 3 4 5 6 
#
# 1 74.4543 5.9021 25.8548 0.0000 0.0000 0.0000
# 2 5.9021 100.8178 1.5808 0.0000 0.0000 0.0000
# 3 25.8548 1.5808 54.6315 0.0000 0.0000 0.0000
# 4 0.0000 0.0000 0.0000 7.3357 0.0000 0.0000
# 5 0.0000 0.0000 0.0000 0.0000 16.7142 0.0000
# 6 0.0000 0.0000 0.0000 0.0000 0.0000 24.5772
#
#
#
# Elastic Compliance Matrix: (Units=1/GPa)
#
#
# Indices 1 2 3 4 5 6 
#
# 1 0.016141 -0.000826 -0.007615 0.000000 0.000000 0.000000
# 2 -0.000826 0.009966 0.000102 0.000000 0.000000 0.000000
# 3 -0.007615 0.000102 0.021905 0.000000 0.000000 0.000000
# 4 0.000000 0.000000 0.000000 0.136320 0.000000 0.000000
# 5 0.000000 0.000000 0.000000 0.000000 0.059829 0.000000
# 6 0.000000 0.000000 0.000000 0.000000 0.000000 0.040688
#
#
# Mechanical properties :
#
#
# Convention : Reuss Voigt Hill
#
# Bulk Modulus (GPa) = 31.91259 32.95319 32.43289
# Shear Modulus (GPa) = 16.02715 22.82980 19.42847
#
# Velocity S-wave (km/s) = 2.79982 3.34159 3.08263
# Velocity P-wave (km/s) = 5.10496 5.56830 5.34166
#
# Compressibility (1/GPa) = 0.03133559
#
# Stress axis : x y z
#
# Youngs Moduli (GPa) = 61.95468 100.34508 45.65101
#
# Poissons Ratio (x) = 0.08284 0.34763
# Poissons Ratio (y) = 0.05114 -0.00467
# Poissons Ratio (z) = 0.47178 -0.01027
#
# Static dielectric constant tensor:
#      x y z
#    x 3.687490 0.000000 0.000000 
#    y 0.000000 3.702980 0.000000 
#    z 0.000000 0.000000 3.405810 
# 
# 
# High freq. dielectric constant tensor:
#      x y z
#    x 1.807890 0.000000 0.000000 
#    y 0.000000 1.807450 0.000000 
#    z 0.000000 0.000000 1.772610 
# 
# From -- ./inp_files/35936.got.cif
#   From: 2010.03.12/outbox.cif.g09.slc.cpg/sg66_18_cif.got.tgz:35936.got - 2010.04.10 21:57:39.
