data_PCOD8276960
_publ_section_title
;
Structure prediction by ZEFSAII (Michael W. Deem and Ramdas Pophale) SiO2 
 PCOD8276960
Probable space group: C C C M
;
_chemical_formula_sum "Si O2"
_cell_formula_units_Z 80
_cell_length_a 11.327413
_cell_length_b 25.448127
_cell_length_c 14.595665
_cell_angle_alpha 90.000000
_cell_angle_beta 90.000000
_cell_angle_gamma 90.000000
_cell_volume 4207.367478
_symmetry_space_group_name_H-M "C C C M"
_symmetry_group_IT_number 66
_symmetry_cell_setting 'orthorhombic'
loop_
_space_group_symop_operation_xyz
x,y,z
-x,-y,z
x,-y,1/2-z
-x,y,1/2-z
-x,-y,-z
x,y,-z
-x,y,1/2+z
x,-y,1/2+z
1/2+x,1/2+y,z
1/2-x,1/2-y,z
1/2+x,1/2-y,1/2-z
1/2-x,1/2+y,1/2-z
1/2-x,1/2-y,-z
1/2+x,1/2+y,-z
1/2-x,1/2+y,1/2+z
1/2+x,1/2-y,1/2+z
loop_
_atom_site_type_symbol
_atom_site_label
_atom_site_fract_x
_atom_site_fract_y
_atom_site_fract_z
Si Si1 0.531865 0.380526 0.854145
Si Si2 0.135749 0.392962 0.273120
Si Si3 0.755411 0.809624 0.395431
Si Si4 0.783746 0.086856 0.399669
Si Si5 0.779459 0.965525 0.606265
O O1 0.500000 0.371021 0.750000
O O2 0.611232 0.331994 0.888887
O O3 0.409991 0.384502 0.909069
O O4 0.602459 0.434680 0.866771
O O5 0.164317 0.342006 0.333490
O O6 0.204797 0.386158 0.177455
O O7 0.172491 0.444763 0.330338
O O8 0.000000 0.397109 0.250000
O O9 0.711745 0.813286 0.500000
O O10 0.750000 0.750000 0.360240
O O11 0.722539 0.091491 0.500000
O O12 0.802002 0.026176 0.372306
O O13 0.747497 0.955447 0.500000
#
# Coordination Sequence:
#
# PCOD8276960 Si02
#       5
#    16  16  16  16  16
#     4  11  19  34  61  88 119 150 186 246 300 348
#     4  11  23  39  57  82 118 159 201 248 288 348
#     4  10  22  42  66  87 110 148 196 246 305 364
#     4  11  22  35  56  88 123 157 192 238 292 343
#     4  10  21  36  56  84 120 161 199 233 284 353
#
# _framework density 19.014265000000002
#
# number of rings (size 3 to 8) (size 9 to 14) (size 15 to 20)
#    0.000    1.400    4.000    4.800    0.000    6.400 
#    0.000    2.000    0.000    0.600    0.000    0.000 
#    0.000    0.000    0.000    0.000    0.000    0.000 
#
# Total GULP energy -495988.698678 kJ/mol
# GULP energy per Si atom -12399.717467 kJ/mol
# Density = 1.897099 g / cm^3
# Si number density = 19.014265 Si / 1000 Ang^3
#
#
#
# Elastic Constant Matrix: (Units=GPa)
#
#
# Indices 1 2 3 4 5 6 
#
# 1 136.8304 31.3013 35.7663 0.0000 0.0000 0.0000
# 2 31.3013 83.9323 31.9658 0.0000 0.0000 0.0000
# 3 35.7663 31.9658 100.7633 0.0000 0.0000 0.0000
# 4 0.0000 0.0000 0.0000 33.0513 0.0000 0.0000
# 5 0.0000 0.0000 0.0000 0.0000 7.9975 0.0000
# 6 0.0000 0.0000 0.0000 0.0000 0.0000 14.7660
#
#
#
# Elastic Compliance Matrix: (Units=1/GPa)
#
#
# Indices 1 2 3 4 5 6 
#
# 1 0.008422 -0.002277 -0.002267 0.000000 0.000000 0.000000
# 2 -0.002277 0.014168 -0.003686 0.000000 0.000000 0.000000
# 3 -0.002267 -0.003686 0.011898 0.000000 0.000000 0.000000
# 4 0.000000 0.000000 0.000000 0.030256 0.000000 0.000000
# 5 0.000000 0.000000 0.000000 0.000000 0.125039 0.000000
# 6 0.000000 0.000000 0.000000 0.000000 0.000000 0.067723
#
#
# Mechanical properties :
#
#
# Convention : Reuss Voigt Hill
#
# Bulk Modulus (GPa) = 55.47286 57.73253 56.60269
# Shear Modulus (GPa) = 17.85869 25.99579 21.92724
#
# Velocity S-wave (km/s) = 3.06800 3.70154 3.39956
# Velocity P-wave (km/s) = 6.46435 6.97834 6.72626
#
# Compressibility (1/GPa) = 0.01802683
#
# Stress axis : x y z
#
# Youngs Moduli (GPa) = 118.73878 70.58381 84.04602
#
# Poissons Ratio (x) = 0.16075 0.19052
# Poissons Ratio (y) = 0.27042 0.30980
# Poissons Ratio (z) = 0.26917 0.26018
#
# Static dielectric constant tensor:
#      x y z
#    x 3.401330 0.000000 0.000000 
#    y 0.000000 3.501630 0.000000 
#    z 0.000000 0.000000 3.740410 
# 
# 
# High freq. dielectric constant tensor:
#      x y z
#    x 1.722030 0.000000 0.000000 
#    y 0.000000 1.719640 0.000000 
#    z 0.000000 0.000000 1.765900 
# 
# From -- ./inp_files/26360.got.cif
#   From: 2010.03.12/outbox.cif.g09.slc.cpg/sg66_14_cif.got.tgz:26360.got - 2010.04.10 21:57:39.
