data_PCOD8276604
_publ_section_title
;
Structure prediction by ZEFSAII (Michael W. Deem and Ramdas Pophale) SiO2 
 PCOD8276604
Probable space group: C C C M
;
_chemical_formula_sum "Si O2"
_cell_formula_units_Z 72
_cell_length_a 14.005307
_cell_length_b 17.641037
_cell_length_c 15.653273
_cell_angle_alpha 90.000000
_cell_angle_beta 90.000000
_cell_angle_gamma 90.000000
_cell_volume 3867.425029
_symmetry_space_group_name_H-M "C C C M"
_symmetry_group_IT_number 66
_symmetry_cell_setting 'orthorhombic'
loop_
_space_group_symop_operation_xyz
x,y,z
-x,-y,z
x,-y,1/2-z
-x,y,1/2-z
-x,-y,-z
x,y,-z
-x,y,1/2+z
x,-y,1/2+z
1/2+x,1/2+y,z
1/2-x,1/2-y,z
1/2+x,1/2-y,1/2-z
1/2-x,1/2+y,1/2-z
1/2-x,1/2-y,-z
1/2+x,1/2+y,-z
1/2-x,1/2+y,1/2+z
1/2+x,1/2-y,1/2+z
loop_
_atom_site_type_symbol
_atom_site_label
_atom_site_fract_x
_atom_site_fract_y
_atom_site_fract_z
Si Si1 0.000000 0.768091 0.750000
Si Si2 0.295496 0.326950 0.751435
Si Si3 0.818846 0.454682 0.666158
Si Si4 0.015304 0.349707 0.098043
Si Si5 0.301090 0.106268 0.593339
O O1 0.908994 0.822525 0.741032
O O2 0.982671 0.719368 0.835379
O O3 0.250000 0.250000 0.789820
O O4 0.266454 0.396357 0.812267
O O5 0.251465 0.338192 0.657838
O O6 0.855391 0.500000 0.750000
O O7 0.905650 0.411151 0.622479
O O8 0.773557 0.517599 0.603520
O O9 0.914387 0.390511 0.107072
O O10 0.032086 0.321340 0.000000
O O11 0.270101 0.134186 0.500000
#
# Coordination Sequence:
#
# PCOD8276604 Si02
#       5
#     8  16  16  16  16
#     4  12  22  40  56  86 122 148 194 238 282 340
#     4  11  21  37  60  82 112 158 191 231 286 342
#     4  10  20  36  56  84 118 153 189 233 291 344
#     4  11  21  34  60  91 119 148 183 237 299 348
#     4  10  21  36  58  87 115 146 190 242 287 339
#
# _framework density 18.617037
#
# number of rings (size 3 to 8) (size 9 to 14) (size 15 to 20)
#    0.000    1.333    4.444    2.667    0.000    5.778 
#    0.000    8.333    0.000    1.333    0.000    0.000 
#    0.000    0.000    0.000    0.000    0.000    0.000 
#
# Total GULP energy -446347.685018 kJ/mol
# GULP energy per Si atom -12398.546806 kJ/mol
# Density = 1.857466 g / cm^3
# Si number density = 18.617037 Si / 1000 Ang^3
#
#
#
# Elastic Constant Matrix: (Units=GPa)
#
#
# Indices 1 2 3 4 5 6 
#
# 1 95.6667 32.2050 25.7311 0.0000 0.0000 0.0000
# 2 32.2050 81.3407 28.3162 0.0000 0.0000 0.0000
# 3 25.7311 28.3162 95.2935 0.0000 0.0000 0.0000
# 4 0.0000 0.0000 0.0000 14.9286 0.0000 0.0000
# 5 0.0000 0.0000 0.0000 0.0000 14.5005 0.0000
# 6 0.0000 0.0000 0.0000 0.0000 0.0000 33.1329
#
#
#
# Elastic Compliance Matrix: (Units=1/GPa)
#
#
# Indices 1 2 3 4 5 6 
#
# 1 0.012430 -0.004186 -0.002113 0.000000 0.000000 0.000000
# 2 -0.004186 0.015122 -0.003363 0.000000 0.000000 0.000000
# 3 -0.002113 -0.003363 0.012064 0.000000 0.000000 0.000000
# 4 0.000000 0.000000 0.000000 0.066986 0.000000 0.000000
# 5 0.000000 0.000000 0.000000 0.000000 0.068963 0.000000
# 6 0.000000 0.000000 0.000000 0.000000 0.000000 0.030182
#
#
# Mechanical properties :
#
#
# Convention : Reuss Voigt Hill
#
# Bulk Modulus (GPa) = 49.27924 49.42286 49.35105
# Shear Modulus (GPa) = 21.56711 24.91562 23.24136
#
# Velocity S-wave (km/s) = 3.40731 3.66228 3.53709
# Velocity P-wave (km/s) = 6.48129 6.66992 6.57628
#
# Compressibility (1/GPa) = 0.02029252
#
# Stress axis : x y z
#
# Youngs Moduli (GPa) = 80.44815 66.12821 82.89343
#
# Poissons Ratio (x) = 0.27682 0.17512
# Poissons Ratio (y) = 0.33676 0.27879
# Poissons Ratio (z) = 0.16995 0.22240
#
# Static dielectric constant tensor:
#      x y z
#    x 3.315710 0.000000 0.000000 
#    y 0.000000 3.413570 0.000000 
#    z 0.000000 0.000000 3.417240 
# 
# 
# High freq. dielectric constant tensor:
#      x y z
#    x 1.704490 0.000000 0.000000 
#    y 0.000000 1.722690 0.000000 
#    z 0.000000 0.000000 1.727480 
# 
# From -- ./inp_files/40035.got.cif
#   From: 2010.03.12/outbox.cif.g09.slc.cpg/sg66_21_cif.got.tgz:40035.got - 2010.04.10 21:57:39.
