data_PCOD8276958
_publ_section_title
;
Structure prediction by ZEFSAII (Michael W. Deem and Ramdas Pophale) SiO2 
 PCOD8276958
Probable space group: C C C M
;
_chemical_formula_sum "Si O2"
_cell_formula_units_Z 128
_cell_length_a 23.492001
_cell_length_b 12.365085
_cell_length_c 23.256653
_cell_angle_alpha 90.000000
_cell_angle_beta 90.000000
_cell_angle_gamma 90.000000
_cell_volume 6755.606266
_symmetry_space_group_name_H-M "C C C M"
_symmetry_group_IT_number 66
_symmetry_cell_setting 'orthorhombic'
loop_
_space_group_symop_operation_xyz
x,y,z
-x,-y,z
x,-y,1/2-z
-x,y,1/2-z
-x,-y,-z
x,y,-z
-x,y,1/2+z
x,-y,1/2+z
1/2+x,1/2+y,z
1/2-x,1/2-y,z
1/2+x,1/2-y,1/2-z
1/2-x,1/2+y,1/2-z
1/2-x,1/2-y,-z
1/2+x,1/2+y,-z
1/2-x,1/2+y,1/2+z
1/2+x,1/2-y,1/2+z
loop_
_atom_site_type_symbol
_atom_site_label
_atom_site_fract_x
_atom_site_fract_y
_atom_site_fract_z
Si Si1 0.157724 0.442456 0.064066
Si Si2 0.396795 0.228393 0.205225
Si Si3 0.185267 0.781027 0.933921
Si Si4 0.783488 0.018967 0.565741
Si Si5 0.597647 0.228442 0.166104
Si Si6 0.995973 0.875410 0.181763
Si Si7 0.684366 0.730322 0.111359
Si Si8 0.065128 0.492474 0.153902
O O1 0.218347 0.486118 0.090363
O O2 0.154956 0.311483 0.065741
O O3 0.104555 0.488145 0.098203
O O4 0.150364 0.486354 0.000000
O O5 0.382032 0.265264 0.270326
O O6 0.436229 0.314866 0.170016
O O7 0.336162 0.236774 0.174607
O O8 0.423334 0.107172 0.197861
O O9 0.250000 0.750000 0.920579
O O10 0.143983 0.730027 0.885468
O O11 0.181720 0.909260 0.927442
O O12 0.168975 0.745613 0.000000
O O13 0.776332 0.055094 0.500000
O O14 0.825021 0.104537 0.596953
O O15 0.545338 0.307436 0.149320
O O16 0.578503 0.107614 0.182153
O O17 0.000000 0.867646 0.250000
O O18 0.000000 0.000000 0.160344
O O19 0.750000 0.750000 0.107724
O O20 0.000000 0.500000 0.133898
#
# Coordination Sequence:
#
# PCOD8276958 Si02
#       8
#    16  16  16  16  16  16  16  16
#     4   9  18  33  54  81 110 143 184 227 273 322
#     4  10  21  36  56  82 112 142 181 229 274 326
#     4  10  22  39  57  80 110 144 184 227 273 329
#     4   9  17  33  57  79 105 146 185 220 270 333
#     4  11  22  36  59  81 106 148 186 222 272 330
#     4   9  19  35  55  80 106 139 182 223 265 317
#     4   9  18  32  53  82 113 141 176 226 278 328
#     4  11  21  35  55  80 111 145 185 229 271 320
#
# _framework density 18.947227000000002
#
# number of rings (size 3 to 8) (size 9 to 14) (size 15 to 20)
#    0.000    2.250    1.250    1.500    1.750    4.250 
#    0.000    0.000    0.000    0.375    0.000    0.000 
#    0.000    0.000    0.000    0.000    0.000    0.000 
#
# Total GULP energy -792843.874300 kJ/mol
# GULP energy per Si atom -12388.185536 kJ/mol
# Density = 1.890410 g / cm^3
# Si number density = 18.947227 Si / 1000 Ang^3
#
#
#
# Elastic Constant Matrix: (Units=GPa)
#
#
# Indices 1 2 3 4 5 6 
#
# 1 41.0271 16.4925 37.6022 0.0000 0.0000 0.0000
# 2 16.4925 107.6289 21.5051 0.0000 0.0000 0.0000
# 3 37.6022 21.5051 77.6563 0.0000 0.0000 0.0000
# 4 0.0000 0.0000 0.0000 19.6986 0.0000 0.0000
# 5 0.0000 0.0000 0.0000 0.0000 18.6315 0.0000
# 6 0.0000 0.0000 0.0000 0.0000 0.0000 26.7289
#
#
#
# Elastic Compliance Matrix: (Units=1/GPa)
#
#
# Indices 1 2 3 4 5 6 
#
# 1 0.044531 -0.002663 -0.020825 0.000000 0.000000 0.000000
# 2 -0.002663 0.009995 -0.001478 0.000000 0.000000 0.000000
# 3 -0.020825 -0.001478 0.023371 0.000000 0.000000 0.000000
# 4 0.000000 0.000000 0.000000 0.050765 0.000000 0.000000
# 5 0.000000 0.000000 0.000000 0.000000 0.053673 0.000000
# 6 0.000000 0.000000 0.000000 0.000000 0.000000 0.037413
#
#
# Mechanical properties :
#
#
# Convention : Reuss Voigt Hill
#
# Bulk Modulus (GPa) = 35.76075 41.94577 38.85326
# Shear Modulus (GPa) = 17.92110 23.05931 20.49021
#
# Velocity S-wave (km/s) = 3.07879 3.49238 3.29209
# Velocity P-wave (km/s) = 5.61725 6.20069 5.91616
#
# Compressibility (1/GPa) = 0.02796362
#
# Stress axis : x y z
#
# Youngs Moduli (GPa) = 22.45610 100.05393 42.78888
#
# Poissons Ratio (x) = 0.26641 0.89109
# Poissons Ratio (y) = 0.05979 0.06326
# Poissons Ratio (z) = 0.46765 0.14793
#
# Static dielectric constant tensor:
#      x y z
#    x 3.434450 0.000000 0.000000 
#    y 0.000000 4.043180 0.000000 
#    z 0.000000 0.000000 3.178670 
# 
# 
# High freq. dielectric constant tensor:
#      x y z
#    x 1.722890 0.000000 0.000000 
#    y 0.000000 1.755220 0.000000 
#    z 0.000000 0.000000 1.710850 
# 
# From -- ./inp_files/59932.got.cif
#   From: 2010.03.12/outbox.cif.g09.slc.cpg/sg66_30_cif.got.tgz:59932.got - 2010.04.10 21:57:39.
