data_PCOD8276315
_publ_section_title
;
Structure prediction by ZEFSAII (Michael W. Deem and Ramdas Pophale) SiO2 
 PCOD8276315
Probable space group: C C C M
;
_chemical_formula_sum "Si O2"
_cell_formula_units_Z 76
_cell_length_a 12.237453
_cell_length_b 16.734814
_cell_length_c 18.288260
_cell_angle_alpha 90.000000
_cell_angle_beta 90.000000
_cell_angle_gamma 90.000000
_cell_volume 3745.280194
_symmetry_space_group_name_H-M "C C C M"
_symmetry_group_IT_number 66
_symmetry_cell_setting 'orthorhombic'
loop_
_space_group_symop_operation_xyz
x,y,z
-x,-y,z
x,-y,1/2-z
-x,y,1/2-z
-x,-y,-z
x,y,-z
-x,y,1/2+z
x,-y,1/2+z
1/2+x,1/2+y,z
1/2-x,1/2-y,z
1/2+x,1/2-y,1/2-z
1/2-x,1/2+y,1/2-z
1/2-x,1/2-y,-z
1/2+x,1/2+y,-z
1/2-x,1/2+y,1/2+z
1/2+x,1/2-y,1/2+z
loop_
_atom_site_type_symbol
_atom_site_label
_atom_site_fract_x
_atom_site_fract_y
_atom_site_fract_z
Si Si1 0.084381 0.349558 0.500000
Si Si2 0.069438 0.139006 0.155641
Si Si3 0.500000 0.500000 0.750000
Si Si4 0.654620 0.149419 0.500000
Si Si5 0.636615 0.277483 0.120997
Si Si6 0.119853 0.074490 0.000000
Si Si7 0.310933 0.598043 0.000000
Si Si8 0.250000 0.750000 0.376458
O O1 0.093317 0.294734 0.428117
O O2 0.178969 0.417397 0.500000
O O3 0.965215 0.391120 0.500000
O O4 0.066445 0.117413 0.069528
O O5 0.178162 0.190340 0.173840
O O6 0.076739 0.056789 0.200872
O O7 0.959435 0.190584 0.175512
O O8 0.748843 0.083492 0.500000
O O9 0.663853 0.203911 0.427727
O O10 0.750000 0.250000 0.161603
O O11 0.664999 0.353566 0.072436
O O12 0.108007 0.978529 0.000000
#
# Coordination Sequence:
#
# PCOD8276315 Si02
#       8
#     8  16   4   8  16   8   8   8
#     4   9  14  26  46  77 118 137 186 230 270 333
#     4  11  21  39  58  88 113 153 187 243 286 349
#     4  12  28  38  56  88 126 140 192 244 300 340
#     4   9  15  27  51  87 105 147 184 237 269 340
#     4   9  17  29  51  76 107 145 188 229 275 334
#     4  10  20  32  57  79 117 149 186 230 301 331
#     4   9  17  25  41  80 114 154 171 224 292 337
#     4   9  18  32  60  80 112 145 196 226 286 337
#
# _framework density 20.292206
#
# number of rings (size 3 to 8) (size 9 to 14) (size 15 to 20)
#    0.000    2.316    2.105    4.421    0.000    1.684 
#    1.895    0.000    0.000    0.000    0.000    1.474 
#    0.000    0.000    0.000    0.000    0.000    0.000 
#
# Total GULP energy -470898.630534 kJ/mol
# GULP energy per Si atom -12392.069225 kJ/mol
# Density = 2.024602 g / cm^3
# Si number density = 20.292206 Si / 1000 Ang^3
#
#
#
# Elastic Constant Matrix: (Units=GPa)
#
#
# Indices 1 2 3 4 5 6 
#
# 1 151.5262 38.8657 26.4331 0.0000 0.0000 0.0000
# 2 38.8657 86.5452 24.2660 0.0000 0.0000 0.0000
# 3 26.4331 24.2660 37.9916 0.0000 0.0000 0.0000
# 4 0.0000 0.0000 0.0000 15.1988 0.0000 0.0000
# 5 0.0000 0.0000 0.0000 0.0000 12.5334 0.0000
# 6 0.0000 0.0000 0.0000 0.0000 0.0000 37.3732
#
#
#
# Elastic Compliance Matrix: (Units=1/GPa)
#
#
# Indices 1 2 3 4 5 6 
#
# 1 0.007916 -0.002449 -0.003943 0.000000 0.000000 0.000000
# 2 -0.002449 0.014833 -0.007770 0.000000 0.000000 0.000000
# 3 -0.003943 -0.007770 0.034028 0.000000 0.000000 0.000000
# 4 0.000000 0.000000 0.000000 0.065795 0.000000 0.000000
# 5 0.000000 0.000000 0.000000 0.000000 0.079787 0.000000
# 6 0.000000 0.000000 0.000000 0.000000 0.000000 0.026757
#
#
# Mechanical properties :
#
#
# Convention : Reuss Voigt Hill
#
# Bulk Modulus (GPa) = 35.14696 50.57694 42.86195
# Shear Modulus (GPa) = 18.73190 25.45430 22.09310
#
# Velocity S-wave (km/s) = 3.04157 3.54558 3.30320
# Velocity P-wave (km/s) = 5.44911 6.46064 5.97632
#
# Compressibility (1/GPa) = 0.02845196
#
# Stress axis : x y z
#
# Youngs Moduli (GPa) = 126.33350 67.41645 29.38754
#
# Poissons Ratio (x) = 0.16511 0.11588
# Poissons Ratio (y) = 0.30941 0.22835
# Poissons Ratio (z) = 0.49814 0.52384
#
# Static dielectric constant tensor:
#      x y z
#    x 4.027260 0.000000 0.000000 
#    y 0.000000 3.584500 0.000000 
#    z 0.000000 0.000000 3.201520 
# 
# 
# High freq. dielectric constant tensor:
#      x y z
#    x 1.810980 0.000000 0.000000 
#    y 0.000000 1.775920 0.000000 
#    z 0.000000 0.000000 1.749870 
# 
# From -- ./inp_files/48695.got.cif
#   From: 2010.03.12/outbox.cif.g09.slc.cpg/sg66_25_cif.got.tgz:48695.got - 2010.04.10 21:57:39.
