data_PCOD8276731
_publ_section_title
;
Structure prediction by ZEFSAII (Michael W. Deem and Ramdas Pophale) SiO2 
 PCOD8276731
Probable space group: C C C M
;
_chemical_formula_sum "Si O2"
_cell_formula_units_Z 104
_cell_length_a 26.770904
_cell_length_b 21.133283
_cell_length_c 9.316414
_cell_angle_alpha 90.000000
_cell_angle_beta 90.000000
_cell_angle_gamma 90.000000
_cell_volume 5270.827278
_symmetry_space_group_name_H-M "C C C M"
_symmetry_group_IT_number 66
_symmetry_cell_setting 'orthorhombic'
loop_
_space_group_symop_operation_xyz
x,y,z
-x,-y,z
x,-y,1/2-z
-x,y,1/2-z
-x,-y,-z
x,y,-z
-x,y,1/2+z
x,-y,1/2+z
1/2+x,1/2+y,z
1/2-x,1/2-y,z
1/2+x,1/2-y,1/2-z
1/2-x,1/2+y,1/2-z
1/2-x,1/2-y,-z
1/2+x,1/2+y,-z
1/2-x,1/2+y,1/2+z
1/2+x,1/2-y,1/2+z
loop_
_atom_site_type_symbol
_atom_site_label
_atom_site_fract_x
_atom_site_fract_y
_atom_site_fract_z
Si Si1 0.049233 0.435484 0.170115
Si Si2 0.271363 0.818105 0.830593
Si Si3 0.127199 0.673275 0.664353
Si Si4 0.045188 0.912806 0.159899
Si Si5 0.130389 0.000000 0.250000
Si Si6 0.308570 0.616006 0.658706
Si Si7 0.594181 0.691407 0.163303
O O1 0.064610 0.500000 0.250000
O O2 0.094486 0.388010 0.195143
O O3 0.000000 0.408496 0.250000
O O4 0.039038 0.446041 0.000000
O O5 0.250000 0.750000 0.782536
O O6 0.326180 0.828205 0.769487
O O7 0.235947 0.874359 0.771800
O O8 0.273712 0.824653 0.000000
O O9 0.146213 0.675676 0.500000
O O10 0.092259 0.734068 0.696039
O O11 0.057042 0.845038 0.231132
O O12 0.000000 0.944493 0.250000
O O13 0.093796 0.957883 0.151115
O O14 0.025959 0.900657 0.000000
O O15 0.166341 0.046576 0.162200
O O16 0.286133 0.625349 0.500000
O O17 0.349399 0.669254 0.692603
O O18 0.578557 0.675408 0.000000
#
# Coordination Sequence:
#
# PCOD8276731 Si02
#       7
#    16  16  16  16   8  16  16
#     4  10  21  39  64  90 119 154 193 236 292 355
#     4  11  23  37  58  90 123 154 194 243 294 347
#     4  10  21  39  63  90 119 156 198 240 291 356
#     4  11  23  38  58  84 118 155 199 250 300 351
#     4  10  23  40  60  86 112 154 207 254 298 346
#     4  10  20  37  61  83 112 156 200 243 295 354
#     4   9  19  36  58  84 114 149 194 242 294 352
#
# _framework density 19.731248999999998
#
# number of rings (size 3 to 8) (size 9 to 14) (size 15 to 20)
#    0.000    1.846    1.538    2.538    0.000    8.615 
#    1.385    1.538    0.000    0.000    0.000    0.000 
#    0.000    0.000    0.000    0.000    0.000    0.000 
#
# Total GULP energy -644745.776517 kJ/mol
# GULP energy per Si atom -12398.957241 kJ/mol
# Density = 1.968634 g / cm^3
# Si number density = 19.731249 Si / 1000 Ang^3
#
#
#
# Elastic Constant Matrix: (Units=GPa)
#
#
# Indices 1 2 3 4 5 6 
#
# 1 98.9044 55.5711 62.5120 0.0000 0.0000 0.0000
# 2 55.5711 91.8001 48.3483 0.0000 0.0000 0.0000
# 3 62.5120 48.3483 133.8825 0.0000 0.0000 0.0000
# 4 0.0000 0.0000 0.0000 12.3887 0.0000 0.0000
# 5 0.0000 0.0000 0.0000 0.0000 34.8619 0.0000
# 6 0.0000 0.0000 0.0000 0.0000 0.0000 27.5509
#
#
#
# Elastic Compliance Matrix: (Units=1/GPa)
#
#
# Indices 1 2 3 4 5 6 
#
# 1 0.018158 -0.008060 -0.005568 0.000000 0.000000 0.000000
# 2 -0.008060 0.017029 -0.002386 0.000000 0.000000 0.000000
# 3 -0.005568 -0.002386 0.010931 0.000000 0.000000 0.000000
# 4 0.000000 0.000000 0.000000 0.080718 0.000000 0.000000
# 5 0.000000 0.000000 0.000000 0.000000 0.028685 0.000000
# 6 0.000000 0.000000 0.000000 0.000000 0.000000 0.036296
#
#
# Mechanical properties :
#
#
# Convention : Reuss Voigt Hill
#
# Bulk Modulus (GPa) = 70.97143 73.04997 72.01070
# Shear Modulus (GPa) = 21.87777 25.50402 23.69089
#
# Velocity S-wave (km/s) = 3.33346 3.59913 3.46884
# Velocity P-wave (km/s) = 7.13183 7.37391 7.25388
#
# Compressibility (1/GPa) = 0.01409018
#
# Stress axis : x y z
#
# Youngs Moduli (GPa) = 55.07085 58.72331 91.48494
#
# Poissons Ratio (x) = 0.47329 0.50938
# Poissons Ratio (y) = 0.44386 0.21832
# Poissons Ratio (z) = 0.30663 0.14014
#
# Static dielectric constant tensor:
#      x y z
#    x 3.424620 0.000000 0.000000 
#    y 0.000000 3.602730 0.000000 
#    z 0.000000 0.000000 3.578290 
# 
# 
# High freq. dielectric constant tensor:
#      x y z
#    x 1.760720 0.000000 0.000000 
#    y 0.000000 1.767820 0.000000 
#    z 0.000000 0.000000 1.771440 
# 
# From -- ./inp_files/10372.got.cif
#   From: 2010.03.12/outbox.cif.g09.slc.cpg/sg66_6_cif.got.tgz:10372.got - 2010.04.10 21:57:39.
