data_PCOD8276472
_publ_section_title
;
Structure prediction by ZEFSAII (Michael W. Deem and Ramdas Pophale) SiO2 
 PCOD8276472
Probable space group: C C C M
;
_chemical_formula_sum "Si O2"
_cell_formula_units_Z 112
_cell_length_a 24.690909
_cell_length_b 14.015631
_cell_length_c 17.209064
_cell_angle_alpha 90.000000
_cell_angle_beta 90.000000
_cell_angle_gamma 90.000000
_cell_volume 5955.345793
_symmetry_space_group_name_H-M "C C C M"
_symmetry_group_IT_number 66
_symmetry_cell_setting 'orthorhombic'
loop_
_space_group_symop_operation_xyz
x,y,z
-x,-y,z
x,-y,1/2-z
-x,y,1/2-z
-x,-y,-z
x,y,-z
-x,y,1/2+z
x,-y,1/2+z
1/2+x,1/2+y,z
1/2-x,1/2-y,z
1/2+x,1/2-y,1/2-z
1/2-x,1/2+y,1/2-z
1/2-x,1/2-y,-z
1/2+x,1/2+y,-z
1/2-x,1/2+y,1/2+z
1/2+x,1/2-y,1/2+z
loop_
_atom_site_type_symbol
_atom_site_label
_atom_site_fract_x
_atom_site_fract_y
_atom_site_fract_z
Si Si1 0.867318 0.726663 0.091575
Si Si2 0.957784 0.133262 0.592121
Si Si3 0.715003 0.661954 0.816482
Si Si4 0.318220 0.955544 0.333941
Si Si5 0.295409 0.139173 0.588842
Si Si6 0.179345 0.165968 0.347278
Si Si7 0.927942 0.072619 0.908398
O O1 0.924320 0.773109 0.119564
O O2 0.820470 0.805056 0.109483
O O3 0.858108 0.630977 0.142286
O O4 0.865365 0.702879 0.000000
O O5 0.954442 0.132000 0.500000
O O6 0.020242 0.135168 0.621395
O O7 0.930610 0.035541 0.624554
O O8 0.750000 0.750000 0.784341
O O9 0.755358 0.576738 0.839057
O O10 0.677925 0.634444 0.742951
O O11 0.332499 0.000000 0.250000
O O12 0.325915 0.039611 0.396418
O O13 0.301911 0.170376 0.500000
O O14 0.232420 0.126003 0.609911
O O15 0.322934 0.219573 0.642684
O O16 0.127062 0.120804 0.384706
O O17 0.932038 0.067819 0.000000
#
# Coordination Sequence:
#
# PCOD8276472 Si02
#       7
#    16  16  16  16  16  16  16
#     4  10  21  36  57  82 109 143 191 238 273 321
#     4   8  17  34  54  82 111 141 182 229 277 320
#     4  10  20  35  52  73 108 149 177 214 272 330
#     4  11  21  36  52  75 112 150 181 218 281 331
#     4  11  21  32  51  79 109 138 184 223 258 323
#     4  11  19  35  51  78 110 145 178 218 273 326
#     4   9  17  32  56  81 111 147 183 222 271 326
#
# _framework density 18.806632
#
# number of rings (size 3 to 8) (size 9 to 14) (size 15 to 20)
#    0.000    2.000    2.857    3.857    2.000    3.143 
#    0.000    0.714    0.000    2.571    0.000    7.000 
#    0.000    0.000    0.000    0.000    0.000    0.000 
#
# Total GULP energy -694074.335356 kJ/mol
# GULP energy per Si atom -12394.184560 kJ/mol
# Density = 1.876383 g / cm^3
# Si number density = 18.806632 Si / 1000 Ang^3
#
#
#
# Elastic Constant Matrix: (Units=GPa)
#
#
# Indices 1 2 3 4 5 6 
#
# 1 73.9227 40.8986 2.8386 0.0000 0.0000 0.0000
# 2 40.8986 99.8111 18.7458 0.0000 0.0000 0.0000
# 3 2.8386 18.7458 53.2734 0.0000 0.0000 0.0000
# 4 0.0000 0.0000 0.0000 23.9967 0.0000 0.0000
# 5 0.0000 0.0000 0.0000 0.0000 13.9349 0.0000
# 6 0.0000 0.0000 0.0000 0.0000 0.0000 27.1486
#
#
#
# Elastic Compliance Matrix: (Units=1/GPa)
#
#
# Indices 1 2 3 4 5 6 
#
# 1 0.017639 -0.007550 0.001717 0.000000 0.000000 0.000000
# 2 -0.007550 0.013960 -0.004510 0.000000 0.000000 0.000000
# 3 0.001717 -0.004510 0.020267 0.000000 0.000000 0.000000
# 4 0.000000 0.000000 0.000000 0.041672 0.000000 0.000000
# 5 0.000000 0.000000 0.000000 0.000000 0.071762 0.000000
# 6 0.000000 0.000000 0.000000 0.000000 0.000000 0.036834
#
#
# Mechanical properties :
#
#
# Convention : Reuss Voigt Hill
#
# Bulk Modulus (GPa) = 32.07297 39.10815 35.59056
# Shear Modulus (GPa) = 21.43958 23.98432 22.71195
#
# Velocity S-wave (km/s) = 3.38005 3.57502 3.47891
# Velocity P-wave (km/s) = 5.68543 6.15476 5.92474
#
# Compressibility (1/GPa) = 0.03117890
#
# Stress axis : x y z
#
# Youngs Moduli (GPa) = 56.69268 71.63472 49.34247
#
# Poissons Ratio (x) = 0.54086 -0.08472
# Poissons Ratio (y) = 0.42804 0.22253
# Poissons Ratio (z) = -0.09734 0.32306
#
# Static dielectric constant tensor:
#      x y z
#    x 3.416040 0.000000 0.000000 
#    y 0.000000 3.783930 0.000000 
#    z 0.000000 0.000000 3.307250 
# 
# 
# High freq. dielectric constant tensor:
#      x y z
#    x 1.703160 0.000000 0.000000 
#    y 0.000000 1.733000 0.000000 
#    z 0.000000 0.000000 1.721260 
# 
# From -- ./inp_files/32506.got.cif
#   From: 2010.03.12/outbox.cif.g09.slc.cpg/sg66_17_cif.got.tgz:32506.got - 2010.04.10 21:57:39.
