data_PCOD8276079
_publ_section_title
;
Structure prediction by ZEFSAII (Michael W. Deem and Ramdas Pophale) SiO2 
 PCOD8276079
Probable space group: C C C M
;
_chemical_formula_sum "Si O2"
_cell_formula_units_Z 112
_cell_length_a 13.733757
_cell_length_b 26.881822
_cell_length_c 14.677446
_cell_angle_alpha 90.000000
_cell_angle_beta 90.000000
_cell_angle_gamma 90.000000
_cell_volume 5418.742967
_symmetry_space_group_name_H-M "C C C M"
_symmetry_group_IT_number 66
_symmetry_cell_setting 'orthorhombic'
loop_
_space_group_symop_operation_xyz
x,y,z
-x,-y,z
x,-y,1/2-z
-x,y,1/2-z
-x,-y,-z
x,y,-z
-x,y,1/2+z
x,-y,1/2+z
1/2+x,1/2+y,z
1/2-x,1/2-y,z
1/2+x,1/2-y,1/2-z
1/2-x,1/2+y,1/2-z
1/2-x,1/2-y,-z
1/2+x,1/2+y,-z
1/2-x,1/2+y,1/2+z
1/2+x,1/2-y,1/2+z
loop_
_atom_site_type_symbol
_atom_site_label
_atom_site_fract_x
_atom_site_fract_y
_atom_site_fract_z
Si Si1 0.341702 0.167007 0.101564
Si Si2 0.443494 0.846908 0.897257
Si Si3 0.235473 0.305545 0.285608
Si Si4 0.214922 0.921611 0.398701
Si Si5 0.431437 0.042668 0.395270
Si Si6 0.611419 0.614518 0.270195
Si Si7 0.284444 0.536785 0.107282
O O1 0.454763 0.181160 0.118661
O O2 0.278939 0.196353 0.176553
O O3 0.319520 0.106977 0.108056
O O4 0.311656 0.185259 0.000000
O O5 0.361300 0.829304 0.828487
O O6 0.478908 0.903714 0.882231
O O7 0.403369 0.839598 0.000000
O O8 0.250000 0.250000 0.323723
O O9 0.330478 0.338126 0.312158
O O10 0.171743 0.917016 0.500000
O O11 0.143768 0.893600 0.332263
O O12 0.215134 0.978722 0.369700
O O13 0.416609 0.026044 0.500000
O O14 0.322640 0.051095 0.355435
O O15 0.500000 0.000000 0.348358
O O16 0.500000 0.626589 0.250000
O O17 0.633421 0.567013 0.335805
O O18 0.300631 0.548134 0.000000
#
# Coordination Sequence:
#
# PCOD8276079 Si02
#       7
#    16  16  16  16  16  16  16
#     4   9  19  37  62  89 117 148 189 247 310 372
#     4  10  19  35  60  90 123 153 186 240 314 379
#     4  11  24  41  62  83 114 156 206 259 309 363
#     4   9  19  36  58  85 117 156 197 239 291 352
#     4   9  16  28  53  88 122 156 187 224 289 372
#     4  11  24  40  57  80 116 159 207 256 299 345
#     4  10  19  34  57  85 122 159 195 238 290 355
#
# _framework density 20.669001000000002
#
# number of rings (size 3 to 8) (size 9 to 14) (size 15 to 20)
#    0.000    2.143    1.429    1.714    0.000    6.857 
#    0.000    1.429    0.000    0.000    0.000    0.000 
#    0.000    0.000    0.000    0.000    0.000    0.000 
#
# Total GULP energy -693745.698776 kJ/mol
# GULP energy per Si atom -12388.316050 kJ/mol
# Density = 2.062196 g / cm^3
# Si number density = 20.669001 Si / 1000 Ang^3
#
#
#
# Elastic Constant Matrix: (Units=GPa)
#
#
# Indices 1 2 3 4 5 6 
#
# 1 104.0533 25.7088 29.7995 0.0000 0.0000 0.0000
# 2 25.7088 88.1355 21.8547 0.0000 0.0000 0.0000
# 3 29.7995 21.8547 65.7037 0.0000 0.0000 0.0000
# 4 0.0000 0.0000 0.0000 18.8705 0.0000 0.0000
# 5 0.0000 0.0000 0.0000 0.0000 20.6754 0.0000
# 6 0.0000 0.0000 0.0000 0.0000 0.0000 16.2164
#
#
#
# Elastic Compliance Matrix: (Units=1/GPa)
#
#
# Indices 1 2 3 4 5 6 
#
# 1 0.011435 -0.002234 -0.004443 0.000000 0.000000 0.000000
# 2 -0.002234 0.012802 -0.003245 0.000000 0.000000 0.000000
# 3 -0.004443 -0.003245 0.018315 0.000000 0.000000 0.000000
# 4 0.000000 0.000000 0.000000 0.052993 0.000000 0.000000
# 5 0.000000 0.000000 0.000000 0.000000 0.048367 0.000000
# 6 0.000000 0.000000 0.000000 0.000000 0.000000 0.061666
#
#
# Mechanical properties :
#
#
# Convention : Reuss Voigt Hill
#
# Bulk Modulus (GPa) = 44.03873 45.84651 44.94262
# Shear Modulus (GPa) = 21.46010 23.18777 22.32393
#
# Velocity S-wave (km/s) = 3.22572 3.35305 3.29000
# Velocity P-wave (km/s) = 5.93520 6.10083 6.01858
#
# Compressibility (1/GPa) = 0.02270728
#
# Stress axis : x y z
#
# Youngs Moduli (GPa) = 87.45218 78.10983 54.60153
#
# Poissons Ratio (x) = 0.17448 0.24260
# Poissons Ratio (y) = 0.19535 0.17720
# Poissons Ratio (z) = 0.38857 0.25349
#
# Static dielectric constant tensor:
#      x y z
#    x 3.616500 0.000000 0.000000 
#    y 0.000000 3.567790 0.000000 
#    z 0.000000 0.000000 3.797400 
# 
# 
# High freq. dielectric constant tensor:
#      x y z
#    x 1.793980 0.000000 0.000000 
#    y 0.000000 1.787060 0.000000 
#    z 0.000000 0.000000 1.808290 
# 
# From -- ./inp_files/27026.got.cif
#   From: 2010.03.12/outbox.cif.g09.slc.cpg/sg66_14_cif.got.tgz:27026.got - 2010.04.10 21:57:39.
