data_PCOD8276729
_publ_section_title
;
Structure prediction by ZEFSAII (Michael W. Deem and Ramdas Pophale) SiO2 
 PCOD8276729
Probable space group: C C C M
;
_chemical_formula_sum "Si O2"
_cell_formula_units_Z 104
_cell_length_a 17.227089
_cell_length_b 21.722421
_cell_length_c 14.575656
_cell_angle_alpha 90.000000
_cell_angle_beta 90.000000
_cell_angle_gamma 90.000000
_cell_volume 5454.415698
_symmetry_space_group_name_H-M "C C C M"
_symmetry_group_IT_number 66
_symmetry_cell_setting 'orthorhombic'
loop_
_space_group_symop_operation_xyz
x,y,z
-x,-y,z
x,-y,1/2-z
-x,y,1/2-z
-x,-y,-z
x,y,-z
-x,y,1/2+z
x,-y,1/2+z
1/2+x,1/2+y,z
1/2-x,1/2-y,z
1/2+x,1/2-y,1/2-z
1/2-x,1/2+y,1/2-z
1/2-x,1/2-y,-z
1/2+x,1/2+y,-z
1/2-x,1/2+y,1/2+z
1/2+x,1/2-y,1/2+z
loop_
_atom_site_type_symbol
_atom_site_label
_atom_site_fract_x
_atom_site_fract_y
_atom_site_fract_z
Si Si1 0.287994 0.884416 0.602080
Si Si2 0.689694 0.695923 0.000000
Si Si3 0.309722 0.494366 0.145740
Si Si4 0.479760 0.689270 0.500000
Si Si5 0.430909 0.452480 0.000000
Si Si6 0.291944 0.632641 0.105069
Si Si7 0.685291 0.798929 0.740372
Si Si8 0.933557 0.201621 0.180718
O O1 0.328949 0.887009 0.500000
O O2 0.206033 0.847129 0.589412
O O3 0.267455 0.952055 0.639104
O O4 0.336743 0.846759 0.677986
O O5 0.750000 0.750000 0.000000
O O6 0.603811 0.722405 0.000000
O O7 0.337500 0.500000 0.250000
O O8 0.284171 0.559449 0.104425
O O9 0.379581 0.463684 0.089941
O O10 0.467873 0.615507 0.500000
O O11 0.525256 0.715463 0.414348
O O12 0.500000 0.500000 0.000000
O O13 0.217107 0.664337 0.151430
O O14 0.368290 0.649603 0.164302
O O15 0.299005 0.656315 0.000000
O O16 0.750000 0.750000 0.773698
O O17 0.605533 0.764726 0.715547
O O18 0.000000 0.177449 0.250000
#
# Coordination Sequence:
#
# PCOD8276729 Si02
#       8
#    16   8  16   8   8  16  16  16
#     4  10  20  37  60  89 118 149 204 262 313 354
#     4  10  22  34  64  85 119 160 209 253 316 349
#     4  12  22  38  59  89 121 155 211 259 300 366
#     4  12  24  42  58  83 130 168 203 258 305 369
#     4  12  24  40  53  80 124 175 209 240 302 369
#     4  11  22  41  63  85 122 164 204 254 307 363
#     4  10  23  38  61  87 115 158 211 259 313 368
#     4  11  27  40  58  87 125 162 212 250 311 377
#
# _framework density 19.067119999999999
#
# number of rings (size 3 to 8) (size 9 to 14) (size 15 to 20)
#    0.462    0.615    5.385    1.385    9.692    1.231 
#    0.000    0.000    0.000    0.000    0.000    2.154 
#    0.000    3.692    0.000    0.000    0.000    0.000 
#
# Total GULP energy -644499.060599 kJ/mol
# GULP energy per Si atom -12394.212704 kJ/mol
# Density = 1.902372 g / cm^3
# Si number density = 19.067120 Si / 1000 Ang^3
#
#
#
# Elastic Constant Matrix: (Units=GPa)
#
#
# Indices 1 2 3 4 5 6 
#
# 1 55.5519 44.6070 26.9323 0.0000 0.0000 0.0000
# 2 44.6070 116.5407 43.1225 0.0000 0.0000 0.0000
# 3 26.9323 43.1225 148.0774 0.0000 0.0000 0.0000
# 4 0.0000 0.0000 0.0000 30.8925 0.0000 0.0000
# 5 0.0000 0.0000 0.0000 0.0000 24.3790 0.0000
# 6 0.0000 0.0000 0.0000 0.0000 0.0000 29.1641
#
#
#
# Elastic Compliance Matrix: (Units=1/GPa)
#
#
# Indices 1 2 3 4 5 6 
#
# 1 0.026557 -0.009389 -0.002096 0.000000 0.000000 0.000000
# 2 -0.009389 0.012937 -0.002060 0.000000 0.000000 0.000000
# 3 -0.002096 -0.002060 0.007734 0.000000 0.000000 0.000000
# 4 0.000000 0.000000 0.000000 0.032370 0.000000 0.000000
# 5 0.000000 0.000000 0.000000 0.000000 0.041019 0.000000
# 6 0.000000 0.000000 0.000000 0.000000 0.000000 0.034289
#
#
# Mechanical properties :
#
#
# Convention : Reuss Voigt Hill
#
# Bulk Modulus (GPa) = 49.65732 61.05487 55.35610
# Shear Modulus (GPa) = 26.49599 30.58765 28.54182
#
# Velocity S-wave (km/s) = 3.73180 4.00960 3.87319
# Velocity P-wave (km/s) = 6.68344 7.31618 7.00696
#
# Compressibility (1/GPa) = 0.02013802
#
# Stress axis : x y z
#
# Youngs Moduli (GPa) = 37.65529 77.29980 129.29574
#
# Poissons Ratio (x) = 0.72579 0.27098
# Poissons Ratio (y) = 0.35356 0.26630
# Poissons Ratio (z) = 0.07892 0.15921
#
# Static dielectric constant tensor:
#      x y z
#    x 3.260540 0.000000 0.000000 
#    y 0.000000 3.715700 0.000000 
#    z 0.000000 0.000000 3.748230 
# 
# 
# High freq. dielectric constant tensor:
#      x y z
#    x 1.692710 0.000000 0.000000 
#    y 0.000000 1.742810 0.000000 
#    z 0.000000 0.000000 1.762530 
# 
# From -- ./inp_files/30234.got.cif
#   From: 2010.03.12/outbox.cif.g09.slc.cpg/sg66_16_cif.got.tgz:30234.got - 2010.04.10 21:57:39.
