data_PCOD8276085
_publ_section_title
;
Structure prediction by ZEFSAII (Michael W. Deem and Ramdas Pophale) SiO2 
 PCOD8276085
Probable space group: C C C M
;
_chemical_formula_sum "Si O2"
_cell_formula_units_Z 88
_cell_length_a 17.132008
_cell_length_b 11.091495
_cell_length_c 24.470575
_cell_angle_alpha 90.000000
_cell_angle_beta 90.000000
_cell_angle_gamma 90.000000
_cell_volume 4649.888410
_symmetry_space_group_name_H-M "C C C M"
_symmetry_group_IT_number 66
_symmetry_cell_setting 'orthorhombic'
loop_
_space_group_symop_operation_xyz
x,y,z
-x,-y,z
x,-y,1/2-z
-x,y,1/2-z
-x,-y,-z
x,y,-z
-x,y,1/2+z
x,-y,1/2+z
1/2+x,1/2+y,z
1/2-x,1/2-y,z
1/2+x,1/2-y,1/2-z
1/2-x,1/2+y,1/2-z
1/2-x,1/2-y,-z
1/2+x,1/2+y,-z
1/2-x,1/2+y,1/2+z
1/2+x,1/2-y,1/2+z
loop_
_atom_site_type_symbol
_atom_site_label
_atom_site_fract_x
_atom_site_fract_y
_atom_site_fract_z
Si Si1 0.000000 0.804871 0.750000
Si Si2 0.298179 0.372884 0.000000
Si Si3 0.000000 0.000000 0.839667
Si Si4 0.837786 0.076506 0.383725
Si Si5 0.365657 0.126042 0.732188
Si Si6 0.204745 0.622931 0.000000
Si Si7 0.750000 0.750000 0.805753
Si Si8 0.294530 0.873998 0.882083
O O1 0.922475 0.728331 0.752821
O O2 0.992108 0.881546 0.695867
O O3 0.250000 0.250000 0.000000
O O4 0.348239 0.369518 0.944527
O O5 0.254827 0.501166 0.000000
O O6 0.079403 0.012146 0.873880
O O7 0.816735 0.186309 0.342685
O O8 0.767673 0.981522 0.378236
O O9 0.285402 0.148391 0.765308
O O10 0.356356 0.119862 0.666706
O O11 0.402396 0.000000 0.750000
O O12 0.250000 0.750000 0.000000
O O13 0.159503 0.620281 0.058689
O O14 0.250000 0.750000 0.875910
#
# Coordination Sequence:
#
# PCOD8276085 Si02
#       8
#     8   8   8  16  16   8   8  16
#     4  11  25  40  54  86 123 165 200 246 322 383
#     4  10  20  35  63  90 121 162 211 261 312 370
#     4  11  24  39  60  82 128 163 194 257 318 380
#     4  11  22  39  60  90 122 161 204 257 315 367
#     4  12  23  36  59  87 119 158 203 257 309 377
#     4   8  18  34  53  86 120 153 200 256 309 356
#     4  12  22  37  60  91 122 152 210 254 310 380
#     4  10  19  34  58  85 116 150 200 250 296 364
#
# _framework density 18.925184999999999
#
# number of rings (size 3 to 8) (size 9 to 14) (size 15 to 20)
#    0.000    1.273    5.455    1.364    0.000    0.364 
#    0.000    0.000    0.000    1.091    0.000    1.273 
#    0.000    0.545    0.000    0.000    0.000    0.000 
#
# Total GULP energy -545121.115327 kJ/mol
# GULP energy per Si atom -12389.116257 kJ/mol
# Density = 1.888211 g / cm^3
# Si number density = 18.925185 Si / 1000 Ang^3
#
#
#
# Elastic Constant Matrix: (Units=GPa)
#
#
# Indices 1 2 3 4 5 6 
#
# 1 73.4055 26.6649 47.6046 0.0000 0.0000 0.0000
# 2 26.6649 112.4033 45.6619 0.0000 0.0000 0.0000
# 3 47.6046 45.6619 180.6646 0.0000 0.0000 0.0000
# 4 0.0000 0.0000 0.0000 32.4821 0.0000 0.0000
# 5 0.0000 0.0000 0.0000 0.0000 24.3472 0.0000
# 6 0.0000 0.0000 0.0000 0.0000 0.0000 32.5735
#
#
#
# Elastic Compliance Matrix: (Units=1/GPa)
#
#
# Indices 1 2 3 4 5 6 
#
# 1 0.017025 -0.002470 -0.003862 0.000000 0.000000 0.000000
# 2 -0.002470 0.010273 -0.001946 0.000000 0.000000 0.000000
# 3 -0.003862 -0.001946 0.007044 0.000000 0.000000 0.000000
# 4 0.000000 0.000000 0.000000 0.030786 0.000000 0.000000
# 5 0.000000 0.000000 0.000000 0.000000 0.041072 0.000000
# 6 0.000000 0.000000 0.000000 0.000000 0.000000 0.030700
#
#
# Mechanical properties :
#
#
# Convention : Reuss Voigt Hill
#
# Bulk Modulus (GPa) = 56.21951 67.37068 61.79510
# Shear Modulus (GPa) = 31.37085 34.31668 32.84377
#
# Velocity S-wave (km/s) = 4.07581 4.26288 4.17040
# Velocity P-wave (km/s) = 7.20558 7.73985 7.47749
#
# Compressibility (1/GPa) = 0.01778742
#
# Stress axis : x y z
#
# Youngs Moduli (GPa) = 58.73887 97.34420 141.95700
#
# Poissons Ratio (x) = 0.24043 0.54819
# Poissons Ratio (y) = 0.14508 0.27619
# Poissons Ratio (z) = 0.22683 0.18939
#
# Static dielectric constant tensor:
#      x y z
#    x 3.029850 0.000000 0.000000 
#    y 0.000000 3.550660 0.000000 
#    z 0.000000 0.000000 4.120260 
# 
# 
# High freq. dielectric constant tensor:
#      x y z
#    x 1.683120 0.000000 0.000000 
#    y 0.000000 1.758760 0.000000 
#    z 0.000000 0.000000 1.761040 
# 
# From -- ./inp_files/64570.got.cif
#   From: 2010.03.12/outbox.cif.g09.slc.cpg/sg66_33_cif.got.tgz:64570.got - 2010.04.10 21:57:39.
