data_PCOD8276810
_publ_section_title
;
Structure prediction by ZEFSAII (Michael W. Deem and Ramdas Pophale) SiO2 
 PCOD8276810
Probable space group: C C C M
;
_chemical_formula_sum "Si O2"
_cell_formula_units_Z 80
_cell_length_a 8.651833
_cell_length_b 25.536163
_cell_length_c 16.208571
_cell_angle_alpha 90.000000
_cell_angle_beta 90.000000
_cell_angle_gamma 90.000000
_cell_volume 3581.034438
_symmetry_space_group_name_H-M "C C C M"
_symmetry_group_IT_number 66
_symmetry_cell_setting 'orthorhombic'
loop_
_space_group_symop_operation_xyz
x,y,z
-x,-y,z
x,-y,1/2-z
-x,y,1/2-z
-x,-y,-z
x,y,-z
-x,y,1/2+z
x,-y,1/2+z
1/2+x,1/2+y,z
1/2-x,1/2-y,z
1/2+x,1/2-y,1/2-z
1/2-x,1/2+y,1/2-z
1/2-x,1/2-y,-z
1/2+x,1/2+y,-z
1/2-x,1/2+y,1/2+z
1/2+x,1/2-y,1/2+z
loop_
_atom_site_type_symbol
_atom_site_label
_atom_site_fract_x
_atom_site_fract_y
_atom_site_fract_z
Si Si1 0.820574 0.007402 0.097384
Si Si2 0.838376 0.799044 0.847746
Si Si3 0.681308 0.101617 0.591464
Si Si4 0.117767 0.402932 0.670328
Si Si5 0.674357 0.699431 0.660948
O O1 0.745924 0.952905 0.124368
O O2 0.740487 0.050051 0.157535
O O3 0.794848 0.020480 0.000000
O O4 0.000000 0.000000 0.118170
O O5 0.750000 0.750000 0.892350
O O6 0.738184 0.851757 0.850428
O O7 0.862344 0.783350 0.753660
O O8 0.009699 0.810745 0.885368
O O9 0.741970 0.113436 0.500000
O O10 0.495957 0.097782 0.591983
O O11 0.213759 0.349938 0.663728
O O12 0.000000 0.407990 0.750000
O O13 0.750000 0.750000 0.616054
#
# Coordination Sequence:
#
# PCOD8276810 Si02
#       5
#    16  16  16  16  16
#     4  10  23  44  67  90 127 175 216 264 328 390
#     4  10  20  38  63  91 124 162 208 261 316 376
#     4  11  23  40  62  90 126 170 210 255 322 386
#     4  12  23  40  63  96 126 165 211 268 316 376
#     4  10  21  37  63  91 124 161 206 260 322 378
#
# _framework density 22.339912999999999
#
# number of rings (size 3 to 8) (size 9 to 14) (size 15 to 20)
#    0.000    1.400    2.000    3.600    2.800    3.600 
#    0.000    2.000    0.000    4.200    0.000    0.000 
#    0.000    0.000    0.000    0.000    0.000    0.000 
#
# Total GULP energy -495579.335138 kJ/mol
# GULP energy per Si atom -12389.483378 kJ/mol
# Density = 2.228907 g / cm^3
# Si number density = 22.339913 Si / 1000 Ang^3
#
#
#
# Elastic Constant Matrix: (Units=GPa)
#
#
# Indices 1 2 3 4 5 6 
#
# 1 205.4244 102.0287 26.5247 0.0000 0.0000 0.0000
# 2 102.0287 194.0150 31.6224 0.0000 0.0000 0.0000
# 3 26.5247 31.6224 36.7982 0.0000 0.0000 0.0000
# 4 0.0000 0.0000 0.0000 -3.1766 0.0000 0.0000
# 5 0.0000 0.0000 0.0000 0.0000 20.4407 0.0000
# 6 0.0000 0.0000 0.0000 0.0000 0.0000 49.7504
#
#
#
# Elastic Compliance Matrix: (Units=1/GPa)
#
#
# Indices 1 2 3 4 5 6 
#
# 1 0.006726 -0.003194 -0.002103 0.000000 0.000000 0.000000
# 2 -0.003194 0.007511 -0.004152 0.000000 0.000000 0.000000
# 3 -0.002103 -0.004152 0.032259 0.000000 0.000000 0.000000
# 4 0.000000 0.000000 0.000000 -0.314799 0.000000 0.000000
# 5 0.000000 0.000000 0.000000 0.000000 0.048922 0.000000
# 6 0.000000 0.000000 0.000000 0.000000 0.000000 0.020100
#
#
# Mechanical properties :
#
#
# Convention : Reuss Voigt Hill
#
# Bulk Modulus (GPa) = 36.23553 84.06548 60.15050
# Shear Modulus (GPa) = -29.20850 31.80701 1.29925
#
# Velocity S-wave (km/s) = -3.61980 3.77739 0.76344
# Velocity P-wave (km/s) = 1.10242 7.53238 5.26884
#
# Compressibility (1/GPa) = 0.02759723
#
# Stress axis : x y z
#
# Youngs Moduli (GPa) = 148.67525 133.14204 30.99892
#
# Poissons Ratio (x) = 0.42530 0.06520
# Poissons Ratio (y) = 0.47491 0.12870
# Poissons Ratio (z) = 0.31270 0.55279
#
# Static dielectric constant tensor:
#      x y z
#    x 4.579290 0.000000 0.000000 
#    y 0.000000 3.931620 0.000000 
#    z 0.000000 0.000000 3.669200 
# 
# 
# High freq. dielectric constant tensor:
#      x y z
#    x 1.906640 0.000000 0.000000 
#    y 0.000000 1.889220 0.000000 
#    z 0.000000 0.000000 1.843070 
# 
# From -- ./inp_files/36976.got.cif
#   From: 2010.03.12/outbox.cif.g09.slc.cpg/sg66_19_cif.got.tgz:36976.got - 2010.04.10 21:57:39.
