data_PCOD8276399
_publ_section_title
;
Structure prediction by ZEFSAII (Michael W. Deem and Ramdas Pophale) SiO2 
 PCOD8276399
Probable space group: C C C M
;
_chemical_formula_sum "Si O2"
_cell_formula_units_Z 88
_cell_length_a 13.834646
_cell_length_b 13.505364
_cell_length_c 27.527454
_cell_angle_alpha 90.000000
_cell_angle_beta 90.000000
_cell_angle_gamma 90.000000
_cell_volume 5143.282634
_symmetry_space_group_name_H-M "C C C M"
_symmetry_group_IT_number 66
_symmetry_cell_setting 'orthorhombic'
loop_
_space_group_symop_operation_xyz
x,y,z
-x,-y,z
x,-y,1/2-z
-x,y,1/2-z
-x,-y,-z
x,y,-z
-x,y,1/2+z
x,-y,1/2+z
1/2+x,1/2+y,z
1/2-x,1/2-y,z
1/2+x,1/2-y,1/2-z
1/2-x,1/2+y,1/2-z
1/2-x,1/2-y,-z
1/2+x,1/2+y,-z
1/2-x,1/2+y,1/2+z
1/2+x,1/2-y,1/2+z
loop_
_atom_site_type_symbol
_atom_site_label
_atom_site_fract_x
_atom_site_fract_y
_atom_site_fract_z
Si Si1 0.750000 0.250000 0.780446
Si Si2 0.267623 0.356584 0.627388
Si Si3 0.390664 0.023814 0.874258
Si Si4 0.391832 0.103659 0.230381
Si Si5 0.389534 0.519037 0.945010
Si Si6 0.234783 0.642471 0.444795
O O1 0.700122 0.332264 0.816529
O O2 0.671208 0.197694 0.746430
O O3 0.250000 0.250000 0.601378
O O4 0.170526 0.422595 0.631114
O O5 0.351077 0.406991 0.596046
O O6 0.388417 0.094945 0.827491
O O7 0.351051 0.085863 0.918818
O O8 0.500000 0.000000 0.887205
O O9 0.500000 0.119228 0.250000
O O10 0.349030 0.000000 0.250000
O O11 0.500000 0.500000 0.933070
O O12 0.335484 0.415015 0.940000
O O13 0.375480 0.561657 0.000000
O O14 0.200528 0.653632 0.500000
O O15 0.250000 0.750000 0.420973
#
# Coordination Sequence:
#
# PCOD8276399 Si02
#       6
#     8  16  16  16  16  16
#     4  10  20  34  53  72 105 130 166 216 264 290
#     4   9  19  34  50  73 102 133 163 212 258 299
#     4  11  20  34  56  79 102 138 178 211 262 314
#     4  11  19  36  56  76 103 137 174 217 256 312
#     4   9  18  34  54  74 101 137 173 209 254 308
#     4   9  20  37  53  78 111 138 173 218 262 313
#
# _framework density 17.109694999999999
#
# number of rings (size 3 to 8) (size 9 to 14) (size 15 to 20)
#    0.545    1.636    3.636    0.000    1.273    2.182 
#    0.000    0.000    0.000    0.000    0.000    0.000 
#    0.000    0.000    0.000    0.000    0.000    0.000 
#
# Total GULP energy -545258.383453 kJ/mol
# GULP energy per Si atom -12392.235988 kJ/mol
# Density = 1.707075 g / cm^3
# Si number density = 17.109695 Si / 1000 Ang^3
#
#
#
# Elastic Constant Matrix: (Units=GPa)
#
#
# Indices 1 2 3 4 5 6 
#
# 1 130.1339 66.7081 63.5504 0.0000 0.0000 0.0000
# 2 66.7081 120.4995 51.5866 0.0000 0.0000 0.0000
# 3 63.5504 51.5866 79.0534 0.0000 0.0000 0.0000
# 4 0.0000 0.0000 0.0000 22.5873 0.0000 0.0000
# 5 0.0000 0.0000 0.0000 0.0000 19.5924 0.0000
# 6 0.0000 0.0000 0.0000 0.0000 0.0000 18.2978
#
#
#
# Elastic Compliance Matrix: (Units=1/GPa)
#
#
# Indices 1 2 3 4 5 6 
#
# 1 0.013945 -0.004053 -0.008565 0.000000 0.000000 0.000000
# 2 -0.004053 0.012694 -0.005025 0.000000 0.000000 0.000000
# 3 -0.008565 -0.005025 0.022815 0.000000 0.000000 0.000000
# 4 0.000000 0.000000 0.000000 0.044273 0.000000 0.000000
# 5 0.000000 0.000000 0.000000 0.000000 0.051040 0.000000
# 6 0.000000 0.000000 0.000000 0.000000 0.000000 0.054651
#
#
# Mechanical properties :
#
#
# Convention : Reuss Voigt Hill
#
# Bulk Modulus (GPa) = 70.59130 77.04187 73.81659
# Shear Modulus (GPa) = 20.88323 21.95163 21.41743
#
# Velocity S-wave (km/s) = 3.49743 3.58578 3.54188
# Velocity P-wave (km/s) = 7.59322 7.89111 7.74360
#
# Compressibility (1/GPa) = 0.01416605
#
# Stress axis : x y z
#
# Youngs Moduli (GPa) = 71.71114 78.77845 43.83159
#
# Poissons Ratio (x) = 0.31928 0.37543
# Poissons Ratio (y) = 0.29064 0.22027
# Poissons Ratio (z) = 0.61423 0.39589
#
# Static dielectric constant tensor:
#      x y z
#    x 3.050430 0.000000 0.000000 
#    y 0.000000 3.313710 0.000000 
#    z 0.000000 0.000000 3.272290 
# 
# 
# High freq. dielectric constant tensor:
#      x y z
#    x 1.647120 0.000000 0.000000 
#    y 0.000000 1.660910 0.000000 
#    z 0.000000 0.000000 1.665320 
# 
# From -- ./inp_files/68977.got.cif
#   From: 2010.03.12/outbox.cif.g09.slc.cpg/sg66_35_cif.got.tgz:68977.got - 2010.04.10 21:57:39.
