data_PCOD8276704
_publ_section_title
;
Structure prediction by ZEFSAII (Michael W. Deem and Ramdas Pophale) SiO2 
 PCOD8276704
Probable space group: C C C M
;
_chemical_formula_sum "Si O2"
_cell_formula_units_Z 96
_cell_length_a 18.550864
_cell_length_b 11.398276
_cell_length_c 22.723449
_cell_angle_alpha 90.000000
_cell_angle_beta 90.000000
_cell_angle_gamma 90.000000
_cell_volume 4804.824843
_symmetry_space_group_name_H-M "C C C M"
_symmetry_group_IT_number 66
_symmetry_cell_setting 'orthorhombic'
loop_
_space_group_symop_operation_xyz
x,y,z
-x,-y,z
x,-y,1/2-z
-x,y,1/2-z
-x,-y,-z
x,y,-z
-x,y,1/2+z
x,-y,1/2+z
1/2+x,1/2+y,z
1/2-x,1/2-y,z
1/2+x,1/2-y,1/2-z
1/2-x,1/2+y,1/2-z
1/2-x,1/2-y,-z
1/2+x,1/2+y,-z
1/2-x,1/2+y,1/2+z
1/2+x,1/2-y,1/2+z
loop_
_atom_site_type_symbol
_atom_site_label
_atom_site_fract_x
_atom_site_fract_y
_atom_site_fract_z
Si Si1 0.178736 0.322688 0.670062
Si Si2 0.901589 0.770991 0.567397
Si Si3 0.766685 0.571707 0.828581
Si Si4 0.036392 0.878393 0.625834
Si Si5 0.171223 0.980632 0.433768
Si Si6 0.358633 0.279205 0.788362
O O1 0.250000 0.250000 0.657237
O O2 0.131975 0.328544 0.610054
O O3 0.198486 0.451003 0.695251
O O4 0.131548 0.258649 0.720629
O O5 0.903485 0.725989 0.500000
O O6 0.982211 0.798013 0.588853
O O7 0.851196 0.884425 0.573769
O O8 0.741392 0.547353 0.895271
O O9 0.697273 0.610960 0.789967
O O10 0.826324 0.673524 0.827748
O O11 0.104475 0.898770 0.583760
O O12 0.063789 0.814596 0.685356
O O13 0.000000 0.000000 0.645298
O O14 0.193268 0.952038 0.500000
#
# Coordination Sequence:
#
# PCOD8276704 Si02
#       6
#    16  16  16  16  16  16
#     4  12  22  35  59  88 122 155 187 234 290 346
#     4  10  21  36  57  85 116 153 199 240 285 338
#     4  10  20  37  56  88 120 152 190 232 290 350
#     4   9  19  39  59  84 114 151 196 244 288 336
#     4   9  17  32  58  86 117 153 193 241 286 336
#     4  10  22  38  62  86 116 155 189 237 296 341
#
# _framework density 19.979915999999999
#
# number of rings (size 3 to 8) (size 9 to 14) (size 15 to 20)
#    0.000    2.000    3.333    1.000    0.000    3.667 
#    0.000   10.833    0.000    3.000    0.000    0.000 
#    0.000    0.000    0.000    0.000    0.000    0.000 
#
# Total GULP energy -595199.410155 kJ/mol
# GULP energy per Si atom -12399.987712 kJ/mol
# Density = 1.993444 g / cm^3
# Si number density = 19.979916 Si / 1000 Ang^3
#
#
#
# Elastic Constant Matrix: (Units=GPa)
#
#
# Indices 1 2 3 4 5 6 
#
# 1 58.8221 23.4452 46.7738 0.0000 0.0000 0.0000
# 2 23.4452 76.3546 33.9807 0.0000 0.0000 0.0000
# 3 46.7738 33.9807 147.0329 0.0000 0.0000 0.0000
# 4 0.0000 0.0000 0.0000 26.4867 0.0000 0.0000
# 5 0.0000 0.0000 0.0000 0.0000 30.9952 0.0000
# 6 0.0000 0.0000 0.0000 0.0000 0.0000 25.6000
#
#
#
# Elastic Compliance Matrix: (Units=1/GPa)
#
#
# Indices 1 2 3 4 5 6 
#
# 1 0.024032 -0.004433 -0.006620 0.000000 0.000000 0.000000
# 2 -0.004433 0.015416 -0.002153 0.000000 0.000000 0.000000
# 3 -0.006620 -0.002153 0.009405 0.000000 0.000000 0.000000
# 4 0.000000 0.000000 0.000000 0.037755 0.000000 0.000000
# 5 0.000000 0.000000 0.000000 0.000000 0.032263 0.000000
# 6 0.000000 0.000000 0.000000 0.000000 0.000000 0.039062
#
#
# Mechanical properties :
#
#
# Convention : Reuss Voigt Hill
#
# Bulk Modulus (GPa) = 44.56195 54.51212 49.53703
# Shear Modulus (GPa) = 26.06551 28.48371 27.27461
#
# Velocity S-wave (km/s) = 3.61582 3.77983 3.69874
# Velocity P-wave (km/s) = 6.30746 6.81118 6.56415
#
# Compressibility (1/GPa) = 0.02244067
#
# Stress axis : x y z
#
# Youngs Moduli (GPa) = 41.61191 64.86816 106.32896
#
# Poissons Ratio (x) = 0.28754 0.70394
# Poissons Ratio (y) = 0.18445 0.22889
# Poissons Ratio (z) = 0.27549 0.13964
#
# Static dielectric constant tensor:
#      x y z
#    x 3.482990 0.000000 0.000000 
#    y 0.000000 3.585680 0.000000 
#    z 0.000000 0.000000 3.710730 
# 
# 
# High freq. dielectric constant tensor:
#      x y z
#    x 1.760740 0.000000 0.000000 
#    y 0.000000 1.758950 0.000000 
#    z 0.000000 0.000000 1.786390 
# 
# From -- ./inp_files/58759.got.cif
#   From: 2010.03.12/outbox.cif.g09.slc.cpg/sg66_30_cif.got.tgz:58759.got - 2010.04.10 21:57:39.
