data_PCOD8276123
_publ_section_title
;
Structure prediction by ZEFSAII (Michael W. Deem and Ramdas Pophale) SiO2 
 PCOD8276123
Probable space group: C C C M
;
_chemical_formula_sum "Si O2"
_cell_formula_units_Z 116
_cell_length_a 22.478342
_cell_length_b 27.071379
_cell_length_c 9.176939
_cell_angle_alpha 90.000000
_cell_angle_beta 90.000000
_cell_angle_gamma 90.000000
_cell_volume 5584.348310
_symmetry_space_group_name_H-M "C C C M"
_symmetry_group_IT_number 66
_symmetry_cell_setting 'orthorhombic'
loop_
_space_group_symop_operation_xyz
x,y,z
-x,-y,z
x,-y,1/2-z
-x,y,1/2-z
-x,-y,-z
x,y,-z
-x,y,1/2+z
x,-y,1/2+z
1/2+x,1/2+y,z
1/2-x,1/2-y,z
1/2+x,1/2-y,1/2-z
1/2-x,1/2+y,1/2-z
1/2-x,1/2-y,-z
1/2+x,1/2+y,-z
1/2-x,1/2+y,1/2+z
1/2+x,1/2-y,1/2+z
loop_
_atom_site_type_symbol
_atom_site_label
_atom_site_fract_x
_atom_site_fract_y
_atom_site_fract_z
Si Si1 0.939631 0.253742 0.331777
Si Si2 0.130108 0.649922 0.333666
Si Si3 0.000000 0.000000 0.250000
Si Si4 0.258759 0.140065 0.332308
Si Si5 0.226194 0.046534 0.833191
Si Si6 0.874085 0.828757 0.331399
Si Si7 0.937139 0.549758 0.825688
Si Si8 0.905128 0.922479 0.839199
O O1 0.946972 0.239508 0.500000
O O2 0.922790 0.310892 0.311263
O O3 0.889977 0.219042 0.260792
O O4 0.000000 0.242121 0.250000
O O5 0.152667 0.651271 0.500000
O O6 0.183712 0.668987 0.228540
O O7 0.106329 0.595613 0.291521
O O8 0.958092 0.962734 0.159986
O O9 0.267674 0.126189 0.500000
O O10 0.260454 0.092158 0.232806
O O11 0.196850 0.168148 0.309476
O O12 0.155678 0.048984 0.806404
O O13 0.252201 0.000000 0.750000
O O14 0.243904 0.042025 0.000000
O O15 0.891234 0.822490 0.500000
O O16 0.910089 0.877446 0.275456
O O17 0.910742 0.500000 0.750000
O O18 0.000000 0.561474 0.750000
O O19 0.945073 0.542504 0.000000
O O20 0.903149 0.898588 0.000000
#
# Coordination Sequence:
#
# PCOD8276123 Si02
#       8
#    16  16   4  16  16  16  16  16
#     4  11  24  43  67  93 122 159 202 248 306 363
#     4  10  23  41  62  91 125 161 201 248 300 363
#     4  12  22  36  56  90 122 156 212 254 306 360
#     4  10  22  39  61  88 118 157 201 250 305 361
#     4  10  19  35  56  79 112 155 200 247 301 360
#     4  10  23  43  64  88 121 159 204 256 307 365
#     4  10  20  36  59  89 125 163 202 243 296 356
#     4  10  22  37  56  83 117 158 201 251 307 360
#
# _framework density 20.772344
#
# number of rings (size 3 to 8) (size 9 to 14) (size 15 to 20)
#    0.000    1.793    0.690    3.103    0.966    6.621 
#    0.000    4.138    0.000    0.000    0.000    0.000 
#    0.000    0.000    0.000    0.000    0.000    0.000 
#
# Total GULP energy -719066.951112 kJ/mol
# GULP energy per Si atom -12397.706054 kJ/mol
# Density = 2.072507 g / cm^3
# Si number density = 20.772344 Si / 1000 Ang^3
#
#
#
# Elastic Constant Matrix: (Units=GPa)
#
#
# Indices 1 2 3 4 5 6 
#
# 1 82.4491 29.6861 44.7637 0.0000 0.0000 0.0000
# 2 29.6861 97.6175 66.2636 0.0000 0.0000 0.0000
# 3 44.7637 66.2636 144.1256 0.0000 0.0000 0.0000
# 4 0.0000 0.0000 0.0000 35.9292 0.0000 0.0000
# 5 0.0000 0.0000 0.0000 0.0000 32.5730 0.0000
# 6 0.0000 0.0000 0.0000 0.0000 0.0000 21.5690
#
#
#
# Elastic Compliance Matrix: (Units=1/GPa)
#
#
# Indices 1 2 3 4 5 6 
#
# 1 0.014856 -0.002014 -0.003688 0.000000 0.000000 0.000000
# 2 -0.002014 0.015165 -0.006347 0.000000 0.000000 0.000000
# 3 -0.003688 -0.006347 0.011002 0.000000 0.000000 0.000000
# 4 0.000000 0.000000 0.000000 0.027833 0.000000 0.000000
# 5 0.000000 0.000000 0.000000 0.000000 0.030700 0.000000
# 6 0.000000 0.000000 0.000000 0.000000 0.000000 0.046363
#
#
# Mechanical properties :
#
#
# Convention : Reuss Voigt Hill
#
# Bulk Modulus (GPa) = 59.08480 67.29100 63.18790
# Shear Modulus (GPa) = 28.46439 30.24615 29.35527
#
# Velocity S-wave (km/s) = 3.70578 3.82000 3.76332
# Velocity P-wave (km/s) = 6.84223 7.20565 7.02629
#
# Compressibility (1/GPa) = 0.01692483
#
# Stress axis : x y z
#
# Youngs Moduli (GPa) = 67.31137 65.94237 90.89457
#
# Poissons Ratio (x) = 0.13284 0.33522
# Poissons Ratio (y) = 0.13559 0.57687
# Poissons Ratio (z) = 0.24825 0.41851
#
# Static dielectric constant tensor:
#      x y z
#    x 3.666900 0.000000 0.000000 
#    y 0.000000 3.659220 0.000000 
#    z 0.000000 0.000000 3.826750 
# 
# 
# High freq. dielectric constant tensor:
#      x y z
#    x 1.812460 0.000000 0.000000 
#    y 0.000000 1.809070 0.000000 
#    z 0.000000 0.000000 1.823320 
# 
# From -- ./inp_files/9444.got.cif
#   From: 2010.03.12/outbox.cif.g09.slc.cpg/sg66_5_cif.got.tgz:9444.got - 2010.04.10 21:57:39.
