data_PCOD8276491
_publ_section_title
;
Structure prediction by ZEFSAII (Michael W. Deem and Ramdas Pophale) SiO2 
 PCOD8276491
Probable space group: C C C M
;
_chemical_formula_sum "Si O2"
_cell_formula_units_Z 96
_cell_length_a 26.142561
_cell_length_b 13.319511
_cell_length_c 15.455677
_cell_angle_alpha 90.000000
_cell_angle_beta 90.000000
_cell_angle_gamma 90.000000
_cell_volume 5381.761456
_symmetry_space_group_name_H-M "C C C M"
_symmetry_group_IT_number 66
_symmetry_cell_setting 'orthorhombic'
loop_
_space_group_symop_operation_xyz
x,y,z
-x,-y,z
x,-y,1/2-z
-x,y,1/2-z
-x,-y,-z
x,y,-z
-x,y,1/2+z
x,-y,1/2+z
1/2+x,1/2+y,z
1/2-x,1/2-y,z
1/2+x,1/2-y,1/2-z
1/2-x,1/2+y,1/2-z
1/2-x,1/2-y,-z
1/2+x,1/2+y,-z
1/2-x,1/2+y,1/2+z
1/2+x,1/2-y,1/2+z
loop_
_atom_site_type_symbol
_atom_site_label
_atom_site_fract_x
_atom_site_fract_y
_atom_site_fract_z
Si Si1 0.535711 0.738548 0.166978
Si Si2 0.854375 0.882163 0.400947
Si Si3 0.308053 0.721990 0.256669
Si Si4 0.064374 0.719467 0.093120
Si Si5 0.108299 0.616470 0.754708
Si Si6 0.872766 0.884478 0.898894
O O1 0.500000 0.712067 0.250000
O O2 0.496391 0.760335 0.089819
O O3 0.571224 0.837239 0.181018
O O4 0.572122 0.646413 0.140245
O O5 0.835022 0.862858 0.500000
O O6 0.812551 0.846711 0.330145
O O7 0.906177 0.821260 0.379580
O O8 0.867951 0.997271 0.387438
O O9 0.250000 0.750000 0.273187
O O10 0.338016 0.826067 0.243591
O O11 0.327953 0.666030 0.342661
O O12 0.077969 0.629209 0.156054
O O13 0.082927 0.683513 0.000000
O O14 0.120257 0.500000 0.750000
O O15 0.867751 0.852597 0.000000
#
# Coordination Sequence:
#
# PCOD8276491 Si02
#       6
#    16  16  16  16  16  16
#     4   9  18  31  49  74 105 141 174 208 247 298
#     4   9  19  35  55  79 106 134 168 215 265 315
#     4  10  21  36  56  77 100 133 173 219 269 320
#     4   9  17  31  50  73 100 130 168 207 244 293
#     4   9  19  35  49  67  98 133 168 210 255 297
#     4  10  20  35  54  79 111 140 169 211 266 324
#
# _framework density 17.838025999999999
#
# number of rings (size 3 to 8) (size 9 to 14) (size 15 to 20)
#    0.000    2.667    0.000    2.000    0.000    5.667 
#    0.000   11.667    0.000    0.000    0.000    0.000 
#    0.000    0.000    0.000    0.000    0.000    0.000 
#
# Total GULP energy -594876.225674 kJ/mol
# GULP energy per Si atom -12393.254702 kJ/mol
# Density = 1.779743 g / cm^3
# Si number density = 17.838026 Si / 1000 Ang^3
#
#
#
# Elastic Constant Matrix: (Units=GPa)
#
#
# Indices 1 2 3 4 5 6 
#
# 1 110.6805 34.8547 36.8726 0.0000 0.0000 0.0000
# 2 34.8547 112.7004 47.9452 0.0000 0.0000 0.0000
# 3 36.8726 47.9452 100.2402 0.0000 0.0000 0.0000
# 4 0.0000 0.0000 0.0000 21.6318 0.0000 0.0000
# 5 0.0000 0.0000 0.0000 0.0000 18.0395 0.0000
# 6 0.0000 0.0000 0.0000 0.0000 0.0000 12.9009
#
#
#
# Elastic Compliance Matrix: (Units=1/GPa)
#
#
# Indices 1 2 3 4 5 6 
#
# 1 0.010659 -0.002045 -0.002943 0.000000 0.000000 0.000000
# 2 -0.002045 0.011532 -0.004764 0.000000 0.000000 0.000000
# 3 -0.002943 -0.004764 0.013337 0.000000 0.000000 0.000000
# 4 0.000000 0.000000 0.000000 0.046228 0.000000 0.000000
# 5 0.000000 0.000000 0.000000 0.000000 0.055434 0.000000
# 6 0.000000 0.000000 0.000000 0.000000 0.000000 0.077514
#
#
# Mechanical properties :
#
#
# Convention : Reuss Voigt Hill
#
# Bulk Modulus (GPa) = 62.39934 62.55180 62.47557
# Shear Modulus (GPa) = 20.87254 24.11101 22.49177
#
# Velocity S-wave (km/s) = 3.42441 3.68049 3.55475
# Velocity P-wave (km/s) = 7.11986 7.29411 7.20751
#
# Compressibility (1/GPa) = 0.01602581
#
# Stress axis : x y z
#
# Youngs Moduli (GPa) = 93.81455 86.71537 74.97884
#
# Poissons Ratio (x) = 0.17730 0.22066
# Poissons Ratio (y) = 0.19181 0.35718
# Poissons Ratio (z) = 0.27610 0.41309
#
# Static dielectric constant tensor:
#      x y z
#    x 3.224810 0.000000 0.000000 
#    y 0.000000 3.098190 0.000000 
#    z 0.000000 0.000000 3.594030 
# 
# 
# High freq. dielectric constant tensor:
#      x y z
#    x 1.680340 0.000000 0.000000 
#    y 0.000000 1.676400 0.000000 
#    z 0.000000 0.000000 1.701730 
# 
# From -- ./inp_files/43555.got.cif
#   From: 2010.03.12/outbox.cif.g09.slc.cpg/sg66_22_cif.got.tgz:43555.got - 2010.04.10 21:57:39.
