data_PCOD8276805
_publ_section_title
;
Structure prediction by ZEFSAII (Michael W. Deem and Ramdas Pophale) SiO2 
 PCOD8276805
Probable space group: C C C M
;
_chemical_formula_sum "Si O2"
_cell_formula_units_Z 64
_cell_length_a 22.680253
_cell_length_b 7.860721
_cell_length_c 16.282721
_cell_angle_alpha 90.000000
_cell_angle_beta 90.000000
_cell_angle_gamma 90.000000
_cell_volume 2902.934645
_symmetry_space_group_name_H-M "C C C M"
_symmetry_group_IT_number 66
_symmetry_cell_setting 'orthorhombic'
loop_
_space_group_symop_operation_xyz
x,y,z
-x,-y,z
x,-y,1/2-z
-x,y,1/2-z
-x,-y,-z
x,y,-z
-x,y,1/2+z
x,-y,1/2+z
1/2+x,1/2+y,z
1/2-x,1/2-y,z
1/2+x,1/2-y,1/2-z
1/2-x,1/2+y,1/2-z
1/2-x,1/2-y,-z
1/2+x,1/2+y,-z
1/2-x,1/2+y,1/2+z
1/2+x,1/2-y,1/2+z
loop_
_atom_site_type_symbol
_atom_site_label
_atom_site_fract_x
_atom_site_fract_y
_atom_site_fract_z
Si Si1 0.214651 0.009721 0.406677
Si Si2 0.125132 0.830028 0.297946
Si Si3 0.664906 0.856860 0.642921
Si Si4 0.940607 0.588649 0.906362
O O1 0.225904 0.952127 0.500000
O O2 0.276148 0.029941 0.358758
O O3 0.176959 0.183444 0.406716
O O4 0.178853 0.864227 0.359853
O O5 0.147611 0.683610 0.236703
O O6 0.070662 0.754516 0.349855
O O7 0.104643 0.000000 0.250000
O O8 0.612591 0.955270 0.598247
O O9 0.000000 0.500000 0.873969
O O10 0.948483 0.650362 0.000000
#
# Coordination Sequence:
#
# PCOD8276805 Si02
#       4
#    16  16  16  16
#     4  10  20  38  62  90 125 162 205 254 308 363
#     4  10  23  39  61  94 129 162 203 254 309 367
#     4  10  21  37  60  91 125 164 205 252 306 362
#     4  11  24  43  65  88 119 162 210 254 301 363
#
# _framework density 22.046654
#
# number of rings (size 3 to 8) (size 9 to 14) (size 15 to 20)
#    0.000    1.750    0.000    4.500    0.000   15.000 
#    0.000   11.250    0.000   13.500    0.000    0.000 
#    0.000    0.000    0.000    0.000    0.000    0.000 
#
# Total GULP energy -396940.958401 kJ/mol
# GULP energy per Si atom -12404.404950 kJ/mol
# Density = 2.199648 g / cm^3
# Si number density = 22.046654 Si / 1000 Ang^3
#
#
#
# Elastic Constant Matrix: (Units=GPa)
#
#
# Indices 1 2 3 4 5 6 
#
# 1 130.3715 58.5138 44.7149 0.0000 0.0000 0.0000
# 2 58.5138 96.7581 48.8806 0.0000 0.0000 0.0000
# 3 44.7149 48.8806 140.8931 0.0000 0.0000 0.0000
# 4 0.0000 0.0000 0.0000 28.5681 0.0000 0.0000
# 5 0.0000 0.0000 0.0000 0.0000 17.0775 0.0000
# 6 0.0000 0.0000 0.0000 0.0000 0.0000 40.8078
#
#
#
# Elastic Compliance Matrix: (Units=1/GPa)
#
#
# Indices 1 2 3 4 5 6 
#
# 1 0.010752 -0.005794 -0.001402 0.000000 0.000000 0.000000
# 2 -0.005794 0.015653 -0.003592 0.000000 0.000000 0.000000
# 3 -0.001402 -0.003592 0.008789 0.000000 0.000000 0.000000
# 4 0.000000 0.000000 0.000000 0.035004 0.000000 0.000000
# 5 0.000000 0.000000 0.000000 0.000000 0.058557 0.000000
# 6 0.000000 0.000000 0.000000 0.000000 0.000000 0.024505
#
#
# Mechanical properties :
#
#
# Convention : Reuss Voigt Hill
#
# Bulk Modulus (GPa) = 73.43147 74.69346 74.06246
# Shear Modulus (GPa) = 27.87467 31.68491 29.77979
#
# Velocity S-wave (km/s) = 3.55963 3.79512 3.67926
# Velocity P-wave (km/s) = 7.09043 7.29090 7.19136
#
# Compressibility (1/GPa) = 0.01361814
#
# Stress axis : x y z
#
# Youngs Moduli (GPa) = 93.00925 63.88439 113.78154
#
# Poissons Ratio (x) = 0.37012 0.15955
# Poissons Ratio (y) = 0.53886 0.40870
# Poissons Ratio (z) = 0.13042 0.22947
#
# Static dielectric constant tensor:
#      x y z
#    x 3.829740 0.000000 0.000000 
#    y 0.000000 3.903550 0.000000 
#    z 0.000000 0.000000 4.079900 
# 
# 
# High freq. dielectric constant tensor:
#      x y z
#    x 1.851650 0.000000 0.000000 
#    y 0.000000 1.868440 0.000000 
#    z 0.000000 0.000000 1.881180 
# 
# From -- ./inp_files/24161.got.cif
#   From: 2010.03.12/outbox.cif.g09.slc.cpg/sg66_13_cif.got.tgz:24161.got - 2010.04.10 21:57:39.
