data_PCOD8276828
_publ_section_title
;
Structure prediction by ZEFSAII (Michael W. Deem and Ramdas Pophale) SiO2 
 PCOD8276828
Probable space group: C C C M
;
_chemical_formula_sum "Si O2"
_cell_formula_units_Z 96
_cell_length_a 25.191673
_cell_length_b 23.272388
_cell_length_c 8.766909
_cell_angle_alpha 90.000000
_cell_angle_beta 90.000000
_cell_angle_gamma 90.000000
_cell_volume 5139.779145
_symmetry_space_group_name_H-M "C C C M"
_symmetry_group_IT_number 66
_symmetry_cell_setting 'orthorhombic'
loop_
_space_group_symop_operation_xyz
x,y,z
-x,-y,z
x,-y,1/2-z
-x,y,1/2-z
-x,-y,-z
x,y,-z
-x,y,1/2+z
x,-y,1/2+z
1/2+x,1/2+y,z
1/2-x,1/2-y,z
1/2+x,1/2-y,1/2-z
1/2-x,1/2+y,1/2-z
1/2-x,1/2-y,-z
1/2+x,1/2+y,-z
1/2-x,1/2+y,1/2+z
1/2+x,1/2-y,1/2+z
loop_
_atom_site_type_symbol
_atom_site_label
_atom_site_fract_x
_atom_site_fract_y
_atom_site_fract_z
Si Si1 0.810828 0.249345 0.677519
Si Si2 0.350790 0.876040 0.677233
Si Si3 0.444176 0.560691 0.820298
Si Si4 0.244924 0.938812 0.320796
Si Si5 0.555920 0.060517 0.179875
Si Si6 0.344857 0.637104 0.178087
O O1 0.812934 0.232773 0.500000
O O2 0.750000 0.250000 0.734326
O O3 0.836636 0.310523 0.710825
O O4 0.845253 0.203557 0.772515
O O5 0.363897 0.885897 0.500000
O O6 0.302555 0.916642 0.730432
O O7 0.401446 0.891107 0.779014
O O8 0.425687 0.500000 0.750000
O O9 0.500000 0.580879 0.750000
O O10 0.401114 0.608921 0.778253
O O11 0.450723 0.552688 0.000000
O O12 0.241547 0.944505 0.500000
O O13 0.201794 0.893283 0.269056
O O14 0.232138 0.000000 0.250000
O O15 0.500000 0.079808 0.250000
O O16 0.574734 0.000000 0.250000
O O17 0.550125 0.053963 0.000000
O O18 0.333494 0.630881 0.000000
#
# Coordination Sequence:
#
# PCOD8276828 Si02
#       6
#    16  16  16  16  16  16
#     4  10  20  39  61  83 112 154 195 233 286 339
#     4  10  21  38  59  84 115 149 192 236 283 342
#     4  10  21  37  58  84 113 147 188 232 284 339
#     4  11  22  36  55  82 116 150 187 233 287 345
#     4  11  22  38  61  87 117 152 192 235 289 343
#     4  11  23  37  56  85 116 149 192 236 283 341
#
# _framework density 18.677845000000001
#
# number of rings (size 3 to 8) (size 9 to 14) (size 15 to 20)
#    0.000    1.500    1.667    5.000    0.000    7.667 
#    0.000    0.833    0.000    2.000    0.000    0.000 
#    0.000    0.000    0.000    0.000    0.000    0.000 
#
# Total GULP energy -595459.123833 kJ/mol
# GULP energy per Si atom -12405.398413 kJ/mol
# Density = 1.863533 g / cm^3
# Si number density = 18.677845 Si / 1000 Ang^3
#
#
#
# Elastic Constant Matrix: (Units=GPa)
#
#
# Indices 1 2 3 4 5 6 
#
# 1 118.2764 53.9339 59.3512 0.0000 0.0000 0.0000
# 2 53.9339 92.2281 42.3549 0.0000 0.0000 0.0000
# 3 59.3512 42.3549 88.7701 0.0000 0.0000 0.0000
# 4 0.0000 0.0000 0.0000 33.9951 0.0000 0.0000
# 5 0.0000 0.0000 0.0000 0.0000 26.5866 0.0000
# 6 0.0000 0.0000 0.0000 0.0000 0.0000 17.8692
#
#
#
# Elastic Compliance Matrix: (Units=1/GPa)
#
#
# Indices 1 2 3 4 5 6 
#
# 1 0.014392 -0.005119 -0.007180 0.000000 0.000000 0.000000
# 2 -0.005119 0.015706 -0.004071 0.000000 0.000000 0.000000
# 3 -0.007180 -0.004071 0.018008 0.000000 0.000000 0.000000
# 4 0.000000 0.000000 0.000000 0.029416 0.000000 0.000000
# 5 0.000000 0.000000 0.000000 0.000000 0.037613 0.000000
# 6 0.000000 0.000000 0.000000 0.000000 0.000000 0.055962
#
#
# Mechanical properties :
#
#
# Convention : Reuss Voigt Hill
#
# Bulk Modulus (GPa) = 65.08060 67.83939 66.46000
# Shear Modulus (GPa) = 23.92811 25.26579 24.59695
#
# Velocity S-wave (km/s) = 3.58312 3.68192 3.63286
# Velocity P-wave (km/s) = 7.21372 7.38072 7.29770
#
# Compressibility (1/GPa) = 0.01536556
#
# Stress axis : x y z
#
# Youngs Moduli (GPa) = 69.48353 63.67054 55.53063
#
# Poissons Ratio (x) = 0.32592 0.39871
# Poissons Ratio (y) = 0.35568 0.22608
# Poissons Ratio (z) = 0.49889 0.25922
#
# Static dielectric constant tensor:
#      x y z
#    x 3.484030 0.000000 0.000000 
#    y 0.000000 3.417850 0.000000 
#    z 0.000000 0.000000 3.491050 
# 
# 
# High freq. dielectric constant tensor:
#      x y z
#    x 1.727090 0.000000 0.000000 
#    y 0.000000 1.725750 0.000000 
#    z 0.000000 0.000000 1.732820 
# 
# From -- ./inp_files/8038.got.cif
#   From: 2010.03.12/outbox.cif.g09.slc.cpg/sg66_5_cif.got.tgz:8038.got - 2010.04.10 21:57:39.
