data_PCOD8276556
_publ_section_title
;
Structure prediction by ZEFSAII (Michael W. Deem and Ramdas Pophale) SiO2 
 PCOD8276556
Probable space group: C C C M
;
_chemical_formula_sum "Si O2"
_cell_formula_units_Z 116
_cell_length_a 25.271212
_cell_length_b 25.462453
_cell_length_c 8.860191
_cell_angle_alpha 90.000000
_cell_angle_beta 90.000000
_cell_angle_gamma 90.000000
_cell_volume 5701.240946
_symmetry_space_group_name_H-M "C C C M"
_symmetry_group_IT_number 66
_symmetry_cell_setting 'orthorhombic'
loop_
_space_group_symop_operation_xyz
x,y,z
-x,-y,z
x,-y,1/2-z
-x,y,1/2-z
-x,-y,-z
x,y,-z
-x,y,1/2+z
x,-y,1/2+z
1/2+x,1/2+y,z
1/2-x,1/2-y,z
1/2+x,1/2-y,1/2-z
1/2-x,1/2+y,1/2-z
1/2-x,1/2-y,-z
1/2+x,1/2+y,-z
1/2-x,1/2+y,1/2+z
1/2+x,1/2-y,1/2+z
loop_
_atom_site_type_symbol
_atom_site_label
_atom_site_fract_x
_atom_site_fract_y
_atom_site_fract_z
Si Si1 0.049616 0.602516 0.165712
Si Si2 0.352746 0.277943 0.179097
Si Si3 0.000000 0.500000 0.250000
Si Si4 0.306360 0.551399 0.668668
Si Si5 0.147374 0.667714 0.822088
Si Si6 0.232455 0.845317 0.822532
Si Si7 0.431071 0.448513 0.169612
Si Si8 0.552682 0.659038 0.321331
O O1 0.040491 0.538785 0.160377
O O2 0.106467 0.621386 0.231379
O O3 0.000000 0.629466 0.250000
O O4 0.047035 0.625703 0.000000
O O5 0.367854 0.219942 0.232584
O O6 0.295236 0.295698 0.241094
O O7 0.395825 0.317223 0.244512
O O8 0.352411 0.281524 0.000000
O O9 0.282023 0.500000 0.750000
O O10 0.281924 0.556904 0.500000
O O11 0.293864 0.601121 0.770763
O O12 0.368584 0.546363 0.656338
O O13 0.206229 0.651035 0.775587
O O14 0.144081 0.678753 0.000000
O O15 0.224642 0.837860 0.000000
O O16 0.454585 0.500000 0.250000
O O17 0.448499 0.402091 0.280133
O O18 0.454361 0.440720 0.000000
O O19 0.500000 0.685747 0.250000
O O20 0.554389 0.667935 0.500000
#
# Coordination Sequence:
#
# PCOD8276556 Si02
#       8
#    16  16   4  16  16  16  16  16
#     4   9  19  37  63  92 127 163 203 248 302 368
#     4  12  25  42  63  89 122 162 210 263 319 378
#     4   8  18  36  70  96 126 168 210 248 306 372
#     4  10  20  35  58  86 122 161 204 251 303 366
#     4  10  23  42  62  91 127 165 209 258 313 376
#     4  11  22  39  64  89 122 166 211 259 320 381
#     4  10  20  36  59  87 119 156 200 249 302 362
#     4  12  25  42  64  89 120 159 205 257 313 372
#
# _framework density 20.346447999999999
#
# number of rings (size 3 to 8) (size 9 to 14) (size 15 to 20)
#    0.414    1.103    1.379    4.345    0.000    5.241 
#    1.241    2.759    0.000    0.000    0.000    0.000 
#    0.000    0.000    0.000    0.000    0.000    0.000 
#
# Total GULP energy -718927.733556 kJ/mol
# GULP energy per Si atom -12395.305751 kJ/mol
# Density = 2.030014 g / cm^3
# Si number density = 20.346448 Si / 1000 Ang^3
#
#
#
# Elastic Constant Matrix: (Units=GPa)
#
#
# Indices 1 2 3 4 5 6 
#
# 1 122.4778 41.3007 48.4351 0.0000 0.0000 0.0000
# 2 41.3007 101.2508 30.2427 0.0000 0.0000 0.0000
# 3 48.4351 30.2427 106.5508 0.0000 0.0000 0.0000
# 4 0.0000 0.0000 0.0000 30.0059 0.0000 0.0000
# 5 0.0000 0.0000 0.0000 0.0000 22.9380 0.0000
# 6 0.0000 0.0000 0.0000 0.0000 0.0000 10.0239
#
#
#
# Elastic Compliance Matrix: (Units=1/GPa)
#
#
# Indices 1 2 3 4 5 6 
#
# 1 0.010838 -0.003223 -0.004012 0.000000 0.000000 0.000000
# 2 -0.003223 0.011749 -0.001870 0.000000 0.000000 0.000000
# 3 -0.004012 -0.001870 0.011740 0.000000 0.000000 0.000000
# 4 0.000000 0.000000 0.000000 0.033327 0.000000 0.000000
# 5 0.000000 0.000000 0.000000 0.000000 0.043596 0.000000
# 6 0.000000 0.000000 0.000000 0.000000 0.000000 0.099761
#
#
# Mechanical properties :
#
#
# Convention : Reuss Voigt Hill
#
# Bulk Modulus (GPa) = 62.04199 63.35958 62.70079
# Shear Modulus (GPa) = 21.31351 26.61363 23.96357
#
# Velocity S-wave (km/s) = 3.24007 3.62058 3.43560
# Velocity P-wave (km/s) = 6.67506 6.97755 6.82798
#
# Compressibility (1/GPa) = 0.01611812
#
# Stress axis : x y z
#
# Youngs Moduli (GPa) = 92.26801 85.11001 85.18096
#
# Poissons Ratio (x) = 0.27427 0.34175
# Poissons Ratio (y) = 0.29734 0.15929
# Poissons Ratio (z) = 0.37018 0.15916
#
# Static dielectric constant tensor:
#      x y z
#    x 3.880020 0.000000 0.000000 
#    y 0.000000 3.638850 0.000000 
#    z 0.000000 0.000000 3.778180 
# 
# 
# High freq. dielectric constant tensor:
#      x y z
#    x 1.796030 0.000000 0.000000 
#    y 0.000000 1.787490 0.000000 
#    z 0.000000 0.000000 1.801490 
# 
# From -- ./inp_files/10612.got.cif
#   From: 2010.03.12/outbox.cif.g09.slc.cpg/sg66_6_cif.got.tgz:10612.got - 2010.04.10 21:57:39.
