data_PCOD8276634
_publ_section_title
;
Structure prediction by ZEFSAII (Michael W. Deem and Ramdas Pophale) SiO2 
 PCOD8276634
Probable space group: C C C M
;
_chemical_formula_sum "Si O2"
_cell_formula_units_Z 104
_cell_length_a 27.801588
_cell_length_b 20.681544
_cell_length_c 9.113639
_cell_angle_alpha 90.000000
_cell_angle_beta 90.000000
_cell_angle_gamma 90.000000
_cell_volume 5240.158015
_symmetry_space_group_name_H-M "C C C M"
_symmetry_group_IT_number 66
_symmetry_cell_setting 'orthorhombic'
loop_
_space_group_symop_operation_xyz
x,y,z
-x,-y,z
x,-y,1/2-z
-x,y,1/2-z
-x,-y,-z
x,y,-z
-x,y,1/2+z
x,-y,1/2+z
1/2+x,1/2+y,z
1/2-x,1/2-y,z
1/2+x,1/2-y,1/2-z
1/2-x,1/2+y,1/2-z
1/2-x,1/2-y,-z
1/2+x,1/2+y,-z
1/2-x,1/2+y,1/2+z
1/2+x,1/2-y,1/2+z
loop_
_atom_site_type_symbol
_atom_site_label
_atom_site_fract_x
_atom_site_fract_y
_atom_site_fract_z
Si Si1 0.951484 0.887758 0.334698
Si Si2 0.951487 0.565214 0.328615
Si Si3 0.691561 0.595972 0.160212
Si Si4 0.615171 0.500000 0.750000
Si Si5 0.285296 0.064473 0.671805
Si Si6 0.866411 0.664131 0.331523
Si Si7 0.381127 0.296192 0.828598
O O1 0.963962 0.866886 0.500000
O O2 0.925951 0.827197 0.256721
O O3 0.000000 0.905568 0.250000
O O4 0.918029 0.951277 0.342346
O O5 0.933181 0.500000 0.250000
O O6 0.960880 0.551308 0.500000
O O7 0.912412 0.619949 0.305977
O O8 0.000000 0.589504 0.250000
O O9 0.649563 0.542419 0.146017
O O10 0.730712 0.579009 0.281868
O O11 0.667519 0.663964 0.203463
O O12 0.716426 0.600141 0.000000
O O13 0.286371 0.050869 0.500000
O O14 0.318862 0.124591 0.714182
O O15 0.304772 0.000000 0.750000
O O16 0.862935 0.687269 0.500000
O O17 0.870937 0.724442 0.225305
O O18 0.393959 0.295956 0.000000
#
# Coordination Sequence:
#
# PCOD8276634 Si02
#       7
#    16  16  16   8  16  16  16
#     4  11  23  39  61  89 123 161 202 251 302 356
#     4  10  20  36  59  86 115 147 187 234 286 346
#     4  10  21  38  59  86 118 152 197 244 295 356
#     4  10  21  36  62  90 120 158 201 246 300 354
#     4  11  23  38  60  89 119 154 196 244 299 356
#     4  10  23  41  59  84 119 157 195 239 295 356
#     4  10  23  41  61  85 115 155 200 246 297 355
#
# _framework density 19.846729
#
# number of rings (size 3 to 8) (size 9 to 14) (size 15 to 20)
#    0.000    1.692    0.769    3.462    0.000    9.231 
#    0.000    4.615    0.000    0.000    0.000    0.000 
#    0.000    0.000    0.000    0.000    0.000    0.000 
#
# Total GULP energy -644878.614957 kJ/mol
# GULP energy per Si atom -12401.511826 kJ/mol
# Density = 1.980156 g / cm^3
# Si number density = 19.846729 Si / 1000 Ang^3
#
#
#
# Elastic Constant Matrix: (Units=GPa)
#
#
# Indices 1 2 3 4 5 6 
#
# 1 101.7067 59.1363 50.1968 0.0000 0.0000 0.0000
# 2 59.1363 127.8643 60.8915 0.0000 0.0000 0.0000
# 3 50.1968 60.8915 129.7272 0.0000 0.0000 0.0000
# 4 0.0000 0.0000 0.0000 28.3693 0.0000 0.0000
# 5 0.0000 0.0000 0.0000 0.0000 22.6832 0.0000
# 6 0.0000 0.0000 0.0000 0.0000 0.0000 19.6593
#
#
#
# Elastic Compliance Matrix: (Units=1/GPa)
#
#
# Indices 1 2 3 4 5 6 
#
# 1 0.014381 -0.005153 -0.003146 0.000000 0.000000 0.000000
# 2 -0.005153 0.011919 -0.003600 0.000000 0.000000 0.000000
# 3 -0.003146 -0.003600 0.010616 0.000000 0.000000 0.000000
# 4 0.000000 0.000000 0.000000 0.035249 0.000000 0.000000
# 5 0.000000 0.000000 0.000000 0.000000 0.044085 0.000000
# 6 0.000000 0.000000 0.000000 0.000000 0.000000 0.050867
#
#
# Mechanical properties :
#
#
# Convention : Reuss Voigt Hill
#
# Bulk Modulus (GPa) = 76.23880 77.74973 76.99426
# Shear Modulus (GPa) = 25.60326 26.74727 26.17526
#
# Velocity S-wave (km/s) = 3.59562 3.67507 3.63557
# Velocity P-wave (km/s) = 7.46560 7.56759 7.51677
#
# Compressibility (1/GPa) = 0.01311668
#
# Stress axis : x y z
#
# Youngs Moduli (GPa) = 69.53630 83.90240 94.19964
#
# Poissons Ratio (x) = 0.43235 0.29634
# Poissons Ratio (y) = 0.35832 0.33916
# Poissons Ratio (z) = 0.21875 0.30209
#
# Static dielectric constant tensor:
#      x y z
#    x 3.666740 0.000000 0.000000 
#    y 0.000000 3.616000 0.000000 
#    z 0.000000 0.000000 3.587030 
# 
# 
# High freq. dielectric constant tensor:
#      x y z
#    x 1.776750 0.000000 0.000000 
#    y 0.000000 1.774470 0.000000 
#    z 0.000000 0.000000 1.781720 
# 
# From -- ./inp_files/10365.got.cif
#   From: 2010.03.12/outbox.cif.g09.slc.cpg/sg66_6_cif.got.tgz:10365.got - 2010.04.10 21:57:39.
