data_PCOD8276152
_publ_section_title
;
Structure prediction by ZEFSAII (Michael W. Deem and Ramdas Pophale) SiO2 
 PCOD8276152
Probable space group: C C C M
;
_chemical_formula_sum "Si O2"
_cell_formula_units_Z 96
_cell_length_a 10.075886
_cell_length_b 28.042163
_cell_length_c 17.231820
_cell_angle_alpha 90.000000
_cell_angle_beta 90.000000
_cell_angle_gamma 90.000000
_cell_volume 4868.844496
_symmetry_space_group_name_H-M "C C C M"
_symmetry_group_IT_number 66
_symmetry_cell_setting 'orthorhombic'
loop_
_space_group_symop_operation_xyz
x,y,z
-x,-y,z
x,-y,1/2-z
-x,y,1/2-z
-x,-y,-z
x,y,-z
-x,y,1/2+z
x,-y,1/2+z
1/2+x,1/2+y,z
1/2-x,1/2-y,z
1/2+x,1/2-y,1/2-z
1/2-x,1/2+y,1/2-z
1/2-x,1/2-y,-z
1/2+x,1/2+y,-z
1/2-x,1/2+y,1/2+z
1/2+x,1/2-y,1/2+z
loop_
_atom_site_type_symbol
_atom_site_label
_atom_site_fract_x
_atom_site_fract_y
_atom_site_fract_z
Si Si1 0.006765 0.152028 0.409155
Si Si2 0.228682 0.387469 0.907682
Si Si3 0.902790 0.245583 0.178554
Si Si4 0.648793 0.990331 0.907669
Si Si5 0.962383 0.339378 0.091774
Si Si6 0.246727 0.911961 0.090396
O O1 0.003230 0.165975 0.500000
O O2 0.862748 0.137232 0.376171
O O3 0.067480 0.195338 0.361343
O O4 0.098399 0.105964 0.394418
O O5 0.208494 0.440953 0.873838
O O6 0.107450 0.354907 0.878466
O O7 0.236445 0.389649 0.000000
O O8 0.750000 0.250000 0.205896
O O9 0.932207 0.285894 0.115847
O O10 0.000000 0.253476 0.250000
O O11 0.500000 0.000000 0.877463
O O12 0.738302 0.034376 0.876549
O O13 0.648374 0.986331 0.000000
O O14 0.853781 0.375646 0.128072
O O15 0.956020 0.341210 0.000000
O O16 0.280542 0.914281 0.000000
#
# Coordination Sequence:
#
# PCOD8276152 Si02
#       6
#    16  16  16  16  16  16
#     4  10  21  37  57  83 114 147 186 233 279 327
#     4   9  18  30  50  84 119 147 179 225 278 324
#     4  12  27  42  58  81 109 144 187 234 287 340
#     4   9  14  24  45  78 118 150 177 219 272 325
#     4  10  19  35  60  84 109 147 189 226 270 329
#     4   9  16  28  51  81 111 145 184 221 268 326
#
# _framework density 19.717205
#
# number of rings (size 3 to 8) (size 9 to 14) (size 15 to 20)
#    0.000    2.167    3.333    0.500    2.333    1.333 
#    0.000    5.833    0.000    0.000    0.000    7.000 
#    0.000    0.000    0.000    0.000    0.000    0.000 
#
# Total GULP energy -595047.637039 kJ/mol
# GULP energy per Si atom -12396.825772 kJ/mol
# Density = 1.967233 g / cm^3
# Si number density = 19.717205 Si / 1000 Ang^3
#
#
#
# Elastic Constant Matrix: (Units=GPa)
#
#
# Indices 1 2 3 4 5 6 
#
# 1 154.9604 48.0712 20.1904 0.0000 0.0000 0.0000
# 2 48.0712 120.3076 7.2477 0.0000 0.0000 0.0000
# 3 20.1904 7.2477 12.4425 0.0000 0.0000 0.0000
# 4 0.0000 0.0000 0.0000 0.6371 0.0000 0.0000
# 5 0.0000 0.0000 0.0000 0.0000 17.4833 0.0000
# 6 0.0000 0.0000 0.0000 0.0000 0.0000 38.3824
#
#
#
# Elastic Compliance Matrix: (Units=1/GPa)
#
#
# Indices 1 2 3 4 5 6 
#
# 1 0.009022 -0.002822 -0.012996 0.000000 0.000000 0.000000
# 2 -0.002822 0.009497 -0.000953 0.000000 0.000000 0.000000
# 3 -0.012996 -0.000953 0.102014 0.000000 0.000000 0.000000
# 4 0.000000 0.000000 0.000000 1.569670 0.000000 0.000000
# 5 0.000000 0.000000 0.000000 0.000000 0.057197 0.000000
# 6 0.000000 0.000000 0.000000 0.000000 0.000000 0.026054
#
#
# Mechanical properties :
#
#
# Convention : Reuss Voigt Hill
#
# Bulk Modulus (GPa) = 11.49544 48.74767 30.12156
# Shear Modulus (GPa) = 2.72332 25.44730 14.08531
#
# Velocity S-wave (km/s) = 1.17652 3.59641 2.67566
# Velocity P-wave (km/s) = 2.77280 6.48249 4.98553
#
# Compressibility (1/GPa) = 0.08699104
#
# Stress axis : x y z
#
# Youngs Moduli (GPa) = 110.83988 105.29639 9.80258
#
# Poissons Ratio (x) = 0.29714 0.12740
# Poissons Ratio (y) = 0.31279 0.00934
# Poissons Ratio (z) = 1.44050 0.10032
#
# Static dielectric constant tensor:
#      x y z
#    x 3.821330 0.000000 0.000000 
#    y 0.000000 3.842190 0.000000 
#    z 0.000000 0.000000 2.988520 
# 
# 
# High freq. dielectric constant tensor:
#      x y z
#    x 1.779920 0.000000 0.000000 
#    y 0.000000 1.785270 0.000000 
#    z 0.000000 0.000000 1.702310 
# 
# From -- ./inp_files/52965.got.cif
#   From: 2010.03.12/outbox.cif.g09.slc.cpg/sg66_27_cif.got.tgz:52965.got - 2010.04.10 21:57:39.
