data_PCOD8276167
_publ_section_title
;
Structure prediction by ZEFSAII (Michael W. Deem and Ramdas Pophale) SiO2 
 PCOD8276167
Probable space group: C C C M
;
_chemical_formula_sum "Si O2"
_cell_formula_units_Z 120
_cell_length_a 12.382592
_cell_length_b 26.786115
_cell_length_c 19.142575
_cell_angle_alpha 90.000000
_cell_angle_beta 90.000000
_cell_angle_gamma 90.000000
_cell_volume 6349.238628
_symmetry_space_group_name_H-M "C C C M"
_symmetry_group_IT_number 66
_symmetry_cell_setting 'orthorhombic'
loop_
_space_group_symop_operation_xyz
x,y,z
-x,-y,z
x,-y,1/2-z
-x,y,1/2-z
-x,-y,-z
x,y,-z
-x,y,1/2+z
x,-y,1/2+z
1/2+x,1/2+y,z
1/2-x,1/2-y,z
1/2+x,1/2-y,1/2-z
1/2-x,1/2+y,1/2-z
1/2-x,1/2-y,-z
1/2+x,1/2+y,-z
1/2-x,1/2+y,1/2+z
1/2+x,1/2-y,1/2+z
loop_
_atom_site_type_symbol
_atom_site_label
_atom_site_fract_x
_atom_site_fract_y
_atom_site_fract_z
Si Si1 0.102920 0.631753 0.662239
Si Si2 0.795597 0.097002 0.422777
Si Si3 0.370911 0.232531 0.081242
Si Si4 0.979465 0.833305 0.081999
Si Si5 0.128934 0.399613 0.309058
Si Si6 0.123537 0.999493 0.876595
Si Si7 0.688213 0.609545 0.580921
Si Si8 0.776505 0.500000 0.250000
O O1 0.187611 0.596314 0.622962
O O2 0.095809 0.685907 0.627819
O O3 0.136494 0.638449 0.743572
O O4 0.989434 0.602574 0.656812
O O5 0.764659 0.116741 0.500000
O O6 0.881695 0.134145 0.385632
O O7 0.850170 0.042768 0.432098
O O8 0.250000 0.250000 0.099635
O O9 0.458003 0.275542 0.099984
O O10 0.378413 0.217987 0.000000
O O11 0.095750 0.852399 0.108974
O O12 0.976751 0.843657 0.000000
O O13 0.210201 0.381857 0.369113
O O14 0.149495 0.454823 0.277827
O O15 0.148966 0.946987 0.911974
O O16 0.197109 0.015776 0.811793
O O17 0.000000 0.000000 0.852528
O O18 0.719152 0.620154 0.500000
#
# Coordination Sequence:
#
# PCOD8276167 Si02
#       8
#    16  16  16  16  16  16  16   8
#     4  11  22  40  59  84 115 156 207 254 287 350
#     4  11  20  33  58  92 122 152 191 244 301 353
#     4  10  19  35  63  93 119 154 200 250 303 357
#     4   9  18  34  59  90 122 155 187 237 307 360
#     4  10  24  42  62  82 116 166 206 238 304 349
#     4  11  20  33  58  92 124 153 194 242 298 358
#     4  10  21  38  59  88 125 157 193 243 300 368
#     4  10  21  41  58  80 118 168 202 236 282 374
#
# _framework density 18.899903999999999
#
# number of rings (size 3 to 8) (size 9 to 14) (size 15 to 20)
#    0.000    1.733    4.000    1.000    0.000    2.667 
#    0.000    4.000    0.000    4.800    0.000    0.000 
#    0.000    0.000    0.000    0.000    0.000    0.000 
#
# Total GULP energy -743812.981948 kJ/mol
# GULP energy per Si atom -12396.883032 kJ/mol
# Density = 1.885689 g / cm^3
# Si number density = 18.899904 Si / 1000 Ang^3
#
#
#
# Elastic Constant Matrix: (Units=GPa)
#
#
# Indices 1 2 3 4 5 6 
#
# 1 159.3075 63.3685 68.3330 0.0000 0.0000 0.0000
# 2 63.3685 115.1020 37.4930 0.0000 0.0000 0.0000
# 3 68.3330 37.4930 87.3692 0.0000 0.0000 0.0000
# 4 0.0000 0.0000 0.0000 32.3720 0.0000 0.0000
# 5 0.0000 0.0000 0.0000 0.0000 22.2379 0.0000
# 6 0.0000 0.0000 0.0000 0.0000 0.0000 32.9066
#
#
#
# Elastic Compliance Matrix: (Units=1/GPa)
#
#
# Indices 1 2 3 4 5 6 
#
# 1 0.010621 -0.003652 -0.006739 0.000000 0.000000 0.000000
# 2 -0.003652 0.011355 -0.002017 0.000000 0.000000 0.000000
# 3 -0.006739 -0.002017 0.017582 0.000000 0.000000 0.000000
# 4 0.000000 0.000000 0.000000 0.030891 0.000000 0.000000
# 5 0.000000 0.000000 0.000000 0.000000 0.044968 0.000000
# 6 0.000000 0.000000 0.000000 0.000000 0.000000 0.030389
#
#
# Mechanical properties :
#
#
# Convention : Reuss Voigt Hill
#
# Bulk Modulus (GPa) = 67.83327 77.79642 72.81484
# Shear Modulus (GPa) = 28.48410 30.34223 29.41317
#
# Velocity S-wave (km/s) = 3.88635 4.01111 3.94923
# Velocity P-wave (km/s) = 7.49046 7.91857 7.70749
#
# Compressibility (1/GPa) = 0.01474203
#
# Stress axis : x y z
#
# Youngs Moduli (GPa) = 94.15710 88.06405 56.87571
#
# Poissons Ratio (x) = 0.32159 0.38331
# Poissons Ratio (y) = 0.34384 0.11471
# Poissons Ratio (z) = 0.63456 0.17761
#
# Static dielectric constant tensor:
#      x y z
#    x 3.551120 0.000000 0.000000 
#    y 0.000000 3.393770 0.000000 
#    z 0.000000 0.000000 3.399620 
# 
# 
# High freq. dielectric constant tensor:
#      x y z
#    x 1.738080 0.000000 0.000000 
#    y 0.000000 1.729420 0.000000 
#    z 0.000000 0.000000 1.723750 
# 
# From -- ./inp_files/49050.got.cif
#   From: 2010.03.12/outbox.cif.g09.slc.cpg/sg66_25_cif.got.tgz:49050.got - 2010.04.10 21:57:39.
