data_PCOD8276224
_publ_section_title
;
Structure prediction by ZEFSAII (Michael W. Deem and Ramdas Pophale) SiO2 
 PCOD8276224
Probable space group: C C C M
;
_chemical_formula_sum "Si O2"
_cell_formula_units_Z 64
_cell_length_a 8.532959
_cell_length_b 25.156987
_cell_length_c 13.890012
_cell_angle_alpha 90.000000
_cell_angle_beta 90.000000
_cell_angle_gamma 90.000000
_cell_volume 2981.679128
_symmetry_space_group_name_H-M "C C C M"
_symmetry_group_IT_number 66
_symmetry_cell_setting 'orthorhombic'
loop_
_space_group_symop_operation_xyz
x,y,z
-x,-y,z
x,-y,1/2-z
-x,y,1/2-z
-x,-y,-z
x,y,-z
-x,y,1/2+z
x,-y,1/2+z
1/2+x,1/2+y,z
1/2-x,1/2-y,z
1/2+x,1/2-y,1/2-z
1/2-x,1/2+y,1/2-z
1/2-x,1/2-y,-z
1/2+x,1/2+y,-z
1/2-x,1/2+y,1/2+z
1/2+x,1/2-y,1/2+z
loop_
_atom_site_type_symbol
_atom_site_label
_atom_site_fract_x
_atom_site_fract_y
_atom_site_fract_z
Si Si1 0.345407 0.170352 0.000000
Si Si2 0.381025 0.342083 0.670949
Si Si3 0.000633 0.216214 0.000000
Si Si4 0.565652 0.556778 0.110761
Si Si5 0.149615 0.388843 0.196925
O O1 0.394167 0.138717 0.904165
O O2 0.157352 0.179318 0.000000
O O3 0.447380 0.223365 0.000000
O O4 0.500000 0.321098 0.750000
O O5 0.387385 0.297120 0.589437
O O6 0.432090 0.399340 0.628094
O O7 0.212933 0.346208 0.723717
O O8 0.500000 0.500000 0.141835
O O9 0.716797 0.567373 0.177667
O O10 0.619868 0.557166 0.000000
O O11 0.000000 0.415347 0.250000
#
# Coordination Sequence:
#
# PCOD8276224 Si02
#       5
#     8  16   8  16  16
#     4  11  22  41  61  93 135 174 212 274 329 361
#     4  10  19  37  61  91 121 173 217 258 313 382
#     4  11  20  39  65  91 130 172 231 272 301 388
#     4  10  19  39  68  92 120 164 216 261 321 399
#     4  11  23  41  63  96 135 168 210 273 331 383
#
# _framework density 21.464414999999999
#
# number of rings (size 3 to 8) (size 9 to 14) (size 15 to 20)
#    0.000    1.500    7.500    0.000    0.000    6.500 
#    0.000    3.750    0.000    3.000    0.000    0.000 
#    0.000    0.000    0.000    0.000    0.000    0.000 
#
# Total GULP energy -396653.795623 kJ/mol
# GULP energy per Si atom -12395.431113 kJ/mol
# Density = 2.141556 g / cm^3
# Si number density = 21.464415 Si / 1000 Ang^3
#
#
#
# Elastic Constant Matrix: (Units=GPa)
#
#
# Indices 1 2 3 4 5 6 
#
# 1 82.0384 22.2792 53.1721 0.0000 0.0000 0.0000
# 2 22.2792 93.9960 49.0622 0.0000 0.0000 0.0000
# 3 53.1721 49.0622 156.7365 0.0000 0.0000 0.0000
# 4 0.0000 0.0000 0.0000 21.5942 0.0000 0.0000
# 5 0.0000 0.0000 0.0000 0.0000 34.0341 0.0000
# 6 0.0000 0.0000 0.0000 0.0000 0.0000 18.9682
#
#
#
# Elastic Compliance Matrix: (Units=1/GPa)
#
#
# Indices 1 2 3 4 5 6 
#
# 1 0.015724 -0.001127 -0.004982 0.000000 0.000000 0.000000
# 2 -0.001127 0.012797 -0.003624 0.000000 0.000000 0.000000
# 3 -0.004982 -0.003624 0.009204 0.000000 0.000000 0.000000
# 4 0.000000 0.000000 0.000000 0.046309 0.000000 0.000000
# 5 0.000000 0.000000 0.000000 0.000000 0.029382 0.000000
# 6 0.000000 0.000000 0.000000 0.000000 0.000000 0.052720
#
#
# Mechanical properties :
#
#
# Convention : Reuss Voigt Hill
#
# Bulk Modulus (GPa) = 54.75912 64.64423 59.70167
# Shear Modulus (GPa) = 26.08408 28.80313 27.44361
#
# Velocity S-wave (km/s) = 3.48979 3.66717 3.57958
# Velocity P-wave (km/s) = 6.46569 6.93637 6.70516
#
# Compressibility (1/GPa) = 0.01826180
#
# Stress axis : x y z
#
# Youngs Moduli (GPa) = 63.59620 78.14223 108.64365
#
# Poissons Ratio (x) = 0.08805 0.54123
# Poissons Ratio (y) = 0.07166 0.39368
# Poissons Ratio (z) = 0.31681 0.28315
#
# Static dielectric constant tensor:
#      x y z
#    x 3.787060 0.000000 0.000000 
#    y 0.000000 3.580170 0.000000 
#    z 0.000000 0.000000 4.300760 
# 
# 
# High freq. dielectric constant tensor:
#      x y z
#    x 1.819710 0.000000 0.000000 
#    y 0.000000 1.814930 0.000000 
#    z 0.000000 0.000000 1.872340 
# 
# From -- ./inp_files/24184.got.cif
#   From: 2010.03.12/outbox.cif.g09.slc.cpg/sg66_13_cif.got.tgz:24184.got - 2010.04.10 21:57:39.
