data_PCOD8276175
_publ_section_title
;
Structure prediction by ZEFSAII (Michael W. Deem and Ramdas Pophale) SiO2 
 PCOD8276175
Probable space group: C C C M
;
_chemical_formula_sum "Si O2"
_cell_formula_units_Z 64
_cell_length_a 28.946381
_cell_length_b 8.453318
_cell_length_c 14.243064
_cell_angle_alpha 90.000000
_cell_angle_beta 90.000000
_cell_angle_gamma 90.000000
_cell_volume 3485.177540
_symmetry_space_group_name_H-M "C C C M"
_symmetry_group_IT_number 66
_symmetry_cell_setting 'orthorhombic'
loop_
_space_group_symop_operation_xyz
x,y,z
-x,-y,z
x,-y,1/2-z
-x,y,1/2-z
-x,-y,-z
x,y,-z
-x,y,1/2+z
x,-y,1/2+z
1/2+x,1/2+y,z
1/2-x,1/2-y,z
1/2+x,1/2-y,1/2-z
1/2-x,1/2+y,1/2-z
1/2-x,1/2-y,-z
1/2+x,1/2+y,-z
1/2-x,1/2+y,1/2+z
1/2+x,1/2-y,1/2+z
loop_
_atom_site_type_symbol
_atom_site_label
_atom_site_fract_x
_atom_site_fract_y
_atom_site_fract_z
Si Si1 0.817886 0.935806 0.000000
Si Si2 0.853819 0.438220 0.148127
Si Si3 0.553511 0.463505 0.500000
Si Si4 0.620213 0.416074 0.150247
Si Si5 0.388036 0.836880 0.500000
Si Si6 0.775203 0.583796 0.500000
O O1 0.839186 0.759570 0.000000
O O2 0.835016 0.026727 0.093038
O O3 0.762260 0.940453 0.000000
O O4 0.841160 0.500000 0.250000
O O5 0.879024 0.271542 0.160258
O O6 0.888985 0.554905 0.093233
O O7 0.806030 0.427168 0.092536
O O8 0.500000 0.500000 0.500000
O O9 0.574050 0.540511 0.406221
O O10 0.567218 0.276878 0.500000
O O11 0.619330 0.500000 0.250000
O O12 0.750000 0.750000 0.500000
#
# Coordination Sequence:
#
# PCOD8276175 Si02
#       6
#     8  16   8  16   8   8
#     4  10  19  36  55  77 111 154 193 236 289 338
#     4  11  21  36  56  83 114 155 196 237 287 338
#     4  10  21  39  63  88 107 141 186 233 295 361
#     4  10  20  37  59  80 112 153 189 229 286 353
#     4   9  20  38  58  82 115 147 187 244 291 348
#     4  11  20  38  52  80 118 149 200 248 281 323
#
# _framework density 18.363482999999999
#
# number of rings (size 3 to 8) (size 9 to 14) (size 15 to 20)
#    0.000    2.000    2.500    5.250    0.000    3.500 
#    4.500    2.500    0.000    1.500    0.000    0.000 
#    0.000    0.000    0.000    0.000    0.000    0.000 
#
# Total GULP energy -396770.013377 kJ/mol
# GULP energy per Si atom -12399.062918 kJ/mol
# Density = 1.832169 g / cm^3
# Si number density = 18.363483 Si / 1000 Ang^3
#
#
#
# Elastic Constant Matrix: (Units=GPa)
#
#
# Indices 1 2 3 4 5 6 
#
# 1 123.3204 49.0429 55.9019 0.0000 0.0000 0.0000
# 2 49.0429 154.2602 67.9579 0.0000 0.0000 0.0000
# 3 55.9019 67.9579 180.8546 0.0000 0.0000 0.0000
# 4 0.0000 0.0000 0.0000 40.7016 0.0000 0.0000
# 5 0.0000 0.0000 0.0000 0.0000 5.7578 0.0000
# 6 0.0000 0.0000 0.0000 0.0000 0.0000 21.4230
#
#
#
# Elastic Compliance Matrix: (Units=1/GPa)
#
#
# Indices 1 2 3 4 5 6 
#
# 1 0.010007 -0.002180 -0.002274 0.000000 0.000000 0.000000
# 2 -0.002180 0.008243 -0.002424 0.000000 0.000000 0.000000
# 3 -0.002274 -0.002424 0.007143 0.000000 0.000000 0.000000
# 4 0.000000 0.000000 0.000000 0.024569 0.000000 0.000000
# 5 0.000000 0.000000 0.000000 0.000000 0.173677 0.000000
# 6 0.000000 0.000000 0.000000 0.000000 0.000000 0.046679
#
#
# Mechanical properties :
#
#
# Convention : Reuss Voigt Hill
#
# Bulk Modulus (GPa) = 85.92482 89.36008 87.64245
# Shear Modulus (GPa) = 17.36404 32.61197 24.98801
#
# Velocity S-wave (km/s) = 3.07836 4.21873 3.69283
# Velocity P-wave (km/s) = 7.71542 8.51456 8.12482
#
# Compressibility (1/GPa) = 0.01163808
#
# Stress axis : x y z
#
# Youngs Moduli (GPa) = 99.93443 121.31128 139.99776
#
# Poissons Ratio (x) = 0.26440 0.31836
# Poissons Ratio (y) = 0.21781 0.33933
# Poissons Ratio (z) = 0.22725 0.29403
#
# Static dielectric constant tensor:
#      x y z
#    x 3.090060 0.000000 0.000000 
#    y 0.000000 3.661450 0.000000 
#    z 0.000000 0.000000 3.526920 
# 
# 
# High freq. dielectric constant tensor:
#      x y z
#    x 1.676870 0.000000 0.000000 
#    y 0.000000 1.732970 0.000000 
#    z 0.000000 0.000000 1.722640 
# 
# From -- ./inp_files/24597.got.cif
#   From: 2010.03.12/outbox.cif.g09.slc.cpg/sg66_13_cif.got.tgz:24597.got - 2010.04.10 21:57:39.
