data_PCOD8276263
_publ_section_title
;
Structure prediction by ZEFSAII (Michael W. Deem and Ramdas Pophale) SiO2 
 PCOD8276263
Probable space group: C C C M
;
_chemical_formula_sum "Si O2"
_cell_formula_units_Z 96
_cell_length_a 26.811341
_cell_length_b 27.640289
_cell_length_c 9.742903
_cell_angle_alpha 90.000000
_cell_angle_beta 90.000000
_cell_angle_gamma 90.000000
_cell_volume 7220.204437
_symmetry_space_group_name_H-M "C C C M"
_symmetry_group_IT_number 66
_symmetry_cell_setting 'orthorhombic'
loop_
_space_group_symop_operation_xyz
x,y,z
-x,-y,z
x,-y,1/2-z
-x,y,1/2-z
-x,-y,-z
x,y,-z
-x,y,1/2+z
x,-y,1/2+z
1/2+x,1/2+y,z
1/2-x,1/2-y,z
1/2+x,1/2-y,1/2-z
1/2-x,1/2+y,1/2-z
1/2-x,1/2-y,-z
1/2+x,1/2+y,-z
1/2-x,1/2+y,1/2+z
1/2+x,1/2-y,1/2+z
loop_
_atom_site_type_symbol
_atom_site_label
_atom_site_fract_x
_atom_site_fract_y
_atom_site_fract_z
Si Si1 0.429560 0.955811 0.500000
Si Si2 0.282822 0.298704 0.348500
Si Si3 0.817083 0.663897 0.658755
Si Si4 0.352794 0.748111 0.658955
Si Si5 0.094788 0.391264 0.755584
Si Si6 0.546100 0.791489 0.846124
Si Si7 0.546215 0.936729 0.500000
O O1 0.403029 0.933822 0.633347
O O2 0.487705 0.944572 0.500000
O O3 0.422405 0.013473 0.500000
O O4 0.307056 0.303859 0.500000
O O5 0.250000 0.250000 0.340851
O O6 0.243054 0.342687 0.322802
O O7 0.327155 0.298152 0.234979
O O8 0.828903 0.678063 0.500000
O O9 0.833849 0.705160 0.762275
O O10 0.848589 0.616295 0.700032
O O11 0.335811 0.749209 0.500000
O O12 0.412998 0.748422 0.670365
O O13 0.071993 0.342679 0.818110
O O14 0.058566 0.405975 0.633262
O O15 0.500000 0.779473 0.750000
O O16 0.525086 0.792610 0.000000
#
# Coordination Sequence:
#
# PCOD8276263 Si02
#       7
#     8  16  16  16  16  16   8
#     4  11  22  34  44  58  71  86 122 154 188 239
#     4   8  14  25  39  53  72  93 115 136 166 217
#     4   9  17  28  40  55  71  93 114 137 178 224
#     4   9  17  26  36  56  76  92 115 145 176 209
#     4  11  20  32  44  57  73  90 116 155 192 229
#     4  10  20  29  40  55  75  98 123 152 184 219
#     4  11  22  34  46  54  69  96 116 148 196 237
#
# _framework density 13.296022000000001
#
# number of rings (size 3 to 8) (size 9 to 14) (size 15 to 20)
#    0.000    2.333    1.667    3.500    2.333    5.667 
#    0.000    0.000    0.000    0.000    0.000    0.000 
#    0.000    0.000    0.000    0.000    0.000    0.000 
#
# Total GULP energy -594739.463646 kJ/mol
# GULP energy per Si atom -12390.405493 kJ/mol
# Density = 1.326576 g / cm^3
# Si number density = 13.296022 Si / 1000 Ang^3
#
#
#
# Elastic Constant Matrix: (Units=GPa)
#
#
# Indices 1 2 3 4 5 6 
#
# 1 67.8348 27.9887 47.7510 0.0000 0.0000 0.0000
# 2 27.9887 22.8626 19.1056 0.0000 0.0000 0.0000
# 3 47.7510 19.1056 114.4779 0.0000 0.0000 0.0000
# 4 0.0000 0.0000 0.0000 11.9042 0.0000 0.0000
# 5 0.0000 0.0000 0.0000 0.0000 24.1572 0.0000
# 6 0.0000 0.0000 0.0000 0.0000 0.0000 18.5177
#
#
#
# Elastic Compliance Matrix: (Units=1/GPa)
#
#
# Indices 1 2 3 4 5 6 
#
# 1 0.036303 -0.036940 -0.008978 0.000000 0.000000 0.000000
# 2 -0.036940 0.088417 0.000652 0.000000 0.000000 0.000000
# 3 -0.008978 0.000652 0.012371 0.000000 0.000000 0.000000
# 4 0.000000 0.000000 0.000000 0.084004 0.000000 0.000000
# 5 0.000000 0.000000 0.000000 0.000000 0.041396 0.000000
# 6 0.000000 0.000000 0.000000 0.000000 0.000000 0.054002
#
#
# Mechanical properties :
#
#
# Convention : Reuss Voigt Hill
#
# Bulk Modulus (GPa) = 21.47756 43.87401 32.67579
# Shear Modulus (GPa) = 11.83307 18.27114 15.05210
#
# Velocity S-wave (km/s) = 2.98647 3.71102 3.36828
# Velocity P-wave (km/s) = 5.29910 7.17159 6.30524
#
# Compressibility (1/GPa) = 0.04656022
#
# Stress axis : x y z
#
# Youngs Moduli (GPa) = 27.54602 11.31001 80.83298
#
# Poissons Ratio (x) = 0.41779 0.72568
# Poissons Ratio (y) = 1.01756 -0.05272
# Poissons Ratio (z) = 0.24730 -0.00738
#
# Static dielectric constant tensor:
#      x y z
#    x 3.104770 0.000000 0.000000 
#    y 0.000000 2.526530 0.000000 
#    z 0.000000 0.000000 2.866660 
# 
# 
# High freq. dielectric constant tensor:
#      x y z
#    x 1.495380 0.000000 0.000000 
#    y 0.000000 1.442990 0.000000 
#    z 0.000000 0.000000 1.530520 
# 
# From -- ./inp_files/11835.got.cif
#   From: 2010.03.12/outbox.cif.g09.slc.cpg/sg66_6_cif.got.tgz:11835.got - 2010.04.10 21:57:39.
