data_PCOD8276490
_publ_section_title
;
Structure prediction by ZEFSAII (Michael W. Deem and Ramdas Pophale) SiO2 
 PCOD8276490
Probable space group: C C C M
;
_chemical_formula_sum "Si O2"
_cell_formula_units_Z 80
_cell_length_a 26.706706
_cell_length_b 18.503299
_cell_length_c 8.683064
_cell_angle_alpha 90.000000
_cell_angle_beta 90.000000
_cell_angle_gamma 90.000000
_cell_volume 4290.841717
_symmetry_space_group_name_H-M "C C C M"
_symmetry_group_IT_number 66
_symmetry_cell_setting 'orthorhombic'
loop_
_space_group_symop_operation_xyz
x,y,z
-x,-y,z
x,-y,1/2-z
-x,y,1/2-z
-x,-y,-z
x,y,-z
-x,y,1/2+z
x,-y,1/2+z
1/2+x,1/2+y,z
1/2-x,1/2-y,z
1/2+x,1/2-y,1/2-z
1/2-x,1/2+y,1/2-z
1/2-x,1/2-y,-z
1/2+x,1/2+y,-z
1/2-x,1/2+y,1/2+z
1/2+x,1/2-y,1/2+z
loop_
_atom_site_type_symbol
_atom_site_label
_atom_site_fract_x
_atom_site_fract_y
_atom_site_fract_z
Si Si1 0.553455 0.575070 0.819387
Si Si2 0.603644 0.707803 0.679820
Si Si3 0.447693 0.853432 0.820549
Si Si4 0.195757 0.716748 0.678784
Si Si5 0.654978 0.922492 0.683641
O O1 0.573401 0.500000 0.750000
O O2 0.500000 0.596466 0.750000
O O3 0.592682 0.637089 0.779088
O O4 0.547817 0.566272 0.000000
O O5 0.601258 0.689070 0.500000
O O6 0.563703 0.770241 0.723049
O O7 0.658819 0.733602 0.722574
O O8 0.500000 0.879580 0.750000
O O9 0.401630 0.902887 0.761954
O O10 0.453022 0.862944 0.000000
O O11 0.180162 0.716908 0.500000
O O12 0.250000 0.750000 0.704121
O O13 0.193626 0.635147 0.744066
O O14 0.659843 0.920744 0.500000
O O15 0.669884 0.000000 0.750000
#
# Coordination Sequence:
#
# PCOD8276490 Si02
#       5
#    16  16  16  16  16
#     4  11  21  34  52  76 108 145 183 223 270 322
#     4  10  20  35  54  78 107 140 180 223 269 320
#     4   9  19  32  49  75 106 141 178 214 254 304
#     4  10  21  38  60  84 108 137 176 221 271 325
#     4  10  21  37  56  80 110 143 179 219 265 315
#
# _framework density 18.644359999999999
#
# number of rings (size 3 to 8) (size 9 to 14) (size 15 to 20)
#    0.000    2.000    0.000    6.000    0.000    8.400 
#    0.000    3.000    0.000    4.800    0.000    0.000 
#    0.000    0.000    0.000    0.000    0.000    0.000 
#
# Total GULP energy -496090.404339 kJ/mol
# GULP energy per Si atom -12402.260108 kJ/mol
# Density = 1.860192 g / cm^3
# Si number density = 18.644360 Si / 1000 Ang^3
#
#
#
# Elastic Constant Matrix: (Units=GPa)
#
#
# Indices 1 2 3 4 5 6 
#
# 1 75.0406 42.4718 28.0678 0.0000 0.0000 0.0000
# 2 42.4718 133.0788 42.7901 0.0000 0.0000 0.0000
# 3 28.0678 42.7901 91.7844 0.0000 0.0000 0.0000
# 4 0.0000 0.0000 0.0000 30.1385 0.0000 0.0000
# 5 0.0000 0.0000 0.0000 0.0000 30.7216 0.0000
# 6 0.0000 0.0000 0.0000 0.0000 0.0000 17.3736
#
#
#
# Elastic Compliance Matrix: (Units=1/GPa)
#
#
# Indices 1 2 3 4 5 6 
#
# 1 0.017000 -0.004416 -0.003140 0.000000 0.000000 0.000000
# 2 -0.004416 0.009986 -0.003305 0.000000 0.000000 0.000000
# 3 -0.003140 -0.003305 0.013396 0.000000 0.000000 0.000000
# 4 0.000000 0.000000 0.000000 0.033180 0.000000 0.000000
# 5 0.000000 0.000000 0.000000 0.000000 0.032550 0.000000
# 6 0.000000 0.000000 0.000000 0.000000 0.000000 0.057559
#
#
# Mechanical properties :
#
#
# Convention : Reuss Voigt Hill
#
# Bulk Modulus (GPa) = 53.58953 58.50703 56.04828
# Shear Modulus (GPa) = 26.09410 28.08500 27.08955
#
# Velocity S-wave (km/s) = 3.74514 3.88539 3.81591
# Velocity P-wave (km/s) = 6.89252 7.18171 7.03860
#
# Compressibility (1/GPa) = 0.01866036
#
# Stress axis : x y z
#
# Youngs Moduli (GPa) = 58.82394 100.13560 74.64782
#
# Poissons Ratio (x) = 0.44219 0.23439
# Poissons Ratio (y) = 0.25976 0.24674
# Poissons Ratio (z) = 0.18470 0.33098
#
# Static dielectric constant tensor:
#      x y z
#    x 3.371430 0.000000 0.000000 
#    y 0.000000 3.496410 0.000000 
#    z 0.000000 0.000000 3.504650 
# 
# 
# High freq. dielectric constant tensor:
#      x y z
#    x 1.704190 0.000000 0.000000 
#    y 0.000000 1.727470 0.000000 
#    z 0.000000 0.000000 1.737310 
# 
# From -- ./inp_files/6674.got.cif
#   From: 2010.03.12/outbox.cif.g09.slc.cpg/sg66_4_cif.got.tgz:6674.got - 2010.04.10 21:57:39.
