data_PCOD8276884
_publ_section_title
;
Structure prediction by ZEFSAII (Michael W. Deem and Ramdas Pophale) SiO2 
 PCOD8276884
Probable space group: C C C M
;
_chemical_formula_sum "Si O2"
_cell_formula_units_Z 72
_cell_length_a 20.794361
_cell_length_b 21.155261
_cell_length_c 9.411945
_cell_angle_alpha 90.000000
_cell_angle_beta 90.000000
_cell_angle_gamma 90.000000
_cell_volume 4140.409989
_symmetry_space_group_name_H-M "C C C M"
_symmetry_group_IT_number 66
_symmetry_cell_setting 'orthorhombic'
loop_
_space_group_symop_operation_xyz
x,y,z
-x,-y,z
x,-y,1/2-z
-x,y,1/2-z
-x,-y,-z
x,y,-z
-x,y,1/2+z
x,-y,1/2+z
1/2+x,1/2+y,z
1/2-x,1/2-y,z
1/2+x,1/2-y,1/2-z
1/2-x,1/2+y,1/2-z
1/2-x,1/2-y,-z
1/2+x,1/2+y,-z
1/2-x,1/2+y,1/2+z
1/2+x,1/2-y,1/2+z
loop_
_atom_site_type_symbol
_atom_site_label
_atom_site_fract_x
_atom_site_fract_y
_atom_site_fract_z
Si Si1 0.702893 0.378951 0.660086
Si Si2 0.404992 0.442063 0.662192
Si Si3 0.000000 0.161574 0.750000
Si Si4 0.386376 0.259573 0.848900
Si Si5 0.797825 0.309217 0.840803
O O1 0.715302 0.405980 0.500000
O O2 0.660860 0.426850 0.754524
O O3 0.666892 0.313281 0.647637
O O4 0.769544 0.365656 0.743281
O O5 0.436973 0.500000 0.750000
O O6 0.389884 0.461895 0.500000
O O7 0.453956 0.382944 0.655147
O O8 0.956151 0.208390 0.659012
O O9 0.367473 0.211549 0.722670
O O10 0.383964 0.223089 0.000000
O O11 0.750000 0.250000 0.845413
O O12 0.809267 0.334866 0.000000
#
# Coordination Sequence:
#
# PCOD8276884 Si02
#       5
#    16  16   8  16  16
#     4   9  17  30  46  62  81 106 139 181 226 268
#     4  11  22  34  47  63  85 116 155 195 231 266
#     4  10  21  32  46  62  86 120 159 194 222 258
#     4   9  17  28  42  60  82 110 143 179 220 264
#     4   9  16  26  42  63  83 104 134 174 220 268
#
# _framework density 17.389581
#
# number of rings (size 3 to 8) (size 9 to 14) (size 15 to 20)
#    0.000    2.444    0.000    3.000    0.000   12.444 
#    0.000    0.000    0.000    0.000    0.000    0.000 
#    0.000    0.000    0.000    1.000    0.000   15.111 
#
# Total GULP energy -446036.701444 kJ/mol
# GULP energy per Si atom -12389.908373 kJ/mol
# Density = 1.735000 g / cm^3
# Si number density = 17.389581 Si / 1000 Ang^3
#
#
#
# Elastic Constant Matrix: (Units=GPa)
#
#
# Indices 1 2 3 4 5 6 
#
# 1 70.9102 37.3587 49.4927 0.0000 0.0000 0.0000
# 2 37.3587 26.6018 31.2984 0.0000 0.0000 0.0000
# 3 49.4927 31.2984 176.5459 0.0000 0.0000 0.0000
# 4 0.0000 0.0000 0.0000 22.6921 0.0000 0.0000
# 5 0.0000 0.0000 0.0000 0.0000 3.4881 0.0000
# 6 0.0000 0.0000 0.0000 0.0000 0.0000 19.1877
#
#
#
# Elastic Compliance Matrix: (Units=1/GPa)
#
#
# Indices 1 2 3 4 5 6 
#
# 1 0.054869 -0.074498 -0.002175 0.000000 0.000000 0.000000
# 2 -0.074498 0.148647 -0.005468 0.000000 0.000000 0.000000
# 3 -0.002175 -0.005468 0.007243 0.000000 0.000000 0.000000
# 4 0.000000 0.000000 0.000000 0.044068 0.000000 0.000000
# 5 0.000000 0.000000 0.000000 0.000000 0.286686 0.000000
# 6 0.000000 0.000000 0.000000 0.000000 0.000000 0.052117
#
#
# Mechanical properties :
#
#
# Convention : Reuss Voigt Hill
#
# Bulk Modulus (GPa) = 21.51525 56.70639 39.11082
# Shear Modulus (GPa) = 6.46493 19.46745 12.96619
#
# Velocity S-wave (km/s) = 1.93023 3.34951 2.73358
# Velocity P-wave (km/s) = 4.16738 6.90211 5.70115
#
# Compressibility (1/GPa) = 0.04647866
#
# Stress axis : x y z
#
# Youngs Moduli (GPa) = 18.22523 6.72735 138.05865
#
# Poissons Ratio (x) = 0.50117 0.30026
# Poissons Ratio (y) = 1.35773 0.75489
# Poissons Ratio (z) = 0.03964 0.03678
#
# Static dielectric constant tensor:
#      x y z
#    x 3.171890 0.000000 0.000000 
#    y 0.000000 2.859300 0.000000 
#    z 0.000000 0.000000 3.548690 
# 
# 
# High freq. dielectric constant tensor:
#      x y z
#    x 1.640760 0.000000 0.000000 
#    y 0.000000 1.610600 0.000000 
#    z 0.000000 0.000000 1.693340 
# 
# From -- ./inp_files/6579.got.cif
#   From: 2010.03.12/outbox.cif.g09.slc.cpg/sg66_4_cif.got.tgz:6579.got - 2010.04.10 21:57:39.
