data_PCOD8276525
_publ_section_title
;
Structure prediction by ZEFSAII (Michael W. Deem and Ramdas Pophale) SiO2 
 PCOD8276525
Probable space group: C C C M
;
_chemical_formula_sum "Si O2"
_cell_formula_units_Z 112
_cell_length_a 36.194293
_cell_length_b 10.558061
_cell_length_c 14.084971
_cell_angle_alpha 90.000000
_cell_angle_beta 90.000000
_cell_angle_gamma 90.000000
_cell_volume 5382.452697
_symmetry_space_group_name_H-M "C C C M"
_symmetry_group_IT_number 66
_symmetry_cell_setting 'orthorhombic'
loop_
_space_group_symop_operation_xyz
x,y,z
-x,-y,z
x,-y,1/2-z
-x,y,1/2-z
-x,-y,-z
x,y,-z
-x,y,1/2+z
x,-y,1/2+z
1/2+x,1/2+y,z
1/2-x,1/2-y,z
1/2+x,1/2-y,1/2-z
1/2-x,1/2+y,1/2-z
1/2-x,1/2-y,-z
1/2+x,1/2+y,-z
1/2-x,1/2+y,1/2+z
1/2+x,1/2-y,1/2+z
loop_
_atom_site_type_symbol
_atom_site_label
_atom_site_fract_x
_atom_site_fract_y
_atom_site_fract_z
Si Si1 0.389698 0.097992 0.607058
Si Si2 0.605885 0.522813 0.889792
Si Si3 0.027317 0.606140 0.889773
Si Si4 0.791001 0.299444 0.243503
Si Si5 0.136021 0.822084 0.767507
Si Si6 0.813835 0.503274 0.106892
Si Si7 0.527636 0.394582 0.889003
O O1 0.387572 0.158257 0.500000
O O2 0.431341 0.050173 0.625198
O O3 0.380956 0.196451 0.688865
O O4 0.358916 0.986181 0.614824
O O5 0.637241 0.429949 0.848762
O O6 0.610198 0.647993 0.824807
O O7 0.568178 0.448109 0.869295
O O8 0.611391 0.557451 0.000000
O O9 0.023265 0.750494 0.846580
O O10 0.000000 0.500000 0.842967
O O11 0.017497 0.617574 0.000000
O O12 0.750000 0.250000 0.236245
O O13 0.821170 0.190737 0.263234
O O14 0.801595 0.365433 0.144004
O O15 0.793093 0.393366 0.331942
O O16 0.800178 0.519662 0.000000
O O17 0.500000 0.500000 0.843470
O O18 0.519555 0.384996 0.000000
#
# Coordination Sequence:
#
# PCOD8276525 Si02
#       7
#    16  16  16  16  16  16  16
#     4   9  16  33  60  84 115 155 200 244 289 351
#     4  10  20  35  56  85 116 154 201 246 291 348
#     4   9  16  28  52  86 117 154 202 250 296 351
#     4  10  22  40  59  86 121 151 187 242 303 361
#     4  10  20  35  58  83 111 156 191 240 295 358
#     4   9  20  38  61  87 113 156 199 235 293 361
#     4   9  17  32  53  79 119 161 195 242 306 361
#
# _framework density 20.808357000000001
#
# number of rings (size 3 to 8) (size 9 to 14) (size 15 to 20)
#    0.000    2.571    1.429    0.429    0.000    4.000 
#    2.571    2.857    0.000    0.000    0.000    0.000 
#    0.000    0.571    0.000    0.000    0.000    0.000 
#
# Total GULP energy -693804.444965 kJ/mol
# GULP energy per Si atom -12389.365089 kJ/mol
# Density = 2.076100 g / cm^3
# Si number density = 20.808357 Si / 1000 Ang^3
#
#
#
# Elastic Constant Matrix: (Units=GPa)
#
#
# Indices 1 2 3 4 5 6 
#
# 1 144.1980 60.0115 33.2263 0.0000 0.0000 0.0000
# 2 60.0115 68.9656 9.8019 0.0000 0.0000 0.0000
# 3 33.2263 9.8019 91.6982 0.0000 0.0000 0.0000
# 4 0.0000 0.0000 0.0000 11.1103 0.0000 0.0000
# 5 0.0000 0.0000 0.0000 0.0000 19.0095 0.0000
# 6 0.0000 0.0000 0.0000 0.0000 0.0000 32.3423
#
#
#
# Elastic Compliance Matrix: (Units=1/GPa)
#
#
# Indices 1 2 3 4 5 6 
#
# 1 0.011734 -0.009754 -0.003209 0.000000 0.000000 0.000000
# 2 -0.009754 0.022832 0.001094 0.000000 0.000000 0.000000
# 3 -0.003209 0.001094 0.011951 0.000000 0.000000 0.000000
# 4 0.000000 0.000000 0.000000 0.090007 0.000000 0.000000
# 5 0.000000 0.000000 0.000000 0.000000 0.052605 0.000000
# 6 0.000000 0.000000 0.000000 0.000000 0.000000 0.030919
#
#
# Mechanical properties :
#
#
# Convention : Reuss Voigt Hill
#
# Bulk Modulus (GPa) = 43.90131 56.77121 50.33626
# Shear Modulus (GPa) = 19.89018 25.94723 22.91871
#
# Velocity S-wave (km/s) = 3.09508 3.53507 3.32236
# Velocity P-wave (km/s) = 5.82378 6.63358 6.24183
#
# Compressibility (1/GPa) = 0.02277836
#
# Stress axis : x y z
#
# Youngs Moduli (GPa) = 85.22384 43.79750 83.67371
#
# Poissons Ratio (x) = 0.42721 0.26851
# Poissons Ratio (y) = 0.83130 -0.09152
# Poissons Ratio (z) = 0.27348 -0.04790
#
# Static dielectric constant tensor:
#      x y z
#    x 3.814170 0.000000 0.000000 
#    y 0.000000 3.889500 0.000000 
#    z 0.000000 0.000000 3.692670 
# 
# 
# High freq. dielectric constant tensor:
#      x y z
#    x 1.806180 0.000000 0.000000 
#    y 0.000000 1.798510 0.000000 
#    z 0.000000 0.000000 1.809580 
# 
# From -- ./inp_files/33846.got.cif
#   From: 2010.03.12/outbox.cif.g09.slc.cpg/sg66_17_cif.got.tgz:33846.got - 2010.04.10 21:57:39.
