data_PCOD8276262
_publ_section_title
;
Structure prediction by ZEFSAII (Michael W. Deem and Ramdas Pophale) SiO2 
 PCOD8276262
Probable space group: C C C M
;
_chemical_formula_sum "Si O2"
_cell_formula_units_Z 92
_cell_length_a 25.921553
_cell_length_b 9.974962
_cell_length_c 23.131386
_cell_angle_alpha 90.000000
_cell_angle_beta 90.000000
_cell_angle_gamma 90.000000
_cell_volume 5981.001661
_symmetry_space_group_name_H-M "C C C M"
_symmetry_group_IT_number 66
_symmetry_cell_setting 'orthorhombic'
loop_
_space_group_symop_operation_xyz
x,y,z
-x,-y,z
x,-y,1/2-z
-x,y,1/2-z
-x,-y,-z
x,y,-z
-x,y,1/2+z
x,-y,1/2+z
1/2+x,1/2+y,z
1/2-x,1/2-y,z
1/2+x,1/2-y,1/2-z
1/2-x,1/2+y,1/2-z
1/2-x,1/2-y,-z
1/2+x,1/2+y,-z
1/2-x,1/2+y,1/2+z
1/2+x,1/2-y,1/2+z
loop_
_atom_site_type_symbol
_atom_site_label
_atom_site_fract_x
_atom_site_fract_y
_atom_site_fract_z
Si Si1 0.901635 0.117637 0.789313
Si Si2 0.845670 0.649171 0.763664
Si Si3 0.750000 0.250000 0.808613
Si Si4 0.500000 0.500000 0.750000
Si Si5 0.795114 0.355170 0.500000
Si Si6 0.822092 0.061540 0.120414
Si Si7 0.277365 0.609467 0.000000
Si Si8 0.310733 0.249414 0.118735
O O1 0.892352 0.258342 0.757999
O O2 0.875399 0.119240 0.852762
O O3 0.963474 0.091021 0.791701
O O4 0.875038 0.000000 0.750000
O O5 0.863088 0.500000 0.750000
O O6 0.793008 0.685480 0.731492
O O7 0.838529 0.663402 0.832155
O O8 0.773217 0.127790 0.846502
O O9 0.750000 0.250000 0.500000
O O10 0.769105 0.501493 0.500000
O O11 0.827620 0.323764 0.441637
O O12 0.827391 0.902584 0.124672
O O13 0.816041 0.098540 0.053712
O O14 0.250000 0.750000 0.000000
O O15 0.250000 0.250000 0.126664
#
# Coordination Sequence:
#
# PCOD8276262 Si02
#       8
#    16  16   8   4   8  16   8  16
#     4   9  19  34  56  73  92 126 168 209 282 316
#     4  11  21  29  47  76 103 131 169 215 251 303
#     4  10  22  27  42  69 102 142 166 198 246 292
#     4   8  16  40  58  74  92 128 162 228 278 334
#     4  10  20  28  42  60  84 145 175 189 227 279
#     4  11  19  32  46  71  96 136 174 204 240 309
#     4  12  22  32  44  67 106 144 175 208 246 286
#     4  11  17  29  44  59  95 134 175 201 230 283
#
# _framework density 15.382039000000001
#
# number of rings (size 3 to 8) (size 9 to 14) (size 15 to 20)
#    0.522    1.043    6.957    1.043    0.000    0.000 
#    0.000    0.435    0.000    0.522    0.000    0.000 
#    0.000    0.000    0.000   13.913    0.000    0.696 
#
# Total GULP energy -570072.356082 kJ/mol
# GULP energy per Si atom -12392.877306 kJ/mol
# Density = 1.534703 g / cm^3
# Si number density = 15.382039 Si / 1000 Ang^3
#
#
#
# Elastic Constant Matrix: (Units=GPa)
#
#
# Indices 1 2 3 4 5 6 
#
# 1 74.9302 26.9147 36.3233 0.0000 0.0000 0.0000
# 2 26.9147 118.6597 48.1699 0.0000 0.0000 0.0000
# 3 36.3233 48.1699 135.5425 0.0000 0.0000 0.0000
# 4 0.0000 0.0000 0.0000 23.5245 0.0000 0.0000
# 5 0.0000 0.0000 0.0000 0.0000 12.7521 0.0000
# 6 0.0000 0.0000 0.0000 0.0000 0.0000 18.9641
#
#
#
# Elastic Compliance Matrix: (Units=1/GPa)
#
#
# Indices 1 2 3 4 5 6 
#
# 1 0.015807 -0.002180 -0.003461 0.000000 0.000000 0.000000
# 2 -0.002180 0.010149 -0.003023 0.000000 0.000000 0.000000
# 3 -0.003461 -0.003023 0.009379 0.000000 0.000000 0.000000
# 4 0.000000 0.000000 0.000000 0.042509 0.000000 0.000000
# 5 0.000000 0.000000 0.000000 0.000000 0.078418 0.000000
# 6 0.000000 0.000000 0.000000 0.000000 0.000000 0.052731
#
#
# Mechanical properties :
#
#
# Convention : Reuss Voigt Hill
#
# Bulk Modulus (GPa) = 55.53302 61.32759 58.43030
# Shear Modulus (GPa) = 21.52168 25.56311 23.54239
#
# Velocity S-wave (km/s) = 3.74457 4.08104 3.91642
# Velocity P-wave (km/s) = 7.40788 7.88433 7.64981
#
# Compressibility (1/GPa) = 0.01800730
#
# Stress axis : x y z
#
# Youngs Moduli (GPa) = 63.26427 98.53194 106.61611
#
# Poissons Ratio (x) = 0.21483 0.36901
# Poissons Ratio (y) = 0.13793 0.32225
# Poissons Ratio (z) = 0.21896 0.29782
#
# Static dielectric constant tensor:
#      x y z
#    x 2.268980 0.000000 0.000000 
#    y 0.000000 3.087690 0.000000 
#    z 0.000000 0.000000 3.562980 
# 
# 
# High freq. dielectric constant tensor:
#      x y z
#    x 1.530960 0.000000 0.000000 
#    y 0.000000 1.601630 0.000000 
#    z 0.000000 0.000000 1.598710 
# 
# From -- ./inp_files/55838.got.cif
#   From: 2010.03.12/outbox.cif.g09.slc.cpg/sg66_28_cif.got.tgz:55838.got - 2010.04.10 21:57:39.
