data_PCOD8276798
_publ_section_title
;
Structure prediction by ZEFSAII (Michael W. Deem and Ramdas Pophale) SiO2 
 PCOD8276798
Probable space group: C C C M
;
_chemical_formula_sum "Si O2"
_cell_formula_units_Z 104
_cell_length_a 24.816551
_cell_length_b 10.038829
_cell_length_c 20.350300
_cell_angle_alpha 90.000000
_cell_angle_beta 90.000000
_cell_angle_gamma 90.000000
_cell_volume 5069.852165
_symmetry_space_group_name_H-M "C C C M"
_symmetry_group_IT_number 66
_symmetry_cell_setting 'orthorhombic'
loop_
_space_group_symop_operation_xyz
x,y,z
-x,-y,z
x,-y,1/2-z
-x,y,1/2-z
-x,-y,-z
x,y,-z
-x,y,1/2+z
x,-y,1/2+z
1/2+x,1/2+y,z
1/2-x,1/2-y,z
1/2+x,1/2-y,1/2-z
1/2-x,1/2+y,1/2-z
1/2-x,1/2-y,-z
1/2+x,1/2+y,-z
1/2-x,1/2+y,1/2+z
1/2+x,1/2-y,1/2+z
loop_
_atom_site_type_symbol
_atom_site_label
_atom_site_fract_x
_atom_site_fract_y
_atom_site_fract_z
Si Si1 0.363048 0.389963 0.693118
Si Si2 0.082911 0.740329 0.376739
Si Si3 0.750000 0.250000 0.631628
Si Si4 0.046296 0.707504 0.000000
Si Si5 0.528061 0.360240 0.874894
Si Si6 0.664339 0.445038 0.575925
Si Si7 0.572360 0.918323 0.000000
Si Si8 0.836922 0.649021 0.226304
O O1 0.354793 0.500000 0.750000
O O2 0.427583 0.369512 0.682669
O O3 0.331598 0.431033 0.626129
O O4 0.333306 0.253221 0.713518
O O5 0.107473 0.880158 0.401905
O O6 0.098894 0.634781 0.433290
O O7 0.108385 0.689794 0.309876
O O8 0.019883 0.755838 0.359166
O O9 0.713613 0.343003 0.585458
O O10 0.786262 0.342488 0.677978
O O11 0.058628 0.802483 0.938539
O O12 0.083294 0.576349 0.000000
O O13 0.987109 0.643957 0.000000
O O14 0.500000 0.500000 0.890344
O O15 0.662765 0.491472 0.500000
O O16 0.841658 0.500000 0.250000
#
# Coordination Sequence:
#
# PCOD8276798 Si02
#       8
#    16  16   8   8  16  16   8  16
#     4  12  24  42  62  96 134 170 215 269 327 387
#     4  10  20  38  61  90 125 173 215 264 319 394
#     4  10  23  44  74  94 121 172 218 272 349 412
#     4   9  21  32  54  84 118 173 218 255 315 385
#     4  11  21  35  60  88 129 173 220 263 325 387
#     4  11  22  41  68 100 128 164 223 284 330 398
#     4   9  18  36  56  79 125 165 211 267 314 366
#     4  11  26  43  66  94 128 170 218 271 337 403
#
# _framework density 20.513418000000001
#
# number of rings (size 3 to 8) (size 9 to 14) (size 15 to 20)
#    0.000    1.385    5.385    0.462    5.385    2.154 
#    0.000    0.769    0.000    0.923    0.000    0.000 
#    0.000    0.000    0.000    0.000    0.000    0.000 
#
# Total GULP energy -644648.476093 kJ/mol
# GULP energy per Si atom -12397.086079 kJ/mol
# Density = 2.046673 g / cm^3
# Si number density = 20.513418 Si / 1000 Ang^3
#
#
#
# Elastic Constant Matrix: (Units=GPa)
#
#
# Indices 1 2 3 4 5 6 
#
# 1 64.3240 -0.6230 19.8390 0.0000 0.0000 0.0000
# 2 -0.6230 107.0948 48.7088 0.0000 0.0000 0.0000
# 3 19.8390 48.7088 128.0434 0.0000 0.0000 0.0000
# 4 0.0000 0.0000 0.0000 -35.7670 0.0000 0.0000
# 5 0.0000 0.0000 0.0000 0.0000 8.1608 0.0000
# 6 0.0000 0.0000 0.0000 0.0000 0.0000 15.5095
#
#
#
# Elastic Compliance Matrix: (Units=1/GPa)
#
#
# Indices 1 2 3 4 5 6 
#
# 1 0.016530 0.001525 -0.003141 0.000000 0.000000 0.000000
# 2 0.001525 0.011432 -0.004585 0.000000 0.000000 0.000000
# 3 -0.003141 -0.004585 0.010041 0.000000 0.000000 0.000000
# 4 0.000000 0.000000 0.000000 -0.027959 0.000000 0.000000
# 5 0.000000 0.000000 0.000000 0.000000 0.122536 0.000000
# 6 0.000000 0.000000 0.000000 0.000000 0.000000 0.064477
#
#
# Mechanical properties :
#
#
# Convention : Reuss Voigt Hill
#
# Bulk Modulus (GPa) = 39.06306 48.36798 43.71552
# Shear Modulus (GPa) = 22.93655 13.01649 17.97652
#
# Velocity S-wave (km/s) = 3.34746 2.52173 2.96350
# Velocity P-wave (km/s) = 5.83307 5.66646 5.75037
#
# Compressibility (1/GPa) = 0.02559964
#
# Stress axis : x y z
#
# Youngs Moduli (GPa) = 60.49651 87.47581 99.59452
#
# Poissons Ratio (x) = -0.13339 0.31285
# Poissons Ratio (y) = -0.09225 0.45664
# Poissons Ratio (z) = 0.19003 0.40108
#
# Static dielectric constant tensor:
#      x y z
#    x 3.652780 0.000000 0.000000 
#    y 0.000000 3.729940 0.000000 
#    z 0.000000 0.000000 3.781840 
# 
# 
# High freq. dielectric constant tensor:
#      x y z
#    x 1.787160 0.000000 0.000000 
#    y 0.000000 1.793860 0.000000 
#    z 0.000000 0.000000 1.804820 
# 
# From -- ./inp_files/53097.got.cif
#   From: 2010.03.12/outbox.cif.g09.slc.cpg/sg66_27_cif.got.tgz:53097.got - 2010.04.10 21:57:39.
