data_PCOD8276039
_publ_section_title
;
Structure prediction by ZEFSAII (Michael W. Deem and Ramdas Pophale) SiO2 
 PCOD8276039
Probable space group: C C C M
;
_chemical_formula_sum "Si O2"
_cell_formula_units_Z 96
_cell_length_a 18.757872
_cell_length_b 28.746807
_cell_length_c 9.154561
_cell_angle_alpha 90.000000
_cell_angle_beta 90.000000
_cell_angle_gamma 90.000000
_cell_volume 4936.404097
_symmetry_space_group_name_H-M "C C C M"
_symmetry_group_IT_number 66
_symmetry_cell_setting 'orthorhombic'
loop_
_space_group_symop_operation_xyz
x,y,z
-x,-y,z
x,-y,1/2-z
-x,y,1/2-z
-x,-y,-z
x,y,-z
-x,y,1/2+z
x,-y,1/2+z
1/2+x,1/2+y,z
1/2-x,1/2-y,z
1/2+x,1/2-y,1/2-z
1/2-x,1/2+y,1/2-z
1/2-x,1/2-y,-z
1/2+x,1/2+y,-z
1/2-x,1/2+y,1/2+z
1/2+x,1/2-y,1/2+z
loop_
_atom_site_type_symbol
_atom_site_label
_atom_site_fract_x
_atom_site_fract_y
_atom_site_fract_z
Si Si1 0.391673 0.954215 0.831703
Si Si2 0.776444 0.046946 0.167665
Si Si3 0.318182 0.352630 0.670829
Si Si4 0.934691 0.365907 0.328686
Si Si5 0.671424 0.808210 0.332310
Si Si6 0.926064 0.220760 0.169271
O O1 0.307577 0.946344 0.817585
O O2 0.434924 0.916058 0.744055
O O3 0.415901 0.000000 0.750000
O O4 0.415598 0.954905 0.000000
O O5 0.808989 0.095070 0.237911
O O6 0.802664 0.000000 0.250000
O O7 0.799447 0.040373 0.000000
O O8 0.321020 0.361225 0.500000
O O9 0.255273 0.314624 0.701120
O O10 0.392009 0.328450 0.724013
O O11 0.946384 0.368058 0.500000
O O12 0.861577 0.341717 0.288209
O O13 0.000000 0.338103 0.250000
O O14 0.655141 0.823939 0.500000
O O15 0.637757 0.757654 0.303659
O O16 0.000000 0.232117 0.250000
O O17 0.945882 0.218730 0.000000
#
# Coordination Sequence:
#
# PCOD8276039 Si02
#       6
#    16  16  16  16  16  16
#     4  10  19  34  53  75 103 138 179 229 280 331
#     4   9  17  31  54  81 111 139 176 223 273 327
#     4   9  17  34  59  85 109 145 188 227 270 331
#     4  12  24  36  51  73 104 145 187 229 277 329
#     4  10  19  36  58  81 107 141 187 233 274 324
#     4  10  21  36  58  83 113 148 185 227 279 336
#
# _framework density 19.447354000000001
#
# number of rings (size 3 to 8) (size 9 to 14) (size 15 to 20)
#    0.000    2.000    1.667    3.000    0.000    5.000 
#    0.000    3.333    0.000    2.500    0.000    3.500 
#    0.000    0.000    0.000    0.000    0.000    0.000 
#
# Total GULP energy -594653.694832 kJ/mol
# GULP energy per Si atom -12388.618642 kJ/mol
# Density = 1.940309 g / cm^3
# Si number density = 19.447354 Si / 1000 Ang^3
#
#
#
# Elastic Constant Matrix: (Units=GPa)
#
#
# Indices 1 2 3 4 5 6 
#
# 1 64.9250 45.7313 29.8033 0.0000 0.0000 0.0000
# 2 45.7313 112.2787 39.4293 0.0000 0.0000 0.0000
# 3 29.8033 39.4293 103.7079 0.0000 0.0000 0.0000
# 4 0.0000 0.0000 0.0000 26.4545 0.0000 0.0000
# 5 0.0000 0.0000 0.0000 0.0000 10.6147 0.0000
# 6 0.0000 0.0000 0.0000 0.0000 0.0000 -0.5715
#
#
#
# Elastic Compliance Matrix: (Units=1/GPa)
#
#
# Indices 1 2 3 4 5 6 
#
# 1 0.022626 -0.008000 -0.003461 0.000000 0.000000 0.000000
# 2 -0.008000 0.013108 -0.002684 0.000000 0.000000 0.000000
# 3 -0.003461 -0.002684 0.011658 0.000000 0.000000 0.000000
# 4 0.000000 0.000000 0.000000 0.037801 0.000000 0.000000
# 5 0.000000 0.000000 0.000000 0.000000 0.094209 0.000000
# 6 0.000000 0.000000 0.000000 0.000000 0.000000 -1.749910
#
#
# Mechanical properties :
#
#
# Convention : Reuss Voigt Hill
#
# Bulk Modulus (GPa) = 52.35386 56.75992 54.55689
# Shear Modulus (GPa) = -3.25552 18.36274 7.55361
#
# Velocity S-wave (km/s) = -1.29524 3.07616 1.97296
# Velocity P-wave (km/s) = 4.97417 6.47046 5.77102
#
# Compressibility (1/GPa) = 0.01910079
#
# Stress axis : x y z
#
# Youngs Moduli (GPa) = 44.19655 76.29116 85.78160
#
# Poissons Ratio (x) = 0.61036 0.29685
# Poissons Ratio (y) = 0.35359 0.23027
# Poissons Ratio (z) = 0.15294 0.20479
#
# Static dielectric constant tensor:
#      x y z
#    x 3.459650 0.000000 0.000000 
#    y 0.000000 3.776490 0.000000 
#    z 0.000000 0.000000 3.327130 
# 
# 
# High freq. dielectric constant tensor:
#      x y z
#    x 1.737450 0.000000 0.000000 
#    y 0.000000 1.765840 0.000000 
#    z 0.000000 0.000000 1.731730 
# 
# From -- ./inp_files/7944.got.cif
#   From: 2010.03.12/outbox.cif.g09.slc.cpg/sg66_4_cif.got.tgz:7944.got - 2010.04.10 21:57:39.
