data_PCOD8276333
_publ_section_title
;
Structure prediction by ZEFSAII (Michael W. Deem and Ramdas Pophale) SiO2 
 PCOD8276333
Probable space group: C C C M
;
_chemical_formula_sum "Si O2"
_cell_formula_units_Z 80
_cell_length_a 17.361571
_cell_length_b 27.784476
_cell_length_c 8.738178
_cell_angle_alpha 90.000000
_cell_angle_beta 90.000000
_cell_angle_gamma 90.000000
_cell_volume 4215.141115
_symmetry_space_group_name_H-M "C C C M"
_symmetry_group_IT_number 66
_symmetry_cell_setting 'orthorhombic'
loop_
_space_group_symop_operation_xyz
x,y,z
-x,-y,z
x,-y,1/2-z
-x,y,1/2-z
-x,-y,-z
x,y,-z
-x,y,1/2+z
x,-y,1/2+z
1/2+x,1/2+y,z
1/2-x,1/2-y,z
1/2+x,1/2-y,1/2-z
1/2-x,1/2+y,1/2-z
1/2-x,1/2-y,-z
1/2+x,1/2+y,-z
1/2-x,1/2+y,1/2+z
1/2+x,1/2-y,1/2+z
loop_
_atom_site_type_symbol
_atom_site_label
_atom_site_fract_x
_atom_site_fract_y
_atom_site_fract_z
Si Si1 0.578052 0.398680 0.319656
Si Si2 0.690967 0.858736 0.678066
Si Si3 0.350840 0.692242 0.178233
Si Si4 0.583441 0.215095 0.680794
Si Si5 0.235081 0.948605 0.319829
O O1 0.500000 0.421398 0.250000
O O2 0.570731 0.392377 0.500000
O O3 0.589603 0.346568 0.244227
O O4 0.648031 0.433843 0.274689
O O5 0.673441 0.864756 0.500000
O O6 0.764276 0.824953 0.708220
O O7 0.617327 0.835338 0.759524
O O8 0.704570 0.911049 0.749892
O O9 0.360576 0.742218 0.265726
O O10 0.368115 0.699935 0.000000
O O11 0.500000 0.224029 0.750000
O O12 0.577895 0.214007 0.500000
O O13 0.246278 0.949938 0.500000
O O14 0.254193 0.000000 0.250000
#
# Coordination Sequence:
#
# PCOD8276333 Si02
#       5
#    16  16  16  16  16
#     4  10  20  33  50  75 109 146 184 224 267 315
#     4  10  21  38  59  82 109 141 179 223 269 319
#     4  10  20  35  55  79 110 147 184 220 262 314
#     4  12  24  37  55  80 112 146 181 221 266 317
#     4  10  21  37  57  80 105 138 180 225 273 323
#
# _framework density 18.979198
#
# number of rings (size 3 to 8) (size 9 to 14) (size 15 to 20)
#    0.000    1.600    0.000    5.400    0.000    7.600 
#    0.000    2.000    0.000    0.600    0.000    4.200 
#    0.000    0.000    0.000    0.000    0.000    0.000 
#
# Total GULP energy -496249.324474 kJ/mol
# GULP energy per Si atom -12406.233112 kJ/mol
# Density = 1.893600 g / cm^3
# Si number density = 18.979198 Si / 1000 Ang^3
#
#
#
# Elastic Constant Matrix: (Units=GPa)
#
#
# Indices 1 2 3 4 5 6 
#
# 1 36.5739 29.8268 27.3299 0.0000 0.0000 0.0000
# 2 29.8268 132.8208 55.2694 0.0000 0.0000 0.0000
# 3 27.3299 55.2694 121.6334 0.0000 0.0000 0.0000
# 4 0.0000 0.0000 0.0000 34.6493 0.0000 0.0000
# 5 0.0000 0.0000 0.0000 0.0000 27.8046 0.0000
# 6 0.0000 0.0000 0.0000 0.0000 0.0000 17.7524
#
#
#
# Elastic Compliance Matrix: (Units=1/GPa)
#
#
# Indices 1 2 3 4 5 6 
#
# 1 0.036206 -0.005852 -0.005476 0.000000 0.000000 0.000000
# 2 -0.005852 0.010230 -0.003334 0.000000 0.000000 0.000000
# 3 -0.005476 -0.003334 0.010967 0.000000 0.000000 0.000000
# 4 0.000000 0.000000 0.000000 0.028861 0.000000 0.000000
# 5 0.000000 0.000000 0.000000 0.000000 0.035965 0.000000
# 6 0.000000 0.000000 0.000000 0.000000 0.000000 0.056330
#
#
# Mechanical properties :
#
#
# Convention : Reuss Voigt Hill
#
# Bulk Modulus (GPa) = 35.61286 57.32004 46.46645
# Shear Modulus (GPa) = 23.01568 27.94806 25.48187
#
# Velocity S-wave (km/s) = 3.48613 3.84156 3.66815
# Velocity P-wave (km/s) = 5.91684 7.06710 6.51740
#
# Compressibility (1/GPa) = 0.02807975
#
# Stress axis : x y z
#
# Youngs Moduli (GPa) = 27.61946 97.74891 91.18522
#
# Poissons Ratio (x) = 0.57202 0.49935
# Poissons Ratio (y) = 0.16163 0.30398
# Poissons Ratio (z) = 0.15125 0.32587
#
# Static dielectric constant tensor:
#      x y z
#    x 3.374410 0.000000 0.000000 
#    y 0.000000 3.415450 0.000000 
#    z 0.000000 0.000000 3.581080 
# 
# 
# High freq. dielectric constant tensor:
#      x y z
#    x 1.723430 0.000000 0.000000 
#    y 0.000000 1.730540 0.000000 
#    z 0.000000 0.000000 1.756700 
# 
# From -- ./inp_files/6640.got.cif
#   From: 2010.03.12/outbox.cif.g09.slc.cpg/sg66_4_cif.got.tgz:6640.got - 2010.04.10 21:57:39.
