data_PCOD8276761
_publ_section_title
;
Structure prediction by ZEFSAII (Michael W. Deem and Ramdas Pophale) SiO2 
 PCOD8276761
Probable space group: C C C M
;
_chemical_formula_sum "Si O2"
_cell_formula_units_Z 88
_cell_length_a 11.334485
_cell_length_b 16.251346
_cell_length_c 23.539263
_cell_angle_alpha 90.000000
_cell_angle_beta 90.000000
_cell_angle_gamma 90.000000
_cell_volume 4335.947250
_symmetry_space_group_name_H-M "C C C M"
_symmetry_group_IT_number 66
_symmetry_cell_setting 'orthorhombic'
loop_
_space_group_symop_operation_xyz
x,y,z
-x,-y,z
x,-y,1/2-z
-x,y,1/2-z
-x,-y,-z
x,y,-z
-x,y,1/2+z
x,-y,1/2+z
1/2+x,1/2+y,z
1/2-x,1/2-y,z
1/2+x,1/2-y,1/2-z
1/2-x,1/2+y,1/2-z
1/2-x,1/2-y,-z
1/2+x,1/2+y,-z
1/2-x,1/2+y,1/2+z
1/2+x,1/2-y,1/2+z
loop_
_atom_site_type_symbol
_atom_site_label
_atom_site_fract_x
_atom_site_fract_y
_atom_site_fract_z
Si Si1 0.750000 0.250000 0.289691
Si Si2 0.605855 0.356287 0.789252
Si Si3 0.534768 0.765683 0.134070
Si Si4 0.432417 0.612965 0.435856
Si Si5 0.330462 0.455546 0.606166
Si Si6 0.929645 0.417085 0.065933
O O1 0.709902 0.326064 0.251112
O O2 0.644616 0.210797 0.326373
O O3 0.500000 0.390102 0.750000
O O4 0.564470 0.280173 0.828696
O O5 0.655297 0.429928 0.828060
O O6 0.584131 0.705509 0.085340
O O7 0.481306 0.846222 0.105645
O O8 0.387547 0.606680 0.500000
O O9 0.569384 0.587390 0.432181
O O10 0.349518 0.553955 0.397435
O O11 0.206393 0.428994 0.580883
O O12 0.000000 0.500000 0.079268
O O13 0.942255 0.391821 0.000000
#
# Coordination Sequence:
#
# PCOD8276761 Si02
#       6
#     8  16  16  16  16  16
#     4  10  20  38  61  84 121 164 204 262 300 364
#     4   9  19  38  64  90 117 155 201 256 304 357
#     4  10  22  38  62  89 121 160 212 250 315 374
#     4  10  20  37  63  94 122 155 201 258 312 369
#     4  10  20  38  63  90 124 158 200 256 313 369
#     4  11  24  40  59  87 126 167 204 250 310 377
#
# _framework density 20.295449999999999
#
# number of rings (size 3 to 8) (size 9 to 14) (size 15 to 20)
#    0.000    2.000    0.000    3.818    2.545    2.182 
#    0.000   20.909    4.000    3.818    0.000    0.000 
#    0.000    0.000    0.000    0.000    0.000    0.000 
#
# Total GULP energy -545691.324160 kJ/mol
# GULP energy per Si atom -12402.075549 kJ/mol
# Density = 2.024926 g / cm^3
# Si number density = 20.295450 Si / 1000 Ang^3
#
#
#
# Elastic Constant Matrix: (Units=GPa)
#
#
# Indices 1 2 3 4 5 6 
#
# 1 104.2154 55.5087 61.9016 0.0000 0.0000 0.0000
# 2 55.5087 116.0993 65.8889 0.0000 0.0000 0.0000
# 3 61.9016 65.8889 127.3360 0.0000 0.0000 0.0000
# 4 0.0000 0.0000 0.0000 34.1932 0.0000 0.0000
# 5 0.0000 0.0000 0.0000 0.0000 30.1470 0.0000
# 6 0.0000 0.0000 0.0000 0.0000 0.0000 21.2485
#
#
#
# Elastic Compliance Matrix: (Units=1/GPa)
#
#
# Indices 1 2 3 4 5 6 
#
# 1 0.014836 -0.004248 -0.005015 0.000000 0.000000 0.000000
# 2 -0.004248 0.013410 -0.004874 0.000000 0.000000 0.000000
# 3 -0.005015 -0.004874 0.012813 0.000000 0.000000 0.000000
# 4 0.000000 0.000000 0.000000 0.029246 0.000000 0.000000
# 5 0.000000 0.000000 0.000000 0.000000 0.033171 0.000000
# 6 0.000000 0.000000 0.000000 0.000000 0.000000 0.047062
#
#
# Mechanical properties :
#
#
# Convention : Reuss Voigt Hill
#
# Bulk Modulus (GPa) = 78.20334 79.36103 78.78218
# Shear Modulus (GPa) = 27.31142 28.07449 27.69296
#
# Velocity S-wave (km/s) = 3.67235 3.72330 3.69791
# Velocity P-wave (km/s) = 7.52314 7.59419 7.55875
#
# Compressibility (1/GPa) = 0.01278718
#
# Stress axis : x y z
#
# Youngs Moduli (GPa) = 67.40145 74.56905 78.04558
#
# Poissons Ratio (x) = 0.31675 0.39136
# Poissons Ratio (y) = 0.28630 0.38041
# Poissons Ratio (z) = 0.33798 0.36346
#
# Static dielectric constant tensor:
#      x y z
#    x 3.718670 0.000000 0.000000 
#    y 0.000000 3.556020 0.000000 
#    z 0.000000 0.000000 3.874100 
# 
# 
# High freq. dielectric constant tensor:
#      x y z
#    x 1.790300 0.000000 0.000000 
#    y 0.000000 1.781110 0.000000 
#    z 0.000000 0.000000 1.806470 
# 
# From -- ./inp_files/56743.got.cif
#   From: 2010.03.12/outbox.cif.g09.slc.cpg/sg66_29_cif.got.tgz:56743.got - 2010.04.10 21:57:39.
