data_PCOD8276605
_publ_section_title
;
Structure prediction by ZEFSAII (Michael W. Deem and Ramdas Pophale) SiO2 
 PCOD8276605
Probable space group: C C C M
;
_chemical_formula_sum "Si O2"
_cell_formula_units_Z 64
_cell_length_a 16.199601
_cell_length_b 12.311510
_cell_length_c 17.383972
_cell_angle_alpha 90.000000
_cell_angle_beta 90.000000
_cell_angle_gamma 90.000000
_cell_volume 3467.086316
_symmetry_space_group_name_H-M "C C C M"
_symmetry_group_IT_number 66
_symmetry_cell_setting 'orthorhombic'
loop_
_space_group_symop_operation_xyz
x,y,z
-x,-y,z
x,-y,1/2-z
-x,y,1/2-z
-x,-y,-z
x,y,-z
-x,y,1/2+z
x,-y,1/2+z
1/2+x,1/2+y,z
1/2-x,1/2-y,z
1/2+x,1/2-y,1/2-z
1/2-x,1/2+y,1/2-z
1/2-x,1/2-y,-z
1/2+x,1/2+y,-z
1/2-x,1/2+y,1/2+z
1/2+x,1/2-y,1/2+z
loop_
_atom_site_type_symbol
_atom_site_label
_atom_site_fract_x
_atom_site_fract_y
_atom_site_fract_z
Si Si1 0.880996 0.240420 0.590838
Si Si2 0.260760 0.916470 0.590595
Si Si3 0.977615 0.881776 0.661135
Si Si4 0.302569 0.355797 0.409871
O O1 0.888804 0.238380 0.500000
O O2 0.819418 0.146872 0.622343
O O3 0.845080 0.357590 0.619885
O O4 0.971035 0.216713 0.623990
O O5 0.259404 0.902679 0.500000
O O6 0.255387 0.042365 0.614367
O O7 0.882509 0.855567 0.644148
O O8 0.000000 0.883381 0.750000
O O9 0.000000 0.000000 0.624850
O O10 0.328039 0.362068 0.500000
O O11 0.250000 0.250000 0.391324
#
# Coordination Sequence:
#
# PCOD8276605 Si02
#       4
#    16  16  16  16
#     4   9  16  30  55  79 101 133 175 222 258 303
#     4   8  15  29  52  82 103 127 172 216 263 310
#     4  11  22  35  50  80 110 140 180 219 266 318
#     4  10  20  36  57  80 109 142 177 222 272 318
#
# _framework density 18.459302999999998
#
# number of rings (size 3 to 8) (size 9 to 14) (size 15 to 20)
#    0.000    2.500    2.500    2.250    0.000    1.000 
#    4.500    1.250    0.000    7.500    0.000    0.000 
#    0.000    0.000    0.000    0.000    0.000    0.000 
#
# Total GULP energy -396568.634432 kJ/mol
# GULP energy per Si atom -12392.769826 kJ/mol
# Density = 1.841729 g / cm^3
# Si number density = 18.459303 Si / 1000 Ang^3
#
#
#
# Elastic Constant Matrix: (Units=GPa)
#
#
# Indices 1 2 3 4 5 6 
#
# 1 118.3894 79.8777 38.2660 0.0000 0.0000 0.0000
# 2 79.8777 154.6232 35.1516 0.0000 0.0000 0.0000
# 3 38.2660 35.1516 42.5093 0.0000 0.0000 0.0000
# 4 0.0000 0.0000 0.0000 1.9908 0.0000 0.0000
# 5 0.0000 0.0000 0.0000 0.0000 22.7555 0.0000
# 6 0.0000 0.0000 0.0000 0.0000 0.0000 33.3466
#
#
#
# Elastic Compliance Matrix: (Units=1/GPa)
#
#
# Indices 1 2 3 4 5 6 
#
# 1 0.015288 -0.005873 -0.008905 0.000000 0.000000 0.000000
# 2 -0.005873 0.010221 -0.003165 0.000000 0.000000 0.000000
# 3 -0.008905 -0.003165 0.034158 0.000000 0.000000 0.000000
# 4 0.000000 0.000000 0.000000 0.502321 0.000000 0.000000
# 5 0.000000 0.000000 0.000000 0.000000 0.043945 0.000000
# 6 0.000000 0.000000 0.000000 0.000000 0.000000 0.029988
#
#
# Mechanical properties :
#
#
# Convention : Reuss Voigt Hill
#
# Bulk Modulus (GPa) = 42.05241 69.12361 55.58801
# Shear Modulus (GPa) = 7.35582 22.43367 14.89475
#
# Velocity S-wave (km/s) = 1.99838 3.48990 2.84367
# Velocity P-wave (km/s) = 5.30616 7.33260 6.40009
#
# Compressibility (1/GPa) = 0.02377985
#
# Stress axis : x y z
#
# Youngs Moduli (GPa) = 65.41259 97.83936 29.27605
#
# Poissons Ratio (x) = 0.57461 0.26071
# Poissons Ratio (y) = 0.38417 0.09266
# Poissons Ratio (z) = 0.58250 0.30966
#
# Static dielectric constant tensor:
#      x y z
#    x 3.401940 0.000000 0.000000 
#    y 0.000000 3.808460 0.000000 
#    z 0.000000 0.000000 3.014100 
# 
# 
# High freq. dielectric constant tensor:
#      x y z
#    x 1.705580 0.000000 0.000000 
#    y 0.000000 1.716250 0.000000 
#    z 0.000000 0.000000 1.680990 
# 
# From -- ./inp_files/25735.got.cif
#   From: 2010.03.12/outbox.cif.g09.slc.cpg/sg66_13_cif.got.tgz:25735.got - 2010.04.10 21:57:39.
