data_PCOD8276380
_publ_section_title
;
Structure prediction by ZEFSAII (Michael W. Deem and Ramdas Pophale) SiO2 
 PCOD8276380
Probable space group: C C C M
;
_chemical_formula_sum "Si O2"
_cell_formula_units_Z 112
_cell_length_a 13.180197
_cell_length_b 28.597956
_cell_length_c 15.267968
_cell_angle_alpha 90.000000
_cell_angle_beta 90.000000
_cell_angle_gamma 90.000000
_cell_volume 5754.904700
_symmetry_space_group_name_H-M "C C C M"
_symmetry_group_IT_number 66
_symmetry_cell_setting 'orthorhombic'
loop_
_space_group_symop_operation_xyz
x,y,z
-x,-y,z
x,-y,1/2-z
-x,y,1/2-z
-x,-y,-z
x,y,-z
-x,y,1/2+z
x,-y,1/2+z
1/2+x,1/2+y,z
1/2-x,1/2-y,z
1/2+x,1/2-y,1/2-z
1/2-x,1/2+y,1/2-z
1/2-x,1/2-y,-z
1/2+x,1/2+y,-z
1/2-x,1/2+y,1/2+z
1/2+x,1/2-y,1/2+z
loop_
_atom_site_type_symbol
_atom_site_label
_atom_site_fract_x
_atom_site_fract_y
_atom_site_fract_z
Si Si1 0.097518 0.857560 0.705187
Si Si2 0.120376 0.553155 0.251187
Si Si3 0.289414 0.299668 0.654488
Si Si4 0.362359 0.123411 0.600662
Si Si5 0.002353 0.224286 0.902739
Si Si6 0.225789 0.607720 0.397962
Si Si7 0.445122 0.823731 0.600974
O O1 0.177683 0.836390 0.772095
O O2 0.051511 0.814801 0.654463
O O3 0.159119 0.890980 0.639009
O O4 0.000000 0.884053 0.750000
O O5 0.158744 0.500000 0.250000
O O6 0.169387 0.582237 0.168928
O O7 0.160962 0.570560 0.344574
O O8 0.000000 0.555688 0.250000
O O9 0.250000 0.250000 0.693210
O O10 0.206164 0.329610 0.601547
O O11 0.381969 0.284415 0.592086
O O12 0.362573 0.104198 0.500000
O O13 0.474082 0.138272 0.635817
O O14 0.035246 0.273085 0.855755
O O15 0.048081 0.221345 0.000000
O O16 0.227703 0.593346 0.500000
O O17 0.169749 0.658144 0.384673
O O18 0.472532 0.817048 0.500000
#
# Coordination Sequence:
#
# PCOD8276380 Si02
#       7
#    16  16  16  16  16  16  16
#     4  10  23  37  53  82 115 157 205 252 303 351
#     4  11  24  41  64  94 126 159 197 249 310 372
#     4  11  21  33  54  83 120 164 207 248 295 351
#     4  11  21  37  59  87 124 164 204 250 299 356
#     4  10  20  34  50  79 118 159 208 250 290 346
#     4  11  22  40  64  88 119 162 205 253 314 371
#     4   9  19  32  52  83 122 163 203 244 290 350
#
# _framework density 19.461659999999998
#
# number of rings (size 3 to 8) (size 9 to 14) (size 15 to 20)
#    0.000    1.571    4.286    0.857    2.000    1.143 
#    2.571    3.571    0.000    0.429    0.000    1.000 
#    0.000    0.000    0.000    0.000    0.000    0.000 
#
# Total GULP energy -693955.072538 kJ/mol
# GULP energy per Si atom -12392.054867 kJ/mol
# Density = 1.941736 g / cm^3
# Si number density = 19.461660 Si / 1000 Ang^3
#
#
#
# Elastic Constant Matrix: (Units=GPa)
#
#
# Indices 1 2 3 4 5 6 
#
# 1 93.6315 32.1822 38.6300 0.0000 0.0000 0.0000
# 2 32.1822 85.2107 31.9098 0.0000 0.0000 0.0000
# 3 38.6300 31.9098 100.2719 0.0000 0.0000 0.0000
# 4 0.0000 0.0000 0.0000 34.7276 0.0000 0.0000
# 5 0.0000 0.0000 0.0000 0.0000 22.5955 0.0000
# 6 0.0000 0.0000 0.0000 0.0000 0.0000 13.9133
#
#
#
# Elastic Compliance Matrix: (Units=1/GPa)
#
#
# Indices 1 2 3 4 5 6 
#
# 1 0.013609 -0.003606 -0.004095 0.000000 0.000000 0.000000
# 2 -0.003606 0.014279 -0.003155 0.000000 0.000000 0.000000
# 3 -0.004095 -0.003155 0.012555 0.000000 0.000000 0.000000
# 4 0.000000 0.000000 0.000000 0.028796 0.000000 0.000000
# 5 0.000000 0.000000 0.000000 0.000000 0.044257 0.000000
# 6 0.000000 0.000000 0.000000 0.000000 0.000000 0.071874
#
#
# Mechanical properties :
#
#
# Convention : Reuss Voigt Hill
#
# Bulk Modulus (GPa) = 53.38991 53.83978 53.61484
# Shear Modulus (GPa) = 23.43843 26.00675 24.72259
#
# Velocity S-wave (km/s) = 3.47412 3.65952 3.56803
# Velocity P-wave (km/s) = 6.60194 6.75135 6.67706
#
# Compressibility (1/GPa) = 0.01873013
#
# Stress axis : x y z
#
# Youngs Moduli (GPa) = 73.47894 70.03281 79.65219
#
# Poissons Ratio (x) = 0.25256 0.32621
# Poissons Ratio (y) = 0.26499 0.25128
# Poissons Ratio (z) = 0.30092 0.22093
#
# Static dielectric constant tensor:
#      x y z
#    x 4.734310 0.000000 0.000000 
#    y 0.000000 3.345900 0.000000 
#    z 0.000000 0.000000 2.851960 
# 
# 
# High freq. dielectric constant tensor:
#      x y z
#    x 1.756170 0.000000 0.000000 
#    y 0.000000 1.722250 0.000000 
#    z 0.000000 0.000000 1.762890 
# 
# From -- ./inp_files/26987.got.cif
#   From: 2010.03.12/outbox.cif.g09.slc.cpg/sg66_14_cif.got.tgz:26987.got - 2010.04.10 21:57:39.
