data_PCOD8276349
_publ_section_title
;
Structure prediction by ZEFSAII (Michael W. Deem and Ramdas Pophale) SiO2 
 PCOD8276349
Probable space group: C C C M
;
_chemical_formula_sum "Si O2"
_cell_formula_units_Z 80
_cell_length_a 25.481020
_cell_length_b 19.602661
_cell_length_c 8.701072
_cell_angle_alpha 90.000000
_cell_angle_beta 90.000000
_cell_angle_gamma 90.000000
_cell_volume 4346.148893
_symmetry_space_group_name_H-M "C C C M"
_symmetry_group_IT_number 66
_symmetry_cell_setting 'orthorhombic'
loop_
_space_group_symop_operation_xyz
x,y,z
-x,-y,z
x,-y,1/2-z
-x,y,1/2-z
-x,-y,-z
x,y,-z
-x,y,1/2+z
x,-y,1/2+z
1/2+x,1/2+y,z
1/2-x,1/2-y,z
1/2+x,1/2-y,1/2-z
1/2-x,1/2+y,1/2-z
1/2-x,1/2-y,-z
1/2+x,1/2+y,-z
1/2-x,1/2+y,1/2+z
1/2+x,1/2-y,1/2+z
loop_
_atom_site_type_symbol
_atom_site_label
_atom_site_fract_x
_atom_site_fract_y
_atom_site_fract_z
Si Si1 0.754050 0.169324 0.330871
Si Si2 0.444763 0.572252 0.819065
Si Si3 0.142215 0.818248 0.821617
Si Si4 0.055816 0.428146 0.681011
Si Si5 0.138410 0.328108 0.819316
O O1 0.766945 0.139323 0.500000
O O2 0.750000 0.250000 0.342380
O O3 0.800564 0.148683 0.214684
O O4 0.696662 0.143788 0.275110
O O5 0.427288 0.500000 0.750000
O O6 0.500000 0.596907 0.750000
O O7 0.401373 0.627364 0.773485
O O8 0.450769 0.564243 0.000000
O O9 0.132022 0.751211 0.721666
O O10 0.139454 0.799104 0.000000
O O11 0.074859 0.500000 0.750000
O O12 0.050093 0.435692 0.500000
O O13 0.097465 0.370447 0.720632
O O14 0.000000 0.406172 0.750000
O O15 0.127736 0.337069 0.000000
#
# Coordination Sequence:
#
# PCOD8276349 Si02
#       5
#    16  16  16  16  16
#     4   8  16  31  51  75 104 138 172 210 260 311
#     4  10  21  36  54  75 101 135 173 212 259 311
#     4  10  20  33  52  80 108 136 174 218 263 312
#     4  11  22  38  58  79 106 140 176 215 262 313
#     4  10  20  35  55  80 108 139 176 216 259 308
#
# _framework density 18.407101000000001
#
# number of rings (size 3 to 8) (size 9 to 14) (size 15 to 20)
#    0.000    2.200    0.000    6.000    0.000    8.400 
#    0.000    3.000    0.000    2.400    0.000    0.000 
#    0.000    0.000    0.000    0.000    0.000    0.000 
#
# Total GULP energy -495950.607130 kJ/mol
# GULP energy per Si atom -12398.765178 kJ/mol
# Density = 1.836521 g / cm^3
# Si number density = 18.407101 Si / 1000 Ang^3
#
#
#
# Elastic Constant Matrix: (Units=GPa)
#
#
# Indices 1 2 3 4 5 6 
#
# 1 133.9290 65.4820 54.2945 0.0000 0.0000 0.0000
# 2 65.4820 67.8774 36.9340 0.0000 0.0000 0.0000
# 3 54.2945 36.9340 105.4268 0.0000 0.0000 0.0000
# 4 0.0000 0.0000 0.0000 11.5264 0.0000 0.0000
# 5 0.0000 0.0000 0.0000 0.0000 34.8705 0.0000
# 6 0.0000 0.0000 0.0000 0.0000 0.0000 -8.5091
#
#
#
# Elastic Compliance Matrix: (Units=1/GPa)
#
#
# Indices 1 2 3 4 5 6 
#
# 1 0.014998 -0.012684 -0.003280 0.000000 0.000000 0.000000
# 2 -0.012684 0.028929 -0.003602 0.000000 0.000000 0.000000
# 3 -0.003280 -0.003602 0.012437 0.000000 0.000000 0.000000
# 4 0.000000 0.000000 0.000000 0.086758 0.000000 0.000000
# 5 0.000000 0.000000 0.000000 0.000000 0.028678 0.000000
# 6 0.000000 0.000000 0.000000 0.000000 0.000000 -0.117522
#
#
# Mechanical properties :
#
#
# Convention : Reuss Voigt Hill
#
# Bulk Modulus (GPa) = 58.03772 68.96158 63.49965
# Shear Modulus (GPa) = 50.42664 17.61241 34.01952
#
# Velocity S-wave (km/s) = 5.23972 3.09662 4.30370
# Velocity P-wave (km/s) = 8.25862 7.09446 7.69858
#
# Compressibility (1/GPa) = 0.01723017
#
# Stress axis : x y z
#
# Youngs Moduli (GPa) = 66.67549 34.56760 80.40694
#
# Poissons Ratio (x) = 0.43845 0.26377
# Poissons Ratio (y) = 0.84570 0.28966
# Poissons Ratio (z) = 0.21873 0.12453
#
# Static dielectric constant tensor:
#      x y z
#    x 3.786730 0.000000 0.000000 
#    y 0.000000 3.129630 0.000000 
#    z 0.000000 0.000000 3.469360 
# 
# 
# High freq. dielectric constant tensor:
#      x y z
#    x 1.727210 0.000000 0.000000 
#    y 0.000000 1.685220 0.000000 
#    z 0.000000 0.000000 1.726440 
# 
# From -- ./inp_files/10068.got.cif
#   From: 2010.03.12/outbox.cif.g09.slc.cpg/sg66_6_cif.got.tgz:10068.got - 2010.04.10 21:57:39.
