data_PCOD8276285
_publ_section_title
;
Structure prediction by ZEFSAII (Michael W. Deem and Ramdas Pophale) SiO2 
 PCOD8276285
Probable space group: C C C M
;
_chemical_formula_sum "Si O2"
_cell_formula_units_Z 100
_cell_length_a 16.490066
_cell_length_b 16.508239
_cell_length_c 24.032930
_cell_angle_alpha 90.000000
_cell_angle_beta 90.000000
_cell_angle_gamma 90.000000
_cell_volume 6542.291085
_symmetry_space_group_name_H-M "C C C M"
_symmetry_group_IT_number 66
_symmetry_cell_setting 'orthorhombic'
loop_
_space_group_symop_operation_xyz
x,y,z
-x,-y,z
x,-y,1/2-z
-x,y,1/2-z
-x,-y,-z
x,y,-z
-x,y,1/2+z
x,-y,1/2+z
1/2+x,1/2+y,z
1/2-x,1/2-y,z
1/2+x,1/2-y,1/2-z
1/2-x,1/2+y,1/2-z
1/2-x,1/2-y,-z
1/2+x,1/2+y,-z
1/2-x,1/2+y,1/2+z
1/2+x,1/2-y,1/2+z
loop_
_atom_site_type_symbol
_atom_site_label
_atom_site_fract_x
_atom_site_fract_y
_atom_site_fract_z
Si Si1 0.099416 0.406298 0.560298
Si Si2 0.772399 0.091818 0.251235
Si Si3 0.408053 0.088873 0.938813
Si Si4 0.000000 0.500000 0.250000
Si Si5 0.590807 0.721774 0.750530
Si Si6 0.617582 0.877709 0.817214
Si Si7 0.816376 0.312836 0.158155
O O1 0.125106 0.371323 0.500000
O O2 0.127961 0.498617 0.565417
O O3 0.140233 0.351877 0.606363
O O4 0.003855 0.406811 0.566161
O O5 0.848403 0.148999 0.264281
O O6 0.708250 0.099231 0.300545
O O7 0.727143 0.117672 0.194466
O O8 0.804440 0.000000 0.250000
O O9 0.376708 0.132976 0.883819
O O10 0.381837 0.125234 0.000000
O O11 0.054891 0.444501 0.208756
O O12 0.500000 0.685881 0.750000
O O13 0.593151 0.788658 0.798297
O O14 0.615431 0.765440 0.693126
O O15 0.750000 0.250000 0.135828
#
# Coordination Sequence:
#
# PCOD8276285 Si02
#       7
#    16  16  16   4  16  16  16
#     4   9  16  26  40  62  92 123 149 172 211 271
#     4  10  20  32  47  67  92 121 152 192 235 276
#     4   9  18  27  41  64  92 125 152 180 214 263
#     4  12  20  24  50  80  92 128 148 186 228 284
#     4  10  20  32  47  67  92 121 152 192 235 276
#     4  11  19  30  47  73  98 119 158 185 230 272
#     4   9  18  30  44  66  92 113 140 187 233 269
#
# _framework density 15.285164999999999
#
# number of rings (size 3 to 8) (size 9 to 14) (size 15 to 20)
#    0.000    2.240    1.600    5.280    4.480    0.640 
#    0.000    0.000    0.000    1.920    0.000    0.000 
#    0.000    0.000    0.000   27.520    0.000    0.000 
#
# Total GULP energy -619548.195820 kJ/mol
# GULP energy per Si atom -12390.963916 kJ/mol
# Density = 1.525038 g / cm^3
# Si number density = 15.285165 Si / 1000 Ang^3
#
#
#
# Elastic Constant Matrix: (Units=GPa)
#
#
# Indices 1 2 3 4 5 6 
#
# 1 91.6545 47.8475 43.9676 0.0000 0.0000 0.0000
# 2 47.8475 83.1439 40.7418 0.0000 0.0000 0.0000
# 3 43.9676 40.7418 130.5978 0.0000 0.0000 0.0000
# 4 0.0000 0.0000 0.0000 9.6129 0.0000 0.0000
# 5 0.0000 0.0000 0.0000 0.0000 14.8381 0.0000
# 6 0.0000 0.0000 0.0000 0.0000 0.0000 27.1186
#
#
#
# Elastic Compliance Matrix: (Units=1/GPa)
#
#
# Indices 1 2 3 4 5 6 
#
# 1 0.016580 -0.008035 -0.003075 0.000000 0.000000 0.000000
# 2 -0.008035 0.018091 -0.002939 0.000000 0.000000 0.000000
# 3 -0.003075 -0.002939 0.009609 0.000000 0.000000 0.000000
# 4 0.000000 0.000000 0.000000 0.104027 0.000000 0.000000
# 5 0.000000 0.000000 0.000000 0.000000 0.067394 0.000000
# 6 0.000000 0.000000 0.000000 0.000000 0.000000 0.036875
#
#
# Mechanical properties :
#
#
# Convention : Reuss Voigt Hill
#
# Bulk Modulus (GPa) = 61.79339 63.38999 62.59169
# Shear Modulus (GPa) = 17.47833 21.83655 19.65744
#
# Velocity S-wave (km/s) = 3.38521 3.78380 3.59004
# Velocity P-wave (km/s) = 7.46956 7.78788 7.63038
#
# Compressibility (1/GPa) = 0.01618296
#
# Stress axis : x y z
#
# Youngs Moduli (GPa) = 60.31276 55.27582 104.06569
#
# Poissons Ratio (x) = 0.44411 0.32005
# Poissons Ratio (y) = 0.48458 0.30583
# Poissons Ratio (z) = 0.18549 0.16245
#
# Static dielectric constant tensor:
#      x y z
#    x 2.878440 0.000000 0.000000 
#    y 0.000000 2.882420 0.000000 
#    z 0.000000 0.000000 2.735720 
# 
# 
# High freq. dielectric constant tensor:
#      x y z
#    x 1.572540 0.000000 0.000000 
#    y 0.000000 1.571240 0.000000 
#    z 0.000000 0.000000 1.585810 
# 
# From -- ./inp_files/65362.got.cif
#   From: 2010.03.12/outbox.cif.g09.slc.cpg/sg66_33_cif.got.tgz:65362.got - 2010.04.10 21:57:39.
