data_PCOD8276169
_publ_section_title
;
Structure prediction by ZEFSAII (Michael W. Deem and Ramdas Pophale) SiO2 
 PCOD8276169
Probable space group: C C C M
;
_chemical_formula_sum "Si O2"
_cell_formula_units_Z 96
_cell_length_a 21.818052
_cell_length_b 14.641612
_cell_length_c 15.613981
_cell_angle_alpha 90.000000
_cell_angle_beta 90.000000
_cell_angle_gamma 90.000000
_cell_volume 4987.908902
_symmetry_space_group_name_H-M "C C C M"
_symmetry_group_IT_number 66
_symmetry_cell_setting 'orthorhombic'
loop_
_space_group_symop_operation_xyz
x,y,z
-x,-y,z
x,-y,1/2-z
-x,y,1/2-z
-x,-y,-z
x,y,-z
-x,y,1/2+z
x,-y,1/2+z
1/2+x,1/2+y,z
1/2-x,1/2-y,z
1/2+x,1/2-y,1/2-z
1/2-x,1/2+y,1/2-z
1/2-x,1/2-y,-z
1/2+x,1/2+y,-z
1/2-x,1/2+y,1/2+z
1/2+x,1/2-y,1/2+z
loop_
_atom_site_type_symbol
_atom_site_label
_atom_site_fract_x
_atom_site_fract_y
_atom_site_fract_z
Si Si1 0.245440 0.644220 0.401240
Si Si2 0.345285 0.100349 0.245954
Si Si3 0.258528 0.856894 0.096071
Si Si4 0.571447 0.726329 0.254941
Si Si5 0.879895 0.115775 0.095295
Si Si6 0.633210 0.440388 0.667860
O O1 0.225355 0.630394 0.500000
O O2 0.250000 0.750000 0.376746
O O3 0.196697 0.598870 0.338379
O O4 0.310118 0.596444 0.386339
O O5 0.306776 0.113217 0.332832
O O6 0.395779 0.178422 0.234015
O O7 0.376625 0.000000 0.250000
O O8 0.250000 0.750000 0.100032
O O9 0.192112 0.898306 0.117480
O O10 0.280135 0.886993 0.000000
O O11 0.500000 0.744760 0.250000
O O12 0.589090 0.694914 0.349882
O O13 0.590654 0.646003 0.189859
O O14 0.906500 0.013237 0.111333
O O15 0.891036 0.149967 0.000000
O O16 0.654395 0.500000 0.750000
#
# Coordination Sequence:
#
# PCOD8276169 Si02
#       6
#    16  16  16  16  16  16
#     4  11  21  35  58  89 124 157 183 220 289 364
#     4  12  23  38  61  86 117 156 197 240 287 339
#     4  10  19  35  64  94 118 144 180 235 303 357
#     4  11  24  42  58  77 113 157 202 245 281 325
#     4  10  20  36  62  93 116 142 182 234 297 356
#     4  10  20  36  59  86 119 150 180 233 295 352
#
# _framework density 19.246542999999999
#
# number of rings (size 3 to 8) (size 9 to 14) (size 15 to 20)
#    0.000    1.333    3.333    4.500    0.000    5.333 
#    0.000    3.333    0.000    0.000    0.000    3.500 
#    0.000    0.000    0.000    0.000    0.000    0.000 
#
# Total GULP energy -594965.527031 kJ/mol
# GULP energy per Si atom -12395.115146 kJ/mol
# Density = 1.920274 g / cm^3
# Si number density = 19.246543 Si / 1000 Ang^3
#
#
#
# Elastic Constant Matrix: (Units=GPa)
#
#
# Indices 1 2 3 4 5 6 
#
# 1 72.2074 21.3633 36.5512 0.0000 0.0000 0.0000
# 2 21.3633 92.0397 -4.6237 0.0000 0.0000 0.0000
# 3 36.5512 -4.6237 66.5879 0.0000 0.0000 0.0000
# 4 0.0000 0.0000 0.0000 23.5438 0.0000 0.0000
# 5 0.0000 0.0000 0.0000 0.0000 7.9395 0.0000
# 6 0.0000 0.0000 0.0000 0.0000 0.0000 -164.4888
#
#
#
# Elastic Compliance Matrix: (Units=1/GPa)
#
#
# Indices 1 2 3 4 5 6 
#
# 1 0.021779 -0.005676 -0.012349 0.000000 0.000000 0.000000
# 2 -0.005676 0.012382 0.003975 0.000000 0.000000 0.000000
# 3 -0.012349 0.003975 0.022072 0.000000 0.000000 0.000000
# 4 0.000000 0.000000 0.000000 0.042474 0.000000 0.000000
# 5 0.000000 0.000000 0.000000 0.000000 0.125953 0.000000
# 6 0.000000 0.000000 0.000000 0.000000 0.000000 -0.006079
#
#
# Mechanical properties :
#
#
# Convention : Reuss Voigt Hill
#
# Bulk Modulus (GPa) = 35.54340 37.49074 36.51707
# Shear Modulus (GPa) = 19.52684 -14.76482 2.38101
#
# Velocity S-wave (km/s) = 3.18868 -2.77274 1.11346
# Velocity P-wave (km/s) = 5.66254 3.04479 4.54616
#
# Compressibility (1/GPa) = 0.02813462
#
# Stress axis : x y z
#
# Youngs Moduli (GPa) = 45.91530 80.76301 45.30552
#
# Poissons Ratio (x) = 0.45837 0.55948
# Poissons Ratio (y) = 0.26059 -0.18010
# Poissons Ratio (z) = 0.56701 -0.32104
#
# Static dielectric constant tensor:
#      x y z
#    x 3.092500 0.000000 0.000000 
#    y 0.000000 4.082300 0.000000 
#    z 0.000000 0.000000 3.798230 
# 
# 
# High freq. dielectric constant tensor:
#      x y z
#    x 1.698660 0.000000 0.000000 
#    y 0.000000 1.773380 0.000000 
#    z 0.000000 0.000000 1.759980 
# 
# From -- ./inp_files/31149.got.cif
#   From: 2010.03.12/outbox.cif.g09.slc.cpg/sg66_16_cif.got.tgz:31149.got - 2010.04.10 21:57:39.
