data_PCOD8276615
_publ_section_title
;
Structure prediction by ZEFSAII (Michael W. Deem and Ramdas Pophale) SiO2 
 PCOD8276615
Probable space group: C C C M
;
_chemical_formula_sum "Si O2"
_cell_formula_units_Z 96
_cell_length_a 21.931803
_cell_length_b 13.768974
_cell_length_c 15.831757
_cell_angle_alpha 90.000000
_cell_angle_beta 90.000000
_cell_angle_gamma 90.000000
_cell_volume 4780.849048
_symmetry_space_group_name_H-M "C C C M"
_symmetry_group_IT_number 66
_symmetry_cell_setting 'orthorhombic'
loop_
_space_group_symop_operation_xyz
x,y,z
-x,-y,z
x,-y,1/2-z
-x,y,1/2-z
-x,-y,-z
x,y,-z
-x,y,1/2+z
x,-y,1/2+z
1/2+x,1/2+y,z
1/2-x,1/2-y,z
1/2+x,1/2-y,1/2-z
1/2-x,1/2+y,1/2-z
1/2-x,1/2-y,-z
1/2+x,1/2+y,-z
1/2-x,1/2+y,1/2+z
1/2+x,1/2-y,1/2+z
loop_
_atom_site_type_symbol
_atom_site_label
_atom_site_fract_x
_atom_site_fract_y
_atom_site_fract_z
Si Si1 0.959221 0.755264 0.329941
Si Si2 0.633366 0.889587 0.597895
Si Si3 0.648410 0.112471 0.405682
Si Si4 0.139396 0.114996 0.755260
Si Si5 0.275341 0.885679 0.244553
Si Si6 0.577289 0.701175 0.091737
O O1 0.929368 0.662317 0.375215
O O2 0.907180 0.833142 0.308028
O O3 0.000000 0.721004 0.250000
O O4 0.005300 0.811457 0.391798
O O5 0.649962 0.865033 0.500000
O O6 0.686636 0.853789 0.661588
O O7 0.623585 0.004357 0.610934
O O8 0.678763 0.118586 0.500000
O O9 0.694691 0.148557 0.332855
O O10 0.590747 0.183655 0.399999
O O11 0.207105 0.158030 0.736585
O O12 0.121193 0.138713 0.850247
O O13 0.135704 0.000000 0.750000
O O14 0.268522 0.000000 0.250000
O O15 0.592410 0.660336 0.000000
#
# Coordination Sequence:
#
# PCOD8276615 Si02
#       6
#    16  16  16  16  16  16
#     4  10  21  36  55  79 110 146 187 229 267 320
#     4  10  20  36  57  85 119 150 175 213 271 337
#     4   9  19  35  58  86 116 145 176 218 274 332
#     4  10  22  40  58  76 105 145 186 232 282 319
#     4   9  18  35  57  81 110 144 183 225 271 328
#     4  10  21  37  56  82 108 137 184 233 269 318
#
# _framework density 20.080114999999999
#
# number of rings (size 3 to 8) (size 9 to 14) (size 15 to 20)
#    0.000    2.333    0.000    2.500    0.000    7.000 
#    0.000   14.167    0.000    0.000    0.000    0.000 
#    0.000    0.000    0.000    0.000    0.000    0.000 
#
# Total GULP energy -594981.034844 kJ/mol
# GULP energy per Si atom -12395.438226 kJ/mol
# Density = 2.003441 g / cm^3
# Si number density = 20.080115 Si / 1000 Ang^3
#
#
#
# Elastic Constant Matrix: (Units=GPa)
#
#
# Indices 1 2 3 4 5 6 
#
# 1 129.4903 22.5140 67.8665 0.0000 0.0000 0.0000
# 2 22.5140 44.8663 47.2328 0.0000 0.0000 0.0000
# 3 67.8665 47.2328 150.6897 0.0000 0.0000 0.0000
# 4 0.0000 0.0000 0.0000 23.7455 0.0000 0.0000
# 5 0.0000 0.0000 0.0000 0.0000 16.9999 0.0000
# 6 0.0000 0.0000 0.0000 0.0000 0.0000 28.9272
#
#
#
# Elastic Compliance Matrix: (Units=1/GPa)
#
#
# Indices 1 2 3 4 5 6 
#
# 1 0.010114 -0.000418 -0.004424 0.000000 0.000000 0.000000
# 2 -0.000418 0.033282 -0.010244 0.000000 0.000000 0.000000
# 3 -0.004424 -0.010244 0.011840 0.000000 0.000000 0.000000
# 4 0.000000 0.000000 0.000000 0.042113 0.000000 0.000000
# 5 0.000000 0.000000 0.000000 0.000000 0.058824 0.000000
# 6 0.000000 0.000000 0.000000 0.000000 0.000000 0.034570
#
#
# Mechanical properties :
#
#
# Convention : Reuss Voigt Hill
#
# Bulk Modulus (GPa) = 39.89757 66.69699 53.29728
# Shear Modulus (GPa) = 21.80842 26.43004 24.11923
#
# Velocity S-wave (km/s) = 3.29913 3.63192 3.46952
# Velocity P-wave (km/s) = 5.86726 7.13270 6.53070
#
# Compressibility (1/GPa) = 0.02506418
#
# Stress axis : x y z
#
# Youngs Moduli (GPa) = 98.87375 30.04587 84.46246
#
# Poissons Ratio (x) = 0.01255 0.37367
# Poissons Ratio (y) = 0.04130 0.86524
# Poissons Ratio (z) = 0.43743 0.30779
#
# Static dielectric constant tensor:
#      x y z
#    x 3.787130 0.000000 0.000000 
#    y 0.000000 3.476930 0.000000 
#    z 0.000000 0.000000 3.969220 
# 
# 
# High freq. dielectric constant tensor:
#      x y z
#    x 1.780260 0.000000 0.000000 
#    y 0.000000 1.776990 0.000000 
#    z 0.000000 0.000000 1.792470 
# 
# From -- ./inp_files/28378.got.cif
#   From: 2010.03.12/outbox.cif.g09.slc.cpg/sg66_15_cif.got.tgz:28378.got - 2010.04.10 21:57:39.
