data_PCOD8276862
_publ_section_title
;
Structure prediction by ZEFSAII (Michael W. Deem and Ramdas Pophale) SiO2 
 PCOD8276862
Probable space group: C C C M
;
_chemical_formula_sum "Si O2"
_cell_formula_units_Z 56
_cell_length_a 15.955345
_cell_length_b 15.963581
_cell_length_c 10.170716
_cell_angle_alpha 90.000000
_cell_angle_beta 90.000000
_cell_angle_gamma 90.000000
_cell_volume 2590.526546
_symmetry_space_group_name_H-M "C C C M"
_symmetry_group_IT_number 66
_symmetry_cell_setting 'orthorhombic'
loop_
_space_group_symop_operation_xyz
x,y,z
-x,-y,z
x,-y,1/2-z
-x,y,1/2-z
-x,-y,-z
x,y,-z
-x,y,1/2+z
x,-y,1/2+z
1/2+x,1/2+y,z
1/2-x,1/2-y,z
1/2+x,1/2-y,1/2-z
1/2-x,1/2+y,1/2-z
1/2-x,1/2-y,-z
1/2+x,1/2+y,-z
1/2-x,1/2+y,1/2+z
1/2+x,1/2-y,1/2+z
loop_
_atom_site_type_symbol
_atom_site_label
_atom_site_fract_x
_atom_site_fract_y
_atom_site_fract_z
Si Si1 0.263007 0.403511 0.737514
Si Si2 0.561891 0.351621 0.144455
Si Si3 0.496317 0.798987 0.000000
Si Si4 0.329164 0.881311 0.500000
Si Si5 0.143903 0.574129 0.000000
O O1 0.290942 0.500000 0.750000
O O2 0.343783 0.350054 0.697570
O O3 0.228760 0.366418 0.873445
O O4 0.191899 0.393525 0.628305
O O5 0.500000 0.396500 0.250000
O O6 0.530225 0.255511 0.127876
O O7 0.558069 0.397137 0.000000
O O8 0.448650 0.887442 0.000000
O O9 0.595472 0.815205 0.000000
O O10 0.366821 0.974639 0.500000
#
# Coordination Sequence:
#
# PCOD8276862 Si02
#       5
#    16  16   8   8   8
#     4  10  22  42  64  94 124 166 217 260 315 375
#     4  10  24  42  61  92 127 168 212 257 321 373
#     4  10  24  41  63  93 137 162 214 252 325 386
#     4  10  23  37  67  97 127 164 212 267 309 374
#     4  10  20  40  66  93 126 170 209 257 320 377
#
# _framework density 21.617227
#
# number of rings (size 3 to 8) (size 9 to 14) (size 15 to 20)
#    0.857    1.143    1.429    0.429    6.000    2.857 
#    0.000    7.143    0.000    0.000    0.000    0.000 
#    0.000    0.000    0.000    0.000    0.000    0.000 
#
# Total GULP energy -347128.828233 kJ/mol
# GULP energy per Si atom -12397.458151 kJ/mol
# Density = 2.156803 g / cm^3
# Si number density = 21.617227 Si / 1000 Ang^3
#
#
#
# Elastic Constant Matrix: (Units=GPa)
#
#
# Indices 1 2 3 4 5 6 
#
# 1 148.3308 44.0597 78.1060 0.0000 0.0000 0.0000
# 2 44.0597 47.5664 27.6774 0.0000 0.0000 0.0000
# 3 78.1060 27.6774 185.3849 0.0000 0.0000 0.0000
# 4 0.0000 0.0000 0.0000 1.3627 0.0000 0.0000
# 5 0.0000 0.0000 0.0000 0.0000 20.4063 0.0000
# 6 0.0000 0.0000 0.0000 0.0000 0.0000 29.5703
#
#
#
# Elastic Compliance Matrix: (Units=1/GPa)
#
#
# Indices 1 2 3 4 5 6 
#
# 1 0.010958 -0.008174 -0.003397 0.000000 0.000000 0.000000
# 2 -0.008174 0.029120 -0.000904 0.000000 0.000000 0.000000
# 3 -0.003397 -0.000904 0.006960 0.000000 0.000000 0.000000
# 4 0.000000 0.000000 0.000000 0.733844 0.000000 0.000000
# 5 0.000000 0.000000 0.000000 0.000000 0.049004 0.000000
# 6 0.000000 0.000000 0.000000 0.000000 0.000000 0.033818
#
#
# Mechanical properties :
#
#
# Convention : Reuss Voigt Hill
#
# Bulk Modulus (GPa) = 45.26882 75.66314 60.46598
# Shear Modulus (GPa) = 5.58025 25.69714 15.63869
#
# Velocity S-wave (km/s) = 1.60841 3.45154 2.69260
# Velocity P-wave (km/s) = 4.94327 7.13873 6.13993
#
# Compressibility (1/GPa) = 0.02209026
#
# Stress axis : x y z
#
# Youngs Moduli (GPa) = 91.25630 34.34012 143.67560
#
# Poissons Ratio (x) = 0.28069 0.48800
# Poissons Ratio (y) = 0.74593 0.12985
# Poissons Ratio (z) = 0.30995 0.03104
#
# Static dielectric constant tensor:
#      x y z
#    x 3.630170 0.000000 0.000000 
#    y 0.000000 3.498050 0.000000 
#    z 0.000000 0.000000 4.320630 
# 
# 
# High freq. dielectric constant tensor:
#      x y z
#    x 1.849930 0.000000 0.000000 
#    y 0.000000 1.819070 0.000000 
#    z 0.000000 0.000000 1.866000 
# 
# From -- ./inp_files/4860.got.cif
#   From: 2010.03.12/outbox.cif.g09.slc.cpg/sg66_3_cif.got.tgz:4860.got - 2010.04.10 21:57:39.
