data_PCOD8276370
_publ_section_title
;
Structure prediction by ZEFSAII (Michael W. Deem and Ramdas Pophale) SiO2 
 PCOD8276370
Probable space group: C C C M
;
_chemical_formula_sum "Si O2"
_cell_formula_units_Z 100
_cell_length_a 16.921954
_cell_length_b 16.921970
_cell_length_c 19.161761
_cell_angle_alpha 90.000000
_cell_angle_beta 90.000000
_cell_angle_gamma 90.000000
_cell_volume 5487.023876
_symmetry_space_group_name_H-M "C C C M"
_symmetry_group_IT_number 66
_symmetry_cell_setting 'orthorhombic'
loop_
_space_group_symop_operation_xyz
x,y,z
-x,-y,z
x,-y,1/2-z
-x,y,1/2-z
-x,-y,-z
x,y,-z
-x,y,1/2+z
x,-y,1/2+z
1/2+x,1/2+y,z
1/2-x,1/2-y,z
1/2+x,1/2-y,1/2-z
1/2-x,1/2+y,1/2-z
1/2-x,1/2-y,-z
1/2+x,1/2+y,-z
1/2-x,1/2+y,1/2+z
1/2+x,1/2-y,1/2+z
loop_
_atom_site_type_symbol
_atom_site_label
_atom_site_fract_x
_atom_site_fract_y
_atom_site_fract_z
Si Si1 0.083623 0.583623 0.872819
Si Si2 0.925781 0.204234 0.703747
Si Si3 0.704234 0.574219 0.796253
Si Si4 0.815174 0.557886 0.921410
Si Si5 0.557886 0.184826 0.421410
Si Si6 0.312951 0.187049 0.709979
Si Si7 0.500000 0.000000 0.250000
O O1 0.120572 0.511743 0.915443
O O2 0.149898 0.649898 0.859560
O O3 0.011743 0.620572 0.915443
O O4 0.055308 0.555307 0.796641
O O5 0.871643 0.128357 0.688830
O O6 0.954030 0.241206 0.630249
O O7 0.880083 0.272484 0.744128
O O8 0.000000 0.176621 0.750000
O O9 0.676621 0.500000 0.750000
O O10 0.741206 0.545970 0.869751
O O11 0.772484 0.619917 0.755872
O O12 0.859155 0.640845 0.905806
O O13 0.781459 0.557515 0.000000
O O14 0.557514 0.218541 0.500000
O O15 0.250000 0.250000 0.682562
#
# Coordination Sequence:
#
# PCOD8276370 Si02
#       7
#    16  16  16  16  16  16   4
#     4  12  19  33  54  81 122 155 189 229 284 346
#     4  11  22  38  60  85 112 148 195 242 287 337
#     4  11  22  38  60  85 112 148 195 242 287 337
#     4  11  22  35  54  86 125 156 184 225 284 352
#     4  11  22  35  54  86 125 156 184 225 284 352
#     4  10  20  33  56  84 107 139 186 239 284 329
#     4  12  20  24  54  88 108 156 190 236 280 328
#
# _framework density 18.224816000000001
#
# number of rings (size 3 to 8) (size 9 to 14) (size 15 to 20)
#    0.000    0.960    6.400    2.400    0.000    2.240 
#    0.000    1.600    0.000    4.800    0.000    2.240 
#    0.000    0.000    0.000    0.000    0.000    0.000 
#
# Total GULP energy -620172.186951 kJ/mol
# GULP energy per Si atom -12403.443739 kJ/mol
# Density = 1.818334 g / cm^3
# Si number density = 18.224816 Si / 1000 Ang^3
#
#
#
# Elastic Constant Matrix: (Units=GPa)
#
#
# Indices 1 2 3 4 5 6 
#
# 1 79.4842 38.2924 40.9304 0.0000 0.0000 0.0000
# 2 38.2924 79.4846 40.9303 0.0000 0.0000 0.0000
# 3 40.9304 40.9303 105.8532 0.0000 0.0000 0.0000
# 4 0.0000 0.0000 0.0000 14.2764 0.0000 0.0000
# 5 0.0000 0.0000 0.0000 0.0000 14.2764 0.0000
# 6 0.0000 0.0000 0.0000 0.0000 0.0000 38.7903
#
#
#
# Elastic Compliance Matrix: (Units=1/GPa)
#
#
# Indices 1 2 3 4 5 6 
#
# 1 0.017944 -0.006333 -0.004490 0.000000 0.000000 0.000000
# 2 -0.006333 0.017944 -0.004490 0.000000 0.000000 0.000000
# 3 -0.004490 -0.004490 0.012919 0.000000 0.000000 0.000000
# 4 0.000000 0.000000 0.000000 0.070045 0.000000 0.000000
# 5 0.000000 0.000000 0.000000 0.000000 0.070046 0.000000
# 6 0.000000 0.000000 0.000000 0.000000 0.000000 0.025780
#
#
# Mechanical properties :
#
#
# Convention : Reuss Voigt Hill
#
# Bulk Modulus (GPa) = 54.99738 56.12535 55.56136
# Shear Modulus (GPa) = 19.89157 23.11322 21.50240
#
# Velocity S-wave (km/s) = 3.30730 3.56508 3.43861
# Velocity P-wave (km/s) = 6.69530 6.91443 6.80575
#
# Compressibility (1/GPa) = 0.01818269
#
# Stress axis : x y z
#
# Youngs Moduli (GPa) = 55.72907 55.72941 77.40456
#
# Poissons Ratio (x) = 0.35292 0.34753
# Poissons Ratio (y) = 0.35292 0.34752
# Poissons Ratio (z) = 0.25021 0.25021
#
# Static dielectric constant tensor:
#      x y z
#    x 3.319100 0.000000 0.000000 
#    y 0.000000 3.319100 0.000000 
#    z 0.000000 0.000000 3.231510 
# 
# 
# High freq. dielectric constant tensor:
#      x y z
#    x 1.697580 0.000000 0.000000 
#    y 0.000000 1.697580 0.000000 
#    z 0.000000 0.000000 1.698720 
# 
# From -- ./inp_files/51128.got.cif
#   From: 2010.03.12/outbox.cif.g09.slc.cpg/sg66_26_cif.got.tgz:51128.got - 2010.04.10 21:57:39.
