data_PCOD8276119
_publ_section_title
;
Structure prediction by ZEFSAII (Michael W. Deem and Ramdas Pophale) SiO2 
 PCOD8276119
Probable space group: C C C M
;
_chemical_formula_sum "Si O2"
_cell_formula_units_Z 104
_cell_length_a 27.139192
_cell_length_b 21.136236
_cell_length_c 9.413518
_cell_angle_alpha 90.000000
_cell_angle_beta 90.000000
_cell_angle_gamma 90.000000
_cell_volume 5399.785650
_symmetry_space_group_name_H-M "C C C M"
_symmetry_group_IT_number 66
_symmetry_cell_setting 'orthorhombic'
loop_
_space_group_symop_operation_xyz
x,y,z
-x,-y,z
x,-y,1/2-z
-x,y,1/2-z
-x,-y,-z
x,y,-z
-x,y,1/2+z
x,-y,1/2+z
1/2+x,1/2+y,z
1/2-x,1/2-y,z
1/2+x,1/2-y,1/2-z
1/2-x,1/2+y,1/2-z
1/2-x,1/2-y,-z
1/2+x,1/2+y,-z
1/2-x,1/2+y,1/2+z
1/2+x,1/2-y,1/2+z
loop_
_atom_site_type_symbol
_atom_site_label
_atom_site_fract_x
_atom_site_fract_y
_atom_site_fract_z
Si Si1 0.860230 0.822743 0.665087
Si Si2 0.871563 0.500000 0.750000
Si Si3 0.547537 0.098146 0.161162
Si Si4 0.195853 0.725658 0.342479
Si Si5 0.046387 0.259635 0.661856
Si Si6 0.680840 0.561013 0.829034
Si Si7 0.210780 0.410991 0.157827
O O1 0.849302 0.839509 0.500000
O O2 0.825963 0.766587 0.716690
O O3 0.914712 0.795711 0.686198
O O4 0.851678 0.881567 0.769188
O O5 0.906074 0.449224 0.827891
O O6 0.833422 0.537982 0.849955
O O7 0.500000 0.074662 0.250000
O O8 0.563935 0.169221 0.209438
O O9 0.529457 0.097597 0.000000
O O10 0.169335 0.729640 0.500000
O O11 0.250000 0.750000 0.368046
O O12 0.193177 0.655051 0.274334
O O13 0.030059 0.263682 0.500000
O O14 0.000000 0.237219 0.750000
O O15 0.658614 0.500000 0.750000
O O16 0.737788 0.565844 0.773451
O O17 0.675475 0.556289 0.000000
O O18 0.226481 0.392306 0.000000
#
# Coordination Sequence:
#
# PCOD8276119 Si02
#       7
#    16   8  16  16  16  16  16
#     4  11  22  37  59  89 118 150 190 240 298 354
#     4  12  21  34  54  80 114 156 201 246 292 336
#     4  10  22  39  58  80 111 150 194 246 296 346
#     4  10  19  35  55  78 111 152 197 246 292 345
#     4   9  20  39  61  87 117 146 189 241 295 356
#     4  11  22  40  59  83 117 157 198 234 280 344
#     4  10  21  35  52  77 112 153 197 241 288 341
#
# _framework density 19.260023
#
# number of rings (size 3 to 8) (size 9 to 14) (size 15 to 20)
#    0.000    1.692    2.308    2.538    0.000    3.385 
#    0.000    3.846    0.000    0.462    0.000    3.231 
#    0.000    0.000    0.000    0.000    0.000    0.000 
#
# Total GULP energy -644263.164716 kJ/mol
# GULP energy per Si atom -12389.676245 kJ/mol
# Density = 1.921619 g / cm^3
# Si number density = 19.260023 Si / 1000 Ang^3
#
#
#
# Elastic Constant Matrix: (Units=GPa)
#
#
# Indices 1 2 3 4 5 6 
#
# 1 91.3337 50.1699 46.4224 0.0000 0.0000 0.0000
# 2 50.1699 132.6933 53.0377 0.0000 0.0000 0.0000
# 3 46.4224 53.0377 93.1477 0.0000 0.0000 0.0000
# 4 0.0000 0.0000 0.0000 29.7987 0.0000 0.0000
# 5 0.0000 0.0000 0.0000 0.0000 24.9796 0.0000
# 6 0.0000 0.0000 0.0000 0.0000 0.0000 26.2406
#
#
#
# Elastic Compliance Matrix: (Units=1/GPa)
#
#
# Indices 1 2 3 4 5 6 
#
# 1 0.015949 -0.003694 -0.005845 0.000000 0.000000 0.000000
# 2 -0.003694 0.010612 -0.004202 0.000000 0.000000 0.000000
# 3 -0.005845 -0.004202 0.016041 0.000000 0.000000 0.000000
# 4 0.000000 0.000000 0.000000 0.033559 0.000000 0.000000
# 5 0.000000 0.000000 0.000000 0.000000 0.040033 0.000000
# 6 0.000000 0.000000 0.000000 0.000000 0.000000 0.038109
#
#
# Mechanical properties :
#
#
# Convention : Reuss Voigt Hill
#
# Bulk Modulus (GPa) = 66.13389 68.49272 67.31331
# Shear Modulus (GPa) = 26.76319 27.37343 27.06831
#
# Velocity S-wave (km/s) = 3.73174 3.77405 3.75295
# Velocity P-wave (km/s) = 7.27872 7.39125 7.33520
#
# Compressibility (1/GPa) = 0.01512084
#
# Stress axis : x y z
#
# Youngs Moduli (GPa) = 62.70049 94.23191 62.33959
#
# Poissons Ratio (x) = 0.34806 0.36440
# Poissons Ratio (y) = 0.23160 0.26193
# Poissons Ratio (z) = 0.36650 0.39593
#
# Static dielectric constant tensor:
#      x y z
#    x 3.251800 0.000000 0.000000 
#    y 0.000000 3.625650 0.000000 
#    z 0.000000 0.000000 3.653490 
# 
# 
# High freq. dielectric constant tensor:
#      x y z
#    x 1.728430 0.000000 0.000000 
#    y 0.000000 1.759680 0.000000 
#    z 0.000000 0.000000 1.743540 
# 
# From -- ./inp_files/10386.got.cif
#   From: 2010.03.12/outbox.cif.g09.slc.cpg/sg66_6_cif.got.tgz:10386.got - 2010.04.10 21:57:39.
