data_PCOD8276430
_publ_section_title
;
Structure prediction by ZEFSAII (Michael W. Deem and Ramdas Pophale) SiO2 
 PCOD8276430
Probable space group: C C C M
;
_chemical_formula_sum "Si O2"
_cell_formula_units_Z 104
_cell_length_a 26.168496
_cell_length_b 21.338286
_cell_length_c 9.765423
_cell_angle_alpha 90.000000
_cell_angle_beta 90.000000
_cell_angle_gamma 90.000000
_cell_volume 5452.922868
_symmetry_space_group_name_H-M "C C C M"
_symmetry_group_IT_number 66
_symmetry_cell_setting 'orthorhombic'
loop_
_space_group_symop_operation_xyz
x,y,z
-x,-y,z
x,-y,1/2-z
-x,y,1/2-z
-x,-y,-z
x,y,-z
-x,y,1/2+z
x,-y,1/2+z
1/2+x,1/2+y,z
1/2-x,1/2-y,z
1/2+x,1/2-y,1/2-z
1/2-x,1/2+y,1/2-z
1/2-x,1/2-y,-z
1/2+x,1/2+y,-z
1/2-x,1/2+y,1/2+z
1/2+x,1/2-y,1/2+z
loop_
_atom_site_type_symbol
_atom_site_label
_atom_site_fract_x
_atom_site_fract_y
_atom_site_fract_z
Si Si1 0.949122 0.316107 0.337639
Si Si2 0.889505 0.053383 0.346269
Si Si3 0.275303 0.582541 0.352407
Si Si4 0.548389 0.673653 0.157134
Si Si5 0.689593 0.000000 0.750000
Si Si6 0.867767 0.619655 0.654284
Si Si7 0.762613 0.317389 0.155926
O O1 0.956666 0.331516 0.500000
O O2 0.930713 0.244198 0.317136
O O3 0.908320 0.363775 0.271993
O O4 0.000000 0.327243 0.250000
O O5 0.907624 0.038491 0.500000
O O6 0.828628 0.047301 0.332423
O O7 0.907794 0.123405 0.304640
O O8 0.914458 0.000000 0.250000
O O9 0.274953 0.616825 0.500000
O O10 0.227704 0.534361 0.355568
O O11 0.271331 0.632416 0.233183
O O12 0.500000 0.658770 0.250000
O O13 0.530847 0.667261 0.000000
O O14 0.653302 0.049328 0.827040
O O15 0.890926 0.624732 0.500000
O O16 0.822449 0.669494 0.671578
O O17 0.750000 0.250000 0.219738
O O18 0.744293 0.320889 0.000000
#
# Coordination Sequence:
#
# PCOD8276430 Si02
#       7
#    16  16  16  16   8  16  16
#     4  10  21  39  63  87 115 147 185 232 288 345
#     4  10  21  36  54  80 111 147 192 237 281 330
#     4  10  20  34  55  79 108 148 191 233 276 326
#     4   9  20  38  58  81 111 145 185 233 285 341
#     4  10  20  38  59  80 115 154 194 228 282 340
#     4  10  21  36  58  85 115 150 191 236 281 337
#     4   9  20  36  52  78 115 151 185 227 279 336
#
# _framework density 19.072341000000002
#
# number of rings (size 3 to 8) (size 9 to 14) (size 15 to 20)
#    0.000    2.308    0.769    0.923    2.154    6.154 
#    0.000    1.923    0.000    1.846    0.000    0.000 
#    0.000    0.000    0.000    0.000    0.000    0.000 
#
# Total GULP energy -644574.312468 kJ/mol
# GULP energy per Si atom -12395.659855 kJ/mol
# Density = 1.902893 g / cm^3
# Si number density = 19.072341 Si / 1000 Ang^3
#
#
#
# Elastic Constant Matrix: (Units=GPa)
#
#
# Indices 1 2 3 4 5 6 
#
# 1 65.1013 46.3377 45.5258 0.0000 0.0000 0.0000
# 2 46.3377 116.6360 49.8669 0.0000 0.0000 0.0000
# 3 45.5258 49.8669 106.9392 0.0000 0.0000 0.0000
# 4 0.0000 0.0000 0.0000 17.4496 0.0000 0.0000
# 5 0.0000 0.0000 0.0000 0.0000 25.6380 0.0000
# 6 0.0000 0.0000 0.0000 0.0000 0.0000 21.3940
#
#
#
# Elastic Compliance Matrix: (Units=1/GPa)
#
#
# Indices 1 2 3 4 5 6 
#
# 1 0.025661 -0.006900 -0.007707 0.000000 0.000000 0.000000
# 2 -0.006900 0.012564 -0.002921 0.000000 0.000000 0.000000
# 3 -0.007707 -0.002921 0.013994 0.000000 0.000000 0.000000
# 4 0.000000 0.000000 0.000000 0.057308 0.000000 0.000000
# 5 0.000000 0.000000 0.000000 0.000000 0.039005 0.000000
# 6 0.000000 0.000000 0.000000 0.000000 0.000000 0.046742
#
#
# Mechanical properties :
#
#
# Convention : Reuss Voigt Hill
#
# Bulk Modulus (GPa) = 58.26374 63.57081 60.91728
# Shear Modulus (GPa) = 21.18183 22.69273 21.93728
#
# Velocity S-wave (km/s) = 3.33619 3.45313 3.39516
# Velocity P-wave (km/s) = 6.74206 7.02158 6.88324
#
# Compressibility (1/GPa) = 0.01716333
#
# Stress axis : x y z
#
# Youngs Moduli (GPa) = 38.96909 79.59356 71.45736
#
# Poissons Ratio (x) = 0.54918 0.55072
# Poissons Ratio (y) = 0.26888 0.20875
# Poissons Ratio (z) = 0.30034 0.23252
#
# Static dielectric constant tensor:
#      x y z
#    x 3.269840 0.000000 0.000000 
#    y 0.000000 3.519980 0.000000 
#    z 0.000000 0.000000 3.637270 
# 
# 
# High freq. dielectric constant tensor:
#      x y z
#    x 1.723610 0.000000 0.000000 
#    y 0.000000 1.738930 0.000000 
#    z 0.000000 0.000000 1.750670 
# 
# From -- ./inp_files/10359.got.cif
#   From: 2010.03.12/outbox.cif.g09.slc.cpg/sg66_6_cif.got.tgz:10359.got - 2010.04.10 21:57:39.
