data_PCOD8276716
_publ_section_title
;
Structure prediction by ZEFSAII (Michael W. Deem and Ramdas Pophale) SiO2 
 PCOD8276716
Probable space group: C C C M
;
_chemical_formula_sum "Si O2"
_cell_formula_units_Z 96
_cell_length_a 10.275720
_cell_length_b 18.571369
_cell_length_c 23.356038
_cell_angle_alpha 90.000000
_cell_angle_beta 90.000000
_cell_angle_gamma 90.000000
_cell_volume 4457.130543
_symmetry_space_group_name_H-M "C C C M"
_symmetry_group_IT_number 66
_symmetry_cell_setting 'orthorhombic'
loop_
_space_group_symop_operation_xyz
x,y,z
-x,-y,z
x,-y,1/2-z
-x,y,1/2-z
-x,-y,-z
x,y,-z
-x,y,1/2+z
x,-y,1/2+z
1/2+x,1/2+y,z
1/2-x,1/2-y,z
1/2+x,1/2-y,1/2-z
1/2-x,1/2+y,1/2-z
1/2-x,1/2-y,-z
1/2+x,1/2+y,-z
1/2-x,1/2+y,1/2+z
1/2+x,1/2-y,1/2+z
loop_
_atom_site_type_symbol
_atom_site_label
_atom_site_fract_x
_atom_site_fract_y
_atom_site_fract_z
Si Si1 0.791481 0.114665 0.934829
Si Si2 0.956601 0.081723 0.373930
Si Si3 0.953112 0.421334 0.671486
Si Si4 0.299163 0.827889 0.172685
Si Si5 0.202707 0.549410 0.434738
Si Si6 0.813016 0.918090 0.764210
O O1 0.703581 0.166949 0.896305
O O2 0.933945 0.126005 0.907162
O O3 0.733286 0.035073 0.928516
O O4 0.793457 0.140925 0.000000
O O5 0.828497 0.092118 0.412752
O O6 0.926490 0.108018 0.308342
O O7 0.000000 0.000000 0.371765
O O8 0.921441 0.427663 0.603501
O O9 0.823819 0.401887 0.705608
O O10 0.000000 0.500000 0.692854
O O11 0.055910 0.357803 0.687512
O O12 0.250000 0.750000 0.193682
O O13 0.190029 0.878476 0.202903
O O14 0.170261 0.570100 0.500000
O O15 0.838372 0.000000 0.750000
#
# Coordination Sequence:
#
# PCOD8276716 Si02
#       6
#    16  16  16  16  16  16
#     4  10  20  37  59  85 125 168 205 254 316 389
#     4   9  18  33  56  92 124 149 194 256 323 372
#     4  11  20  38  63  90 122 162 212 262 317 382
#     4  12  26  41  57  92 125 164 213 268 331 382
#     4   9  17  31  60  94 119 152 206 265 311 368
#     4  11  21  38  65  90 121 163 213 263 318 393
#
# _framework density 21.538520999999999
#
# number of rings (size 3 to 8) (size 9 to 14) (size 15 to 20)
#    0.000    1.667    3.333    3.000    0.000    5.667 
#    6.000    0.000    0.000    0.000    0.000    3.500 
#    0.000    0.000    0.000    0.000    0.000    0.000 
#
# Total GULP energy -594690.128579 kJ/mol
# GULP energy per Si atom -12389.377679 kJ/mol
# Density = 2.148950 g / cm^3
# Si number density = 21.538521 Si / 1000 Ang^3
#
#
#
# Elastic Constant Matrix: (Units=GPa)
#
#
# Indices 1 2 3 4 5 6 
#
# 1 78.7429 16.1758 10.5359 0.0000 0.0000 0.0000
# 2 16.1758 62.9987 13.5396 0.0000 0.0000 0.0000
# 3 10.5359 13.5396 141.4056 0.0000 0.0000 0.0000
# 4 0.0000 0.0000 0.0000 13.2680 0.0000 0.0000
# 5 0.0000 0.0000 0.0000 0.0000 21.4673 0.0000
# 6 0.0000 0.0000 0.0000 0.0000 0.0000 23.6180
#
#
#
# Elastic Compliance Matrix: (Units=1/GPa)
#
#
# Indices 1 2 3 4 5 6 
#
# 1 0.013472 -0.003311 -0.000687 0.000000 0.000000 0.000000
# 2 -0.003311 0.017021 -0.001383 0.000000 0.000000 0.000000
# 3 -0.000687 -0.001383 0.007255 0.000000 0.000000 0.000000
# 4 0.000000 0.000000 0.000000 0.075370 0.000000 0.000000
# 5 0.000000 0.000000 0.000000 0.000000 0.046583 0.000000
# 6 0.000000 0.000000 0.000000 0.000000 0.000000 0.042341
#
#
# Mechanical properties :
#
#
# Convention : Reuss Voigt Hill
#
# Bulk Modulus (GPa) = 37.05670 40.40552 38.73111
# Shear Modulus (GPa) = 22.54301 27.86370 25.20336
#
# Velocity S-wave (km/s) = 3.23869 3.60066 3.42446
# Velocity P-wave (km/s) = 5.58817 6.00722 5.80148
#
# Compressibility (1/GPa) = 0.02698568
#
# Stress axis : x y z
#
# Youngs Moduli (GPa) = 74.22969 58.75145 137.82751
#
# Poissons Ratio (x) = 0.19455 0.09464
# Poissons Ratio (y) = 0.24581 0.19062
# Poissons Ratio (z) = 0.05097 0.08125
#
# Static dielectric constant tensor:
#      x y z
#    x 4.203060 0.000000 0.000000 
#    y 0.000000 3.236030 0.000000 
#    z 0.000000 0.000000 4.313790 
# 
# 
# High freq. dielectric constant tensor:
#      x y z
#    x 1.861020 0.000000 0.000000 
#    y 0.000000 1.768250 0.000000 
#    z 0.000000 0.000000 1.871100 
# 
# From -- ./inp_files/48801.got.cif
#   From: 2010.03.12/outbox.cif.g09.slc.cpg/sg66_25_cif.got.tgz:48801.got - 2010.04.10 21:57:39.
