data_PCOD8276591
_publ_section_title
;
Structure prediction by ZEFSAII (Michael W. Deem and Ramdas Pophale) SiO2 
 PCOD8276591
Probable space group: C C C M
;
_chemical_formula_sum "Si O2"
_cell_formula_units_Z 96
_cell_length_a 30.370638
_cell_length_b 20.074355
_cell_length_c 8.923243
_cell_angle_alpha 90.000000
_cell_angle_beta 90.000000
_cell_angle_gamma 90.000000
_cell_volume 5440.242205
_symmetry_space_group_name_H-M "C C C M"
_symmetry_group_IT_number 66
_symmetry_cell_setting 'orthorhombic'
loop_
_space_group_symop_operation_xyz
x,y,z
-x,-y,z
x,-y,1/2-z
-x,y,1/2-z
-x,-y,-z
x,y,-z
-x,y,1/2+z
x,-y,1/2+z
1/2+x,1/2+y,z
1/2-x,1/2-y,z
1/2+x,1/2-y,1/2-z
1/2-x,1/2+y,1/2-z
1/2-x,1/2-y,-z
1/2+x,1/2+y,-z
1/2-x,1/2+y,1/2+z
1/2+x,1/2-y,1/2+z
loop_
_atom_site_type_symbol
_atom_site_label
_atom_site_fract_x
_atom_site_fract_y
_atom_site_fract_z
Si Si1 0.702974 0.067546 0.673837
Si Si2 0.042792 0.827704 0.332101
Si Si3 0.362695 0.181271 0.179201
Si Si4 0.804801 0.930715 0.176827
Si Si5 0.866475 0.822663 0.321389
Si Si6 0.958533 0.330220 0.336296
O O1 0.694837 0.057510 0.500000
O O2 0.674270 0.129514 0.732505
O O3 0.753581 0.082434 0.711012
O O4 0.686400 0.000000 0.750000
O O5 0.046680 0.857620 0.500000
O O6 0.085990 0.846380 0.237773
O O7 0.037217 0.748951 0.342189
O O8 0.000000 0.858772 0.250000
O O9 0.352899 0.250270 0.261451
O O10 0.410480 0.152806 0.232585
O O11 0.362973 0.194002 0.000000
O O12 0.830243 0.872388 0.258900
O O13 0.819994 0.000000 0.250000
O O14 0.814839 0.931522 0.000000
O O15 0.866869 0.822757 0.500000
O O16 0.961527 0.361898 0.500000
O O17 0.000000 0.361912 0.250000
#
# Coordination Sequence:
#
# PCOD8276591 Si02
#       6
#    16  16  16  16  16  16
#     4   9  19  35  55  74  96 128 167 207 254 308
#     4   9  16  28  46  70 100 133 166 203 245 293
#     4   9  18  33  50  72 101 133 165 205 255 303
#     4  10  20  36  55  74  97 129 166 206 251 305
#     4  11  21  32  49  76 105 134 168 208 249 292
#     4   8  14  24  41  64  93 125 159 195 236 285
#
# _framework density 17.646273000000001
#
# number of rings (size 3 to 8) (size 9 to 14) (size 15 to 20)
#    0.000    2.667    0.000    3.500    0.000    6.000 
#    0.000    3.333    0.000    1.000    0.000    7.000 
#    0.000    0.000    0.000    0.000    0.000    0.000 
#
# Total GULP energy -595030.581912 kJ/mol
# GULP energy per Si atom -12396.470457 kJ/mol
# Density = 1.760611 g / cm^3
# Si number density = 17.646273 Si / 1000 Ang^3
#
#
#
# Elastic Constant Matrix: (Units=GPa)
#
#
# Indices 1 2 3 4 5 6 
#
# 1 119.8650 74.5252 61.2213 0.0000 0.0000 0.0000
# 2 74.5252 88.8633 54.7486 0.0000 0.0000 0.0000
# 3 61.2213 54.7486 107.4899 0.0000 0.0000 0.0000
# 4 0.0000 0.0000 0.0000 22.8538 0.0000 0.0000
# 5 0.0000 0.0000 0.0000 0.0000 29.4673 0.0000
# 6 0.0000 0.0000 0.0000 0.0000 0.0000 -1.0042
#
#
#
# Elastic Compliance Matrix: (Units=1/GPa)
#
#
# Indices 1 2 3 4 5 6 
#
# 1 0.018454 -0.013117 -0.003830 0.000000 0.000000 0.000000
# 2 -0.013117 0.025723 -0.005631 0.000000 0.000000 0.000000
# 3 -0.003830 -0.005631 0.014352 0.000000 0.000000 0.000000
# 4 0.000000 0.000000 0.000000 0.043756 0.000000 0.000000
# 5 0.000000 0.000000 0.000000 0.000000 0.033936 0.000000
# 6 0.000000 0.000000 0.000000 0.000000 0.000000 -0.995866
#
#
# Mechanical properties :
#
#
# Convention : Reuss Voigt Hill
#
# Bulk Modulus (GPa) = 74.76919 77.46757 76.11838
# Shear Modulus (GPa) = -6.17261 18.64493 6.23616
#
# Velocity S-wave (km/s) = -1.87231 3.25405 1.88193
# Velocity P-wave (km/s) = 6.14728 7.62326 6.92470
#
# Compressibility (1/GPa) = 0.01337449
#
# Stress axis : x y z
#
# Youngs Moduli (GPa) = 54.18811 38.87555 69.67527
#
# Poissons Ratio (x) = 0.50994 0.26683
# Poissons Ratio (y) = 0.71080 0.39232
# Poissons Ratio (z) = 0.20752 0.21890
#
# Static dielectric constant tensor:
#      x y z
#    x 3.550320 0.000000 0.000000 
#    y 0.000000 3.002870 0.000000 
#    z 0.000000 0.000000 3.418630 
# 
# 
# High freq. dielectric constant tensor:
#      x y z
#    x 1.695210 0.000000 0.000000 
#    y 0.000000 1.640070 0.000000 
#    z 0.000000 0.000000 1.687390 
# 
# From -- ./inp_files/7994.got.cif
#   From: 2010.03.12/outbox.cif.g09.slc.cpg/sg66_4_cif.got.tgz:7994.got - 2010.04.10 21:57:39.
