data_PCOD8276097
_publ_section_title
;
Structure prediction by ZEFSAII (Michael W. Deem and Ramdas Pophale) SiO2 
 PCOD8276097
Probable space group: C C C M
;
_chemical_formula_sum "Si O2"
_cell_formula_units_Z 96
_cell_length_a 27.265481
_cell_length_b 10.274894
_cell_length_c 18.218087
_cell_angle_alpha 90.000000
_cell_angle_beta 90.000000
_cell_angle_gamma 90.000000
_cell_volume 5103.795746
_symmetry_space_group_name_H-M "C C C M"
_symmetry_group_IT_number 66
_symmetry_cell_setting 'orthorhombic'
loop_
_space_group_symop_operation_xyz
x,y,z
-x,-y,z
x,-y,1/2-z
-x,y,1/2-z
-x,-y,-z
x,y,-z
-x,y,1/2+z
x,-y,1/2+z
1/2+x,1/2+y,z
1/2-x,1/2-y,z
1/2+x,1/2-y,1/2-z
1/2-x,1/2+y,1/2-z
1/2-x,1/2-y,-z
1/2+x,1/2+y,-z
1/2-x,1/2+y,1/2+z
1/2+x,1/2-y,1/2+z
loop_
_atom_site_type_symbol
_atom_site_label
_atom_site_fract_x
_atom_site_fract_y
_atom_site_fract_z
Si Si1 0.381762 0.751955 0.914169
Si Si2 0.774958 0.382645 0.587170
Si Si3 0.866618 0.520208 0.169568
Si Si4 0.281704 0.367578 0.413383
Si Si5 0.973690 0.625427 0.172368
Si Si6 0.513265 0.642657 0.414079
O O1 0.338190 0.653700 0.891330
O O2 0.430823 0.675002 0.894134
O O3 0.378551 0.884327 0.869270
O O4 0.378761 0.788645 0.000000
O O5 0.781375 0.385889 0.500000
O O6 0.750000 0.250000 0.613880
O O7 0.828850 0.396147 0.621515
O O8 0.739464 0.497071 0.617146
O O9 0.843207 0.500000 0.250000
O O10 0.916186 0.601606 0.181608
O O11 0.275298 0.368578 0.500000
O O12 0.250000 0.250000 0.379243
O O13 0.000000 0.500000 0.134539
O O14 0.000000 0.650489 0.250000
O O15 0.977967 0.751847 0.122271
O O16 0.500000 0.500000 0.383087
O O17 0.503080 0.648627 0.500000
#
# Coordination Sequence:
#
# PCOD8276097 Si02
#       6
#    16  16  16  16  16  16
#     4  10  19  34  59  85 111 153 199 234 287 356
#     4  10  22  40  60  87 120 153 193 245 304 358
#     4  12  22  37  60  86 117 152 201 250 292 352
#     4   9  16  31  57  82 105 142 188 225 273 344
#     4  11  21  40  61  84 116 163 204 242 297 359
#     4  10  22  37  56  90 126 149 190 255 304 347
#
# _framework density 18.809531
#
# number of rings (size 3 to 8) (size 9 to 14) (size 15 to 20)
#    0.000    1.667    5.000    0.500    0.000    3.333 
#    3.000    3.333    0.000    2.000    0.000    0.000 
#    0.000    0.000    0.000    0.000    0.000    0.000 
#
# Total GULP energy -595219.984016 kJ/mol
# GULP energy per Si atom -12400.416334 kJ/mol
# Density = 1.876672 g / cm^3
# Si number density = 18.809531 Si / 1000 Ang^3
#
#
#
# Elastic Constant Matrix: (Units=GPa)
#
#
# Indices 1 2 3 4 5 6 
#
# 1 130.5849 66.3549 39.4418 0.0000 0.0000 0.0000
# 2 66.3549 163.4232 44.9253 0.0000 0.0000 0.0000
# 3 39.4418 44.9253 49.3332 0.0000 0.0000 0.0000
# 4 0.0000 0.0000 0.0000 16.7384 0.0000 0.0000
# 5 0.0000 0.0000 0.0000 0.0000 25.0768 0.0000
# 6 0.0000 0.0000 0.0000 0.0000 0.0000 32.9235
#
#
#
# Elastic Compliance Matrix: (Units=1/GPa)
#
#
# Indices 1 2 3 4 5 6 
#
# 1 0.010930 -0.002716 -0.006266 0.000000 0.000000 0.000000
# 2 -0.002716 0.008837 -0.005876 0.000000 0.000000 0.000000
# 3 -0.006266 -0.005876 0.030631 0.000000 0.000000 0.000000
# 4 0.000000 0.000000 0.000000 0.059743 0.000000 0.000000
# 5 0.000000 0.000000 0.000000 0.000000 0.039877 0.000000
# 6 0.000000 0.000000 0.000000 0.000000 0.000000 0.030373
#
#
# Mechanical properties :
#
#
# Convention : Reuss Voigt Hill
#
# Bulk Modulus (GPa) = 48.34895 71.64281 59.99588
# Shear Modulus (GPa) = 23.04124 27.78904 25.41514
#
# Velocity S-wave (km/s) = 3.50376 3.84785 3.67983
# Velocity P-wave (km/s) = 6.49067 7.61003 7.07253
#
# Compressibility (1/GPa) = 0.02068297
#
# Stress axis : x y z
#
# Youngs Moduli (GPa) = 91.48937 113.15906 32.64648
#
# Poissons Ratio (x) = 0.30729 0.20456
# Poissons Ratio (y) = 0.24844 0.19185
# Poissons Ratio (z) = 0.57325 0.66497
#
# Static dielectric constant tensor:
#      x y z
#    x 3.631730 0.000000 0.000000 
#    y 0.000000 3.629370 0.000000 
#    z 0.000000 0.000000 3.246380 
# 
# 
# High freq. dielectric constant tensor:
#      x y z
#    x 1.741150 0.000000 0.000000 
#    y 0.000000 1.731260 0.000000 
#    z 0.000000 0.000000 1.706300 
# 
# From -- ./inp_files/52952.got.cif
#   From: 2010.03.12/outbox.cif.g09.slc.cpg/sg66_27_cif.got.tgz:52952.got - 2010.04.10 21:57:39.
