data_PCOD8276041
_publ_section_title
;
Structure prediction by ZEFSAII (Michael W. Deem and Ramdas Pophale) SiO2 
 PCOD8276041
Probable space group: C C C M
;
_chemical_formula_sum "Si O2"
_cell_formula_units_Z 96
_cell_length_a 18.818216
_cell_length_b 29.473153
_cell_length_c 9.023650
_cell_angle_alpha 90.000000
_cell_angle_beta 90.000000
_cell_angle_gamma 90.000000
_cell_volume 5004.806485
_symmetry_space_group_name_H-M "C C C M"
_symmetry_group_IT_number 66
_symmetry_cell_setting 'orthorhombic'
loop_
_space_group_symop_operation_xyz
x,y,z
-x,-y,z
x,-y,1/2-z
-x,y,1/2-z
-x,-y,-z
x,y,-z
-x,y,1/2+z
x,-y,1/2+z
1/2+x,1/2+y,z
1/2-x,1/2-y,z
1/2+x,1/2-y,1/2-z
1/2-x,1/2+y,1/2-z
1/2-x,1/2-y,-z
1/2+x,1/2+y,-z
1/2-x,1/2+y,1/2+z
1/2+x,1/2-y,1/2+z
loop_
_atom_site_type_symbol
_atom_site_label
_atom_site_fract_x
_atom_site_fract_y
_atom_site_fract_z
Si Si1 0.723978 0.797570 0.325731
Si Si2 0.571154 0.827845 0.668458
Si Si3 0.709036 0.957846 0.172981
Si Si4 0.930107 0.435304 0.830293
Si Si5 0.701802 0.611867 0.329762
Si Si6 0.574189 0.546541 0.325647
O O1 0.713571 0.792822 0.500000
O O2 0.750000 0.750000 0.255552
O O3 0.645467 0.809434 0.260229
O O4 0.786600 0.834781 0.294226
O O5 0.500000 0.809509 0.750000
O O6 0.563587 0.811480 0.500000
O O7 0.576142 0.881502 0.679840
O O8 0.630381 0.958895 0.236067
O O9 0.744525 0.911074 0.217013
O O10 0.750730 0.000000 0.250000
O O11 0.710029 0.964838 0.000000
O O12 0.000000 0.452974 0.750000
O O13 0.927252 0.451721 0.000000
O O14 0.724166 0.601838 0.500000
O O15 0.623989 0.590760 0.298771
O O16 0.603858 0.500000 0.250000
O O17 0.500000 0.559589 0.250000
O O18 0.564152 0.537259 0.500000
#
# Coordination Sequence:
#
# PCOD8276041 Si02
#       6
#    16  16  16  16  16  16
#     4   9  17  33  58  84 109 143 188 231 278 334
#     4   9  17  31  54  79 106 141 181 227 268 322
#     4  12  24  36  53  78 108 146 184 226 274 327
#     4  10  19  34  53  76 107 142 183 227 269 317
#     4  10  20  37  57  81 110 144 185 233 278 330
#     4  10  20  34  56  81 112 146 183 227 275 337
#
# _framework density 19.181560999999999
#
# number of rings (size 3 to 8) (size 9 to 14) (size 15 to 20)
#    0.000    2.000    1.667    3.500    0.000    3.667 
#    0.000    2.500    0.000    2.000    0.000    0.000 
#    0.000    0.000    0.000    0.000    0.000    0.000 
#
# Total GULP energy -594837.001886 kJ/mol
# GULP energy per Si atom -12392.437539 kJ/mol
# Density = 1.913790 g / cm^3
# Si number density = 19.181561 Si / 1000 Ang^3
#
#
#
# Elastic Constant Matrix: (Units=GPa)
#
#
# Indices 1 2 3 4 5 6 
#
# 1 120.4363 57.9999 42.9317 0.0000 0.0000 0.0000
# 2 57.9999 111.7876 43.4098 0.0000 0.0000 0.0000
# 3 42.9317 43.4098 112.7746 0.0000 0.0000 0.0000
# 4 0.0000 0.0000 0.0000 12.6730 0.0000 0.0000
# 5 0.0000 0.0000 0.0000 0.0000 28.3543 0.0000
# 6 0.0000 0.0000 0.0000 0.0000 0.0000 19.5087
#
#
#
# Elastic Compliance Matrix: (Units=1/GPa)
#
#
# Indices 1 2 3 4 5 6 
#
# 1 0.011628 -0.005072 -0.002474 0.000000 0.000000 0.000000
# 2 -0.005072 0.012730 -0.002969 0.000000 0.000000 0.000000
# 3 -0.002474 -0.002969 0.010952 0.000000 0.000000 0.000000
# 4 0.000000 0.000000 0.000000 0.078908 0.000000 0.000000
# 5 0.000000 0.000000 0.000000 0.000000 0.035268 0.000000
# 6 0.000000 0.000000 0.000000 0.000000 0.000000 0.051259
#
#
# Mechanical properties :
#
#
# Convention : Reuss Voigt Hill
#
# Bulk Modulus (GPa) = 70.03346 70.40903 70.22125
# Shear Modulus (GPa) = 22.07153 25.48433 23.77793
#
# Velocity S-wave (km/s) = 3.39582 3.64893 3.52465
# Velocity P-wave (km/s) = 7.20872 7.38507 7.29742
#
# Compressibility (1/GPa) = 0.01427889
#
# Stress axis : x y z
#
# Youngs Moduli (GPa) = 86.00111 78.55319 91.30711
#
# Poissons Ratio (x) = 0.39844 0.22590
# Poissons Ratio (y) = 0.43621 0.27112
# Poissons Ratio (z) = 0.21278 0.23325
#
# Static dielectric constant tensor:
#      x y z
#    x 3.646950 0.000000 0.000000 
#    y 0.000000 3.647910 0.000000 
#    z 0.000000 0.000000 3.392160 
# 
# 
# High freq. dielectric constant tensor:
#      x y z
#    x 1.750650 0.000000 0.000000 
#    y 0.000000 1.731930 0.000000 
#    z 0.000000 0.000000 1.730040 
# 
# From -- ./inp_files/7980.got.cif
#   From: 2010.03.12/outbox.cif.g09.slc.cpg/sg66_4_cif.got.tgz:7980.got - 2010.04.10 21:57:39.
