data_PCOD8276500
_publ_section_title
;
Structure prediction by ZEFSAII (Michael W. Deem and Ramdas Pophale) SiO2 
 PCOD8276500
Probable space group: C C C M
;
_chemical_formula_sum "Si O2"
_cell_formula_units_Z 80
_cell_length_a 28.687386
_cell_length_b 8.205679
_cell_length_c 17.132411
_cell_angle_alpha 90.000000
_cell_angle_beta 90.000000
_cell_angle_gamma 90.000000
_cell_volume 4032.960655
_symmetry_space_group_name_H-M "C C C M"
_symmetry_group_IT_number 66
_symmetry_cell_setting 'orthorhombic'
loop_
_space_group_symop_operation_xyz
x,y,z
-x,-y,z
x,-y,1/2-z
-x,y,1/2-z
-x,-y,-z
x,y,-z
-x,y,1/2+z
x,-y,1/2+z
1/2+x,1/2+y,z
1/2-x,1/2-y,z
1/2+x,1/2-y,1/2-z
1/2-x,1/2+y,1/2-z
1/2-x,1/2-y,-z
1/2+x,1/2+y,-z
1/2-x,1/2+y,1/2+z
1/2+x,1/2-y,1/2+z
loop_
_atom_site_type_symbol
_atom_site_label
_atom_site_fract_x
_atom_site_fract_y
_atom_site_fract_z
Si Si1 0.206652 0.862709 0.815969
Si Si2 0.626085 0.887947 0.680664
Si Si3 0.293518 0.655919 0.590083
Si Si4 0.390306 0.194892 0.908577
Si Si5 0.445865 0.683276 0.266995
O O1 0.250000 0.750000 0.793327
O O2 0.162842 0.752055 0.836485
O O3 0.196795 0.000000 0.750000
O O4 0.214906 0.964494 0.895139
O O5 0.577985 0.806024 0.706689
O O6 0.646267 0.000000 0.750000
O O7 0.615870 0.000446 0.605023
O O8 0.294065 0.696913 0.500000
O O9 0.250000 0.750000 0.630191
O O10 0.343078 0.718175 0.623367
O O11 0.432469 0.267803 0.856304
O O12 0.400564 0.228320 0.000000
O O13 0.429089 0.500000 0.250000
O O14 0.500000 0.702708 0.250000
#
# Coordination Sequence:
#
# PCOD8276500 Si02
#       5
#    16  16  16  16  16
#     4  12  22  33  53  81 112 149 195 242 281 331
#     4  10  20  35  55  79 110 147 185 230 288 344
#     4  10  21  37  55  77 112 153 187 227 283 337
#     4  10  21  38  60  87 117 149 192 243 288 341
#     4  10  21  40  62  83 111 151 190 230 290 355
#
# _framework density 19.836542999999999
#
# number of rings (size 3 to 8) (size 9 to 14) (size 15 to 20)
#    0.000    1.600    0.000    6.600    0.000    4.800 
#    0.000    5.000    0.000    0.000    0.000    0.000 
#    0.000    0.000    0.000    0.000    0.000    0.000 
#
# Total GULP energy -495861.438731 kJ/mol
# GULP energy per Si atom -12396.535968 kJ/mol
# Density = 1.979139 g / cm^3
# Si number density = 19.836543 Si / 1000 Ang^3
#
#
#
# Elastic Constant Matrix: (Units=GPa)
#
#
# Indices 1 2 3 4 5 6 
#
# 1 108.8090 53.3697 50.6229 0.0000 0.0000 0.0000
# 2 53.3697 144.8146 42.9081 0.0000 0.0000 0.0000
# 3 50.6229 42.9081 76.9759 0.0000 0.0000 0.0000
# 4 0.0000 0.0000 0.0000 29.4143 0.0000 0.0000
# 5 0.0000 0.0000 0.0000 0.0000 20.3008 0.0000
# 6 0.0000 0.0000 0.0000 0.0000 0.0000 39.7824
#
#
#
# Elastic Compliance Matrix: (Units=1/GPa)
#
#
# Indices 1 2 3 4 5 6 
#
# 1 0.014228 -0.002960 -0.007707 0.000000 0.000000 0.000000
# 2 -0.002960 0.008887 -0.003007 0.000000 0.000000 0.000000
# 3 -0.007707 -0.003007 0.019736 0.000000 0.000000 0.000000
# 4 0.000000 0.000000 0.000000 0.033997 0.000000 0.000000
# 5 0.000000 0.000000 0.000000 0.000000 0.049259 0.000000
# 6 0.000000 0.000000 0.000000 0.000000 0.000000 0.025137
#
#
# Mechanical properties :
#
#
# Convention : Reuss Voigt Hill
#
# Bulk Modulus (GPa) = 64.50573 69.37786 66.94180
# Shear Modulus (GPa) = 27.20938 30.14609 28.67774
#
# Velocity S-wave (km/s) = 3.70764 3.90259 3.80636
# Velocity P-wave (km/s) = 7.13568 7.44028 7.28957
#
# Compressibility (1/GPa) = 0.01550250
#
# Stress axis : x y z
#
# Youngs Moduli (GPa) = 70.28460 112.51988 50.66913
#
# Poissons Ratio (x) = 0.33306 0.39050
# Poissons Ratio (y) = 0.20804 0.15238
# Poissons Ratio (z) = 0.54168 0.33839
#
# Static dielectric constant tensor:
#      x y z
#    x 3.619110 0.000000 0.000000 
#    y 0.000000 4.094170 0.000000 
#    z 0.000000 0.000000 3.469260 
# 
# 
# High freq. dielectric constant tensor:
#      x y z
#    x 1.770380 0.000000 0.000000 
#    y 0.000000 1.792350 0.000000 
#    z 0.000000 0.000000 1.759020 
# 
# From -- ./inp_files/44116.got.cif
#   From: 2010.03.12/outbox.cif.g09.slc.cpg/sg66_23_cif.got.tgz:44116.got - 2010.04.10 21:57:39.
