data_PCOD8276785
_publ_section_title
;
Structure prediction by ZEFSAII (Michael W. Deem and Ramdas Pophale) SiO2 
 PCOD8276785
Probable space group: C C C M
;
_chemical_formula_sum "Si O2"
_cell_formula_units_Z 88
_cell_length_a 11.349349
_cell_length_b 23.256745
_cell_length_c 17.176985
_cell_angle_alpha 90.000000
_cell_angle_beta 90.000000
_cell_angle_gamma 90.000000
_cell_volume 4533.846564
_symmetry_space_group_name_H-M "C C C M"
_symmetry_group_IT_number 66
_symmetry_cell_setting 'orthorhombic'
loop_
_space_group_symop_operation_xyz
x,y,z
-x,-y,z
x,-y,1/2-z
-x,y,1/2-z
-x,-y,-z
x,y,-z
-x,y,1/2+z
x,-y,1/2+z
1/2+x,1/2+y,z
1/2-x,1/2-y,z
1/2+x,1/2-y,1/2-z
1/2-x,1/2+y,1/2-z
1/2-x,1/2-y,-z
1/2+x,1/2+y,-z
1/2-x,1/2+y,1/2+z
1/2+x,1/2-y,1/2+z
loop_
_atom_site_type_symbol
_atom_site_label
_atom_site_fract_x
_atom_site_fract_y
_atom_site_fract_z
Si Si1 0.283257 0.350937 0.500000
Si Si2 0.149898 0.846571 0.654643
Si Si3 0.750000 0.250000 0.751874
Si Si4 0.077968 0.220181 0.624154
Si Si5 0.265165 0.181049 0.000000
Si Si6 0.867074 0.977507 0.830894
Si Si7 0.636659 0.517797 0.500000
Si Si8 0.525062 0.189853 0.000000
O O1 0.324614 0.315979 0.576087
O O2 0.341016 0.413717 0.500000
O O3 0.139639 0.351915 0.500000
O O4 0.243893 0.808039 0.701572
O O5 0.195425 0.848831 0.568144
O O6 0.141494 0.910335 0.686037
O O7 0.018716 0.821925 0.658918
O O8 0.865531 0.253742 0.804250
O O9 0.017816 0.269293 0.574255
O O10 0.250000 0.250000 0.000000
O O11 0.399937 0.157376 0.000000
O O12 0.805556 0.000000 0.750000
O O13 0.000000 0.000000 0.833692
O O14 0.809229 0.994399 0.916459
O O15 0.500000 0.500000 0.500000
#
# Coordination Sequence:
#
# PCOD8276785 Si02
#       8
#     8  16   8  16   8  16   8   8
#     4  11  21  35  63  88 123 167 204 275 318 382
#     4  12  24  39  63  89 129 168 212 268 312 398
#     4  12  24  32  54  94 130 172 196 250 340 378
#     4  11  20  36  56  88 128 165 208 252 319 387
#     4  12  21  42  60  88 120 168 217 258 323 388
#     4  10  23  38  60  94 123 165 213 268 326 371
#     4  10  20  38  58  89 119 157 211 262 327 376
#     4  11  20  37  58  88 126 161 210 254 322 395
#
# _framework density 19.409566999999999
#
# number of rings (size 3 to 8) (size 9 to 14) (size 15 to 20)
#    0.000    0.909    4.545    4.364    7.636    0.000 
#    0.000    0.000    0.000    2.182    0.000    1.273 
#    0.000    0.000    0.000    0.000    0.000    0.000 
#
# Total GULP energy -545174.031710 kJ/mol
# GULP energy per Si atom -12390.318903 kJ/mol
# Density = 1.936539 g / cm^3
# Si number density = 19.409567 Si / 1000 Ang^3
#
#
#
# Elastic Constant Matrix: (Units=GPa)
#
#
# Indices 1 2 3 4 5 6 
#
# 1 89.5441 30.9704 23.8198 0.0000 0.0000 0.0000
# 2 30.9704 128.2651 45.7331 0.0000 0.0000 0.0000
# 3 23.8198 45.7331 154.6679 0.0000 0.0000 0.0000
# 4 0.0000 0.0000 0.0000 0.7711 0.0000 0.0000
# 5 0.0000 0.0000 0.0000 0.0000 18.4967 0.0000
# 6 0.0000 0.0000 0.0000 0.0000 0.0000 29.1659
#
#
#
# Elastic Compliance Matrix: (Units=1/GPa)
#
#
# Indices 1 2 3 4 5 6 
#
# 1 0.012363 -0.002578 -0.001142 0.000000 0.000000 0.000000
# 2 -0.002578 0.009253 -0.002339 0.000000 0.000000 0.000000
# 3 -0.001142 -0.002339 0.007333 0.000000 0.000000 0.000000
# 4 0.000000 0.000000 0.000000 1.296930 0.000000 0.000000
# 5 0.000000 0.000000 0.000000 0.000000 0.054064 0.000000
# 6 0.000000 0.000000 0.000000 0.000000 0.000000 0.034287
#
#
# Mechanical properties :
#
#
# Convention : Reuss Voigt Hill
#
# Bulk Modulus (GPa) = 59.41266 63.72487 61.56876
# Shear Modulus (GPa) = 3.49173 27.81700 15.65436
#
# Velocity S-wave (km/s) = 1.34271 3.78982 2.84302
# Velocity P-wave (km/s) = 5.75155 7.21479 6.52432
#
# Compressibility (1/GPa) = 0.01683143
#
# Stress axis : x y z
#
# Youngs Moduli (GPa) = 80.88620 108.07576 136.37233
#
# Poissons Ratio (x) = 0.27863 0.15569
# Poissons Ratio (y) = 0.20853 0.31896
# Poissons Ratio (z) = 0.09235 0.25278
#
# Static dielectric constant tensor:
#      x y z
#    x 3.304850 0.000000 0.000000 
#    y 0.000000 3.521380 0.000000 
#    z 0.000000 0.000000 4.314420 
# 
# 
# High freq. dielectric constant tensor:
#      x y z
#    x 1.721200 0.000000 0.000000 
#    y 0.000000 1.739570 0.000000 
#    z 0.000000 0.000000 1.788110 
# 
# From -- ./inp_files/38723.got.cif
#   From: 2010.03.12/outbox.cif.g09.slc.cpg/sg66_20_cif.got.tgz:38723.got - 2010.04.10 21:57:39.
