data_PCOD8276318
_publ_section_title
;
Structure prediction by ZEFSAII (Michael W. Deem and Ramdas Pophale) SiO2 
 PCOD8276318
Probable space group: C C C M
;
_chemical_formula_sum "Si O2"
_cell_formula_units_Z 80
_cell_length_a 27.813926
_cell_length_b 20.196247
_cell_length_c 8.903750
_cell_angle_alpha 90.000000
_cell_angle_beta 90.000000
_cell_angle_gamma 90.000000
_cell_volume 5001.565097
_symmetry_space_group_name_H-M "C C C M"
_symmetry_group_IT_number 66
_symmetry_cell_setting 'orthorhombic'
loop_
_space_group_symop_operation_xyz
x,y,z
-x,-y,z
x,-y,1/2-z
-x,y,1/2-z
-x,-y,-z
x,y,-z
-x,y,1/2+z
x,-y,1/2+z
1/2+x,1/2+y,z
1/2-x,1/2-y,z
1/2+x,1/2-y,1/2-z
1/2-x,1/2+y,1/2-z
1/2-x,1/2-y,-z
1/2+x,1/2+y,-z
1/2-x,1/2+y,1/2+z
1/2+x,1/2-y,1/2+z
loop_
_atom_site_type_symbol
_atom_site_label
_atom_site_fract_x
_atom_site_fract_y
_atom_site_fract_z
Si Si1 0.810174 0.876292 0.832673
Si Si2 0.899532 0.931543 0.678958
Si Si3 0.774495 0.321535 0.167548
Si Si4 0.357924 0.233720 0.834664
Si Si5 0.550090 0.307038 0.679287
O O1 0.844101 0.920312 0.726594
O O2 0.756300 0.873385 0.765855
O O3 0.830584 0.802947 0.841387
O O4 0.808550 0.907479 0.000000
O O5 0.903615 0.932775 0.500000
O O6 0.934160 0.875557 0.745242
O O7 0.917894 0.000000 0.750000
O O8 0.750000 0.250000 0.171389
O O9 0.829302 0.316586 0.227240
O O10 0.776706 0.349710 0.000000
O O11 0.412096 0.248700 0.778430
O O12 0.358864 0.201587 0.000000
O O13 0.500000 0.284073 0.750000
O O14 0.547291 0.316908 0.500000
#
# Coordination Sequence:
#
# PCOD8276318 Si02
#       5
#    16  16  16  16  16
#     4   9  16  27  41  57  77  99 123 153 192 234
#     4  11  21  33  46  59  76  99 131 169 207 243
#     4   9  15  22  36  58  79  98 121 149 184 228
#     4   8  15  26  39  55  76  99 122 152 191 234
#     4  10  20  33  46  60  77 100 132 169 208 243
#
# _framework density 15.994994
#
# number of rings (size 3 to 8) (size 9 to 14) (size 15 to 20)
#    0.000    2.600    0.000    4.800    0.000    8.400 
#    0.000    2.000    0.000    0.000    0.000    0.000 
#    0.000    0.000    0.000    0.000    0.000    1.000 
#
# Total GULP energy -495812.422718 kJ/mol
# GULP energy per Si atom -12395.310568 kJ/mol
# Density = 1.595859 g / cm^3
# Si number density = 15.994994 Si / 1000 Ang^3
#
#
#
# Elastic Constant Matrix: (Units=GPa)
#
#
# Indices 1 2 3 4 5 6 
#
# 1 125.0091 17.8441 53.9261 0.0000 0.0000 0.0000
# 2 17.8441 3.7634 8.2176 0.0000 0.0000 0.0000
# 3 53.9261 8.2176 118.1581 0.0000 0.0000 0.0000
# 4 0.0000 0.0000 0.0000 16.1249 0.0000 0.0000
# 5 0.0000 0.0000 0.0000 0.0000 28.7948 0.0000
# 6 0.0000 0.0000 0.0000 0.0000 0.0000 11.6830
#
#
#
# Elastic Compliance Matrix: (Units=1/GPa)
#
#
# Indices 1 2 3 4 5 6 
#
# 1 0.026201 -0.115690 -0.003912 0.000000 0.000000 0.000000
# 2 -0.115690 0.824127 -0.004516 0.000000 0.000000 0.000000
# 3 -0.003912 -0.004516 0.010563 0.000000 0.000000 0.000000
# 4 0.000000 0.000000 0.000000 0.062016 0.000000 0.000000
# 5 0.000000 0.000000 0.000000 0.000000 0.034729 0.000000
# 6 0.000000 0.000000 0.000000 0.000000 0.000000 0.085595
#
#
# Mechanical properties :
#
#
# Convention : Reuss Voigt Hill
#
# Bulk Modulus (GPa) = 1.63224 45.21178 23.42201
# Shear Modulus (GPa) = 3.34295 22.45005 12.89650
#
# Velocity S-wave (km/s) = 1.44725 3.75049 2.84259
# Velocity P-wave (km/s) = 1.95331 6.86166 5.04469
#
# Compressibility (1/GPa) = 0.61265501
#
# Stress axis : x y z
#
# Youngs Moduli (GPa) = 38.16691 1.21341 94.67327
#
# Poissons Ratio (x) = 0.14038 0.37035
# Poissons Ratio (y) = 4.41552 0.42757
# Poissons Ratio (z) = 0.14930 0.00548
#
# Static dielectric constant tensor:
#      x y z
#    x 3.206490 0.000000 0.000000 
#    y 0.000000 2.540250 0.000000 
#    z 0.000000 0.000000 3.260260 
# 
# 
# High freq. dielectric constant tensor:
#      x y z
#    x 1.609420 0.000000 0.000000 
#    y 0.000000 1.540800 0.000000 
#    z 0.000000 0.000000 1.633960 
# 
# From -- ./inp_files/6688.got.cif
#   From: 2010.03.12/outbox.cif.g09.slc.cpg/sg66_4_cif.got.tgz:6688.got - 2010.04.10 21:57:39.
