data_PCOD8276990
_publ_section_title
;
Structure prediction by ZEFSAII (Michael W. Deem and Ramdas Pophale) SiO2 
 PCOD8276990
Probable space group: C C C M
;
_chemical_formula_sum "Si O2"
_cell_formula_units_Z 104
_cell_length_a 23.838885
_cell_length_b 9.064805
_cell_length_c 25.722624
_cell_angle_alpha 90.000000
_cell_angle_beta 90.000000
_cell_angle_gamma 90.000000
_cell_volume 5558.526419
_symmetry_space_group_name_H-M "C C C M"
_symmetry_group_IT_number 66
_symmetry_cell_setting 'orthorhombic'
loop_
_space_group_symop_operation_xyz
x,y,z
-x,-y,z
x,-y,1/2-z
-x,y,1/2-z
-x,-y,-z
x,y,-z
-x,y,1/2+z
x,-y,1/2+z
1/2+x,1/2+y,z
1/2-x,1/2-y,z
1/2+x,1/2-y,1/2-z
1/2-x,1/2+y,1/2-z
1/2-x,1/2-y,-z
1/2+x,1/2+y,-z
1/2-x,1/2+y,1/2+z
1/2+x,1/2-y,1/2+z
loop_
_atom_site_type_symbol
_atom_site_label
_atom_site_fract_x
_atom_site_fract_y
_atom_site_fract_z
Si Si1 0.375713 0.270135 0.829817
Si Si2 0.958176 0.131151 0.940040
Si Si3 0.405625 0.258525 0.287500
Si Si4 0.647636 0.565544 0.380152
Si Si5 0.750000 0.750000 0.369970
Si Si6 0.680089 0.021008 0.194690
Si Si7 0.503071 0.174158 0.646478
O O1 0.393511 0.315431 0.770882
O O2 0.343474 0.395673 0.863060
O O3 0.433490 0.228982 0.858075
O O4 0.331811 0.135347 0.832455
O O5 0.895583 0.075952 0.927585
O O6 0.971599 0.275270 0.906036
O O7 0.963006 0.175665 0.000000
O O8 0.000000 0.000000 0.924777
O O9 0.374844 0.366721 0.326798
O O10 0.380332 0.095196 0.294749
O O11 0.471528 0.245922 0.303101
O O12 0.702928 0.654988 0.400906
O O13 0.720737 0.876907 0.337389
O O14 0.711072 0.000000 0.250000
O O15 0.500000 0.000000 0.650299
#
# Coordination Sequence:
#
# PCOD8276990 Si02
#       7
#    16  16  16  16   8  16  16
#     4  11  19  31  51  83 112 154 190 223 268 330
#     4  10  21  40  62  85 110 141 181 232 294 353
#     4   9  19  31  48  77 120 152 184 223 267 326
#     4  10  21  37  55  81 108 148 190 233 280 334
#     4  10  22  38  53  74 110 148 190 246 281 322
#     4   9  19  32  49  73 106 151 195 226 265 312
#     4  11  20  32  54  83 119 150 185 223 280 339
#
# _framework density 18.709994999999999
#
# number of rings (size 3 to 8) (size 9 to 14) (size 15 to 20)
#    0.000    2.000    3.077    0.923    0.000    5.231 
#    0.000    1.923    0.000    0.000    0.000    1.077 
#    0.000    0.000    0.000    0.000    0.000    0.000 
#
# Total GULP energy -644410.971039 kJ/mol
# GULP energy per Si atom -12392.518674 kJ/mol
# Density = 1.866741 g / cm^3
# Si number density = 18.709995 Si / 1000 Ang^3
#
#
#
# Elastic Constant Matrix: (Units=GPa)
#
#
# Indices 1 2 3 4 5 6 
#
# 1 100.8979 35.1791 15.9926 0.0000 0.0000 0.0000
# 2 35.1791 83.0006 7.6853 0.0000 0.0000 0.0000
# 3 15.9926 7.6853 49.7765 0.0000 0.0000 0.0000
# 4 0.0000 0.0000 0.0000 13.9854 0.0000 0.0000
# 5 0.0000 0.0000 0.0000 0.0000 -2.6126 0.0000
# 6 0.0000 0.0000 0.0000 0.0000 0.0000 29.7310
#
#
#
# Elastic Compliance Matrix: (Units=1/GPa)
#
#
# Indices 1 2 3 4 5 6 
#
# 1 0.012095 -0.004835 -0.003139 0.000000 0.000000 0.000000
# 2 -0.004835 0.014156 -0.000632 0.000000 0.000000 0.000000
# 3 -0.003139 -0.000632 0.021196 0.000000 0.000000 0.000000
# 4 0.000000 0.000000 0.000000 0.071503 0.000000 0.000000
# 5 0.000000 0.000000 0.000000 0.000000 -0.382763 0.000000
# 6 0.000000 0.000000 0.000000 0.000000 0.000000 0.033635
#
#
# Mechanical properties :
#
#
# Convention : Reuss Voigt Hill
#
# Bulk Modulus (GPa) = 33.07641 39.04324 36.05983
# Shear Modulus (GPa) = -24.64431 19.87529 -2.38451
#
# Velocity S-wave (km/s) = -3.63323 3.26280 -1.13014
# Velocity P-wave (km/s) = 0.34120 5.92515 4.19665
#
# Compressibility (1/GPa) = 0.03023302
#
# Stress axis : x y z
#
# Youngs Moduli (GPa) = 82.68200 70.64081 47.17873
#
# Poissons Ratio (x) = 0.34158 0.14811
# Poissons Ratio (y) = 0.39981 0.02982
# Poissons Ratio (z) = 0.25956 0.04465
#
# Static dielectric constant tensor:
#      x y z
#    x 3.574230 0.000000 0.000000 
#    y 0.000000 3.599350 0.000000 
#    z 0.000000 0.000000 3.050990 
# 
# 
# High freq. dielectric constant tensor:
#      x y z
#    x 1.725120 0.000000 0.000000 
#    y 0.000000 1.737620 0.000000 
#    z 0.000000 0.000000 1.683040 
# 
# From -- ./inp_files/62672.got.cif
#   From: 2010.03.12/outbox.cif.g09.slc.cpg/sg66_32_cif.got.tgz:62672.got - 2010.04.10 21:57:39.
