data_PCOD8276834
_publ_section_title
;
Structure prediction by ZEFSAII (Michael W. Deem and Ramdas Pophale) SiO2 
 PCOD8276834
Probable space group: C C C M
;
_chemical_formula_sum "Si O2"
_cell_formula_units_Z 80
_cell_length_a 24.637189
_cell_length_b 9.030248
_cell_length_c 18.506073
_cell_angle_alpha 90.000000
_cell_angle_beta 90.000000
_cell_angle_gamma 90.000000
_cell_volume 4117.229764
_symmetry_space_group_name_H-M "C C C M"
_symmetry_group_IT_number 66
_symmetry_cell_setting 'orthorhombic'
loop_
_space_group_symop_operation_xyz
x,y,z
-x,-y,z
x,-y,1/2-z
-x,y,1/2-z
-x,-y,-z
x,y,-z
-x,y,1/2+z
x,-y,1/2+z
1/2+x,1/2+y,z
1/2-x,1/2-y,z
1/2+x,1/2-y,1/2-z
1/2-x,1/2+y,1/2-z
1/2-x,1/2-y,-z
1/2+x,1/2+y,-z
1/2-x,1/2+y,1/2+z
1/2+x,1/2-y,1/2+z
loop_
_atom_site_type_symbol
_atom_site_label
_atom_site_fract_x
_atom_site_fract_y
_atom_site_fract_z
Si Si1 0.209701 0.381900 0.185271
Si Si2 0.703352 0.130981 0.083872
Si Si3 0.912734 0.655898 0.654180
Si Si4 0.089832 0.320523 0.818143
Si Si5 0.992244 0.826782 0.080958
O O1 0.202671 0.500000 0.250000
O O2 0.250000 0.250000 0.205629
O O3 0.226768 0.474985 0.114252
O O4 0.153436 0.301371 0.167966
O O5 0.750000 0.250000 0.097183
O O6 0.649085 0.177980 0.127102
O O7 0.688959 0.112841 0.000000
O O8 0.921127 0.718599 0.734663
O O9 0.929002 0.483762 0.657498
O O10 0.952704 0.742303 0.601557
O O11 0.057548 0.205424 0.866395
O O12 0.976813 0.777174 0.000000
O O13 0.000000 0.000000 0.085336
#
# Coordination Sequence:
#
# PCOD8276834 Si02
#       5
#    16  16  16  16  16
#     4  11  22  40  63  92 124 162 204 257 310 372
#     4  10  21  38  62  93 128 166 206 253 308 369
#     4  10  20  39  63  88 118 159 208 254 300 364
#     4  10  21  39  62  91 116 154 209 256 297 365
#     4  11  25  41  57  86 126 164 204 255 312 367
#
# _framework density 19.430541000000002
#
# number of rings (size 3 to 8) (size 9 to 14) (size 15 to 20)
#    0.000    1.600    4.000    2.400    0.000   10.000 
#    0.000    2.000    0.000    0.000    0.000    0.000 
#    0.000    0.000    0.000    0.000    0.000    0.000 
#
# Total GULP energy -495979.038919 kJ/mol
# GULP energy per Si atom -12399.475973 kJ/mol
# Density = 1.938632 g / cm^3
# Si number density = 19.430541 Si / 1000 Ang^3
#
#
#
# Elastic Constant Matrix: (Units=GPa)
#
#
# Indices 1 2 3 4 5 6 
#
# 1 104.4550 47.3503 56.3868 0.0000 0.0000 0.0000
# 2 47.3503 60.4213 51.3997 0.0000 0.0000 0.0000
# 3 56.3868 51.3997 148.3724 0.0000 0.0000 0.0000
# 4 0.0000 0.0000 0.0000 32.6215 0.0000 0.0000
# 5 0.0000 0.0000 0.0000 0.0000 31.1351 0.0000
# 6 0.0000 0.0000 0.0000 0.0000 0.0000 32.4578
#
#
#
# Elastic Compliance Matrix: (Units=1/GPa)
#
#
# Indices 1 2 3 4 5 6 
#
# 1 0.015416 -0.010062 -0.002373 0.000000 0.000000 0.000000
# 2 -0.010062 0.030034 -0.006580 0.000000 0.000000 0.000000
# 3 -0.002373 -0.006580 0.009921 0.000000 0.000000 0.000000
# 4 0.000000 0.000000 0.000000 0.030655 0.000000 0.000000
# 5 0.000000 0.000000 0.000000 0.000000 0.032118 0.000000
# 6 0.000000 0.000000 0.000000 0.000000 0.000000 0.030809
#
#
# Mechanical properties :
#
#
# Convention : Reuss Voigt Hill
#
# Bulk Modulus (GPa) = 57.67078 69.28024 63.47551
# Shear Modulus (GPa) = 25.93854 29.78368 27.86111
#
# Velocity S-wave (km/s) = 3.65764 3.91938 3.79077
# Velocity P-wave (km/s) = 6.89802 7.49765 7.20408
#
# Compressibility (1/GPa) = 0.01733980
#
# Stress axis : x y z
#
# Youngs Moduli (GPa) = 64.86905 33.29573 100.79542
#
# Poissons Ratio (x) = 0.33503 0.23915
# Poissons Ratio (y) = 0.65274 0.66327
# Poissons Ratio (z) = 0.15391 0.21910
#
# Static dielectric constant tensor:
#      x y z
#    x 3.501690 0.000000 0.000000 
#    y 0.000000 3.424630 0.000000 
#    z 0.000000 0.000000 3.818760 
# 
# 
# High freq. dielectric constant tensor:
#      x y z
#    x 1.762110 0.000000 0.000000 
#    y 0.000000 1.744000 0.000000 
#    z 0.000000 0.000000 1.771160 
# 
# From -- ./inp_files/44086.got.cif
#   From: 2010.03.12/outbox.cif.g09.slc.cpg/sg66_23_cif.got.tgz:44086.got - 2010.04.10 21:57:39.
