data_PCOD8276825
_publ_section_title
;
Structure prediction by ZEFSAII (Michael W. Deem and Ramdas Pophale) SiO2 
 PCOD8276825
Probable space group: C C C M
;
_chemical_formula_sum "Si O2"
_cell_formula_units_Z 96
_cell_length_a 21.392847
_cell_length_b 9.627963
_cell_length_c 24.449103
_cell_angle_alpha 90.000000
_cell_angle_beta 90.000000
_cell_angle_gamma 90.000000
_cell_volume 5035.770483
_symmetry_space_group_name_H-M "C C C M"
_symmetry_group_IT_number 66
_symmetry_cell_setting 'orthorhombic'
loop_
_space_group_symop_operation_xyz
x,y,z
-x,-y,z
x,-y,1/2-z
-x,y,1/2-z
-x,-y,-z
x,y,-z
-x,y,1/2+z
x,-y,1/2+z
1/2+x,1/2+y,z
1/2-x,1/2-y,z
1/2+x,1/2-y,1/2-z
1/2-x,1/2+y,1/2-z
1/2-x,1/2-y,-z
1/2+x,1/2+y,-z
1/2-x,1/2+y,1/2+z
1/2+x,1/2-y,1/2+z
loop_
_atom_site_type_symbol
_atom_site_label
_atom_site_fract_x
_atom_site_fract_y
_atom_site_fract_z
Si Si1 0.313694 0.535653 0.127443
Si Si2 0.668082 0.037425 0.128390
Si Si3 0.126065 0.243928 0.837278
Si Si4 0.987452 0.837573 0.344216
Si Si5 0.634697 0.739461 0.712307
Si Si6 0.896696 0.765431 0.563273
O O1 0.240980 0.533283 0.114822
O O2 0.343395 0.383238 0.130246
O O3 0.326046 0.615782 0.184342
O O4 0.346128 0.616149 0.077390
O O5 0.654090 0.113970 0.185762
O O6 0.631649 0.115967 0.079771
O O7 0.644905 0.880969 0.130636
O O8 0.152264 0.244389 0.775640
O O9 0.051470 0.243135 0.835840
O O10 0.938978 0.791370 0.296911
O O11 0.959926 0.797413 0.403426
O O12 0.000000 0.000000 0.339611
O O13 0.913796 0.767030 0.500000
#
# Coordination Sequence:
#
# PCOD8276825 Si02
#       6
#    16  16  16  16  16  16
#     4  10  21  37  58  88 115 152 198 238 275 339
#     4  10  23  38  54  87 124 149 195 236 279 344
#     4  12  21  35  57  87 123 156 183 235 290 331
#     4  10  20  39  58  89 115 144 197 246 279 341
#     4  10  21  34  58  83 118 166 194 220 275 345
#     4  10  22  43  67  82 104 152 197 242 300 348
#
# _framework density 19.063616
#
# number of rings (size 3 to 8) (size 9 to 14) (size 15 to 20)
#    0.000    2.000    3.333    4.000    0.000    9.000 
#    0.000    5.833    0.000    2.000    0.000    0.000 
#    0.000    0.000    0.000    0.000    0.000    0.000 
#
# Total GULP energy -595276.662199 kJ/mol
# GULP energy per Si atom -12401.597129 kJ/mol
# Density = 1.902023 g / cm^3
# Si number density = 19.063616 Si / 1000 Ang^3
#
#
#
# Elastic Constant Matrix: (Units=GPa)
#
#
# Indices 1 2 3 4 5 6 
#
# 1 61.4005 10.8318 -9.1964 0.0000 0.0000 0.0000
# 2 10.8318 130.7981 16.0646 0.0000 0.0000 0.0000
# 3 -9.1964 16.0646 73.5130 0.0000 0.0000 0.0000
# 4 0.0000 0.0000 0.0000 9.5924 0.0000 0.0000
# 5 0.0000 0.0000 0.0000 0.0000 8.3852 0.0000
# 6 0.0000 0.0000 0.0000 0.0000 0.0000 9.5210
#
#
#
# Elastic Compliance Matrix: (Units=1/GPa)
#
#
# Indices 1 2 3 4 5 6 
#
# 1 0.016962 -0.001711 0.002496 0.000000 0.000000 0.000000
# 2 -0.001711 0.008029 -0.001969 0.000000 0.000000 0.000000
# 3 0.002496 -0.001969 0.014345 0.000000 0.000000 0.000000
# 4 0.000000 0.000000 0.000000 0.104249 0.000000 0.000000
# 5 0.000000 0.000000 0.000000 0.000000 0.119258 0.000000
# 6 0.000000 0.000000 0.000000 0.000000 0.000000 0.105031
#
#
# Mechanical properties :
#
#
# Convention : Reuss Voigt Hill
#
# Bulk Modulus (GPa) = 27.04991 33.45684 30.25338
# Shear Modulus (GPa) = 13.06965 22.03383 17.55174
#
# Velocity S-wave (km/s) = 2.62120 3.40340 3.03758
# Velocity P-wave (km/s) = 4.83539 5.74738 5.31100
#
# Compressibility (1/GPa) = 0.03696870
#
# Stress axis : x y z
#
# Youngs Moduli (GPa) = 58.95452 124.55052 69.70848
#
# Poissons Ratio (x) = 0.21314 -0.17399
# Poissons Ratio (y) = 0.10089 0.13723
# Poissons Ratio (z) = -0.14715 0.24519
#
# Static dielectric constant tensor:
#      x y z
#    x 3.924280 0.000000 0.000000 
#    y 0.000000 3.550720 0.000000 
#    z 0.000000 0.000000 3.136850 
# 
# 
# High freq. dielectric constant tensor:
#      x y z
#    x 1.752720 0.000000 0.000000 
#    y 0.000000 1.748950 0.000000 
#    z 0.000000 0.000000 1.711450 
# 
# From -- ./inp_files/65682.got.cif
#   From: 2010.03.12/outbox.cif.g09.slc.cpg/sg66_33_cif.got.tgz:65682.got - 2010.04.10 21:57:39.
