data_PCOD8276021
_publ_section_title
;
Structure prediction by ZEFSAII (Michael W. Deem and Ramdas Pophale) SiO2 
 PCOD8276021
Probable space group: C C C M
;
_chemical_formula_sum "Si O2"
_cell_formula_units_Z 52
_cell_length_a 16.168840
_cell_length_b 10.517652
_cell_length_c 13.655556
_cell_angle_alpha 90.000000
_cell_angle_beta 90.000000
_cell_angle_gamma 90.000000
_cell_volume 2322.239715
_symmetry_space_group_name_H-M "C C C M"
_symmetry_group_IT_number 66
_symmetry_cell_setting 'orthorhombic'
loop_
_space_group_symop_operation_xyz
x,y,z
-x,-y,z
x,-y,1/2-z
-x,y,1/2-z
-x,-y,-z
x,y,-z
-x,y,1/2+z
x,-y,1/2+z
1/2+x,1/2+y,z
1/2-x,1/2-y,z
1/2+x,1/2-y,1/2-z
1/2-x,1/2+y,1/2-z
1/2-x,1/2-y,-z
1/2+x,1/2+y,-z
1/2-x,1/2+y,1/2+z
1/2+x,1/2-y,1/2+z
loop_
_atom_site_type_symbol
_atom_site_label
_atom_site_fract_x
_atom_site_fract_y
_atom_site_fract_z
Si Si1 0.367319 0.320346 0.303269
Si Si2 0.299563 0.918292 0.887025
Si Si3 0.841206 0.300773 0.393572
Si Si4 0.500000 0.500000 0.250000
O O1 0.367658 0.193121 0.369727
O O2 0.279725 0.391588 0.318232
O O3 0.384334 0.282387 0.189751
O O4 0.442672 0.416321 0.324027
O O5 0.340015 0.052218 0.858535
O O6 0.270691 0.917918 0.000000
O O7 0.886474 0.288794 0.500000
O O8 0.750000 0.250000 0.406982
#
# Coordination Sequence:
#
# PCOD8276021 Si02
#       4
#    16  16  16   4
#     4  11  21  38  60  87 129 167 207 263 319 387
#     4  10  21  39  67  94 119 166 225 267 307 375
#     4  10  19  33  59  93 121 155 206 261 309 364
#     4  12  28  40  60  96 136 168 204 266 358 376
#
# _framework density 22.392175000000002
#
# number of rings (size 3 to 8) (size 9 to 14) (size 15 to 20)
#    0.000    1.538    3.077    4.615    0.000    0.000 
#    0.000   11.538    0.000    3.692    0.000    0.000 
#    0.000    0.000    0.000    0.000    0.000    0.000 
#
# Total GULP energy -322219.128437 kJ/mol
# GULP energy per Si atom -12393.043401 kJ/mol
# Density = 2.234121 g / cm^3
# Si number density = 22.392175 Si / 1000 Ang^3
#
#
#
# Elastic Constant Matrix: (Units=GPa)
#
#
# Indices 1 2 3 4 5 6 
#
# 1 71.6484 50.2970 16.9527 0.0000 0.0000 0.0000
# 2 50.2970 135.5538 43.3800 0.0000 0.0000 0.0000
# 3 16.9527 43.3800 113.3955 0.0000 0.0000 0.0000
# 4 0.0000 0.0000 0.0000 156.6493 0.0000 0.0000
# 5 0.0000 0.0000 0.0000 0.0000 11.8565 0.0000
# 6 0.0000 0.0000 0.0000 0.0000 0.0000 42.3044
#
#
#
# Elastic Compliance Matrix: (Units=1/GPa)
#
#
# Indices 1 2 3 4 5 6 
#
# 1 0.018876 -0.006952 -0.000162 0.000000 0.000000 0.000000
# 2 -0.006952 0.010967 -0.003156 0.000000 0.000000 0.000000
# 3 -0.000162 -0.003156 0.010050 0.000000 0.000000 0.000000
# 4 0.000000 0.000000 0.000000 0.006384 0.000000 0.000000
# 5 0.000000 0.000000 0.000000 0.000000 0.084342 0.000000
# 6 0.000000 0.000000 0.000000 0.000000 0.000000 0.023638
#
#
# Mechanical properties :
#
#
# Convention : Reuss Voigt Hill
#
# Bulk Modulus (GPa) = 51.67430 60.20632 55.94031
# Shear Modulus (GPa) = 27.58659 56.15991 41.87325
#
# Velocity S-wave (km/s) = 3.51376 5.01344 4.32903
# Velocity P-wave (km/s) = 6.29198 7.77550 7.07274
#
# Compressibility (1/GPa) = 0.01935198
#
# Stress axis : x y z
#
# Youngs Moduli (GPa) = 52.97843 91.18614 99.49912
#
# Poissons Ratio (x) = 0.63390 0.01617
# Poissons Ratio (y) = 0.36829 0.31402
# Poissons Ratio (z) = 0.00861 0.28779
#
# Static dielectric constant tensor:
#      x y z
#    x 3.378190 0.000000 0.000000 
#    y 0.000000 4.556390 0.000000 
#    z 0.000000 0.000000 4.469530 
# 
# 
# High freq. dielectric constant tensor:
#      x y z
#    x 1.810990 0.000000 0.000000 
#    y 0.000000 1.913690 0.000000 
#    z 0.000000 0.000000 1.884860 
# 
# From -- ./inp_files/29433.got.cif
#   From: 2010.03.12/outbox.cif.g09.slc.cpg/sg66_15_cif.got.tgz:29433.got - 2010.04.10 21:57:39.
