data_PCOD8276880
_publ_section_title
;
Structure prediction by ZEFSAII (Michael W. Deem and Ramdas Pophale) SiO2 
 PCOD8276880
Probable space group: C C C M
;
_chemical_formula_sum "Si O2"
_cell_formula_units_Z 104
_cell_length_a 9.283525
_cell_length_b 18.056150
_cell_length_c 28.017774
_cell_angle_alpha 90.000000
_cell_angle_beta 90.000000
_cell_angle_gamma 90.000000
_cell_volume 4696.471520
_symmetry_space_group_name_H-M "C C C M"
_symmetry_group_IT_number 66
_symmetry_cell_setting 'orthorhombic'
loop_
_space_group_symop_operation_xyz
x,y,z
-x,-y,z
x,-y,1/2-z
-x,y,1/2-z
-x,-y,-z
x,y,-z
-x,y,1/2+z
x,-y,1/2+z
1/2+x,1/2+y,z
1/2-x,1/2-y,z
1/2+x,1/2-y,1/2-z
1/2-x,1/2+y,1/2-z
1/2-x,1/2-y,-z
1/2+x,1/2+y,-z
1/2-x,1/2+y,1/2+z
1/2+x,1/2-y,1/2+z
loop_
_atom_site_type_symbol
_atom_site_label
_atom_site_fract_x
_atom_site_fract_y
_atom_site_fract_z
Si Si1 0.088062 0.077441 0.000000
Si Si2 0.662500 0.976826 0.500000
Si Si3 0.348065 0.464852 0.164897
Si Si4 0.277248 0.091105 0.399084
Si Si5 0.503103 0.798646 0.355846
Si Si6 0.348653 0.875345 0.725440
Si Si7 0.750000 0.250000 0.791662
Si Si8 0.525309 0.345059 0.402137
O O1 0.056531 0.128217 0.955112
O O2 0.000000 0.000000 0.000000
O O3 0.254245 0.054748 0.000000
O O4 0.702824 0.928568 0.454178
O O5 0.500000 0.000000 0.500000
O O6 0.500000 0.500000 0.181262
O O7 0.252364 0.518227 0.131967
O O8 0.251035 0.445499 0.211381
O O9 0.379453 0.391548 0.134599
O O10 0.419260 0.131716 0.380210
O O11 0.144572 0.146294 0.392850
O O12 0.376572 0.829966 0.323030
O O13 0.606639 0.747804 0.323151
O O14 0.438750 0.742315 0.395537
O O15 0.500000 0.900141 0.750000
O O16 0.253496 0.824868 0.760526
#
# Coordination Sequence:
#
# PCOD8276880 Si02
#       8
#     8   8  16  16  16  16   8  16
#     4  12  20  41  67 101 137 182 235 281 345 413
#     4  12  26  41  65 103 139 184 229 281 352 415
#     4  10  22  41  71  99 133 183 240 287 351 420
#     4  11  22  41  66  99 138 182 231 285 346 424
#     4  11  23  39  69 100 138 180 235 287 355 426
#     4  10  23  42  70  97 136 186 226 297 357 408
#     4  10  20  44  64  95 136 177 236 274 358 424
#     4  11  20  39  71  98 134 181 229 281 340 419
#
# _framework density 22.144283000000001
#
# number of rings (size 3 to 8) (size 9 to 14) (size 15 to 20)
#    0.000    1.231    4.615    1.385    2.154    0.615 
#    0.000    6.923    6.769    1.846    0.000    0.000 
#    0.000    0.000    0.000    0.000    0.000    0.000 
#
# Total GULP energy -644833.580462 kJ/mol
# GULP energy per Si atom -12400.645778 kJ/mol
# Density = 2.209388 g / cm^3
# Si number density = 22.144283 Si / 1000 Ang^3
#
#
#
# Elastic Constant Matrix: (Units=GPa)
#
#
# Indices 1 2 3 4 5 6 
#
# 1 78.9989 52.1114 38.6102 0.0000 0.0000 0.0000
# 2 52.1114 109.5526 59.3715 0.0000 0.0000 0.0000
# 3 38.6102 59.3715 121.4813 0.0000 0.0000 0.0000
# 4 0.0000 0.0000 0.0000 12.9452 0.0000 0.0000
# 5 0.0000 0.0000 0.0000 0.0000 8.4886 0.0000
# 6 0.0000 0.0000 0.0000 0.0000 0.0000 32.0823
#
#
#
# Elastic Compliance Matrix: (Units=1/GPa)
#
#
# Indices 1 2 3 4 5 6 
#
# 1 0.018865 -0.007787 -0.002190 0.000000 0.000000 0.000000
# 2 -0.007787 0.015631 -0.005164 0.000000 0.000000 0.000000
# 3 -0.002190 -0.005164 0.011452 0.000000 0.000000 0.000000
# 4 0.000000 0.000000 0.000000 0.077249 0.000000 0.000000
# 5 0.000000 0.000000 0.000000 0.000000 0.117805 0.000000
# 6 0.000000 0.000000 0.000000 0.000000 0.000000 0.031170
#
#
# Mechanical properties :
#
#
# Convention : Reuss Voigt Hill
#
# Bulk Modulus (GPa) = 63.83609 67.80210 65.81910
# Shear Modulus (GPa) = 16.25083 21.36587 18.80835
#
# Velocity S-wave (km/s) = 2.71193 3.10957 2.91753
# Velocity P-wave (km/s) = 6.22061 6.60132 6.41379
#
# Compressibility (1/GPa) = 0.01566512
#
# Stress axis : x y z
#
# Youngs Moduli (GPa) = 53.00698 63.97623 87.32203
#
# Poissons Ratio (x) = 0.49817 0.19127
# Poissons Ratio (y) = 0.41275 0.45096
# Poissons Ratio (z) = 0.11610 0.33040
#
# Static dielectric constant tensor:
#      x y z
#    x 3.993510 0.000000 0.000000 
#    y 0.000000 3.853330 0.000000 
#    z 0.000000 0.000000 4.528920 
# 
# 
# High freq. dielectric constant tensor:
#      x y z
#    x 1.873000 0.000000 0.000000 
#    y 0.000000 1.866010 0.000000 
#    z 0.000000 0.000000 1.876870 
# 
# From -- ./inp_files/62735.got.cif
#   From: 2010.03.12/outbox.cif.g09.slc.cpg/sg66_32_cif.got.tgz:62735.got - 2010.04.10 21:57:39.
