data_PCOD8276855
_publ_section_title
;
Structure prediction by ZEFSAII (Michael W. Deem and Ramdas Pophale) SiO2 
 PCOD8276855
Probable space group: C C C M
;
_chemical_formula_sum "Si O2"
_cell_formula_units_Z 72
_cell_length_a 16.292324
_cell_length_b 14.234046
_cell_length_c 15.536977
_cell_angle_alpha 90.000000
_cell_angle_beta 90.000000
_cell_angle_gamma 90.000000
_cell_volume 3603.113360
_symmetry_space_group_name_H-M "C C C M"
_symmetry_group_IT_number 66
_symmetry_cell_setting 'orthorhombic'
loop_
_space_group_symop_operation_xyz
x,y,z
-x,-y,z
x,-y,1/2-z
-x,y,1/2-z
-x,-y,-z
x,y,-z
-x,y,1/2+z
x,-y,1/2+z
1/2+x,1/2+y,z
1/2-x,1/2-y,z
1/2+x,1/2-y,1/2-z
1/2-x,1/2+y,1/2-z
1/2-x,1/2-y,-z
1/2+x,1/2+y,-z
1/2-x,1/2+y,1/2+z
1/2+x,1/2-y,1/2+z
loop_
_atom_site_type_symbol
_atom_site_label
_atom_site_fract_x
_atom_site_fract_y
_atom_site_fract_z
Si Si1 0.456614 0.094765 0.900198
Si Si2 0.588230 0.455380 0.903371
Si Si3 0.808607 0.329946 0.290572
Si Si4 0.439878 0.258905 0.326208
Si Si5 0.700489 0.500000 0.750000
O O1 0.369268 0.117872 0.856824
O O2 0.518323 0.179907 0.884600
O O3 0.500000 0.000000 0.862666
O O4 0.438189 0.081035 0.000000
O O5 0.500000 0.500000 0.892148
O O6 0.582578 0.344708 0.887070
O O7 0.646808 0.507651 0.836289
O O8 0.622135 0.471794 0.000000
O O9 0.750000 0.250000 0.334979
O O10 0.856953 0.280603 0.213723
O O11 0.754009 0.407251 0.243981
O O12 0.500000 0.292728 0.250000
#
# Coordination Sequence:
#
# PCOD8276855 Si02
#       5
#    16  16  16  16   8
#     4  10  22  40  63  90 124 167 216 265 313 382
#     4  11  24  40  63  91 121 166 213 256 309 375
#     4  11  23  39  63  93 124 166 205 260 329 381
#     4  10  20  40  64  90 120 162 209 254 309 379
#     4  12  23  42  63  88 132 162 202 262 319 386
#
# _framework density 19.982718999999999
#
# number of rings (size 3 to 8) (size 9 to 14) (size 15 to 20)
#    0.000    1.333    2.222    3.667    3.111    4.444 
#    0.000    3.333    0.000    0.000    0.000    0.000 
#    0.000    0.000    0.000    0.000    0.000    0.000 
#
# Total GULP energy -446468.423630 kJ/mol
# GULP energy per Si atom -12401.900656 kJ/mol
# Density = 1.993724 g / cm^3
# Si number density = 19.982719 Si / 1000 Ang^3
#
#
#
# Elastic Constant Matrix: (Units=GPa)
#
#
# Indices 1 2 3 4 5 6 
#
# 1 115.0034 45.0913 63.6173 0.0000 0.0000 0.0000
# 2 45.0913 93.5878 36.3351 0.0000 0.0000 0.0000
# 3 63.6173 36.3351 114.5240 0.0000 0.0000 0.0000
# 4 0.0000 0.0000 0.0000 26.3300 0.0000 0.0000
# 5 0.0000 0.0000 0.0000 0.0000 1.9145 0.0000
# 6 0.0000 0.0000 0.0000 0.0000 0.0000 35.1128
#
#
#
# Elastic Compliance Matrix: (Units=1/GPa)
#
#
# Indices 1 2 3 4 5 6 
#
# 1 0.013869 -0.004210 -0.006368 0.000000 0.000000 0.000000
# 2 -0.004210 0.013464 -0.001933 0.000000 0.000000 0.000000
# 3 -0.006368 -0.001933 0.012883 0.000000 0.000000 0.000000
# 4 0.000000 0.000000 0.000000 0.037979 0.000000 0.000000
# 5 0.000000 0.000000 0.000000 0.000000 0.522318 0.000000
# 6 0.000000 0.000000 0.000000 0.000000 0.000000 0.028480
#
#
# Mechanical properties :
#
#
# Convention : Reuss Voigt Hill
#
# Bulk Modulus (GPa) = 65.82034 68.13362 66.97698
# Shear Modulus (GPa) = 7.58633 24.54291 16.06462
#
# Velocity S-wave (km/s) = 1.95056 3.50838 2.83843
# Velocity P-wave (km/s) = 6.17115 7.11210 6.65827
#
# Compressibility (1/GPa) = 0.01519287
#
# Stress axis : x y z
#
# Youngs Moduli (GPa) = 72.10435 74.27237 77.62288
#
# Poissons Ratio (x) = 0.31265 0.49434
# Poissons Ratio (y) = 0.30353 0.15007
# Poissons Ratio (z) = 0.45919 0.14359
#
# Static dielectric constant tensor:
#      x y z
#    x 3.792850 0.000000 0.000000 
#    y 0.000000 3.931030 0.000000 
#    z 0.000000 0.000000 3.515220 
# 
# 
# High freq. dielectric constant tensor:
#      x y z
#    x 1.787720 0.000000 0.000000 
#    y 0.000000 1.799380 0.000000 
#    z 0.000000 0.000000 1.768570 
# 
# From -- ./inp_files/29807.got.cif
#   From: 2010.03.12/outbox.cif.g09.slc.cpg/sg66_15_cif.got.tgz:29807.got - 2010.04.10 21:57:39.
