data_PCOD8276073
_publ_section_title
;
Structure prediction by ZEFSAII (Michael W. Deem and Ramdas Pophale) SiO2 
 PCOD8276073
Probable space group: C C C M
;
_chemical_formula_sum "Si O2"
_cell_formula_units_Z 56
_cell_length_a 5.069477
_cell_length_b 25.109906
_cell_length_c 22.111587
_cell_angle_alpha 90.000000
_cell_angle_beta 90.000000
_cell_angle_gamma 90.000000
_cell_volume 2814.674366
_symmetry_space_group_name_H-M "C C C M"
_symmetry_group_IT_number 66
_symmetry_cell_setting 'orthorhombic'
loop_
_space_group_symop_operation_xyz
x,y,z
-x,-y,z
x,-y,1/2-z
-x,y,1/2-z
-x,-y,-z
x,y,-z
-x,y,1/2+z
x,-y,1/2+z
1/2+x,1/2+y,z
1/2-x,1/2-y,z
1/2+x,1/2-y,1/2-z
1/2-x,1/2+y,1/2-z
1/2-x,1/2-y,-z
1/2+x,1/2+y,-z
1/2-x,1/2+y,1/2+z
1/2+x,1/2-y,1/2+z
loop_
_atom_site_type_symbol
_atom_site_label
_atom_site_fract_x
_atom_site_fract_y
_atom_site_fract_z
Si Si1 0.127715 0.646799 0.686115
Si Si2 0.751690 0.475638 0.317069
Si Si3 0.497579 0.712809 0.000000
Si Si4 0.865051 0.190840 0.128220
O O1 0.244455 0.587648 0.685564
O O2 0.383517 0.683595 0.672810
O O3 0.000000 0.663080 0.750000
O O4 0.884305 0.651877 0.639143
O O5 0.500000 0.500000 0.351902
O O6 0.751550 0.500000 0.250000
O O7 0.000000 0.500000 0.352851
O O8 0.250000 0.750000 0.000000
O O9 0.481487 0.677963 0.938771
O O10 0.750000 0.750000 0.000000
O O11 0.750000 0.250000 0.135945
#
# Coordination Sequence:
#
# PCOD8276073 Si02
#       4
#    16  16   8  16
#     4  12  23  37  60  92 127 155 196 237 306 370
#     4  10  19  34  57  81 113 151 203 239 273 343
#     4  10  20  42  66  80 108 160 224 254 268 336
#     4  11  24  40  60  88 121 164 201 242 293 345
#
# _framework density 19.895731000000001
#
# number of rings (size 3 to 8) (size 9 to 14) (size 15 to 20)
#    0.000    1.143    2.857    6.857    4.000    2.286 
#    0.000    1.429    0.000    0.000    0.000   20.000 
#    0.000    0.000    0.000    0.000    0.000    0.000 
#
# Total GULP energy -346902.582711 kJ/mol
# GULP energy per Si atom -12389.377954 kJ/mol
# Density = 1.985045 g / cm^3
# Si number density = 19.895731 Si / 1000 Ang^3
#
#
#
# Elastic Constant Matrix: (Units=GPa)
#
#
# Indices 1 2 3 4 5 6 
#
# 1 207.7004 55.6919 53.4556 0.0000 0.0000 0.0000
# 2 55.6919 92.1788 57.3255 0.0000 0.0000 0.0000
# 3 53.4556 57.3255 87.0140 0.0000 0.0000 0.0000
# 4 0.0000 0.0000 0.0000 2.7153 0.0000 0.0000
# 5 0.0000 0.0000 0.0000 0.0000 23.5872 0.0000
# 6 0.0000 0.0000 0.0000 0.0000 0.0000 53.0862
#
#
#
# Elastic Compliance Matrix: (Units=1/GPa)
#
#
# Indices 1 2 3 4 5 6 
#
# 1 0.005982 -0.002251 -0.002192 0.000000 0.000000 0.000000
# 2 -0.002251 0.019225 -0.011283 0.000000 0.000000 0.000000
# 3 -0.002192 -0.011283 0.020272 0.000000 0.000000 0.000000
# 4 0.000000 0.000000 0.000000 0.368282 0.000000 0.000000
# 5 0.000000 0.000000 0.000000 0.000000 0.042396 0.000000
# 6 0.000000 0.000000 0.000000 0.000000 0.000000 0.018837
#
#
# Mechanical properties :
#
#
# Convention : Reuss Voigt Hill
#
# Bulk Modulus (GPa) = 71.28683 79.98215 75.63449
# Shear Modulus (GPa) = 9.78238 30.57241 20.17740
#
# Velocity S-wave (km/s) = 2.21980 3.92424 3.18804
# Velocity P-wave (km/s) = 6.51751 7.79877 7.18675
#
# Compressibility (1/GPa) = 0.01402784
#
# Stress axis : x y z
#
# Youngs Moduli (GPa) = 167.15624 52.01488 49.32839
#
# Poissons Ratio (x) = 0.11709 0.10813
# Poissons Ratio (y) = 0.37629 0.55656
# Poissons Ratio (z) = 0.36643 0.58687
#
# Static dielectric constant tensor:
#      x y z
#    x 3.085370 0.000000 0.000000 
#    y 0.000000 3.487520 0.000000 
#    z 0.000000 0.000000 5.190300 
# 
# 
# High freq. dielectric constant tensor:
#      x y z
#    x 1.824710 0.000000 0.000000 
#    y 0.000000 1.757460 0.000000 
#    z 0.000000 0.000000 1.730630 
# 
# From -- ./inp_files/45470.got.cif
#   From: 2010.03.12/outbox.cif.g09.slc.cpg/sg66_23_cif.got.tgz:45470.got - 2010.04.10 21:57:39.
