data_PCOD8276772
_publ_section_title
;
Structure prediction by ZEFSAII (Michael W. Deem and Ramdas Pophale) SiO2 
 PCOD8276772
Probable space group: C C C M
;
_chemical_formula_sum "Si O2"
_cell_formula_units_Z 112
_cell_length_a 16.868172
_cell_length_b 10.162637
_cell_length_c 32.144924
_cell_angle_alpha 90.000000
_cell_angle_beta 90.000000
_cell_angle_gamma 90.000000
_cell_volume 5510.447097
_symmetry_space_group_name_H-M "C C C M"
_symmetry_group_IT_number 66
_symmetry_cell_setting 'orthorhombic'
loop_
_space_group_symop_operation_xyz
x,y,z
-x,-y,z
x,-y,1/2-z
-x,y,1/2-z
-x,-y,-z
x,y,-z
-x,y,1/2+z
x,-y,1/2+z
1/2+x,1/2+y,z
1/2-x,1/2-y,z
1/2+x,1/2-y,1/2-z
1/2-x,1/2+y,1/2-z
1/2-x,1/2-y,-z
1/2+x,1/2+y,-z
1/2-x,1/2+y,1/2+z
1/2+x,1/2-y,1/2+z
loop_
_atom_site_type_symbol
_atom_site_label
_atom_site_fract_x
_atom_site_fract_y
_atom_site_fract_z
Si Si1 0.016837 0.147023 0.548153
Si Si2 0.412359 0.852725 0.834553
Si Si3 0.336888 0.799154 0.917914
Si Si4 0.640427 0.284579 0.583398
Si Si5 0.407927 0.839775 0.335200
Si Si6 0.231456 0.445711 0.047889
Si Si7 0.177252 0.347743 0.749546
O O1 0.997157 0.154491 0.500000
O O2 0.103087 0.208728 0.555789
O O3 0.951915 0.229427 0.573094
O O4 0.000000 0.000000 0.564576
O O5 0.359550 0.782838 0.869653
O O6 0.500796 0.793281 0.836298
O O7 0.379414 0.820786 0.789279
O O8 0.407766 0.006316 0.844948
O O9 0.250000 0.750000 0.927022
O O10 0.331073 0.949255 0.933314
O O11 0.646785 0.239346 0.631622
O O12 0.685196 0.426111 0.574576
O O13 0.683793 0.188994 0.551279
O O14 0.372268 0.810503 0.290185
O O15 0.252540 0.478898 0.000000
O O16 0.206005 0.500000 0.750000
O O17 0.250000 0.250000 0.745857
#
# Coordination Sequence:
#
# PCOD8276772 Si02
#       7
#    16  16  16  16  16  16  16
#     4  11  24  42  62  86 119 164 213 262 319 380
#     4  10  20  40  60  94 124 158 206 261 311 378
#     4  12  24  39  61  86 123 166 211 259 314 379
#     4  11  21  39  63  90 123 161 204 263 311 372
#     4  10  20  37  66  92 121 158 212 254 313 377
#     4  11  24  39  60  92 126 164 209 264 323 370
#     4  10  22  38  66  95 128 165 203 257 318 384
#
# _framework density 20.325029000000001
#
# number of rings (size 3 to 8) (size 9 to 14) (size 15 to 20)
#    0.000    1.286    2.857    3.857    2.000    4.571 
#    0.000    2.857    0.000    0.857    0.000    0.000 
#    0.000    0.000    0.000    0.000    0.000    0.000 
#
# Total GULP energy -694128.190984 kJ/mol
# GULP energy per Si atom -12395.146268 kJ/mol
# Density = 2.027877 g / cm^3
# Si number density = 20.325029 Si / 1000 Ang^3
#
#
#
# Elastic Constant Matrix: (Units=GPa)
#
#
# Indices 1 2 3 4 5 6 
#
# 1 136.9055 44.4160 42.4283 0.0000 0.0000 0.0000
# 2 44.4160 68.6108 33.7439 0.0000 0.0000 0.0000
# 3 42.4283 33.7439 140.7678 0.0000 0.0000 0.0000
# 4 0.0000 0.0000 0.0000 22.6673 0.0000 0.0000
# 5 0.0000 0.0000 0.0000 0.0000 33.3315 0.0000
# 6 0.0000 0.0000 0.0000 0.0000 0.0000 35.9370
#
#
#
# Elastic Compliance Matrix: (Units=1/GPa)
#
#
# Indices 1 2 3 4 5 6 
#
# 1 0.009547 -0.005402 -0.001583 0.000000 0.000000 0.000000
# 2 -0.005402 0.019580 -0.003065 0.000000 0.000000 0.000000
# 3 -0.001583 -0.003065 0.008316 0.000000 0.000000 0.000000
# 4 0.000000 0.000000 0.000000 0.044116 0.000000 0.000000
# 5 0.000000 0.000000 0.000000 0.000000 0.030002 0.000000
# 6 0.000000 0.000000 0.000000 0.000000 0.000000 0.027826
#
#
# Mechanical properties :
#
#
# Convention : Reuss Voigt Hill
#
# Bulk Modulus (GPa) = 57.66173 65.27336 61.46755
# Shear Modulus (GPa) = 30.25382 33.43358 31.84370
#
# Velocity S-wave (km/s) = 3.86229 4.06019 3.96248
# Velocity P-wave (km/s) = 6.95134 7.35967 7.15842
#
# Compressibility (1/GPa) = 0.01734252
#
# Stress axis : x y z
#
# Youngs Moduli (GPa) = 104.74019 51.07330 120.25449
#
# Poissons Ratio (x) = 0.27591 0.19032
# Poissons Ratio (y) = 0.56583 0.36861
# Poissons Ratio (z) = 0.16577 0.15655
#
# Static dielectric constant tensor:
#      x y z
#    x 4.135040 0.000000 0.000000 
#    y 0.000000 4.115980 0.000000 
#    z 0.000000 0.000000 3.655100 
# 
# 
# High freq. dielectric constant tensor:
#      x y z
#    x 1.805450 0.000000 0.000000 
#    y 0.000000 1.777420 0.000000 
#    z 0.000000 0.000000 1.801550 
# 
# From -- ./inp_files/69557.got.cif
#   From: 2010.03.12/outbox.cif.g09.slc.cpg/sg66_35_cif.got.tgz:69557.got - 2010.04.10 21:57:39.
