data_PCOD8276779
_publ_section_title
;
Structure prediction by ZEFSAII (Michael W. Deem and Ramdas Pophale) SiO2 
 PCOD8276779
Probable space group: C C C M
;
_chemical_formula_sum "Si O2"
_cell_formula_units_Z 72
_cell_length_a 16.521442
_cell_length_b 23.560461
_cell_length_c 9.327565
_cell_angle_alpha 90.000000
_cell_angle_beta 90.000000
_cell_angle_gamma 90.000000
_cell_volume 3630.780699
_symmetry_space_group_name_H-M "C C C M"
_symmetry_group_IT_number 66
_symmetry_cell_setting 'orthorhombic'
loop_
_space_group_symop_operation_xyz
x,y,z
-x,-y,z
x,-y,1/2-z
-x,y,1/2-z
-x,-y,-z
x,y,-z
-x,y,1/2+z
x,-y,1/2+z
1/2+x,1/2+y,z
1/2-x,1/2-y,z
1/2+x,1/2-y,1/2-z
1/2-x,1/2+y,1/2-z
1/2-x,1/2-y,-z
1/2+x,1/2+y,-z
1/2-x,1/2+y,1/2+z
1/2+x,1/2-y,1/2+z
loop_
_atom_site_type_symbol
_atom_site_label
_atom_site_fract_x
_atom_site_fract_y
_atom_site_fract_z
Si Si1 0.500000 0.648139 0.250000
Si Si2 0.395191 0.450416 0.156976
Si Si3 0.698672 0.177931 0.671103
Si Si4 0.145716 0.779458 0.835024
Si Si5 0.787690 0.552933 0.165139
O O1 0.552854 0.607152 0.149155
O O2 0.439177 0.687469 0.160484
O O3 0.436599 0.500000 0.250000
O O4 0.305137 0.437639 0.215212
O O5 0.389577 0.476504 0.000000
O O6 0.705634 0.190445 0.500000
O O7 0.785961 0.186845 0.746069
O O8 0.634804 0.219360 0.750763
O O9 0.668658 0.113145 0.696525
O O10 0.172667 0.769864 0.000000
O O11 0.827603 0.500000 0.250000
O O12 0.794283 0.536829 0.000000
#
# Coordination Sequence:
#
# PCOD8276779 Si02
#       5
#     8  16  16  16  16
#     4  12  23  36  52  76 109 146 182 224 268 316
#     4  10  21  36  50  71 105 144 183 218 259 309
#     4  10  20  38  57  75 106 144 178 221 276 324
#     4  11  23  35  54  79 104 140 187 229 267 312
#     4   9  18  33  54  78 103 138 177 217 263 315
#
# _framework density 19.830446999999999
#
# number of rings (size 3 to 8) (size 9 to 14) (size 15 to 20)
#    0.000    1.778    2.222    3.667    0.000    7.111 
#    0.000    0.000    0.000    0.000    0.000    0.778 
#    0.000    5.333    0.000    0.000    0.000    0.000 
#
# Total GULP energy -446024.183484 kJ/mol
# GULP energy per Si atom -12389.560652 kJ/mol
# Density = 1.978531 g / cm^3
# Si number density = 19.830447 Si / 1000 Ang^3
#
#
#
# Elastic Constant Matrix: (Units=GPa)
#
#
# Indices 1 2 3 4 5 6 
#
# 1 34.2840 25.4466 14.3296 0.0000 0.0000 0.0000
# 2 25.4466 174.1524 69.7798 0.0000 0.0000 0.0000
# 3 14.3296 69.7798 125.8949 0.0000 0.0000 0.0000
# 4 0.0000 0.0000 0.0000 30.3354 0.0000 0.0000
# 5 0.0000 0.0000 0.0000 0.0000 22.0535 0.0000
# 6 0.0000 0.0000 0.0000 0.0000 0.0000 31.5532
#
#
#
# Elastic Compliance Matrix: (Units=1/GPa)
#
#
# Indices 1 2 3 4 5 6 
#
# 1 0.032904 -0.004251 -0.001389 0.000000 0.000000 0.000000
# 2 -0.004251 0.007931 -0.003912 0.000000 0.000000 0.000000
# 3 -0.001389 -0.003912 0.010269 0.000000 0.000000 0.000000
# 4 0.000000 0.000000 0.000000 0.032965 0.000000 0.000000
# 5 0.000000 0.000000 0.000000 0.000000 0.045344 0.000000
# 6 0.000000 0.000000 0.000000 0.000000 0.000000 0.031693
#
#
# Mechanical properties :
#
#
# Convention : Reuss Voigt Hill
#
# Bulk Modulus (GPa) = 31.24986 61.49370 46.37178
# Shear Modulus (GPa) = 26.19494 31.77343 28.98418
#
# Velocity S-wave (km/s) = 3.63842 4.00716 3.82724
# Velocity P-wave (km/s) = 5.78304 7.24478 6.55478
#
# Compressibility (1/GPa) = 0.03200015
#
# Stress axis : x y z
#
# Youngs Moduli (GPa) = 30.39140 126.09217 97.37636
#
# Poissons Ratio (x) = 0.53606 0.13524
# Poissons Ratio (y) = 0.12921 0.38092
# Poissons Ratio (z) = 0.04221 0.49325
#
# Static dielectric constant tensor:
#      x y z
#    x 3.168450 0.000000 0.000000 
#    y 0.000000 3.961880 0.000000 
#    z 0.000000 0.000000 3.531510 
# 
# 
# High freq. dielectric constant tensor:
#      x y z
#    x 1.715860 0.000000 0.000000 
#    y 0.000000 1.786670 0.000000 
#    z 0.000000 0.000000 1.776010 
# 
# From -- ./inp_files/6488.got.cif
#   From: 2010.03.12/outbox.cif.g09.slc.cpg/sg66_4_cif.got.tgz:6488.got - 2010.04.10 21:57:39.
