data_PCOD8276145
_publ_section_title
;
Structure prediction by ZEFSAII (Michael W. Deem and Ramdas Pophale) SiO2 
 PCOD8276145
Probable space group: C C C M
;
_chemical_formula_sum "Si O2"
_cell_formula_units_Z 104
_cell_length_a 12.049221
_cell_length_b 16.735820
_cell_length_c 27.186245
_cell_angle_alpha 90.000000
_cell_angle_beta 90.000000
_cell_angle_gamma 90.000000
_cell_volume 5482.204006
_symmetry_space_group_name_H-M "C C C M"
_symmetry_group_IT_number 66
_symmetry_cell_setting 'orthorhombic'
loop_
_space_group_symop_operation_xyz
x,y,z
-x,-y,z
x,-y,1/2-z
-x,y,1/2-z
-x,-y,-z
x,y,-z
-x,y,1/2+z
x,-y,1/2+z
1/2+x,1/2+y,z
1/2-x,1/2-y,z
1/2+x,1/2-y,1/2-z
1/2-x,1/2+y,1/2-z
1/2-x,1/2-y,-z
1/2+x,1/2+y,-z
1/2-x,1/2+y,1/2+z
1/2+x,1/2-y,1/2+z
loop_
_atom_site_type_symbol
_atom_site_label
_atom_site_fract_x
_atom_site_fract_y
_atom_site_fract_z
Si Si1 0.254731 0.573486 0.647760
Si Si2 0.227883 0.392080 0.667230
Si Si3 0.510635 0.089934 0.635369
Si Si4 0.518148 0.221441 0.944841
Si Si5 0.376068 0.405855 0.757101
Si Si6 0.750000 0.250000 0.905002
Si Si7 0.822862 0.828363 0.944091
O O1 0.268945 0.478061 0.648215
O O2 0.128714 0.597829 0.663024
O O3 0.334890 0.614772 0.687922
O O4 0.286740 0.602375 0.593290
O O5 0.286949 0.369646 0.718697
O O6 0.267998 0.327714 0.628140
O O7 0.092681 0.389927 0.671892
O O8 0.514104 0.147889 0.589189
O O9 0.500000 0.000000 0.614659
O O10 0.646156 0.242880 0.940645
O O11 0.448659 0.301406 0.932157
O O12 0.489386 0.193899 0.000000
O O13 0.379320 0.500000 0.750000
O O14 0.500000 0.369511 0.750000
O O15 0.750000 0.750000 0.935810
O O16 0.810611 0.861049 0.000000
#
# Coordination Sequence:
#
# PCOD8276145 Si02
#       7
#    16  16  16  16  16   8  16
#     4  10  19  35  59  82 110 143 183 225 277 330
#     4   9  20  37  55  80 110 145 181 229 269 326
#     4   9  18  33  54  80 107 141 181 225 278 325
#     4  10  20  35  54  77 108 146 184 224 276 328
#     4   9  19  35  56  82 107 142 181 219 274 328
#     4  10  21  38  56  74 110 148 183 220 278 324
#     4  10  20  35  56  83 114 143 179 229 280 323
#
# _framework density 18.970473999999999
#
# number of rings (size 3 to 8) (size 9 to 14) (size 15 to 20)
#    0.000    2.462    1.538    0.231    2.154    0.923 
#    1.385   10.000    0.000    1.846    0.000    0.000 
#    0.000    0.000    0.000    0.000    0.000    0.000 
#
# Total GULP energy -644610.651706 kJ/mol
# GULP energy per Si atom -12396.358687 kJ/mol
# Density = 1.892730 g / cm^3
# Si number density = 18.970474 Si / 1000 Ang^3
#
#
#
# Elastic Constant Matrix: (Units=GPa)
#
#
# Indices 1 2 3 4 5 6 
#
# 1 116.2908 30.7712 60.1861 0.0000 0.0000 0.0000
# 2 30.7712 52.9159 35.2597 0.0000 0.0000 0.0000
# 3 60.1861 35.2597 111.3045 0.0000 0.0000 0.0000
# 4 0.0000 0.0000 0.0000 17.7332 0.0000 0.0000
# 5 0.0000 0.0000 0.0000 0.0000 27.8832 0.0000
# 6 0.0000 0.0000 0.0000 0.0000 0.0000 20.8287
#
#
#
# Elastic Compliance Matrix: (Units=1/GPa)
#
#
# Indices 1 2 3 4 5 6 
#
# 1 0.012428 -0.003485 -0.005616 0.000000 0.000000 0.000000
# 2 -0.003485 0.024931 -0.006014 0.000000 0.000000 0.000000
# 3 -0.005616 -0.006014 0.013926 0.000000 0.000000 0.000000
# 4 0.000000 0.000000 0.000000 0.056391 0.000000 0.000000
# 5 0.000000 0.000000 0.000000 0.000000 0.035864 0.000000
# 6 0.000000 0.000000 0.000000 0.000000 0.000000 0.048011
#
#
# Mechanical properties :
#
#
# Convention : Reuss Voigt Hill
#
# Bulk Modulus (GPa) = 47.49142 59.21614 53.35378
# Shear Modulus (GPa) = 21.85318 23.57529 22.71424
#
# Velocity S-wave (km/s) = 3.39773 3.52907 3.46402
# Velocity P-wave (km/s) = 6.36251 6.92015 6.64718
#
# Compressibility (1/GPa) = 0.02105643
#
# Stress axis : x y z
#
# Youngs Moduli (GPa) = 80.46413 40.11006 71.80641
#
# Poissons Ratio (x) = 0.13977 0.40329
# Poissons Ratio (y) = 0.28039 0.43182
# Poissons Ratio (z) = 0.45191 0.24121
#
# Static dielectric constant tensor:
#      x y z
#    x 3.917380 0.000000 0.000000 
#    y 0.000000 3.278400 0.000000 
#    z 0.000000 0.000000 3.342850 
# 
# 
# High freq. dielectric constant tensor:
#      x y z
#    x 1.758020 0.000000 0.000000 
#    y 0.000000 1.714480 0.000000 
#    z 0.000000 0.000000 1.724700 
# 
# From -- ./inp_files/63793.got.cif
#   From: 2010.03.12/outbox.cif.g09.slc.cpg/sg66_32_cif.got.tgz:63793.got - 2010.04.10 21:57:39.
