data_PCOD8276870
_publ_section_title
;
Structure prediction by ZEFSAII (Michael W. Deem and Ramdas Pophale) SiO2 
 PCOD8276870
Probable space group: C C C M
;
_chemical_formula_sum "Si O2"
_cell_formula_units_Z 96
_cell_length_a 8.621665
_cell_length_b 22.373316
_cell_length_c 25.713798
_cell_angle_alpha 90.000000
_cell_angle_beta 90.000000
_cell_angle_gamma 90.000000
_cell_volume 4960.069121
_symmetry_space_group_name_H-M "C C C M"
_symmetry_group_IT_number 66
_symmetry_cell_setting 'orthorhombic'
loop_
_space_group_symop_operation_xyz
x,y,z
-x,-y,z
x,-y,1/2-z
-x,y,1/2-z
-x,-y,-z
x,y,-z
-x,y,1/2+z
x,-y,1/2+z
1/2+x,1/2+y,z
1/2-x,1/2-y,z
1/2+x,1/2-y,1/2-z
1/2-x,1/2+y,1/2-z
1/2-x,1/2-y,-z
1/2+x,1/2+y,-z
1/2-x,1/2+y,1/2+z
1/2+x,1/2-y,1/2+z
loop_
_atom_site_type_symbol
_atom_site_label
_atom_site_fract_x
_atom_site_fract_y
_atom_site_fract_z
Si Si1 0.910297 0.385814 0.804380
Si Si2 0.338978 0.187553 0.940685
Si Si3 0.319189 0.512280 0.193822
Si Si4 0.411821 0.773583 0.865531
Si Si5 0.785579 0.399317 0.644385
Si Si6 0.878777 0.798906 0.204611
O O1 0.748403 0.421194 0.816071
O O2 0.875119 0.316026 0.815427
O O3 0.000000 0.395649 0.750000
O O4 0.030324 0.405320 0.848842
O O5 0.250000 0.250000 0.936324
O O6 0.507118 0.193927 0.914100
O O7 0.247672 0.134325 0.910044
O O8 0.358788 0.167280 0.000000
O O9 0.500000 0.500000 0.198474
O O10 0.240989 0.500000 0.250000
O O11 0.272582 0.467222 0.147393
O O12 0.250000 0.750000 0.887459
O O13 0.528146 0.722007 0.846323
O O14 0.710780 0.360562 0.691886
O O15 0.750000 0.750000 0.220919
O O16 0.000000 0.812621 0.250000
#
# Coordination Sequence:
#
# PCOD8276870 Si02
#       6
#    16  16  16  16  16  16
#     4  11  22  38  55  81 120 168 204 244 296 372
#     4  10  20  41  66  89 120 161 210 263 316 372
#     4  11  25  37  55  83 118 164 205 246 298 365
#     4  11  23  36  60  90 126 161 201 256 317 378
#     4  11  22  38  59  84 120 155 208 249 295 375
#     4  12  23  36  53  89 128 167 199 243 309 380
#
# _framework density 19.354568
#
# number of rings (size 3 to 8) (size 9 to 14) (size 15 to 20)
#    0.000    1.000    6.667    1.500    7.000    0.333 
#    0.000    0.000    0.000    8.500    0.000    0.000 
#    0.000    0.000    0.000    0.000    0.000    0.000 
#
# Total GULP energy -594639.250555 kJ/mol
# GULP energy per Si atom -12388.317720 kJ/mol
# Density = 1.931052 g / cm^3
# Si number density = 19.354568 Si / 1000 Ang^3
#
#
#
# Elastic Constant Matrix: (Units=GPa)
#
#
# Indices 1 2 3 4 5 6 
#
# 1 98.9208 25.3620 28.2681 0.0000 0.0000 0.0000
# 2 25.3620 73.5986 29.6576 0.0000 0.0000 0.0000
# 3 28.2681 29.6576 107.1652 0.0000 0.0000 0.0000
# 4 0.0000 0.0000 0.0000 15.8803 0.0000 0.0000
# 5 0.0000 0.0000 0.0000 0.0000 20.7414 0.0000
# 6 0.0000 0.0000 0.0000 0.0000 0.0000 37.6755
#
#
#
# Elastic Compliance Matrix: (Units=1/GPa)
#
#
# Indices 1 2 3 4 5 6 
#
# 1 0.011526 -0.003091 -0.002185 0.000000 0.000000 0.000000
# 2 -0.003091 0.016122 -0.003646 0.000000 0.000000 0.000000
# 3 -0.002185 -0.003646 0.010917 0.000000 0.000000 0.000000
# 4 0.000000 0.000000 0.000000 0.062971 0.000000 0.000000
# 5 0.000000 0.000000 0.000000 0.000000 0.048213 0.000000
# 6 0.000000 0.000000 0.000000 0.000000 0.000000 0.026542
#
#
# Mechanical properties :
#
#
# Convention : Reuss Voigt Hill
#
# Bulk Modulus (GPa) = 48.26318 49.58444 48.92381
# Shear Modulus (GPa) = 24.87041 27.95259 26.41150
#
# Velocity S-wave (km/s) = 3.58856 3.80443 3.69807
# Velocity P-wave (km/s) = 6.49314 6.70618 6.60052
#
# Compressibility (1/GPa) = 0.02071973
#
# Stress axis : x y z
#
# Youngs Moduli (GPa) = 86.76005 62.02775 91.60230
#
# Poissons Ratio (x) = 0.19176 0.20013
# Poissons Ratio (y) = 0.26822 0.33400
# Poissons Ratio (z) = 0.18955 0.22616
#
# Static dielectric constant tensor:
#      x y z
#    x 3.669150 0.000000 0.000000 
#    y 0.000000 3.583150 0.000000 
#    z 0.000000 0.000000 3.461760 
# 
# 
# High freq. dielectric constant tensor:
#      x y z
#    x 1.762120 0.000000 0.000000 
#    y 0.000000 1.747070 0.000000 
#    z 0.000000 0.000000 1.710250 
# 
# From -- ./inp_files/55646.got.cif
#   From: 2010.03.12/outbox.cif.g09.slc.cpg/sg66_28_cif.got.tgz:55646.got - 2010.04.10 21:57:39.
