data_PCOD8276818
_publ_section_title
;
Structure prediction by ZEFSAII (Michael W. Deem and Ramdas Pophale) SiO2 
 PCOD8276818
Probable space group: C C C M
;
_chemical_formula_sum "Si O2"
_cell_formula_units_Z 92
_cell_length_a 13.407322
_cell_length_b 17.804610
_cell_length_c 19.056755
_cell_angle_alpha 90.000000
_cell_angle_beta 90.000000
_cell_angle_gamma 90.000000
_cell_volume 4549.078755
_symmetry_space_group_name_H-M "C C C M"
_symmetry_group_IT_number 66
_symmetry_cell_setting 'orthorhombic'
loop_
_space_group_symop_operation_xyz
x,y,z
-x,-y,z
x,-y,1/2-z
-x,y,1/2-z
-x,-y,-z
x,y,-z
-x,y,1/2+z
x,-y,1/2+z
1/2+x,1/2+y,z
1/2-x,1/2-y,z
1/2+x,1/2-y,1/2-z
1/2-x,1/2+y,1/2-z
1/2-x,1/2-y,-z
1/2+x,1/2+y,-z
1/2-x,1/2+y,1/2+z
1/2+x,1/2-y,1/2+z
loop_
_atom_site_type_symbol
_atom_site_label
_atom_site_fract_x
_atom_site_fract_y
_atom_site_fract_z
Si Si1 0.955117 0.743718 0.134967
Si Si2 0.302584 0.827883 0.722006
Si Si3 0.860944 0.093110 0.644530
Si Si4 0.500000 0.500000 0.250000
Si Si5 0.770418 0.051504 0.500000
Si Si6 0.881474 0.586411 0.500000
Si Si7 0.412350 0.849918 0.500000
Si Si8 0.167555 0.694120 0.124755
O O1 0.914975 0.687656 0.195964
O O2 0.916027 0.828255 0.133449
O O3 0.073798 0.746919 0.143008
O O4 0.925197 0.704901 0.063915
O O5 0.250000 0.750000 0.704083
O O6 0.247593 0.894689 0.680143
O O7 0.296885 0.847206 0.804227
O O8 0.841107 0.050674 0.569682
O O9 0.929763 0.047102 0.697970
O O10 0.702519 0.125308 0.500000
O O11 0.684855 0.987742 0.500000
O O12 0.852627 0.630265 0.430467
O O13 0.003888 0.581868 0.500000
O O14 0.250000 0.750000 0.094003
#
# Coordination Sequence:
#
# PCOD8276818 Si02
#       8
#    16  16  16   4   8   8   8  16
#     4  10  20  38  66 100 125 158 226 285 327 368
#     4   9  19  35  63  94 117 161 212 277 328 364
#     4  11  26  42  68  93 132 175 215 269 321 400
#     4  12  32  46  60  96 146 182 206 256 340 406
#     4  12  24  44  66  91 131 177 220 260 331 415
#     4  10  24  38  59  91 135 180 215 262 324 400
#     4  10  20  41  67  99 129 161 219 287 332 366
#     4  10  21  36  62  92 131 171 216 273 327 384
#
# _framework density 20.223876000000001
#
# number of rings (size 3 to 8) (size 9 to 14) (size 15 to 20)
#    0.000    1.739    1.739    1.565    9.739    1.043 
#    0.000    0.000    0.000    0.000    0.000    0.000 
#    0.000    0.000    0.000    0.000    0.000    0.000 
#
# Total GULP energy -570026.703849 kJ/mol
# GULP energy per Si atom -12391.884866 kJ/mol
# Density = 2.017785 g / cm^3
# Si number density = 20.223876 Si / 1000 Ang^3
#
#
#
# Elastic Constant Matrix: (Units=GPa)
#
#
# Indices 1 2 3 4 5 6 
#
# 1 117.1259 38.6111 29.9277 0.0000 0.0000 0.0000
# 2 38.6111 70.0970 36.5555 0.0000 0.0000 0.0000
# 3 29.9277 36.5555 118.7696 0.0000 0.0000 0.0000
# 4 0.0000 0.0000 0.0000 23.5452 0.0000 0.0000
# 5 0.0000 0.0000 0.0000 0.0000 31.8755 0.0000
# 6 0.0000 0.0000 0.0000 0.0000 0.0000 16.6121
#
#
#
# Elastic Compliance Matrix: (Units=1/GPa)
#
#
# Indices 1 2 3 4 5 6 
#
# 1 0.010538 -0.005265 -0.001035 0.000000 0.000000 0.000000
# 2 -0.005265 0.019624 -0.004713 0.000000 0.000000 0.000000
# 3 -0.001035 -0.004713 0.010131 0.000000 0.000000 0.000000
# 4 0.000000 0.000000 0.000000 0.042471 0.000000 0.000000
# 5 0.000000 0.000000 0.000000 0.000000 0.031372 0.000000
# 6 0.000000 0.000000 0.000000 0.000000 0.000000 0.060197
#
#
# Mechanical properties :
#
#
# Convention : Reuss Voigt Hill
#
# Bulk Modulus (GPa) = 54.74402 57.35345 56.04873
# Shear Modulus (GPa) = 24.69766 27.79978 26.24872
#
# Velocity S-wave (km/s) = 3.49838 3.71158 3.60656
# Velocity P-wave (km/s) = 6.59135 6.84022 6.71694
#
# Compressibility (1/GPa) = 0.01826684
#
# Stress axis : x y z
#
# Youngs Moduli (GPa) = 94.89628 50.95826 98.70564
#
# Poissons Ratio (x) = 0.26828 0.10215
# Poissons Ratio (y) = 0.49961 0.46523
# Poissons Ratio (z) = 0.09821 0.24018
#
# Static dielectric constant tensor:
#      x y z
#    x 4.086390 0.000000 0.000000 
#    y 0.000000 3.379770 0.000000 
#    z 0.000000 0.000000 3.872890 
# 
# 
# High freq. dielectric constant tensor:
#      x y z
#    x 1.803460 0.000000 0.000000 
#    y 0.000000 1.760720 0.000000 
#    z 0.000000 0.000000 1.809900 
# 
# From -- ./inp_files/48621.got.cif
#   From: 2010.03.12/outbox.cif.g09.slc.cpg/sg66_25_cif.got.tgz:48621.got - 2010.04.10 21:57:39.
