data_PCOD8276378
_publ_section_title
;
Structure prediction by ZEFSAII (Michael W. Deem and Ramdas Pophale) SiO2 
 PCOD8276378
Probable space group: C C C M
;
_chemical_formula_sum "Si O2"
_cell_formula_units_Z 80
_cell_length_a 17.962525
_cell_length_b 27.544579
_cell_length_c 8.846382
_cell_angle_alpha 90.000000
_cell_angle_beta 90.000000
_cell_angle_gamma 90.000000
_cell_volume 4376.926093
_symmetry_space_group_name_H-M "C C C M"
_symmetry_group_IT_number 66
_symmetry_cell_setting 'orthorhombic'
loop_
_space_group_symop_operation_xyz
x,y,z
-x,-y,z
x,-y,1/2-z
-x,y,1/2-z
-x,-y,-z
x,y,-z
-x,y,1/2+z
x,-y,1/2+z
1/2+x,1/2+y,z
1/2-x,1/2-y,z
1/2+x,1/2-y,1/2-z
1/2-x,1/2+y,1/2-z
1/2-x,1/2-y,-z
1/2+x,1/2+y,-z
1/2-x,1/2+y,1/2+z
1/2+x,1/2-y,1/2+z
loop_
_atom_site_type_symbol
_atom_site_label
_atom_site_fract_x
_atom_site_fract_y
_atom_site_fract_z
Si Si1 0.640565 0.810365 0.320769
Si Si2 0.422957 0.713948 0.676126
Si Si3 0.217361 0.151324 0.175198
Si Si4 0.271614 0.049175 0.825340
Si Si5 0.074785 0.595279 0.322573
O O1 0.635835 0.811897 0.500000
O O2 0.607897 0.760343 0.261812
O O3 0.726250 0.814924 0.269007
O O4 0.590555 0.852965 0.252629
O O5 0.500000 0.696997 0.750000
O O6 0.433591 0.726246 0.500000
O O7 0.366284 0.669326 0.699533
O O8 0.223649 0.095511 0.231695
O O9 0.242462 0.154474 0.000000
O O10 0.358301 0.058303 0.786433
O O11 0.242692 0.000000 0.750000
O O12 0.258675 0.041512 0.000000
O O13 0.064509 0.603036 0.500000
O O14 0.000000 0.573038 0.250000
#
# Coordination Sequence:
#
# PCOD8276378 Si02
#       5
#    16  16  16  16  16
#     4  11  21  33  52  78 107 139 176 211 246 295
#     4  11  22  36  54  76 106 139 171 209 254 302
#     4   9  20  38  56  75 103 138 171 208 255 303
#     4   9  19  35  54  75  98 128 168 212 259 308
#     4  10  20  34  50  72 105 141 176 211 251 298
#
# _framework density 18.277667000000001
#
# number of rings (size 3 to 8) (size 9 to 14) (size 15 to 20)
#    0.000    2.000    0.000    5.400    0.000    8.400 
#    0.000    2.000    0.000    0.600    0.000    4.200 
#    0.000    0.000    0.000    0.000    0.000    0.000 
#
# Total GULP energy -496070.067677 kJ/mol
# GULP energy per Si atom -12401.751692 kJ/mol
# Density = 1.823607 g / cm^3
# Si number density = 18.277667 Si / 1000 Ang^3
#
#
#
# Elastic Constant Matrix: (Units=GPa)
#
#
# Indices 1 2 3 4 5 6 
#
# 1 96.6127 47.8571 40.6584 0.0000 0.0000 0.0000
# 2 47.8571 77.2478 44.8792 0.0000 0.0000 0.0000
# 3 40.6584 44.8792 96.9352 0.0000 0.0000 0.0000
# 4 0.0000 0.0000 0.0000 28.4805 0.0000 0.0000
# 5 0.0000 0.0000 0.0000 0.0000 7.0295 0.0000
# 6 0.0000 0.0000 0.0000 0.0000 0.0000 12.1117
#
#
#
# Elastic Compliance Matrix: (Units=1/GPa)
#
#
# Indices 1 2 3 4 5 6 
#
# 1 0.015472 -0.007955 -0.002807 0.000000 0.000000 0.000000
# 2 -0.007955 0.021799 -0.006756 0.000000 0.000000 0.000000
# 3 -0.002807 -0.006756 0.014621 0.000000 0.000000 0.000000
# 4 0.000000 0.000000 0.000000 0.035112 0.000000 0.000000
# 5 0.000000 0.000000 0.000000 0.000000 0.142257 0.000000
# 6 0.000000 0.000000 0.000000 0.000000 0.000000 0.082565
#
#
# Mechanical properties :
#
#
# Convention : Reuss Voigt Hill
#
# Bulk Modulus (GPa) = 59.32125 59.73168 59.52647
# Shear Modulus (GPa) = 14.18524 18.68443 16.43483
#
# Velocity S-wave (km/s) = 2.78887 3.20074 3.00188
# Velocity P-wave (km/s) = 6.54954 6.81254 6.68234
#
# Compressibility (1/GPa) = 0.01685736
#
# Stress axis : x y z
#
# Youngs Moduli (GPa) = 64.63209 45.87470 68.39391
#
# Poissons Ratio (x) = 0.36493 0.19196
# Poissons Ratio (y) = 0.51414 0.46205
# Poissons Ratio (z) = 0.18140 0.30992
#
# Static dielectric constant tensor:
#      x y z
#    x 3.446990 0.000000 0.000000 
#    y 0.000000 3.339480 0.000000 
#    z 0.000000 0.000000 3.441040 
# 
# 
# High freq. dielectric constant tensor:
#      x y z
#    x 1.696740 0.000000 0.000000 
#    y 0.000000 1.700110 0.000000 
#    z 0.000000 0.000000 1.716200 
# 
# From -- ./inp_files/6666.got.cif
#   From: 2010.03.12/outbox.cif.g09.slc.cpg/sg66_4_cif.got.tgz:6666.got - 2010.04.10 21:57:39.
