data_PCOD8276644
_publ_section_title
;
Structure prediction by ZEFSAII (Michael W. Deem and Ramdas Pophale) SiO2 
 PCOD8276644
Probable space group: C C C M
;
_chemical_formula_sum "Si O2"
_cell_formula_units_Z 96
_cell_length_a 19.431201
_cell_length_b 15.143257
_cell_length_c 14.619872
_cell_angle_alpha 90.000000
_cell_angle_beta 90.000000
_cell_angle_gamma 90.000000
_cell_volume 4301.921759
_symmetry_space_group_name_H-M "C C C M"
_symmetry_group_IT_number 66
_symmetry_cell_setting 'orthorhombic'
loop_
_space_group_symop_operation_xyz
x,y,z
-x,-y,z
x,-y,1/2-z
-x,y,1/2-z
-x,-y,-z
x,y,-z
-x,y,1/2+z
x,-y,1/2+z
1/2+x,1/2+y,z
1/2-x,1/2-y,z
1/2+x,1/2-y,1/2-z
1/2-x,1/2+y,1/2-z
1/2-x,1/2-y,-z
1/2+x,1/2+y,-z
1/2-x,1/2+y,1/2+z
1/2+x,1/2-y,1/2+z
loop_
_atom_site_type_symbol
_atom_site_label
_atom_site_fract_x
_atom_site_fract_y
_atom_site_fract_z
Si Si1 0.351582 0.400881 0.270158
Si Si2 0.541187 0.119107 0.600276
Si Si3 0.733520 0.147692 0.104482
Si Si4 0.107613 0.206005 0.103657
Si Si5 0.027674 0.093764 0.602700
Si Si6 0.596537 0.052478 0.157678
O O1 0.372605 0.500000 0.250000
O O2 0.280915 0.405836 0.325917
O O3 0.343165 0.342443 0.177511
O O4 0.413013 0.364238 0.333845
O O5 0.515197 0.149703 0.500000
O O6 0.595170 0.192957 0.636470
O O7 0.474415 0.108938 0.666003
O O8 0.582485 0.026970 0.586679
O O9 0.750000 0.250000 0.122145
O O10 0.655387 0.120247 0.126494
O O11 0.750569 0.122414 0.000000
O O12 0.033536 0.162156 0.104983
O O13 0.139393 0.200308 0.000000
O O14 0.057401 0.081989 0.500000
O O15 0.000000 0.000000 0.639594
O O16 0.614535 0.000000 0.250000
#
# Coordination Sequence:
#
# PCOD8276644 Si02
#       6
#    16  16  16  16  16  16
#     4  12  24  40  64  93 128 175 225 272 332 401
#     4  10  21  40  69 101 135 172 216 286 351 410
#     4  11  27  47  67  93 131 179 227 278 334 410
#     4  10  23  38  63 100 136 174 222 282 344 405
#     4  10  20  36  59  90 129 167 213 273 332 391
#     4  11  23  41  68 102 134 172 219 277 346 409
#
# _framework density 22.315608999999998
#
# number of rings (size 3 to 8) (size 9 to 14) (size 15 to 20)
#    0.000    1.333    1.667    4.500    4.667    2.000 
#    0.000    0.000    0.000    0.500    0.000    0.000 
#    0.000    0.000    0.000    0.000    0.000    0.000 
#
# Total GULP energy -594956.640512 kJ/mol
# GULP energy per Si atom -12394.930011 kJ/mol
# Density = 2.226482 g / cm^3
# Si number density = 22.315609 Si / 1000 Ang^3
#
#
#
# Elastic Constant Matrix: (Units=GPa)
#
#
# Indices 1 2 3 4 5 6 
#
# 1 89.6659 32.0768 45.3131 0.0000 0.0000 0.0000
# 2 32.0768 103.2110 33.2492 0.0000 0.0000 0.0000
# 3 45.3131 33.2492 127.7488 0.0000 0.0000 0.0000
# 4 0.0000 0.0000 0.0000 29.8626 0.0000 0.0000
# 5 0.0000 0.0000 0.0000 0.0000 39.6357 0.0000
# 6 0.0000 0.0000 0.0000 0.0000 0.0000 25.7266
#
#
#
# Elastic Compliance Matrix: (Units=1/GPa)
#
#
# Indices 1 2 3 4 5 6 
#
# 1 0.014442 -0.003098 -0.004316 0.000000 0.000000 0.000000
# 2 -0.003098 0.011240 -0.001827 0.000000 0.000000 0.000000
# 3 -0.004316 -0.001827 0.009834 0.000000 0.000000 0.000000
# 4 0.000000 0.000000 0.000000 0.033487 0.000000 0.000000
# 5 0.000000 0.000000 0.000000 0.000000 0.025230 0.000000
# 6 0.000000 0.000000 0.000000 0.000000 0.000000 0.038870
#
#
# Mechanical properties :
#
#
# Convention : Reuss Voigt Hill
#
# Bulk Modulus (GPa) = 58.70377 60.21153 59.45765
# Shear Modulus (GPa) = 31.79380 33.04408 32.41894
#
# Velocity S-wave (km/s) = 3.77866 3.85224 3.81563
# Velocity P-wave (km/s) = 6.73802 6.84300 6.79072
#
# Compressibility (1/GPa) = 0.01703468
#
# Stress axis : x y z
#
# Youngs Moduli (GPa) = 69.24225 88.96692 101.68472
#
# Poissons Ratio (x) = 0.27561 0.43891
# Poissons Ratio (y) = 0.21451 0.18574
# Poissons Ratio (z) = 0.29888 0.16251
#
# Static dielectric constant tensor:
#      x y z
#    x 3.635940 0.000000 0.000000 
#    y 0.000000 4.284400 0.000000 
#    z 0.000000 0.000000 4.349210 
# 
# 
# High freq. dielectric constant tensor:
#      x y z
#    x 1.842920 0.000000 0.000000 
#    y 0.000000 1.883430 0.000000 
#    z 0.000000 0.000000 1.895360 
# 
# From -- ./inp_files/31179.got.cif
#   From: 2010.03.12/outbox.cif.g09.slc.cpg/sg66_16_cif.got.tgz:31179.got - 2010.04.10 21:57:39.
