data_PCOD8276342
_publ_section_title
;
Structure prediction by ZEFSAII (Michael W. Deem and Ramdas Pophale) SiO2 
 PCOD8276342
Probable space group: C C C M
;
_chemical_formula_sum "Si O2"
_cell_formula_units_Z 112
_cell_length_a 14.498122
_cell_length_b 31.682079
_cell_length_c 13.630741
_cell_angle_alpha 90.000000
_cell_angle_beta 90.000000
_cell_angle_gamma 90.000000
_cell_volume 6261.017077
_symmetry_space_group_name_H-M "C C C M"
_symmetry_group_IT_number 66
_symmetry_cell_setting 'orthorhombic'
loop_
_space_group_symop_operation_xyz
x,y,z
-x,-y,z
x,-y,1/2-z
-x,y,1/2-z
-x,-y,-z
x,y,-z
-x,y,1/2+z
x,-y,1/2+z
1/2+x,1/2+y,z
1/2-x,1/2-y,z
1/2+x,1/2-y,1/2-z
1/2-x,1/2+y,1/2-z
1/2-x,1/2-y,-z
1/2+x,1/2+y,-z
1/2-x,1/2+y,1/2+z
1/2+x,1/2-y,1/2+z
loop_
_atom_site_type_symbol
_atom_site_label
_atom_site_fract_x
_atom_site_fract_y
_atom_site_fract_z
Si Si1 0.078643 0.662376 0.386522
Si Si2 0.240424 0.887832 0.385368
Si Si3 0.169505 0.781545 0.888496
Si Si4 0.899120 0.833254 0.223471
Si Si5 0.476503 0.079846 0.615645
Si Si6 0.963468 0.247252 0.388576
Si Si7 0.145069 0.547154 0.275807
O O1 0.058053 0.668572 0.500000
O O2 0.182606 0.647722 0.367558
O O3 0.062236 0.707990 0.337236
O O4 0.007238 0.626702 0.350231
O O5 0.229860 0.899131 0.500000
O O6 0.145607 0.869238 0.343752
O O7 0.267649 0.930013 0.325969
O O8 0.250000 0.750000 0.853383
O O9 0.163545 0.823287 0.819706
O O10 0.072915 0.757257 0.880356
O O11 0.188395 0.796749 0.000000
O O12 0.908690 0.788999 0.167331
O O13 0.000000 0.851134 0.250000
O O14 0.460450 0.075274 0.500000
O O15 0.558045 0.047743 0.649084
O O16 0.382532 0.069865 0.673327
O O17 0.928934 0.244788 0.500000
O O18 0.175427 0.500000 0.250000
#
# Coordination Sequence:
#
# PCOD8276342 Si02
#       7
#    16  16  16  16  16  16  16
#     4   8  16  29  46  73 107 140 178 215 256 306
#     4  10  21  37  56  78 106 138 171 224 284 330
#     4   9  19  33  46  65  99 140 180 221 266 313
#     4  10  21  35  52  77  98 133 184 225 271 328
#     4   9  17  31  50  77 114 154 184 215 260 315
#     4   9  17  31  49  72 102 137 178 224 261 305
#     4  10  20  33  51  80 109 143 185 220 265 331
#
# _framework density 17.888466999999999
#
# number of rings (size 3 to 8) (size 9 to 14) (size 15 to 20)
#    0.000    2.714    0.000    2.571    2.000    3.429 
#   12.857    4.286    0.000    0.429    0.000    1.000 
#    0.000    0.000    0.000    0.000    0.000    0.000 
#
# Total GULP energy -694209.423737 kJ/mol
# GULP energy per Si atom -12396.596852 kJ/mol
# Density = 1.784775 g / cm^3
# Si number density = 17.888467 Si / 1000 Ang^3
#
#
#
# Elastic Constant Matrix: (Units=GPa)
#
#
# Indices 1 2 3 4 5 6 
#
# 1 71.0201 50.3963 42.8742 0.0000 0.0000 0.0000
# 2 50.3963 115.1543 44.8547 0.0000 0.0000 0.0000
# 3 42.8742 44.8547 111.9736 0.0000 0.0000 0.0000
# 4 0.0000 0.0000 0.0000 24.7653 0.0000 0.0000
# 5 0.0000 0.0000 0.0000 0.0000 24.4027 0.0000
# 6 0.0000 0.0000 0.0000 0.0000 0.0000 16.4766
#
#
#
# Elastic Compliance Matrix: (Units=1/GPa)
#
#
# Indices 1 2 3 4 5 6 
#
# 1 0.023123 -0.007904 -0.005687 0.000000 0.000000 0.000000
# 2 -0.007904 0.012991 -0.002178 0.000000 0.000000 0.000000
# 3 -0.005687 -0.002178 0.011981 0.000000 0.000000 0.000000
# 4 0.000000 0.000000 0.000000 0.040379 0.000000 0.000000
# 5 0.000000 0.000000 0.000000 0.000000 0.040979 0.000000
# 6 0.000000 0.000000 0.000000 0.000000 0.000000 0.060692
#
#
# Mechanical properties :
#
#
# Convention : Reuss Voigt Hill
#
# Bulk Modulus (GPa) = 60.39915 63.82204 62.11059
# Shear Modulus (GPa) = 22.00681 23.79711 22.90196
#
# Velocity S-wave (km/s) = 3.51126 3.65129 3.58196
# Velocity P-wave (km/s) = 7.09057 7.31650 7.20442
#
# Compressibility (1/GPa) = 0.01655652
#
# Stress axis : x y z
#
# Youngs Moduli (GPa) = 43.24744 76.97371 83.46778
#
# Poissons Ratio (x) = 0.60841 0.47471
# Poissons Ratio (y) = 0.34184 0.18177
# Poissons Ratio (z) = 0.24596 0.16762
#
# Static dielectric constant tensor:
#      x y z
#    x 3.075880 0.000000 0.000000 
#    y 0.000000 3.182040 0.000000 
#    z 0.000000 0.000000 3.605070 
# 
# 
# High freq. dielectric constant tensor:
#      x y z
#    x 1.661350 0.000000 0.000000 
#    y 0.000000 1.665690 0.000000 
#    z 0.000000 0.000000 1.708740 
# 
# From -- ./inp_files/26993.got.cif
#   From: 2010.03.12/outbox.cif.g09.slc.cpg/sg66_14_cif.got.tgz:26993.got - 2010.04.10 21:57:39.
