data_PCOD8276312
_publ_section_title
;
Structure prediction by ZEFSAII (Michael W. Deem and Ramdas Pophale) SiO2 
 PCOD8276312
Probable space group: C C C M
;
_chemical_formula_sum "Si O2"
_cell_formula_units_Z 88
_cell_length_a 16.274162
_cell_length_b 10.112161
_cell_length_c 27.307228
_cell_angle_alpha 90.000000
_cell_angle_beta 90.000000
_cell_angle_gamma 90.000000
_cell_volume 4493.867123
_symmetry_space_group_name_H-M "C C C M"
_symmetry_group_IT_number 66
_symmetry_cell_setting 'orthorhombic'
loop_
_space_group_symop_operation_xyz
x,y,z
-x,-y,z
x,-y,1/2-z
-x,y,1/2-z
-x,-y,-z
x,y,-z
-x,y,1/2+z
x,-y,1/2+z
1/2+x,1/2+y,z
1/2-x,1/2-y,z
1/2+x,1/2-y,1/2-z
1/2-x,1/2+y,1/2-z
1/2-x,1/2-y,-z
1/2+x,1/2+y,-z
1/2-x,1/2+y,1/2+z
1/2+x,1/2-y,1/2+z
loop_
_atom_site_type_symbol
_atom_site_label
_atom_site_fract_x
_atom_site_fract_y
_atom_site_fract_z
Si Si1 0.302171 0.051145 0.846439
Si Si2 0.969230 0.861433 0.444315
Si Si3 0.625852 0.775904 0.312111
Si Si4 0.750000 0.750000 0.771241
Si Si5 0.304246 0.372048 0.599580
Si Si6 0.975195 0.649039 0.866584
O O1 0.247507 0.120044 0.804996
O O2 0.377143 0.151690 0.858366
O O3 0.332683 0.912449 0.826706
O O4 0.246229 0.010883 0.893808
O O5 0.998141 0.838305 0.500000
O O6 0.871168 0.879522 0.442914
O O7 0.002626 0.739738 0.412664
O O8 0.000000 0.000000 0.422490
O O9 0.663650 0.742934 0.258975
O O10 0.652404 0.658793 0.348252
O O11 0.526675 0.799565 0.318150
O O12 0.250000 0.250000 0.582439
O O13 0.000000 0.500000 0.880319
#
# Coordination Sequence:
#
# PCOD8276312 Si02
#       6
#    16  16  16   8  16  16
#     4  10  20  32  54  83 109 147 193 242 279 334
#     4  10  22  39  61  86 118 152 189 240 300 362
#     4   9  18  35  53  76 112 151 187 233 283 335
#     4  12  20  28  52  82 114 148 192 238 282 336
#     4   9  18  37  60  80 112 153 190 234 290 345
#     4   9  20  39  59  81 115 155 191 238 298 349
#
# _framework density 19.582242999999998
#
# number of rings (size 3 to 8) (size 9 to 14) (size 15 to 20)
#    0.000    2.364    2.727    1.636    2.545    1.455 
#    0.000    3.636    0.000    2.182    0.000    0.000 
#    0.000    0.000    0.000    0.000    0.000    0.000 
#
# Total GULP energy -545080.471511 kJ/mol
# GULP energy per Si atom -12388.192534 kJ/mol
# Density = 1.953767 g / cm^3
# Si number density = 19.582243 Si / 1000 Ang^3
#
#
#
# Elastic Constant Matrix: (Units=GPa)
#
#
# Indices 1 2 3 4 5 6 
#
# 1 110.7428 51.4405 32.4195 0.0000 0.0000 0.0000
# 2 51.4405 74.2814 40.3458 0.0000 0.0000 0.0000
# 3 32.4195 40.3458 63.2492 0.0000 0.0000 0.0000
# 4 0.0000 0.0000 0.0000 24.1370 0.0000 0.0000
# 5 0.0000 0.0000 0.0000 0.0000 31.4164 0.0000
# 6 0.0000 0.0000 0.0000 0.0000 0.0000 29.5400
#
#
#
# Elastic Compliance Matrix: (Units=1/GPa)
#
#
# Indices 1 2 3 4 5 6 
#
# 1 0.013399 -0.008490 -0.001452 0.000000 0.000000 0.000000
# 2 -0.008490 0.025979 -0.012220 0.000000 0.000000 0.000000
# 3 -0.001452 -0.012220 0.024350 0.000000 0.000000 0.000000
# 4 0.000000 0.000000 0.000000 0.041430 0.000000 0.000000
# 5 0.000000 0.000000 0.000000 0.000000 0.031831 0.000000
# 6 0.000000 0.000000 0.000000 0.000000 0.000000 0.033852
#
#
# Mechanical properties :
#
#
# Convention : Reuss Voigt Hill
#
# Bulk Modulus (GPa) = 51.53761 55.18726 53.36244
# Shear Modulus (GPa) = 22.55990 25.28984 23.92487
#
# Velocity S-wave (km/s) = 3.39788 3.59760 3.49917
# Velocity P-wave (km/s) = 6.46296 6.74540 6.60569
#
# Compressibility (1/GPa) = 0.01940331
#
# Stress axis : x y z
#
# Youngs Moduli (GPa) = 74.63433 38.49271 41.06832
#
# Poissons Ratio (x) = 0.32680 0.05963
# Poissons Ratio (y) = 0.63365 0.50185
# Poissons Ratio (z) = 0.10837 0.47038
#
# Static dielectric constant tensor:
#      x y z
#    x 4.042770 0.000000 0.000000 
#    y 0.000000 3.815430 0.000000 
#    z 0.000000 0.000000 3.222700 
# 
# 
# High freq. dielectric constant tensor:
#      x y z
#    x 1.768770 0.000000 0.000000 
#    y 0.000000 1.761900 0.000000 
#    z 0.000000 0.000000 1.725510 
# 
# From -- ./inp_files/69935.got.cif
#   From: 2010.03.12/outbox.cif.g09.slc.cpg/sg66_35_cif.got.tgz:69935.got - 2010.04.10 21:57:39.
