data_PCOD8276921
_publ_section_title
;
Structure prediction by ZEFSAII (Michael W. Deem and Ramdas Pophale) SiO2 
 PCOD8276921
Probable space group: C C C M
;
_chemical_formula_sum "Si O2"
_cell_formula_units_Z 80
_cell_length_a 25.870978
_cell_length_b 11.724146
_cell_length_c 14.340687
_cell_angle_alpha 90.000000
_cell_angle_beta 90.000000
_cell_angle_gamma 90.000000
_cell_volume 4349.747245
_symmetry_space_group_name_H-M "C C C M"
_symmetry_group_IT_number 66
_symmetry_cell_setting 'orthorhombic'
loop_
_space_group_symop_operation_xyz
x,y,z
-x,-y,z
x,-y,1/2-z
-x,y,1/2-z
-x,-y,-z
x,y,-z
-x,y,1/2+z
x,-y,1/2+z
1/2+x,1/2+y,z
1/2-x,1/2-y,z
1/2+x,1/2-y,1/2-z
1/2-x,1/2+y,1/2-z
1/2-x,1/2-y,-z
1/2+x,1/2+y,-z
1/2-x,1/2+y,1/2+z
1/2+x,1/2-y,1/2+z
loop_
_atom_site_type_symbol
_atom_site_label
_atom_site_fract_x
_atom_site_fract_y
_atom_site_fract_z
Si Si1 0.221705 0.143895 0.155882
Si Si2 0.447558 0.564609 0.000000
Si Si3 0.445082 0.626826 0.791014
Si Si4 0.659482 0.458605 0.500000
Si Si5 0.191768 0.208278 0.500000
Si Si6 0.301751 0.000000 0.750000
Si Si7 0.345421 0.237402 0.698308
O O1 0.250000 0.250000 0.105978
O O2 0.173597 0.108818 0.093144
O O3 0.200083 0.186800 0.255807
O O4 0.263190 0.041916 0.167807
O O5 0.500000 0.500000 0.000000
O O6 0.445616 0.634814 0.096194
O O7 0.401498 0.473637 0.000000
O O8 0.433055 0.500000 0.750000
O O9 0.500000 0.669077 0.750000
O O10 0.400170 0.715559 0.762202
O O11 0.692714 0.572850 0.500000
O O12 0.250000 0.250000 0.500000
O O13 0.159148 0.251221 0.587811
O O14 0.338979 0.896324 0.779116
#
# Coordination Sequence:
#
# PCOD8276921 Si02
#       7
#    16   8  16   8   8   8  16
#     4  10  21  35  54  82 119 158 196 233 287 352
#     4  12  22  37  53  90 113 147 189 246 299 357
#     4  11  22  37  61  85 117 150 192 248 303 348
#     4  12  21  34  58  83 122 149 191 239 290 355
#     4  12  22  33  57  87 115 157 193 233 291 349
#     4  10  22  38  57  80 123 156 198 240 280 356
#     4  11  22  39  58  87 117 160 197 242 295 346
#
# _framework density 18.391874000000001
#
# number of rings (size 3 to 8) (size 9 to 14) (size 15 to 20)
#    0.000    1.000    4.000    5.700    1.400    0.000 
#    0.000    1.500    0.000    0.000    0.000    2.800 
#    0.000    0.000    0.000    0.000    0.000    0.000 
#
# Total GULP energy -495804.906749 kJ/mol
# GULP energy per Si atom -12395.122669 kJ/mol
# Density = 1.835001 g / cm^3
# Si number density = 18.391874 Si / 1000 Ang^3
#
#
#
# Elastic Constant Matrix: (Units=GPa)
#
#
# Indices 1 2 3 4 5 6 
#
# 1 153.3590 63.5994 32.0968 0.0000 0.0000 0.0000
# 2 63.5994 105.1412 35.6581 0.0000 0.0000 0.0000
# 3 32.0968 35.6581 109.9286 0.0000 0.0000 0.0000
# 4 0.0000 0.0000 0.0000 11.7160 0.0000 0.0000
# 5 0.0000 0.0000 0.0000 0.0000 28.9179 0.0000
# 6 0.0000 0.0000 0.0000 0.0000 0.0000 37.3824
#
#
#
# Elastic Compliance Matrix: (Units=1/GPa)
#
#
# Indices 1 2 3 4 5 6 
#
# 1 0.008791 -0.004997 -0.000946 0.000000 0.000000 0.000000
# 2 -0.004997 0.013527 -0.002929 0.000000 0.000000 0.000000
# 3 -0.000946 -0.002929 0.010323 0.000000 0.000000 0.000000
# 4 0.000000 0.000000 0.000000 0.085353 0.000000 0.000000
# 5 0.000000 0.000000 0.000000 0.000000 0.034581 0.000000
# 6 0.000000 0.000000 0.000000 0.000000 0.000000 0.026751
#
#
# Mechanical properties :
#
#
# Convention : Reuss Voigt Hill
#
# Bulk Modulus (GPa) = 67.12429 70.12637 68.62533
# Shear Modulus (GPa) = 24.74830 31.40823 28.07826
#
# Velocity S-wave (km/s) = 3.67224 4.13694 3.91150
# Velocity P-wave (km/s) = 7.38623 7.81222 7.60221
#
# Compressibility (1/GPa) = 0.01489774
#
# Stress axis : x y z
#
# Youngs Moduli (GPa) = 113.75520 73.92731 96.87075
#
# Poissons Ratio (x) = 0.36939 0.09163
# Poissons Ratio (y) = 0.56840 0.28372
# Poissons Ratio (z) = 0.10760 0.21652
#
# Static dielectric constant tensor:
#      x y z
#    x 3.302870 0.000000 0.000000 
#    y 0.000000 3.299990 0.000000 
#    z 0.000000 0.000000 3.406880 
# 
# 
# High freq. dielectric constant tensor:
#      x y z
#    x 1.716600 0.000000 0.000000 
#    y 0.000000 1.693520 0.000000 
#    z 0.000000 0.000000 1.720930 
# 
# From -- ./inp_files/33161.got.cif
#   From: 2010.03.12/outbox.cif.g09.slc.cpg/sg66_17_cif.got.tgz:33161.got - 2010.04.10 21:57:39.
