data_PCOD8276185
_publ_section_title
;
Structure prediction by ZEFSAII (Michael W. Deem and Ramdas Pophale) SiO2 
 PCOD8276185
Probable space group: C C C M
;
_chemical_formula_sum "Si O2"
_cell_formula_units_Z 96
_cell_length_a 26.541454
_cell_length_b 9.961246
_cell_length_c 18.001272
_cell_angle_alpha 90.000000
_cell_angle_beta 90.000000
_cell_angle_gamma 90.000000
_cell_volume 4759.283444
_symmetry_space_group_name_H-M "C C C M"
_symmetry_group_IT_number 66
_symmetry_cell_setting 'orthorhombic'
loop_
_space_group_symop_operation_xyz
x,y,z
-x,-y,z
x,-y,1/2-z
-x,y,1/2-z
-x,-y,-z
x,y,-z
-x,y,1/2+z
x,-y,1/2+z
1/2+x,1/2+y,z
1/2-x,1/2-y,z
1/2+x,1/2-y,1/2-z
1/2-x,1/2+y,1/2-z
1/2-x,1/2-y,-z
1/2+x,1/2+y,-z
1/2-x,1/2+y,1/2+z
1/2+x,1/2-y,1/2+z
loop_
_atom_site_type_symbol
_atom_site_label
_atom_site_fract_x
_atom_site_fract_y
_atom_site_fract_z
Si Si1 0.540827 0.607481 0.086519
Si Si2 0.643708 0.024000 0.669226
Si Si3 0.030356 0.615223 0.327716
Si Si4 0.807242 0.218630 0.312675
Si Si5 0.689407 0.753173 0.354246
Si Si6 0.151345 0.007833 0.916176
O O1 0.500000 0.500000 0.113885
O O2 0.533323 0.744850 0.130486
O O3 0.594146 0.541209 0.105273
O O4 0.534399 0.640494 0.000000
O O5 0.663909 0.896396 0.621999
O O6 0.668735 0.000000 0.750000
O O7 0.584501 0.044688 0.679260
O O8 0.666094 0.164227 0.638460
O O9 0.000000 0.500000 0.373540
O O10 0.000000 0.636995 0.250000
O O11 0.750000 0.250000 0.303338
O O12 0.828991 0.210951 0.228795
O O13 0.812834 0.080814 0.357009
O O14 0.750000 0.750000 0.364327
O O15 0.663146 0.649475 0.410310
O O16 0.162857 0.055675 0.000000
#
# Coordination Sequence:
#
# PCOD8276185 Si02
#       6
#    16  16  16  16  16  16
#     4  10  24  44  61  84 123 164 202 248 305 367
#     4  10  19  36  58  88 122 148 192 255 297 351
#     4  11  22  38  61  92 117 149 197 255 307 355
#     4  10  20  38  63  87 117 159 202 248 302 360
#     4  10  22  39  63  91 123 163 202 245 303 360
#     4  11  23  40  61  89 125 161 203 252 299 360
#
# _framework density 20.171102000000001
#
# number of rings (size 3 to 8) (size 9 to 14) (size 15 to 20)
#    0.000    1.667    3.333    1.500    2.333    4.000 
#    3.000    1.667    0.000    0.000    0.000    0.000 
#    0.000    0.000    0.000    0.000    0.000    0.000 
#
# Total GULP energy -594813.080153 kJ/mol
# GULP energy per Si atom -12391.939170 kJ/mol
# Density = 2.012519 g / cm^3
# Si number density = 20.171102 Si / 1000 Ang^3
#
#
#
# Elastic Constant Matrix: (Units=GPa)
#
#
# Indices 1 2 3 4 5 6 
#
# 1 96.8964 54.4665 28.2537 0.0000 0.0000 0.0000
# 2 54.4665 140.4328 29.0591 0.0000 0.0000 0.0000
# 3 28.2537 29.0591 48.5820 0.0000 0.0000 0.0000
# 4 0.0000 0.0000 0.0000 5.0501 0.0000 0.0000
# 5 0.0000 0.0000 0.0000 0.0000 97.4771 0.0000
# 6 0.0000 0.0000 0.0000 0.0000 0.0000 43.6383
#
#
#
# Elastic Compliance Matrix: (Units=1/GPa)
#
#
# Indices 1 2 3 4 5 6 
#
# 1 0.014494 -0.004425 -0.005782 0.000000 0.000000 0.000000
# 2 -0.004425 0.009478 -0.003096 0.000000 0.000000 0.000000
# 3 -0.005782 -0.003096 0.025798 0.000000 0.000000 0.000000
# 4 0.000000 0.000000 0.000000 0.198018 0.000000 0.000000
# 5 0.000000 0.000000 0.000000 0.000000 0.010259 0.000000
# 6 0.000000 0.000000 0.000000 0.000000 0.000000 0.022916
#
#
# Mechanical properties :
#
#
# Convention : Reuss Voigt Hill
#
# Bulk Modulus (GPa) = 43.17078 56.60776 49.88927
# Shear Modulus (GPa) = 15.85851 40.84190 28.35021
#
# Velocity S-wave (km/s) = 2.80697 4.50463 3.75305
# Velocity P-wave (km/s) = 5.65280 7.42834 6.60055
#
# Compressibility (1/GPa) = 0.02316382
#
# Stress axis : x y z
#
# Youngs Moduli (GPa) = 68.99607 105.51247 38.76241
#
# Poissons Ratio (x) = 0.46687 0.22414
# Poissons Ratio (y) = 0.30529 0.11999
# Poissons Ratio (z) = 0.39896 0.32663
#
# Static dielectric constant tensor:
#      x y z
#    x 3.665680 0.000000 0.000000 
#    y 0.000000 3.917950 0.000000 
#    z 0.000000 0.000000 3.353380 
# 
# 
# High freq. dielectric constant tensor:
#      x y z
#    x 1.798240 0.000000 0.000000 
#    y 0.000000 1.806490 0.000000 
#    z 0.000000 0.000000 1.750700 
# 
# From -- ./inp_files/52961.got.cif
#   From: 2010.03.12/outbox.cif.g09.slc.cpg/sg66_27_cif.got.tgz:52961.got - 2010.04.10 21:57:39.
