data_PCOD8276977
_publ_section_title
;
Structure prediction by ZEFSAII (Michael W. Deem and Ramdas Pophale) SiO2 
 PCOD8276977
Probable space group: C C C M
;
_chemical_formula_sum "Si O2"
_cell_formula_units_Z 52
_cell_length_a 5.179161
_cell_length_b 13.790286
_cell_length_c 31.650120
_cell_angle_alpha 90.000000
_cell_angle_beta 90.000000
_cell_angle_gamma 90.000000
_cell_volume 2260.518397
_symmetry_space_group_name_H-M "C C C M"
_symmetry_group_IT_number 66
_symmetry_cell_setting 'orthorhombic'
loop_
_space_group_symop_operation_xyz
x,y,z
-x,-y,z
x,-y,1/2-z
-x,y,1/2-z
-x,-y,-z
x,y,-z
-x,y,1/2+z
x,-y,1/2+z
1/2+x,1/2+y,z
1/2-x,1/2-y,z
1/2+x,1/2-y,1/2-z
1/2-x,1/2+y,1/2-z
1/2-x,1/2-y,-z
1/2+x,1/2+y,-z
1/2-x,1/2+y,1/2+z
1/2+x,1/2-y,1/2+z
loop_
_atom_site_type_symbol
_atom_site_label
_atom_site_fract_x
_atom_site_fract_y
_atom_site_fract_z
Si Si1 0.500000 0.000000 0.250000
Si Si2 0.248551 0.564440 0.545995
Si Si3 0.241702 0.633411 0.817386
Si Si4 0.755294 0.859105 0.135193
O O1 0.307481 0.927568 0.225033
O O2 0.500000 0.500000 0.544578
O O3 0.218386 0.617285 0.500000
O O4 0.281450 0.638653 0.584438
O O5 0.000000 0.500000 0.555233
O O6 0.250000 0.750000 0.808506
O O7 0.501392 0.594284 0.840251
O O8 0.015494 0.597802 0.849171
O O9 0.750000 0.750000 0.150086
#
# Coordination Sequence:
#
# PCOD8276977 Si02
#       4
#     4  16  16  16
#     4  12  28  46  76  96 126 190 212 278 364 396
#     4  10  21  36  60  94 129 165 212 261 304 376
#     4  10  25  44  66  99 131 164 222 275 322 401
#     4  10  22  42  64  91 130 168 207 267 322 378
#
# _framework density 23.003571999999998
#
# number of rings (size 3 to 8) (size 9 to 14) (size 15 to 20)
#    0.000    1.846    0.000    1.846    6.462    6.769 
#    0.000    0.000    0.000   11.077    0.000    0.000 
#    0.000    0.000    0.000    0.000    0.000    0.000 
#
# Total GULP energy -322145.075940 kJ/mol
# GULP energy per Si atom -12390.195228 kJ/mol
# Density = 2.295121 g / cm^3
# Si number density = 23.003572 Si / 1000 Ang^3
#
#
#
# Elastic Constant Matrix: (Units=GPa)
#
#
# Indices 1 2 3 4 5 6 
#
# 1 178.9354 23.7387 60.2041 0.0000 0.0000 0.0000
# 2 23.7387 73.6557 51.0539 0.0000 0.0000 0.0000
# 3 60.2041 51.0539 186.2114 0.0000 0.0000 0.0000
# 4 0.0000 0.0000 0.0000 41.9947 0.0000 0.0000
# 5 0.0000 0.0000 0.0000 0.0000 34.4595 0.0000
# 6 0.0000 0.0000 0.0000 0.0000 0.0000 -3.8374
#
#
#
# Elastic Compliance Matrix: (Units=1/GPa)
#
#
# Indices 1 2 3 4 5 6 
#
# 1 0.006305 -0.000764 -0.001829 0.000000 0.000000 0.000000
# 2 -0.000764 0.016855 -0.004374 0.000000 0.000000 0.000000
# 3 -0.001829 -0.004374 0.007161 0.000000 0.000000 0.000000
# 4 0.000000 0.000000 0.000000 0.023813 0.000000 0.000000
# 5 0.000000 0.000000 0.000000 0.000000 0.029020 0.000000
# 6 0.000000 0.000000 0.000000 0.000000 0.000000 -0.260591
#
#
# Mechanical properties :
#
#
# Convention : Reuss Voigt Hill
#
# Bulk Modulus (GPa) = 61.02691 78.75510 69.89100
# Shear Modulus (GPa) = -31.63727 34.77708 1.56990
#
# Velocity S-wave (km/s) = -3.71255 3.89242 0.82701
# Velocity P-wave (km/s) = 2.86522 7.38320 5.60005
#
# Compressibility (1/GPa) = 0.01638621
#
# Stress axis : x y z
#
# Youngs Moduli (GPa) = 158.59396 59.33021 139.64921
#
# Poissons Ratio (x) = 0.04535 0.25542
# Poissons Ratio (y) = 0.12123 0.61082
# Poissons Ratio (z) = 0.29007 0.25951
#
# Static dielectric constant tensor:
#      x y z
#    x 4.690090 0.000000 0.000000 
#    y 0.000000 3.910720 0.000000 
#    z 0.000000 0.000000 4.430130 
# 
# 
# High freq. dielectric constant tensor:
#      x y z
#    x 1.930710 0.000000 0.000000 
#    y 0.000000 1.892040 0.000000 
#    z 0.000000 0.000000 1.917070 
# 
# From -- ./inp_files/64831.got.cif
#   From: 2010.03.12/outbox.cif.g09.slc.cpg/sg66_33_cif.got.tgz:64831.got - 2010.04.10 21:57:39.
