data_PCOD8276511
_publ_section_title
;
Structure prediction by ZEFSAII (Michael W. Deem and Ramdas Pophale) SiO2 
 PCOD8276511
Probable space group: C C C M
;
_chemical_formula_sum "Si O2"
_cell_formula_units_Z 116
_cell_length_a 25.926634
_cell_length_b 24.996783
_cell_length_c 9.514541
_cell_angle_alpha 90.000000
_cell_angle_beta 90.000000
_cell_angle_gamma 90.000000
_cell_volume 6166.206985
_symmetry_space_group_name_H-M "C C C M"
_symmetry_group_IT_number 66
_symmetry_cell_setting 'orthorhombic'
loop_
_space_group_symop_operation_xyz
x,y,z
-x,-y,z
x,-y,1/2-z
-x,y,1/2-z
-x,-y,-z
x,y,-z
-x,y,1/2+z
x,-y,1/2+z
1/2+x,1/2+y,z
1/2-x,1/2-y,z
1/2+x,1/2-y,1/2-z
1/2-x,1/2+y,1/2-z
1/2-x,1/2-y,-z
1/2+x,1/2+y,-z
1/2-x,1/2+y,1/2+z
1/2+x,1/2-y,1/2+z
loop_
_atom_site_type_symbol
_atom_site_label
_atom_site_fract_x
_atom_site_fract_y
_atom_site_fract_z
Si Si1 0.500000 0.500000 0.250000
Si Si2 0.692216 0.743269 0.340835
Si Si3 0.171533 0.052783 0.339089
Si Si4 0.417909 0.413463 0.844694
Si Si5 0.214702 0.552888 0.839340
Si Si6 0.396964 0.702897 0.659302
Si Si7 0.637446 0.144047 0.158889
Si Si8 0.449203 0.812469 0.334355
O O1 0.536678 0.541888 0.166903
O O2 0.694975 0.720266 0.500000
O O3 0.750000 0.750000 0.277939
O O4 0.655618 0.702738 0.252651
O O5 0.668833 0.801724 0.338342
O O6 0.157745 0.040363 0.500000
O O7 0.125224 0.086489 0.275107
O O8 0.228039 0.079190 0.322947
O O9 0.172245 0.000000 0.250000
O O10 0.433172 0.350648 0.828764
O O11 0.394219 0.422539 0.000000
O O12 0.207036 0.500000 0.750000
O O13 0.174286 0.596694 0.789032
O O14 0.205888 0.536169 0.000000
O O15 0.377690 0.710836 0.500000
O O16 0.433348 0.751879 0.703739
O O17 0.592327 0.145917 0.273396
O O18 0.616681 0.133777 0.000000
O O19 0.500000 0.826187 0.250000
O O20 0.456709 0.821620 0.500000
#
# Coordination Sequence:
#
# PCOD8276511 Si02
#       8
#     4  16  16  16  16  16  16  16
#     4  12  26  40  64  78 106 148 198 252 310 344
#     4   9  18  32  54  82 112 144 182 226 275 336
#     4  10  20  35  56  79 107 142 182 227 274 330
#     4  11  24  41  57  78 107 141 188 242 294 344
#     4   9  19  34  55  83 115 150 185 224 269 325
#     4   9  21  38  54  77 110 144 182 231 283 340
#     4   9  18  34  54  80 114 147 183 225 272 327
#     4  10  20  36  58  82 110 143 183 227 277 332
#
# _framework density 18.812213
#
# number of rings (size 3 to 8) (size 9 to 14) (size 15 to 20)
#    0.000    2.345    0.690    1.034    2.897    3.034 
#    0.000    0.000    0.000    0.414    0.000    2.897 
#    0.000    0.000    0.000    0.000    0.000    0.000 
#
# Total GULP energy -718542.146472 kJ/mol
# GULP energy per Si atom -12388.657698 kJ/mol
# Density = 1.876940 g / cm^3
# Si number density = 18.812213 Si / 1000 Ang^3
#
#
#
# Elastic Constant Matrix: (Units=GPa)
#
#
# Indices 1 2 3 4 5 6 
#
# 1 100.8127 43.7323 57.2956 0.0000 0.0000 0.0000
# 2 43.7323 75.5486 32.6496 0.0000 0.0000 0.0000
# 3 57.2956 32.6496 106.4225 0.0000 0.0000 0.0000
# 4 0.0000 0.0000 0.0000 18.2622 0.0000 0.0000
# 5 0.0000 0.0000 0.0000 0.0000 27.4919 0.0000
# 6 0.0000 0.0000 0.0000 0.0000 0.0000 5.3059
#
#
#
# Elastic Compliance Matrix: (Units=1/GPa)
#
#
# Indices 1 2 3 4 5 6 
#
# 1 0.016799 -0.006705 -0.006987 0.000000 0.000000 0.000000
# 2 -0.006705 0.017936 -0.001893 0.000000 0.000000 0.000000
# 3 -0.006987 -0.001893 0.013739 0.000000 0.000000 0.000000
# 4 0.000000 0.000000 0.000000 0.054758 0.000000 0.000000
# 5 0.000000 0.000000 0.000000 0.000000 0.036374 0.000000
# 6 0.000000 0.000000 0.000000 0.000000 0.000000 0.188471
#
#
# Mechanical properties :
#
#
# Convention : Reuss Voigt Hill
#
# Bulk Modulus (GPa) = 57.78997 61.12654 59.45826
# Shear Modulus (GPa) = 13.69809 20.15240 16.92525
#
# Velocity S-wave (km/s) = 2.70135 3.27653 3.00275
# Velocity P-wave (km/s) = 6.36520 6.84673 6.61035
#
# Compressibility (1/GPa) = 0.01730404
#
# Stress axis : x y z
#
# Youngs Moduli (GPa) = 59.52744 55.75497 72.78536
#
# Poissons Ratio (x) = 0.37382 0.50857
# Poissons Ratio (y) = 0.39911 0.13777
# Poissons Ratio (z) = 0.41593 0.10554
#
# Static dielectric constant tensor:
#      x y z
#    x 4.008840 0.000000 0.000000 
#    y 0.000000 3.440850 0.000000 
#    z 0.000000 0.000000 3.742180 
# 
# 
# High freq. dielectric constant tensor:
#      x y z
#    x 1.722080 0.000000 0.000000 
#    y 0.000000 1.718930 0.000000 
#    z 0.000000 0.000000 1.735140 
# 
# From -- ./inp_files/10594.got.cif
#   From: 2010.03.12/outbox.cif.g09.slc.cpg/sg66_6_cif.got.tgz:10594.got - 2010.04.10 21:57:39.
