data_PCOD8276115
_publ_section_title
;
Structure prediction by ZEFSAII (Michael W. Deem and Ramdas Pophale) SiO2 
 PCOD8276115
Probable space group: C C C M
;
_chemical_formula_sum "Si O2"
_cell_formula_units_Z 96
_cell_length_a 18.459722
_cell_length_b 8.981487
_cell_length_c 28.102848
_cell_angle_alpha 90.000000
_cell_angle_beta 90.000000
_cell_angle_gamma 90.000000
_cell_volume 4659.332850
_symmetry_space_group_name_H-M "C C C M"
_symmetry_group_IT_number 66
_symmetry_cell_setting 'orthorhombic'
loop_
_space_group_symop_operation_xyz
x,y,z
-x,-y,z
x,-y,1/2-z
-x,y,1/2-z
-x,-y,-z
x,y,-z
-x,y,1/2+z
x,-y,1/2+z
1/2+x,1/2+y,z
1/2-x,1/2-y,z
1/2+x,1/2-y,1/2-z
1/2-x,1/2+y,1/2-z
1/2-x,1/2-y,-z
1/2+x,1/2+y,-z
1/2-x,1/2+y,1/2+z
1/2+x,1/2-y,1/2+z
loop_
_atom_site_type_symbol
_atom_site_label
_atom_site_fract_x
_atom_site_fract_y
_atom_site_fract_z
Si Si1 0.874186 0.000000 0.750000
Si Si2 0.663787 0.965813 0.898473
Si Si3 0.468037 0.155946 0.852361
Si Si4 0.712521 0.407660 0.162625
Si Si5 0.591981 0.285437 0.901739
Si Si6 0.500000 0.266620 0.750000
Si Si7 0.859078 0.162719 0.000000
Si Si8 0.788281 0.487582 0.000000
O O1 0.818742 0.003120 0.706203
O O2 0.926617 0.859445 0.742283
O O3 0.732476 0.985266 0.864594
O O4 0.621262 0.118924 0.902190
O O5 0.614435 0.839889 0.872179
O O6 0.687286 0.921269 0.952509
O O7 0.511969 0.288920 0.878415
O O8 0.480109 0.167162 0.795660
O O9 0.500000 0.000000 0.869160
O O10 0.750000 0.250000 0.177863
O O11 0.645402 0.385962 0.128196
O O12 0.588752 0.352878 0.954547
O O13 0.821425 0.323306 0.000000
O O14 0.798557 0.033195 0.000000
#
# Coordination Sequence:
#
# PCOD8276115 Si02
#       8
#     8  16  16  16  16   8   8   8
#     4  11  24  38  58  80 103 146 190 240 283 350
#     4   9  18  29  51  81 113 147 181 235 290 334
#     4  10  20  35  54  78 113 150 190 237 288 344
#     4  10  19  35  53  79 113 141 184 236 287 343
#     4   9  16  30  49  77 112 149 186 226 280 350
#     4  11  23  40  56  76 107 151 192 230 294 349
#     4   9  14  23  49  75 112 156 181 226 286 342
#     4   9  14  25  45  79 116 147 184 226 293 344
#
# _framework density 20.603808999999998
#
# number of rings (size 3 to 8) (size 9 to 14) (size 15 to 20)
#    0.000    2.333    3.333    0.250    0.000    2.000 
#    0.000    3.333    0.000    0.000    0.000    7.000 
#    0.000    0.000    0.000    0.000    0.000    0.000 
#
# Total GULP energy -594743.987227 kJ/mol
# GULP energy per Si atom -12390.499734 kJ/mol
# Density = 2.055691 g / cm^3
# Si number density = 20.603809 Si / 1000 Ang^3
#
#
#
# Elastic Constant Matrix: (Units=GPa)
#
#
# Indices 1 2 3 4 5 6 
#
# 1 146.3704 34.8995 93.7522 0.0000 0.0000 0.0000
# 2 34.8995 20.3778 26.4716 0.0000 0.0000 0.0000
# 3 93.7522 26.4716 198.1255 0.0000 0.0000 0.0000
# 4 0.0000 0.0000 0.0000 13.2473 0.0000 0.0000
# 5 0.0000 0.0000 0.0000 0.0000 -16.7146 0.0000
# 6 0.0000 0.0000 0.0000 0.0000 0.0000 22.8992
#
#
#
# Elastic Compliance Matrix: (Units=1/GPa)
#
#
# Indices 1 2 3 4 5 6 
#
# 1 0.013834 -0.018379 -0.004091 0.000000 0.000000 0.000000
# 2 -0.018379 0.083795 -0.002499 0.000000 0.000000 0.000000
# 3 -0.004091 -0.002499 0.007317 0.000000 0.000000 0.000000
# 4 0.000000 0.000000 0.000000 0.075487 0.000000 0.000000
# 5 0.000000 0.000000 0.000000 0.000000 -0.059828 0.000000
# 6 0.000000 0.000000 0.000000 0.000000 0.000000 0.043670
#
#
# Mechanical properties :
#
#
# Convention : Reuss Voigt Hill
#
# Bulk Modulus (GPa) = 18.17878 75.01336 46.59607
# Shear Modulus (GPa) = 21.50085 17.86974 19.68529
#
# Velocity S-wave (km/s) = 3.23389 2.94820 3.09434
# Velocity P-wave (km/s) = 4.77349 6.93366 5.95239
#
# Compressibility (1/GPa) = 0.05500918
#
# Stress axis : x y z
#
# Youngs Moduli (GPa) = 72.28428 11.93384 136.66945
#
# Poissons Ratio (x) = 0.21933 0.55908
# Poissons Ratio (y) = 1.32850 0.34155
# Poissons Ratio (z) = 0.29569 0.02982
#
# Static dielectric constant tensor:
#      x y z
#    x 4.012640 0.000000 0.000000 
#    y 0.000000 3.222360 0.000000 
#    z 0.000000 0.000000 4.235780 
# 
# 
# High freq. dielectric constant tensor:
#      x y z
#    x 1.807490 0.000000 0.000000 
#    y 0.000000 1.753260 0.000000 
#    z 0.000000 0.000000 1.818810 
# 
# From -- ./inp_files/65254.got.cif
#   From: 2010.03.12/outbox.cif.g09.slc.cpg/sg66_33_cif.got.tgz:65254.got - 2010.04.10 21:57:39.
