data_PCOD8276866
_publ_section_title
;
Structure prediction by ZEFSAII (Michael W. Deem and Ramdas Pophale) SiO2 
 PCOD8276866
Probable space group: C C C M
;
_chemical_formula_sum "Si O2"
_cell_formula_units_Z 60
_cell_length_a 11.974786
_cell_length_b 9.480715
_cell_length_c 22.949542
_cell_angle_alpha 90.000000
_cell_angle_beta 90.000000
_cell_angle_gamma 90.000000
_cell_volume 2605.450792
_symmetry_space_group_name_H-M "C C C M"
_symmetry_group_IT_number 66
_symmetry_cell_setting 'orthorhombic'
loop_
_space_group_symop_operation_xyz
x,y,z
-x,-y,z
x,-y,1/2-z
-x,y,1/2-z
-x,-y,-z
x,y,-z
-x,y,1/2+z
x,-y,1/2+z
1/2+x,1/2+y,z
1/2-x,1/2-y,z
1/2+x,1/2-y,1/2-z
1/2-x,1/2+y,1/2-z
1/2-x,1/2-y,-z
1/2+x,1/2+y,-z
1/2-x,1/2+y,1/2+z
1/2+x,1/2-y,1/2+z
loop_
_atom_site_type_symbol
_atom_site_label
_atom_site_fract_x
_atom_site_fract_y
_atom_site_fract_z
Si Si1 0.895208 0.401972 0.064766
Si Si2 0.000000 0.000000 0.150022
Si Si3 0.122933 0.739109 0.819987
Si Si4 0.500000 0.000000 0.250000
Si Si5 0.190587 0.107315 0.066263
O O1 0.888737 0.274144 0.109957
O O2 0.780245 0.484421 0.070552
O O3 0.000000 0.500000 0.079671
O O4 0.908849 0.337527 0.000000
O O5 0.943606 0.116141 0.193124
O O6 0.090298 0.077730 0.109871
O O7 0.250000 0.750000 0.798845
O O8 0.075205 0.599867 0.789881
O O9 0.250000 0.250000 0.087284
O O10 0.145633 0.124482 0.000000
#
# Coordination Sequence:
#
# PCOD8276866 Si02
#       5
#    16   8  16   4  16
#     4  10  20  40  71 107 150 191 233 289 362 437
#     4  12  25  41  74 106 142 180 243 293 356 428
#     4  12  27  50  76 107 141 190 241 305 365 430
#     4  12  32  54  74  98 140 186 256 306 366 422
#     4  10  21  37  63 106 156 196 228 281 351 430
#
# _framework density 23.028645000000001
#
# number of rings (size 3 to 8) (size 9 to 14) (size 15 to 20)
#    0.000    1.067    4.000    2.000    0.000    7.467 
#    0.000    0.000    0.000    0.000    0.000    0.000 
#    0.000    0.000    0.000    0.000    0.000    0.000 
#
# Total GULP energy -372075.925149 kJ/mol
# GULP energy per Si atom -12402.530838 kJ/mol
# Density = 2.297623 g / cm^3
# Si number density = 23.028645 Si / 1000 Ang^3
#
#
#
# Elastic Constant Matrix: (Units=GPa)
#
#
# Indices 1 2 3 4 5 6 
#
# 1 157.4419 62.1568 35.8540 0.0000 0.0000 0.0000
# 2 62.1568 142.6419 46.6325 0.0000 0.0000 0.0000
# 3 35.8540 46.6325 65.1601 0.0000 0.0000 0.0000
# 4 0.0000 0.0000 0.0000 27.8939 0.0000 0.0000
# 5 0.0000 0.0000 0.0000 0.0000 -5.0059 0.0000
# 6 0.0000 0.0000 0.0000 0.0000 0.0000 44.1135
#
#
#
# Elastic Compliance Matrix: (Units=1/GPa)
#
#
# Indices 1 2 3 4 5 6 
#
# 1 0.007967 -0.002661 -0.002479 0.000000 0.000000 0.000000
# 2 -0.002661 0.010041 -0.005721 0.000000 0.000000 0.000000
# 3 -0.002479 -0.005721 0.020806 0.000000 0.000000 0.000000
# 4 0.000000 0.000000 0.000000 0.035850 0.000000 0.000000
# 5 0.000000 0.000000 0.000000 0.000000 -0.199763 0.000000
# 6 0.000000 0.000000 0.000000 0.000000 0.000000 0.022669
#
#
# Mechanical properties :
#
#
# Convention : Reuss Voigt Hill
#
# Bulk Modulus (GPa) = 58.51548 72.72560 65.62054
# Shear Modulus (GPa) = -66.65613 28.10700 -19.27456
#
# Velocity S-wave (km/s) = -5.38588 3.49739 -2.89620
# Velocity P-wave (km/s) = 3.63482 6.92517 4.16810
#
# Compressibility (1/GPa) = 0.01708949
#
# Stress axis : x y z
#
# Youngs Moduli (GPa) = 125.52267 99.59607 48.06394
#
# Poissons Ratio (x) = 0.26503 0.11916
# Poissons Ratio (y) = 0.33402 0.27499
# Poissons Ratio (z) = 0.31120 0.56983
#
# Static dielectric constant tensor:
#      x y z
#    x 4.329560 0.000000 0.000000 
#    y 0.000000 4.293840 0.000000 
#    z 0.000000 0.000000 4.061980 
# 
# 
# High freq. dielectric constant tensor:
#      x y z
#    x 1.926490 0.000000 0.000000 
#    y 0.000000 1.917720 0.000000 
#    z 0.000000 0.000000 1.893820 
# 
# From -- ./inp_files/63262.got.cif
#   From: 2010.03.12/outbox.cif.g09.slc.cpg/sg66_32_cif.got.tgz:63262.got - 2010.04.10 21:57:39.
