data_PCOD8276795
_publ_section_title
;
Structure prediction by ZEFSAII (Michael W. Deem and Ramdas Pophale) SiO2 
 PCOD8276795
Probable space group: C C C M
;
_chemical_formula_sum "Si O2"
_cell_formula_units_Z 56
_cell_length_a 31.756686
_cell_length_b 5.023854
_cell_length_c 16.496473
_cell_angle_alpha 90.000000
_cell_angle_beta 90.000000
_cell_angle_gamma 90.000000
_cell_volume 2631.863040
_symmetry_space_group_name_H-M "C C C M"
_symmetry_group_IT_number 66
_symmetry_cell_setting 'orthorhombic'
loop_
_space_group_symop_operation_xyz
x,y,z
-x,-y,z
x,-y,1/2-z
-x,y,1/2-z
-x,-y,-z
x,y,-z
-x,y,1/2+z
x,-y,1/2+z
1/2+x,1/2+y,z
1/2-x,1/2-y,z
1/2+x,1/2-y,1/2-z
1/2-x,1/2+y,1/2-z
1/2-x,1/2-y,-z
1/2+x,1/2+y,-z
1/2-x,1/2+y,1/2+z
1/2+x,1/2-y,1/2+z
loop_
_atom_site_type_symbol
_atom_site_label
_atom_site_fract_x
_atom_site_fract_y
_atom_site_fract_z
Si Si1 0.250000 0.250000 0.804643
Si Si2 0.339019 0.397577 0.158758
Si Si3 0.474609 0.748744 0.903623
Si Si4 0.382324 0.115010 0.593198
O O1 0.236544 0.500000 0.750000
O O2 0.290465 0.320162 0.859511
O O3 0.344769 0.500000 0.250000
O O4 0.349654 0.641768 0.099553
O O5 0.368543 0.142443 0.144336
O O6 0.500000 0.500000 0.866159
O O7 0.426731 0.774332 0.872223
O O8 0.500000 0.000000 0.872169
O O9 0.473875 0.726698 0.000000
O O10 0.386113 0.023493 0.500000
#
# Coordination Sequence:
#
# PCOD8276795 Si02
#       4
#     8  16  16  16
#     4  10  20  38  61  84 109 150 204 240 270 346
#     4  11  22  39  61  85 114 155 198 237 287 350
#     4   9  17  31  53  80 111 150 192 229 269 330
#     4  11  22  37  59  90 122 149 191 247 295 337
#
# _framework density 21.277702999999999
#
# number of rings (size 3 to 8) (size 9 to 14) (size 15 to 20)
#    0.000    1.714    0.000    6.857    0.000    4.571 
#    0.000    4.286    0.000   12.857    0.000    0.000 
#    0.000    0.000    0.000    0.000    0.000    0.286 
#
# Total GULP energy -347197.884584 kJ/mol
# GULP energy per Si atom -12399.924449 kJ/mol
# Density = 2.122927 g / cm^3
# Si number density = 21.277703 Si / 1000 Ang^3
#
#
#
# Elastic Constant Matrix: (Units=GPa)
#
#
# Indices 1 2 3 4 5 6 
#
# 1 165.6929 78.9741 46.3285 0.0000 0.0000 0.0000
# 2 78.9741 181.0685 27.0180 0.0000 0.0000 0.0000
# 3 46.3285 27.0180 37.9926 0.0000 0.0000 0.0000
# 4 0.0000 0.0000 0.0000 28.1965 0.0000 0.0000
# 5 0.0000 0.0000 0.0000 0.0000 23.5540 0.0000
# 6 0.0000 0.0000 0.0000 0.0000 0.0000 45.9765
#
#
#
# Elastic Compliance Matrix: (Units=1/GPa)
#
#
# Indices 1 2 3 4 5 6 
#
# 1 0.010405 -0.002959 -0.010583 0.000000 0.000000 0.000000
# 2 -0.002959 0.007020 -0.001384 0.000000 0.000000 0.000000
# 3 -0.010583 -0.001384 0.040211 0.000000 0.000000 0.000000
# 4 0.000000 0.000000 0.000000 0.035465 0.000000 0.000000
# 5 0.000000 0.000000 0.000000 0.000000 0.042456 0.000000
# 6 0.000000 0.000000 0.000000 0.000000 0.000000 0.021750
#
#
# Mechanical properties :
#
#
# Convention : Reuss Voigt Hill
#
# Bulk Modulus (GPa) = 35.99378 76.59947 56.29662
# Shear Modulus (GPa) = 25.45568 35.04097 30.24833
#
# Velocity S-wave (km/s) = 3.46259 4.06253 3.77450
# Velocity P-wave (km/s) = 5.73925 7.62126 6.74620
#
# Compressibility (1/GPa) = 0.02778258
#
# Stress axis : x y z
#
# Youngs Moduli (GPa) = 96.11019 142.45392 24.86905
#
# Poissons Ratio (x) = 0.42150 0.26320
# Poissons Ratio (y) = 0.28438 0.03442
# Poissons Ratio (z) = 1.01718 0.19715
#
# Static dielectric constant tensor:
#      x y z
#    x 4.121450 0.000000 0.000000 
#    y 0.000000 4.004150 0.000000 
#    z 0.000000 0.000000 3.321240 
# 
# 
# High freq. dielectric constant tensor:
#      x y z
#    x 1.849930 0.000000 0.000000 
#    y 0.000000 1.859210 0.000000 
#    z 0.000000 0.000000 1.782720 
# 
# From -- ./inp_files/33541.got.cif
#   From: 2010.03.12/outbox.cif.g09.slc.cpg/sg66_17_cif.got.tgz:33541.got - 2010.04.10 21:57:39.
