data_PCOD8276959
_publ_section_title
;
Structure prediction by ZEFSAII (Michael W. Deem and Ramdas Pophale) SiO2 
 PCOD8276959
Probable space group: C C C M
;
_chemical_formula_sum "Si O2"
_cell_formula_units_Z 104
_cell_length_a 27.761068
_cell_length_b 20.827122
_cell_length_c 9.070262
_cell_angle_alpha 90.000000
_cell_angle_beta 90.000000
_cell_angle_gamma 90.000000
_cell_volume 5244.272655
_symmetry_space_group_name_H-M "C C C M"
_symmetry_group_IT_number 66
_symmetry_cell_setting 'orthorhombic'
loop_
_space_group_symop_operation_xyz
x,y,z
-x,-y,z
x,-y,1/2-z
-x,y,1/2-z
-x,-y,-z
x,y,-z
-x,y,1/2+z
x,-y,1/2+z
1/2+x,1/2+y,z
1/2-x,1/2-y,z
1/2+x,1/2-y,1/2-z
1/2-x,1/2+y,1/2-z
1/2-x,1/2-y,-z
1/2+x,1/2+y,-z
1/2-x,1/2+y,1/2+z
1/2+x,1/2-y,1/2+z
loop_
_atom_site_type_symbol
_atom_site_label
_atom_site_fract_x
_atom_site_fract_y
_atom_site_fract_z
Si Si1 0.050654 0.434064 0.176605
Si Si2 0.213045 0.562554 0.829429
Si Si3 0.125018 0.652483 0.830625
Si Si4 0.047784 0.894332 0.161525
Si Si5 0.117326 0.000000 0.250000
Si Si6 0.308555 0.601945 0.335249
Si Si7 0.628088 0.698826 0.326855
O O1 0.069514 0.500000 0.250000
O O2 0.087795 0.378496 0.217005
O O3 0.000000 0.415567 0.250000
O O4 0.045909 0.441302 0.000000
O O5 0.190538 0.500000 0.750000
O O6 0.177564 0.622347 0.806952
O O7 0.264346 0.577863 0.760740
O O8 0.220669 0.545943 0.000000
O O9 0.127762 0.726675 0.787961
O O10 0.107857 0.642780 0.000000
O O11 0.077622 0.833415 0.225501
O O12 0.000000 0.909993 0.250000
O O13 0.082796 0.955984 0.150008
O O14 0.029446 0.876788 0.000000
O O15 0.150840 0.046696 0.153302
O O16 0.291206 0.618219 0.500000
O O17 0.328140 0.666689 0.260706
O O18 0.636166 0.685951 0.500000
#
# Coordination Sequence:
#
# PCOD8276959 Si02
#       7
#    16  16  16  16   8  16  16
#     4  11  22  38  62  90 120 154 194 243 295 356
#     4  11  23  38  60  88 118 151 192 241 299 356
#     4  10  22  41  62  86 118 158 198 242 296 356
#     4  10  21  36  56  83 114 150 193 241 291 347
#     4  10  21  36  58  82 114 156 197 238 298 350
#     4  11  22  37  60  86 115 151 198 246 292 352
#     4   9  21  41  60  80 115 158 198 239 293 357
#
# _framework density 19.831157999999999
#
# number of rings (size 3 to 8) (size 9 to 14) (size 15 to 20)
#    0.000    1.692    0.769    3.923    0.000    9.231 
#    0.000    4.615    0.000    0.000    0.000    0.000 
#    0.000    0.000    0.000    0.000    0.000    0.000 
#
# Total GULP energy -644813.251677 kJ/mol
# GULP energy per Si atom -12400.254840 kJ/mol
# Density = 1.978602 g / cm^3
# Si number density = 19.831158 Si / 1000 Ang^3
#
#
#
# Elastic Constant Matrix: (Units=GPa)
#
#
# Indices 1 2 3 4 5 6 
#
# 1 96.3741 63.7332 46.0288 0.0000 0.0000 0.0000
# 2 63.7332 146.0129 51.7211 0.0000 0.0000 0.0000
# 3 46.0288 51.7211 121.6974 0.0000 0.0000 0.0000
# 4 0.0000 0.0000 0.0000 27.7685 0.0000 0.0000
# 5 0.0000 0.0000 0.0000 0.0000 23.7562 0.0000
# 6 0.0000 0.0000 0.0000 0.0000 0.0000 24.9676
#
#
#
# Elastic Compliance Matrix: (Units=1/GPa)
#
#
# Indices 1 2 3 4 5 6 
#
# 1 0.015814 -0.005632 -0.003588 0.000000 0.000000 0.000000
# 2 -0.005632 0.010068 -0.002149 0.000000 0.000000 0.000000
# 3 -0.003588 -0.002149 0.010487 0.000000 0.000000 0.000000
# 4 0.000000 0.000000 0.000000 0.036012 0.000000 0.000000
# 5 0.000000 0.000000 0.000000 0.000000 0.042094 0.000000
# 6 0.000000 0.000000 0.000000 0.000000 0.000000 0.040052
#
#
# Mechanical properties :
#
#
# Convention : Reuss Voigt Hill
#
# Bulk Modulus (GPa) = 73.35296 76.33897 74.84596
# Shear Modulus (GPa) = 27.50139 28.80521 28.15330
#
# Velocity S-wave (km/s) = 3.72799 3.81533 3.77191
# Velocity P-wave (km/s) = 7.45651 7.61492 7.53613
#
# Compressibility (1/GPa) = 0.01363272
#
# Stress axis : x y z
#
# Youngs Moduli (GPa) = 63.23444 99.32337 95.35320
#
# Poissons Ratio (x) = 0.55938 0.34210
# Poissons Ratio (y) = 0.35613 0.20490
# Poissons Ratio (z) = 0.22687 0.21343
#
# Static dielectric constant tensor:
#      x y z
#    x 3.551980 0.000000 0.000000 
#    y 0.000000 3.711150 0.000000 
#    z 0.000000 0.000000 3.571510 
# 
# 
# High freq. dielectric constant tensor:
#      x y z
#    x 1.774930 0.000000 0.000000 
#    y 0.000000 1.774270 0.000000 
#    z 0.000000 0.000000 1.773310 
# 
# From -- ./inp_files/10371.got.cif
#   From: 2010.03.12/outbox.cif.g09.slc.cpg/sg66_6_cif.got.tgz:10371.got - 2010.04.10 21:57:39.
