data_PCOD8276311
_publ_section_title
;
Structure prediction by ZEFSAII (Michael W. Deem and Ramdas Pophale) SiO2 
 PCOD8276311
Probable space group: C C C M
;
_chemical_formula_sum "Si O2"
_cell_formula_units_Z 56
_cell_length_a 7.141095
_cell_length_b 19.730222
_cell_length_c 18.780994
_cell_angle_alpha 90.000000
_cell_angle_beta 90.000000
_cell_angle_gamma 90.000000
_cell_volume 2646.155468
_symmetry_space_group_name_H-M "C C C M"
_symmetry_group_IT_number 66
_symmetry_cell_setting 'orthorhombic'
loop_
_space_group_symop_operation_xyz
x,y,z
-x,-y,z
x,-y,1/2-z
-x,y,1/2-z
-x,-y,-z
x,y,-z
-x,y,1/2+z
x,-y,1/2+z
1/2+x,1/2+y,z
1/2-x,1/2-y,z
1/2+x,1/2-y,1/2-z
1/2-x,1/2+y,1/2-z
1/2-x,1/2-y,-z
1/2+x,1/2+y,-z
1/2-x,1/2+y,1/2+z
1/2+x,1/2-y,1/2+z
loop_
_atom_site_type_symbol
_atom_site_label
_atom_site_fract_x
_atom_site_fract_y
_atom_site_fract_z
Si Si1 0.750000 0.250000 0.693333
Si Si2 0.549931 0.716768 0.421537
Si Si3 0.007782 0.073803 0.634016
Si Si4 0.285995 0.894242 0.743220
O O1 0.571265 0.252969 0.642144
O O2 0.732188 0.187260 0.747395
O O3 0.470348 0.735981 0.500000
O O4 0.750000 0.750000 0.411608
O O5 0.558452 0.634540 0.419321
O O6 0.166567 0.070901 0.694967
O O7 0.800934 0.085403 0.667065
O O8 0.000000 0.000000 0.595554
O O9 0.500000 0.918701 0.750000
#
# Coordination Sequence:
#
# PCOD8276311 Si02
#       4
#     8  16  16  16
#     4  10  21  32  56  84 111 144 182 238 278 338
#     4  10  21  38  58  79 109 147 192 238 281 330
#     4  10  22  36  52  81 114 145 189 231 281 347
#     4  10  20  32  54  80 113 147 179 226 291 342
#
# _framework density 21.162776999999998
#
# number of rings (size 3 to 8) (size 9 to 14) (size 15 to 20)
#    0.000    2.000    0.000    3.857   10.000    2.857 
#    0.000    0.000    0.000    0.000    0.000   16.000 
#    0.000    0.000    0.000    0.000    0.000    0.000 
#
# Total GULP energy -347082.137455 kJ/mol
# GULP energy per Si atom -12395.790623 kJ/mol
# Density = 2.111461 g / cm^3
# Si number density = 21.162777 Si / 1000 Ang^3
#
#
#
# Elastic Constant Matrix: (Units=GPa)
#
#
# Indices 1 2 3 4 5 6 
#
# 1 137.1116 23.4542 19.9779 0.0000 0.0000 0.0000
# 2 23.4542 144.5351 2.7295 0.0000 0.0000 0.0000
# 3 19.9779 2.7295 37.5641 0.0000 0.0000 0.0000
# 4 0.0000 0.0000 0.0000 -19.5275 0.0000 0.0000
# 5 0.0000 0.0000 0.0000 0.0000 -8.3112 0.0000
# 6 0.0000 0.0000 0.0000 0.0000 0.0000 16.5260
#
#
#
# Elastic Compliance Matrix: (Units=1/GPa)
#
#
# Indices 1 2 3 4 5 6 
#
# 1 0.008121 -0.001238 -0.004229 0.000000 0.000000 0.000000
# 2 -0.001238 0.007117 0.000141 0.000000 0.000000 0.000000
# 3 -0.004229 0.000141 0.028860 0.000000 0.000000 0.000000
# 4 0.000000 0.000000 0.000000 -0.051210 0.000000 0.000000
# 5 0.000000 0.000000 0.000000 0.000000 -0.120320 0.000000
# 6 0.000000 0.000000 0.000000 0.000000 0.000000 0.060511
#
#
# Mechanical properties :
#
#
# Convention : Reuss Voigt Hill
#
# Bulk Modulus (GPa) = 29.89850 45.72599 37.81225
# Shear Modulus (GPa) = -110.81530 15.94075 -47.43727
#
# Velocity S-wave (km/s) = -7.24410 2.74751 -4.73963
# Velocity P-wave (km/s) = 7.47066 5.63194 3.47073
#
# Compressibility (1/GPa) = 0.03344649
#
# Stress axis : x y z
#
# Youngs Moduli (GPa) = 123.13263 140.50937 34.64986
#
# Poissons Ratio (x) = 0.17395 0.14654
# Poissons Ratio (y) = 0.15244 -0.00490
# Poissons Ratio (z) = 0.52076 -0.01985
#
# Static dielectric constant tensor:
#      x y z
#    x 3.914250 0.000000 0.000000 
#    y 0.000000 4.017560 0.000000 
#    z 0.000000 0.000000 3.581310 
# 
# 
# High freq. dielectric constant tensor:
#      x y z
#    x 1.832950 0.000000 0.000000 
#    y 0.000000 1.839460 0.000000 
#    z 0.000000 0.000000 1.797260 
# 
# From -- ./inp_files/45462.got.cif
#   From: 2010.03.12/outbox.cif.g09.slc.cpg/sg66_23_cif.got.tgz:45462.got - 2010.04.10 21:57:39.
