data_PCOD8276806
_publ_section_title
;
Structure prediction by ZEFSAII (Michael W. Deem and Ramdas Pophale) SiO2 
 PCOD8276806
Probable space group: C C C M
;
_chemical_formula_sum "Si O2"
_cell_formula_units_Z 96
_cell_length_a 20.828574
_cell_length_b 14.616651
_cell_length_c 15.422007
_cell_angle_alpha 90.000000
_cell_angle_beta 90.000000
_cell_angle_gamma 90.000000
_cell_volume 4695.137453
_symmetry_space_group_name_H-M "C C C M"
_symmetry_group_IT_number 66
_symmetry_cell_setting 'orthorhombic'
loop_
_space_group_symop_operation_xyz
x,y,z
-x,-y,z
x,-y,1/2-z
-x,y,1/2-z
-x,-y,-z
x,y,-z
-x,y,1/2+z
x,-y,1/2+z
1/2+x,1/2+y,z
1/2-x,1/2-y,z
1/2+x,1/2-y,1/2-z
1/2-x,1/2+y,1/2-z
1/2-x,1/2-y,-z
1/2+x,1/2+y,-z
1/2-x,1/2+y,1/2+z
1/2+x,1/2-y,1/2+z
loop_
_atom_site_type_symbol
_atom_site_label
_atom_site_fract_x
_atom_site_fract_y
_atom_site_fract_z
Si Si1 0.177984 0.257126 0.732042
Si Si2 0.447820 0.256136 0.826165
Si Si3 0.400179 0.022532 0.500000
Si Si4 0.830861 0.943709 0.334184
Si Si5 0.938906 0.947266 0.097131
Si Si6 0.314047 0.949708 0.160979
Si Si7 0.487794 0.846741 0.500000
O O1 0.250000 0.250000 0.775216
O O2 0.122543 0.283508 0.801151
O O3 0.160647 0.164918 0.679883
O O4 0.178881 0.340311 0.664600
O O5 0.500000 0.240561 0.750000
O O6 0.431088 0.361967 0.839447
O O7 0.474534 0.211059 0.913521
O O8 0.357699 0.012202 0.414735
O O9 0.438442 0.118885 0.500000
O O10 0.445855 0.936603 0.500000
O O11 0.759452 0.971928 0.362453
O O12 0.851122 0.000000 0.250000
O O13 0.879250 0.981921 0.406301
O O14 0.950373 0.910809 0.000000
O O15 0.000000 0.000000 0.133339
O O16 0.334142 0.000000 0.250000
#
# Coordination Sequence:
#
# PCOD8276806 Si02
#       7
#    16  16   8  16  16  16   8
#     4  10  21  39  62  94 127 168 218 261 312 384
#     4  12  23  41  68  92 128 172 211 261 328 381
#     4  11  24  44  66  86 128 164 209 280 330 359
#     4  10  20  38  62  91 128 166 209 257 309 385
#     4  11  24  39  58  93 130 165 208 259 313 391
#     4  10  22  41  65  93 124 165 216 263 320 383
#     4  11  26  44  61  97 124 157 224 274 312 394
#
# _framework density 20.446684999999999
#
# number of rings (size 3 to 8) (size 9 to 14) (size 15 to 20)
#    0.000    1.333    2.500    3.000    1.167    0.000 
#    1.500    3.333    0.000    0.000    0.000    0.000 
#    0.000    0.000    0.000    0.000    0.000    0.000 
#
# Total GULP energy -595068.670077 kJ/mol
# GULP energy per Si atom -12397.263960 kJ/mol
# Density = 2.040015 g / cm^3
# Si number density = 20.446685 Si / 1000 Ang^3
#
#
#
# Elastic Constant Matrix: (Units=GPa)
#
#
# Indices 1 2 3 4 5 6 
#
# 1 135.2096 34.1798 63.7449 0.0000 0.0000 0.0000
# 2 34.1798 102.8825 33.1918 0.0000 0.0000 0.0000
# 3 63.7449 33.1918 104.1471 0.0000 0.0000 0.0000
# 4 0.0000 0.0000 0.0000 7.3799 0.0000 0.0000
# 5 0.0000 0.0000 0.0000 0.0000 44.9421 0.0000
# 6 0.0000 0.0000 0.0000 0.0000 0.0000 33.1823
#
#
#
# Elastic Compliance Matrix: (Units=1/GPa)
#
#
# Indices 1 2 3 4 5 6 
#
# 1 0.010626 -0.001596 -0.005995 0.000000 0.000000 0.000000
# 2 -0.001596 0.011073 -0.002552 0.000000 0.000000 0.000000
# 3 -0.005995 -0.002552 0.014085 0.000000 0.000000 0.000000
# 4 0.000000 0.000000 0.000000 0.135502 0.000000 0.000000
# 5 0.000000 0.000000 0.000000 0.000000 0.022251 0.000000
# 6 0.000000 0.000000 0.000000 0.000000 0.000000 0.030137
#
#
# Mechanical properties :
#
#
# Convention : Reuss Voigt Hill
#
# Bulk Modulus (GPa) = 64.52776 67.16357 65.84566
# Shear Modulus (GPa) = 20.07019 31.17573 25.62296
#
# Velocity S-wave (km/s) = 3.13643 3.90902 3.54384
# Velocity P-wave (km/s) = 6.68908 7.30023 7.00133
#
# Compressibility (1/GPa) = 0.01549721
#
# Stress axis : x y z
#
# Youngs Moduli (GPa) = 94.11111 90.30604 70.99981
#
# Poissons Ratio (x) = 0.14413 0.42564
# Poissons Ratio (y) = 0.15020 0.18121
# Poissons Ratio (z) = 0.56420 0.23048
#
# Static dielectric constant tensor:
#      x y z
#    x 3.993180 0.000000 0.000000 
#    y 0.000000 3.810160 0.000000 
#    z 0.000000 0.000000 3.420910 
# 
# 
# High freq. dielectric constant tensor:
#      x y z
#    x 1.817190 0.000000 0.000000 
#    y 0.000000 1.810120 0.000000 
#    z 0.000000 0.000000 1.779040 
# 
# From -- ./inp_files/28458.got.cif
#   From: 2010.03.12/outbox.cif.g09.slc.cpg/sg66_15_cif.got.tgz:28458.got - 2010.04.10 21:57:39.
