data_PCOD8276261
_publ_section_title
;
Structure prediction by ZEFSAII (Michael W. Deem and Ramdas Pophale) SiO2 
 PCOD8276261
Probable space group: C C C M
;
_chemical_formula_sum "Si O2"
_cell_formula_units_Z 112
_cell_length_a 14.600175
_cell_length_b 12.190447
_cell_length_c 29.207006
_cell_angle_alpha 90.000000
_cell_angle_beta 90.000000
_cell_angle_gamma 90.000000
_cell_volume 5198.340605
_symmetry_space_group_name_H-M "C C C M"
_symmetry_group_IT_number 66
_symmetry_cell_setting 'orthorhombic'
loop_
_space_group_symop_operation_xyz
x,y,z
-x,-y,z
x,-y,1/2-z
-x,y,1/2-z
-x,-y,-z
x,y,-z
-x,y,1/2+z
x,-y,1/2+z
1/2+x,1/2+y,z
1/2-x,1/2-y,z
1/2+x,1/2-y,1/2-z
1/2-x,1/2+y,1/2-z
1/2-x,1/2-y,-z
1/2+x,1/2+y,-z
1/2-x,1/2+y,1/2+z
1/2+x,1/2-y,1/2+z
loop_
_atom_site_type_symbol
_atom_site_label
_atom_site_fract_x
_atom_site_fract_y
_atom_site_fract_z
Si Si1 0.942148 0.899443 0.317829
Si Si2 0.969923 0.152899 0.080384
Si Si3 0.486246 0.120423 0.106763
Si Si4 0.715628 0.132072 0.375386
Si Si5 0.757910 0.538744 0.299543
Si Si6 0.647200 0.464155 0.550978
Si Si7 0.444145 0.159616 0.293202
O O1 0.987350 0.881244 0.367270
O O2 0.833669 0.918928 0.324239
O O3 0.954748 0.790404 0.288085
O O4 0.000000 0.000000 0.295240
O O5 0.956741 0.285771 0.079045
O O6 0.058683 0.114224 0.052584
O O7 0.880861 0.091263 0.060428
O O8 0.381123 0.152639 0.100864
O O9 0.513926 0.114917 0.159921
O O10 0.500000 0.000000 0.084714
O O11 0.750000 0.250000 0.359077
O O12 0.778947 0.073177 0.412327
O O13 0.702260 0.059819 0.329991
O O14 0.725250 0.500000 0.250000
O O15 0.836560 0.629604 0.292582
O O16 0.689299 0.456041 0.500000
O O17 0.500000 0.107850 0.250000
#
# Coordination Sequence:
#
# PCOD8276261 Si02
#       7
#    16  16  16  16  16  16  16
#     4  11  23  42  66  98 135 178 223 290 343 404
#     4  10  19  41  67  98 132 166 223 276 343 408
#     4  11  23  41  67  96 133 188 219 277 352 407
#     4  12  24  43  67 102 141 177 228 291 347 408
#     4  12  26  42  67  97 141 182 238 282 343 409
#     4  11  22  42  73 104 134 175 230 288 346 414
#     4  11  26  42  65  95 135 184 240 284 336 410
#
# _framework density 21.545338000000001
#
# number of rings (size 3 to 8) (size 9 to 14) (size 15 to 20)
#    0.000    0.857    5.714    2.143    4.000    1.429 
#    0.000    0.714    0.000    4.714    0.000    0.000 
#    0.000    0.000    0.000    0.000    0.000    0.000 
#
# Total GULP energy -694341.435992 kJ/mol
# GULP energy per Si atom -12398.954214 kJ/mol
# Density = 2.149630 g / cm^3
# Si number density = 21.545338 Si / 1000 Ang^3
#
#
#
# Elastic Constant Matrix: (Units=GPa)
#
#
# Indices 1 2 3 4 5 6 
#
# 1 102.7794 25.9580 7.0797 0.0000 0.0000 0.0000
# 2 25.9580 162.1304 24.1874 0.0000 0.0000 0.0000
# 3 7.0797 24.1874 87.4592 0.0000 0.0000 0.0000
# 4 0.0000 0.0000 0.0000 15.7766 0.0000 0.0000
# 5 0.0000 0.0000 0.0000 0.0000 15.8359 0.0000
# 6 0.0000 0.0000 0.0000 0.0000 0.0000 32.4616
#
#
#
# Elastic Compliance Matrix: (Units=1/GPa)
#
#
# Indices 1 2 3 4 5 6 
#
# 1 0.010152 -0.001568 -0.000388 0.000000 0.000000 0.000000
# 2 -0.001568 0.006675 -0.001719 0.000000 0.000000 0.000000
# 3 -0.000388 -0.001719 0.011941 0.000000 0.000000 0.000000
# 4 0.000000 0.000000 0.000000 0.063385 0.000000 0.000000
# 5 0.000000 0.000000 0.000000 0.000000 0.063148 0.000000
# 6 0.000000 0.000000 0.000000 0.000000 0.000000 0.030806
#
#
# Mechanical properties :
#
#
# Convention : Reuss Voigt Hill
#
# Bulk Modulus (GPa) = 46.68907 51.86881 49.27894
# Shear Modulus (GPa) = 24.92573 32.49109 28.70841
#
# Velocity S-wave (km/s) = 3.40501 3.88755 3.65425
# Velocity P-wave (km/s) = 6.09721 6.65412 6.38174
#
# Compressibility (1/GPa) = 0.02141829
#
# Stress axis : x y z
#
# Youngs Moduli (GPa) = 98.50073 149.80551 83.74648
#
# Poissons Ratio (x) = 0.23482 0.03252
# Poissons Ratio (y) = 0.15440 0.14398
# Poissons Ratio (z) = 0.03825 0.25755
#
# Static dielectric constant tensor:
#      x y z
#    x 3.679440 0.000000 0.000000 
#    y 0.000000 4.124150 0.000000 
#    z 0.000000 0.000000 3.601120 
# 
# 
# High freq. dielectric constant tensor:
#      x y z
#    x 1.839260 0.000000 0.000000 
#    y 0.000000 1.857420 0.000000 
#    z 0.000000 0.000000 1.825320 
# 
# From -- ./inp_files/69537.got.cif
#   From: 2010.03.12/outbox.cif.g09.slc.cpg/sg66_35_cif.got.tgz:69537.got - 2010.04.10 21:57:39.
