data_PCOD8276979
_publ_section_title
;
Structure prediction by ZEFSAII (Michael W. Deem and Ramdas Pophale) SiO2 
 PCOD8276979
Probable space group: C C C M
;
_chemical_formula_sum "Si O2"
_cell_formula_units_Z 88
_cell_length_a 8.571109
_cell_length_b 21.888413
_cell_length_c 23.576724
_cell_angle_alpha 90.000000
_cell_angle_beta 90.000000
_cell_angle_gamma 90.000000
_cell_volume 4423.181415
_symmetry_space_group_name_H-M "C C C M"
_symmetry_group_IT_number 66
_symmetry_cell_setting 'orthorhombic'
loop_
_space_group_symop_operation_xyz
x,y,z
-x,-y,z
x,-y,1/2-z
-x,y,1/2-z
-x,-y,-z
x,y,-z
-x,y,1/2+z
x,-y,1/2+z
1/2+x,1/2+y,z
1/2-x,1/2-y,z
1/2+x,1/2-y,1/2-z
1/2-x,1/2+y,1/2-z
1/2-x,1/2-y,-z
1/2+x,1/2+y,-z
1/2-x,1/2+y,1/2+z
1/2+x,1/2-y,1/2+z
loop_
_atom_site_type_symbol
_atom_site_label
_atom_site_fract_x
_atom_site_fract_y
_atom_site_fract_z
Si Si1 0.830827 0.924939 0.184103
Si Si2 0.820588 0.182882 0.000000
Si Si3 0.684788 0.656424 0.000000
Si Si4 0.060798 0.567688 0.500000
Si Si5 0.186679 0.936036 0.183703
Si Si6 0.685199 0.812033 0.881251
Si Si7 0.117260 0.635143 0.096306
O O1 0.790688 0.922255 0.250289
O O2 0.734283 0.873232 0.151982
O O3 0.011949 0.914509 0.168838
O O4 0.786032 0.993620 0.165356
O O5 0.750000 0.250000 0.000000
O O6 0.762138 0.154094 0.058228
O O7 0.001537 0.167445 0.000000
O O8 0.750672 0.689733 0.055034
O O9 0.751896 0.585183 0.000000
O O10 0.995924 0.594314 0.441744
O O11 0.000000 0.500000 0.500000
O O12 0.316921 0.898412 0.150996
O O13 0.750000 0.750000 0.851225
O O14 0.495115 0.809623 0.882218
#
# Coordination Sequence:
#
# PCOD8276979 Si02
#       7
#    16   8   8   8  16  16  16
#     4   9  20  38  61  82 116 153 192 244 296 350
#     4  11  21  39  58  83 115 153 200 242 289 364
#     4  10  21  36  61  79 114 162 195 235 303 357
#     4   9  21  37  52  84 125 148 188 250 300 353
#     4   9  19  39  60  85 112 150 199 243 291 351
#     4  11  22  38  57  85 119 156 192 238 299 358
#     4  10  22  35  57  86 115 148 195 243 289 353
#
# _framework density 19.895181000000001
#
# number of rings (size 3 to 8) (size 9 to 14) (size 15 to 20)
#    0.000    2.182    0.000    4.091    5.091    0.727 
#    0.000    7.273    0.000    0.000    0.000    0.000 
#    0.000    0.000    0.000    0.000    0.000    0.000 
#
# Total GULP energy -545076.989639 kJ/mol
# GULP energy per Si atom -12388.113401 kJ/mol
# Density = 1.984990 g / cm^3
# Si number density = 19.895181 Si / 1000 Ang^3
#
#
#
# Elastic Constant Matrix: (Units=GPa)
#
#
# Indices 1 2 3 4 5 6 
#
# 1 155.1538 55.6444 46.4623 0.0000 0.0000 0.0000
# 2 55.6444 101.0708 36.3811 0.0000 0.0000 0.0000
# 3 46.4623 36.3811 74.1223 0.0000 0.0000 0.0000
# 4 0.0000 0.0000 0.0000 27.8399 0.0000 0.0000
# 5 0.0000 0.0000 0.0000 0.0000 16.1441 0.0000
# 6 0.0000 0.0000 0.0000 0.0000 0.0000 39.9347
#
#
#
# Elastic Compliance Matrix: (Units=1/GPa)
#
#
# Indices 1 2 3 4 5 6 
#
# 1 0.008844 -0.003490 -0.003831 0.000000 0.000000 0.000000
# 2 -0.003490 0.013395 -0.004387 0.000000 0.000000 0.000000
# 3 -0.003831 -0.004387 0.018045 0.000000 0.000000 0.000000
# 4 0.000000 0.000000 0.000000 0.035920 0.000000 0.000000
# 5 0.000000 0.000000 0.000000 0.000000 0.061942 0.000000
# 6 0.000000 0.000000 0.000000 0.000000 0.000000 0.025041
#
#
# Mechanical properties :
#
#
# Convention : Reuss Voigt Hill
#
# Bulk Modulus (GPa) = 59.27991 67.48028 63.38009
# Shear Modulus (GPa) = 26.01118 29.57433 27.79276
#
# Velocity S-wave (km/s) = 3.61974 3.85971 3.74165
# Velocity P-wave (km/s) = 6.87974 7.33857 7.11286
#
# Compressibility (1/GPa) = 0.01686912
#
# Stress axis : x y z
#
# Youngs Moduli (GPa) = 113.06986 74.65707 55.41555
#
# Poissons Ratio (x) = 0.26057 0.21228
# Poissons Ratio (y) = 0.39464 0.24309
# Poissons Ratio (z) = 0.43313 0.32749
#
# Static dielectric constant tensor:
#      x y z
#    x 3.783250 0.000000 0.000000 
#    y 0.000000 3.621270 0.000000 
#    z 0.000000 0.000000 3.617110 
# 
# 
# High freq. dielectric constant tensor:
#      x y z
#    x 1.783740 0.000000 0.000000 
#    y 0.000000 1.766460 0.000000 
#    z 0.000000 0.000000 1.774930 
# 
# From -- ./inp_files/55513.got.cif
#   From: 2010.03.12/outbox.cif.g09.slc.cpg/sg66_28_cif.got.tgz:55513.got - 2010.04.10 21:57:39.
