data_PCOD8276051
_publ_section_title
;
Structure prediction by ZEFSAII (Michael W. Deem and Ramdas Pophale) SiO2 
 PCOD8276051
Probable space group: C C C M
;
_chemical_formula_sum "Si O2"
_cell_formula_units_Z 96
_cell_length_a 14.119921
_cell_length_b 20.136384
_cell_length_c 16.520387
_cell_angle_alpha 90.000000
_cell_angle_beta 90.000000
_cell_angle_gamma 90.000000
_cell_volume 4697.145013
_symmetry_space_group_name_H-M "C C C M"
_symmetry_group_IT_number 66
_symmetry_cell_setting 'orthorhombic'
loop_
_space_group_symop_operation_xyz
x,y,z
-x,-y,z
x,-y,1/2-z
-x,y,1/2-z
-x,-y,-z
x,y,-z
-x,y,1/2+z
x,-y,1/2+z
1/2+x,1/2+y,z
1/2-x,1/2-y,z
1/2+x,1/2-y,1/2-z
1/2-x,1/2+y,1/2-z
1/2-x,1/2-y,-z
1/2+x,1/2+y,-z
1/2-x,1/2+y,1/2+z
1/2+x,1/2-y,1/2+z
loop_
_atom_site_type_symbol
_atom_site_label
_atom_site_fract_x
_atom_site_fract_y
_atom_site_fract_z
Si Si1 0.503666 0.284397 0.409715
Si Si2 0.898301 0.483718 0.343441
Si Si3 0.904488 0.879459 0.703877
Si Si4 0.295131 0.482150 0.407779
Si Si5 0.379543 0.841593 0.592815
Si Si6 0.821119 0.864937 0.130907
O O1 0.461053 0.275285 0.500000
O O2 0.423798 0.312998 0.349463
O O3 0.548483 0.215433 0.376587
O O4 0.588059 0.337073 0.414892
O O5 0.893585 0.500000 0.250000
O O6 0.816599 0.526392 0.387932
O O7 0.887996 0.405049 0.350330
O O8 0.000000 0.500000 0.382467
O O9 0.828336 0.859185 0.771600
O O10 0.000000 0.904001 0.750000
O O11 0.862764 0.938269 0.649023
O O12 0.313812 0.460247 0.500000
O O13 0.318074 0.558730 0.395160
O O14 0.402211 0.859346 0.500000
O O15 0.268977 0.821613 0.601691
#
# Coordination Sequence:
#
# PCOD8276051 Si02
#       6
#    16  16  16  16  16  16
#     4  10  20  35  56  83 116 152 197 242 290 355
#     4  10  21  39  60  92 116 151 193 249 308 355
#     4  10  22  37  54  82 124 166 196 242 301 368
#     4  11  21  35  60  87 120 159 201 250 298 362
#     4  10  20  36  61  86 114 149 194 252 297 346
#     4  10  19  34  54  84 115 152 196 243 298 346
#
# _framework density 20.437947000000001
#
# number of rings (size 3 to 8) (size 9 to 14) (size 15 to 20)
#    0.000    1.833    0.000    6.500    0.000    7.333 
#    9.000    4.167    0.000    0.000    0.000    3.500 
#    0.000    0.000    0.000    0.000    0.000    0.000 
#
# Total GULP energy -595003.859883 kJ/mol
# GULP energy per Si atom -12395.913748 kJ/mol
# Density = 2.039143 g / cm^3
# Si number density = 20.437947 Si / 1000 Ang^3
#
#
#
# Elastic Constant Matrix: (Units=GPa)
#
#
# Indices 1 2 3 4 5 6 
#
# 1 75.6224 31.3826 36.0863 0.0000 0.0000 0.0000
# 2 31.3826 86.3966 43.6557 0.0000 0.0000 0.0000
# 3 36.0863 43.6557 123.2998 0.0000 0.0000 0.0000
# 4 0.0000 0.0000 0.0000 28.4342 0.0000 0.0000
# 5 0.0000 0.0000 0.0000 0.0000 30.4916 0.0000
# 6 0.0000 0.0000 0.0000 0.0000 0.0000 27.5520
#
#
#
# Elastic Compliance Matrix: (Units=1/GPa)
#
#
# Indices 1 2 3 4 5 6 
#
# 1 0.016617 -0.004358 -0.003320 0.000000 0.000000 0.000000
# 2 -0.004358 0.015239 -0.004120 0.000000 0.000000 0.000000
# 3 -0.003320 -0.004120 0.010541 0.000000 0.000000 0.000000
# 4 0.000000 0.000000 0.000000 0.035169 0.000000 0.000000
# 5 0.000000 0.000000 0.000000 0.000000 0.032796 0.000000
# 6 0.000000 0.000000 0.000000 0.000000 0.000000 0.036295
#
#
# Mechanical properties :
#
#
# Convention : Reuss Voigt Hill
#
# Bulk Modulus (GPa) = 53.19183 56.39647 54.79415
# Shear Modulus (GPa) = 28.32537 28.90851 28.61694
#
# Velocity S-wave (km/s) = 3.72683 3.76500 3.74597
# Velocity P-wave (km/s) = 6.67844 6.82307 6.75114
#
# Compressibility (1/GPa) = 0.01879988
#
# Stress axis : x y z
#
# Youngs Moduli (GPa) = 60.18111 65.61901 94.86919
#
# Poissons Ratio (x) = 0.28598 0.31498
# Poissons Ratio (y) = 0.26228 0.39088
# Poissons Ratio (z) = 0.19981 0.27036
#
# Static dielectric constant tensor:
#      x y z
#    x 4.049750 0.000000 0.000000 
#    y 0.000000 3.566190 0.000000 
#    z 0.000000 0.000000 3.911960 
# 
# 
# High freq. dielectric constant tensor:
#      x y z
#    x 1.790630 0.000000 0.000000 
#    y 0.000000 1.785500 0.000000 
#    z 0.000000 0.000000 1.808040 
# 
# From -- ./inp_files/28364.got.cif
#   From: 2010.03.12/outbox.cif.g09.slc.cpg/sg66_15_cif.got.tgz:28364.got - 2010.04.10 21:57:39.
