data_PCOD8276427
_publ_section_title
;
Structure prediction by ZEFSAII (Michael W. Deem and Ramdas Pophale) SiO2 
 PCOD8276427
Probable space group: C C C M
;
_chemical_formula_sum "Si O2"
_cell_formula_units_Z 96
_cell_length_a 21.275373
_cell_length_b 24.053398
_cell_length_c 8.747879
_cell_angle_alpha 90.000000
_cell_angle_beta 90.000000
_cell_angle_gamma 90.000000
_cell_volume 4476.683465
_symmetry_space_group_name_H-M "C C C M"
_symmetry_group_IT_number 66
_symmetry_cell_setting 'orthorhombic'
loop_
_space_group_symop_operation_xyz
x,y,z
-x,-y,z
x,-y,1/2-z
-x,y,1/2-z
-x,-y,-z
x,y,-z
-x,y,1/2+z
x,-y,1/2+z
1/2+x,1/2+y,z
1/2-x,1/2-y,z
1/2+x,1/2-y,1/2-z
1/2-x,1/2+y,1/2-z
1/2-x,1/2-y,-z
1/2+x,1/2+y,-z
1/2-x,1/2+y,1/2+z
1/2+x,1/2-y,1/2+z
loop_
_atom_site_type_symbol
_atom_site_label
_atom_site_fract_x
_atom_site_fract_y
_atom_site_fract_z
Si Si1 0.740177 0.556702 0.826015
Si Si2 0.563285 0.941776 0.823040
Si Si3 0.091644 0.057125 0.174594
Si Si4 0.834934 0.372494 0.827942
Si Si5 0.319336 0.253952 0.672936
Si Si6 0.435240 0.673107 0.181594
O O1 0.765965 0.500000 0.750000
O O2 0.666084 0.558997 0.817619
O O3 0.765543 0.609616 0.729916
O O4 0.764525 0.558954 0.000000
O O5 0.500000 0.917542 0.750000
O O6 0.617864 0.898531 0.792779
O O7 0.582470 0.000000 0.750000
O O8 0.552057 0.950498 0.000000
O O9 0.065683 0.108687 0.270648
O O10 0.066495 0.000000 0.250000
O O11 0.067829 0.060897 0.000000
O O12 0.847425 0.307343 0.822804
O O13 0.845288 0.394756 0.000000
O O14 0.307566 0.275213 0.500000
O O15 0.250000 0.250000 0.755070
O O16 0.372578 0.294720 0.747019
O O17 0.500000 0.699252 0.250000
O O18 0.437455 0.679221 0.000000
#
# Coordination Sequence:
#
# PCOD8276427 Si02
#       6
#    16  16  16  16  16  16
#     4  10  20  34  54  84 120 155 193 240 293 348
#     4  11  22  38  57  80 112 149 192 240 296 355
#     4  10  21  38  61  90 122 156 195 239 291 350
#     4  11  21  35  57  84 114 150 194 241 292 351
#     4   9  20  39  63  89 117 155 203 251 299 352
#     4  11  23  41  64  90 122 158 198 246 300 358
#
# _framework density 21.444447
#
# number of rings (size 3 to 8) (size 9 to 14) (size 15 to 20)
#    0.000    1.667    0.000    5.500    0.000    4.333 
#    0.000    6.667    0.000    6.000    0.000    0.000 
#    0.000    0.000    0.000    0.000    0.000    0.000 
#
# Total GULP energy -595109.734214 kJ/mol
# GULP energy per Si atom -12398.119463 kJ/mol
# Density = 2.139564 g / cm^3
# Si number density = 21.444447 Si / 1000 Ang^3
#
#
#
# Elastic Constant Matrix: (Units=GPa)
#
#
# Indices 1 2 3 4 5 6 
#
# 1 115.9352 39.8956 34.1410 0.0000 0.0000 0.0000
# 2 39.8956 83.9206 30.6843 0.0000 0.0000 0.0000
# 3 34.1410 30.6843 117.2472 0.0000 0.0000 0.0000
# 4 0.0000 0.0000 0.0000 24.2247 0.0000 0.0000
# 5 0.0000 0.0000 0.0000 0.0000 33.0951 0.0000
# 6 0.0000 0.0000 0.0000 0.0000 0.0000 19.8617
#
#
#
# Elastic Compliance Matrix: (Units=1/GPa)
#
#
# Indices 1 2 3 4 5 6 
#
# 1 0.010711 -0.004370 -0.001975 0.000000 0.000000 0.000000
# 2 -0.004370 0.014960 -0.002643 0.000000 0.000000 0.000000
# 3 -0.001975 -0.002643 0.009796 0.000000 0.000000 0.000000
# 4 0.000000 0.000000 0.000000 0.041280 0.000000 0.000000
# 5 0.000000 0.000000 0.000000 0.000000 0.030216 0.000000
# 6 0.000000 0.000000 0.000000 0.000000 0.000000 0.050348
#
#
# Mechanical properties :
#
#
# Convention : Reuss Voigt Hill
#
# Bulk Modulus (GPa) = 57.17219 58.50500 57.83859
# Shear Modulus (GPa) = 27.60658 29.59510 28.60084
#
# Velocity S-wave (km/s) = 3.59186 3.71898 3.65597
# Velocity P-wave (km/s) = 6.62725 6.76627 6.69712
#
# Compressibility (1/GPa) = 0.01749102
#
# Stress axis : x y z
#
# Youngs Moduli (GPa) = 93.36288 66.84679 102.08492
#
# Poissons Ratio (x) = 0.29210 0.20165
# Poissons Ratio (y) = 0.40797 0.26977
# Poissons Ratio (z) = 0.18442 0.17665
#
# Static dielectric constant tensor:
#      x y z
#    x 4.117770 0.000000 0.000000 
#    y 0.000000 3.794560 0.000000 
#    z 0.000000 0.000000 3.968770 
# 
# 
# High freq. dielectric constant tensor:
#      x y z
#    x 1.856250 0.000000 0.000000 
#    y 0.000000 1.833510 0.000000 
#    z 0.000000 0.000000 1.830680 
# 
# From -- ./inp_files/9099.got.cif
#   From: 2010.03.12/outbox.cif.g09.slc.cpg/sg66_5_cif.got.tgz:9099.got - 2010.04.10 21:57:39.
