data_PCOD8276646
_publ_section_title
;
Structure prediction by ZEFSAII (Michael W. Deem and Ramdas Pophale) SiO2 
 PCOD8276646
Probable space group: C C C M
;
_chemical_formula_sum "Si O2"
_cell_formula_units_Z 116
_cell_length_a 27.178944
_cell_length_b 21.909235
_cell_length_c 9.554981
_cell_angle_alpha 90.000000
_cell_angle_beta 90.000000
_cell_angle_gamma 90.000000
_cell_volume 5689.703305
_symmetry_space_group_name_H-M "C C C M"
_symmetry_group_IT_number 66
_symmetry_cell_setting 'orthorhombic'
loop_
_space_group_symop_operation_xyz
x,y,z
-x,-y,z
x,-y,1/2-z
-x,y,1/2-z
-x,-y,-z
x,y,-z
-x,y,1/2+z
x,-y,1/2+z
1/2+x,1/2+y,z
1/2-x,1/2-y,z
1/2+x,1/2-y,1/2-z
1/2-x,1/2+y,1/2-z
1/2-x,1/2-y,-z
1/2+x,1/2+y,-z
1/2-x,1/2+y,1/2+z
1/2+x,1/2-y,1/2+z
loop_
_atom_site_type_symbol
_atom_site_label
_atom_site_fract_x
_atom_site_fract_y
_atom_site_fract_z
Si Si1 0.304900 0.264870 0.839174
Si Si2 0.958280 0.803270 0.345900
Si Si3 0.000000 0.000000 0.750000
Si Si4 0.226102 0.556332 0.833271
Si Si5 0.455178 0.834877 0.840064
Si Si6 0.090764 0.924171 0.153060
Si Si7 0.848591 0.663088 0.338696
Si Si8 0.820734 0.092545 0.336652
O O1 0.250000 0.250000 0.784377
O O2 0.342321 0.223834 0.751739
O O3 0.319884 0.334830 0.817898
O O4 0.309414 0.245176 0.000000
O O5 0.980974 0.798950 0.500000
O O6 0.943958 0.735367 0.296759
O O7 0.913461 0.850522 0.340189
O O8 0.000000 0.832081 0.250000
O O9 0.962594 0.043091 0.836932
O O10 0.201116 0.500000 0.750000
O O11 0.192762 0.614459 0.800580
O O12 0.278724 0.565176 0.761254
O O13 0.230930 0.544191 0.000000
O O14 0.500000 0.862862 0.750000
O O15 0.402585 0.867056 0.809559
O O16 0.471241 0.842698 0.000000
O O17 0.128602 0.938773 0.279622
O O18 0.112717 0.941413 0.000000
O O19 0.845704 0.683520 0.500000
O O20 0.813836 0.074570 0.500000
#
# Coordination Sequence:
#
# PCOD8276646 Si02
#       8
#    16  16   4  16  16  16  16  16
#     4  10  20  36  59  91 128 160 195 245 305 367
#     4   9  17  32  53  76 107 145 183 231 287 348
#     4  12  26  44  64  82 110 156 216 278 326 364
#     4  11  24  42  63  87 117 157 202 247 296 353
#     4   9  18  33  55  86 119 148 186 231 285 350
#     4  11  24  41  60  81 109 150 202 258 315 365
#     4  10  21  37  61  90 122 160 200 244 295 357
#     4  11  24  41  63  89 120 158 200 251 309 371
#
# _framework density 20.387706999999999
#
# number of rings (size 3 to 8) (size 9 to 14) (size 15 to 20)
#    0.000    1.793    2.069    1.862    0.966    5.241 
#    0.000    2.759    0.000    0.414    0.000    2.897 
#    0.000    0.000    0.000    0.000    0.000    0.000 
#
# Total GULP energy -718785.659957 kJ/mol
# GULP energy per Si atom -12392.856206 kJ/mol
# Density = 2.034130 g / cm^3
# Si number density = 20.387707 Si / 1000 Ang^3
#
#
#
# Elastic Constant Matrix: (Units=GPa)
#
#
# Indices 1 2 3 4 5 6 
#
# 1 114.0988 14.9493 48.6213 0.0000 0.0000 0.0000
# 2 14.9493 48.7748 29.6047 0.0000 0.0000 0.0000
# 3 48.6213 29.6047 107.1321 0.0000 0.0000 0.0000
# 4 0.0000 0.0000 0.0000 21.0532 0.0000 0.0000
# 5 0.0000 0.0000 0.0000 0.0000 34.0250 0.0000
# 6 0.0000 0.0000 0.0000 0.0000 0.0000 15.8624
#
#
#
# Elastic Compliance Matrix: (Units=1/GPa)
#
#
# Indices 1 2 3 4 5 6 
#
# 1 0.010872 -0.000405 -0.004822 0.000000 0.000000 0.000000
# 2 -0.000405 0.024649 -0.006628 0.000000 0.000000 0.000000
# 3 -0.004822 -0.006628 0.013354 0.000000 0.000000 0.000000
# 4 0.000000 0.000000 0.000000 0.047499 0.000000 0.000000
# 5 0.000000 0.000000 0.000000 0.000000 0.029390 0.000000
# 6 0.000000 0.000000 0.000000 0.000000 0.000000 0.063042
#
#
# Mechanical properties :
#
#
# Convention : Reuss Voigt Hill
#
# Bulk Modulus (GPa) = 39.73695 50.70626 45.22160
# Shear Modulus (GPa) = 22.63402 25.97680 24.30541
#
# Velocity S-wave (km/s) = 3.33555 3.57338 3.45651
# Velocity P-wave (km/s) = 5.86238 6.47691 6.17729
#
# Compressibility (1/GPa) = 0.02516550
#
# Stress axis : x y z
#
# Youngs Moduli (GPa) = 91.97590 40.56893 74.88196
#
# Poissons Ratio (x) = 0.01644 0.36111
# Poissons Ratio (y) = 0.03728 0.49629
# Poissons Ratio (z) = 0.44354 0.26888
#
# Static dielectric constant tensor:
#      x y z
#    x 3.709130 0.000000 0.000000 
#    y 0.000000 3.680830 0.000000 
#    z 0.000000 0.000000 3.754190 
# 
# 
# High freq. dielectric constant tensor:
#      x y z
#    x 1.793400 0.000000 0.000000 
#    y 0.000000 1.781300 0.000000 
#    z 0.000000 0.000000 1.800290 
# 
# From -- ./inp_files/10601.got.cif
#   From: 2010.03.12/outbox.cif.g09.slc.cpg/sg66_6_cif.got.tgz:10601.got - 2010.04.10 21:57:39.
