data_PCOD8276257
_publ_section_title
;
Structure prediction by ZEFSAII (Michael W. Deem and Ramdas Pophale) SiO2 
 PCOD8276257
Probable space group: C C C M
;
_chemical_formula_sum "Si O2"
_cell_formula_units_Z 88
_cell_length_a 8.934003
_cell_length_b 19.127246
_cell_length_c 25.975815
_cell_angle_alpha 90.000000
_cell_angle_beta 90.000000
_cell_angle_gamma 90.000000
_cell_volume 4438.821900
_symmetry_space_group_name_H-M "C C C M"
_symmetry_group_IT_number 66
_symmetry_cell_setting 'orthorhombic'
loop_
_space_group_symop_operation_xyz
x,y,z
-x,-y,z
x,-y,1/2-z
-x,y,1/2-z
-x,-y,-z
x,y,-z
-x,y,1/2+z
x,-y,1/2+z
1/2+x,1/2+y,z
1/2-x,1/2-y,z
1/2+x,1/2-y,1/2-z
1/2-x,1/2+y,1/2-z
1/2-x,1/2-y,-z
1/2+x,1/2+y,-z
1/2-x,1/2+y,1/2+z
1/2+x,1/2-y,1/2+z
loop_
_atom_site_type_symbol
_atom_site_label
_atom_site_fract_x
_atom_site_fract_y
_atom_site_fract_z
Si Si1 0.841198 0.974914 0.603272
Si Si2 0.275015 0.669242 0.714440
Si Si3 0.750000 0.250000 0.899649
Si Si4 0.894954 0.852680 0.676822
Si Si5 0.902726 0.565932 0.147400
Si Si6 0.608700 0.119435 0.056870
O O1 0.859239 0.928315 0.654274
O O2 0.752073 0.931998 0.559814
O O3 0.751019 0.042763 0.621132
O O4 0.000000 0.000000 0.580415
O O5 0.250000 0.750000 0.700525
O O6 0.432755 0.646402 0.691707
O O7 0.280868 0.658890 0.775801
O O8 0.138928 0.621877 0.691932
O O9 0.866809 0.207510 0.864753
O O10 0.657446 0.199324 0.936721
O O11 0.000000 0.500000 0.169301
O O12 0.994533 0.602719 0.102183
O O13 0.536752 0.110056 0.000000
#
# Coordination Sequence:
#
# PCOD8276257 Si02
#       6
#    16  16   8  16  16  16
#     4  10  20  39  60  85 124 162 208 258 313 367
#     4  11  21  37  61  90 124 170 210 252 310 377
#     4  10  19  40  60  90 126 158 201 258 310 382
#     4  10  21  36  61  87 122 165 207 248 308 380
#     4  10  22  40  61  91 127 167 206 269 312 370
#     4  10  22  39  65  90 119 164 210 264 323 375
#
# _framework density 19.82508
#
# number of rings (size 3 to 8) (size 9 to 14) (size 15 to 20)
#    0.000    1.818    2.727    1.364    0.000    4.364 
#    0.000    4.545    0.000    1.636    0.000    0.000 
#    0.000    0.000    0.000    0.000    0.000    0.000 
#
# Total GULP energy -545559.045532 kJ/mol
# GULP energy per Si atom -12399.069217 kJ/mol
# Density = 1.977996 g / cm^3
# Si number density = 19.825080 Si / 1000 Ang^3
#
#
#
# Elastic Constant Matrix: (Units=GPa)
#
#
# Indices 1 2 3 4 5 6 
#
# 1 89.2818 34.9233 27.3967 0.0000 0.0000 0.0000
# 2 34.9233 117.3205 38.6838 0.0000 0.0000 0.0000
# 3 27.3967 38.6838 100.9111 0.0000 0.0000 0.0000
# 4 0.0000 0.0000 0.0000 5.8802 0.0000 0.0000
# 5 0.0000 0.0000 0.0000 0.0000 21.5974 0.0000
# 6 0.0000 0.0000 0.0000 0.0000 0.0000 32.7320
#
#
#
# Elastic Compliance Matrix: (Units=1/GPa)
#
#
# Indices 1 2 3 4 5 6 
#
# 1 0.013154 -0.003134 -0.002370 0.000000 0.000000 0.000000
# 2 -0.003134 0.010504 -0.003176 0.000000 0.000000 0.000000
# 3 -0.002370 -0.003176 0.011770 0.000000 0.000000 0.000000
# 4 0.000000 0.000000 0.000000 0.170061 0.000000 0.000000
# 5 0.000000 0.000000 0.000000 0.000000 0.046302 0.000000
# 6 0.000000 0.000000 0.000000 0.000000 0.000000 0.030551
#
#
# Mechanical properties :
#
#
# Convention : Reuss Voigt Hill
#
# Bulk Modulus (GPa) = 55.34393 56.61345 55.97869
# Shear Modulus (GPa) = 16.35463 25.80925 21.08194
#
# Velocity S-wave (km/s) = 2.87530 3.61203 3.26452
# Velocity P-wave (km/s) = 6.24499 6.78337 6.51974
#
# Compressibility (1/GPa) = 0.01806883
#
# Stress axis : x y z
#
# Youngs Moduli (GPa) = 76.02497 95.20448 84.95870
#
# Poissons Ratio (x) = 0.29838 0.20132
# Poissons Ratio (y) = 0.23827 0.26980
# Poissons Ratio (z) = 0.18015 0.30234
#
# Static dielectric constant tensor:
#      x y z
#    x 3.821740 0.000000 0.000000 
#    y 0.000000 3.772070 0.000000 
#    z 0.000000 0.000000 3.426280 
# 
# 
# High freq. dielectric constant tensor:
#      x y z
#    x 1.773260 0.000000 0.000000 
#    y 0.000000 1.785620 0.000000 
#    z 0.000000 0.000000 1.757380 
# 
# From -- ./inp_files/55500.got.cif
#   From: 2010.03.12/outbox.cif.g09.slc.cpg/sg66_28_cif.got.tgz:55500.got - 2010.04.10 21:57:39.
