data_PCOD8276178
_publ_section_title
;
Structure prediction by ZEFSAII (Michael W. Deem and Ramdas Pophale) SiO2 
 PCOD8276178
Probable space group: C C C M
;
_chemical_formula_sum "Si O2"
_cell_formula_units_Z 96
_cell_length_a 11.052313
_cell_length_b 20.767730
_cell_length_c 19.864671
_cell_angle_alpha 90.000000
_cell_angle_beta 90.000000
_cell_angle_gamma 90.000000
_cell_volume 4559.566783
_symmetry_space_group_name_H-M "C C C M"
_symmetry_group_IT_number 66
_symmetry_cell_setting 'orthorhombic'
loop_
_space_group_symop_operation_xyz
x,y,z
-x,-y,z
x,-y,1/2-z
-x,y,1/2-z
-x,-y,-z
x,y,-z
-x,y,1/2+z
x,-y,1/2+z
1/2+x,1/2+y,z
1/2-x,1/2-y,z
1/2+x,1/2-y,1/2-z
1/2-x,1/2+y,1/2-z
1/2-x,1/2-y,-z
1/2+x,1/2+y,-z
1/2-x,1/2+y,1/2+z
1/2+x,1/2-y,1/2+z
loop_
_atom_site_type_symbol
_atom_site_label
_atom_site_fract_x
_atom_site_fract_y
_atom_site_fract_z
Si Si1 0.293435 0.044093 0.627765
Si Si2 0.880688 0.766218 0.293038
Si Si3 0.484027 0.855087 0.830084
Si Si4 0.368822 0.406220 0.264467
Si Si5 0.269693 0.102272 0.872801
Si Si6 0.882402 0.909412 0.000000
Si Si7 0.351075 0.561711 0.000000
O O1 0.415070 0.082493 0.642221
O O2 0.205739 0.042249 0.693095
O O3 0.226245 0.078669 0.565857
O O4 0.321540 0.969493 0.614658
O O5 0.750000 0.750000 0.258951
O O6 0.905351 0.709965 0.349065
O O7 0.880481 0.841580 0.311565
O O8 0.000000 0.752765 0.250000
O O9 0.500000 0.866158 0.750000
O O10 0.613625 0.851275 0.867576
O O11 0.500000 0.435921 0.250000
O O12 0.305892 0.388045 0.194926
O O13 0.182558 0.121486 0.934686
O O14 0.026420 0.895045 0.000000
O O15 0.876159 0.986013 0.000000
#
# Coordination Sequence:
#
# PCOD8276178 Si02
#       7
#    16  16  16  16  16   8   8
#     4  11  21  35  57  86 125 157 205 246 318 367
#     4  10  19  36  57  83 120 155 205 252 306 364
#     4  11  21  36  57  86 122 158 200 256 311 367
#     4  11  21  33  57  89 116 157 205 260 302 363
#     4  11  22  36  58  89 122 164 196 256 312 376
#     4   9  20  39  57  80 127 165 206 243 319 372
#     4   9  20  37  57  83 120 173 199 252 298 389
#
# _framework density 21.054632000000002
#
# number of rings (size 3 to 8) (size 9 to 14) (size 15 to 20)
#    0.000    1.500    3.333    3.000    0.000    4.000 
#    0.000    2.500    0.000    3.000    0.000   33.250 
#    0.000    0.000    0.000    0.000    0.000    0.000 
#
# Total GULP energy -594633.783742 kJ/mol
# GULP energy per Si atom -12388.203828 kJ/mol
# Density = 2.100671 g / cm^3
# Si number density = 21.054632 Si / 1000 Ang^3
#
#
#
# Elastic Constant Matrix: (Units=GPa)
#
#
# Indices 1 2 3 4 5 6 
#
# 1 140.2280 8.2319 36.9555 0.0000 0.0000 0.0000
# 2 8.2319 62.6856 2.7443 0.0000 0.0000 0.0000
# 3 36.9555 2.7443 106.6803 0.0000 0.0000 0.0000
# 4 0.0000 0.0000 0.0000 29.8234 0.0000 0.0000
# 5 0.0000 0.0000 0.0000 0.0000 32.8257 0.0000
# 6 0.0000 0.0000 0.0000 0.0000 0.0000 22.6940
#
#
#
# Elastic Compliance Matrix: (Units=1/GPa)
#
#
# Indices 1 2 3 4 5 6 
#
# 1 0.007900 -0.000919 -0.002713 0.000000 0.000000 0.000000
# 2 -0.000919 0.016077 -0.000095 0.000000 0.000000 0.000000
# 3 -0.002713 -0.000095 0.010316 0.000000 0.000000 0.000000
# 4 0.000000 0.000000 0.000000 0.033531 0.000000 0.000000
# 5 0.000000 0.000000 0.000000 0.000000 0.030464 0.000000
# 6 0.000000 0.000000 0.000000 0.000000 0.000000 0.044064
#
#
# Mechanical properties :
#
#
# Convention : Reuss Voigt Hill
#
# Bulk Modulus (GPa) = 37.25852 45.05081 41.15467
# Shear Modulus (GPa) = 31.49536 34.51278 33.00407
#
# Velocity S-wave (km/s) = 3.87187 4.05310 3.96352
# Velocity P-wave (km/s) = 6.14191 6.58385 6.36671
#
# Compressibility (1/GPa) = 0.02683950
#
# Stress axis : x y z
#
# Youngs Moduli (GPa) = 126.57946 62.19896 96.93583
#
# Poissons Ratio (x) = 0.05714 0.26300
# Poissons Ratio (y) = 0.11629 0.00924
# Poissons Ratio (z) = 0.34342 0.00593
#
# Static dielectric constant tensor:
#      x y z
#    x 4.085660 0.000000 0.000000 
#    y 0.000000 4.053140 0.000000 
#    z 0.000000 0.000000 3.560030 
# 
# 
# High freq. dielectric constant tensor:
#      x y z
#    x 1.849180 0.000000 0.000000 
#    y 0.000000 1.812850 0.000000 
#    z 0.000000 0.000000 1.779040 
# 
# From -- ./inp_files/48833.got.cif
#   From: 2010.03.12/outbox.cif.g09.slc.cpg/sg66_25_cif.got.tgz:48833.got - 2010.04.10 21:57:39.
