data_PCOD8276836
_publ_section_title
;
Structure prediction by ZEFSAII (Michael W. Deem and Ramdas Pophale) SiO2 
 PCOD8276836
Probable space group: C C C M
;
_chemical_formula_sum "Si O2"
_cell_formula_units_Z 72
_cell_length_a 8.256102
_cell_length_b 24.973204
_cell_length_c 18.147559
_cell_angle_alpha 90.000000
_cell_angle_beta 90.000000
_cell_angle_gamma 90.000000
_cell_volume 3741.687660
_symmetry_space_group_name_H-M "C C C M"
_symmetry_group_IT_number 66
_symmetry_cell_setting 'orthorhombic'
loop_
_space_group_symop_operation_xyz
x,y,z
-x,-y,z
x,-y,1/2-z
-x,y,1/2-z
-x,-y,-z
x,y,-z
-x,y,1/2+z
x,-y,1/2+z
1/2+x,1/2+y,z
1/2-x,1/2-y,z
1/2+x,1/2-y,1/2-z
1/2-x,1/2+y,1/2-z
1/2-x,1/2-y,-z
1/2+x,1/2+y,-z
1/2-x,1/2+y,1/2+z
1/2+x,1/2-y,1/2+z
loop_
_atom_site_type_symbol
_atom_site_label
_atom_site_fract_x
_atom_site_fract_y
_atom_site_fract_z
Si Si1 0.081463 0.855249 0.896995
Si Si2 0.256037 0.500000 0.250000
Si Si3 0.000000 0.906536 0.750000
Si Si4 0.085117 0.578053 0.500000
Si Si5 0.575754 0.276848 0.500000
Si Si6 0.362557 0.824846 0.000000
Si Si7 0.037126 0.938510 0.500000
Si Si8 0.500000 0.000000 0.373777
O O1 0.063824 0.863817 0.810296
O O2 0.256824 0.835235 0.925842
O O3 0.945068 0.813956 0.927400
O O4 0.048591 0.914476 0.928350
O O5 0.355421 0.553304 0.272447
O O6 0.152907 0.486938 0.322467
O O7 0.276359 0.576389 0.500000
O O8 0.020089 0.551222 0.574446
O O9 0.022054 0.638488 0.500000
O O10 0.750000 0.250000 0.500000
O O11 0.427144 0.235358 0.500000
O O12 0.000000 0.000000 0.500000
#
# Coordination Sequence:
#
# PCOD8276836 Si02
#       8
#    16   8   8   8   8   8   8   8
#     4  10  22  37  57  88 114 152 198 237 294 347
#     4  10  22  36  50  76 118 166 186 230 284 344
#     4  11  22  36  58  78 120 158 196 227 292 348
#     4  11  21  32  58  84 113 148 198 243 286 337
#     4  10  21  42  66  85 114 147 191 251 304 346
#     4  10  20  39  64  87 114 149 191 253 299 340
#     4  10  22  33  56  82 119 149 200 242 280 338
#     4  10  22  34  50  82 118 150 200 234 282 342
#
# _framework density 19.242653000000001
#
# number of rings (size 3 to 8) (size 9 to 14) (size 15 to 20)
#    0.000    2.000    0.000    5.333   12.444    0.000 
#    0.000    2.222    0.000    2.667    0.000    0.000 
#    0.000    0.000    0.000    0.000    0.000    0.000 
#
# Total GULP energy -446223.854585 kJ/mol
# GULP energy per Si atom -12395.107072 kJ/mol
# Density = 1.919886 g / cm^3
# Si number density = 19.242653 Si / 1000 Ang^3
#
#
#
# Elastic Constant Matrix: (Units=GPa)
#
#
# Indices 1 2 3 4 5 6 
#
# 1 103.9260 32.6097 28.9776 0.0000 0.0000 0.0000
# 2 32.6097 113.3930 34.6873 0.0000 0.0000 0.0000
# 3 28.9776 34.6873 116.5493 0.0000 0.0000 0.0000
# 4 0.0000 0.0000 0.0000 11.3741 0.0000 0.0000
# 5 0.0000 0.0000 0.0000 0.0000 20.9224 0.0000
# 6 0.0000 0.0000 0.0000 0.0000 0.0000 40.9106
#
#
#
# Elastic Compliance Matrix: (Units=1/GPa)
#
#
# Indices 1 2 3 4 5 6 
#
# 1 0.010972 -0.002553 -0.001968 0.000000 0.000000 0.000000
# 2 -0.002553 0.010296 -0.002430 0.000000 0.000000 0.000000
# 3 -0.001968 -0.002430 0.009792 0.000000 0.000000 0.000000
# 4 0.000000 0.000000 0.000000 0.087919 0.000000 0.000000
# 5 0.000000 0.000000 0.000000 0.000000 0.047796 0.000000
# 6 0.000000 0.000000 0.000000 0.000000 0.000000 0.024444
#
#
# Mechanical properties :
#
#
# Convention : Reuss Voigt Hill
#
# Bulk Modulus (GPa) = 58.27830 58.49083 58.38457
# Shear Modulus (GPa) = 23.71457 30.48100 27.09778
#
# Velocity S-wave (km/s) = 3.51436 3.98431 3.75669
# Velocity P-wave (km/s) = 6.84247 7.18531 7.01599
#
# Compressibility (1/GPa) = 0.01715904
#
# Stress axis : x y z
#
# Youngs Moduli (GPa) = 91.13966 97.12144 102.11931
#
# Poissons Ratio (x) = 0.24798 0.20098
# Poissons Ratio (y) = 0.23271 0.24810
# Poissons Ratio (z) = 0.17937 0.23596
#
# Static dielectric constant tensor:
#      x y z
#    x 3.599420 0.000000 0.000000 
#    y 0.000000 4.081690 0.000000 
#    z 0.000000 0.000000 3.510420 
# 
# 
# High freq. dielectric constant tensor:
#      x y z
#    x 1.758930 0.000000 0.000000 
#    y 0.000000 1.750270 0.000000 
#    z 0.000000 0.000000 1.735370 
# 
# From -- ./inp_files/36813.got.cif
#   From: 2010.03.12/outbox.cif.g09.slc.cpg/sg66_19_cif.got.tgz:36813.got - 2010.04.10 21:57:39.
