data_PCOD8276993
_publ_section_title
;
Structure prediction by ZEFSAII (Michael W. Deem and Ramdas Pophale) SiO2 
 PCOD8276993
Probable space group: C C C M
;
_chemical_formula_sum "Si O2"
_cell_formula_units_Z 80
_cell_length_a 14.497960
_cell_length_b 29.660550
_cell_length_c 9.794029
_cell_angle_alpha 90.000000
_cell_angle_beta 90.000000
_cell_angle_gamma 90.000000
_cell_volume 4211.603547
_symmetry_space_group_name_H-M "C C C M"
_symmetry_group_IT_number 66
_symmetry_cell_setting 'orthorhombic'
loop_
_space_group_symop_operation_xyz
x,y,z
-x,-y,z
x,-y,1/2-z
-x,y,1/2-z
-x,-y,-z
x,y,-z
-x,y,1/2+z
x,-y,1/2+z
1/2+x,1/2+y,z
1/2-x,1/2-y,z
1/2+x,1/2-y,1/2-z
1/2-x,1/2+y,1/2-z
1/2-x,1/2-y,-z
1/2+x,1/2+y,-z
1/2-x,1/2+y,1/2+z
1/2+x,1/2-y,1/2+z
loop_
_atom_site_type_symbol
_atom_site_label
_atom_site_fract_x
_atom_site_fract_y
_atom_site_fract_z
Si Si1 0.574921 0.337715 0.349873
Si Si2 0.922911 0.056963 0.650207
Si Si3 0.409021 0.871750 0.339591
Si Si4 0.214377 0.540890 0.340464
Si Si5 0.763845 0.699988 0.838165
O O1 0.500000 0.315096 0.250000
O O2 0.564214 0.315274 0.500000
O O3 0.558412 0.390352 0.361539
O O4 0.676177 0.328914 0.289765
O O5 0.934000 0.035183 0.500000
O O6 0.820149 0.048436 0.706751
O O7 0.000000 0.035307 0.750000
O O8 0.500000 0.876646 0.250000
O O9 0.434462 0.869425 0.500000
O O10 0.343665 0.914353 0.310008
O O11 0.355879 0.826257 0.289766
O O12 0.173191 0.500000 0.250000
O O13 0.208576 0.528291 0.500000
O O14 0.750000 0.750000 0.775262
O O15 0.767872 0.702360 0.000000
#
# Coordination Sequence:
#
# PCOD8276993 Si02
#       5
#    16  16  16  16  16
#     4   9  16  29  50  75 102 133 168 206 251 306
#     4   9  17  31  51  75 104 138 172 211 260 314
#     4  10  21  39  59  80 109 144 183 228 274 321
#     4  10  21  37  56  78 108 144 184 227 273 325
#     4   9  17  32  56  81 106 141 179 212 259 325
#
# _framework density 18.995141
#
# number of rings (size 3 to 8) (size 9 to 14) (size 15 to 20)
#    0.000    2.600    2.000    0.000    0.000    3.200 
#    0.000    5.000    0.000    1.200    0.000    0.000 
#    0.000    0.000    0.000    0.000    0.000    0.000 
#
# Total GULP energy -495746.123159 kJ/mol
# GULP energy per Si atom -12393.653079 kJ/mol
# Density = 1.895191 g / cm^3
# Si number density = 18.995141 Si / 1000 Ang^3
#
#
#
# Elastic Constant Matrix: (Units=GPa)
#
#
# Indices 1 2 3 4 5 6 
#
# 1 141.6444 47.8045 63.0970 0.0000 0.0000 0.0000
# 2 47.8045 93.6687 40.3083 0.0000 0.0000 0.0000
# 3 63.0970 40.3083 70.2969 0.0000 0.0000 0.0000
# 4 0.0000 0.0000 0.0000 16.3828 0.0000 0.0000
# 5 0.0000 0.0000 0.0000 0.0000 36.0206 0.0000
# 6 0.0000 0.0000 0.0000 0.0000 0.0000 5.1733
#
#
#
# Elastic Compliance Matrix: (Units=1/GPa)
#
#
# Indices 1 2 3 4 5 6 
#
# 1 0.012034 -0.001983 -0.009665 0.000000 0.000000 0.000000
# 2 -0.001983 0.014500 -0.006535 0.000000 0.000000 0.000000
# 3 -0.009665 -0.006535 0.026647 0.000000 0.000000 0.000000
# 4 0.000000 0.000000 0.000000 0.061040 0.000000 0.000000
# 5 0.000000 0.000000 0.000000 0.000000 0.027762 0.000000
# 6 0.000000 0.000000 0.000000 0.000000 0.000000 0.193299
#
#
# Mechanical properties :
#
#
# Convention : Reuss Voigt Hill
#
# Bulk Modulus (GPa) = 59.46315 67.55884 63.51100
# Shear Modulus (GPa) = 13.25374 21.80869 17.53121
#
# Velocity S-wave (km/s) = 2.64435 3.39207 3.04127
# Velocity P-wave (km/s) = 6.37933 7.14038 6.77056
#
# Compressibility (1/GPa) = 0.01681714
#
# Stress axis : x y z
#
# Youngs Moduli (GPa) = 83.09458 68.96625 37.52719
#
# Poissons Ratio (x) = 0.13674 0.36270
# Poissons Ratio (y) = 0.16476 0.24522
# Poissons Ratio (z) = 0.80311 0.45066
#
# Static dielectric constant tensor:
#      x y z
#    x 3.485310 0.000000 0.000000 
#    y 0.000000 3.530000 0.000000 
#    z 0.000000 0.000000 3.568510 
# 
# 
# High freq. dielectric constant tensor:
#      x y z
#    x 1.737880 0.000000 0.000000 
#    y 0.000000 1.737960 0.000000 
#    z 0.000000 0.000000 1.710480 
# 
# From -- ./inp_files/14973.got.cif
#   From: 2010.03.12/outbox.cif.g09.slc.cpg/sg66_8_cif.got.tgz:14973.got - 2010.04.10 21:57:39.
