data_PCOD8276873
_publ_section_title
;
Structure prediction by ZEFSAII (Michael W. Deem and Ramdas Pophale) SiO2 
 PCOD8276873
Probable space group: C C C M
;
_chemical_formula_sum "Si O2"
_cell_formula_units_Z 68
_cell_length_a 21.674646
_cell_length_b 16.370200
_cell_length_c 8.979826
_cell_angle_alpha 90.000000
_cell_angle_beta 90.000000
_cell_angle_gamma 90.000000
_cell_volume 3186.206505
_symmetry_space_group_name_H-M "C C C M"
_symmetry_group_IT_number 66
_symmetry_cell_setting 'orthorhombic'
loop_
_space_group_symop_operation_xyz
x,y,z
-x,-y,z
x,-y,1/2-z
-x,y,1/2-z
-x,-y,-z
x,y,-z
-x,y,1/2+z
x,-y,1/2+z
1/2+x,1/2+y,z
1/2-x,1/2-y,z
1/2+x,1/2-y,1/2-z
1/2-x,1/2+y,1/2-z
1/2-x,1/2-y,-z
1/2+x,1/2+y,-z
1/2-x,1/2+y,1/2+z
1/2+x,1/2-y,1/2+z
loop_
_atom_site_type_symbol
_atom_site_label
_atom_site_fract_x
_atom_site_fract_y
_atom_site_fract_z
Si Si1 0.940369 0.311883 0.823696
Si Si2 0.000000 0.000000 0.750000
Si Si3 0.092021 0.138339 0.333872
Si Si4 0.340216 0.082759 0.822988
Si Si5 0.771246 0.156947 0.174934
O O1 0.944070 0.216811 0.772223
O O2 0.878907 0.344441 0.748658
O O3 0.000000 0.355082 0.750000
O O4 0.939836 0.327107 0.000000
O O5 0.047720 0.058451 0.662817
O O6 0.109862 0.161326 0.500000
O O7 0.160251 0.133310 0.260863
O O8 0.270019 0.096632 0.773683
O O9 0.365721 0.000000 0.750000
O O10 0.347155 0.080218 0.000000
O O11 0.750000 0.250000 0.206553
O O12 0.763027 0.136478 0.000000
#
# Coordination Sequence:
#
# PCOD8276873 Si02
#       5
#    16   4  16  16  16
#     4  11  22  43  68  96 130 175 221 274 335 400
#     4  12  22  40  60 102 138 184 228 268 334 404
#     4  10  22  39  62  92 134 180 222 270 333 398
#     4  12  26  44  66  99 133 173 222 281 341 406
#     4  10  20  41  68  94 129 178 224 277 342 400
#
# _framework density 21.341994
#
# number of rings (size 3 to 8) (size 9 to 14) (size 15 to 20)
#    0.000    1.176    3.529    3.176    1.647    0.941 
#    0.000    3.529    0.000    0.000    0.000    0.000 
#    0.000    0.000    0.000    0.000    0.000    0.000 
#
# Total GULP energy -421215.046894 kJ/mol
# GULP energy per Si atom -12388.677850 kJ/mol
# Density = 2.129342 g / cm^3
# Si number density = 21.341994 Si / 1000 Ang^3
#
#
#
# Elastic Constant Matrix: (Units=GPa)
#
#
# Indices 1 2 3 4 5 6 
#
# 1 162.6843 39.3381 47.2227 0.0000 0.0000 0.0000
# 2 39.3381 102.6292 39.1503 0.0000 0.0000 0.0000
# 3 47.2227 39.1503 126.4078 0.0000 0.0000 0.0000
# 4 0.0000 0.0000 0.0000 24.0002 0.0000 0.0000
# 5 0.0000 0.0000 0.0000 0.0000 32.3750 0.0000
# 6 0.0000 0.0000 0.0000 0.0000 0.0000 39.9024
#
#
#
# Elastic Compliance Matrix: (Units=1/GPa)
#
#
# Indices 1 2 3 4 5 6 
#
# 1 0.007231 -0.001974 -0.002090 0.000000 0.000000 0.000000
# 2 -0.001974 0.011588 -0.002851 0.000000 0.000000 0.000000
# 3 -0.002090 -0.002851 0.009575 0.000000 0.000000 0.000000
# 4 0.000000 0.000000 0.000000 0.041666 0.000000 0.000000
# 5 0.000000 0.000000 0.000000 0.000000 0.030888 0.000000
# 6 0.000000 0.000000 0.000000 0.000000 0.000000 0.025061
#
#
# Mechanical properties :
#
#
# Convention : Reuss Voigt Hill
#
# Bulk Modulus (GPa) = 68.66889 71.46040 70.06464
# Shear Modulus (GPa) = 34.55541 36.98953 35.77247
#
# Velocity S-wave (km/s) = 4.02820 4.16766 4.09853
# Velocity P-wave (km/s) = 7.34034 7.53096 7.43626
#
# Compressibility (1/GPa) = 0.01456264
#
# Stress axis : x y z
#
# Youngs Moduli (GPa) = 138.29523 86.29321 104.44155
#
# Poissons Ratio (x) = 0.17038 0.21826
# Poissons Ratio (y) = 0.27306 0.29781
# Poissons Ratio (z) = 0.28900 0.24606
#
# Static dielectric constant tensor:
#      x y z
#    x 4.024760 0.000000 0.000000 
#    y 0.000000 3.832330 0.000000 
#    z 0.000000 0.000000 3.514830 
# 
# 
# High freq. dielectric constant tensor:
#      x y z
#    x 1.861680 0.000000 0.000000 
#    y 0.000000 1.835120 0.000000 
#    z 0.000000 0.000000 1.813310 
# 
# From -- ./inp_files/6283.got.cif
#   From: 2010.03.12/outbox.cif.g09.slc.cpg/sg66_4_cif.got.tgz:6283.got - 2010.04.10 21:57:39.
