data_PCOD8276542
_publ_section_title
;
Structure prediction by ZEFSAII (Michael W. Deem and Ramdas Pophale) SiO2 
 PCOD8276542
Probable space group: C C C M
;
_chemical_formula_sum "Si O2"
_cell_formula_units_Z 116
_cell_length_a 22.258002
_cell_length_b 28.424233
_cell_length_c 8.904858
_cell_angle_alpha 90.000000
_cell_angle_beta 90.000000
_cell_angle_gamma 90.000000
_cell_volume 5633.806546
_symmetry_space_group_name_H-M "C C C M"
_symmetry_group_IT_number 66
_symmetry_cell_setting 'orthorhombic'
loop_
_space_group_symop_operation_xyz
x,y,z
-x,-y,z
x,-y,1/2-z
-x,y,1/2-z
-x,-y,-z
x,y,-z
-x,y,1/2+z
x,-y,1/2+z
1/2+x,1/2+y,z
1/2-x,1/2-y,z
1/2+x,1/2-y,1/2-z
1/2-x,1/2+y,1/2-z
1/2-x,1/2-y,-z
1/2+x,1/2+y,-z
1/2-x,1/2+y,1/2+z
1/2+x,1/2-y,1/2+z
loop_
_atom_site_type_symbol
_atom_site_label
_atom_site_fract_x
_atom_site_fract_y
_atom_site_fract_z
Si Si1 0.373647 0.326963 0.673186
Si Si2 0.060938 0.744712 0.677767
Si Si3 0.500000 0.500000 0.250000
Si Si4 0.396546 0.569279 0.166324
Si Si5 0.061776 0.644700 0.177861
Si Si6 0.724142 0.453526 0.323873
Si Si7 0.825281 0.382430 0.669622
Si Si8 0.239886 0.802736 0.671072
O O1 0.380867 0.311841 0.500000
O O2 0.391869 0.285098 0.784898
O O3 0.410253 0.375646 0.704646
O O4 0.303858 0.332513 0.718907
O O5 0.055291 0.736924 0.500000
O O6 0.077494 0.695737 0.755855
O O7 0.000000 0.764202 0.750000
O O8 0.456053 0.536165 0.162610
O O9 0.345678 0.552124 0.279433
O O10 0.368420 0.567658 0.000000
O O11 0.116489 0.610342 0.224832
O O12 0.000000 0.625542 0.250000
O O13 0.054804 0.647006 0.000000
O O14 0.751105 0.500000 0.250000
O O15 0.724226 0.458505 0.500000
O O16 0.768662 0.412432 0.270727
O O17 0.842831 0.397109 0.500000
O O18 0.804534 0.328094 0.675231
O O19 0.214691 0.802819 0.500000
O O20 0.250000 0.750000 0.730899
#
# Coordination Sequence:
#
# PCOD8276542 Si02
#       8
#    16  16   4  16  16  16  16  16
#     4  11  23  38  56  84 119 157 204 262 319 373
#     4  11  22  38  58  82 117 163 210 255 305 369
#     4  12  26  44  68  94 118 168 216 276 338 396
#     4  11  25  43  63  89 121 157 208 268 325 385
#     4  11  22  38  63  93 127 165 204 252 300 360
#     4  11  23  41  67  93 125 162 204 258 316 375
#     4  10  21  38  60  91 125 163 206 251 311 377
#     4  10  20  35  57  85 119 161 203 249 308 375
#
# _framework density 20.589987000000001
#
# number of rings (size 3 to 8) (size 9 to 14) (size 15 to 20)
#    0.000    1.241    2.069    5.172    0.966    4.138 
#    0.000    0.000    0.000    0.414    0.000    2.897 
#    0.000    0.000    0.000    0.000    0.000    0.000 
#
# Total GULP energy -718908.887180 kJ/mol
# GULP energy per Si atom -12394.980813 kJ/mol
# Density = 2.054312 g / cm^3
# Si number density = 20.589987 Si / 1000 Ang^3
#
#
#
# Elastic Constant Matrix: (Units=GPa)
#
#
# Indices 1 2 3 4 5 6 
#
# 1 121.2215 42.9175 50.0747 0.0000 0.0000 0.0000
# 2 42.9175 78.3384 36.4190 0.0000 0.0000 0.0000
# 3 50.0747 36.4190 122.7014 0.0000 0.0000 0.0000
# 4 0.0000 0.0000 0.0000 26.6869 0.0000 0.0000
# 5 0.0000 0.0000 0.0000 0.0000 33.3636 0.0000
# 6 0.0000 0.0000 0.0000 0.0000 0.0000 -4.3770
#
#
#
# Elastic Compliance Matrix: (Units=1/GPa)
#
#
# Indices 1 2 3 4 5 6 
#
# 1 0.011220 -0.004661 -0.003195 0.000000 0.000000 0.000000
# 2 -0.004661 0.016745 -0.003068 0.000000 0.000000 0.000000
# 3 -0.003195 -0.003068 0.010364 0.000000 0.000000 0.000000
# 4 0.000000 0.000000 0.000000 0.037472 0.000000 0.000000
# 5 0.000000 0.000000 0.000000 0.000000 0.029973 0.000000
# 6 0.000000 0.000000 0.000000 0.000000 0.000000 -0.228467
#
#
# Mechanical properties :
#
#
# Convention : Reuss Voigt Hill
#
# Bulk Modulus (GPa) = 60.67801 64.56486 62.62143
# Shear Modulus (GPa) = -52.43743 23.99136 -14.22303
#
# Velocity S-wave (km/s) = -5.05200 3.41720 -2.63111
# Velocity P-wave (km/s) = 2.12053 6.85530 4.60969
#
# Compressibility (1/GPa) = 0.01648044
#
# Stress axis : x y z
#
# Youngs Moduli (GPa) = 89.13051 59.71947 96.48396
#
# Poissons Ratio (x) = 0.27836 0.30829
# Poissons Ratio (y) = 0.41545 0.29600
# Poissons Ratio (z) = 0.28479 0.18321
#
# Static dielectric constant tensor:
#      x y z
#    x -2.321680 0.000000 0.000000 
#    y 0.000000 2.101340 0.000000 
#    z 0.000000 0.000000 3.644940 
# 
# 
# High freq. dielectric constant tensor:
#      x y z
#    x 1.803660 0.000000 0.000000 
#    y 0.000000 1.794070 0.000000 
#    z 0.000000 0.000000 1.804420 
# 
# From -- ./inp_files/9433.got.cif
#   From: 2010.03.12/outbox.cif.g09.slc.cpg/sg66_5_cif.got.tgz:9433.got - 2010.04.10 21:57:39.
