data_PCOD8276652
_publ_section_title
;
Structure prediction by ZEFSAII (Michael W. Deem and Ramdas Pophale) SiO2 
 PCOD8276652
Probable space group: C C C M
;
_chemical_formula_sum "Si O2"
_cell_formula_units_Z 52
_cell_length_a 19.108367
_cell_length_b 15.873505
_cell_length_c 8.731148
_cell_angle_alpha 90.000000
_cell_angle_beta 90.000000
_cell_angle_gamma 90.000000
_cell_volume 2648.303515
_symmetry_space_group_name_H-M "C C C M"
_symmetry_group_IT_number 66
_symmetry_cell_setting 'orthorhombic'
loop_
_space_group_symop_operation_xyz
x,y,z
-x,-y,z
x,-y,1/2-z
-x,y,1/2-z
-x,-y,-z
x,y,-z
-x,y,1/2+z
x,-y,1/2+z
1/2+x,1/2+y,z
1/2-x,1/2-y,z
1/2+x,1/2-y,1/2-z
1/2-x,1/2+y,1/2-z
1/2-x,1/2-y,-z
1/2+x,1/2+y,-z
1/2-x,1/2+y,1/2+z
1/2+x,1/2-y,1/2+z
loop_
_atom_site_type_symbol
_atom_site_label
_atom_site_fract_x
_atom_site_fract_y
_atom_site_fract_z
Si Si1 0.170831 0.733519 0.820740
Si Si2 0.000000 0.000000 0.750000
Si Si3 0.566381 0.339442 0.331614
Si Si4 0.424466 0.910117 0.682458
O O1 0.250000 0.750000 0.768885
O O2 0.132694 0.820900 0.775375
O O3 0.134665 0.657535 0.728640
O O4 0.165103 0.714917 0.000000
O O5 0.051261 0.060251 0.848947
O O6 0.500000 0.294415 0.250000
O O7 0.577288 0.300070 0.500000
O O8 0.500000 0.884004 0.750000
O O9 0.429732 0.916189 0.500000
O O10 0.400836 0.000000 0.750000
#
# Coordination Sequence:
#
# PCOD8276652 Si02
#       4
#    16   4  16  16
#     4  11  24  41  60  86 122 161 200 245 298 355
#     4   8  22  36  62  92 120 148 192 244 290 348
#     4  10  20  36  60  87 118 154 195 242 290 349
#     4  11  22  40  66  92 120 154 200 251 299 353
#
# _framework density 19.635210000000001
#
# number of rings (size 3 to 8) (size 9 to 14) (size 15 to 20)
#    0.923    0.615    0.000    6.923    0.000    2.462 
#    2.769    0.000    0.000    0.000    0.000    0.000 
#    0.000    0.000    0.000    0.000    0.000    0.000 
#
# Total GULP energy -322149.107478 kJ/mol
# GULP energy per Si atom -12390.350288 kJ/mol
# Density = 1.959052 g / cm^3
# Si number density = 19.635210 Si / 1000 Ang^3
#
#
#
# Elastic Constant Matrix: (Units=GPa)
#
#
# Indices 1 2 3 4 5 6 
#
# 1 160.9704 62.1298 63.3643 0.0000 0.0000 0.0000
# 2 62.1298 120.9936 35.7258 0.0000 0.0000 0.0000
# 3 63.3643 35.7258 140.0936 0.0000 0.0000 0.0000
# 4 0.0000 0.0000 0.0000 21.3139 0.0000 0.0000
# 5 0.0000 0.0000 0.0000 0.0000 29.6062 0.0000
# 6 0.0000 0.0000 0.0000 0.0000 0.0000 18.8079
#
#
#
# Elastic Compliance Matrix: (Units=1/GPa)
#
#
# Indices 1 2 3 4 5 6 
#
# 1 0.008817 -0.003623 -0.003064 0.000000 0.000000 0.000000
# 2 -0.003623 0.010426 -0.001020 0.000000 0.000000 0.000000
# 3 -0.003064 -0.001020 0.008784 0.000000 0.000000 0.000000
# 4 0.000000 0.000000 0.000000 0.046918 0.000000 0.000000
# 5 0.000000 0.000000 0.000000 0.000000 0.033777 0.000000
# 6 0.000000 0.000000 0.000000 0.000000 0.000000 0.053169
#
#
# Mechanical properties :
#
#
# Convention : Reuss Voigt Hill
#
# Bulk Modulus (GPa) = 79.28150 82.72192 81.00171
# Shear Modulus (GPa) = 27.54683 31.33478 29.44081
#
# Velocity S-wave (km/s) = 3.74963 3.99914 3.87639
# Velocity P-wave (km/s) = 7.69488 7.97151 7.83442
#
# Compressibility (1/GPa) = 0.01261328
#
# Stress axis : x y z
#
# Youngs Moduli (GPa) = 113.42195 95.91048 113.84192
#
# Poissons Ratio (x) = 0.34745 0.34881
# Poissons Ratio (y) = 0.41089 0.11616
# Poissons Ratio (z) = 0.34752 0.09786
#
# Static dielectric constant tensor:
#      x y z
#    x 3.524440 0.000000 0.000000 
#    y 0.000000 3.546390 0.000000 
#    z 0.000000 0.000000 3.620050 
# 
# 
# High freq. dielectric constant tensor:
#      x y z
#    x 1.748440 0.000000 0.000000 
#    y 0.000000 1.766640 0.000000 
#    z 0.000000 0.000000 1.780370 
# 
# From -- ./inp_files/5951.got.cif
#   From: 2010.03.12/outbox.cif.g09.slc.cpg/sg66_3_cif.got.tgz:5951.got - 2010.04.10 21:57:39.
