data_PCOD8276120
_publ_section_title
;
Structure prediction by ZEFSAII (Michael W. Deem and Ramdas Pophale) SiO2 
 PCOD8276120
Probable space group: C C C M
;
_chemical_formula_sum "Si O2"
_cell_formula_units_Z 96
_cell_length_a 11.602277
_cell_length_b 16.447505
_cell_length_c 26.595855
_cell_angle_alpha 90.000000
_cell_angle_beta 90.000000
_cell_angle_gamma 90.000000
_cell_volume 5075.247354
_symmetry_space_group_name_H-M "C C C M"
_symmetry_group_IT_number 66
_symmetry_cell_setting 'orthorhombic'
loop_
_space_group_symop_operation_xyz
x,y,z
-x,-y,z
x,-y,1/2-z
-x,y,1/2-z
-x,-y,-z
x,y,-z
-x,y,1/2+z
x,-y,1/2+z
1/2+x,1/2+y,z
1/2-x,1/2-y,z
1/2+x,1/2-y,1/2-z
1/2-x,1/2+y,1/2-z
1/2-x,1/2-y,-z
1/2+x,1/2+y,-z
1/2-x,1/2+y,1/2+z
1/2+x,1/2-y,1/2+z
loop_
_atom_site_type_symbol
_atom_site_label
_atom_site_fract_x
_atom_site_fract_y
_atom_site_fract_z
Si Si1 0.562127 0.232922 0.154448
Si Si2 0.133197 0.979519 0.354231
Si Si3 0.730957 0.639883 0.312207
Si Si4 0.101264 0.163602 0.783324
Si Si5 0.069341 0.275743 0.056884
Si Si6 0.287976 0.384290 0.943453
O O1 0.646372 0.310911 0.150309
O O2 0.634243 0.157306 0.177390
O O3 0.451150 0.254405 0.190322
O O4 0.528896 0.208704 0.097921
O O5 0.147105 0.894659 0.326067
O O6 0.191144 0.962919 0.408341
O O7 0.203875 0.045477 0.321870
O O8 0.000000 0.000000 0.361322
O O9 0.706119 0.675022 0.255898
O O10 0.000000 0.121383 0.750000
O O11 0.164392 0.344450 0.066440
O O12 0.117113 0.185275 0.065695
O O13 0.020497 0.283607 0.000000
O O14 0.295932 0.417562 0.000000
#
# Coordination Sequence:
#
# PCOD8276120 Si02
#       6
#    16  16  16  16  16  16
#     4  10  19  38  54  84 111 145 193 233 284 334
#     4  12  19  34  58  85 111 152 183 231 296 342
#     4  10  22  34  54  83 120 141 185 244 277 341
#     4  10  19  35  55  79 109 151 188 227 285 343
#     4   9  17  36  60  82 113 150 192 241 285 341
#     4   9  19  34  56  89 114 142 191 239 284 343
#
# _framework density 18.915334000000001
#
# number of rings (size 3 to 8) (size 9 to 14) (size 15 to 20)
#    0.000    2.000    5.000    1.500    0.000    0.333 
#   15.000    4.167    0.000    2.000    0.000    0.000 
#    0.000    0.000    0.000    0.000    0.000    0.000 
#
# Total GULP energy -594824.627065 kJ/mol
# GULP energy per Si atom -12392.179731 kJ/mol
# Density = 1.887228 g / cm^3
# Si number density = 18.915334 Si / 1000 Ang^3
#
#
#
# Elastic Constant Matrix: (Units=GPa)
#
#
# Indices 1 2 3 4 5 6 
#
# 1 75.3791 34.2559 68.9441 0.0000 0.0000 0.0000
# 2 34.2559 63.7099 37.5970 0.0000 0.0000 0.0000
# 3 68.9441 37.5970 145.7098 0.0000 0.0000 0.0000
# 4 0.0000 0.0000 0.0000 18.8848 0.0000 0.0000
# 5 0.0000 0.0000 0.0000 0.0000 34.0314 0.0000
# 6 0.0000 0.0000 0.0000 0.0000 0.0000 21.5337
#
#
#
# Elastic Compliance Matrix: (Units=1/GPa)
#
#
# Indices 1 2 3 4 5 6 
#
# 1 0.026499 -0.008079 -0.010454 0.000000 0.000000 0.000000
# 2 -0.008079 0.020979 -0.001590 0.000000 0.000000 0.000000
# 3 -0.010454 -0.001590 0.012220 0.000000 0.000000 0.000000
# 4 0.000000 0.000000 0.000000 0.052953 0.000000 0.000000
# 5 0.000000 0.000000 0.000000 0.000000 0.029385 0.000000
# 6 0.000000 0.000000 0.000000 0.000000 0.000000 0.046439
#
#
# Mechanical properties :
#
#
# Convention : Reuss Voigt Hill
#
# Bulk Modulus (GPa) = 51.41118 62.93253 57.17186
# Shear Modulus (GPa) = 21.25818 24.49011 22.87415
#
# Velocity S-wave (km/s) = 3.35604 3.60213 3.48126
# Velocity P-wave (km/s) = 6.50046 7.11641 6.81540
#
# Compressibility (1/GPa) = 0.01945102
#
# Stress axis : x y z
#
# Youngs Moduli (GPa) = 37.73704 47.66738 81.83592
#
# Poissons Ratio (x) = 0.38511 0.85549
# Poissons Ratio (y) = 0.30489 0.13014
# Poissons Ratio (z) = 0.39449 0.07581
#
# Static dielectric constant tensor:
#      x y z
#    x 3.339530 0.000000 0.000000 
#    y 0.000000 3.239160 0.000000 
#    z 0.000000 0.000000 3.623870 
# 
# 
# High freq. dielectric constant tensor:
#      x y z
#    x 1.712480 0.000000 0.000000 
#    y 0.000000 1.705120 0.000000 
#    z 0.000000 0.000000 1.745720 
# 
# From -- ./inp_files/63696.got.cif
#   From: 2010.03.12/outbox.cif.g09.slc.cpg/sg66_32_cif.got.tgz:63696.got - 2010.04.10 21:57:39.
