data_PCOD8276292
_publ_section_title
;
Structure prediction by ZEFSAII (Michael W. Deem and Ramdas Pophale) SiO2 
 PCOD8276292
Probable space group: C C C M
;
_chemical_formula_sum "Si O2"
_cell_formula_units_Z 96
_cell_length_a 25.079490
_cell_length_b 24.783920
_cell_length_c 8.866410
_cell_angle_alpha 90.000000
_cell_angle_beta 90.000000
_cell_angle_gamma 90.000000
_cell_volume 5511.077385
_symmetry_space_group_name_H-M "C C C M"
_symmetry_group_IT_number 66
_symmetry_cell_setting 'orthorhombic'
loop_
_space_group_symop_operation_xyz
x,y,z
-x,-y,z
x,-y,1/2-z
-x,y,1/2-z
-x,-y,-z
x,y,-z
-x,y,1/2+z
x,-y,1/2+z
1/2+x,1/2+y,z
1/2-x,1/2-y,z
1/2+x,1/2-y,1/2-z
1/2-x,1/2+y,1/2-z
1/2-x,1/2-y,-z
1/2+x,1/2+y,-z
1/2-x,1/2+y,1/2+z
1/2+x,1/2-y,1/2+z
loop_
_atom_site_type_symbol
_atom_site_label
_atom_site_fract_x
_atom_site_fract_y
_atom_site_fract_z
Si Si1 0.760050 0.336569 0.175525
Si Si2 0.637918 0.552922 0.678534
Si Si3 0.550219 0.390610 0.666314
Si Si4 0.753249 0.554382 0.178990
Si Si5 0.051239 0.765604 0.665071
Si Si6 0.835819 0.763198 0.674642
O O1 0.779702 0.389521 0.267165
O O2 0.805067 0.292377 0.203620
O O3 0.702360 0.312707 0.230726
O O4 0.755409 0.351811 0.000000
O O5 0.609521 0.500000 0.750000
O O6 0.645656 0.549414 0.500000
O O7 0.601525 0.603184 0.725711
O O8 0.693750 0.559062 0.760281
O O9 0.500000 0.418295 0.750000
O O10 0.558448 0.416850 0.500000
O O11 0.538895 0.328129 0.646216
O O12 0.780141 0.500000 0.250000
O O13 0.755308 0.549437 0.000000
O O14 0.054768 0.738407 0.500000
O O15 0.107882 0.757984 0.744326
O O16 0.000000 0.739071 0.750000
O O17 0.847569 0.772096 0.500000
#
# Coordination Sequence:
#
# PCOD8276292 Si02
#       6
#    16  16  16  16  16  16
#     4   9  18  33  51  73 100 131 162 196 240 291
#     4  11  21  33  47  62  82 111 147 190 235 280
#     4  10  20  33  46  63  84 111 148 190 234 278
#     4  11  21  33  49  69  93 123 157 195 235 281
#     4  10  20  32  48  68  93 123 157 195 235 280
#     4   9  18  32  51  73 100 131 162 196 240 290
#
# _framework density 17.419460999999998
#
# number of rings (size 3 to 8) (size 9 to 14) (size 15 to 20)
#    0.000    2.000    0.000    7.000    0.000    6.333 
#    0.000    3.333    0.000    0.000    0.000    0.000 
#    0.000    0.667    0.000    7.000    0.000    3.000 
#
# Total GULP energy -594837.835619 kJ/mol
# GULP energy per Si atom -12392.454909 kJ/mol
# Density = 1.737981 g / cm^3
# Si number density = 17.419461 Si / 1000 Ang^3
#
#
#
# Elastic Constant Matrix: (Units=GPa)
#
#
# Indices 1 2 3 4 5 6 
#
# 1 74.9443 6.4016 37.4432 0.0000 0.0000 0.0000
# 2 6.4016 67.3545 42.3157 0.0000 0.0000 0.0000
# 3 37.4432 42.3157 126.7843 0.0000 0.0000 0.0000
# 4 0.0000 0.0000 0.0000 24.3276 0.0000 0.0000
# 5 0.0000 0.0000 0.0000 0.0000 24.6190 0.0000
# 6 0.0000 0.0000 0.0000 0.0000 0.0000 15.4463
#
#
#
# Elastic Compliance Matrix: (Units=1/GPa)
#
#
# Indices 1 2 3 4 5 6 
#
# 1 0.015826 0.001812 -0.005279 0.000000 0.000000 0.000000
# 2 0.001812 0.018994 -0.006874 0.000000 0.000000 0.000000
# 3 -0.005279 -0.006874 0.011741 0.000000 0.000000 0.000000
# 4 0.000000 0.000000 0.000000 0.041106 0.000000 0.000000
# 5 0.000000 0.000000 0.000000 0.000000 0.040619 0.000000
# 6 0.000000 0.000000 0.000000 0.000000 0.000000 0.064740
#
#
# Mechanical properties :
#
#
# Convention : Reuss Voigt Hill
#
# Bulk Modulus (GPa) = 38.64266 49.04490 43.84378
# Shear Modulus (GPa) = 22.48879 25.07342 23.78111
#
# Velocity S-wave (km/s) = 3.59697 3.79805 3.69887
# Velocity P-wave (km/s) = 6.28352 6.88839 6.59290
#
# Compressibility (1/GPa) = 0.02587814
#
# Stress axis : x y z
#
# Youngs Moduli (GPa) = 63.18829 52.64955 85.17314
#
# Poissons Ratio (x) = -0.09541 0.44960
# Poissons Ratio (y) = -0.11451 0.58552
# Poissons Ratio (z) = 0.33355 0.36194
#
# Static dielectric constant tensor:
#      x y z
#    x 2.995340 0.000000 0.000000 
#    y 0.000000 4.234580 0.000000 
#    z 0.000000 0.000000 3.486330 
# 
# 
# High freq. dielectric constant tensor:
#      x y z
#    x 1.643680 0.000000 0.000000 
#    y 0.000000 1.650730 0.000000 
#    z 0.000000 0.000000 1.686820 
# 
# From -- ./inp_files/9114.got.cif
#   From: 2010.03.12/outbox.cif.g09.slc.cpg/sg66_5_cif.got.tgz:9114.got - 2010.04.10 21:57:39.
