data_PCOD8276719
_publ_section_title
;
Structure prediction by ZEFSAII (Michael W. Deem and Ramdas Pophale) SiO2 
 PCOD8276719
Probable space group: C C C M
;
_chemical_formula_sum "Si O2"
_cell_formula_units_Z 88
_cell_length_a 26.299911
_cell_length_b 5.462638
_cell_length_c 30.256239
_cell_angle_alpha 90.000000
_cell_angle_beta 90.000000
_cell_angle_gamma 90.000000
_cell_volume 4346.819858
_symmetry_space_group_name_H-M "C C C M"
_symmetry_group_IT_number 66
_symmetry_cell_setting 'orthorhombic'
loop_
_space_group_symop_operation_xyz
x,y,z
-x,-y,z
x,-y,1/2-z
-x,y,1/2-z
-x,-y,-z
x,y,-z
-x,y,1/2+z
x,-y,1/2+z
1/2+x,1/2+y,z
1/2-x,1/2-y,z
1/2+x,1/2-y,1/2-z
1/2-x,1/2+y,1/2-z
1/2-x,1/2-y,-z
1/2+x,1/2+y,-z
1/2-x,1/2+y,1/2+z
1/2+x,1/2-y,1/2+z
loop_
_atom_site_type_symbol
_atom_site_label
_atom_site_fract_x
_atom_site_fract_y
_atom_site_fract_z
Si Si1 0.625864 0.737903 0.163484
Si Si2 0.396167 0.500000 0.250000
Si Si3 0.860370 0.245180 0.948637
Si Si4 0.550946 0.127071 0.804245
Si Si5 0.190396 0.256752 0.084426
Si Si6 0.052859 0.918173 0.109732
O O1 0.636163 0.554809 0.205222
O O2 0.678416 0.780127 0.137170
O O3 0.587462 0.643177 0.125627
O O4 0.601743 0.981324 0.182783
O O5 0.433209 0.725992 0.239733
O O6 0.830996 0.498828 0.939128
O O7 0.914497 0.252160 0.923169
O O8 0.829814 0.000248 0.935133
O O9 0.872509 0.230871 0.000000
O O10 0.534686 0.284122 0.846188
O O11 0.500000 0.000000 0.789006
O O12 0.250000 0.250000 0.077311
O O13 0.000000 0.000000 0.085968
#
# Coordination Sequence:
#
# PCOD8276719 Si02
#       6
#    16   8  16  16  16  16
#     4  10  21  38  59  83 122 164 207 255 310 373
#     4  10  24  35  54  90 124 158 208 266 309 360
#     4  11  24  42  67 100 129 158 208 267 319 384
#     4  11  20  36  57  85 123 167 209 255 309 376
#     4  11  24  44  70  93 123 167 210 262 329 386
#     4  10  20  37  59  87 125 171 210 244 311 381
#
# _framework density 20.244685
#
# number of rings (size 3 to 8) (size 9 to 14) (size 15 to 20)
#    0.000    1.455    3.636    1.636    0.000    4.727 
#    0.000    0.000    4.000    3.818    0.000    0.000 
#    0.000    0.000    0.000    0.000    0.000    0.000 
#
# Total GULP energy -545256.729226 kJ/mol
# GULP energy per Si atom -12392.198392 kJ/mol
# Density = 2.019861 g / cm^3
# Si number density = 20.244685 Si / 1000 Ang^3
#
#
#
# Elastic Constant Matrix: (Units=GPa)
#
#
# Indices 1 2 3 4 5 6 
#
# 1 91.9615 22.6958 40.1506 0.0000 0.0000 0.0000
# 2 22.6958 105.0611 26.2969 0.0000 0.0000 0.0000
# 3 40.1506 26.2969 123.7498 0.0000 0.0000 0.0000
# 4 0.0000 0.0000 0.0000 27.2852 0.0000 0.0000
# 5 0.0000 0.0000 0.0000 0.0000 7.9861 0.0000
# 6 0.0000 0.0000 0.0000 0.0000 0.0000 27.3898
#
#
#
# Elastic Compliance Matrix: (Units=1/GPa)
#
#
# Indices 1 2 3 4 5 6 
#
# 1 0.013001 -0.001851 -0.003825 0.000000 0.000000 0.000000
# 2 -0.001851 0.010317 -0.001592 0.000000 0.000000 0.000000
# 3 -0.003825 -0.001592 0.009660 0.000000 0.000000 0.000000
# 4 0.000000 0.000000 0.000000 0.036650 0.000000 0.000000
# 5 0.000000 0.000000 0.000000 0.000000 0.125218 0.000000
# 6 0.000000 0.000000 0.000000 0.000000 0.000000 0.036510
#
#
# Mechanical properties :
#
#
# Convention : Reuss Voigt Hill
#
# Bulk Modulus (GPa) = 54.22332 55.45100 54.83716
# Shear Modulus (GPa) = 19.83832 27.97416 23.90624
#
# Velocity S-wave (km/s) = 3.13378 3.72129 3.44010
# Velocity P-wave (km/s) = 6.31951 6.77598 6.55172
#
# Compressibility (1/GPa) = 0.01844225
#
# Stress axis : x y z
#
# Youngs Moduli (GPa) = 76.91793 96.93155 103.51973
#
# Poissons Ratio (x) = 0.17944 0.39594
# Poissons Ratio (y) = 0.14239 0.16477
# Poissons Ratio (z) = 0.29419 0.15428
#
# Static dielectric constant tensor:
#      x y z
#    x 3.567200 0.000000 0.000000 
#    y 0.000000 3.972560 0.000000 
#    z 0.000000 0.000000 3.849020 
# 
# 
# High freq. dielectric constant tensor:
#      x y z
#    x 1.761670 0.000000 0.000000 
#    y 0.000000 1.805240 0.000000 
#    z 0.000000 0.000000 1.799300 
# 
# From -- ./inp_files/70364.got.cif
#   From: 2010.03.12/outbox.cif.g09.slc.cpg/sg66_36_cif.got.tgz:70364.got - 2010.04.10 21:57:39.
