data_PCOD8276529
_publ_section_title
;
Structure prediction by ZEFSAII (Michael W. Deem and Ramdas Pophale) SiO2 
 PCOD8276529
Probable space group: C C C M
;
_chemical_formula_sum "Si O2"
_cell_formula_units_Z 104
_cell_length_a 20.040566
_cell_length_b 26.006402
_cell_length_c 9.302690
_cell_angle_alpha 90.000000
_cell_angle_beta 90.000000
_cell_angle_gamma 90.000000
_cell_volume 4848.404028
_symmetry_space_group_name_H-M "C C C M"
_symmetry_group_IT_number 66
_symmetry_cell_setting 'orthorhombic'
loop_
_space_group_symop_operation_xyz
x,y,z
-x,-y,z
x,-y,1/2-z
-x,y,1/2-z
-x,-y,-z
x,y,-z
-x,y,1/2+z
x,-y,1/2+z
1/2+x,1/2+y,z
1/2-x,1/2-y,z
1/2+x,1/2-y,1/2-z
1/2-x,1/2+y,1/2-z
1/2-x,1/2-y,-z
1/2+x,1/2+y,-z
1/2-x,1/2+y,1/2+z
1/2+x,1/2-y,1/2+z
loop_
_atom_site_type_symbol
_atom_site_label
_atom_site_fract_x
_atom_site_fract_y
_atom_site_fract_z
Si Si1 0.935067 0.839453 0.334155
Si Si2 0.744721 0.583510 0.157671
Si Si3 0.939590 0.422454 0.839890
Si Si4 0.328312 0.255041 0.333081
Si Si5 0.860053 0.341960 0.668443
Si Si6 0.620295 0.551803 0.668157
Si Si7 0.337926 0.000000 0.250000
O O1 0.951208 0.831042 0.500000
O O2 0.865351 0.809492 0.296327
O O3 0.928057 0.900248 0.299009
O O4 0.000000 0.818328 0.250000
O O5 0.786255 0.634566 0.199051
O O6 0.692679 0.570463 0.281470
O O7 0.794717 0.535553 0.144878
O O8 0.710670 0.590160 0.000000
O O9 0.916484 0.372789 0.751994
O O10 0.881960 0.464665 0.854163
O O11 0.000000 0.447072 0.750000
O O12 0.961810 0.406346 0.000000
O O13 0.338991 0.241053 0.500000
O O14 0.250000 0.250000 0.295367
O O15 0.364928 0.215007 0.230357
O O16 0.876183 0.342360 0.500000
O O17 0.596266 0.500000 0.750000
O O18 0.623869 0.538708 0.500000
#
# Coordination Sequence:
#
# PCOD8276529 Si02
#       7
#    16  16  16  16  16  16   8
#     4  10  24  44  66  94 127 168 213 260 317 382
#     4  10  20  35  56  87 123 158 201 251 307 370
#     4  11  23  38  56  79 113 159 207 256 309 372
#     4  10  21  41  68  96 126 164 211 261 318 383
#     4  10  22  38  58  87 121 156 200 254 311 373
#     4  11  23  39  62  92 125 162 205 253 309 370
#     4  10  21  34  56  84 115 152 204 252 312 372
#
# _framework density 21.450358000000001
#
# number of rings (size 3 to 8) (size 9 to 14) (size 15 to 20)
#    0.000    1.692    0.769    3.000    0.000    9.846 
#    0.000    3.077    0.000    0.000    0.000    0.000 
#    0.000    0.000    0.000    0.000    0.000    0.000 
#
# Total GULP energy -644600.102880 kJ/mol
# GULP energy per Si atom -12396.155825 kJ/mol
# Density = 2.140154 g / cm^3
# Si number density = 21.450358 Si / 1000 Ang^3
#
#
#
# Elastic Constant Matrix: (Units=GPa)
#
#
# Indices 1 2 3 4 5 6 
#
# 1 95.9976 25.2687 39.3547 0.0000 0.0000 0.0000
# 2 25.2687 109.5446 44.0607 0.0000 0.0000 0.0000
# 3 39.3547 44.0607 114.4759 0.0000 0.0000 0.0000
# 4 0.0000 0.0000 0.0000 23.3292 0.0000 0.0000
# 5 0.0000 0.0000 0.0000 0.0000 28.1290 0.0000
# 6 0.0000 0.0000 0.0000 0.0000 0.0000 16.1196
#
#
#
# Elastic Compliance Matrix: (Units=1/GPa)
#
#
# Indices 1 2 3 4 5 6 
#
# 1 0.012291 -0.001344 -0.003708 0.000000 0.000000 0.000000
# 2 -0.001344 0.010948 -0.003752 0.000000 0.000000 0.000000
# 3 -0.003708 -0.003752 0.011454 0.000000 0.000000 0.000000
# 4 0.000000 0.000000 0.000000 0.042865 0.000000 0.000000
# 5 0.000000 0.000000 0.000000 0.000000 0.035551 0.000000
# 6 0.000000 0.000000 0.000000 0.000000 0.000000 0.062036
#
#
# Mechanical properties :
#
#
# Convention : Reuss Voigt Hill
#
# Bulk Modulus (GPa) = 58.52879 59.70959 59.11919
# Shear Modulus (GPa) = 25.19569 27.60449 26.40009
#
# Velocity S-wave (km/s) = 3.43097 3.59123 3.51201
# Velocity P-wave (km/s) = 6.56051 6.71510 6.63826
#
# Compressibility (1/GPa) = 0.01708561
#
# Stress axis : x y z
#
# Youngs Moduli (GPa) = 81.36168 91.34380 87.30359
#
# Poissons Ratio (x) = 0.12273 0.32374
# Poissons Ratio (y) = 0.10932 0.32754
# Poissons Ratio (z) = 0.30171 0.34270
#
# Static dielectric constant tensor:
#      x y z
#    x 3.752910 0.000000 0.000000 
#    y 0.000000 3.955530 0.000000 
#    z 0.000000 0.000000 3.691600 
# 
# 
# High freq. dielectric constant tensor:
#      x y z
#    x 1.829200 0.000000 0.000000 
#    y 0.000000 1.842820 0.000000 
#    z 0.000000 0.000000 1.842650 
# 
# From -- ./inp_files/8122.got.cif
#   From: 2010.03.12/outbox.cif.g09.slc.cpg/sg66_5_cif.got.tgz:8122.got - 2010.04.10 21:57:39.
