data_PCOD8276416
_publ_section_title
;
Structure prediction by ZEFSAII (Michael W. Deem and Ramdas Pophale) SiO2 
 PCOD8276416
Probable space group: C C C M
;
_chemical_formula_sum "Si O2"
_cell_formula_units_Z 96
_cell_length_a 24.023501
_cell_length_b 11.334354
_cell_length_c 19.289796
_cell_angle_alpha 90.000000
_cell_angle_beta 90.000000
_cell_angle_gamma 90.000000
_cell_volume 5252.435232
_symmetry_space_group_name_H-M "C C C M"
_symmetry_group_IT_number 66
_symmetry_cell_setting 'orthorhombic'
loop_
_space_group_symop_operation_xyz
x,y,z
-x,-y,z
x,-y,1/2-z
-x,y,1/2-z
-x,-y,-z
x,y,-z
-x,y,1/2+z
x,-y,1/2+z
1/2+x,1/2+y,z
1/2-x,1/2-y,z
1/2+x,1/2-y,1/2-z
1/2-x,1/2+y,1/2-z
1/2-x,1/2-y,-z
1/2+x,1/2+y,-z
1/2-x,1/2+y,1/2+z
1/2+x,1/2-y,1/2+z
loop_
_atom_site_type_symbol
_atom_site_label
_atom_site_fract_x
_atom_site_fract_y
_atom_site_fract_z
Si Si1 0.309556 0.002137 0.173884
Si Si2 0.500000 0.500000 0.356413
Si Si3 0.209632 0.964078 0.579075
Si Si4 0.600841 0.612741 0.423411
Si Si5 0.000000 0.793000 0.250000
Si Si6 0.187547 0.238537 0.185777
Si Si7 0.611140 0.786567 0.697424
O O1 0.263536 0.975034 0.115126
O O2 0.333850 0.133242 0.158785
O O3 0.280048 0.000000 0.250000
O O4 0.361213 0.911679 0.177874
O O5 0.555139 0.515702 0.402381
O O6 0.511859 0.380977 0.313728
O O7 0.224345 0.925559 0.500000
O O8 0.186752 0.852225 0.622177
O O9 0.162100 0.060053 0.578931
O O10 0.586730 0.658331 0.500000
O O11 0.600017 0.724903 0.374802
O O12 0.948294 0.704806 0.263722
O O13 0.250000 0.250000 0.214433
O O14 0.149928 0.204848 0.252360
#
# Coordination Sequence:
#
# PCOD8276416 Si02
#       7
#    16   8  16  16   8  16  16
#     4   9  20  35  51  74 105 140 181 215 273 326
#     4   9  17  34  52  74 107 137 186 236 273 325
#     4  10  21  34  52  80 108 141 186 229 271 328
#     4  10  21  32  50  78 109 143 176 222 283 333
#     4   9  18  32  53  82  98 138 185 231 282 322
#     4   9  19  34  54  75  99 141 183 222 268 316
#     4  10  20  34  54  77 111 141 179 228 276 337
#
# _framework density 18.277235999999998
#
# number of rings (size 3 to 8) (size 9 to 14) (size 15 to 20)
#    0.000    2.500    0.000    1.250    7.000    5.000 
#    0.000    5.417    0.000    0.000    0.000    0.000 
#    0.000   44.000    0.000    0.000    0.000    0.000 
#
# Total GULP energy -594784.122675 kJ/mol
# GULP energy per Si atom -12391.335889 kJ/mol
# Density = 1.823564 g / cm^3
# Si number density = 18.277236 Si / 1000 Ang^3
#
#
#
# Elastic Constant Matrix: (Units=GPa)
#
#
# Indices 1 2 3 4 5 6 
#
# 1 112.2200 44.6030 54.8858 0.0000 0.0000 0.0000
# 2 44.6030 79.0766 30.6269 0.0000 0.0000 0.0000
# 3 54.8858 30.6269 124.2254 0.0000 0.0000 0.0000
# 4 0.0000 0.0000 0.0000 17.2265 0.0000 0.0000
# 5 0.0000 0.0000 0.0000 0.0000 20.1855 0.0000
# 6 0.0000 0.0000 0.0000 0.0000 0.0000 33.0494
#
#
#
# Elastic Compliance Matrix: (Units=1/GPa)
#
#
# Indices 1 2 3 4 5 6 
#
# 1 0.013428 -0.005833 -0.004495 0.000000 0.000000 0.000000
# 2 -0.005833 0.016515 -0.001494 0.000000 0.000000 0.000000
# 3 -0.004495 -0.001494 0.010404 0.000000 0.000000 0.000000
# 4 0.000000 0.000000 0.000000 0.058050 0.000000 0.000000
# 5 0.000000 0.000000 0.000000 0.000000 0.049540 0.000000
# 6 0.000000 0.000000 0.000000 0.000000 0.000000 0.030258
#
#
# Mechanical properties :
#
#
# Convention : Reuss Voigt Hill
#
# Bulk Modulus (GPa) = 59.87108 63.97260 61.92184
# Shear Modulus (GPa) = 24.10722 26.45271 25.27997
#
# Velocity S-wave (km/s) = 3.63571 3.80847 3.72309
# Velocity P-wave (km/s) = 7.10301 7.37675 7.24118
#
# Compressibility (1/GPa) = 0.01670255
#
# Stress axis : x y z
#
# Youngs Moduli (GPa) = 74.47248 60.55125 96.11557
#
# Poissons Ratio (x) = 0.35320 0.43200
# Poissons Ratio (y) = 0.43441 0.14364
# Poissons Ratio (z) = 0.33472 0.09049
#
# Static dielectric constant tensor:
#      x y z
#    x 3.463680 0.000000 0.000000 
#    y 0.000000 3.335870 0.000000 
#    z 0.000000 0.000000 3.596210 
# 
# 
# High freq. dielectric constant tensor:
#      x y z
#    x 1.706420 0.000000 0.000000 
#    y 0.000000 1.691190 0.000000 
#    z 0.000000 0.000000 1.709510 
# 
# From -- ./inp_files/43616.got.cif
#   From: 2010.03.12/outbox.cif.g09.slc.cpg/sg66_22_cif.got.tgz:43616.got - 2010.04.10 21:57:39.
