data_PCOD8276027
_publ_section_title
;
Structure prediction by ZEFSAII (Michael W. Deem and Ramdas Pophale) SiO2 
 PCOD8276027
Probable space group: C C C M
;
_chemical_formula_sum "Si O2"
_cell_formula_units_Z 56
_cell_length_a 21.125030
_cell_length_b 4.965626
_cell_length_c 25.235103
_cell_angle_alpha 90.000000
_cell_angle_beta 90.000000
_cell_angle_gamma 90.000000
_cell_volume 2647.137025
_symmetry_space_group_name_H-M "C C C M"
_symmetry_group_IT_number 66
_symmetry_cell_setting 'orthorhombic'
loop_
_space_group_symop_operation_xyz
x,y,z
-x,-y,z
x,-y,1/2-z
-x,y,1/2-z
-x,-y,-z
x,y,-z
-x,y,1/2+z
x,-y,1/2+z
1/2+x,1/2+y,z
1/2-x,1/2-y,z
1/2+x,1/2-y,1/2-z
1/2-x,1/2+y,1/2-z
1/2-x,1/2-y,-z
1/2+x,1/2+y,-z
1/2-x,1/2+y,1/2+z
1/2+x,1/2-y,1/2+z
loop_
_atom_site_type_symbol
_atom_site_label
_atom_site_fract_x
_atom_site_fract_y
_atom_site_fract_z
Si Si1 0.750000 0.750000 0.380917
Si Si2 0.816119 0.123145 0.697552
Si Si3 0.070316 0.920337 0.061165
Si Si4 0.362848 0.074383 0.104722
O O1 0.696671 0.606051 0.345696
O O2 0.792351 0.533568 0.413947
O O3 0.750000 0.250000 0.717249
O O4 0.859681 0.344760 0.667551
O O5 0.850048 0.000000 0.750000
O O6 0.086313 0.660638 0.096492
O O7 0.118893 0.165843 0.070081
O O8 0.073331 0.833827 0.000000
O O9 0.000000 0.000000 0.078516
#
# Coordination Sequence:
#
# PCOD8276027 Si02
#       4
#     8  16  16  16
#     4  10  20  38  59  96 132 162 197 250 320 386
#     4  10  19  33  62  94 132 166 203 246 304 381
#     4  11  24  44  67  89 117 167 228 271 311 369
#     4  11  22  39  63  97 129 158 208 263 319 374
#
# _framework density 21.154928999999999
#
# number of rings (size 3 to 8) (size 9 to 14) (size 15 to 20)
#    0.000    1.429    4.286    1.714    0.000    2.286 
#    0.000    4.286    0.000    0.857    7.429    0.000 
#    0.000    0.000    0.000    0.000    0.000    0.000 
#
# Total GULP energy -346992.251970 kJ/mol
# GULP energy per Si atom -12392.580427 kJ/mol
# Density = 2.110678 g / cm^3
# Si number density = 21.154929 Si / 1000 Ang^3
#
#
#
# Elastic Constant Matrix: (Units=GPa)
#
#
# Indices 1 2 3 4 5 6 
#
# 1 75.9693 46.3920 64.3783 0.0000 0.0000 0.0000
# 2 46.3920 142.2934 55.9708 0.0000 0.0000 0.0000
# 3 64.3783 55.9708 93.3540 0.0000 0.0000 0.0000
# 4 0.0000 0.0000 0.0000 38.9999 0.0000 0.0000
# 5 0.0000 0.0000 0.0000 0.0000 5.4942 0.0000
# 6 0.0000 0.0000 0.0000 0.0000 0.0000 37.7090
#
#
#
# Elastic Compliance Matrix: (Units=1/GPa)
#
#
# Indices 1 2 3 4 5 6 
#
# 1 0.032243 -0.002311 -0.020850 0.000000 0.000000 0.000000
# 2 -0.002311 0.009362 -0.004019 0.000000 0.000000 0.000000
# 3 -0.020850 -0.004019 0.027500 0.000000 0.000000 0.000000
# 4 0.000000 0.000000 0.000000 0.025641 0.000000 0.000000
# 5 0.000000 0.000000 0.000000 0.000000 0.182011 0.000000
# 6 0.000000 0.000000 0.000000 0.000000 0.000000 0.026519
#
#
# Mechanical properties :
#
#
# Convention : Reuss Voigt Hill
#
# Bulk Modulus (GPa) = 67.81966 71.67765 69.74866
# Shear Modulus (GPa) = 13.79112 26.09899 19.94506
#
# Velocity S-wave (km/s) = 2.55602 3.51623 3.07385
# Velocity P-wave (km/s) = 6.39055 7.10218 6.75574
#
# Compressibility (1/GPa) = 0.01474499
#
# Stress axis : x y z
#
# Youngs Moduli (GPa) = 31.01439 106.81204 36.36353
#
# Poissons Ratio (x) = 0.24685 0.75817
# Poissons Ratio (y) = 0.07168 0.14616
# Poissons Ratio (z) = 0.64664 0.42933
#
# Static dielectric constant tensor:
#      x y z
#    x 3.677580 0.000000 0.000000 
#    y 0.000000 4.299720 0.000000 
#    z 0.000000 0.000000 3.596090 
# 
# 
# High freq. dielectric constant tensor:
#      x y z
#    x 1.792200 0.000000 0.000000 
#    y 0.000000 1.863570 0.000000 
#    z 0.000000 0.000000 1.797440 
# 
# From -- ./inp_files/59116.got.cif
#   From: 2010.03.12/outbox.cif.g09.slc.cpg/sg66_30_cif.got.tgz:59116.got - 2010.04.10 21:57:39.
