data_PCOD8276845
_publ_section_title
;
Structure prediction by ZEFSAII (Michael W. Deem and Ramdas Pophale) SiO2 
 PCOD8276845
Probable space group: C C C M
;
_chemical_formula_sum "Si O2"
_cell_formula_units_Z 60
_cell_length_a 5.105268
_cell_length_b 22.494444
_cell_length_c 23.096923
_cell_angle_alpha 90.000000
_cell_angle_beta 90.000000
_cell_angle_gamma 90.000000
_cell_volume 2652.454451
_symmetry_space_group_name_H-M "C C C M"
_symmetry_group_IT_number 66
_symmetry_cell_setting 'orthorhombic'
loop_
_space_group_symop_operation_xyz
x,y,z
-x,-y,z
x,-y,1/2-z
-x,y,1/2-z
-x,-y,-z
x,y,-z
-x,y,1/2+z
x,-y,1/2+z
1/2+x,1/2+y,z
1/2-x,1/2-y,z
1/2+x,1/2-y,1/2-z
1/2-x,1/2+y,1/2-z
1/2-x,1/2-y,-z
1/2+x,1/2+y,-z
1/2-x,1/2+y,1/2+z
1/2+x,1/2-y,1/2+z
loop_
_atom_site_type_symbol
_atom_site_label
_atom_site_fract_x
_atom_site_fract_y
_atom_site_fract_z
Si Si1 0.500000 0.307629 0.750000
Si Si2 0.750000 0.250000 0.852756
Si Si3 0.748220 0.042537 0.000000
Si Si4 0.000000 0.000000 0.750000
Si Si5 0.741513 0.377608 0.887132
Si Si6 0.235245 0.399671 0.184558
O O1 0.521160 0.267275 0.807280
O O2 0.252111 0.351431 0.762767
O O3 0.815191 0.306908 0.893434
O O4 0.738275 0.086916 0.053749
O O5 0.500000 0.000000 0.000000
O O6 0.000000 0.000000 0.000000
O O7 0.805928 0.036437 0.709136
O O8 0.445748 0.382280 0.864770
O O9 0.945798 0.405082 0.841521
#
# Coordination Sequence:
#
# PCOD8276845 Si02
#       6
#     8   8   8   4  16  16
#     4   9  18  35  62 100 141 174 207 254 342 398
#     4  10  20  39  70  96 140 171 220 274 324 422
#     4  12  28  49  72  93 130 178 230 293 341 392
#     4  10  24  38  64  96 148 182 214 282 314 420
#     4  11  25  43  68  98 127 177 226 278 336 388
#     4  10  23  39  63 101 135 177 220 263 334 401
#
# _framework density 22.620560000000001
#
# number of rings (size 3 to 8) (size 9 to 14) (size 15 to 20)
#    0.000    1.600    0.000    3.200    5.600   13.333 
#    0.000    0.000    0.000    9.600    0.000    0.000 
#    0.000    0.000    0.000    0.000    0.000    0.000 
#
# Total GULP energy -371688.235483 kJ/mol
# GULP energy per Si atom -12389.607849 kJ/mol
# Density = 2.256907 g / cm^3
# Si number density = 22.620560 Si / 1000 Ang^3
#
#
#
# Elastic Constant Matrix: (Units=GPa)
#
#
# Indices 1 2 3 4 5 6 
#
# 1 83.8350 27.0521 31.3663 0.0000 0.0000 0.0000
# 2 27.0521 189.8497 77.2125 0.0000 0.0000 0.0000
# 3 31.3663 77.2125 120.0610 0.0000 0.0000 0.0000
# 4 0.0000 0.0000 0.0000 59.5433 0.0000 0.0000
# 5 0.0000 0.0000 0.0000 0.0000 30.0222 0.0000
# 6 0.0000 0.0000 0.0000 0.0000 0.0000 24.6035
#
#
#
# Elastic Compliance Matrix: (Units=1/GPa)
#
#
# Indices 1 2 3 4 5 6 
#
# 1 0.013280 -0.000652 -0.003050 0.000000 0.000000 0.000000
# 2 -0.000652 0.007165 -0.004438 0.000000 0.000000 0.000000
# 3 -0.003050 -0.004438 0.011980 0.000000 0.000000 0.000000
# 4 0.000000 0.000000 0.000000 0.016795 0.000000 0.000000
# 5 0.000000 0.000000 0.000000 0.000000 0.033309 0.000000
# 6 0.000000 0.000000 0.000000 0.000000 0.000000 0.040645
#
#
# Mechanical properties :
#
#
# Convention : Reuss Voigt Hill
#
# Bulk Modulus (GPa) = 61.93704 73.88970 67.91337
# Shear Modulus (GPa) = 34.52243 40.04143 37.28193
#
# Velocity S-wave (km/s) = 3.91084 4.21186 4.06414
# Velocity P-wave (km/s) = 6.91615 7.50925 7.21879
#
# Compressibility (1/GPa) = 0.01614543
#
# Stress axis : x y z
#
# Youngs Moduli (GPa) = 75.30279 139.56777 83.47342
#
# Poissons Ratio (x) = 0.09096 0.25461
# Poissons Ratio (y) = 0.04908 0.37042
# Poissons Ratio (z) = 0.22969 0.61935
#
# Static dielectric constant tensor:
#      x y z
#    x 4.407050 0.000000 0.000000 
#    y 0.000000 4.621380 0.000000 
#    z 0.000000 0.000000 4.000410 
# 
# 
# High freq. dielectric constant tensor:
#      x y z
#    x 1.894580 0.000000 0.000000 
#    y 0.000000 1.920200 0.000000 
#    z 0.000000 0.000000 1.862560 
# 
# From -- ./inp_files/54029.got.cif
#   From: 2010.03.12/outbox.cif.g09.slc.cpg/sg66_28_cif.got.tgz:54029.got - 2010.04.10 21:57:39.
