data_PCOD8276728
_publ_section_title
;
Structure prediction by ZEFSAII (Michael W. Deem and Ramdas Pophale) SiO2 
 PCOD8276728
Probable space group: C C C M
;
_chemical_formula_sum "Si O2"
_cell_formula_units_Z 96
_cell_length_a 23.998743
_cell_length_b 14.089957
_cell_length_c 14.588345
_cell_angle_alpha 90.000000
_cell_angle_beta 90.000000
_cell_angle_gamma 90.000000
_cell_volume 4932.921315
_symmetry_space_group_name_H-M "C C C M"
_symmetry_group_IT_number 66
_symmetry_cell_setting 'orthorhombic'
loop_
_space_group_symop_operation_xyz
x,y,z
-x,-y,z
x,-y,1/2-z
-x,y,1/2-z
-x,-y,-z
x,y,-z
-x,y,1/2+z
x,-y,1/2+z
1/2+x,1/2+y,z
1/2-x,1/2-y,z
1/2+x,1/2-y,1/2-z
1/2-x,1/2+y,1/2-z
1/2-x,1/2-y,-z
1/2+x,1/2+y,-z
1/2-x,1/2+y,1/2+z
1/2+x,1/2-y,1/2+z
loop_
_atom_site_type_symbol
_atom_site_label
_atom_site_fract_x
_atom_site_fract_y
_atom_site_fract_z
Si Si1 0.252143 0.638272 0.396070
Si Si2 0.350276 0.105806 0.237306
Si Si3 0.191784 0.725133 0.101917
Si Si4 0.562223 0.736338 0.232317
Si Si5 0.896814 0.123633 0.101114
Si Si6 0.623072 0.409027 0.608097
O O1 0.243582 0.598502 0.500000
O O2 0.250000 0.750000 0.397238
O O3 0.202823 0.600441 0.330722
O O4 0.313525 0.610307 0.357690
O O5 0.336667 0.144988 0.337792
O O6 0.399693 0.174218 0.202469
O O7 0.373763 0.000000 0.250000
O O8 0.250000 0.750000 0.149216
O O9 0.163247 0.827658 0.097154
O O10 0.198507 0.681760 0.000000
O O11 0.500000 0.773339 0.250000
O O12 0.568679 0.687689 0.330697
O O13 0.576615 0.657115 0.156036
O O14 0.891336 0.016302 0.135979
O O15 0.924967 0.125546 0.000000
O O16 0.619187 0.390830 0.500000
#
# Coordination Sequence:
#
# PCOD8276728 Si02
#       6
#    16  16  16  16  16  16
#     4  10  20  37  60  88 122 152 183 228 288 353
#     4  11  24  37  58  85 114 155 196 240 284 335
#     4   9  19  35  54  81 118 154 184 219 272 338
#     4  11  24  41  59  80 111 153 200 246 285 330
#     4   9  20  37  57  84 116 147 182 229 285 345
#     4  10  21  37  60  90 120 149 182 230 293 355
#
# _framework density 19.461084
#
# number of rings (size 3 to 8) (size 9 to 14) (size 15 to 20)
#    0.000    2.000    1.667    1.000    4.667    3.000 
#    0.000    1.667    0.000    0.000    0.000    7.000 
#    0.000    0.000    0.000    0.000    0.000    0.000 
#
# Total GULP energy -594728.429147 kJ/mol
# GULP energy per Si atom -12390.175607 kJ/mol
# Density = 1.941679 g / cm^3
# Si number density = 19.461084 Si / 1000 Ang^3
#
#
#
# Elastic Constant Matrix: (Units=GPa)
#
#
# Indices 1 2 3 4 5 6 
#
# 1 89.9319 18.9321 20.4748 0.0000 0.0000 0.0000
# 2 18.9321 115.8296 23.6704 0.0000 0.0000 0.0000
# 3 20.4748 23.6704 60.8444 0.0000 0.0000 0.0000
# 4 0.0000 0.0000 0.0000 -16.7544 0.0000 0.0000
# 5 0.0000 0.0000 0.0000 0.0000 23.1510 0.0000
# 6 0.0000 0.0000 0.0000 0.0000 0.0000 5.8067
#
#
#
# Elastic Compliance Matrix: (Units=1/GPa)
#
#
# Indices 1 2 3 4 5 6 
#
# 1 0.012208 -0.001256 -0.003620 0.000000 0.000000 0.000000
# 2 -0.001256 0.009508 -0.003276 0.000000 0.000000 0.000000
# 3 -0.003620 -0.003276 0.018928 0.000000 0.000000 0.000000
# 4 0.000000 0.000000 0.000000 -0.059686 0.000000 0.000000
# 5 0.000000 0.000000 0.000000 0.000000 0.043195 0.000000
# 6 0.000000 0.000000 0.000000 0.000000 0.000000 0.172214
#
#
# Mechanical properties :
#
#
# Convention : Reuss Voigt Hill
#
# Bulk Modulus (GPa) = 41.08342 43.64006 42.36174
# Shear Modulus (GPa) = 22.64661 16.00925 19.32793
#
# Velocity S-wave (km/s) = 3.41499 2.87126 3.15486
# Velocity P-wave (km/s) = 6.05854 5.78491 5.92330
#
# Compressibility (1/GPa) = 0.02434072
#
# Stress axis : x y z
#
# Youngs Moduli (GPa) = 81.91398 105.17279 52.83172
#
# Poissons Ratio (x) = 0.13206 0.19123
# Poissons Ratio (y) = 0.10286 0.17310
# Poissons Ratio (z) = 0.29650 0.34459
#
# Static dielectric constant tensor:
#      x y z
#    x 3.595540 0.000000 0.000000 
#    y 0.000000 3.511300 0.000000 
#    z 0.000000 0.000000 3.960390 
# 
# 
# High freq. dielectric constant tensor:
#      x y z
#    x 1.738600 0.000000 0.000000 
#    y 0.000000 1.753220 0.000000 
#    z 0.000000 0.000000 1.767950 
# 
# From -- ./inp_files/31150.got.cif
#   From: 2010.03.12/outbox.cif.g09.slc.cpg/sg66_16_cif.got.tgz:31150.got - 2010.04.10 21:57:39.
