data_PCOD8276481
_publ_section_title
;
Structure prediction by ZEFSAII (Michael W. Deem and Ramdas Pophale) SiO2 
 PCOD8276481
Probable space group: C C C M
;
_chemical_formula_sum "Si O2"
_cell_formula_units_Z 96
_cell_length_a 12.007023
_cell_length_b 25.089628
_cell_length_c 17.668566
_cell_angle_alpha 90.000000
_cell_angle_beta 90.000000
_cell_angle_gamma 90.000000
_cell_volume 5322.686259
_symmetry_space_group_name_H-M "C C C M"
_symmetry_group_IT_number 66
_symmetry_cell_setting 'orthorhombic'
loop_
_space_group_symop_operation_xyz
x,y,z
-x,-y,z
x,-y,1/2-z
-x,y,1/2-z
-x,-y,-z
x,y,-z
-x,y,1/2+z
x,-y,1/2+z
1/2+x,1/2+y,z
1/2-x,1/2-y,z
1/2+x,1/2-y,1/2-z
1/2-x,1/2+y,1/2-z
1/2-x,1/2-y,-z
1/2+x,1/2+y,-z
1/2-x,1/2+y,1/2+z
1/2+x,1/2-y,1/2+z
loop_
_atom_site_type_symbol
_atom_site_label
_atom_site_fract_x
_atom_site_fract_y
_atom_site_fract_z
Si Si1 0.110636 0.640979 0.298745
Si Si2 0.632939 0.063076 0.084074
Si Si3 0.369749 0.770120 0.586550
Si Si4 0.869004 0.443518 0.413867
Si Si5 0.598819 0.269762 0.086128
Si Si6 0.283321 0.168666 0.654391
O O1 0.079461 0.682320 0.364230
O O2 0.173186 0.592930 0.343966
O O3 0.198475 0.670871 0.244505
O O4 0.000000 0.624361 0.250000
O O5 0.500912 0.064108 0.089739
O O6 0.689964 0.107226 0.135828
O O7 0.671287 0.003276 0.105881
O O8 0.672817 0.076461 0.000000
O O9 0.358658 0.790105 0.500000
O O10 0.250000 0.750000 0.616095
O O11 0.464816 0.724445 0.593083
O O12 0.828653 0.428330 0.500000
O O13 0.638222 0.210847 0.111541
O O14 0.655340 0.316015 0.136715
O O15 0.637091 0.278089 0.000000
#
# Coordination Sequence:
#
# PCOD8276481 Si02
#       6
#    16  16  16  16  16  16
#     4  12  21  31  48  75 107 140 173 222 268 321
#     4   9  16  29  47  68  99 140 182 218 259 314
#     4  10  22  38  55  73 100 140 180 221 264 322
#     4   9  18  31  46  66  99 144 183 218 260 317
#     4  10  20  35  53  75 104 138 176 213 258 321
#     4  11  20  30  48  79 105 140 169 210 266 309
#
# _framework density 18.036004999999999
#
# number of rings (size 3 to 8) (size 9 to 14) (size 15 to 20)
#    0.000    1.833    3.333    3.500    2.333    3.333 
#    0.000    0.000    0.000    0.000    0.000    1.167 
#    0.000    9.333    0.000    0.000    0.000    0.000 
#
# Total GULP energy -594648.315361 kJ/mol
# GULP energy per Si atom -12388.506570 kJ/mol
# Density = 1.799495 g / cm^3
# Si number density = 18.036005 Si / 1000 Ang^3
#
#
#
# Elastic Constant Matrix: (Units=GPa)
#
#
# Indices 1 2 3 4 5 6 
#
# 1 80.1709 28.7368 25.5390 0.0000 0.0000 0.0000
# 2 28.7368 90.8175 45.5762 0.0000 0.0000 0.0000
# 3 25.5390 45.5762 101.4783 0.0000 0.0000 0.0000
# 4 0.0000 0.0000 0.0000 25.7117 0.0000 0.0000
# 5 0.0000 0.0000 0.0000 0.0000 18.5208 0.0000
# 6 0.0000 0.0000 0.0000 0.0000 0.0000 17.9248
#
#
#
# Elastic Compliance Matrix: (Units=1/GPa)
#
#
# Indices 1 2 3 4 5 6 
#
# 1 0.014387 -0.003531 -0.002035 0.000000 0.000000 0.000000
# 2 -0.003531 0.015082 -0.005885 0.000000 0.000000 0.000000
# 3 -0.002035 -0.005885 0.013009 0.000000 0.000000 0.000000
# 4 0.000000 0.000000 0.000000 0.038893 0.000000 0.000000
# 5 0.000000 0.000000 0.000000 0.000000 0.053993 0.000000
# 6 0.000000 0.000000 0.000000 0.000000 0.000000 0.055789
#
#
# Mechanical properties :
#
#
# Convention : Reuss Voigt Hill
#
# Bulk Modulus (GPa) = 51.08158 52.46343 51.77251
# Shear Modulus (GPa) = 22.66742 23.93911 23.30326
#
# Velocity S-wave (km/s) = 3.54897 3.64716 3.59840
# Velocity P-wave (km/s) = 6.72139 6.84741 6.78469
#
# Compressibility (1/GPa) = 0.01957653
#
# Stress axis : x y z
#
# Youngs Moduli (GPa) = 69.50542 66.30531 76.86719
#
# Poissons Ratio (x) = 0.23414 0.15642
# Poissons Ratio (y) = 0.24545 0.45235
# Poissons Ratio (z) = 0.14143 0.39020
#
# Static dielectric constant tensor:
#      x y z
#    x 3.035160 0.000000 0.000000 
#    y 0.000000 3.474750 0.000000 
#    z 0.000000 0.000000 3.694080 
# 
# 
# High freq. dielectric constant tensor:
#      x y z
#    x 1.647090 0.000000 0.000000 
#    y 0.000000 1.684120 0.000000 
#    z 0.000000 0.000000 1.715740 
# 
# From -- ./inp_files/38995.got.cif
#   From: 2010.03.12/outbox.cif.g09.slc.cpg/sg66_20_cif.got.tgz:38995.got - 2010.04.10 21:57:39.
