data_PCOD8276691
_publ_section_title
;
Structure prediction by ZEFSAII (Michael W. Deem and Ramdas Pophale) SiO2 
 PCOD8276691
Probable space group: C C C M
;
_chemical_formula_sum "Si O2"
_cell_formula_units_Z 96
_cell_length_a 15.539474
_cell_length_b 18.805941
_cell_length_c 14.173866
_cell_angle_alpha 90.000000
_cell_angle_beta 90.000000
_cell_angle_gamma 90.000000
_cell_volume 4142.091669
_symmetry_space_group_name_H-M "C C C M"
_symmetry_group_IT_number 66
_symmetry_cell_setting 'orthorhombic'
loop_
_space_group_symop_operation_xyz
x,y,z
-x,-y,z
x,-y,1/2-z
-x,y,1/2-z
-x,-y,-z
x,y,-z
-x,y,1/2+z
x,-y,1/2+z
1/2+x,1/2+y,z
1/2-x,1/2-y,z
1/2+x,1/2-y,1/2-z
1/2-x,1/2+y,1/2-z
1/2-x,1/2-y,-z
1/2+x,1/2+y,-z
1/2-x,1/2+y,1/2+z
1/2+x,1/2-y,1/2+z
loop_
_atom_site_type_symbol
_atom_site_label
_atom_site_fract_x
_atom_site_fract_y
_atom_site_fract_z
Si Si1 0.124571 0.304367 0.604235
Si Si2 0.580717 0.960332 0.392061
Si Si3 0.462320 0.715357 0.393291
Si Si4 0.180527 0.697231 0.302937
Si Si5 0.430439 0.443885 0.887917
Si Si6 0.236366 0.449697 0.111815
O O1 0.169950 0.306921 0.500000
O O2 0.068832 0.376224 0.619394
O O3 0.192913 0.301980 0.688872
O O4 0.062352 0.236388 0.608918
O O5 0.580403 0.984867 0.500000
O O6 0.500000 0.000000 0.341265
O O7 0.674358 0.986042 0.353114
O O8 0.425953 0.719243 0.500000
O O9 0.412958 0.772338 0.328826
O O10 0.452994 0.635676 0.352237
O O11 0.250000 0.750000 0.348640
O O12 0.194418 0.619942 0.343578
O O13 0.500000 0.500000 0.845483
O O14 0.334016 0.463918 0.852605
O O15 0.436254 0.446232 0.000000
O O16 0.238521 0.439607 0.000000
#
# Coordination Sequence:
#
# PCOD8276691 Si02
#       6
#    16  16  16  16  16  16
#     4  10  23  42  61  85 122 171 216 256 309 382
#     4   9  18  36  62  92 125 160 202 252 313 382
#     4  10  20  38  65  95 126 159 207 264 327 388
#     4  12  23  37  61  91 127 161 205 264 320 378
#     4   9  18  35  61  93 126 164 207 256 320 387
#     4  10  20  36  63  99 132 161 203 262 326 386
#
# _framework density 23.176697000000001
#
# number of rings (size 3 to 8) (size 9 to 14) (size 15 to 20)
#    0.000    2.000    1.667    2.000    0.000    4.333 
#    3.000    0.833    0.000    2.000    0.000    0.000 
#    0.000    0.667    0.000    0.000    0.000    0.000 
#
# Total GULP energy -595005.014506 kJ/mol
# GULP energy per Si atom -12395.937802 kJ/mol
# Density = 2.312395 g / cm^3
# Si number density = 23.176697 Si / 1000 Ang^3
#
#
#
# Elastic Constant Matrix: (Units=GPa)
#
#
# Indices 1 2 3 4 5 6 
#
# 1 125.9117 67.6846 3.5863 0.0000 0.0000 0.0000
# 2 67.6846 118.8625 12.3186 0.0000 0.0000 0.0000
# 3 3.5863 12.3186 64.7645 0.0000 0.0000 0.0000
# 4 0.0000 0.0000 0.0000 10.9615 0.0000 0.0000
# 5 0.0000 0.0000 0.0000 0.0000 11.7551 0.0000
# 6 0.0000 0.0000 0.0000 0.0000 0.0000 44.3175
#
#
#
# Elastic Compliance Matrix: (Units=1/GPa)
#
#
# Indices 1 2 3 4 5 6 
#
# 1 0.011470 -0.006596 0.000619 0.000000 0.000000 0.000000
# 2 -0.006596 0.012375 -0.001989 0.000000 0.000000 0.000000
# 3 0.000619 -0.001989 0.015784 0.000000 0.000000 0.000000
# 4 0.000000 0.000000 0.000000 0.091229 0.000000 0.000000
# 5 0.000000 0.000000 0.000000 0.000000 0.085069 0.000000
# 6 0.000000 0.000000 0.000000 0.000000 0.000000 0.022564
#
#
# Mechanical properties :
#
#
# Convention : Reuss Voigt Hill
#
# Bulk Modulus (GPa) = 42.19440 52.96863 47.58151
# Shear Modulus (GPa) = 19.06061 28.47010 23.76535
#
# Velocity S-wave (km/s) = 2.87087 3.50865 3.20566
# Velocity P-wave (km/s) = 5.40687 6.27041 5.85458
#
# Compressibility (1/GPa) = 0.02369983
#
# Stress axis : x y z
#
# Youngs Moduli (GPa) = 87.18459 80.80856 63.35333
#
# Poissons Ratio (x) = 0.53298 -0.03924
# Poissons Ratio (y) = 0.57503 0.12598
# Poissons Ratio (z) = -0.05400 0.16069
#
# Static dielectric constant tensor:
#      x y z
#    x 4.147260 0.000000 0.000000 
#    y 0.000000 4.118850 0.000000 
#    z 0.000000 0.000000 4.063750 
# 
# 
# High freq. dielectric constant tensor:
#      x y z
#    x 1.902460 0.000000 0.000000 
#    y 0.000000 1.916550 0.000000 
#    z 0.000000 0.000000 1.908850 
# 
# From -- ./inp_files/28323.got.cif
#   From: 2010.03.12/outbox.cif.g09.slc.cpg/sg66_15_cif.got.tgz:28323.got - 2010.04.10 21:57:39.
