data_PCOD8276488
_publ_section_title
;
Structure prediction by ZEFSAII (Michael W. Deem and Ramdas Pophale) SiO2 
 PCOD8276488
Probable space group: C C C M
;
_chemical_formula_sum "Si O2"
_cell_formula_units_Z 116
_cell_length_a 27.855964
_cell_length_b 22.452199
_cell_length_c 9.518855
_cell_angle_alpha 90.000000
_cell_angle_beta 90.000000
_cell_angle_gamma 90.000000
_cell_volume 5953.355085
_symmetry_space_group_name_H-M "C C C M"
_symmetry_group_IT_number 66
_symmetry_cell_setting 'orthorhombic'
loop_
_space_group_symop_operation_xyz
x,y,z
-x,-y,z
x,-y,1/2-z
-x,y,1/2-z
-x,-y,-z
x,y,-z
-x,y,1/2+z
x,-y,1/2+z
1/2+x,1/2+y,z
1/2-x,1/2-y,z
1/2+x,1/2-y,1/2-z
1/2-x,1/2+y,1/2-z
1/2-x,1/2-y,-z
1/2+x,1/2+y,-z
1/2-x,1/2+y,1/2+z
1/2+x,1/2-y,1/2+z
loop_
_atom_site_type_symbol
_atom_site_label
_atom_site_fract_x
_atom_site_fract_y
_atom_site_fract_z
Si Si1 0.804080 0.247416 0.659536
Si Si2 0.745855 0.941893 0.333925
Si Si3 0.500000 0.000000 0.750000
Si Si4 0.625625 0.317040 0.838457
Si Si5 0.077789 0.594196 0.840727
Si Si6 0.955211 0.273797 0.162602
Si Si7 0.857260 0.054065 0.841633
Si Si8 0.168194 0.620559 0.663920
O O1 0.803728 0.225303 0.500000
O O2 0.750000 0.250000 0.715822
O O3 0.827053 0.195618 0.750725
O O4 0.835338 0.308039 0.673842
O O5 0.733582 0.946164 0.500000
O O6 0.801965 0.930417 0.308039
O O7 0.715494 0.890977 0.256786
O O8 0.728874 0.000000 0.250000
O O9 0.463708 0.956625 0.834864
O O10 0.585238 0.271850 0.786996
O O11 0.611502 0.386325 0.813610
O O12 0.638511 0.305896 0.000000
O O13 0.056026 0.657973 0.800887
O O14 0.122215 0.585970 0.732353
O O15 0.097907 0.594614 0.000000
O O16 0.000000 0.252252 0.250000
O O17 0.966802 0.265851 0.000000
O O18 0.877563 0.000000 0.750000
O O19 0.862428 0.031942 0.000000
O O20 0.172820 0.600441 0.500000
#
# Coordination Sequence:
#
# PCOD8276488 Si02
#       8
#    16  16   4  16  16  16  16  16
#     4  10  21  35  53  82 118 154 192 236 287 345
#     4  10  20  35  54  77 109 150 193 234 279 335
#     4  12  26  44  64  86 110 144 202 258 306 364
#     4  10  20  36  58  85 113 147 191 236 288 347
#     4  11  24  42  62  83 109 146 190 243 303 352
#     4  10  21  39  62  86 113 146 187 240 295 351
#     4   9  19  35  57  85 116 150 189 232 278 336
#     4  11  23  37  55  80 113 151 191 239 290 344
#
# _framework density 19.484811000000001
#
# number of rings (size 3 to 8) (size 9 to 14) (size 15 to 20)
#    0.000    1.793    2.069    1.862    0.966    4.138 
#    0.000    0.000    0.000    0.414    0.000    2.897 
#    0.000    0.000    0.000    0.000    0.000    0.000 
#
# Total GULP energy -718900.134083 kJ/mol
# GULP energy per Si atom -12394.829898 kJ/mol
# Density = 1.944046 g / cm^3
# Si number density = 19.484811 Si / 1000 Ang^3
#
#
#
# Elastic Constant Matrix: (Units=GPa)
#
#
# Indices 1 2 3 4 5 6 
#
# 1 68.7709 43.5088 36.7124 0.0000 0.0000 0.0000
# 2 43.5088 109.2730 44.7492 0.0000 0.0000 0.0000
# 3 36.7124 44.7492 85.2007 0.0000 0.0000 0.0000
# 4 0.0000 0.0000 0.0000 30.6335 0.0000 0.0000
# 5 0.0000 0.0000 0.0000 0.0000 20.2703 0.0000
# 6 0.0000 0.0000 0.0000 0.0000 0.0000 32.3179
#
#
#
# Elastic Compliance Matrix: (Units=1/GPa)
#
#
# Indices 1 2 3 4 5 6 
#
# 1 0.021688 -0.006126 -0.006128 0.000000 0.000000 0.000000
# 2 -0.006126 0.013389 -0.004393 0.000000 0.000000 0.000000
# 3 -0.006128 -0.004393 0.016685 0.000000 0.000000 0.000000
# 4 0.000000 0.000000 0.000000 0.032644 0.000000 0.000000
# 5 0.000000 0.000000 0.000000 0.000000 0.049333 0.000000
# 6 0.000000 0.000000 0.000000 0.000000 0.000000 0.030943
#
#
# Mechanical properties :
#
#
# Convention : Reuss Voigt Hill
#
# Bulk Modulus (GPa) = 54.14473 57.02062 55.58267
# Shear Modulus (GPa) = 24.49407 25.86261 25.17834
#
# Velocity S-wave (km/s) = 3.54939 3.64719 3.59862
# Velocity P-wave (km/s) = 6.68177 6.86030 6.77162
#
# Compressibility (1/GPa) = 0.01846902
#
# Stress axis : x y z
#
# Youngs Moduli (GPa) = 46.10866 74.68556 59.93569
#
# Poissons Ratio (x) = 0.45752 0.36727
# Poissons Ratio (y) = 0.28246 0.26328
# Poissons Ratio (z) = 0.28254 0.32808
#
# Static dielectric constant tensor:
#      x y z
#    x 3.377110 0.000000 0.000000 
#    y 0.000000 3.621240 0.000000 
#    z 0.000000 0.000000 3.549000 
# 
# 
# High freq. dielectric constant tensor:
#      x y z
#    x 1.736280 0.000000 0.000000 
#    y 0.000000 1.761450 0.000000 
#    z 0.000000 0.000000 1.762810 
# 
# From -- ./inp_files/10599.got.cif
#   From: 2010.03.12/outbox.cif.g09.slc.cpg/sg66_6_cif.got.tgz:10599.got - 2010.04.10 21:57:39.
