data_PCOD8276863
_publ_section_title
;
Structure prediction by ZEFSAII (Michael W. Deem and Ramdas Pophale) SiO2 
 PCOD8276863
Probable space group: C C C M
;
_chemical_formula_sum "Si O2"
_cell_formula_units_Z 36
_cell_length_a 6.331037
_cell_length_b 12.185653
_cell_length_c 14.635747
_cell_angle_alpha 90.000000
_cell_angle_beta 90.000000
_cell_angle_gamma 90.000000
_cell_volume 1129.115975
_symmetry_space_group_name_H-M "C C C M"
_symmetry_group_IT_number 66
_symmetry_cell_setting 'orthorhombic'
loop_
_space_group_symop_operation_xyz
x,y,z
-x,-y,z
x,-y,1/2-z
-x,y,1/2-z
-x,-y,-z
x,y,-z
-x,y,1/2+z
x,-y,1/2+z
1/2+x,1/2+y,z
1/2-x,1/2-y,z
1/2+x,1/2-y,1/2-z
1/2-x,1/2+y,1/2-z
1/2-x,1/2-y,-z
1/2+x,1/2+y,-z
1/2-x,1/2+y,1/2+z
1/2+x,1/2-y,1/2+z
loop_
_atom_site_type_symbol
_atom_site_label
_atom_site_fract_x
_atom_site_fract_y
_atom_site_fract_z
Si Si1 0.953092 0.344450 0.101397
Si Si2 0.441419 0.614297 0.645761
Si Si3 0.000000 0.500000 0.750000
O O1 0.199121 0.356055 0.128538
O O2 0.906608 0.211665 0.104064
O O3 0.850900 0.423556 0.181962
O O4 0.912117 0.390735 0.000000
O O5 0.500000 0.500000 0.595563
O O6 0.500000 0.609461 0.750000
#
# Coordination Sequence:
#
# PCOD8276863 Si02
#       3
#    16  16   4
#     4  11  24  40  65  96 129 171 217 270 328 388
#     4  10  20  40  66  95 127 167 211 263 327 391
#     4  12  22  44  60  86 136 168 218 272 332 386
#
# _framework density 31.883348999999999
#
# number of rings (size 3 to 8) (size 9 to 14) (size 15 to 20)
#    0.000    1.333    2.222    6.000    0.000    3.556 
#    0.000    0.000    0.000    8.000    0.000    0.000 
#    0.000    0.000    0.000    0.000    0.000    0.000 
#
# Total GULP energy -223011.402130 kJ/mol
# GULP energy per Si atom -12389.522341 kJ/mol
# Density = 3.181078 g / cm^3
# Si number density = 31.883349 Si / 1000 Ang^3
#
#
#
# Elastic Constant Matrix: (Units=GPa)
#
#
# Indices 1 2 3 4 5 6 
#
# 1 105.6640 13.9085 26.5058 0.0000 0.0000 0.0000
# 2 13.9085 282.1654 95.8158 0.0000 0.0000 0.0000
# 3 26.5058 95.8158 293.2048 0.0000 0.0000 0.0000
# 4 0.0000 0.0000 0.0000 32.4541 0.0000 0.0000
# 5 0.0000 0.0000 0.0000 0.0000 32.9918 0.0000
# 6 0.0000 0.0000 0.0000 0.0000 0.0000 28.4358
#
#
#
# Elastic Compliance Matrix: (Units=1/GPa)
#
#
# Indices 1 2 3 4 5 6 
#
# 1 0.009694 -0.000203 -0.000810 0.000000 0.000000 0.000000
# 2 -0.000203 0.003991 -0.001286 0.000000 0.000000 0.000000
# 3 -0.000810 -0.001286 0.003904 0.000000 0.000000 0.000000
# 4 0.000000 0.000000 0.000000 0.030813 0.000000 0.000000
# 5 0.000000 0.000000 0.000000 0.000000 0.030311 0.000000
# 6 0.000000 0.000000 0.000000 0.000000 0.000000 0.035167
#
#
# Mechanical properties :
#
#
# Convention : Reuss Voigt Hill
#
# Bulk Modulus (GPa) = 76.97458 105.94381 91.45920
# Shear Modulus (GPa) = 40.71452 55.09662 47.90557
#
# Velocity S-wave (km/s) = 3.57737 4.16151 3.88045
# Velocity P-wave (km/s) = 6.42327 7.50944 6.98749
#
# Compressibility (1/GPa) = 0.01299130
#
# Stress axis : x y z
#
# Youngs Moduli (GPa) = 103.15817 250.58738 256.14842
#
# Poissons Ratio (x) = 0.05081 0.20750
# Poissons Ratio (y) = 0.02092 0.32935
# Poissons Ratio (z) = 0.08357 0.32219
#
# Static dielectric constant tensor:
#      x y z
#    x 7.075260 0.000000 0.000000 
#    y 0.000000 9.786490 0.000000 
#    z 0.000000 0.000000 5.680470 
# 
# 
# High freq. dielectric constant tensor:
#      x y z
#    x 2.390000 0.000000 0.000000 
#    y 0.000000 2.354340 0.000000 
#    z 0.000000 0.000000 2.291440 
# 
# From -- ./inp_files/23014.got.cif
#   From: 2010.03.12/outbox.cif.g09.slc.cpg/sg66_12_cif.got.tgz:23014.got - 2010.04.10 21:57:39.
