data_PCOD8276581
_publ_section_title
;
Structure prediction by ZEFSAII (Michael W. Deem and Ramdas Pophale) SiO2 
 PCOD8276581
Probable space group: C C C M
;
_chemical_formula_sum "Si O2"
_cell_formula_units_Z 120
_cell_length_a 11.670086
_cell_length_b 19.058584
_cell_length_c 24.745666
_cell_angle_alpha 90.000000
_cell_angle_beta 90.000000
_cell_angle_gamma 90.000000
_cell_volume 5503.815081
_symmetry_space_group_name_H-M "C C C M"
_symmetry_group_IT_number 66
_symmetry_cell_setting 'orthorhombic'
loop_
_space_group_symop_operation_xyz
x,y,z
-x,-y,z
x,-y,1/2-z
-x,y,1/2-z
-x,-y,-z
x,y,-z
-x,y,1/2+z
x,-y,1/2+z
1/2+x,1/2+y,z
1/2-x,1/2-y,z
1/2+x,1/2-y,1/2-z
1/2-x,1/2+y,1/2-z
1/2-x,1/2-y,-z
1/2+x,1/2+y,-z
1/2-x,1/2+y,1/2+z
1/2+x,1/2-y,1/2+z
loop_
_atom_site_type_symbol
_atom_site_label
_atom_site_fract_x
_atom_site_fract_y
_atom_site_fract_z
Si Si1 0.876087 0.973662 0.309951
Si Si2 0.750000 0.750000 0.131340
Si Si3 0.481248 0.792494 0.687217
Si Si4 0.023558 0.579503 0.617600
Si Si5 0.758132 0.028013 0.589567
Si Si6 0.195884 0.622628 0.940227
Si Si7 0.614613 0.669645 0.634469
Si Si8 0.100656 0.149201 0.939061
O O1 0.876444 0.888862 0.317626
O O2 0.846059 0.000000 0.250000
O O3 0.782757 0.010227 0.347793
O O4 0.000000 0.000000 0.327600
O O5 0.647203 0.772326 0.170495
O O6 0.799990 0.810049 0.092967
O O7 0.500000 0.783699 0.750000
O O8 0.491961 0.873801 0.671166
O O9 0.579623 0.744604 0.659239
O O10 0.147068 0.578976 0.588956
O O11 0.000000 0.500000 0.635214
O O12 0.937385 0.614418 0.574665
O O13 0.860438 0.068368 0.560051
O O14 0.746447 0.955758 0.557609
O O15 0.263934 0.671780 0.897402
O O16 0.204917 0.656089 0.000000
O O17 0.521159 0.650191 0.589711
O O18 0.087658 0.178378 0.000000
#
# Coordination Sequence:
#
# PCOD8276581 Si02
#       8
#    16   8  16  16  16  16  16  16
#     4  10  20  35  61  92 130 173 210 259 330 383
#     4  10  23  42  60  94 132 158 213 264 314 404
#     4  11  25  44  68  94 127 173 213 268 335 379
#     4  10  23  45  64  92 130 166 220 269 311 388
#     4  10  20  38  60  95 129 160 221 270 310 386
#     4  10  22  41  66  93 129 173 215 266 323 382
#     4  10  23  40  60  96 136 162 220 269 313 401
#     4  11  20  35  61  89 128 170 207 263 327 374
#
# _framework density 21.803056999999999
#
# number of rings (size 3 to 8) (size 9 to 14) (size 15 to 20)
#    0.000    1.733    2.667    1.000    1.867    4.800 
#    7.200    4.000    0.000    0.000    0.000    0.000 
#    0.000    0.000    0.000    0.000    0.000    0.000 
#
# Total GULP energy -743689.562315 kJ/mol
# GULP energy per Si atom -12394.826039 kJ/mol
# Density = 2.175343 g / cm^3
# Si number density = 21.803057 Si / 1000 Ang^3
#
#
#
# Elastic Constant Matrix: (Units=GPa)
#
#
# Indices 1 2 3 4 5 6 
#
# 1 87.0447 23.4661 42.6600 0.0000 0.0000 0.0000
# 2 23.4661 81.6829 41.9480 0.0000 0.0000 0.0000
# 3 42.6600 41.9480 144.2135 0.0000 0.0000 0.0000
# 4 0.0000 0.0000 0.0000 12.8830 0.0000 0.0000
# 5 0.0000 0.0000 0.0000 0.0000 -51.7565 0.0000
# 6 0.0000 0.0000 0.0000 0.0000 0.0000 32.1665
#
#
#
# Elastic Compliance Matrix: (Units=1/GPa)
#
#
# Indices 1 2 3 4 5 6 
#
# 1 0.013762 -0.002190 -0.003434 0.000000 0.000000 0.000000
# 2 -0.002190 0.014741 -0.003640 0.000000 0.000000 0.000000
# 3 -0.003434 -0.003640 0.009009 0.000000 0.000000 0.000000
# 4 0.000000 0.000000 0.000000 0.077622 0.000000 0.000000
# 5 0.000000 0.000000 0.000000 0.000000 -0.019321 0.000000
# 6 0.000000 0.000000 0.000000 0.000000 0.000000 0.031088
#
#
# Mechanical properties :
#
#
# Convention : Reuss Voigt Hill
#
# Bulk Modulus (GPa) = 52.67688 58.78769 55.73228
# Shear Modulus (GPa) = 32.94778 12.31641 22.63210
#
# Velocity S-wave (km/s) = 3.89157 2.37933 3.22533
# Velocity P-wave (km/s) = 6.66373 5.87961 6.28391
#
# Compressibility (1/GPa) = 0.01898366
#
# Stress axis : x y z
#
# Youngs Moduli (GPa) = 72.66571 67.83853 111.00412
#
# Poissons Ratio (x) = 0.14857 0.38117
# Poissons Ratio (y) = 0.15914 0.40404
# Poissons Ratio (z) = 0.24952 0.24693
#
# Static dielectric constant tensor:
#      x y z
#    x 4.182650 0.000000 0.000000 
#    y 0.000000 3.997220 0.000000 
#    z 0.000000 0.000000 3.677660 
# 
# 
# High freq. dielectric constant tensor:
#      x y z
#    x 1.868450 0.000000 0.000000 
#    y 0.000000 1.857950 0.000000 
#    z 0.000000 0.000000 1.843010 
# 
# From -- ./inp_files/57229.got.cif
#   From: 2010.03.12/outbox.cif.g09.slc.cpg/sg66_29_cif.got.tgz:57229.got - 2010.04.10 21:57:39.
