data_PCOD8276319
_publ_section_title
;
Structure prediction by ZEFSAII (Michael W. Deem and Ramdas Pophale) SiO2 
 PCOD8276319
Probable space group: C C C M
;
_chemical_formula_sum "Si O2"
_cell_formula_units_Z 96
_cell_length_a 25.159388
_cell_length_b 24.923068
_cell_length_c 8.680337
_cell_angle_alpha 90.000000
_cell_angle_beta 90.000000
_cell_angle_gamma 90.000000
_cell_volume 5442.997833
_symmetry_space_group_name_H-M "C C C M"
_symmetry_group_IT_number 66
_symmetry_cell_setting 'orthorhombic'
loop_
_space_group_symop_operation_xyz
x,y,z
-x,-y,z
x,-y,1/2-z
-x,y,1/2-z
-x,-y,-z
x,y,-z
-x,y,1/2+z
x,-y,1/2+z
1/2+x,1/2+y,z
1/2-x,1/2-y,z
1/2+x,1/2-y,1/2-z
1/2-x,1/2+y,1/2-z
1/2-x,1/2-y,-z
1/2+x,1/2+y,-z
1/2-x,1/2+y,1/2+z
1/2+x,1/2-y,1/2+z
loop_
_atom_site_type_symbol
_atom_site_label
_atom_site_fract_x
_atom_site_fract_y
_atom_site_fract_z
Si Si1 0.611541 0.948247 0.169621
Si Si2 0.762529 0.331412 0.818082
Si Si3 0.948370 0.638588 0.319869
Si Si4 0.171735 0.240272 0.816834
Si Si5 0.764751 0.446662 0.670566
Si Si6 0.946847 0.754324 0.179259
O O1 0.602567 0.897333 0.280520
O O2 0.673467 0.957528 0.151789
O O3 0.585108 0.000000 0.250000
O O4 0.586111 0.939630 0.000000
O O5 0.812572 0.300876 0.737756
O O6 0.708480 0.301936 0.769983
O O7 0.755917 0.393076 0.769331
O O8 0.770761 0.328033 0.000000
O O9 0.951993 0.650513 0.500000
O O10 0.945201 0.692844 0.225268
O O11 0.000000 0.607693 0.250000
O O12 0.111184 0.223509 0.770492
O O13 0.180216 0.237406 0.000000
O O14 0.739141 0.500000 0.750000
O O15 0.739291 0.439436 0.500000
O O16 0.000000 0.782890 0.250000
O O17 0.953967 0.760350 0.000000
#
# Coordination Sequence:
#
# PCOD8276319 Si02
#       6
#    16  16  16  16  16  16
#     4  10  20  33  47  63  83 110 147 189 234 279
#     4  11  21  32  50  75 101 131 166 204 246 291
#     4  11  21  32  46  62  83 112 148 190 234 279
#     4  10  20  34  51  72 100 133 166 202 246 293
#     4  10  20  34  51  70  95 125 157 195 237 286
#     4  10  20  33  50  70  93 123 157 194 237 284
#
# _framework density 17.637339999999998
#
# number of rings (size 3 to 8) (size 9 to 14) (size 15 to 20)
#    0.000    1.667    0.000    8.000    0.000    9.000 
#    0.000    1.667    0.000    0.000    0.000    0.000 
#    0.000    0.667    0.000    7.000    0.000    3.833 
#
# Total GULP energy -594839.351797 kJ/mol
# GULP energy per Si atom -12392.486496 kJ/mol
# Density = 1.759720 g / cm^3
# Si number density = 17.637340 Si / 1000 Ang^3
#
#
#
# Elastic Constant Matrix: (Units=GPa)
#
#
# Indices 1 2 3 4 5 6 
#
# 1 70.4898 4.9487 42.4507 0.0000 0.0000 0.0000
# 2 4.9487 65.7327 20.2999 0.0000 0.0000 0.0000
# 3 42.4507 20.2999 69.7304 0.0000 0.0000 0.0000
# 4 0.0000 0.0000 0.0000 26.9416 0.0000 0.0000
# 5 0.0000 0.0000 0.0000 0.0000 24.5704 0.0000
# 6 0.0000 0.0000 0.0000 0.0000 0.0000 15.7192
#
#
#
# Elastic Compliance Matrix: (Units=1/GPa)
#
#
# Indices 1 2 3 4 5 6 
#
# 1 0.022868 0.002832 -0.014746 0.000000 0.000000 0.000000
# 2 0.002832 0.017067 -0.006693 0.000000 0.000000 0.000000
# 3 -0.014746 -0.006693 0.025267 0.000000 0.000000 0.000000
# 4 0.000000 0.000000 0.000000 0.037117 0.000000 0.000000
# 5 0.000000 0.000000 0.000000 0.000000 0.040699 0.000000
# 6 0.000000 0.000000 0.000000 0.000000 0.000000 0.063617
#
#
# Mechanical properties :
#
#
# Convention : Reuss Voigt Hill
#
# Bulk Modulus (GPa) = 35.72935 37.92795 36.82865
# Shear Modulus (GPa) = 19.74894 22.66313 21.20603
#
# Velocity S-wave (km/s) = 3.34986 3.58851 3.47124
# Velocity P-wave (km/s) = 5.93833 6.22261 6.08214
#
# Compressibility (1/GPa) = 0.02798819
#
# Stress axis : x y z
#
# Youngs Moduli (GPa) = 43.72869 58.59327 39.57768
#
# Poissons Ratio (x) = -0.16596 0.58363
# Poissons Ratio (y) = -0.12386 0.26489
# Poissons Ratio (z) = 0.64484 0.39216
#
# Static dielectric constant tensor:
#      x y z
#    x 107.686970 0.000000 0.000000 
#    y 0.000000 3.054220 0.000000 
#    z 0.000000 0.000000 3.568630 
# 
# 
# High freq. dielectric constant tensor:
#      x y z
#    x 1.660770 0.000000 0.000000 
#    y 0.000000 1.648390 0.000000 
#    z 0.000000 0.000000 1.704770 
# 
# From -- ./inp_files/7952.got.cif
#   From: 2010.03.12/outbox.cif.g09.slc.cpg/sg66_4_cif.got.tgz:7952.got - 2010.04.10 21:57:39.
