data_PCOD8276159
_publ_section_title
;
Structure prediction by ZEFSAII (Michael W. Deem and Ramdas Pophale) SiO2 
 PCOD8276159
Probable space group: C C C M
;
_chemical_formula_sum "Si O2"
_cell_formula_units_Z 64
_cell_length_a 16.803038
_cell_length_b 10.502188
_cell_length_c 17.133448
_cell_angle_alpha 90.000000
_cell_angle_beta 90.000000
_cell_angle_gamma 90.000000
_cell_volume 3023.516679
_symmetry_space_group_name_H-M "C C C M"
_symmetry_group_IT_number 66
_symmetry_cell_setting 'orthorhombic'
loop_
_space_group_symop_operation_xyz
x,y,z
-x,-y,z
x,-y,1/2-z
-x,y,1/2-z
-x,-y,-z
x,y,-z
-x,y,1/2+z
x,-y,1/2+z
1/2+x,1/2+y,z
1/2-x,1/2-y,z
1/2+x,1/2-y,1/2-z
1/2-x,1/2+y,1/2-z
1/2-x,1/2-y,-z
1/2+x,1/2+y,-z
1/2-x,1/2+y,1/2+z
1/2+x,1/2-y,1/2+z
loop_
_atom_site_type_symbol
_atom_site_label
_atom_site_fract_x
_atom_site_fract_y
_atom_site_fract_z
Si Si1 0.414307 0.938961 0.411287
Si Si2 0.896804 0.962528 0.411734
Si Si3 0.979325 0.193180 0.661014
Si Si4 0.275891 0.116379 0.589081
O O1 0.388080 0.910618 0.500000
O O2 0.421381 0.806143 0.366591
O O3 0.500000 0.000000 0.406129
O O4 0.348744 0.035506 0.372530
O O5 0.923086 0.995187 0.500000
O O6 0.802338 0.969249 0.405997
O O7 0.937382 0.825465 0.387850
O O8 0.928937 0.065034 0.350499
O O9 0.000000 0.217879 0.750000
O O10 0.301100 0.148710 0.500000
O O11 0.250000 0.250000 0.630738
#
# Coordination Sequence:
#
# PCOD8276159 Si02
#       4
#    16  16  16  16
#     4  10  20  36  61  87 113 150 200 251 298 348
#     4  10  19  35  61  87 114 154 204 248 297 353
#     4  11  22  36  57  81 123 158 196 242 300 364
#     4   9  18  33  58  90 118 146 189 252 308 355
#
# _framework density 21.167403
#
# number of rings (size 3 to 8) (size 9 to 14) (size 15 to 20)
#    0.000    2.000    0.000    6.000    0.000    5.500 
#    0.000    3.750   27.500    0.000    0.000    0.000 
#    0.000    0.000    0.000    0.000    0.000    1.000 
#
# Total GULP energy -396485.837355 kJ/mol
# GULP energy per Si atom -12390.182417 kJ/mol
# Density = 2.111922 g / cm^3
# Si number density = 21.167403 Si / 1000 Ang^3
#
#
#
# Elastic Constant Matrix: (Units=GPa)
#
#
# Indices 1 2 3 4 5 6 
#
# 1 150.2180 62.0085 30.8143 0.0000 0.0000 0.0000
# 2 62.0085 139.0230 37.7944 0.0000 0.0000 0.0000
# 3 30.8143 37.7944 63.9221 0.0000 0.0000 0.0000
# 4 0.0000 0.0000 0.0000 20.9194 0.0000 0.0000
# 5 0.0000 0.0000 0.0000 0.0000 6.8946 0.0000
# 6 0.0000 0.0000 0.0000 0.0000 0.0000 48.5020
#
#
#
# Elastic Compliance Matrix: (Units=1/GPa)
#
#
# Indices 1 2 3 4 5 6 
#
# 1 0.008408 -0.003156 -0.002188 0.000000 0.000000 0.000000
# 2 -0.003156 0.009755 -0.004247 0.000000 0.000000 0.000000
# 3 -0.002188 -0.004247 0.019209 0.000000 0.000000 0.000000
# 4 0.000000 0.000000 0.000000 0.047803 0.000000 0.000000
# 5 0.000000 0.000000 0.000000 0.000000 0.145040 0.000000
# 6 0.000000 0.000000 0.000000 0.000000 0.000000 0.020618
#
#
# Mechanical properties :
#
#
# Convention : Reuss Voigt Hill
#
# Bulk Modulus (GPa) = 54.96526 68.26640 61.61583
# Shear Modulus (GPa) = 18.11089 30.09959 24.10524
#
# Velocity S-wave (km/s) = 2.92824 3.77500 3.37826
# Velocity P-wave (km/s) = 6.12014 7.16391 6.66250
#
# Compressibility (1/GPa) = 0.01819331
#
# Stress axis : x y z
#
# Youngs Moduli (GPa) = 118.92937 102.51123 52.05804
#
# Poissons Ratio (x) = 0.32349 0.11388
# Poissons Ratio (y) = 0.37530 0.22106
# Poissons Ratio (z) = 0.26016 0.43531
#
# Static dielectric constant tensor:
#      x y z
#    x 4.107430 0.000000 0.000000 
#    y 0.000000 4.061450 0.000000 
#    z 0.000000 0.000000 3.415030 
# 
# 
# High freq. dielectric constant tensor:
#      x y z
#    x 1.842300 0.000000 0.000000 
#    y 0.000000 1.830040 0.000000 
#    z 0.000000 0.000000 1.784570 
# 
# From -- ./inp_files/29565.got.cif
#   From: 2010.03.12/outbox.cif.g09.slc.cpg/sg66_15_cif.got.tgz:29565.got - 2010.04.10 21:57:39.
