data_PCOD8276459
_publ_section_title
;
Structure prediction by ZEFSAII (Michael W. Deem and Ramdas Pophale) SiO2 
 PCOD8276459
Probable space group: C C C M
;
_chemical_formula_sum "Si O2"
_cell_formula_units_Z 64
_cell_length_a 16.273045
_cell_length_b 8.210378
_cell_length_c 24.223908
_cell_angle_alpha 90.000000
_cell_angle_beta 90.000000
_cell_angle_gamma 90.000000
_cell_volume 3236.504282
_symmetry_space_group_name_H-M "C C C M"
_symmetry_group_IT_number 66
_symmetry_cell_setting 'orthorhombic'
loop_
_space_group_symop_operation_xyz
x,y,z
-x,-y,z
x,-y,1/2-z
-x,y,1/2-z
-x,-y,-z
x,y,-z
-x,y,1/2+z
x,-y,1/2+z
1/2+x,1/2+y,z
1/2-x,1/2-y,z
1/2+x,1/2-y,1/2-z
1/2-x,1/2+y,1/2-z
1/2-x,1/2-y,-z
1/2+x,1/2+y,-z
1/2-x,1/2+y,1/2+z
1/2+x,1/2-y,1/2+z
loop_
_atom_site_type_symbol
_atom_site_label
_atom_site_fract_x
_atom_site_fract_y
_atom_site_fract_z
Si Si1 0.923164 0.370638 0.500000
Si Si2 0.340305 0.179388 0.500000
Si Si3 0.926326 0.880432 0.098323
Si Si4 0.342768 0.691551 0.885915
Si Si5 0.512953 0.812217 0.313919
O O1 0.841751 0.483253 0.500000
O O2 0.916525 0.257455 0.447102
O O3 0.000000 0.500000 0.500000
O O4 0.250000 0.250000 0.500000
O O5 0.382967 0.240727 0.556648
O O6 0.943494 0.792377 0.155998
O O7 0.845881 0.994109 0.108376
O O8 0.000000 0.000000 0.080918
O O9 0.250000 0.750000 0.876734
O O10 0.396856 0.756614 0.834828
O O11 0.500000 0.775122 0.250000
O O12 0.500000 0.000000 0.328033
#
# Coordination Sequence:
#
# PCOD8276459 Si02
#       5
#     8   8  16  16  16
#     4  12  20  33  60  88 116 156 205 241 283 350
#     4  10  21  37  55  82 123 154 182 235 294 342
#     4  10  20  34  58  87 116 151 197 245 294 347
#     4  10  21  39  59  84 120 155 193 243 296 351
#     4  10  21  39  59  83 116 153 195 245 293 345
#
# _framework density 19.774422999999999
#
# number of rings (size 3 to 8) (size 9 to 14) (size 15 to 20)
#    0.000    1.750    0.000    6.375    0.000    4.500 
#    0.000   21.250    0.000    0.000    0.000    0.000 
#    0.000    0.000    0.000    0.000    0.000    0.000 
#
# Total GULP energy -396563.735271 kJ/mol
# GULP energy per Si atom -12392.616727 kJ/mol
# Density = 1.972942 g / cm^3
# Si number density = 19.774423 Si / 1000 Ang^3
#
#
#
# Elastic Constant Matrix: (Units=GPa)
#
#
# Indices 1 2 3 4 5 6 
#
# 1 96.4897 71.1429 63.2509 0.0000 0.0000 0.0000
# 2 71.1429 191.8502 86.9204 0.0000 0.0000 0.0000
# 3 63.2509 86.9204 140.4858 0.0000 0.0000 0.0000
# 4 0.0000 0.0000 0.0000 70.0440 0.0000 0.0000
# 5 0.0000 0.0000 0.0000 0.0000 24.3241 0.0000
# 6 0.0000 0.0000 0.0000 0.0000 0.0000 42.2068
#
#
#
# Elastic Compliance Matrix: (Units=1/GPa)
#
#
# Indices 1 2 3 4 5 6 
#
# 1 0.016504 -0.003826 -0.005063 0.000000 0.000000 0.000000
# 2 -0.003826 0.008130 -0.003307 0.000000 0.000000 0.000000
# 3 -0.005063 -0.003307 0.011444 0.000000 0.000000 0.000000
# 4 0.000000 0.000000 0.000000 0.014277 0.000000 0.000000
# 5 0.000000 0.000000 0.000000 0.000000 0.041112 0.000000
# 6 0.000000 0.000000 0.000000 0.000000 0.000000 0.023693
#
#
# Mechanical properties :
#
#
# Convention : Reuss Voigt Hill
#
# Bulk Modulus (GPa) = 85.58525 96.82823 91.20674
# Shear Modulus (GPa) = 34.85614 41.14908 38.00261
#
# Velocity S-wave (km/s) = 4.20299 4.56666 4.38860
# Velocity P-wave (km/s) = 8.18097 8.76804 8.47959
#
# Compressibility (1/GPa) = 0.01168426
#
# Stress axis : x y z
#
# Youngs Moduli (GPa) = 60.59181 123.00705 87.38144
#
# Poissons Ratio (x) = 0.47063 0.44244
# Poissons Ratio (y) = 0.23183 0.28900
# Poissons Ratio (z) = 0.30680 0.40682
#
# Static dielectric constant tensor:
#      x y z
#    x 3.397980 0.000000 0.000000 
#    y 0.000000 4.303720 0.000000 
#    z 0.000000 0.000000 3.826800 
# 
# 
# High freq. dielectric constant tensor:
#      x y z
#    x 1.745230 0.000000 0.000000 
#    y 0.000000 1.796420 0.000000 
#    z 0.000000 0.000000 1.774450 
# 
# From -- ./inp_files/50535.got.cif
#   From: 2010.03.12/outbox.cif.g09.slc.cpg/sg66_26_cif.got.tgz:50535.got - 2010.04.10 21:57:39.
