data_PCOD8276495
_publ_section_title
;
Structure prediction by ZEFSAII (Michael W. Deem and Ramdas Pophale) SiO2 
 PCOD8276495
Probable space group: C C C M
;
_chemical_formula_sum "Si O2"
_cell_formula_units_Z 64
_cell_length_a 28.055138
_cell_length_b 14.349063
_cell_length_c 8.853635
_cell_angle_alpha 90.000000
_cell_angle_beta 90.000000
_cell_angle_gamma 90.000000
_cell_volume 3564.163066
_symmetry_space_group_name_H-M "C C C M"
_symmetry_group_IT_number 66
_symmetry_cell_setting 'orthorhombic'
loop_
_space_group_symop_operation_xyz
x,y,z
-x,-y,z
x,-y,1/2-z
-x,y,1/2-z
-x,-y,-z
x,y,-z
-x,y,1/2+z
x,-y,1/2+z
1/2+x,1/2+y,z
1/2-x,1/2-y,z
1/2+x,1/2-y,1/2-z
1/2-x,1/2+y,1/2-z
1/2-x,1/2-y,-z
1/2+x,1/2+y,-z
1/2-x,1/2+y,1/2+z
1/2+x,1/2-y,1/2+z
loop_
_atom_site_type_symbol
_atom_site_label
_atom_site_fract_x
_atom_site_fract_y
_atom_site_fract_z
Si Si1 0.235453 0.143985 0.165377
Si Si2 0.950496 0.098471 0.321108
Si Si3 0.139033 0.780081 0.677463
Si Si4 0.672804 0.906884 0.676824
O O1 0.250000 0.250000 0.146935
O O2 0.180613 0.145571 0.223941
O O3 0.270697 0.094841 0.283157
O O4 0.239835 0.095055 0.000000
O O5 0.955781 0.086453 0.500000
O O6 0.911201 0.175088 0.277854
O O7 0.000000 0.133710 0.250000
O O8 0.935449 0.000000 0.250000
O O9 0.143158 0.759285 0.500000
O O10 0.144383 0.682457 0.762926
O O11 0.666260 0.911544 0.500000
O O12 0.650234 0.000000 0.750000
#
# Coordination Sequence:
#
# PCOD8276495 Si02
#       4
#    16  16  16  16
#     4   8  15  30  48  67  96 130 164 203 245 287
#     4  10  20  35  55  78 104 131 163 205 253 304
#     4   9  19  35  53  74 102 135 169 209 254 298
#     4  11  21  32  49  73 103 138 174 210 248 295
#
# _framework density 17.956527999999999
#
# number of rings (size 3 to 8) (size 9 to 14) (size 15 to 20)
#    0.000    2.500    0.000    5.250    0.000    7.500 
#    0.000    2.500    0.000    0.750    0.000    5.250 
#    0.000    0.000    0.000    0.000    0.000    0.000 
#
# Total GULP energy -396647.588947 kJ/mol
# GULP energy per Si atom -12395.237155 kJ/mol
# Density = 1.791566 g / cm^3
# Si number density = 17.956528 Si / 1000 Ang^3
#
#
#
# Elastic Constant Matrix: (Units=GPa)
#
#
# Indices 1 2 3 4 5 6 
#
# 1 122.8868 65.1257 55.8829 0.0000 0.0000 0.0000
# 2 65.1257 100.0472 60.4582 0.0000 0.0000 0.0000
# 3 55.8829 60.4582 112.0327 0.0000 0.0000 0.0000
# 4 0.0000 0.0000 0.0000 22.9643 0.0000 0.0000
# 5 0.0000 0.0000 0.0000 0.0000 19.5969 0.0000
# 6 0.0000 0.0000 0.0000 0.0000 0.0000 21.9110
#
#
#
# Elastic Compliance Matrix: (Units=1/GPa)
#
#
# Indices 1 2 3 4 5 6 
#
# 1 0.013008 -0.006747 -0.002848 0.000000 0.000000 0.000000
# 2 -0.006747 0.018331 -0.006527 0.000000 0.000000 0.000000
# 3 -0.002848 -0.006527 0.013869 0.000000 0.000000 0.000000
# 4 0.000000 0.000000 0.000000 0.043546 0.000000 0.000000
# 5 0.000000 0.000000 0.000000 0.000000 0.051028 0.000000
# 6 0.000000 0.000000 0.000000 0.000000 0.000000 0.045639
#
#
# Mechanical properties :
#
#
# Convention : Reuss Voigt Hill
#
# Bulk Modulus (GPa) = 77.13022 77.54447 77.33735
# Shear Modulus (GPa) = 22.52386 23.12776 22.82581
#
# Velocity S-wave (km/s) = 3.54553 3.59275 3.56922
# Velocity P-wave (km/s) = 7.73357 7.77745 7.75554
#
# Compressibility (1/GPa) = 0.01296509
#
# Stress axis : x y z
#
# Youngs Moduli (GPa) = 76.87500 54.55105 72.10445
#
# Poissons Ratio (x) = 0.36805 0.20533
# Poissons Ratio (y) = 0.51866 0.47064
# Poissons Ratio (z) = 0.21891 0.35606
#
# Static dielectric constant tensor:
#      x y z
#    x 3.558480 0.000000 0.000000 
#    y 0.000000 3.260110 0.000000 
#    z 0.000000 0.000000 3.286510 
# 
# 
# High freq. dielectric constant tensor:
#      x y z
#    x 1.678740 0.000000 0.000000 
#    y 0.000000 1.685530 0.000000 
#    z 0.000000 0.000000 1.698500 
# 
# From -- ./inp_files/5090.got.cif
#   From: 2010.03.12/outbox.cif.g09.slc.cpg/sg66_3_cif.got.tgz:5090.got - 2010.04.10 21:57:39.
