data_PCOD8276669
_publ_section_title
;
Structure prediction by ZEFSAII (Michael W. Deem and Ramdas Pophale) SiO2 
 PCOD8276669
Probable space group: C C C M
;
_chemical_formula_sum "Si O2"
_cell_formula_units_Z 88
_cell_length_a 23.521148
_cell_length_b 20.284381
_cell_length_c 9.081637
_cell_angle_alpha 90.000000
_cell_angle_beta 90.000000
_cell_angle_gamma 90.000000
_cell_volume 4332.957335
_symmetry_space_group_name_H-M "C C C M"
_symmetry_group_IT_number 66
_symmetry_cell_setting 'orthorhombic'
loop_
_space_group_symop_operation_xyz
x,y,z
-x,-y,z
x,-y,1/2-z
-x,y,1/2-z
-x,-y,-z
x,y,-z
-x,y,1/2+z
x,-y,1/2+z
1/2+x,1/2+y,z
1/2-x,1/2-y,z
1/2+x,1/2-y,1/2-z
1/2-x,1/2+y,1/2-z
1/2-x,1/2-y,-z
1/2+x,1/2+y,-z
1/2-x,1/2+y,1/2+z
1/2+x,1/2-y,1/2+z
loop_
_atom_site_type_symbol
_atom_site_label
_atom_site_fract_x
_atom_site_fract_y
_atom_site_fract_z
Si Si1 0.652427 0.358155 0.828670
Si Si2 0.945097 0.070045 0.674729
Si Si3 0.645927 0.000000 0.750000
Si Si4 0.368279 0.204985 0.671369
Si Si5 0.775283 0.611155 0.662823
Si Si6 0.056582 0.608100 0.333095
O O1 0.608762 0.387109 0.713302
O O2 0.645909 0.280577 0.805260
O O3 0.712244 0.388070 0.767316
O O4 0.640493 0.377539 0.000000
O O5 0.953018 0.063407 0.500000
O O6 0.000000 0.104364 0.750000
O O7 0.936537 0.000000 0.750000
O O8 0.690727 0.041791 0.847953
O O9 0.605073 0.051083 0.665147
O O10 0.377771 0.187323 0.500000
O O11 0.314729 0.165556 0.740703
O O12 0.423082 0.176746 0.757882
O O13 0.762973 0.637520 0.500000
O O14 0.040064 0.623934 0.500000
O O15 0.000000 0.582548 0.250000
#
# Coordination Sequence:
#
# PCOD8276669 Si02
#       6
#    16  16   8  16  16  16
#     4  10  20  36  61  90 118 153 194 236 286 347
#     4  11  23  41  62  85 114 148 187 235 290 345
#     4  10  21  36  56  86 121 158 194 240 298 344
#     4   9  19  37  59  84 117 156 196 239 288 342
#     4   9  18  34  57  84 117 156 196 234 281 344
#     4  11  23  38  59  85 117 156 201 249 298 351
#
# _framework density 20.309455
#
# number of rings (size 3 to 8) (size 9 to 14) (size 15 to 20)
#    0.000    2.000    0.000    4.091    1.273    6.545 
#    0.000    3.636    0.000    5.455    0.000    0.000 
#    0.000    0.000    0.000    0.000    0.000    0.000 
#
# Total GULP energy -545115.178757 kJ/mol
# GULP energy per Si atom -12388.981335 kJ/mol
# Density = 2.026323 g / cm^3
# Si number density = 20.309455 Si / 1000 Ang^3
#
#
#
# Elastic Constant Matrix: (Units=GPa)
#
#
# Indices 1 2 3 4 5 6 
#
# 1 154.1230 65.9400 54.7288 0.0000 0.0000 0.0000
# 2 65.9400 77.9657 37.8657 0.0000 0.0000 0.0000
# 3 54.7288 37.8657 118.1946 0.0000 0.0000 0.0000
# 4 0.0000 0.0000 0.0000 21.3344 0.0000 0.0000
# 5 0.0000 0.0000 0.0000 0.0000 26.2060 0.0000
# 6 0.0000 0.0000 0.0000 0.0000 0.0000 30.3272
#
#
#
# Elastic Compliance Matrix: (Units=1/GPa)
#
#
# Indices 1 2 3 4 5 6 
#
# 1 0.010731 -0.007890 -0.002441 0.000000 0.000000 0.000000
# 2 -0.007890 0.020991 -0.003071 0.000000 0.000000 0.000000
# 3 -0.002441 -0.003071 0.010575 0.000000 0.000000 0.000000
# 4 0.000000 0.000000 0.000000 0.046873 0.000000 0.000000
# 5 0.000000 0.000000 0.000000 0.000000 0.038159 0.000000
# 6 0.000000 0.000000 0.000000 0.000000 0.000000 0.032974
#
#
# Mechanical properties :
#
#
# Convention : Reuss Voigt Hill
#
# Bulk Modulus (GPa) = 64.55127 74.15025 69.35076
# Shear Modulus (GPa) = 26.00494 28.35679 27.18086
#
# Velocity S-wave (km/s) = 3.58220 3.74068 3.66230
# Velocity P-wave (km/s) = 6.99731 7.43279 7.21834
#
# Compressibility (1/GPa) = 0.01549156
#
# Stress axis : x y z
#
# Youngs Moduli (GPa) = 93.18926 47.63963 94.56356
#
# Poissons Ratio (x) = 0.37588 0.23084
# Poissons Ratio (y) = 0.73527 0.29044
# Poissons Ratio (z) = 0.22748 0.14632
#
# Static dielectric constant tensor:
#      x y z
#    x 4.108920 0.000000 0.000000 
#    y 0.000000 3.644240 0.000000 
#    z 0.000000 0.000000 3.525740 
# 
# 
# High freq. dielectric constant tensor:
#      x y z
#    x 1.810670 0.000000 0.000000 
#    y 0.000000 1.788400 0.000000 
#    z 0.000000 0.000000 1.769560 
# 
# From -- ./inp_files/8997.got.cif
#   From: 2010.03.12/outbox.cif.g09.slc.cpg/sg66_5_cif.got.tgz:8997.got - 2010.04.10 21:57:39.
