data_PCOD8276400
_publ_section_title
;
Structure prediction by ZEFSAII (Michael W. Deem and Ramdas Pophale) SiO2 
 PCOD8276400
Probable space group: C C C M
;
_chemical_formula_sum "Si O2"
_cell_formula_units_Z 96
_cell_length_a 19.934533
_cell_length_b 28.492947
_cell_length_c 9.255341
_cell_angle_alpha 90.000000
_cell_angle_beta 90.000000
_cell_angle_gamma 90.000000
_cell_volume 5256.974382
_symmetry_space_group_name_H-M "C C C M"
_symmetry_group_IT_number 66
_symmetry_cell_setting 'orthorhombic'
loop_
_space_group_symop_operation_xyz
x,y,z
-x,-y,z
x,-y,1/2-z
-x,y,1/2-z
-x,-y,-z
x,y,-z
-x,y,1/2+z
x,-y,1/2+z
1/2+x,1/2+y,z
1/2-x,1/2-y,z
1/2+x,1/2-y,1/2-z
1/2-x,1/2+y,1/2-z
1/2-x,1/2-y,-z
1/2+x,1/2+y,-z
1/2-x,1/2+y,1/2+z
1/2+x,1/2-y,1/2+z
loop_
_atom_site_type_symbol
_atom_site_label
_atom_site_fract_x
_atom_site_fract_y
_atom_site_fract_z
Si Si1 0.346632 0.707865 0.833846
Si Si2 0.194151 0.601311 0.338207
Si Si3 0.441970 0.047881 0.164025
Si Si4 0.674554 0.549099 0.169601
Si Si5 0.309428 0.190677 0.664535
Si Si6 0.429807 0.630626 0.670167
O O1 0.350805 0.762791 0.788921
O O2 0.269743 0.694637 0.813394
O O3 0.392613 0.676846 0.729843
O O4 0.369226 0.700364 0.000000
O O5 0.214568 0.615922 0.500000
O O6 0.131548 0.567912 0.332249
O O7 0.258293 0.574599 0.269031
O O8 0.167638 0.647237 0.258560
O O9 0.500000 0.077757 0.250000
O O10 0.436138 0.000000 0.250000
O O11 0.465904 0.040905 0.000000
O O12 0.662191 0.500000 0.250000
O O13 0.612710 0.583752 0.201908
O O14 0.681915 0.538266 0.000000
O O15 0.326458 0.179583 0.500000
O O16 0.500000 0.624150 0.750000
O O17 0.441282 0.637804 0.500000
#
# Coordination Sequence:
#
# PCOD8276400 Si02
#       6
#    16  16  16  16  16  16
#     4   9  18  35  56  83 112 141 180 221 269 328
#     4  10  20  35  54  82 114 144 183 229 274 328
#     4  10  20  34  53  75 105 142 181 223 266 324
#     4  10  22  38  56  81 111 144 188 237 285 335
#     4   9  18  32  56  85 112 140 175 222 270 324
#     4  11  23  39  59  82 112 150 191 236 286 340
#
# _framework density 18.261455000000002
#
# number of rings (size 3 to 8) (size 9 to 14) (size 15 to 20)
#    0.000    2.167    1.667    3.000    0.000    4.333 
#    0.000    4.167    0.000    2.000    0.000    0.000 
#    0.000    0.000    0.000    0.000    0.000    0.000 
#
# Total GULP energy -594899.359646 kJ/mol
# GULP energy per Si atom -12393.736659 kJ/mol
# Density = 1.821989 g / cm^3
# Si number density = 18.261455 Si / 1000 Ang^3
#
#
#
# Elastic Constant Matrix: (Units=GPa)
#
#
# Indices 1 2 3 4 5 6 
#
# 1 94.6601 51.0525 55.3816 0.0000 0.0000 0.0000
# 2 51.0525 123.0752 68.8798 0.0000 0.0000 0.0000
# 3 55.3816 68.8798 109.3683 0.0000 0.0000 0.0000
# 4 0.0000 0.0000 0.0000 26.7970 0.0000 0.0000
# 5 0.0000 0.0000 0.0000 0.0000 52.2538 0.0000
# 6 0.0000 0.0000 0.0000 0.0000 0.0000 26.2736
#
#
#
# Elastic Compliance Matrix: (Units=1/GPa)
#
#
# Indices 1 2 3 4 5 6 
#
# 1 0.015789 -0.003204 -0.005977 0.000000 0.000000 0.000000
# 2 -0.003204 0.013198 -0.006690 0.000000 0.000000 0.000000
# 3 -0.005977 -0.006690 0.016383 0.000000 0.000000 0.000000
# 4 0.000000 0.000000 0.000000 0.037318 0.000000 0.000000
# 5 0.000000 0.000000 0.000000 0.000000 0.019137 0.000000
# 6 0.000000 0.000000 0.000000 0.000000 0.000000 0.038061
#
#
# Mechanical properties :
#
#
# Convention : Reuss Voigt Hill
#
# Bulk Modulus (GPa) = 73.37619 75.30349 74.33984
# Shear Modulus (GPa) = 28.38137 31.18419 29.78278
#
# Velocity S-wave (km/s) = 3.94657 4.13686 4.04283
# Velocity P-wave (km/s) = 7.81251 8.00899 7.91136
#
# Compressibility (1/GPa) = 0.01362840
#
# Stress axis : x y z
#
# Youngs Moduli (GPa) = 63.33386 75.76831 61.03792
#
# Poissons Ratio (x) = 0.24278 0.36484
# Poissons Ratio (y) = 0.20294 0.40832
# Poissons Ratio (z) = 0.37857 0.50686
#
# Static dielectric constant tensor:
#      x y z
#    x 1.283720 0.000000 0.000000 
#    y 0.000000 2.809220 0.000000 
#    z 0.000000 0.000000 3.542060 
# 
# 
# High freq. dielectric constant tensor:
#      x y z
#    x 1.705000 0.000000 0.000000 
#    y 0.000000 1.706600 0.000000 
#    z 0.000000 0.000000 1.710170 
# 
# From -- ./inp_files/8020.got.cif
#   From: 2010.03.12/outbox.cif.g09.slc.cpg/sg66_5_cif.got.tgz:8020.got - 2010.04.10 21:57:39.
