data_PCOD8276365
_publ_section_title
;
Structure prediction by ZEFSAII (Michael W. Deem and Ramdas Pophale) SiO2 
 PCOD8276365
Probable space group: C C C M
;
_chemical_formula_sum "Si O2"
_cell_formula_units_Z 96
_cell_length_a 17.934026
_cell_length_b 11.301578
_cell_length_c 25.079813
_cell_angle_alpha 90.000000
_cell_angle_beta 90.000000
_cell_angle_gamma 90.000000
_cell_volume 5083.246564
_symmetry_space_group_name_H-M "C C C M"
_symmetry_group_IT_number 66
_symmetry_cell_setting 'orthorhombic'
loop_
_space_group_symop_operation_xyz
x,y,z
-x,-y,z
x,-y,1/2-z
-x,y,1/2-z
-x,-y,-z
x,y,-z
-x,y,1/2+z
x,-y,1/2+z
1/2+x,1/2+y,z
1/2-x,1/2-y,z
1/2+x,1/2-y,1/2-z
1/2-x,1/2+y,1/2-z
1/2-x,1/2-y,-z
1/2+x,1/2+y,-z
1/2-x,1/2+y,1/2+z
1/2+x,1/2-y,1/2+z
loop_
_atom_site_type_symbol
_atom_site_label
_atom_site_fract_x
_atom_site_fract_y
_atom_site_fract_z
Si Si1 0.992550 0.811690 0.189344
Si Si2 0.881942 0.481503 0.939879
Si Si3 0.812037 0.853376 0.500000
Si Si4 0.624484 0.506625 0.689517
Si Si5 0.484017 0.639195 0.000000
Si Si6 0.482561 0.816168 0.585198
Si Si7 0.258691 0.609903 0.110577
O O1 0.000000 0.764343 0.250000
O O2 0.915242 0.881180 0.177619
O O3 0.994339 0.703030 0.148344
O O4 0.063535 0.893418 0.178598
O O5 0.905832 0.614601 0.925335
O O6 0.823813 0.441969 0.894886
O O7 0.951153 0.393591 0.938260
O O8 0.847939 0.476661 0.000000
O O9 0.750000 0.750000 0.500000
O O10 0.898320 0.817211 0.500000
O O11 0.800914 0.921884 0.444655
O O12 0.652275 0.500000 0.750000
O O13 0.697500 0.536572 0.655327
O O14 0.500000 0.500000 0.000000
O O15 0.521541 0.692182 0.946583
O O16 0.250000 0.750000 0.123353
#
# Coordination Sequence:
#
# PCOD8276365 Si02
#       7
#    16  16   8  16   8  16  16
#     4   9  19  37  61  84 114 150 192 242 294 353
#     4  11  21  40  58  82 119 162 196 236 298 365
#     4  10  20  33  54  84 118 150 195 241 291 350
#     4   9  19  37  59  85 113 151 194 240 297 345
#     4  12  24  32  58  96 117 145 203 262 290 345
#     4  11  21  38  60  85 117 153 197 243 303 349
#     4  11  21  35  59  86 115 153 204 245 287 353
#
# _framework density 18.885567999999999
#
# number of rings (size 3 to 8) (size 9 to 14) (size 15 to 20)
#    0.000    1.667    2.500    5.500    4.667    0.000 
#    0.000    7.500    0.000    2.000    0.000    0.000 
#    0.000    0.000    0.000    0.000    0.000    0.000 
#
# Total GULP energy -594926.740337 kJ/mol
# GULP energy per Si atom -12394.307090 kJ/mol
# Density = 1.884258 g / cm^3
# Si number density = 18.885568 Si / 1000 Ang^3
#
#
#
# Elastic Constant Matrix: (Units=GPa)
#
#
# Indices 1 2 3 4 5 6 
#
# 1 100.5579 40.3883 41.4555 0.0000 0.0000 0.0000
# 2 40.3883 94.4578 49.1753 0.0000 0.0000 0.0000
# 3 41.4555 49.1753 125.3448 0.0000 0.0000 0.0000
# 4 0.0000 0.0000 0.0000 32.8663 0.0000 0.0000
# 5 0.0000 0.0000 0.0000 0.0000 33.7357 0.0000
# 6 0.0000 0.0000 0.0000 0.0000 0.0000 21.1328
#
#
#
# Elastic Compliance Matrix: (Units=1/GPa)
#
#
# Indices 1 2 3 4 5 6 
#
# 1 0.012642 -0.004057 -0.002589 0.000000 0.000000 0.000000
# 2 -0.004057 0.014606 -0.004388 0.000000 0.000000 0.000000
# 3 -0.002589 -0.004388 0.010556 0.000000 0.000000 0.000000
# 4 0.000000 0.000000 0.000000 0.030426 0.000000 0.000000
# 5 0.000000 0.000000 0.000000 0.000000 0.029642 0.000000
# 6 0.000000 0.000000 0.000000 0.000000 0.000000 0.047320
#
#
# Mechanical properties :
#
#
# Convention : Reuss Voigt Hill
#
# Bulk Modulus (GPa) = 63.55721 64.71096 64.13408
# Shear Modulus (GPa) = 28.98441 30.16971 29.57706
#
# Velocity S-wave (km/s) = 3.92182 4.00121 3.96172
# Velocity P-wave (km/s) = 7.36441 7.46227 7.41350
#
# Compressibility (1/GPa) = 0.01573386
#
# Stress axis : x y z
#
# Youngs Moduli (GPa) = 79.10444 68.46403 94.73289
#
# Poissons Ratio (x) = 0.27778 0.24528
# Poissons Ratio (y) = 0.32095 0.41573
# Poissons Ratio (z) = 0.20482 0.30045
#
# Static dielectric constant tensor:
#      x y z
#    x 3.432460 0.000000 0.000000 
#    y 0.000000 3.309270 0.000000 
#    z 0.000000 0.000000 3.596330 
# 
# 
# High freq. dielectric constant tensor:
#      x y z
#    x 1.725800 0.000000 0.000000 
#    y 0.000000 1.710810 0.000000 
#    z 0.000000 0.000000 1.739890 
# 
# From -- ./inp_files/58812.got.cif
#   From: 2010.03.12/outbox.cif.g09.slc.cpg/sg66_30_cif.got.tgz:58812.got - 2010.04.10 21:57:39.
