data_PCOD8276757
_publ_section_title
;
Structure prediction by ZEFSAII (Michael W. Deem and Ramdas Pophale) SiO2 
 PCOD8276757
Probable space group: C C C M
;
_chemical_formula_sum "Si O2"
_cell_formula_units_Z 88
_cell_length_a 12.204356
_cell_length_b 17.827995
_cell_length_c 20.247544
_cell_angle_alpha 90.000000
_cell_angle_beta 90.000000
_cell_angle_gamma 90.000000
_cell_volume 4405.444380
_symmetry_space_group_name_H-M "C C C M"
_symmetry_group_IT_number 66
_symmetry_cell_setting 'orthorhombic'
loop_
_space_group_symop_operation_xyz
x,y,z
-x,-y,z
x,-y,1/2-z
-x,y,1/2-z
-x,-y,-z
x,y,-z
-x,y,1/2+z
x,-y,1/2+z
1/2+x,1/2+y,z
1/2-x,1/2-y,z
1/2+x,1/2-y,1/2-z
1/2-x,1/2+y,1/2-z
1/2-x,1/2-y,-z
1/2+x,1/2+y,-z
1/2-x,1/2+y,1/2+z
1/2+x,1/2-y,1/2+z
loop_
_atom_site_type_symbol
_atom_site_label
_atom_site_fract_x
_atom_site_fract_y
_atom_site_fract_z
Si Si1 0.500000 0.500000 0.134057
Si Si2 0.079832 0.850697 0.573640
Si Si3 0.237474 0.972187 0.180855
Si Si4 0.326799 0.183274 0.288096
Si Si5 0.936990 0.698877 0.151732
Si Si6 0.683785 0.918473 0.926072
O O1 0.491739 0.424589 0.090274
O O2 0.608595 0.492217 0.178218
O O3 0.045831 0.824480 0.500000
O O4 0.063157 0.783858 0.625361
O O5 0.206797 0.870016 0.575879
O O6 0.256529 0.884409 0.182519
O O7 0.286815 0.000000 0.250000
O O8 0.305747 0.009396 0.121218
O O9 0.250000 0.250000 0.310710
O O10 0.346184 0.185854 0.209046
O O11 0.442688 0.183917 0.322904
O O12 0.913054 0.637603 0.095392
O O13 0.659286 0.947863 0.000000
#
# Coordination Sequence:
#
# PCOD8276757 Si02
#       6
#     8  16  16  16  16  16
#     4  10  22  36  64  96 123 161 206 258 315 368
#     4  10  20  37  62  92 129 164 206 256 310 370
#     4  11  22  41  62  91 126 162 205 258 310 373
#     4  11  24  40  60  88 127 160 205 256 313 371
#     4  11  22  38  61  90 121 168 205 255 307 370
#     4  10  21  39  64  93 122 160 210 260 306 364
#
# _framework density 19.975283999999998
#
# number of rings (size 3 to 8) (size 9 to 14) (size 15 to 20)
#    0.000    1.455    1.818    3.818    2.545    2.909 
#    0.000    2.727    0.000    3.818    0.000    0.000 
#    0.000    0.000    0.000    0.000    0.000    0.000 
#
# Total GULP energy -545557.259415 kJ/mol
# GULP energy per Si atom -12399.028623 kJ/mol
# Density = 1.992982 g / cm^3
# Si number density = 19.975284 Si / 1000 Ang^3
#
#
#
# Elastic Constant Matrix: (Units=GPa)
#
#
# Indices 1 2 3 4 5 6 
#
# 1 55.5923 31.9806 27.9181 0.0000 0.0000 0.0000
# 2 31.9806 150.1290 63.0695 0.0000 0.0000 0.0000
# 3 27.9181 63.0695 139.5928 0.0000 0.0000 0.0000
# 4 0.0000 0.0000 0.0000 36.1372 0.0000 0.0000
# 5 0.0000 0.0000 0.0000 0.0000 13.0382 0.0000
# 6 0.0000 0.0000 0.0000 0.0000 0.0000 34.0223
#
#
#
# Elastic Compliance Matrix: (Units=1/GPa)
#
#
# Indices 1 2 3 4 5 6 
#
# 1 0.021311 -0.003393 -0.002729 0.000000 0.000000 0.000000
# 2 -0.003393 0.008762 -0.003280 0.000000 0.000000 0.000000
# 3 -0.002729 -0.003280 0.009191 0.000000 0.000000 0.000000
# 4 0.000000 0.000000 0.000000 0.027672 0.000000 0.000000
# 5 0.000000 0.000000 0.000000 0.000000 0.076698 0.000000
# 6 0.000000 0.000000 0.000000 0.000000 0.000000 0.029392
#
#
# Mechanical properties :
#
#
# Convention : Reuss Voigt Hill
#
# Bulk Modulus (GPa) = 48.87729 65.69451 57.28590
# Shear Modulus (GPa) = 25.16985 31.46260 28.31623
#
# Velocity S-wave (km/s) = 3.55357 3.97303 3.76914
# Velocity P-wave (km/s) = 6.43111 7.34887 6.90525
#
# Compressibility (1/GPa) = 0.02045940
#
# Stress axis : x y z
#
# Youngs Moduli (GPa) = 46.92510 114.13333 108.79706
#
# Poissons Ratio (x) = 0.38727 0.29691
# Poissons Ratio (y) = 0.15922 0.35685
# Poissons Ratio (z) = 0.12806 0.37436
#
# Static dielectric constant tensor:
#      x y z
#    x 3.480980 0.000000 0.000000 
#    y 0.000000 3.727410 0.000000 
#    z 0.000000 0.000000 3.833370 
# 
# 
# High freq. dielectric constant tensor:
#      x y z
#    x 1.770450 0.000000 0.000000 
#    y 0.000000 1.785960 0.000000 
#    z 0.000000 0.000000 1.783080 
# 
# From -- ./inp_files/48543.got.cif
#   From: 2010.03.12/outbox.cif.g09.slc.cpg/sg66_25_cif.got.tgz:48543.got - 2010.04.10 21:57:39.
