data_PCOD8276394
_publ_section_title
;
Structure prediction by ZEFSAII (Michael W. Deem and Ramdas Pophale) SiO2 
 PCOD8276394
Probable space group: C C C M
;
_chemical_formula_sum "Si O2"
_cell_formula_units_Z 96
_cell_length_a 25.486413
_cell_length_b 17.880065
_cell_length_c 10.868250
_cell_angle_alpha 90.000000
_cell_angle_beta 90.000000
_cell_angle_gamma 90.000000
_cell_volume 4952.647625
_symmetry_space_group_name_H-M "C C C M"
_symmetry_group_IT_number 66
_symmetry_cell_setting 'orthorhombic'
loop_
_space_group_symop_operation_xyz
x,y,z
-x,-y,z
x,-y,1/2-z
-x,y,1/2-z
-x,-y,-z
x,y,-z
-x,y,1/2+z
x,-y,1/2+z
1/2+x,1/2+y,z
1/2-x,1/2-y,z
1/2+x,1/2-y,1/2-z
1/2-x,1/2+y,1/2-z
1/2-x,1/2-y,-z
1/2+x,1/2+y,-z
1/2-x,1/2+y,1/2+z
1/2+x,1/2-y,1/2+z
loop_
_atom_site_type_symbol
_atom_site_label
_atom_site_fract_x
_atom_site_fract_y
_atom_site_fract_z
Si Si1 0.160426 0.738924 0.000000
Si Si2 0.411673 0.055904 0.858675
Si Si3 0.037996 0.713950 0.638488
Si Si4 0.207195 0.916558 0.753490
Si Si5 0.359626 0.726280 0.742755
Si Si6 0.807369 0.361335 0.361373
Si Si7 0.750974 0.863086 0.500000
O O1 0.123416 0.753138 0.117557
O O2 0.209602 0.794220 0.000000
O O3 0.188926 0.657959 0.000000
O O4 0.450394 0.126300 0.850807
O O5 0.352790 0.080580 0.823468
O O6 0.430230 0.000000 0.750000
O O7 0.414342 0.022639 0.000000
O O8 0.015963 0.731424 0.500000
O O9 0.091613 0.761467 0.652645
O O10 0.000000 0.738680 0.750000
O O11 0.159299 0.859269 0.734898
O O12 0.250902 0.900076 0.650519
O O13 0.238157 0.912111 0.881006
O O14 0.183504 0.000000 0.750000
O O15 0.311525 0.783447 0.714213
O O16 0.816868 0.336557 0.500000
#
# Coordination Sequence:
#
# PCOD8276394 Si02
#       7
#     8  16  16  16  16  16   8
#     4   9  16  32  58  76 101 147 186 223 264 312
#     4   9  19  37  54  80 118 150 183 222 267 323
#     4  10  23  41  61  85 109 136 183 238 284 336
#     4  11  22  34  51  81 114 150 183 226 271 319
#     4  10  20  37  58  78 109 144 186 229 274 326
#     4  10  20  34  52  77 112 153 191 221 260 317
#     4   9  18  34  48  76 112 140 189 226 253 315
#
# _framework density 19.383571
#
# number of rings (size 3 to 8) (size 9 to 14) (size 15 to 20)
#    0.000    2.167    1.667    2.500    2.333    3.000 
#    6.000    1.667    0.000    0.500    0.000    1.167 
#    0.000    0.000    0.000    0.000    0.000    0.000 
#
# Total GULP energy -594930.470572 kJ/mol
# GULP energy per Si atom -12394.384804 kJ/mol
# Density = 1.933945 g / cm^3
# Si number density = 19.383571 Si / 1000 Ang^3
#
#
#
# Elastic Constant Matrix: (Units=GPa)
#
#
# Indices 1 2 3 4 5 6 
#
# 1 52.0064 22.3699 28.5284 0.0000 0.0000 0.0000
# 2 22.3699 109.4851 34.7410 0.0000 0.0000 0.0000
# 3 28.5284 34.7410 108.4184 0.0000 0.0000 0.0000
# 4 0.0000 0.0000 0.0000 17.0526 0.0000 0.0000
# 5 0.0000 0.0000 0.0000 0.0000 24.3614 0.0000
# 6 0.0000 0.0000 0.0000 0.0000 0.0000 12.8902
#
#
#
# Elastic Compliance Matrix: (Units=1/GPa)
#
#
# Indices 1 2 3 4 5 6 
#
# 1 0.023408 -0.003148 -0.005151 0.000000 0.000000 0.000000
# 2 -0.003148 0.010591 -0.002565 0.000000 0.000000 0.000000
# 3 -0.005151 -0.002565 0.011401 0.000000 0.000000 0.000000
# 4 0.000000 0.000000 0.000000 0.058642 0.000000 0.000000
# 5 0.000000 0.000000 0.000000 0.000000 0.041048 0.000000
# 6 0.000000 0.000000 0.000000 0.000000 0.000000 0.077578
#
#
# Mechanical properties :
#
#
# Convention : Reuss Voigt Hill
#
# Bulk Modulus (GPa) = 42.24516 49.02094 45.63305
# Shear Modulus (GPa) = 19.81866 23.14556 21.48211
#
# Velocity S-wave (km/s) = 3.20104 3.45930 3.33267
# Velocity P-wave (km/s) = 5.95851 6.42655 6.19695
#
# Compressibility (1/GPa) = 0.02367135
#
# Stress axis : x y z
#
# Youngs Moduli (GPa) = 42.72049 94.42045 87.71312
#
# Poissons Ratio (x) = 0.29727 0.45177
# Poissons Ratio (y) = 0.13450 0.22501
# Poissons Ratio (z) = 0.22003 0.24221
#
# Static dielectric constant tensor:
#      x y z
#    x 3.142180 0.000000 0.000000 
#    y 0.000000 3.274280 0.000000 
#    z 0.000000 0.000000 3.902200 
# 
# 
# High freq. dielectric constant tensor:
#      x y z
#    x 1.717270 0.000000 0.000000 
#    y 0.000000 1.726490 0.000000 
#    z 0.000000 0.000000 1.777190 
# 
# From -- ./inp_files/19851.got.cif
#   From: 2010.03.12/outbox.cif.g09.slc.cpg/sg66_10_cif.got.tgz:19851.got - 2010.04.10 21:57:39.
