data_PCOD8276208
_publ_section_title
;
Structure prediction by ZEFSAII (Michael W. Deem and Ramdas Pophale) SiO2 
 PCOD8276208
Probable space group: C C C M
;
_chemical_formula_sum "Si O2"
_cell_formula_units_Z 64
_cell_length_a 17.148470
_cell_length_b 13.602485
_cell_length_c 12.485426
_cell_angle_alpha 90.000000
_cell_angle_beta 90.000000
_cell_angle_gamma 90.000000
_cell_volume 2912.373017
_symmetry_space_group_name_H-M "C C C M"
_symmetry_group_IT_number 66
_symmetry_cell_setting 'orthorhombic'
loop_
_space_group_symop_operation_xyz
x,y,z
-x,-y,z
x,-y,1/2-z
-x,y,1/2-z
-x,-y,-z
x,y,-z
-x,y,1/2+z
x,-y,1/2+z
1/2+x,1/2+y,z
1/2-x,1/2-y,z
1/2+x,1/2-y,1/2-z
1/2-x,1/2+y,1/2-z
1/2-x,1/2-y,-z
1/2+x,1/2+y,-z
1/2-x,1/2+y,1/2+z
1/2+x,1/2-y,1/2+z
loop_
_atom_site_type_symbol
_atom_site_label
_atom_site_fract_x
_atom_site_fract_y
_atom_site_fract_z
Si Si1 0.000000 0.335179 0.750000
Si Si2 0.255146 0.075890 0.377894
Si Si3 0.377647 0.000000 0.250000
Si Si4 0.250000 0.750000 0.277391
Si Si5 0.589248 0.317424 0.624256
Si Si6 0.882924 0.000000 0.750000
O O1 0.072095 0.404575 0.721507
O O2 0.025953 0.267282 0.849791
O O3 0.257514 0.109317 0.500000
O O4 0.319269 0.989511 0.353407
O O5 0.280605 0.164645 0.300630
O O6 0.169063 0.039362 0.348869
O O7 0.322139 0.715466 0.350531
O O8 0.582059 0.344229 0.500000
O O9 0.566470 0.412344 0.697411
#
# Coordination Sequence:
#
# PCOD8276208 Si02
#       6
#     8  16   8   8  16   8
#     4  11  24  43  60  94 134 171 224 269 314 394
#     4  10  19  36  64  94 130 171 208 272 337 376
#     4  10  22  41  60  89 139 169 218 269 313 401
#     4  10  20  40  64  98 130 160 230 272 308 402
#     4  11  23  43  69  93 128 174 213 272 333 384
#     4   9  22  40  62 100 127 156 224 282 315 402
#
# _framework density 21.975207000000001
#
# number of rings (size 3 to 8) (size 9 to 14) (size 15 to 20)
#    0.000    1.750    2.500    1.500    0.000    2.500 
#    0.000    6.250    0.000    0.000    0.000    0.000 
#    0.000    0.000    0.000    0.000    0.000    0.000 
#
# Total GULP energy -396551.012141 kJ/mol
# GULP energy per Si atom -12392.219129 kJ/mol
# Density = 2.192519 g / cm^3
# Si number density = 21.975207 Si / 1000 Ang^3
#
#
#
# Elastic Constant Matrix: (Units=GPa)
#
#
# Indices 1 2 3 4 5 6 
#
# 1 71.5811 38.6575 46.4956 0.0000 0.0000 0.0000
# 2 38.6575 117.3810 51.3756 0.0000 0.0000 0.0000
# 3 46.4956 51.3756 145.9058 0.0000 0.0000 0.0000
# 4 0.0000 0.0000 0.0000 21.4678 0.0000 0.0000
# 5 0.0000 0.0000 0.0000 0.0000 17.7592 0.0000
# 6 0.0000 0.0000 0.0000 0.0000 0.0000 35.5672
#
#
#
# Elastic Compliance Matrix: (Units=1/GPa)
#
#
# Indices 1 2 3 4 5 6 
#
# 1 0.019319 -0.004336 -0.004630 0.000000 0.000000 0.000000
# 2 -0.004336 0.011045 -0.002507 0.000000 0.000000 0.000000
# 3 -0.004630 -0.002507 0.009212 0.000000 0.000000 0.000000
# 4 0.000000 0.000000 0.000000 0.046581 0.000000 0.000000
# 5 0.000000 0.000000 0.000000 0.000000 0.056309 0.000000
# 6 0.000000 0.000000 0.000000 0.000000 0.000000 0.028116
#
#
# Mechanical properties :
#
#
# Convention : Reuss Voigt Hill
#
# Bulk Modulus (GPa) = 60.13310 67.54724 63.84017
# Shear Modulus (GPa) = 25.11673 28.18146 26.64910
#
# Velocity S-wave (km/s) = 3.38443 3.58498 3.48615
# Velocity P-wave (km/s) = 6.53422 6.92392 6.73189
#
# Compressibility (1/GPa) = 0.01662978
#
# Stress axis : x y z
#
# Youngs Moduli (GPa) = 51.76247 90.54149 108.55577
#
# Poissons Ratio (x) = 0.39260 0.50256
# Poissons Ratio (y) = 0.22445 0.27217
# Poissons Ratio (z) = 0.23964 0.22701
#
# Static dielectric constant tensor:
#      x y z
#    x 3.964820 0.000000 0.000000 
#    y 0.000000 4.430790 0.000000 
#    z 0.000000 0.000000 3.560820 
# 
# 
# High freq. dielectric constant tensor:
#      x y z
#    x 1.868900 0.000000 0.000000 
#    y 0.000000 1.877550 0.000000 
#    z 0.000000 0.000000 1.835670 
# 
# From -- ./inp_files/17332.got.cif
#   From: 2010.03.12/outbox.cif.g09.slc.cpg/sg66_9_cif.got.tgz:17332.got - 2010.04.10 21:57:39.
