data_PCOD8276125
_publ_section_title
;
Structure prediction by ZEFSAII (Michael W. Deem and Ramdas Pophale) SiO2 
 PCOD8276125
Probable space group: C C C M
;
_chemical_formula_sum "Si O2"
_cell_formula_units_Z 116
_cell_length_a 22.656977
_cell_length_b 27.127298
_cell_length_c 8.896116
_cell_angle_alpha 90.000000
_cell_angle_beta 90.000000
_cell_angle_gamma 90.000000
_cell_volume 5467.753651
_symmetry_space_group_name_H-M "C C C M"
_symmetry_group_IT_number 66
_symmetry_cell_setting 'orthorhombic'
loop_
_space_group_symop_operation_xyz
x,y,z
-x,-y,z
x,-y,1/2-z
-x,y,1/2-z
-x,-y,-z
x,y,-z
-x,y,1/2+z
x,-y,1/2+z
1/2+x,1/2+y,z
1/2-x,1/2-y,z
1/2+x,1/2-y,1/2-z
1/2-x,1/2+y,1/2-z
1/2-x,1/2-y,-z
1/2+x,1/2+y,-z
1/2-x,1/2+y,1/2+z
1/2+x,1/2-y,1/2+z
loop_
_atom_site_type_symbol
_atom_site_label
_atom_site_fract_x
_atom_site_fract_y
_atom_site_fract_z
Si Si1 0.939139 0.257056 0.326981
Si Si2 0.124338 0.643679 0.325715
Si Si3 0.000000 0.000000 0.250000
Si Si4 0.259407 0.144699 0.323544
Si Si5 0.225283 0.048666 0.824582
Si Si6 0.871596 0.827517 0.323667
Si Si7 0.936130 0.551785 0.680771
Si Si8 0.905025 0.922125 0.834844
O O1 0.943840 0.243115 0.500000
O O2 0.924856 0.314456 0.303294
O O3 0.889973 0.222769 0.253649
O O4 0.000000 0.243923 0.250000
O O5 0.130984 0.629082 0.500000
O O6 0.185161 0.668378 0.263949
O O7 0.107587 0.595656 0.228938
O O8 0.957754 0.962346 0.160597
O O9 0.269729 0.149584 0.500000
O O10 0.260138 0.088721 0.269963
O O11 0.196775 0.167475 0.275037
O O12 0.155277 0.050224 0.793900
O O13 0.250818 0.000000 0.750000
O O14 0.240988 0.052304 0.000000
O O15 0.878942 0.822668 0.500000
O O16 0.911519 0.875039 0.275399
O O17 0.913158 0.500000 0.750000
O O18 0.939824 0.548468 0.500000
O O19 0.000000 0.563911 0.750000
O O20 0.900912 0.898797 0.000000
#
# Coordination Sequence:
#
# PCOD8276125 Si02
#       8
#    16  16   4  16  16  16  16  16
#     4  11  25  44  68  95 126 163 206 253 310 369
#     4  11  24  42  65  96 129 165 208 258 311 372
#     4  12  22  36  56  90 122 164 212 262 314 372
#     4  10  22  40  62  90 121 160 205 256 312 371
#     4  10  19  35  56  80 113 157 203 252 307 367
#     4  10  23  43  66  90 123 163 209 261 314 373
#     4  11  22  39  64  95 133 174 213 258 309 372
#     4  10  22  37  56  83 119 160 205 257 313 369
#
# _framework density 21.215292999999999
#
# number of rings (size 3 to 8) (size 9 to 14) (size 15 to 20)
#    0.000    1.517    0.690    4.345    0.966    7.724 
#    0.000    5.517    0.000    0.000    0.000    0.000 
#    0.000    0.000    0.000    0.000    0.000    0.000 
#
# Total GULP energy -719042.597382 kJ/mol
# GULP energy per Si atom -12397.286162 kJ/mol
# Density = 2.116701 g / cm^3
# Si number density = 21.215293 Si / 1000 Ang^3
#
#
#
# Elastic Constant Matrix: (Units=GPa)
#
#
# Indices 1 2 3 4 5 6 
#
# 1 84.0402 30.9311 39.7592 0.0000 0.0000 0.0000
# 2 30.9311 95.3085 51.4548 0.0000 0.0000 0.0000
# 3 39.7592 51.4548 123.1110 0.0000 0.0000 0.0000
# 4 0.0000 0.0000 0.0000 35.1921 0.0000 0.0000
# 5 0.0000 0.0000 0.0000 0.0000 32.1471 0.0000
# 6 0.0000 0.0000 0.0000 0.0000 0.0000 27.0124
#
#
#
# Elastic Compliance Matrix: (Units=1/GPa)
#
#
# Indices 1 2 3 4 5 6 
#
# 1 0.014615 -0.002834 -0.003535 0.000000 0.000000 0.000000
# 2 -0.002834 0.014099 -0.004977 0.000000 0.000000 0.000000
# 3 -0.003535 -0.004977 0.011345 0.000000 0.000000 0.000000
# 4 0.000000 0.000000 0.000000 0.028415 0.000000 0.000000
# 5 0.000000 0.000000 0.000000 0.000000 0.031107 0.000000
# 6 0.000000 0.000000 0.000000 0.000000 0.000000 0.037020
#
#
# Mechanical properties :
#
#
# Convention : Reuss Voigt Hill
#
# Bulk Modulus (GPa) = 57.58831 60.74999 59.16915
# Shear Modulus (GPa) = 30.28760 30.89129 30.58944
#
# Velocity S-wave (km/s) = 3.78250 3.82001 3.80130
# Velocity P-wave (km/s) = 6.80294 6.93929 6.87146
#
# Compressibility (1/GPa) = 0.01736463
#
# Stress axis : x y z
#
# Youngs Moduli (GPa) = 68.42380 70.92528 88.14574
#
# Poissons Ratio (x) = 0.20103 0.31162
# Poissons Ratio (y) = 0.19394 0.43874
# Poissons Ratio (z) = 0.24190 0.35303
#
# Static dielectric constant tensor:
#      x y z
#    x 3.935320 0.000000 0.000000 
#    y 0.000000 3.723050 0.000000 
#    z 0.000000 0.000000 3.854520 
# 
# 
# High freq. dielectric constant tensor:
#      x y z
#    x 1.834290 0.000000 0.000000 
#    y 0.000000 1.829680 0.000000 
#    z 0.000000 0.000000 1.840840 
# 
# From -- ./inp_files/9443.got.cif
#   From: 2010.03.12/outbox.cif.g09.slc.cpg/sg66_5_cif.got.tgz:9443.got - 2010.04.10 21:57:39.
