data_PCOD8276298
_publ_section_title
;
Structure prediction by ZEFSAII (Michael W. Deem and Ramdas Pophale) SiO2 
 PCOD8276298
Probable space group: C C C M
;
_chemical_formula_sum "Si O2"
_cell_formula_units_Z 80
_cell_length_a 14.790027
_cell_length_b 32.164500
_cell_length_c 8.850795
_cell_angle_alpha 90.000000
_cell_angle_beta 90.000000
_cell_angle_gamma 90.000000
_cell_volume 4210.445530
_symmetry_space_group_name_H-M "C C C M"
_symmetry_group_IT_number 66
_symmetry_cell_setting 'orthorhombic'
loop_
_space_group_symop_operation_xyz
x,y,z
-x,-y,z
x,-y,1/2-z
-x,y,1/2-z
-x,-y,-z
x,y,-z
-x,y,1/2+z
x,-y,1/2+z
1/2+x,1/2+y,z
1/2-x,1/2-y,z
1/2+x,1/2-y,1/2-z
1/2-x,1/2+y,1/2-z
1/2-x,1/2-y,-z
1/2+x,1/2+y,-z
1/2-x,1/2+y,1/2+z
1/2+x,1/2-y,1/2+z
loop_
_atom_site_type_symbol
_atom_site_label
_atom_site_fract_x
_atom_site_fract_y
_atom_site_fract_z
Si Si1 0.212820 0.113370 0.177676
Si Si2 0.626014 0.782374 0.668545
Si Si3 0.833136 0.193617 0.168433
Si Si4 0.087388 0.637192 0.674837
Si Si5 0.405724 0.544538 0.819804
O O1 0.155633 0.155075 0.216793
O O2 0.317327 0.118121 0.231189
O O3 0.174187 0.075300 0.272933
O O4 0.204478 0.104834 0.000000
O O5 0.586446 0.789933 0.500000
O O6 0.731239 0.791488 0.665251
O O7 0.608630 0.734259 0.719420
O O8 0.580412 0.813679 0.786815
O O9 0.862761 0.179240 0.000000
O O10 0.078737 0.630136 0.500000
O O11 0.000000 0.614626 0.750000
O O12 0.381734 0.500000 0.750000
O O13 0.500000 0.560945 0.750000
O O14 0.413675 0.541386 0.000000
#
# Coordination Sequence:
#
# PCOD8276298 Si02
#       5
#    16  16  16  16  16
#     4  10  20  34  53  80 110 141 177 219 266 317
#     4   8  14  26  44  65  94 131 175 221 265 309
#     4   8  14  26  45  69  96 132 173 216 264 311
#     4  10  20  32  49  73 105 144 187 229 266 308
#     4  11  22  39  63  88 113 138 165 204 254 315
#
# _framework density 19.000364000000001
#
# number of rings (size 3 to 8) (size 9 to 14) (size 15 to 20)
#    0.000    2.600    0.000    4.800    0.000    3.200 
#    0.000    5.000    0.000    5.400    0.000    4.200 
#    0.000    0.000    0.000    0.000    0.000    0.000 
#
# Total GULP energy -495662.368627 kJ/mol
# GULP energy per Si atom -12391.559216 kJ/mol
# Density = 1.895712 g / cm^3
# Si number density = 19.000364 Si / 1000 Ang^3
#
#
#
# Elastic Constant Matrix: (Units=GPa)
#
#
# Indices 1 2 3 4 5 6 
#
# 1 85.5034 51.4123 41.7615 0.0000 0.0000 0.0000
# 2 51.4123 92.0752 45.9405 0.0000 0.0000 0.0000
# 3 41.7615 45.9405 101.5340 0.0000 0.0000 0.0000
# 4 0.0000 0.0000 0.0000 31.5516 0.0000 0.0000
# 5 0.0000 0.0000 0.0000 0.0000 27.2561 0.0000
# 6 0.0000 0.0000 0.0000 0.0000 0.0000 14.8850
#
#
#
# Elastic Compliance Matrix: (Units=1/GPa)
#
#
# Indices 1 2 3 4 5 6 
#
# 1 0.018693 -0.008527 -0.003831 0.000000 0.000000 0.000000
# 2 -0.008527 0.017917 -0.004600 0.000000 0.000000 0.000000
# 3 -0.003831 -0.004600 0.013506 0.000000 0.000000 0.000000
# 4 0.000000 0.000000 0.000000 0.031694 0.000000 0.000000
# 5 0.000000 0.000000 0.000000 0.000000 0.036689 0.000000
# 6 0.000000 0.000000 0.000000 0.000000 0.000000 0.067182
#
#
# Mechanical properties :
#
#
# Convention : Reuss Voigt Hill
#
# Bulk Modulus (GPa) = 61.72118 61.92681 61.82400
# Shear Modulus (GPa) = 22.22272 24.07176 23.14724
#
# Velocity S-wave (km/s) = 3.42364 3.56323 3.49413
# Velocity P-wave (km/s) = 6.94141 7.04216 6.99197
#
# Compressibility (1/GPa) = 0.01620189
#
# Stress axis : x y z
#
# Youngs Moduli (GPa) = 53.49485 55.81394 74.04293
#
# Poissons Ratio (x) = 0.47590 0.28364
# Poissons Ratio (y) = 0.45613 0.34057
# Poissons Ratio (z) = 0.20492 0.25672
#
# Static dielectric constant tensor:
#      x y z
#    x 3.625230 0.000000 0.000000 
#    y 0.000000 3.494410 0.000000 
#    z 0.000000 0.000000 3.499940 
# 
# 
# High freq. dielectric constant tensor:
#      x y z
#    x 1.728210 0.000000 0.000000 
#    y 0.000000 1.714790 0.000000 
#    z 0.000000 0.000000 1.740600 
# 
# From -- ./inp_files/6891.got.cif
#   From: 2010.03.12/outbox.cif.g09.slc.cpg/sg66_4_cif.got.tgz:6891.got - 2010.04.10 21:57:39.
