data_PCOD8276438
_publ_section_title
;
Structure prediction by ZEFSAII (Michael W. Deem and Ramdas Pophale) SiO2 
 PCOD8276438
Probable space group: C C C M
;
_chemical_formula_sum "Si O2"
_cell_formula_units_Z 112
_cell_length_a 26.595488
_cell_length_b 15.322262
_cell_length_c 14.518260
_cell_angle_alpha 90.000000
_cell_angle_beta 90.000000
_cell_angle_gamma 90.000000
_cell_volume 5916.235015
_symmetry_space_group_name_H-M "C C C M"
_symmetry_group_IT_number 66
_symmetry_cell_setting 'orthorhombic'
loop_
_space_group_symop_operation_xyz
x,y,z
-x,-y,z
x,-y,1/2-z
-x,y,1/2-z
-x,-y,-z
x,y,-z
-x,y,1/2+z
x,-y,1/2+z
1/2+x,1/2+y,z
1/2-x,1/2-y,z
1/2+x,1/2-y,1/2-z
1/2-x,1/2+y,1/2-z
1/2-x,1/2-y,-z
1/2+x,1/2+y,-z
1/2-x,1/2+y,1/2+z
1/2+x,1/2-y,1/2+z
loop_
_atom_site_type_symbol
_atom_site_label
_atom_site_fract_x
_atom_site_fract_y
_atom_site_fract_z
Si Si1 0.879410 0.030570 0.846756
Si Si2 0.870476 0.299639 0.892124
Si Si3 0.804703 0.718430 0.897614
Si Si4 0.107397 0.158415 0.901561
Si Si5 0.302441 0.899996 0.225328
Si Si6 0.792472 0.147792 0.102847
Si Si7 0.057367 0.810971 0.219338
O O1 0.832852 0.070010 0.902074
O O2 0.925837 0.097827 0.828956
O O3 0.856680 0.000000 0.750000
O O4 0.898957 0.946283 0.900718
O O5 0.850021 0.388199 0.844493
O O6 0.824957 0.232548 0.869831
O O7 0.923386 0.266777 0.847640
O O8 0.880039 0.313331 0.000000
O O9 0.750000 0.750000 0.876243
O O10 0.835611 0.808766 0.893423
O O11 0.818193 0.648682 0.819379
O O12 0.810116 0.675435 0.000000
O O13 0.081346 0.206073 0.818002
O O14 0.084114 0.188747 0.000000
O O15 0.251137 0.865118 0.177439
O O16 0.294754 0.000000 0.250000
O O17 0.768810 0.157043 0.000000
O O18 0.000000 0.810282 0.250000
#
# Coordination Sequence:
#
# PCOD8276438 Si02
#       7
#    16  16  16  16  16  16  16
#     4   9  19  32  51  82 117 155 188 228 275 333
#     4  10  21  40  61  84 117 156 195 240 292 348
#     4  10  22  37  55  79 113 155 194 232 279 339
#     4  10  20  36  57  80 117 157 192 229 278 340
#     4  12  24  35  56  84 117 150 193 244 287 337
#     4  10  20  34  55  82 117 156 194 228 271 334
#     4  10  21  38  60  86 115 146 190 242 292 345
#
# _framework density 18.930958
#
# number of rings (size 3 to 8) (size 9 to 14) (size 15 to 20)
#    0.000    1.857    1.429    2.571    6.000    6.000 
#    0.000    0.714    0.000    0.429    0.000    1.000 
#    0.000    0.000    0.000    0.000    0.000    0.000 
#
# Total GULP energy -693775.493358 kJ/mol
# GULP energy per Si atom -12388.848096 kJ/mol
# Density = 1.888787 g / cm^3
# Si number density = 18.930958 Si / 1000 Ang^3
#
#
#
# Elastic Constant Matrix: (Units=GPa)
#
#
# Indices 1 2 3 4 5 6 
#
# 1 92.8501 27.5802 41.2936 0.0000 0.0000 0.0000
# 2 27.5802 36.6023 23.0211 0.0000 0.0000 0.0000
# 3 41.2936 23.0211 129.6812 0.0000 0.0000 0.0000
# 4 0.0000 0.0000 0.0000 26.6994 0.0000 0.0000
# 5 0.0000 0.0000 0.0000 0.0000 7.2143 0.0000
# 6 0.0000 0.0000 0.0000 0.0000 0.0000 5.3933
#
#
#
# Elastic Compliance Matrix: (Units=1/GPa)
#
#
# Indices 1 2 3 4 5 6 
#
# 1 0.014905 -0.009283 -0.003098 0.000000 0.000000 0.000000
# 2 -0.009283 0.036535 -0.003530 0.000000 0.000000 0.000000
# 3 -0.003098 -0.003530 0.009324 0.000000 0.000000 0.000000
# 4 0.000000 0.000000 0.000000 0.037454 0.000000 0.000000
# 5 0.000000 0.000000 0.000000 0.000000 0.138613 0.000000
# 6 0.000000 0.000000 0.000000 0.000000 0.000000 0.185416
#
#
# Mechanical properties :
#
#
# Convention : Reuss Voigt Hill
#
# Bulk Modulus (GPa) = 34.55029 49.21372 41.88201
# Shear Modulus (GPa) = 10.78242 19.01065 14.89653
#
# Velocity S-wave (km/s) = 2.38915 3.17236 2.80819
# Velocity P-wave (km/s) = 5.08930 6.28263 5.71718
#
# Compressibility (1/GPa) = 0.02894331
#
# Stress axis : x y z
#
# Youngs Moduli (GPa) = 67.09030 27.37068 107.24481
#
# Poissons Ratio (x) = 0.25407 0.33228
# Poissons Ratio (y) = 0.62277 0.37858
# Poissons Ratio (z) = 0.20787 0.09662
#
# Static dielectric constant tensor:
#      x y z
#    x 2.846020 0.000000 0.000000 
#    y 0.000000 3.476770 0.000000 
#    z 0.000000 0.000000 3.599070 
# 
# 
# High freq. dielectric constant tensor:
#      x y z
#    x 1.704250 0.000000 0.000000 
#    y 0.000000 1.707380 0.000000 
#    z 0.000000 0.000000 1.763810 
# 
# From -- ./inp_files/33347.got.cif
#   From: 2010.03.12/outbox.cif.g09.slc.cpg/sg66_17_cif.got.tgz:33347.got - 2010.04.10 21:57:39.
