data_PCOD8276674
_publ_section_title
;
Structure prediction by ZEFSAII (Michael W. Deem and Ramdas Pophale) SiO2 
 PCOD8276674
Probable space group: C C C M
;
_chemical_formula_sum "Si O2"
_cell_formula_units_Z 112
_cell_length_a 12.205126
_cell_length_b 27.838371
_cell_length_c 14.779702
_cell_angle_alpha 90.000000
_cell_angle_beta 90.000000
_cell_angle_gamma 90.000000
_cell_volume 5021.711552
_symmetry_space_group_name_H-M "C C C M"
_symmetry_group_IT_number 66
_symmetry_cell_setting 'orthorhombic'
loop_
_space_group_symop_operation_xyz
x,y,z
-x,-y,z
x,-y,1/2-z
-x,y,1/2-z
-x,-y,-z
x,y,-z
-x,y,1/2+z
x,-y,1/2+z
1/2+x,1/2+y,z
1/2-x,1/2-y,z
1/2+x,1/2-y,1/2-z
1/2-x,1/2+y,1/2-z
1/2-x,1/2-y,-z
1/2+x,1/2+y,-z
1/2-x,1/2+y,1/2+z
1/2+x,1/2-y,1/2+z
loop_
_atom_site_type_symbol
_atom_site_label
_atom_site_fract_x
_atom_site_fract_y
_atom_site_fract_z
Si Si1 0.451753 0.048805 0.152190
Si Si2 0.173312 0.888564 0.101438
Si Si3 0.974678 0.655084 0.897053
Si Si4 0.751050 0.696375 0.892702
Si Si5 0.920774 0.881002 0.894838
Si Si6 0.312419 0.205190 0.602048
Si Si7 0.786582 0.947951 0.774077
O O1 0.500000 0.050821 0.250000
O O2 0.491329 0.097391 0.103078
O O3 0.321174 0.047857 0.163294
O O4 0.500000 0.000000 0.103788
O O5 0.227441 0.837343 0.101605
O O6 0.231170 0.920922 0.178022
O O7 0.048130 0.877106 0.126112
O O8 0.183877 0.911905 0.000000
O O9 0.075079 0.685062 0.850549
O O10 0.858218 0.669215 0.851843
O O11 0.973716 0.671747 0.000000
O O12 0.750000 0.750000 0.852082
O O13 0.642504 0.667436 0.862524
O O14 0.757579 0.698180 0.000000
O O15 0.878822 0.924983 0.836014
O O16 0.896068 0.891032 0.000000
O O17 0.341330 0.221704 0.500000
O O18 0.250000 0.250000 0.651852
O O19 0.831463 0.000000 0.750000
#
# Coordination Sequence:
#
# PCOD8276674 Si02
#       7
#    16  16  16  16  16  16  16
#     4  11  22  39  61  86 121 165 207 257 325 377
#     4  10  23  42  64  91 126 167 213 260 312 376
#     4  10  20  36  61  92 123 162 214 263 316 383
#     4   9  18  33  59  92 126 165 204 252 313 374
#     4  10  22  41  65  94 127 164 210 262 312 376
#     4   9  19  35  59  90 126 169 213 261 315 376
#     4  12  24  42  67  91 123 162 210 264 322 383
#
# _framework density 22.303152000000001
#
# number of rings (size 3 to 8) (size 9 to 14) (size 15 to 20)
#    0.000    1.857    2.857    1.286    2.000    2.000 
#    0.000    2.143    0.000    0.429    0.000    0.000 
#    0.000    0.000    0.000    0.000    0.000    0.000 
#
# Total GULP energy -693932.430766 kJ/mol
# GULP energy per Si atom -12391.650549 kJ/mol
# Density = 2.225239 g / cm^3
# Si number density = 22.303152 Si / 1000 Ang^3
#
#
#
# Elastic Constant Matrix: (Units=GPa)
#
#
# Indices 1 2 3 4 5 6 
#
# 1 118.7135 41.8012 7.5353 0.0000 0.0000 0.0000
# 2 41.8012 151.6819 8.9908 0.0000 0.0000 0.0000
# 3 7.5353 8.9908 37.7379 0.0000 0.0000 0.0000
# 4 0.0000 0.0000 0.0000 46.5468 0.0000 0.0000
# 5 0.0000 0.0000 0.0000 0.0000 18.1053 0.0000
# 6 0.0000 0.0000 0.0000 0.0000 0.0000 33.4076
#
#
#
# Elastic Compliance Matrix: (Units=1/GPa)
#
#
# Indices 1 2 3 4 5 6 
#
# 1 0.009389 -0.002512 -0.001276 0.000000 0.000000 0.000000
# 2 -0.002512 0.007359 -0.001252 0.000000 0.000000 0.000000
# 3 -0.001276 -0.001252 0.027052 0.000000 0.000000 0.000000
# 4 0.000000 0.000000 0.000000 0.021484 0.000000 0.000000
# 5 0.000000 0.000000 0.000000 0.000000 0.055232 0.000000
# 6 0.000000 0.000000 0.000000 0.000000 0.000000 0.029933
#
#
# Mechanical properties :
#
#
# Convention : Reuss Voigt Hill
#
# Bulk Modulus (GPa) = 29.65592 47.19865 38.42729
# Shear Modulus (GPa) = 29.10884 36.26569 32.68727
#
# Velocity S-wave (km/s) = 3.61660 4.03679 3.83246
# Velocity P-wave (km/s) = 5.54665 6.55254 6.07047
#
# Compressibility (1/GPa) = 0.03372008
#
# Stress axis : x y z
#
# Youngs Moduli (GPa) = 106.50621 135.88503 36.96640
#
# Poissons Ratio (x) = 0.34132 0.04718
# Poissons Ratio (y) = 0.26753 0.04627
# Poissons Ratio (z) = 0.13594 0.17009
#
# Static dielectric constant tensor:
#      x y z
#    x 3.750470 0.000000 0.000000 
#    y 0.000000 2.949850 0.000000 
#    z 0.000000 0.000000 3.851590 
# 
# 
# High freq. dielectric constant tensor:
#      x y z
#    x 1.890490 0.000000 0.000000 
#    y 0.000000 1.879130 0.000000 
#    z 0.000000 0.000000 1.853410 
# 
# From -- ./inp_files/26981.got.cif
#   From: 2010.03.12/outbox.cif.g09.slc.cpg/sg66_14_cif.got.tgz:26981.got - 2010.04.10 21:57:39.
