data_PCOD8276116
_publ_section_title
;
Structure prediction by ZEFSAII (Michael W. Deem and Ramdas Pophale) SiO2 
 PCOD8276116
Probable space group: C C C M
;
_chemical_formula_sum "Si O2"
_cell_formula_units_Z 104
_cell_length_a 8.824810
_cell_length_b 21.601879
_cell_length_c 31.585683
_cell_angle_alpha 90.000000
_cell_angle_beta 90.000000
_cell_angle_gamma 90.000000
_cell_volume 6021.257014
_symmetry_space_group_name_H-M "C C C M"
_symmetry_group_IT_number 66
_symmetry_cell_setting 'orthorhombic'
loop_
_space_group_symop_operation_xyz
x,y,z
-x,-y,z
x,-y,1/2-z
-x,y,1/2-z
-x,-y,-z
x,y,-z
-x,y,1/2+z
x,-y,1/2+z
1/2+x,1/2+y,z
1/2-x,1/2-y,z
1/2+x,1/2-y,1/2-z
1/2-x,1/2+y,1/2-z
1/2-x,1/2-y,-z
1/2+x,1/2+y,-z
1/2-x,1/2+y,1/2+z
1/2+x,1/2-y,1/2+z
loop_
_atom_site_type_symbol
_atom_site_label
_atom_site_fract_x
_atom_site_fract_y
_atom_site_fract_z
Si Si1 0.631995 0.134148 0.838301
Si Si2 0.250000 0.750000 0.112858
Si Si3 0.206997 0.651711 0.548139
Si Si4 0.000000 0.600370 0.250000
Si Si5 0.506696 0.732574 0.951103
Si Si6 0.259985 0.000000 0.250000
Si Si7 0.898925 0.555536 0.111122
Si Si8 0.662148 0.479244 0.838492
O O1 0.672543 0.201371 0.855672
O O2 0.569993 0.139734 0.789572
O O3 0.495729 0.107230 0.865503
O O4 0.781002 0.091154 0.846228
O O5 0.371651 0.718529 0.081438
O O6 0.220045 0.631076 0.500000
O O7 0.359572 0.686315 0.562027
O O8 0.063307 0.696902 0.554441
O O9 0.191219 0.588316 0.573586
O O10 0.135749 0.556796 0.266032
O O11 0.455848 0.721630 0.000000
O O12 0.150306 0.016699 0.288131
O O13 0.784240 0.527182 0.144614
O O14 0.000000 0.500000 0.091777
O O15 0.500000 0.500000 0.858113
#
# Coordination Sequence:
#
# PCOD8276116 Si02
#       8
#    16   8  16   8  16   8  16  16
#     4  10  21  35  55  79 104 152 177 219 268 326
#     4  12  21  34  58  82 112 140 184 226 275 324
#     4   9  18  35  56  78 106 143 181 218 272 326
#     4   9  16  34  56  72 106 140 181 208 264 328
#     4   9  19  34  56  81 106 138 182 233 267 314
#     4   9  15  30  58  80  98 134 174 224 262 306
#     4  10  19  35  54  80 109 142 178 214 269 331
#     4  10  20  32  54  84 108 129 178 228 272 313
#
# _framework density 17.272141000000001
#
# number of rings (size 3 to 8) (size 9 to 14) (size 15 to 20)
#    0.000    2.308    3.077    1.385    2.154    0.308 
#    0.000    0.000   10.154    0.462    0.000    0.000 
#    0.000    0.000    0.000    0.000    0.000    0.000 
#
# Total GULP energy -644382.569337 kJ/mol
# GULP energy per Si atom -12391.972487 kJ/mol
# Density = 1.723283 g / cm^3
# Si number density = 17.272141 Si / 1000 Ang^3
#
#
#
# Elastic Constant Matrix: (Units=GPa)
#
#
# Indices 1 2 3 4 5 6 
#
# 1 80.9122 32.5975 32.9729 0.0000 0.0000 0.0000
# 2 32.5975 88.5591 47.9596 0.0000 0.0000 0.0000
# 3 32.9729 47.9596 83.9381 0.0000 0.0000 0.0000
# 4 0.0000 0.0000 0.0000 28.8385 0.0000 0.0000
# 5 0.0000 0.0000 0.0000 0.0000 20.9608 0.0000
# 6 0.0000 0.0000 0.0000 0.0000 0.0000 22.6189
#
#
#
# Elastic Compliance Matrix: (Units=1/GPa)
#
#
# Indices 1 2 3 4 5 6 
#
# 1 0.015417 -0.003468 -0.004074 0.000000 0.000000 0.000000
# 2 -0.003468 0.017132 -0.008426 0.000000 0.000000 0.000000
# 3 -0.004074 -0.008426 0.018328 0.000000 0.000000 0.000000
# 4 0.000000 0.000000 0.000000 0.034676 0.000000 0.000000
# 5 0.000000 0.000000 0.000000 0.000000 0.047708 0.000000
# 6 0.000000 0.000000 0.000000 0.000000 0.000000 0.044211
#
#
# Mechanical properties :
#
#
# Convention : Reuss Voigt Hill
#
# Bulk Modulus (GPa) = 52.79995 53.38550 53.09273
# Shear Modulus (GPa) = 23.17796 23.80895 23.49346
#
# Velocity S-wave (km/s) = 3.66721 3.71679 3.69208
# Velocity P-wave (km/s) = 6.96900 7.02815 6.99864
#
# Compressibility (1/GPa) = 0.01893941
#
# Stress axis : x y z
#
# Youngs Moduli (GPa) = 64.86468 58.37142 54.55986
#
# Poissons Ratio (x) = 0.20244 0.22230
# Poissons Ratio (y) = 0.22496 0.45973
# Poissons Ratio (z) = 0.26429 0.49184
#
# Static dielectric constant tensor:
#      x y z
#    x 3.226300 0.000000 0.000000 
#    y 0.000000 3.001280 0.000000 
#    z 0.000000 0.000000 3.206950 
# 
# 
# High freq. dielectric constant tensor:
#      x y z
#    x 1.666940 0.000000 0.000000 
#    y 0.000000 1.644580 0.000000 
#    z 0.000000 0.000000 1.666470 
# 
# From -- ./inp_files/68335.got.cif
#   From: 2010.03.12/outbox.cif.g09.slc.cpg/sg66_35_cif.got.tgz:68335.got - 2010.04.10 21:57:39.
