data_PCOD8276140
_publ_section_title
;
Structure prediction by ZEFSAII (Michael W. Deem and Ramdas Pophale) SiO2 
 PCOD8276140
Probable space group: C C C M
;
_chemical_formula_sum "Si O2"
_cell_formula_units_Z 116
_cell_length_a 27.386056
_cell_length_b 22.200335
_cell_length_c 8.810364
_cell_angle_alpha 90.000000
_cell_angle_beta 90.000000
_cell_angle_gamma 90.000000
_cell_volume 5356.521735
_symmetry_space_group_name_H-M "C C C M"
_symmetry_group_IT_number 66
_symmetry_cell_setting 'orthorhombic'
loop_
_space_group_symop_operation_xyz
x,y,z
-x,-y,z
x,-y,1/2-z
-x,y,1/2-z
-x,-y,-z
x,y,-z
-x,y,1/2+z
x,-y,1/2+z
1/2+x,1/2+y,z
1/2-x,1/2-y,z
1/2+x,1/2-y,1/2-z
1/2-x,1/2+y,1/2-z
1/2-x,1/2-y,-z
1/2+x,1/2+y,-z
1/2-x,1/2+y,1/2+z
1/2+x,1/2-y,1/2+z
loop_
_atom_site_type_symbol
_atom_site_label
_atom_site_fract_x
_atom_site_fract_y
_atom_site_fract_z
Si Si1 0.411417 0.583441 0.169905
Si Si2 0.500000 0.500000 0.250000
Si Si3 0.719861 0.058756 0.820356
Si Si4 0.549119 0.306096 0.680079
Si Si5 0.654628 0.842588 0.823017
Si Si6 0.682227 0.402851 0.319995
Si Si7 0.305086 0.271547 0.677928
Si Si8 0.952444 0.670579 0.825682
O O1 0.461642 0.543897 0.164181
O O2 0.411974 0.649620 0.246243
O O3 0.365484 0.557876 0.266223
O O4 0.393738 0.592135 0.000000
O O5 0.688345 0.117381 0.783330
O O6 0.771275 0.059918 0.734868
O O7 0.692710 0.000000 0.750000
O O8 0.726676 0.054448 0.000000
O O9 0.500000 0.333098 0.750000
O O10 0.550602 0.312603 0.500000
O O11 0.555629 0.238053 0.738319
O O12 0.659529 0.773443 0.770988
O O13 0.598286 0.864391 0.798008
O O14 0.669073 0.848649 0.000000
O O15 0.681975 0.396182 0.500000
O O16 0.686324 0.337540 0.242850
O O17 0.317836 0.269936 0.500000
O O18 0.250000 0.250000 0.707638
O O19 0.000000 0.639209 0.750000
O O20 0.965769 0.674997 0.000000
#
# Coordination Sequence:
#
# PCOD8276140 Si02
#       8
#    16   4  16  16  16  16  16  16
#     4  12  26  44  65  87 118 160 214 275 334 395
#     4  12  30  48  68  90 122 164 230 288 350 396
#     4  12  26  46  68  94 127 168 217 266 319 385
#     4  10  19  35  58  86 120 160 205 254 313 379
#     4  11  22  39  65  98 134 175 216 263 323 387
#     4  12  26  44  68  96 129 170 215 272 337 399
#     4  11  22  38  64 100 137 173 218 268 326 396
#     4   9  20  36  59  93 130 165 204 249 304 376
#
# _framework density 21.655843999999998
#
# number of rings (size 3 to 8) (size 9 to 14) (size 15 to 20)
#    0.000    0.966    2.069    5.172    0.966    4.966 
#    0.000    0.000    0.000    0.414    0.000    2.897 
#    0.000    0.000    0.000    0.000    0.000    0.000 
#
# Total GULP energy -718747.851779 kJ/mol
# GULP energy per Si atom -12392.204341 kJ/mol
# Density = 2.160655 g / cm^3
# Si number density = 21.655844 Si / 1000 Ang^3
#
#
#
# Elastic Constant Matrix: (Units=GPa)
#
#
# Indices 1 2 3 4 5 6 
#
# 1 117.1504 12.0413 45.6756 0.0000 0.0000 0.0000
# 2 12.0413 63.4304 17.7908 0.0000 0.0000 0.0000
# 3 45.6756 17.7908 130.1773 0.0000 0.0000 0.0000
# 4 0.0000 0.0000 0.0000 25.0083 0.0000 0.0000
# 5 0.0000 0.0000 0.0000 0.0000 34.9328 0.0000
# 6 0.0000 0.0000 0.0000 0.0000 0.0000 6.7833
#
#
#
# Elastic Compliance Matrix: (Units=1/GPa)
#
#
# Indices 1 2 3 4 5 6 
#
# 1 0.009943 -0.000945 -0.003360 0.000000 0.000000 0.000000
# 2 -0.000945 0.016484 -0.001921 0.000000 0.000000 0.000000
# 3 -0.003360 -0.001921 0.009123 0.000000 0.000000 0.000000
# 4 0.000000 0.000000 0.000000 0.039987 0.000000 0.000000
# 5 0.000000 0.000000 0.000000 0.000000 0.028626 0.000000
# 6 0.000000 0.000000 0.000000 0.000000 0.000000 0.147420
#
#
# Mechanical properties :
#
#
# Convention : Reuss Voigt Hill
#
# Bulk Modulus (GPa) = 43.29380 51.30817 47.30098
# Shear Modulus (GPa) = 18.40033 29.02825 23.71429
#
# Velocity S-wave (km/s) = 2.91807 3.66517 3.31275
# Velocity P-wave (km/s) = 5.60256 6.45409 6.04334
#
# Compressibility (1/GPa) = 0.02309800
#
# Stress axis : x y z
#
# Youngs Moduli (GPa) = 100.57279 60.66646 109.61122
#
# Poissons Ratio (x) = 0.05735 0.36825
# Poissons Ratio (y) = 0.09507 0.21057
# Poissons Ratio (z) = 0.33788 0.11654
#
# Static dielectric constant tensor:
#      x y z
#    x 4.199590 0.000000 0.000000 
#    y 0.000000 3.743550 0.000000 
#    z 0.000000 0.000000 3.811270 
# 
# 
# High freq. dielectric constant tensor:
#      x y z
#    x 1.863980 0.000000 0.000000 
#    y 0.000000 1.832620 0.000000 
#    z 0.000000 0.000000 1.855140 
# 
# From -- ./inp_files/10616.got.cif
#   From: 2010.03.12/outbox.cif.g09.slc.cpg/sg66_6_cif.got.tgz:10616.got - 2010.04.10 21:57:39.
