data_PCOD8276544
_publ_section_title
;
Structure prediction by ZEFSAII (Michael W. Deem and Ramdas Pophale) SiO2 
 PCOD8276544
Probable space group: C C C M
;
_chemical_formula_sum "Si O2"
_cell_formula_units_Z 116
_cell_length_a 18.802897
_cell_length_b 17.404897
_cell_length_c 18.174966
_cell_angle_alpha 90.000000
_cell_angle_beta 90.000000
_cell_angle_gamma 90.000000
_cell_volume 5947.984549
_symmetry_space_group_name_H-M "C C C M"
_symmetry_group_IT_number 66
_symmetry_cell_setting 'orthorhombic'
loop_
_space_group_symop_operation_xyz
x,y,z
-x,-y,z
x,-y,1/2-z
-x,y,1/2-z
-x,-y,-z
x,y,-z
-x,y,1/2+z
x,-y,1/2+z
1/2+x,1/2+y,z
1/2-x,1/2-y,z
1/2+x,1/2-y,1/2-z
1/2-x,1/2+y,1/2-z
1/2-x,1/2-y,-z
1/2+x,1/2+y,-z
1/2-x,1/2+y,1/2+z
1/2+x,1/2-y,1/2+z
loop_
_atom_site_type_symbol
_atom_site_label
_atom_site_fract_x
_atom_site_fract_y
_atom_site_fract_z
Si Si1 0.760310 0.950530 0.185386
Si Si2 0.500000 0.500000 0.750000
Si Si3 0.687031 0.578710 0.586540
Si Si4 0.199829 0.677820 0.415787
Si Si5 0.103258 0.876233 0.292487
Si Si6 0.086340 0.791412 0.149130
Si Si7 0.808730 0.313556 0.079869
Si Si8 0.567173 0.275135 0.583369
O O1 0.708907 0.894976 0.138891
O O2 0.817771 0.901060 0.232208
O O3 0.720045 0.000000 0.250000
O O4 0.811630 0.999104 0.130596
O O5 0.451208 0.553243 0.699151
O O6 0.679374 0.563604 0.500000
O O7 0.621830 0.634541 0.609398
O O8 0.766045 0.611552 0.606243
O O9 0.218340 0.654063 0.500000
O O10 0.250000 0.750000 0.392661
O O11 0.116071 0.698953 0.409889
O O12 0.075853 0.812433 0.234385
O O13 0.109066 0.841182 0.373434
O O14 0.134789 0.715158 0.140299
O O15 0.011203 0.765902 0.116153
O O16 0.750000 0.250000 0.066798
O O17 0.846531 0.327249 0.000000
O O18 0.560858 0.302437 0.500000
#
# Coordination Sequence:
#
# PCOD8276544 Si02
#       8
#    16   4  16  16  16  16  16  16
#     4  12  23  38  56  88 119 160 202 248 306 365
#     4  12  20  40  50  76 132 156 180 230 312 376
#     4  10  20  35  57  87 120 154 191 241 304 363
#     4  10  22  41  62  83 119 164 214 259 290 351
#     4  12  23  36  56  80 120 158 193 243 299 356
#     4  11  19  37  59  88 121 152 194 246 301 367
#     4   8  16  31  54  85 118 145 184 242 296 352
#     4  11  23  39  60  85 113 160 209 245 290 349
#
# _framework density 19.502405
#
# number of rings (size 3 to 8) (size 9 to 14) (size 15 to 20)
#    0.000    1.379    4.828    2.483    0.000    1.655 
#    2.483    0.345    0.000    0.828    0.000    4.828 
#    0.000    0.000    0.000    0.000    0.000    0.000 
#
# Total GULP energy -718721.160868 kJ/mol
# GULP energy per Si atom -12391.744153 kJ/mol
# Density = 1.945802 g / cm^3
# Si number density = 19.502405 Si / 1000 Ang^3
#
#
#
# Elastic Constant Matrix: (Units=GPa)
#
#
# Indices 1 2 3 4 5 6 
#
# 1 91.4906 38.7720 39.8984 0.0000 0.0000 0.0000
# 2 38.7720 57.8253 43.2563 0.0000 0.0000 0.0000
# 3 39.8984 43.2563 109.6516 0.0000 0.0000 0.0000
# 4 0.0000 0.0000 0.0000 34.2887 0.0000 0.0000
# 5 0.0000 0.0000 0.0000 0.0000 28.2363 0.0000
# 6 0.0000 0.0000 0.0000 0.0000 0.0000 30.7407
#
#
#
# Elastic Compliance Matrix: (Units=1/GPa)
#
#
# Indices 1 2 3 4 5 6 
#
# 1 0.015635 -0.008835 -0.002204 0.000000 0.000000 0.000000
# 2 -0.008835 0.029525 -0.008433 0.000000 0.000000 0.000000
# 3 -0.002204 -0.008433 0.013248 0.000000 0.000000 0.000000
# 4 0.000000 0.000000 0.000000 0.029164 0.000000 0.000000
# 5 0.000000 0.000000 0.000000 0.000000 0.035415 0.000000
# 6 0.000000 0.000000 0.000000 0.000000 0.000000 0.032530
#
#
# Mechanical properties :
#
#
# Convention : Reuss Voigt Hill
#
# Bulk Modulus (GPa) = 51.37156 55.86900 53.62028
# Shear Modulus (GPa) = 24.88178 27.78918 26.33548
#
# Velocity S-wave (km/s) = 3.57575 3.77889 3.67873
# Velocity P-wave (km/s) = 6.59138 6.91010 6.75262
#
# Compressibility (1/GPa) = 0.01946602
#
# Stress axis : x y z
#
# Youngs Moduli (GPa) = 63.95807 33.86917 75.48127
#
# Poissons Ratio (x) = 0.29923 0.16635
# Poissons Ratio (y) = 0.56506 0.63651
# Poissons Ratio (z) = 0.14096 0.28561
#
# Static dielectric constant tensor:
#      x y z
#    x 3.676320 0.000000 0.000000 
#    y 0.000000 3.682740 0.000000 
#    z 0.000000 0.000000 3.666070 
# 
# 
# High freq. dielectric constant tensor:
#      x y z
#    x 1.743660 0.000000 0.000000 
#    y 0.000000 1.733620 0.000000 
#    z 0.000000 0.000000 1.770360 
# 
# From -- ./inp_files/41840.got.cif
#   From: 2010.03.12/outbox.cif.g09.slc.cpg/sg66_21_cif.got.tgz:41840.got - 2010.04.10 21:57:39.
