data_PCOD8276357
_publ_section_title
;
Structure prediction by ZEFSAII (Michael W. Deem and Ramdas Pophale) SiO2 
 PCOD8276357
Probable space group: C C C M
;
_chemical_formula_sum "Si O2"
_cell_formula_units_Z 96
_cell_length_a 23.567554
_cell_length_b 13.110587
_cell_length_c 16.464742
_cell_angle_alpha 90.000000
_cell_angle_beta 90.000000
_cell_angle_gamma 90.000000
_cell_volume 5087.349533
_symmetry_space_group_name_H-M "C C C M"
_symmetry_group_IT_number 66
_symmetry_cell_setting 'orthorhombic'
loop_
_space_group_symop_operation_xyz
x,y,z
-x,-y,z
x,-y,1/2-z
-x,y,1/2-z
-x,-y,-z
x,y,-z
-x,y,1/2+z
x,-y,1/2+z
1/2+x,1/2+y,z
1/2-x,1/2-y,z
1/2+x,1/2-y,1/2-z
1/2-x,1/2+y,1/2-z
1/2-x,1/2-y,-z
1/2+x,1/2+y,-z
1/2-x,1/2+y,1/2+z
1/2+x,1/2-y,1/2+z
loop_
_atom_site_type_symbol
_atom_site_label
_atom_site_fract_x
_atom_site_fract_y
_atom_site_fract_z
Si Si1 0.051109 0.245959 0.185390
Si Si2 0.267746 0.366554 0.591563
Si Si3 0.873336 0.195998 0.181942
Si Si4 0.520359 0.605788 0.592965
Si Si5 0.156128 0.433287 0.667690
Si Si6 0.058936 0.553147 0.592818
O O1 0.104194 0.184063 0.225421
O O2 0.070586 0.356113 0.155560
O O3 0.000000 0.255499 0.250000
O O4 0.030893 0.184452 0.106740
O O5 0.284742 0.403688 0.500000
O O6 0.250000 0.250000 0.584787
O O7 0.319039 0.371763 0.657175
O O8 0.218230 0.438529 0.626602
O O9 0.922306 0.156447 0.123551
O O10 0.861467 0.316294 0.177411
O O11 0.500000 0.500000 0.636030
O O12 0.530572 0.583731 0.500000
O O13 0.156334 0.500000 0.750000
O O14 0.110785 0.475927 0.603750
O O15 0.056981 0.591421 0.500000
O O16 0.000000 0.500000 0.616836
#
# Coordination Sequence:
#
# PCOD8276357 Si02
#       6
#    16  16  16  16  16  16
#     4  10  20  33  53  81 115 154 190 240 291 351
#     4   9  19  36  58  83 111 146 197 249 291 339
#     4  10  20  36  60  82 114 154 198 243 298 346
#     4  10  21  37  57  83 117 152 195 248 299 345
#     4  11  21  36  57  87 121 157 191 246 298 351
#     4  11  22  33  53  86 123 163 197 230 292 366
#
# _framework density 18.870338
#
# number of rings (size 3 to 8) (size 9 to 14) (size 15 to 20)
#    0.000    1.833    1.667    3.500    0.000    6.333 
#    3.000    0.000    0.000    0.000    0.000    1.167 
#    0.000    0.000    0.000    0.000    0.000    0.000 
#
# Total GULP energy -594737.949374 kJ/mol
# GULP energy per Si atom -12390.373945 kJ/mol
# Density = 1.882739 g / cm^3
# Si number density = 18.870338 Si / 1000 Ang^3
#
#
#
# Elastic Constant Matrix: (Units=GPa)
#
#
# Indices 1 2 3 4 5 6 
#
# 1 142.5542 42.7105 51.1698 0.0000 0.0000 0.0000
# 2 42.7105 65.8509 21.8533 0.0000 0.0000 0.0000
# 3 51.1698 21.8533 77.0026 0.0000 0.0000 0.0000
# 4 0.0000 0.0000 0.0000 26.1388 0.0000 0.0000
# 5 0.0000 0.0000 0.0000 0.0000 21.5297 0.0000
# 6 0.0000 0.0000 0.0000 0.0000 0.0000 33.9355
#
#
#
# Elastic Compliance Matrix: (Units=1/GPa)
#
#
# Indices 1 2 3 4 5 6 
#
# 1 0.010501 -0.004962 -0.005570 0.000000 0.000000 0.000000
# 2 -0.004962 0.019110 -0.002126 0.000000 0.000000 0.000000
# 3 -0.005570 -0.002126 0.017291 0.000000 0.000000 0.000000
# 4 0.000000 0.000000 0.000000 0.038257 0.000000 0.000000
# 5 0.000000 0.000000 0.000000 0.000000 0.046447 0.000000
# 6 0.000000 0.000000 0.000000 0.000000 0.000000 0.029468
#
#
# Mechanical properties :
#
#
# Convention : Reuss Voigt Hill
#
# Bulk Modulus (GPa) = 46.32627 57.43055 51.87841
# Shear Modulus (GPa) = 25.82838 27.63241 26.73039
#
# Velocity S-wave (km/s) = 3.70365 3.83081 3.76776
# Velocity P-wave (km/s) = 6.54923 7.07581 6.81761
#
# Compressibility (1/GPa) = 0.02158603
#
# Stress axis : x y z
#
# Youngs Moduli (GPa) = 95.22975 52.32897 57.83337
#
# Poissons Ratio (x) = 0.25968 0.32212
# Poissons Ratio (y) = 0.47257 0.12294
# Poissons Ratio (z) = 0.53040 0.11124
#
# Static dielectric constant tensor:
#      x y z
#    x 3.712250 0.000000 0.000000 
#    y 0.000000 3.440710 0.000000 
#    z 0.000000 0.000000 3.570150 
# 
# 
# High freq. dielectric constant tensor:
#      x y z
#    x 1.731980 0.000000 0.000000 
#    y 0.000000 1.719500 0.000000 
#    z 0.000000 0.000000 1.735160 
# 
# From -- ./inp_files/38860.got.cif
#   From: 2010.03.12/outbox.cif.g09.slc.cpg/sg66_20_cif.got.tgz:38860.got - 2010.04.10 21:57:39.
