data_PCOD8276146
_publ_section_title
;
Structure prediction by ZEFSAII (Michael W. Deem and Ramdas Pophale) SiO2 
 PCOD8276146
Probable space group: C C C M
;
_chemical_formula_sum "Si O2"
_cell_formula_units_Z 128
_cell_length_a 12.622464
_cell_length_b 21.886087
_cell_length_c 24.548062
_cell_angle_alpha 90.000000
_cell_angle_beta 90.000000
_cell_angle_gamma 90.000000
_cell_volume 6781.557891
_symmetry_space_group_name_H-M "C C C M"
_symmetry_group_IT_number 66
_symmetry_cell_setting 'orthorhombic'
loop_
_space_group_symop_operation_xyz
x,y,z
-x,-y,z
x,-y,1/2-z
-x,y,1/2-z
-x,-y,-z
x,y,-z
-x,y,1/2+z
x,-y,1/2+z
1/2+x,1/2+y,z
1/2-x,1/2-y,z
1/2+x,1/2-y,1/2-z
1/2-x,1/2+y,1/2-z
1/2-x,1/2-y,-z
1/2+x,1/2+y,-z
1/2-x,1/2+y,1/2+z
1/2+x,1/2-y,1/2+z
loop_
_atom_site_type_symbol
_atom_site_label
_atom_site_fract_x
_atom_site_fract_y
_atom_site_fract_z
Si Si1 0.333286 0.303712 0.726575
Si Si2 0.333578 0.586340 0.939062
Si Si3 0.056799 0.147996 0.937414
Si Si4 0.114518 0.474789 0.151582
Si Si5 0.050015 0.223898 0.167319
Si Si6 0.477651 0.144047 0.189026
Si Si7 0.702366 0.898883 0.335307
Si Si8 0.226961 0.048104 0.939190
O O1 0.250000 0.250000 0.718073
O O2 0.370404 0.308366 0.789538
O O3 0.430529 0.289630 0.686439
O O4 0.277092 0.367971 0.710446
O O5 0.448565 0.612431 0.927177
O O6 0.251600 0.612163 0.894956
O O7 0.341331 0.513473 0.933027
O O8 0.294700 0.604642 0.000000
O O9 0.067152 0.202440 0.894409
O O10 0.151534 0.103027 0.922538
O O11 0.063921 0.171990 0.000000
O O12 0.099601 0.415381 0.190304
O O13 0.185582 0.528655 0.179251
O O14 0.168497 0.451083 0.097011
O O15 0.000000 0.500000 0.135187
O O16 0.076262 0.296209 0.163119
O O17 0.500000 0.164125 0.250000
O O18 0.587755 0.131548 0.158906
O O19 0.269609 0.056190 0.000000
#
# Coordination Sequence:
#
# PCOD8276146 Si02
#       8
#    16  16  16  16  16  16  16  16
#     4  11  20  37  60  85 114 155 193 238 286 348
#     4   9  17  32  56  83 113 152 195 240 290 351
#     4  10  20  35  56  84 118 152 191 243 294 350
#     4   9  21  36  57  86 111 146 191 246 292 345
#     4  11  22  36  59  89 113 154 200 235 284 357
#     4  11  21  39  57  80 111 151 198 235 289 358
#     4  10  19  35  59  85 115 145 189 246 295 339
#     4   9  18  34  55  81 112 154 197 231 288 356
#
# _framework density 18.874718999999999
#
# number of rings (size 3 to 8) (size 9 to 14) (size 15 to 20)
#    0.000    2.000    3.750    0.375    0.000    6.000 
#    0.000    4.375    0.000    4.125    0.000    0.000 
#    0.000    0.000    0.000    0.000    0.000    0.000 
#
# Total GULP energy -793349.510349 kJ/mol
# GULP energy per Si atom -12396.086099 kJ/mol
# Density = 1.883176 g / cm^3
# Si number density = 18.874719 Si / 1000 Ang^3
#
#
#
# Elastic Constant Matrix: (Units=GPa)
#
#
# Indices 1 2 3 4 5 6 
#
# 1 78.7218 49.4137 42.8594 0.0000 0.0000 0.0000
# 2 49.4137 120.8675 67.4173 0.0000 0.0000 0.0000
# 3 42.8594 67.4173 106.5182 0.0000 0.0000 0.0000
# 4 0.0000 0.0000 0.0000 32.1668 0.0000 0.0000
# 5 0.0000 0.0000 0.0000 0.0000 29.3793 0.0000
# 6 0.0000 0.0000 0.0000 0.0000 0.0000 4.6013
#
#
#
# Elastic Compliance Matrix: (Units=1/GPa)
#
#
# Indices 1 2 3 4 5 6 
#
# 1 0.018141 -0.005170 -0.004027 0.000000 0.000000 0.000000
# 2 -0.005170 0.014262 -0.006946 0.000000 0.000000 0.000000
# 3 -0.004027 -0.006946 0.015405 0.000000 0.000000 0.000000
# 4 0.000000 0.000000 0.000000 0.031088 0.000000 0.000000
# 5 0.000000 0.000000 0.000000 0.000000 0.034038 0.000000
# 6 0.000000 0.000000 0.000000 0.000000 0.000000 0.217329
#
#
# Mechanical properties :
#
#
# Convention : Reuss Voigt Hill
#
# Bulk Modulus (GPa) = 64.43080 69.49873 66.96477
# Shear Modulus (GPa) = 13.59724 22.99064 18.29394
#
# Velocity S-wave (km/s) = 2.68693 3.49387 3.11662
# Velocity P-wave (km/s) = 6.62089 7.29227 6.96467
#
# Compressibility (1/GPa) = 0.01552053
#
# Stress axis : x y z
#
# Youngs Moduli (GPa) = 55.12453 70.11805 64.91545
#
# Poissons Ratio (x) = 0.36253 0.26141
# Poissons Ratio (y) = 0.28501 0.45091
# Poissons Ratio (z) = 0.22198 0.48705
#
# Static dielectric constant tensor:
#      x y z
#    x 3.590680 0.000000 0.000000 
#    y 0.000000 3.559520 0.000000 
#    z 0.000000 0.000000 3.548030 
# 
# 
# High freq. dielectric constant tensor:
#      x y z
#    x 1.734280 0.000000 0.000000 
#    y 0.000000 1.730950 0.000000 
#    z 0.000000 0.000000 1.725550 
# 
# From -- ./inp_files/64034.got.cif
#   From: 2010.03.12/outbox.cif.g09.slc.cpg/sg66_33_cif.got.tgz:64034.got - 2010.04.10 21:57:39.
