data_PCOD8276461
_publ_section_title
;
Structure prediction by ZEFSAII (Michael W. Deem and Ramdas Pophale) SiO2 
 PCOD8276461
Probable space group: C C C M
;
_chemical_formula_sum "Si O2"
_cell_formula_units_Z 88
_cell_length_a 19.940267
_cell_length_b 8.832561
_cell_length_c 24.728553
_cell_angle_alpha 90.000000
_cell_angle_beta 90.000000
_cell_angle_gamma 90.000000
_cell_volume 4355.282386
_symmetry_space_group_name_H-M "C C C M"
_symmetry_group_IT_number 66
_symmetry_cell_setting 'orthorhombic'
loop_
_space_group_symop_operation_xyz
x,y,z
-x,-y,z
x,-y,1/2-z
-x,y,1/2-z
-x,-y,-z
x,y,-z
-x,y,1/2+z
x,-y,1/2+z
1/2+x,1/2+y,z
1/2-x,1/2-y,z
1/2+x,1/2-y,1/2-z
1/2-x,1/2+y,1/2-z
1/2-x,1/2-y,-z
1/2+x,1/2+y,-z
1/2-x,1/2+y,1/2+z
1/2+x,1/2-y,1/2+z
loop_
_atom_site_type_symbol
_atom_site_label
_atom_site_fract_x
_atom_site_fract_y
_atom_site_fract_z
Si Si1 0.175947 0.227682 0.225478
Si Si2 0.500000 0.500000 0.114871
Si Si3 0.295048 0.518577 0.625221
Si Si4 0.641781 0.964158 0.139862
Si Si5 0.608597 0.291643 0.562462
Si Si6 0.108210 0.206865 0.335859
O O1 0.250000 0.250000 0.251434
O O2 0.181627 0.095435 0.181512
O O3 0.148923 0.379682 0.197116
O O4 0.124878 0.185495 0.272674
O O5 0.451855 0.403993 0.076434
O O6 0.539934 0.383754 0.153200
O O7 0.216240 0.499233 0.617954
O O8 0.321319 0.624932 0.576642
O O9 0.331822 0.356588 0.625941
O O10 0.601993 0.863637 0.096283
O O11 0.599790 0.116968 0.148989
O O12 0.606633 0.248629 0.500000
#
# Coordination Sequence:
#
# PCOD8276461 Si02
#       6
#    16   8  16  16  16  16
#     4   9  17  32  57  87 118 149 177 215 277 341
#     4  10  25  42  57  76 104 150 202 236 268 326
#     4   9  19  34  57  91 119 143 179 220 273 343
#     4  10  20  34  58  92 117 139 181 229 280 337
#     4  10  21  41  63  79 107 147 185 231 283 332
#     4  11  20  35  56  81 117 155 186 224 268 321
#
# _framework density 20.205349999999999
#
# number of rings (size 3 to 8) (size 9 to 14) (size 15 to 20)
#    0.000    2.182    0.000    4.636    0.000    5.091 
#    0.000   21.818    0.000   14.182    0.000    0.000 
#    0.000    0.000    0.000    0.000    0.000    0.000 
#
# Total GULP energy -545594.488057 kJ/mol
# GULP energy per Si atom -12399.874729 kJ/mol
# Density = 2.015936 g / cm^3
# Si number density = 20.205350 Si / 1000 Ang^3
#
#
#
# Elastic Constant Matrix: (Units=GPa)
#
#
# Indices 1 2 3 4 5 6 
#
# 1 80.1175 32.9020 36.4919 0.0000 0.0000 0.0000
# 2 32.9020 130.1424 40.7899 0.0000 0.0000 0.0000
# 3 36.4919 40.7899 108.5623 0.0000 0.0000 0.0000
# 4 0.0000 0.0000 0.0000 11.1932 0.0000 0.0000
# 5 0.0000 0.0000 0.0000 0.0000 21.6981 0.0000
# 6 0.0000 0.0000 0.0000 0.0000 0.0000 28.8586
#
#
#
# Elastic Compliance Matrix: (Units=1/GPa)
#
#
# Indices 1 2 3 4 5 6 
#
# 1 0.015469 -0.002586 -0.004228 0.000000 0.000000 0.000000
# 2 -0.002586 0.009142 -0.002566 0.000000 0.000000 0.000000
# 3 -0.004228 -0.002566 0.011597 0.000000 0.000000 0.000000
# 4 0.000000 0.000000 0.000000 0.089340 0.000000 0.000000
# 5 0.000000 0.000000 0.000000 0.000000 0.046087 0.000000
# 6 0.000000 0.000000 0.000000 0.000000 0.000000 0.034652
#
#
# Mechanical properties :
#
#
# Convention : Reuss Voigt Hill
#
# Bulk Modulus (GPa) = 57.31175 59.90996 58.61085
# Shear Modulus (GPa) = 21.65795 26.25920 23.95858
#
# Velocity S-wave (km/s) = 3.27753 3.60893 3.44721
# Velocity P-wave (km/s) = 6.53828 6.86154 6.70186
#
# Compressibility (1/GPa) = 0.01744843
#
# Stress axis : x y z
#
# Youngs Moduli (GPa) = 64.64357 109.38851 86.23208
#
# Poissons Ratio (x) = 0.28284 0.36462
# Poissons Ratio (y) = 0.16714 0.22124
# Poissons Ratio (z) = 0.27334 0.28065
#
# Static dielectric constant tensor:
#      x y z
#    x 3.578670 0.000000 0.000000 
#    y 0.000000 3.829030 0.000000 
#    z 0.000000 0.000000 3.370560 
# 
# 
# High freq. dielectric constant tensor:
#      x y z
#    x 1.774740 0.000000 0.000000 
#    y 0.000000 1.802720 0.000000 
#    z 0.000000 0.000000 1.762590 
# 
# From -- ./inp_files/59395.got.cif
#   From: 2010.03.12/outbox.cif.g09.slc.cpg/sg66_30_cif.got.tgz:59395.got - 2010.04.10 21:57:39.
