data_PCOD8276195
_publ_section_title
;
Structure prediction by ZEFSAII (Michael W. Deem and Ramdas Pophale) SiO2 
 PCOD8276195
Probable space group: C C C M
;
_chemical_formula_sum "Si O2"
_cell_formula_units_Z 96
_cell_length_a 14.118322
_cell_length_b 15.028973
_cell_length_c 23.729426
_cell_angle_alpha 90.000000
_cell_angle_beta 90.000000
_cell_angle_gamma 90.000000
_cell_volume 5035.001682
_symmetry_space_group_name_H-M "C C C M"
_symmetry_group_IT_number 66
_symmetry_cell_setting 'orthorhombic'
loop_
_space_group_symop_operation_xyz
x,y,z
-x,-y,z
x,-y,1/2-z
-x,y,1/2-z
-x,-y,-z
x,y,-z
-x,y,1/2+z
x,-y,1/2+z
1/2+x,1/2+y,z
1/2-x,1/2-y,z
1/2+x,1/2-y,1/2-z
1/2-x,1/2+y,1/2-z
1/2-x,1/2-y,-z
1/2+x,1/2+y,-z
1/2-x,1/2+y,1/2+z
1/2+x,1/2-y,1/2+z
loop_
_atom_site_type_symbol
_atom_site_label
_atom_site_fract_x
_atom_site_fract_y
_atom_site_fract_z
Si Si1 0.925216 0.428601 0.899445
Si Si2 0.823250 0.172485 0.330002
Si Si3 0.301995 0.880190 0.000000
Si Si4 0.893958 0.188833 0.000000
Si Si5 0.776523 0.491009 0.815379
Si Si6 0.666989 0.320250 0.200696
Si Si7 0.511579 0.270244 0.886556
O O1 0.840168 0.426774 0.944079
O O2 0.877003 0.463236 0.842145
O O3 0.982765 0.336331 0.893321
O O4 0.000000 0.500000 0.921316
O O5 0.750000 0.250000 0.340376
O O6 0.861780 0.173717 0.266078
O O7 0.907976 0.191247 0.373386
O O8 0.769108 0.079851 0.342120
O O9 0.187644 0.886757 0.000000
O O10 0.338575 0.780459 0.000000
O O11 0.957272 0.180549 0.943972
O O12 0.801445 0.500000 0.750000
O O13 0.699316 0.414381 0.823984
O O14 0.750000 0.250000 0.190038
O O15 0.575862 0.292760 0.166458
#
# Coordination Sequence:
#
# PCOD8276195 Si02
#       7
#    16  16   8   8  16  16  16
#     4  11  21  35  57  86 116 151 196 240 294 349
#     4  10  22  38  55  82 123 155 190 232 295 359
#     4   9  19  36  57  83 113 148 188 252 295 343
#     4   9  20  34  60  85 109 143 207 244 291 344
#     4  10  21  37  56  84 117 155 190 239 293 349
#     4  10  19  36  60  84 113 152 194 240 292 346
#     4  11  21  37  60  86 112 154 197 244 289 348
#
# _framework density 19.066528000000002
#
# number of rings (size 3 to 8) (size 9 to 14) (size 15 to 20)
#    0.000    1.833    1.667    2.750    2.333    1.000 
#    3.000    3.750    0.000    2.000    0.000    0.000 
#    0.000    0.000    0.000    0.000    0.000    0.000 
#
# Total GULP energy -595200.447125 kJ/mol
# GULP energy per Si atom -12400.009315 kJ/mol
# Density = 1.902313 g / cm^3
# Si number density = 19.066528 Si / 1000 Ang^3
#
#
#
# Elastic Constant Matrix: (Units=GPa)
#
#
# Indices 1 2 3 4 5 6 
#
# 1 98.3558 43.9444 51.3402 0.0000 0.0000 0.0000
# 2 43.9444 113.8634 25.6503 0.0000 0.0000 0.0000
# 3 51.3402 25.6503 82.3712 0.0000 0.0000 0.0000
# 4 0.0000 0.0000 0.0000 367.6339 0.0000 0.0000
# 5 0.0000 0.0000 0.0000 0.0000 72.4972 0.0000
# 6 0.0000 0.0000 0.0000 0.0000 0.0000 17.4186
#
#
#
# Elastic Compliance Matrix: (Units=1/GPa)
#
#
# Indices 1 2 3 4 5 6 
#
# 1 0.016957 -0.004477 -0.009174 0.000000 0.000000 0.000000
# 2 -0.004477 0.010627 -0.000519 0.000000 0.000000 0.000000
# 3 -0.009174 -0.000519 0.018020 0.000000 0.000000 0.000000
# 4 0.000000 0.000000 0.000000 0.002720 0.000000 0.000000
# 5 0.000000 0.000000 0.000000 0.000000 0.013794 0.000000
# 6 0.000000 0.000000 0.000000 0.000000 0.000000 0.057410
#
#
# Mechanical properties :
#
#
# Convention : Reuss Voigt Hill
#
# Bulk Modulus (GPa) = 57.92807 59.60667 58.76737
# Shear Modulus (GPa) = 32.54729 103.08697 67.81713
#
# Velocity S-wave (km/s) = 4.13611 7.36100 5.97042
# Velocity P-wave (km/s) = 7.29780 10.17724 8.85534
#
# Compressibility (1/GPa) = 0.01726279
#
# Stress axis : x y z
#
# Youngs Moduli (GPa) = 58.97434 94.09716 55.49433
#
# Poissons Ratio (x) = 0.42132 0.50913
# Poissons Ratio (y) = 0.26405 0.02878
# Poissons Ratio (z) = 0.54105 0.04880
#
# Static dielectric constant tensor:
#      x y z
#    x 4.854130 0.000000 0.000000 
#    y 0.000000 3.652960 0.000000 
#    z 0.000000 0.000000 3.602250 
# 
# 
# High freq. dielectric constant tensor:
#      x y z
#    x 1.735230 0.000000 0.000000 
#    y 0.000000 1.740600 0.000000 
#    z 0.000000 0.000000 1.740880 
# 
# From -- ./inp_files/58176.got.cif
#   From: 2010.03.12/outbox.cif.g09.slc.cpg/sg66_30_cif.got.tgz:58176.got - 2010.04.10 21:57:39.
