data_PCOD8276609
_publ_section_title
;
Structure prediction by ZEFSAII (Michael W. Deem and Ramdas Pophale) SiO2 
 PCOD8276609
Probable space group: C C C M
;
_chemical_formula_sum "Si O2"
_cell_formula_units_Z 80
_cell_length_a 7.988356
_cell_length_b 27.823193
_cell_length_c 17.788028
_cell_angle_alpha 90.000000
_cell_angle_beta 90.000000
_cell_angle_gamma 90.000000
_cell_volume 3953.595044
_symmetry_space_group_name_H-M "C C C M"
_symmetry_group_IT_number 66
_symmetry_cell_setting 'orthorhombic'
loop_
_space_group_symop_operation_xyz
x,y,z
-x,-y,z
x,-y,1/2-z
-x,y,1/2-z
-x,-y,-z
x,y,-z
-x,y,1/2+z
x,-y,1/2+z
1/2+x,1/2+y,z
1/2-x,1/2-y,z
1/2+x,1/2-y,1/2-z
1/2-x,1/2+y,1/2-z
1/2-x,1/2-y,-z
1/2+x,1/2+y,-z
1/2-x,1/2+y,1/2+z
1/2+x,1/2-y,1/2+z
loop_
_atom_site_type_symbol
_atom_site_label
_atom_site_fract_x
_atom_site_fract_y
_atom_site_fract_z
Si Si1 0.468871 0.827968 0.414339
Si Si2 0.637973 0.357396 0.343590
Si Si3 0.340337 0.890190 0.797030
Si Si4 0.944461 0.239350 0.832042
Si Si5 0.551038 0.449652 0.164693
O O1 0.524743 0.835134 0.500000
O O2 0.285029 0.849286 0.402678
O O3 0.605593 0.853396 0.361445
O O4 0.459170 0.771816 0.393088
O O5 0.709669 0.362458 0.258211
O O6 0.499392 0.315482 0.345468
O O7 0.550761 0.406025 0.372690
O O8 0.500000 0.909114 0.750000
O O9 0.249524 0.936237 0.836075
O O10 0.750000 0.250000 0.843175
O O11 0.000000 0.257599 0.750000
O O12 0.500000 0.500000 0.123407
O O13 0.500000 0.455124 0.250000
#
# Coordination Sequence:
#
# PCOD8276609 Si02
#       5
#    16  16  16  16  16
#     4  11  23  37  54  79 111 147 187 230 273 318
#     4  10  20  36  57  81 112 145 179 222 275 333
#     4   9  18  36  59  83 112 146 182 225 276 327
#     4  12  22  35  57  82 110 146 183 220 272 336
#     4   9  17  33  59  89 113 137 179 231 277 321
#
# _framework density 20.234749999999998
#
# number of rings (size 3 to 8) (size 9 to 14) (size 15 to 20)
#    0.000    1.800    0.000    7.800    0.000    2.000 
#    0.000   20.000    0.000    3.600    0.000    0.000 
#    0.000    0.000    0.000    0.000    0.000    0.000 
#
# Total GULP energy -495859.664340 kJ/mol
# GULP energy per Si atom -12396.491609 kJ/mol
# Density = 2.018869 g / cm^3
# Si number density = 20.234750 Si / 1000 Ang^3
#
#
#
# Elastic Constant Matrix: (Units=GPa)
#
#
# Indices 1 2 3 4 5 6 
#
# 1 120.8330 88.9896 20.4321 0.0000 0.0000 0.0000
# 2 88.9896 173.3848 38.1196 0.0000 0.0000 0.0000
# 3 20.4321 38.1196 78.8956 0.0000 0.0000 0.0000
# 4 0.0000 0.0000 0.0000 -2.0711 0.0000 0.0000
# 5 0.0000 0.0000 0.0000 0.0000 14.0119 0.0000
# 6 0.0000 0.0000 0.0000 0.0000 0.0000 49.0030
#
#
#
# Elastic Compliance Matrix: (Units=1/GPa)
#
#
# Indices 1 2 3 4 5 6 
#
# 1 0.013307 -0.006794 -0.000164 0.000000 0.000000 0.000000
# 2 -0.006794 0.009922 -0.003034 0.000000 0.000000 0.000000
# 3 -0.000164 -0.003034 0.014183 0.000000 0.000000 0.000000
# 4 0.000000 0.000000 0.000000 -0.482841 0.000000 0.000000
# 5 0.000000 0.000000 0.000000 0.000000 0.071368 0.000000
# 6 0.000000 0.000000 0.000000 0.000000 0.000000 0.020407
#
#
# Mechanical properties :
#
#
# Convention : Reuss Voigt Hill
#
# Bulk Modulus (GPa) = 57.37761 74.24400 65.81081
# Shear Modulus (GPa) = -15.25037 27.22691 5.98827
#
# Velocity S-wave (km/s) = -2.74829 3.67216 1.72216
# Velocity P-wave (km/s) = 4.28331 7.39937 6.04555
#
# Compressibility (1/GPa) = 0.01742840
#
# Stress axis : x y z
#
# Youngs Moduli (GPa) = 75.14847 100.79073 70.50476
#
# Poissons Ratio (x) = 0.68475 0.01154
# Poissons Ratio (y) = 0.51054 0.21393
# Poissons Ratio (z) = 0.01230 0.30583
#
# Static dielectric constant tensor:
#      x y z
#    x 3.892220 0.000000 0.000000 
#    y 0.000000 4.296310 0.000000 
#    z 0.000000 0.000000 3.160010 
# 
# 
# High freq. dielectric constant tensor:
#      x y z
#    x 1.807830 0.000000 0.000000 
#    y 0.000000 1.787990 0.000000 
#    z 0.000000 0.000000 1.737160 
# 
# From -- ./inp_files/36962.got.cif
#   From: 2010.03.12/outbox.cif.g09.slc.cpg/sg66_19_cif.got.tgz:36962.got - 2010.04.10 21:57:39.
