data_PCOD8276886
_publ_section_title
;
Structure prediction by ZEFSAII (Michael W. Deem and Ramdas Pophale) SiO2 
 PCOD8276886
Probable space group: C C C M
;
_chemical_formula_sum "Si O2"
_cell_formula_units_Z 116
_cell_length_a 21.050383
_cell_length_b 23.858990
_cell_length_c 14.872299
_cell_angle_alpha 90.000000
_cell_angle_beta 90.000000
_cell_angle_gamma 90.000000
_cell_volume 7469.476500
_symmetry_space_group_name_H-M "C C C M"
_symmetry_group_IT_number 66
_symmetry_cell_setting 'orthorhombic'
loop_
_space_group_symop_operation_xyz
x,y,z
-x,-y,z
x,-y,1/2-z
-x,y,1/2-z
-x,-y,-z
x,y,-z
-x,y,1/2+z
x,-y,1/2+z
1/2+x,1/2+y,z
1/2-x,1/2-y,z
1/2+x,1/2-y,1/2-z
1/2-x,1/2+y,1/2-z
1/2-x,1/2-y,-z
1/2+x,1/2+y,-z
1/2-x,1/2+y,1/2+z
1/2+x,1/2-y,1/2+z
loop_
_atom_site_type_symbol
_atom_site_label
_atom_site_fract_x
_atom_site_fract_y
_atom_site_fract_z
Si Si1 0.905387 0.517278 0.603141
Si Si2 0.939103 0.710684 0.896095
Si Si3 0.738104 0.839900 0.230784
Si Si4 0.914957 0.720344 0.601798
Si Si5 0.351145 0.266808 0.233702
Si Si6 0.145317 0.605416 0.603618
Si Si7 0.000000 0.500000 0.250000
Si Si8 0.320965 0.879755 0.099103
O O1 0.932620 0.520803 0.500000
O O2 0.883255 0.454764 0.627964
O O3 0.956933 0.535894 0.679067
O O4 0.844751 0.557037 0.612215
O O5 0.905595 0.760710 0.841203
O O6 0.908542 0.650749 0.870422
O O7 0.012679 0.709414 0.869829
O O8 0.928671 0.724427 0.000000
O O9 0.697425 0.783941 0.224659
O O10 0.812428 0.824588 0.216284
O O11 0.710702 0.883734 0.158049
O O12 0.733856 0.866849 0.329816
O O13 0.909290 0.743174 0.500000
O O14 0.882909 0.766234 0.667143
O O15 0.881337 0.660522 0.613077
O O16 0.164449 0.609320 0.500000
O O17 0.291427 0.871245 0.000000
#
# Coordination Sequence:
#
# PCOD8276886 Si02
#       8
#    16  16  16  16  16  16   4  16
#     4  10  21  33  43  60  85 113 146 180 214 244
#     4   9  17  28  42  60  83 111 140 170 207 247
#     4   9  17  29  43  60  77 102 141 178 213 248
#     4   9  17  28  42  60  83 111 140 170 207 247
#     4   9  17  28  42  59  80 103 136 178 212 247
#     4   9  18  31  44  59  82 111 143 177 209 243
#     4  12  22  28  40  58  80 112 146 180 210 242
#     4   9  18  31  44  59  82 111 143 177 209 243
#
# _framework density 15.529871
#
# number of rings (size 3 to 8) (size 9 to 14) (size 15 to 20)
#    0.000    2.759    0.000    1.448    1.931    1.103 
#    0.000    5.517    0.000    0.000    0.000    0.000 
#    0.000    0.000    0.000    9.931    0.000   57.379 
#
# Total GULP energy -718869.196725 kJ/mol
# GULP energy per Si atom -12394.296495 kJ/mol
# Density = 1.549452 g / cm^3
# Si number density = 15.529871 Si / 1000 Ang^3
#
#
#
# Elastic Constant Matrix: (Units=GPa)
#
#
# Indices 1 2 3 4 5 6 
#
# 1 60.4955 31.8175 31.0297 0.0000 0.0000 0.0000
# 2 31.8175 38.0139 25.3267 0.0000 0.0000 0.0000
# 3 31.0297 25.3267 80.2113 0.0000 0.0000 0.0000
# 4 0.0000 0.0000 0.0000 16.7321 0.0000 0.0000
# 5 0.0000 0.0000 0.0000 0.0000 21.5831 0.0000
# 6 0.0000 0.0000 0.0000 0.0000 0.0000 12.1074
#
#
#
# Elastic Compliance Matrix: (Units=1/GPa)
#
#
# Indices 1 2 3 4 5 6 
#
# 1 0.030923 -0.022685 -0.004800 0.000000 0.000000 0.000000
# 2 -0.022685 0.049955 -0.006998 0.000000 0.000000 0.000000
# 3 -0.004800 -0.006998 0.016533 0.000000 0.000000 0.000000
# 4 0.000000 0.000000 0.000000 0.059765 0.000000 0.000000
# 5 0.000000 0.000000 0.000000 0.000000 0.046333 0.000000
# 6 0.000000 0.000000 0.000000 0.000000 0.000000 0.082594
#
#
# Mechanical properties :
#
#
# Convention : Reuss Voigt Hill
#
# Bulk Modulus (GPa) = 35.15284 39.45205 37.30245
# Shear Modulus (GPa) = 13.71549 16.12097 14.91823
#
# Velocity S-wave (km/s) = 2.97504 3.22539 3.10274
# Velocity P-wave (km/s) = 5.87247 6.27136 6.07519
#
# Compressibility (1/GPa) = 0.02844720
#
# Stress axis : x y z
#
# Youngs Moduli (GPa) = 32.33830 20.01786 60.48331
#
# Poissons Ratio (x) = 0.45410 0.29031
# Poissons Ratio (y) = 0.73358 0.42326
# Poissons Ratio (z) = 0.15522 0.14008
#
# Static dielectric constant tensor:
#      x y z
#    x 2.931010 0.000000 0.000000 
#    y 0.000000 2.740710 0.000000 
#    z 0.000000 0.000000 3.240830 
# 
# 
# High freq. dielectric constant tensor:
#      x y z
#    x 1.566420 0.000000 0.000000 
#    y 0.000000 1.549920 0.000000 
#    z 0.000000 0.000000 1.619330 
# 
# From -- ./inp_files/30454.got.cif
#   From: 2010.03.12/outbox.cif.g09.slc.cpg/sg66_16_cif.got.tgz:30454.got - 2010.04.10 21:57:39.
