data_PCOD8276219
_publ_section_title
;
Structure prediction by ZEFSAII (Michael W. Deem and Ramdas Pophale) SiO2 
 PCOD8276219
Probable space group: C C C M
;
_chemical_formula_sum "Si O2"
_cell_formula_units_Z 112
_cell_length_a 15.164818
_cell_length_b 14.664064
_cell_length_c 27.855331
_cell_angle_alpha 90.000000
_cell_angle_beta 90.000000
_cell_angle_gamma 90.000000
_cell_volume 6194.408945
_symmetry_space_group_name_H-M "C C C M"
_symmetry_group_IT_number 66
_symmetry_cell_setting 'orthorhombic'
loop_
_space_group_symop_operation_xyz
x,y,z
-x,-y,z
x,-y,1/2-z
-x,y,1/2-z
-x,-y,-z
x,y,-z
-x,y,1/2+z
x,-y,1/2+z
1/2+x,1/2+y,z
1/2-x,1/2-y,z
1/2+x,1/2-y,1/2-z
1/2-x,1/2+y,1/2-z
1/2-x,1/2-y,-z
1/2+x,1/2+y,-z
1/2-x,1/2+y,1/2+z
1/2+x,1/2-y,1/2+z
loop_
_atom_site_type_symbol
_atom_site_label
_atom_site_fract_x
_atom_site_fract_y
_atom_site_fract_z
Si Si1 0.228884 0.501619 0.307019
Si Si2 0.081238 0.044047 0.302149
Si Si3 0.904422 0.611729 0.054191
Si Si4 0.990242 0.245503 0.803186
Si Si5 0.110412 0.402006 0.553721
Si Si6 0.827475 0.677401 0.645977
Si Si7 0.164599 0.689751 0.648604
O O1 0.229817 0.500000 0.250000
O O2 0.327575 0.482863 0.328308
O O3 0.176075 0.414777 0.324166
O O4 0.182052 0.593014 0.325663
O O5 0.057871 0.149047 0.296448
O O6 0.086073 0.000000 0.250000
O O7 0.000000 0.000000 0.332110
O O8 0.871017 0.508743 0.061585
O O9 0.855014 0.675522 0.092331
O O10 0.008274 0.618230 0.063369
O O11 0.881903 0.644566 0.000000
O O12 0.924801 0.294037 0.839322
O O13 0.000000 0.289406 0.750000
O O14 0.086630 0.251602 0.826973
O O15 0.136709 0.372809 0.500000
O O16 0.172086 0.343359 0.589155
O O17 0.750000 0.750000 0.658218
O O18 0.250000 0.750000 0.654904
#
# Coordination Sequence:
#
# PCOD8276219 Si02
#       7
#    16  16  16  16  16  16  16
#     4  11  24  39  56  83 123 162 197 248 294 344
#     4  10  19  37  60  76 108 164 211 236 275 336
#     4   9  18  37  63  85 109 149 193 241 302 366
#     4  12  24  38  58  88 119 160 204 244 286 348
#     4   9  18  37  63  85 111 147 191 244 304 364
#     4  12  23  38  61  90 118 151 202 251 301 354
#     4  12  25  38  59  90 120 154 203 248 296 353
#
# _framework density 18.080822000000001
#
# number of rings (size 3 to 8) (size 9 to 14) (size 15 to 20)
#    0.000    1.286    5.714    2.571    2.000    2.286 
#    0.000    1.429    0.000    0.000    0.000    0.000 
#    0.000    9.143    0.000    0.000    0.000    0.000 
#
# Total GULP energy -693876.897958 kJ/mol
# GULP energy per Si atom -12390.658892 kJ/mol
# Density = 1.803967 g / cm^3
# Si number density = 18.080822 Si / 1000 Ang^3
#
#
#
# Elastic Constant Matrix: (Units=GPa)
#
#
# Indices 1 2 3 4 5 6 
#
# 1 93.2491 28.2849 31.7186 0.0000 0.0000 0.0000
# 2 28.2849 86.7486 32.0081 0.0000 0.0000 0.0000
# 3 31.7186 32.0081 108.0462 0.0000 0.0000 0.0000
# 4 0.0000 0.0000 0.0000 7.1958 0.0000 0.0000
# 5 0.0000 0.0000 0.0000 0.0000 26.4066 0.0000
# 6 0.0000 0.0000 0.0000 0.0000 0.0000 22.4414
#
#
#
# Elastic Compliance Matrix: (Units=1/GPa)
#
#
# Indices 1 2 3 4 5 6 
#
# 1 0.012607 -0.003082 -0.002788 0.000000 0.000000 0.000000
# 2 -0.003082 0.013696 -0.003153 0.000000 0.000000 0.000000
# 3 -0.002788 -0.003153 0.011008 0.000000 0.000000 0.000000
# 4 0.000000 0.000000 0.000000 0.138970 0.000000 0.000000
# 5 0.000000 0.000000 0.000000 0.000000 0.037869 0.000000
# 6 0.000000 0.000000 0.000000 0.000000 0.000000 0.044561
#
#
# Mechanical properties :
#
#
# Convention : Reuss Voigt Hill
#
# Bulk Modulus (GPa) = 51.90611 52.45190 52.17901
# Shear Modulus (GPa) = 17.65677 24.27757 20.96717
#
# Velocity S-wave (km/s) = 3.12837 3.66830 3.40904
# Velocity P-wave (km/s) = 6.46676 6.85671 6.66459
#
# Compressibility (1/GPa) = 0.01926555
#
# Stress axis : x y z
#
# Youngs Moduli (GPa) = 79.32016 73.01590 90.84573
#
# Poissons Ratio (x) = 0.22503 0.25328
# Poissons Ratio (y) = 0.24446 0.28639
# Poissons Ratio (z) = 0.22115 0.23018
#
# Static dielectric constant tensor:
#      x y z
#    x 3.945480 0.000000 0.000000 
#    y 0.000000 4.152880 0.000000 
#    z 0.000000 0.000000 3.352430 
# 
# 
# High freq. dielectric constant tensor:
#      x y z
#    x 1.706790 0.000000 0.000000 
#    y 0.000000 1.696140 0.000000 
#    z 0.000000 0.000000 1.691070 
# 
# From -- ./inp_files/58235.got.cif
#   From: 2010.03.12/outbox.cif.g09.slc.cpg/sg66_30_cif.got.tgz:58235.got - 2010.04.10 21:57:39.
