data_PCOD8276173
_publ_section_title
;
Structure prediction by ZEFSAII (Michael W. Deem and Ramdas Pophale) SiO2 
 PCOD8276173
Probable space group: C C C M
;
_chemical_formula_sum "Si O2"
_cell_formula_units_Z 116
_cell_length_a 17.527511
_cell_length_b 27.348789
_cell_length_c 14.287636
_cell_angle_alpha 90.000000
_cell_angle_beta 90.000000
_cell_angle_gamma 90.000000
_cell_volume 6848.866900
_symmetry_space_group_name_H-M "C C C M"
_symmetry_group_IT_number 66
_symmetry_cell_setting 'orthorhombic'
loop_
_space_group_symop_operation_xyz
x,y,z
-x,-y,z
x,-y,1/2-z
-x,y,1/2-z
-x,-y,-z
x,y,-z
-x,y,1/2+z
x,-y,1/2+z
1/2+x,1/2+y,z
1/2-x,1/2-y,z
1/2+x,1/2-y,1/2-z
1/2-x,1/2+y,1/2-z
1/2-x,1/2-y,-z
1/2+x,1/2+y,-z
1/2-x,1/2+y,1/2+z
1/2+x,1/2-y,1/2+z
loop_
_atom_site_type_symbol
_atom_site_label
_atom_site_fract_x
_atom_site_fract_y
_atom_site_fract_z
Si Si1 0.144346 0.404172 0.109698
Si Si2 0.000000 0.500000 0.750000
Si Si3 0.510866 0.139064 0.106904
Si Si4 0.873861 0.234044 0.730480
Si Si5 0.771547 0.329074 0.270142
Si Si6 0.986607 0.753470 0.608003
Si Si7 0.378265 0.014315 0.606591
Si Si8 0.675774 0.114544 0.893892
O O1 0.061656 0.388685 0.152286
O O2 0.210839 0.372117 0.156250
O O3 0.156808 0.461485 0.133272
O O4 0.148508 0.393134 0.000000
O O5 0.945815 0.530219 0.678219
O O6 0.499916 0.196257 0.120268
O O7 0.591659 0.123824 0.150349
O O8 0.514627 0.122664 0.000000
O O9 0.835026 0.287029 0.721696
O O10 0.812179 0.191986 0.713213
O O11 0.912525 0.229671 0.833235
O O12 0.936338 0.223598 0.650265
O O13 0.766657 0.353686 0.167447
O O14 0.975280 0.769097 0.500000
O O15 0.410733 0.013334 0.500000
O O16 0.311946 0.055703 0.613589
O O17 0.684083 0.133591 0.000000
#
# Coordination Sequence:
#
# PCOD8276173 Si02
#       8
#    16   4  16  16  16  16  16  16
#     4  10  20  33  48  68  98 133 170 207 241 281
#     4  12  18  28  44  62  92 132 170 214 244 254
#     4   9  16  27  45  66  90 131 171 198 230 268
#     4  10  22  34  50  74  95 125 166 205 245 291
#     4  11  21  33  49  72 100 126 162 206 246 292
#     4  10  19  36  54  69  94 129 167 205 243 284
#     4  10  21  33  45  66  95 131 173 208 239 282
#     4  10  20  33  48  68  98 133 170 207 241 281
#
# _framework density 16.937107999999998
#
# number of rings (size 3 to 8) (size 9 to 14) (size 15 to 20)
#    0.000    1.931    2.759    1.862    0.000    3.862 
#    0.000    2.759    0.000    0.000    0.000    0.000 
#    0.000    8.828    0.000   24.828    0.000    0.000 
#
# Total GULP energy -718786.052225 kJ/mol
# GULP energy per Si atom -12392.862969 kJ/mol
# Density = 1.689856 g / cm^3
# Si number density = 16.937108 Si / 1000 Ang^3
#
#
#
# Elastic Constant Matrix: (Units=GPa)
#
#
# Indices 1 2 3 4 5 6 
#
# 1 70.1895 34.5230 22.9094 0.0000 0.0000 0.0000
# 2 34.5230 79.7625 22.6601 0.0000 0.0000 0.0000
# 3 22.9094 22.6601 81.7493 0.0000 0.0000 0.0000
# 4 0.0000 0.0000 0.0000 20.9869 0.0000 0.0000
# 5 0.0000 0.0000 0.0000 0.0000 17.9228 0.0000
# 6 0.0000 0.0000 0.0000 0.0000 0.0000 20.5517
#
#
#
# Elastic Compliance Matrix: (Units=1/GPa)
#
#
# Indices 1 2 3 4 5 6 
#
# 1 0.018879 -0.007238 -0.003284 0.000000 0.000000 0.000000
# 2 -0.007238 0.016384 -0.002513 0.000000 0.000000 0.000000
# 3 -0.003284 -0.002513 0.013850 0.000000 0.000000 0.000000
# 4 0.000000 0.000000 0.000000 0.047649 0.000000 0.000000
# 5 0.000000 0.000000 0.000000 0.000000 0.055795 0.000000
# 6 0.000000 0.000000 0.000000 0.000000 0.000000 0.048658
#
#
# Mechanical properties :
#
#
# Convention : Reuss Voigt Hill
#
# Bulk Modulus (GPa) = 43.39995 43.54291 43.47143
# Shear Modulus (GPa) = 21.27963 21.99952 21.63958
#
# Velocity S-wave (km/s) = 3.54841 3.60793 3.57829
# Velocity P-wave (km/s) = 6.51675 6.56663 6.54174
#
# Compressibility (1/GPa) = 0.02304150
#
# Stress axis : x y z
#
# Youngs Moduli (GPa) = 52.96794 61.03484 72.20472
#
# Poissons Ratio (x) = 0.44179 0.23714
# Poissons Ratio (y) = 0.38340 0.18145
# Poissons Ratio (z) = 0.17396 0.15338
#
# Static dielectric constant tensor:
#      x y z
#    x 2.843850 0.000000 0.000000 
#    y 0.000000 3.106710 0.000000 
#    z 0.000000 0.000000 3.336250 
# 
# 
# High freq. dielectric constant tensor:
#      x y z
#    x 1.600120 0.000000 0.000000 
#    y 0.000000 1.641490 0.000000 
#    z 0.000000 0.000000 1.670760 
# 
# From -- ./inp_files/30452.got.cif
#   From: 2010.03.12/outbox.cif.g09.slc.cpg/sg66_16_cif.got.tgz:30452.got - 2010.04.10 21:57:39.
