data_PCOD8276374
_publ_section_title
;
Structure prediction by ZEFSAII (Michael W. Deem and Ramdas Pophale) SiO2 
 PCOD8276374
Probable space group: C C C M
;
_chemical_formula_sum "Si O2"
_cell_formula_units_Z 96
_cell_length_a 20.054835
_cell_length_b 15.505024
_cell_length_c 13.906509
_cell_angle_alpha 90.000000
_cell_angle_beta 90.000000
_cell_angle_gamma 90.000000
_cell_volume 4324.238680
_symmetry_space_group_name_H-M "C C C M"
_symmetry_group_IT_number 66
_symmetry_cell_setting 'orthorhombic'
loop_
_space_group_symop_operation_xyz
x,y,z
-x,-y,z
x,-y,1/2-z
-x,y,1/2-z
-x,-y,-z
x,y,-z
-x,y,1/2+z
x,-y,1/2+z
1/2+x,1/2+y,z
1/2-x,1/2-y,z
1/2+x,1/2-y,1/2-z
1/2-x,1/2+y,1/2-z
1/2-x,1/2-y,-z
1/2+x,1/2+y,-z
1/2-x,1/2+y,1/2+z
1/2+x,1/2-y,1/2+z
loop_
_atom_site_type_symbol
_atom_site_label
_atom_site_fract_x
_atom_site_fract_y
_atom_site_fract_z
Si Si1 0.396881 0.205709 0.893328
Si Si2 0.484042 0.907201 0.139217
Si Si3 0.908041 0.928386 0.385894
Si Si4 0.729119 0.347758 0.112309
Si Si5 0.648332 0.095458 0.219533
Si Si6 0.552600 0.613568 0.885867
O O1 0.470217 0.164672 0.909630
O O2 0.352651 0.155367 0.815015
O O3 0.406749 0.302411 0.852536
O O4 0.362453 0.205453 0.000000
O O5 0.500000 0.911972 0.250000
O O6 0.405827 0.878563 0.136237
O O7 0.500000 0.000000 0.090171
O O8 0.908205 0.927922 0.500000
O O9 0.844688 0.872598 0.349527
O O10 0.976274 0.885803 0.345078
O O11 0.907050 0.028617 0.349961
O O12 0.750000 0.250000 0.135222
O O13 0.779397 0.406939 0.172232
O O14 0.736136 0.368637 0.000000
O O15 0.627652 0.000000 0.250000
O O16 0.546878 0.612485 0.000000
#
# Coordination Sequence:
#
# PCOD8276374 Si02
#       6
#    16  16  16  16  16  16
#     4  10  20  33  59  94 121 156 206 251 306 376
#     4   9  16  34  53  78 116 152 193 250 300 351
#     4   8  15  33  58  89 124 152 192 252 313 370
#     4  10  23  41  63  91 121 162 212 255 309 381
#     4  11  22  41  58  83 125 163 200 250 310 370
#     4   8  15  30  59  93 122 152 191 253 316 367
#
# _framework density 22.200441000000001
#
# number of rings (size 3 to 8) (size 9 to 14) (size 15 to 20)
#    0.000    2.667    3.333    1.000    2.333    1.667 
#    3.000    0.000    0.000    0.500    0.000    0.000 
#    0.000    0.000    0.000    1.833    0.000    0.167 
#
# Total GULP energy -594770.479790 kJ/mol
# GULP energy per Si atom -12391.051662 kJ/mol
# Density = 2.214991 g / cm^3
# Si number density = 22.200441 Si / 1000 Ang^3
#
#
#
# Elastic Constant Matrix: (Units=GPa)
#
#
# Indices 1 2 3 4 5 6 
#
# 1 121.6209 38.1266 33.7393 0.0000 0.0000 0.0000
# 2 38.1266 126.5678 28.5437 0.0000 0.0000 0.0000
# 3 33.7393 28.5437 56.3354 0.0000 0.0000 0.0000
# 4 0.0000 0.0000 0.0000 19.4889 0.0000 0.0000
# 5 0.0000 0.0000 0.0000 0.0000 23.7865 0.0000
# 6 0.0000 0.0000 0.0000 0.0000 0.0000 29.5148
#
#
#
# Elastic Compliance Matrix: (Units=1/GPa)
#
#
# Indices 1 2 3 4 5 6 
#
# 1 0.010260 -0.001925 -0.005169 0.000000 0.000000 0.000000
# 2 -0.001925 0.009281 -0.003550 0.000000 0.000000 0.000000
# 3 -0.005169 -0.003550 0.022645 0.000000 0.000000 0.000000
# 4 0.000000 0.000000 0.000000 0.051311 0.000000 0.000000
# 5 0.000000 0.000000 0.000000 0.000000 0.042041 0.000000
# 6 0.000000 0.000000 0.000000 0.000000 0.000000 0.033881
#
#
# Mechanical properties :
#
#
# Convention : Reuss Voigt Hill
#
# Bulk Modulus (GPa) = 47.85038 56.14925 51.99982
# Shear Modulus (GPa) = 25.29423 28.16568 26.72995
#
# Velocity S-wave (km/s) = 3.37910 3.56574 3.47368
# Velocity P-wave (km/s) = 6.06836 6.50381 6.28986
#
# Compressibility (1/GPa) = 0.02089848
#
# Stress axis : x y z
#
# Youngs Moduli (GPa) = 97.46870 107.74383 44.15919
#
# Poissons Ratio (x) = 0.20738 0.22827
# Poissons Ratio (y) = 0.18761 0.15676
# Poissons Ratio (z) = 0.50385 0.38247
#
# Static dielectric constant tensor:
#      x y z
#    x 4.483510 0.000000 0.000000 
#    y 0.000000 4.275480 0.000000 
#    z 0.000000 0.000000 6.076480 
# 
# 
# High freq. dielectric constant tensor:
#      x y z
#    x 1.850330 0.000000 0.000000 
#    y 0.000000 1.875480 0.000000 
#    z 0.000000 0.000000 1.865890 
# 
# From -- ./inp_files/31183.got.cif
#   From: 2010.03.12/outbox.cif.g09.slc.cpg/sg66_16_cif.got.tgz:31183.got - 2010.04.10 21:57:39.
