data_PCOD8276422
_publ_section_title
;
Structure prediction by ZEFSAII (Michael W. Deem and Ramdas Pophale) SiO2 
 PCOD8276422
Probable space group: C C C M
;
_chemical_formula_sum "Si O2"
_cell_formula_units_Z 96
_cell_length_a 8.232790
_cell_length_b 23.759555
_cell_length_c 23.948747
_cell_angle_alpha 90.000000
_cell_angle_beta 90.000000
_cell_angle_gamma 90.000000
_cell_volume 4684.552776
_symmetry_space_group_name_H-M "C C C M"
_symmetry_group_IT_number 66
_symmetry_cell_setting 'orthorhombic'
loop_
_space_group_symop_operation_xyz
x,y,z
-x,-y,z
x,-y,1/2-z
-x,y,1/2-z
-x,-y,-z
x,y,-z
-x,y,1/2+z
x,-y,1/2+z
1/2+x,1/2+y,z
1/2-x,1/2-y,z
1/2+x,1/2-y,1/2-z
1/2-x,1/2+y,1/2-z
1/2-x,1/2-y,-z
1/2+x,1/2+y,-z
1/2-x,1/2+y,1/2+z
1/2+x,1/2-y,1/2+z
loop_
_atom_site_type_symbol
_atom_site_label
_atom_site_fract_x
_atom_site_fract_y
_atom_site_fract_z
Si Si1 0.117111 0.202525 0.060933
Si Si2 0.667957 0.695793 0.360453
Si Si3 0.007696 0.091884 0.686804
Si Si4 0.721515 0.902661 0.892078
Si Si5 0.162058 0.021718 0.410620
Si Si6 0.118260 0.622926 0.063522
O O1 0.250000 0.250000 0.068121
O O2 0.187714 0.139133 0.065293
O O3 0.992636 0.217037 0.109172
O O4 0.034997 0.206391 0.000000
O O5 0.750000 0.750000 0.330289
O O6 0.619155 0.648378 0.315514
O O7 0.785337 0.674255 0.409689
O O8 0.097086 0.044838 0.649359
O O9 0.000000 0.070413 0.750000
O O10 0.821585 0.103507 0.666274
O O11 0.530882 0.887527 0.893476
O O12 0.720549 0.968246 0.907804
O O13 0.260333 0.069917 0.442053
O O14 0.000000 0.000000 0.443366
O O15 0.059659 0.637100 0.000000
#
# Coordination Sequence:
#
# PCOD8276422 Si02
#       6
#    16  16  16  16  16  16
#     4  10  20  34  54  80 112 155 200 239 287 346
#     4  10  21  37  55  81 114 147 192 242 289 351
#     4   9  20  41  63  81 107 148 191 241 299 348
#     4  10  20  34  55  83 112 143 190 243 288 345
#     4   9  20  36  55  81 112 147 193 241 289 350
#     4  11  22  35  54  82 119 158 190 232 293 355
#
# _framework density 20.492884
#
# number of rings (size 3 to 8) (size 9 to 14) (size 15 to 20)
#    0.000    2.167    0.000    3.500    0.000    8.000 
#    0.000   10.833    0.000    8.000    0.000    0.000 
#    0.000    0.000    0.000    0.000    0.000    0.000 
#
# Total GULP energy -594636.191549 kJ/mol
# GULP energy per Si atom -12388.253991 kJ/mol
# Density = 2.044624 g / cm^3
# Si number density = 20.492884 Si / 1000 Ang^3
#
#
#
# Elastic Constant Matrix: (Units=GPa)
#
#
# Indices 1 2 3 4 5 6 
#
# 1 79.0034 9.4504 17.4748 0.0000 0.0000 0.0000
# 2 9.4504 102.0955 3.7571 0.0000 0.0000 0.0000
# 3 17.4748 3.7571 76.9073 0.0000 0.0000 0.0000
# 4 0.0000 0.0000 0.0000 4.0101 0.0000 0.0000
# 5 0.0000 0.0000 0.0000 0.0000 4.1897 0.0000
# 6 0.0000 0.0000 0.0000 0.0000 0.0000 35.4286
#
#
#
# Elastic Compliance Matrix: (Units=1/GPa)
#
#
# Indices 1 2 3 4 5 6 
#
# 1 0.013458 -0.001135 -0.003002 0.000000 0.000000 0.000000
# 2 -0.001135 0.009908 -0.000226 0.000000 0.000000 0.000000
# 3 -0.003002 -0.000226 0.013696 0.000000 0.000000 0.000000
# 4 0.000000 0.000000 0.000000 0.249371 0.000000 0.000000
# 5 0.000000 0.000000 0.000000 0.000000 0.238678 0.000000
# 6 0.000000 0.000000 0.000000 0.000000 0.000000 0.028226
#
#
# Mechanical properties :
#
#
# Convention : Reuss Voigt Hill
#
# Bulk Modulus (GPa) = 35.29288 35.48562 35.38925
# Shear Modulus (GPa) = 8.74879 23.88061 16.31470
#
# Velocity S-wave (km/s) = 2.06844 3.41737 2.82461
# Velocity P-wave (km/s) = 4.79208 5.73802 5.28625
#
# Compressibility (1/GPa) = 0.02833433
#
# Stress axis : x y z
#
# Youngs Moduli (GPa) = 74.30757 100.92697 73.01448
#
# Poissons Ratio (x) = 0.11457 0.21922
# Poissons Ratio (y) = 0.08435 0.01651
# Poissons Ratio (z) = 0.22310 0.02282
#
# Static dielectric constant tensor:
#      x y z
#    x 3.931750 0.000000 0.000000 
#    y 0.000000 3.943620 0.000000 
#    z 0.000000 0.000000 3.214950 
# 
# 
# High freq. dielectric constant tensor:
#      x y z
#    x 1.805610 0.000000 0.000000 
#    y 0.000000 1.824340 0.000000 
#    z 0.000000 0.000000 1.753160 
# 
# From -- ./inp_files/55599.got.cif
#   From: 2010.03.12/outbox.cif.g09.slc.cpg/sg66_28_cif.got.tgz:55599.got - 2010.04.10 21:57:39.
