data_PCOD8276890
_publ_section_title
;
Structure prediction by ZEFSAII (Michael W. Deem and Ramdas Pophale) SiO2 
 PCOD8276890
Probable space group: C C C M
;
_chemical_formula_sum "Si O2"
_cell_formula_units_Z 104
_cell_length_a 9.400947
_cell_length_b 25.817067
_cell_length_c 20.468971
_cell_angle_alpha 90.000000
_cell_angle_beta 90.000000
_cell_angle_gamma 90.000000
_cell_volume 4967.919121
_symmetry_space_group_name_H-M "C C C M"
_symmetry_group_IT_number 66
_symmetry_cell_setting 'orthorhombic'
loop_
_space_group_symop_operation_xyz
x,y,z
-x,-y,z
x,-y,1/2-z
-x,y,1/2-z
-x,-y,-z
x,y,-z
-x,y,1/2+z
x,-y,1/2+z
1/2+x,1/2+y,z
1/2-x,1/2-y,z
1/2+x,1/2-y,1/2-z
1/2-x,1/2+y,1/2-z
1/2-x,1/2-y,-z
1/2+x,1/2+y,-z
1/2-x,1/2+y,1/2+z
1/2+x,1/2-y,1/2+z
loop_
_atom_site_type_symbol
_atom_site_label
_atom_site_fract_x
_atom_site_fract_y
_atom_site_fract_z
Si Si1 0.865970 0.389741 0.000000
Si Si2 0.684519 0.484098 0.000000
Si Si3 0.695161 0.123378 0.138924
Si Si4 0.827941 0.695937 0.246330
Si Si5 0.940586 0.051415 0.865415
Si Si6 0.288971 0.383739 0.860452
Si Si7 0.542685 0.053822 0.324806
Si Si8 0.702732 0.102312 0.500000
O O1 0.791531 0.361264 0.062513
O O2 0.034498 0.390783 0.000000
O O3 0.827143 0.450308 0.000000
O O4 0.585544 0.467860 0.939241
O O5 0.736843 0.543545 0.000000
O O6 0.723572 0.172203 0.184902
O O7 0.794037 0.075072 0.162516
O O8 0.534139 0.103059 0.143673
O O9 0.750000 0.750000 0.238165
O O10 0.766387 0.661553 0.187082
O O11 0.000000 0.700645 0.250000
O O12 0.045936 0.100708 0.856607
O O13 0.000000 0.000000 0.827367
O O14 0.208184 0.436861 0.839257
O O15 0.258582 0.368245 0.935523
O O16 0.500000 0.052571 0.250000
O O17 0.500000 0.000000 0.359249
#
# Coordination Sequence:
#
# PCOD8276890 Si02
#       8
#     8   8  16  16  16  16  16   8
#     4  10  21  33  65  99 129 175 230 262 319 389
#     4  10  21  36  53  93 149 192 210 253 303 387
#     4  11  22  43  63  94 135 169 219 273 317 394
#     4  12  27  51  74  93 120 163 224 290 351 396
#     4  11  22  36  58  96 143 182 216 246 313 385
#     4  12  23  40  64  96 131 173 220 269 315 395
#     4  11  21  37  60  90 134 176 208 264 318 369
#     4  12  20  34  67  93 139 177 224 263 315 386
#
# _framework density 20.934318000000001
#
# number of rings (size 3 to 8) (size 9 to 14) (size 15 to 20)
#    0.000    0.769    6.154    1.846    4.308    0.000 
#    0.000    1.538    0.000    0.000    0.000    0.000 
#    0.000    0.000    0.000    0.000    0.000    0.000 
#
# Total GULP energy -644216.991248 kJ/mol
# GULP energy per Si atom -12388.788293 kJ/mol
# Density = 2.088667 g / cm^3
# Si number density = 20.934318 Si / 1000 Ang^3
#
#
#
# Elastic Constant Matrix: (Units=GPa)
#
#
# Indices 1 2 3 4 5 6 
#
# 1 86.6690 31.9204 22.0516 0.0000 0.0000 0.0000
# 2 31.9204 111.0084 51.4054 0.0000 0.0000 0.0000
# 3 22.0516 51.4054 130.8112 0.0000 0.0000 0.0000
# 4 0.0000 0.0000 0.0000 15.7138 0.0000 0.0000
# 5 0.0000 0.0000 0.0000 0.0000 16.8798 0.0000
# 6 0.0000 0.0000 0.0000 0.0000 0.0000 27.9353
#
#
#
# Elastic Compliance Matrix: (Units=1/GPa)
#
#
# Indices 1 2 3 4 5 6 
#
# 1 0.012988 -0.003326 -0.000882 0.000000 0.000000 0.000000
# 2 -0.003326 0.011864 -0.004102 0.000000 0.000000 0.000000
# 3 -0.000882 -0.004102 0.009405 0.000000 0.000000 0.000000
# 4 0.000000 0.000000 0.000000 0.063638 0.000000 0.000000
# 5 0.000000 0.000000 0.000000 0.000000 0.059242 0.000000
# 6 0.000000 0.000000 0.000000 0.000000 0.000000 0.035797
#
#
# Mechanical properties :
#
#
# Convention : Reuss Voigt Hill
#
# Bulk Modulus (GPa) = 56.69908 59.91594 58.30751
# Shear Modulus (GPa) = 23.20903 26.97987 25.09445
#
# Velocity S-wave (km/s) = 3.33327 3.59386 3.46601
# Velocity P-wave (km/s) = 6.47744 6.77526 6.62803
#
# Compressibility (1/GPa) = 0.01763697
#
# Stress axis : x y z
#
# Youngs Moduli (GPa) = 76.99637 84.28814 106.32452
#
# Poissons Ratio (x) = 0.28034 0.09382
# Poissons Ratio (y) = 0.25609 0.43610
# Poissons Ratio (z) = 0.06794 0.34572
#
# Static dielectric constant tensor:
#      x y z
#    x 3.981070 0.000000 0.000000 
#    y 0.000000 3.564300 0.000000 
#    z 0.000000 0.000000 4.493160 
# 
# 
# High freq. dielectric constant tensor:
#      x y z
#    x 1.841140 0.000000 0.000000 
#    y 0.000000 1.771910 0.000000 
#    z 0.000000 0.000000 1.828070 
# 
# From -- ./inp_files/47465.got.cif
#   From: 2010.03.12/outbox.cif.g09.slc.cpg/sg66_24_cif.got.tgz:47465.got - 2010.04.10 21:57:39.
