data_PCOD8276223
_publ_section_title
;
Structure prediction by ZEFSAII (Michael W. Deem and Ramdas Pophale) SiO2 
 PCOD8276223
Probable space group: C C C M
;
_chemical_formula_sum "Si O2"
_cell_formula_units_Z 64
_cell_length_a 16.974888
_cell_length_b 7.374358
_cell_length_c 26.533823
_cell_angle_alpha 90.000000
_cell_angle_beta 90.000000
_cell_angle_gamma 90.000000
_cell_volume 3321.474806
_symmetry_space_group_name_H-M "C C C M"
_symmetry_group_IT_number 66
_symmetry_cell_setting 'orthorhombic'
loop_
_space_group_symop_operation_xyz
x,y,z
-x,-y,z
x,-y,1/2-z
-x,y,1/2-z
-x,-y,-z
x,y,-z
-x,y,1/2+z
x,-y,1/2+z
1/2+x,1/2+y,z
1/2-x,1/2-y,z
1/2+x,1/2-y,1/2-z
1/2-x,1/2+y,1/2-z
1/2-x,1/2-y,-z
1/2+x,1/2+y,-z
1/2-x,1/2+y,1/2+z
1/2+x,1/2-y,1/2+z
loop_
_atom_site_type_symbol
_atom_site_label
_atom_site_fract_x
_atom_site_fract_y
_atom_site_fract_z
Si Si1 0.075353 0.603686 0.396630
Si Si2 0.487126 0.711679 0.193381
Si Si3 0.339243 0.235698 0.368863
Si Si4 0.409673 0.474199 0.941865
O O1 0.147090 0.462789 0.392710
O O2 0.109307 0.763510 0.431528
O O3 0.000000 0.500000 0.421657
O O4 0.047615 0.680376 0.342298
O O5 0.500000 0.500000 0.187849
O O6 0.500000 0.781073 0.250000
O O7 0.396537 0.747697 0.178906
O O8 0.250000 0.250000 0.349806
O O9 0.355289 0.392210 0.409834
O O10 0.500000 0.500000 0.925048
O O11 0.395762 0.521020 0.000000
#
# Coordination Sequence:
#
# PCOD8276223 Si02
#       4
#    16  16  16  16
#     4  10  19  37  61  85 114 157 201 239 295 351
#     4  10  19  39  65  85 114 157 200 239 288 364
#     4  11  23  39  59  90 127 152 193 253 304 344
#     4  11  21  38  62  88 119 158 211 248 288 354
#
# _framework density 19.268550000000001
#
# number of rings (size 3 to 8) (size 9 to 14) (size 15 to 20)
#    0.000    1.500    7.500    0.000    0.000    7.500 
#    0.000    6.250    0.000    0.000    0.000    0.000 
#    0.000    0.000    0.000    0.000    0.000    0.000 
#
# Total GULP energy -396799.966665 kJ/mol
# GULP energy per Si atom -12399.998958 kJ/mol
# Density = 1.922469 g / cm^3
# Si number density = 19.268550 Si / 1000 Ang^3
#
#
#
# Elastic Constant Matrix: (Units=GPa)
#
#
# Indices 1 2 3 4 5 6 
#
# 1 107.5212 31.7304 29.5360 0.0000 0.0000 0.0000
# 2 31.7304 126.3697 20.9245 0.0000 0.0000 0.0000
# 3 29.5360 20.9245 85.8257 0.0000 0.0000 0.0000
# 4 0.0000 0.0000 0.0000 7.5725 0.0000 0.0000
# 5 0.0000 0.0000 0.0000 0.0000 7.6708 0.0000
# 6 0.0000 0.0000 0.0000 0.0000 0.0000 21.5111
#
#
#
# Elastic Compliance Matrix: (Units=1/GPa)
#
#
# Indices 1 2 3 4 5 6 
#
# 1 0.010823 -0.002189 -0.003191 0.000000 0.000000 0.000000
# 2 -0.002189 0.008689 -0.001365 0.000000 0.000000 0.000000
# 3 -0.003191 -0.001365 0.013082 0.000000 0.000000 0.000000
# 4 0.000000 0.000000 0.000000 0.132056 0.000000 0.000000
# 5 0.000000 0.000000 0.000000 0.000000 0.130365 0.000000
# 6 0.000000 0.000000 0.000000 0.000000 0.000000 0.046488
#
#
# Mechanical properties :
#
#
# Convention : Reuss Voigt Hill
#
# Bulk Modulus (GPa) = 52.34439 53.78870 53.06655
# Shear Modulus (GPa) = 13.83655 23.18592 18.51123
#
# Velocity S-wave (km/s) = 2.68263 3.47263 3.10287
# Velocity P-wave (km/s) = 6.06795 6.63738 6.35904
#
# Compressibility (1/GPa) = 0.01910424
#
# Stress axis : x y z
#
# Youngs Moduli (GPa) = 92.39499 115.08795 76.43844
#
# Poissons Ratio (x) = 0.25195 0.24391
# Poissons Ratio (y) = 0.20227 0.10434
# Poissons Ratio (z) = 0.29482 0.15709
#
# Static dielectric constant tensor:
#      x y z
#    x 3.233530 0.000000 0.000000 
#    y 0.000000 3.991700 0.000000 
#    z 0.000000 0.000000 3.444100 
# 
# 
# High freq. dielectric constant tensor:
#      x y z
#    x 1.714590 0.000000 0.000000 
#    y 0.000000 1.779960 0.000000 
#    z 0.000000 0.000000 1.736050 
# 
# From -- ./inp_files/69389.got.cif
#   From: 2010.03.12/outbox.cif.g09.slc.cpg/sg66_35_cif.got.tgz:69389.got - 2010.04.10 21:57:39.
