data_PCOD8276254
_publ_section_title
;
Structure prediction by ZEFSAII (Michael W. Deem and Ramdas Pophale) SiO2 
 PCOD8276254
Probable space group: C C C M
;
_chemical_formula_sum "Si O2"
_cell_formula_units_Z 88
_cell_length_a 17.759811
_cell_length_b 9.022594
_cell_length_c 28.096255
_cell_angle_alpha 90.000000
_cell_angle_beta 90.000000
_cell_angle_gamma 90.000000
_cell_volume 4502.131656
_symmetry_space_group_name_H-M "C C C M"
_symmetry_group_IT_number 66
_symmetry_cell_setting 'orthorhombic'
loop_
_space_group_symop_operation_xyz
x,y,z
-x,-y,z
x,-y,1/2-z
-x,y,1/2-z
-x,-y,-z
x,y,-z
-x,y,1/2+z
x,-y,1/2+z
1/2+x,1/2+y,z
1/2-x,1/2-y,z
1/2+x,1/2-y,1/2-z
1/2-x,1/2+y,1/2-z
1/2-x,1/2-y,-z
1/2+x,1/2+y,-z
1/2-x,1/2+y,1/2+z
1/2+x,1/2-y,1/2+z
loop_
_atom_site_type_symbol
_atom_site_label
_atom_site_fract_x
_atom_site_fract_y
_atom_site_fract_z
Si Si1 0.772881 0.008512 0.946915
Si Si2 0.392543 0.138479 0.822881
Si Si3 0.587377 0.659338 0.738617
Si Si4 0.250000 0.250000 0.120370
Si Si5 0.630947 0.203624 0.946486
Si Si6 0.555979 0.816967 0.349161
O O1 0.789753 0.875096 0.911441
O O2 0.687816 0.066766 0.941964
O O3 0.828711 0.142190 0.935732
O O4 0.786729 0.948710 0.000000
O O5 0.378590 0.206324 0.770160
O O6 0.315701 0.172507 0.850123
O O7 0.466678 0.212948 0.845852
O O8 0.412434 0.964910 0.823637
O O9 0.626182 0.500000 0.750000
O O10 0.500000 0.651056 0.750000
O O11 0.598508 0.690815 0.682018
O O12 0.569186 0.184384 0.905649
O O13 0.595409 0.204098 0.000000
#
# Coordination Sequence:
#
# PCOD8276254 Si02
#       6
#    16  16  16   8  16  16
#     4   9  19  35  56  79 113 156 192 229 286 348
#     4  10  22  36  56  87 115 155 189 234 281 355
#     4   9  19  36  59  85 111 147 189 230 280 339
#     4  12  21  36  54  86 122 144 189 234 298 330
#     4   9  18  36  59  85 109 149 198 233 279 348
#     4  10  19  39  62  81 115 155 193 233 290 331
#
# _framework density 19.546296000000002
#
# number of rings (size 3 to 8) (size 9 to 14) (size 15 to 20)
#    0.000    2.364    1.818    1.909    2.545    2.182 
#    0.000    7.273    0.000    2.182    0.000    0.000 
#    0.000    0.000    0.000    0.000    0.000    0.000 
#
# Total GULP energy -545139.134789 kJ/mol
# GULP energy per Si atom -12389.525791 kJ/mol
# Density = 1.950181 g / cm^3
# Si number density = 19.546296 Si / 1000 Ang^3
#
#
#
# Elastic Constant Matrix: (Units=GPa)
#
#
# Indices 1 2 3 4 5 6 
#
# 1 54.5970 7.7398 19.8696 0.0000 0.0000 0.0000
# 2 7.7398 74.8662 30.5052 0.0000 0.0000 0.0000
# 3 19.8696 30.5052 118.5685 0.0000 0.0000 0.0000
# 4 0.0000 0.0000 0.0000 33.3746 0.0000 0.0000
# 5 0.0000 0.0000 0.0000 0.0000 9.0298 0.0000
# 6 0.0000 0.0000 0.0000 0.0000 0.0000 14.4030
#
#
#
# Elastic Compliance Matrix: (Units=1/GPa)
#
#
# Indices 1 2 3 4 5 6 
#
# 1 0.019545 -0.000766 -0.003078 0.000000 0.000000 0.000000
# 2 -0.000766 0.014951 -0.003718 0.000000 0.000000 0.000000
# 3 -0.003078 -0.003718 0.009906 0.000000 0.000000 0.000000
# 4 0.000000 0.000000 0.000000 0.029963 0.000000 0.000000
# 5 0.000000 0.000000 0.000000 0.000000 0.110745 0.000000
# 6 0.000000 0.000000 0.000000 0.000000 0.000000 0.069430
#
#
# Mechanical properties :
#
#
# Convention : Reuss Voigt Hill
#
# Bulk Modulus (GPa) = 34.15626 40.47344 37.31485
# Shear Modulus (GPa) = 17.89389 24.02262 20.95826
#
# Velocity S-wave (km/s) = 3.02894 3.50953 3.27806
# Velocity P-wave (km/s) = 5.45391 6.09703 5.78442
#
# Compressibility (1/GPa) = 0.02927721
#
# Stress axis : x y z
#
# Youngs Moduli (GPa) = 51.16424 66.88318 100.94475
#
# Poissons Ratio (x) = 0.05126 0.31072
# Poissons Ratio (y) = 0.03921 0.37534
# Poissons Ratio (z) = 0.15749 0.24869
#
# Static dielectric constant tensor:
#      x y z
#    x 3.195090 0.000000 0.000000 
#    y 0.000000 3.769910 0.000000 
#    z 0.000000 0.000000 3.650150 
# 
# 
# High freq. dielectric constant tensor:
#      x y z
#    x 1.720830 0.000000 0.000000 
#    y 0.000000 1.765480 0.000000 
#    z 0.000000 0.000000 1.769270 
# 
# From -- ./inp_files/69930.got.cif
#   From: 2010.03.12/outbox.cif.g09.slc.cpg/sg66_35_cif.got.tgz:69930.got - 2010.04.10 21:57:39.
