data_PCOD8276670
_publ_section_title
;
Structure prediction by ZEFSAII (Michael W. Deem and Ramdas Pophale) SiO2 
 PCOD8276670
Probable space group: C C C M
;
_chemical_formula_sum "Si O2"
_cell_formula_units_Z 56
_cell_length_a 14.676915
_cell_length_b 5.010259
_cell_length_c 32.414356
_cell_angle_alpha 90.000000
_cell_angle_beta 90.000000
_cell_angle_gamma 90.000000
_cell_volume 2383.594384
_symmetry_space_group_name_H-M "C C C M"
_symmetry_group_IT_number 66
_symmetry_cell_setting 'orthorhombic'
loop_
_space_group_symop_operation_xyz
x,y,z
-x,-y,z
x,-y,1/2-z
-x,y,1/2-z
-x,-y,-z
x,y,-z
-x,y,1/2+z
x,-y,1/2+z
1/2+x,1/2+y,z
1/2-x,1/2-y,z
1/2+x,1/2-y,1/2-z
1/2-x,1/2+y,1/2-z
1/2-x,1/2-y,-z
1/2+x,1/2+y,-z
1/2-x,1/2+y,1/2+z
1/2+x,1/2-y,1/2+z
loop_
_atom_site_type_symbol
_atom_site_label
_atom_site_fract_x
_atom_site_fract_y
_atom_site_fract_z
Si Si1 0.358727 0.743155 0.953854
Si Si2 0.642152 0.758656 0.095282
Si Si3 0.439642 0.749789 0.317676
Si Si4 0.307879 0.500000 0.750000
O O1 0.250000 0.750000 0.954873
O O2 0.396007 0.518859 0.922467
O O3 0.395916 0.020568 0.936165
O O4 0.396550 0.695519 0.000000
O O5 0.750000 0.750000 0.095898
O O6 0.611333 0.837457 0.141049
O O7 0.500000 0.500000 0.329632
O O8 0.368148 0.650004 0.283848
O O9 0.500000 0.000000 0.300950
O O10 0.250000 0.750000 0.769340
#
# Coordination Sequence:
#
# PCOD8276670 Si02
#       4
#    16  16  16   8
#     4   9  17  31  56  90 123 159 212 274 321 362
#     4  10  20  36  61  90 123 166 217 265 314 381
#     4  12  26  45  68  97 136 174 212 263 335 403
#     4  12  27  48  75 102 130 168 224 280 329 394
#
# _framework density 23.493931
#
# number of rings (size 3 to 8) (size 9 to 14) (size 15 to 20)
#    0.000    1.429    0.000    5.571    0.000    8.000 
#    0.000    0.000    0.000   17.143    0.000    0.000 
#    0.000    0.000    0.000    0.000    0.000    0.000 
#
# Total GULP energy -347138.717688 kJ/mol
# GULP energy per Si atom -12397.811346 kJ/mol
# Density = 2.344046 g / cm^3
# Si number density = 23.493931 Si / 1000 Ang^3
#
#
#
# Elastic Constant Matrix: (Units=GPa)
#
#
# Indices 1 2 3 4 5 6 
#
# 1 54.7354 48.7946 48.8944 0.0000 0.0000 0.0000
# 2 48.7946 181.0169 50.8730 0.0000 0.0000 0.0000
# 3 48.8944 50.8730 161.9788 0.0000 0.0000 0.0000
# 4 0.0000 0.0000 0.0000 50.1033 0.0000 0.0000
# 5 0.0000 0.0000 0.0000 0.0000 3.9512 0.0000
# 6 0.0000 0.0000 0.0000 0.0000 0.0000 35.7698
#
#
#
# Elastic Compliance Matrix: (Units=1/GPa)
#
#
# Indices 1 2 3 4 5 6 
#
# 1 0.030119 -0.006102 -0.007175 0.000000 0.000000 0.000000
# 2 -0.006102 0.007296 -0.000449 0.000000 0.000000 0.000000
# 3 -0.007175 -0.000449 0.008481 0.000000 0.000000 0.000000
# 4 0.000000 0.000000 0.000000 0.019959 0.000000 0.000000
# 5 0.000000 0.000000 0.000000 0.000000 0.253090 0.000000
# 6 0.000000 0.000000 0.000000 0.000000 0.000000 0.027957
#
#
# Mechanical properties :
#
#
# Convention : Reuss Voigt Hill
#
# Bulk Modulus (GPa) = 54.22456 77.20614 65.71535
# Shear Modulus (GPa) = 13.14056 34.57612 23.85834
#
# Velocity S-wave (km/s) = 2.36755 3.84044 3.19017
# Velocity P-wave (km/s) = 5.53210 7.25250 6.44992
#
# Compressibility (1/GPa) = 0.01844183
#
# Stress axis : x y z
#
# Youngs Moduli (GPa) = 33.20140 137.06957 117.91608
#
# Poissons Ratio (x) = 0.83645 0.84606
# Poissons Ratio (y) = 0.20261 0.05298
# Poissons Ratio (z) = 0.23822 0.06158
#
# Static dielectric constant tensor:
#      x y z
#    x 4.136540 0.000000 0.000000 
#    y 0.000000 4.683700 0.000000 
#    z 0.000000 0.000000 4.104730 
# 
# 
# High freq. dielectric constant tensor:
#      x y z
#    x 1.920920 0.000000 0.000000 
#    y 0.000000 1.948430 0.000000 
#    z 0.000000 0.000000 1.931510 
# 
# From -- ./inp_files/69316.got.cif
#   From: 2010.03.12/outbox.cif.g09.slc.cpg/sg66_35_cif.got.tgz:69316.got - 2010.04.10 21:57:39.
