data_PCOD8276956
_publ_section_title
;
Structure prediction by ZEFSAII (Michael W. Deem and Ramdas Pophale) SiO2 
 PCOD8276956
Probable space group: C C C M
;
_chemical_formula_sum "Si O2"
_cell_formula_units_Z 80
_cell_length_a 9.361780
_cell_length_b 25.877584
_cell_length_c 15.763264
_cell_angle_alpha 90.000000
_cell_angle_beta 90.000000
_cell_angle_gamma 90.000000
_cell_volume 3818.812251
_symmetry_space_group_name_H-M "C C C M"
_symmetry_group_IT_number 66
_symmetry_cell_setting 'orthorhombic'
loop_
_space_group_symop_operation_xyz
x,y,z
-x,-y,z
x,-y,1/2-z
-x,y,1/2-z
-x,-y,-z
x,y,-z
-x,y,1/2+z
x,-y,1/2+z
1/2+x,1/2+y,z
1/2-x,1/2-y,z
1/2+x,1/2-y,1/2-z
1/2-x,1/2+y,1/2-z
1/2-x,1/2-y,-z
1/2+x,1/2+y,-z
1/2-x,1/2+y,1/2+z
1/2+x,1/2-y,1/2+z
loop_
_atom_site_type_symbol
_atom_site_label
_atom_site_fract_x
_atom_site_fract_y
_atom_site_fract_z
Si Si1 0.903145 0.954954 0.099320
Si Si2 0.906487 0.753431 0.595920
Si Si3 0.414316 0.048757 0.899125
Si Si4 0.063646 0.659279 0.658973
Si Si5 0.616366 0.340306 0.399474
O O1 0.744451 0.958973 0.136753
O O2 0.957029 0.896444 0.117462
O O3 0.897141 0.965996 0.000000
O O4 0.000000 0.000000 0.142371
O O5 0.880925 0.771750 0.500000
O O6 0.750000 0.750000 0.641044
O O7 0.987351 0.698853 0.595312
O O8 0.007244 0.797618 0.637651
O O9 0.483989 0.101106 0.863329
O O10 0.500000 0.000000 0.864242
O O11 0.416600 0.052647 0.000000
O O12 0.234716 0.665381 0.651224
O O13 0.000000 0.674374 0.750000
O O14 0.649899 0.333672 0.500000
#
# Coordination Sequence:
#
# PCOD8276956 Si02
#       5
#    16  16  16  16  16
#     4   8  14  26  48  79 107 131 166 212 264 318
#     4  10  21  36  56  82 108 138 184 238 281 323
#     4   9  18  33  54  78 105 139 180 226 272 317
#     4  11  22  35  53  78 109 148 184 220 272 335
#     4   9  18  35  58  81 109 145 183 226 278 332
#
# _framework density 20.948923000000001
#
# number of rings (size 3 to 8) (size 9 to 14) (size 15 to 20)
#    0.000    2.600    0.000    3.600    0.000    5.200 
#    0.000    6.000    0.000    0.000    0.000    1.400 
#    0.000    0.000    0.000    0.000    0.000    3.200 
#
# Total GULP energy -495766.612375 kJ/mol
# GULP energy per Si atom -12394.165309 kJ/mol
# Density = 2.090124 g / cm^3
# Si number density = 20.948923 Si / 1000 Ang^3
#
#
#
# Elastic Constant Matrix: (Units=GPa)
#
#
# Indices 1 2 3 4 5 6 
#
# 1 130.1943 98.5830 20.5199 0.0000 0.0000 0.0000
# 2 98.5830 187.7688 8.4209 0.0000 0.0000 0.0000
# 3 20.5199 8.4209 32.6195 0.0000 0.0000 0.0000
# 4 0.0000 0.0000 0.0000 7.7391 0.0000 0.0000
# 5 0.0000 0.0000 0.0000 0.0000 18.1340 0.0000
# 6 0.0000 0.0000 0.0000 0.0000 0.0000 46.7200
#
#
#
# Elastic Compliance Matrix: (Units=1/GPa)
#
#
# Indices 1 2 3 4 5 6 
#
# 1 0.014205 -0.007140 -0.007093 0.000000 0.000000 0.000000
# 2 -0.007140 0.008977 0.002174 0.000000 0.000000 0.000000
# 3 -0.007093 0.002174 0.034557 0.000000 0.000000 0.000000
# 4 0.000000 0.000000 0.000000 0.129214 0.000000 0.000000
# 5 0.000000 0.000000 0.000000 0.000000 0.055145 0.000000
# 6 0.000000 0.000000 0.000000 0.000000 0.000000 0.021404
#
#
# Mechanical properties :
#
#
# Convention : Reuss Voigt Hill
#
# Bulk Modulus (GPa) = 29.74261 67.29227 48.51744
# Shear Modulus (GPa) = 16.73213 29.38922 23.06067
#
# Velocity S-wave (km/s) = 2.82921 3.74959 3.32144
# Velocity P-wave (km/s) = 4.99010 7.13707 6.15787
#
# Compressibility (1/GPa) = 0.03362180
#
# Stress axis : x y z
#
# Youngs Moduli (GPa) = 70.39761 111.39825 28.93762
#
# Poissons Ratio (x) = 0.79537 0.20525
# Poissons Ratio (y) = 0.50263 -0.06291
# Poissons Ratio (z) = 0.49931 -0.24219
#
# Static dielectric constant tensor:
#      x y z
#    x 3.963300 0.000000 0.000000 
#    y 0.000000 4.048650 0.000000 
#    z 0.000000 0.000000 3.223620 
# 
# 
# High freq. dielectric constant tensor:
#      x y z
#    x 1.816370 0.000000 0.000000 
#    y 0.000000 1.837860 0.000000 
#    z 0.000000 0.000000 1.774090 
# 
# From -- ./inp_files/36946.got.cif
#   From: 2010.03.12/outbox.cif.g09.slc.cpg/sg66_19_cif.got.tgz:36946.got - 2010.04.10 21:57:39.
