data_PCOD8276104
_publ_section_title
;
Structure prediction by ZEFSAII (Michael W. Deem and Ramdas Pophale) SiO2 
 PCOD8276104
Probable space group: C C C M
;
_chemical_formula_sum "Si O2"
_cell_formula_units_Z 80
_cell_length_a 15.776689
_cell_length_b 12.342266
_cell_length_c 19.859678
_cell_angle_alpha 90.000000
_cell_angle_beta 90.000000
_cell_angle_gamma 90.000000
_cell_volume 3867.078332
_symmetry_space_group_name_H-M "C C C M"
_symmetry_group_IT_number 66
_symmetry_cell_setting 'orthorhombic'
loop_
_space_group_symop_operation_xyz
x,y,z
-x,-y,z
x,-y,1/2-z
-x,y,1/2-z
-x,-y,-z
x,y,-z
-x,y,1/2+z
x,-y,1/2+z
1/2+x,1/2+y,z
1/2-x,1/2-y,z
1/2+x,1/2-y,1/2-z
1/2-x,1/2+y,1/2-z
1/2-x,1/2-y,-z
1/2+x,1/2+y,-z
1/2-x,1/2+y,1/2+z
1/2+x,1/2-y,1/2+z
loop_
_atom_site_type_symbol
_atom_site_label
_atom_site_fract_x
_atom_site_fract_y
_atom_site_fract_z
Si Si1 0.811641 0.125342 0.230274
Si Si2 0.364481 0.926413 0.186570
Si Si3 0.139777 0.807319 0.372314
Si Si4 0.292222 0.916426 0.423352
Si Si5 0.964793 0.221468 0.176252
O O1 0.715875 0.150003 0.205834
O O2 0.832079 0.201433 0.294340
O O3 0.879360 0.149156 0.170320
O O4 0.817530 0.000000 0.250000
O O5 0.442508 0.848819 0.166128
O O6 0.391562 0.000000 0.250000
O O7 0.339579 0.997277 0.122590
O O8 0.191187 0.907743 0.405836
O O9 0.165221 0.699280 0.411324
O O10 0.037007 0.817645 0.376741
O O11 0.303678 0.953368 0.500000
O O12 0.000000 0.200308 0.250000
#
# Coordination Sequence:
#
# PCOD8276104 Si02
#       5
#    16  16  16  16  16
#     4  10  19  34  59  90 122 156 198 246 302 363
#     4  11  20  37  60  89 123 155 201 253 309 364
#     4  10  20  37  55  86 118 154 197 248 299 356
#     4  11  23  40  63  84 116 164 208 244 303 382
#     4  10  22  31  56  91 126 152 195 256 310 355
#
# _framework density 20.687452
#
# number of rings (size 3 to 8) (size 9 to 14) (size 15 to 20)
#    0.000    1.600    4.000    4.200    5.600    6.400 
#    0.000    3.000    0.000    6.000    0.000    0.000 
#    0.000    0.000    0.000    0.000    0.000    0.000 
#
# Total GULP energy -495785.046738 kJ/mol
# GULP energy per Si atom -12394.626168 kJ/mol
# Density = 2.064037 g / cm^3
# Si number density = 20.687452 Si / 1000 Ang^3
#
#
#
# Elastic Constant Matrix: (Units=GPa)
#
#
# Indices 1 2 3 4 5 6 
#
# 1 87.6753 8.3836 14.5714 0.0000 0.0000 0.0000
# 2 8.3836 18.6250 7.5817 0.0000 0.0000 0.0000
# 3 14.5714 7.5817 96.2026 0.0000 0.0000 0.0000
# 4 0.0000 0.0000 0.0000 22.9773 0.0000 0.0000
# 5 0.0000 0.0000 0.0000 0.0000 34.4665 0.0000
# 6 0.0000 0.0000 0.0000 0.0000 0.0000 29.8751
#
#
#
# Elastic Compliance Matrix: (Units=1/GPa)
#
#
# Indices 1 2 3 4 5 6 
#
# 1 0.012112 -0.004861 -0.001451 0.000000 0.000000 0.000000
# 2 -0.004861 0.057422 -0.003789 0.000000 0.000000 0.000000
# 3 -0.001451 -0.003789 0.010913 0.000000 0.000000 0.000000
# 4 0.000000 0.000000 0.000000 0.043521 0.000000 0.000000
# 5 0.000000 0.000000 0.000000 0.000000 0.029014 0.000000
# 6 0.000000 0.000000 0.000000 0.000000 0.000000 0.033473
#
#
# Mechanical properties :
#
#
# Convention : Reuss Voigt Hill
#
# Bulk Modulus (GPa) = 16.59929 29.28625 22.94277
# Shear Modulus (GPa) = 22.05184 28.92818 25.49001
#
# Velocity S-wave (km/s) = 3.26843 3.74350 3.51401
# Velocity P-wave (km/s) = 4.72068 5.73344 5.25153
#
# Compressibility (1/GPa) = 0.06024355
#
# Stress axis : x y z
#
# Youngs Moduli (GPa) = 82.56439 17.41504 91.63225
#
# Poissons Ratio (x) = 0.08465 0.13300
# Poissons Ratio (y) = 0.40135 0.34720
# Poissons Ratio (z) = 0.11984 0.06599
#
# Static dielectric constant tensor:
#      x y z
#    x 4.468660 0.000000 0.000000 
#    y 0.000000 3.659870 0.000000 
#    z 0.000000 0.000000 3.393310 
# 
# 
# High freq. dielectric constant tensor:
#      x y z
#    x 1.825400 0.000000 0.000000 
#    y 0.000000 1.806580 0.000000 
#    z 0.000000 0.000000 1.753470 
# 
# From -- ./inp_files/49772.got.cif
#   From: 2010.03.12/outbox.cif.g09.slc.cpg/sg66_25_cif.got.tgz:49772.got - 2010.04.10 21:57:39.
