data_PCOD8276638
_publ_section_title
;
Structure prediction by ZEFSAII (Michael W. Deem and Ramdas Pophale) SiO2 
 PCOD8276638
Probable space group: C C C M
;
_chemical_formula_sum "Si O2"
_cell_formula_units_Z 116
_cell_length_a 11.213621
_cell_length_b 16.007624
_cell_length_c 31.354875
_cell_angle_alpha 90.000000
_cell_angle_beta 90.000000
_cell_angle_gamma 90.000000
_cell_volume 5628.307567
_symmetry_space_group_name_H-M "C C C M"
_symmetry_group_IT_number 66
_symmetry_cell_setting 'orthorhombic'
loop_
_space_group_symop_operation_xyz
x,y,z
-x,-y,z
x,-y,1/2-z
-x,y,1/2-z
-x,-y,-z
x,y,-z
-x,y,1/2+z
x,-y,1/2+z
1/2+x,1/2+y,z
1/2-x,1/2-y,z
1/2+x,1/2-y,1/2-z
1/2-x,1/2+y,1/2-z
1/2-x,1/2-y,-z
1/2+x,1/2+y,-z
1/2-x,1/2+y,1/2+z
1/2+x,1/2-y,1/2+z
loop_
_atom_site_type_symbol
_atom_site_label
_atom_site_fract_x
_atom_site_fract_y
_atom_site_fract_z
Si Si1 0.703648 0.902702 0.104766
Si Si2 0.027816 0.909452 0.372397
Si Si3 0.576802 0.683536 0.791366
Si Si4 0.000000 0.500000 0.750000
Si Si5 0.100767 0.150698 0.548283
Si Si6 0.464623 0.184492 0.952338
Si Si7 0.156621 0.629161 0.301448
Si Si8 0.334752 0.059549 0.452980
O O1 0.842358 0.887957 0.110128
O O2 0.651229 0.825089 0.077358
O O3 0.639084 0.899307 0.150026
O O4 0.685095 0.992282 0.083380
O O5 0.003108 0.844788 0.333681
O O6 0.946307 0.908541 0.414436
O O7 0.000000 0.000000 0.352289
O O8 0.500000 0.659529 0.750000
O O9 0.703389 0.634903 0.788999
O O10 0.594148 0.782470 0.793422
O O11 0.910664 0.442082 0.723980
O O12 0.055565 0.127716 0.500000
O O13 0.243379 0.138428 0.550139
O O14 0.055954 0.242778 0.561368
O O15 0.533334 0.096491 0.948232
O O16 0.418709 0.200390 0.000000
O O17 0.320167 0.017658 0.500000
#
# Coordination Sequence:
#
# PCOD8276638 Si02
#       8
#    16  16  16   4  16  16  16  16
#     4  11  22  38  60  89 127 159 203 260 313 371
#     4  11  23  40  62  92 123 162 218 261 317 379
#     4  10  22  46  71  92 130 174 213 260 322 394
#     4  12  24  44  70 100 136 156 204 270 320 392
#     4  10  21  38  59  86 125 167 210 265 318 371
#     4  10  21  36  57  86 121 167 214 256 311 375
#     4  10  24  42  68 101 130 166 204 263 330 379
#     4  10  20  36  59  87 123 166 212 258 307 372
#
# _framework density 20.610104
#
# number of rings (size 3 to 8) (size 9 to 14) (size 15 to 20)
#    0.000    1.655    2.069    2.069    1.931    8.276 
#    0.000    1.379    3.034    0.000    0.000    0.000 
#    0.000    0.000    0.000    0.000    0.000    0.000 
#
# Total GULP energy -718885.492842 kJ/mol
# GULP energy per Si atom -12394.577463 kJ/mol
# Density = 2.056319 g / cm^3
# Si number density = 20.610104 Si / 1000 Ang^3
#
#
#
# Elastic Constant Matrix: (Units=GPa)
#
#
# Indices 1 2 3 4 5 6 
#
# 1 77.0969 27.8929 54.8102 0.0000 0.0000 0.0000
# 2 27.8929 89.8530 48.4097 0.0000 0.0000 0.0000
# 3 54.8102 48.4097 138.5913 0.0000 0.0000 0.0000
# 4 0.0000 0.0000 0.0000 42.5611 0.0000 0.0000
# 5 0.0000 0.0000 0.0000 0.0000 32.0216 0.0000
# 6 0.0000 0.0000 0.0000 0.0000 0.0000 31.3249
#
#
#
# Elastic Compliance Matrix: (Units=1/GPa)
#
#
# Indices 1 2 3 4 5 6 
#
# 1 0.018392 -0.002206 -0.006503 0.000000 0.000000 0.000000
# 2 -0.002206 0.013974 -0.004009 0.000000 0.000000 0.000000
# 3 -0.006503 -0.004009 0.011188 0.000000 0.000000 0.000000
# 4 0.000000 0.000000 0.000000 0.023496 0.000000 0.000000
# 5 0.000000 0.000000 0.000000 0.000000 0.031229 0.000000
# 6 0.000000 0.000000 0.000000 0.000000 0.000000 0.031923
#
#
# Mechanical properties :
#
#
# Convention : Reuss Voigt Hill
#
# Bulk Modulus (GPa) = 55.19339 63.08518 59.13929
# Shear Modulus (GPa) = 30.92605 32.81008 31.86806
#
# Velocity S-wave (km/s) = 3.87787 3.99424 3.93649
# Velocity P-wave (km/s) = 6.84751 7.20745 7.02978
#
# Compressibility (1/GPa) = 0.01811811
#
# Stress axis : x y z
#
# Youngs Moduli (GPa) = 54.37147 71.56282 89.38472
#
# Poissons Ratio (x) = 0.15784 0.58129
# Poissons Ratio (y) = 0.11993 0.35832
# Poissons Ratio (z) = 0.35359 0.28687
#
# Static dielectric constant tensor:
#      x y z
#    x 3.747430 0.000000 0.000000 
#    y 0.000000 3.654780 0.000000 
#    z 0.000000 0.000000 3.920270 
# 
# 
# High freq. dielectric constant tensor:
#      x y z
#    x 1.803930 0.000000 0.000000 
#    y 0.000000 1.808010 0.000000 
#    z 0.000000 0.000000 1.808970 
# 
# From -- ./inp_files/63865.got.cif
#   From: 2010.03.12/outbox.cif.g09.slc.cpg/sg66_32_cif.got.tgz:63865.got - 2010.04.10 21:57:39.
