data_PCOD8276723
_publ_section_title
;
Structure prediction by ZEFSAII (Michael W. Deem and Ramdas Pophale) SiO2 
 PCOD8276723
Probable space group: C C C M
;
_chemical_formula_sum "Si O2"
_cell_formula_units_Z 112
_cell_length_a 25.394908
_cell_length_b 14.699921
_cell_length_c 14.762154
_cell_angle_alpha 90.000000
_cell_angle_beta 90.000000
_cell_angle_gamma 90.000000
_cell_volume 5510.758462
_symmetry_space_group_name_H-M "C C C M"
_symmetry_group_IT_number 66
_symmetry_cell_setting 'orthorhombic'
loop_
_space_group_symop_operation_xyz
x,y,z
-x,-y,z
x,-y,1/2-z
-x,y,1/2-z
-x,-y,-z
x,y,-z
-x,y,1/2+z
x,-y,1/2+z
1/2+x,1/2+y,z
1/2-x,1/2-y,z
1/2+x,1/2-y,1/2-z
1/2-x,1/2+y,1/2-z
1/2-x,1/2-y,-z
1/2+x,1/2+y,-z
1/2-x,1/2+y,1/2+z
1/2+x,1/2-y,1/2+z
loop_
_atom_site_type_symbol
_atom_site_label
_atom_site_fract_x
_atom_site_fract_y
_atom_site_fract_z
Si Si1 0.196608 0.292867 0.296552
Si Si2 0.209222 0.475366 0.396644
Si Si3 0.398605 0.677543 0.600921
Si Si4 0.620779 0.340056 0.104512
Si Si5 0.172276 0.334493 0.101049
Si Si6 0.994220 0.099097 0.146931
Si Si7 0.323375 0.473487 0.894087
O O1 0.250000 0.250000 0.338031
O O2 0.188749 0.394172 0.334616
O O3 0.145757 0.235470 0.329064
O O4 0.204127 0.296078 0.187531
O O5 0.216411 0.440244 0.500000
O O6 0.166130 0.556566 0.391804
O O7 0.263876 0.517169 0.356233
O O8 0.395018 0.640405 0.500000
O O9 0.384226 0.784300 0.608649
O O10 0.458398 0.668118 0.629394
O O11 0.355451 0.611512 0.651743
O O12 0.558298 0.347294 0.119388
O O13 0.645015 0.436382 0.131513
O O14 0.632794 0.314499 0.000000
O O15 0.197294 0.311112 0.000000
O O16 0.000000 0.075396 0.250000
O O17 0.000000 0.000000 0.096245
O O18 0.316949 0.458819 0.000000
#
# Coordination Sequence:
#
# PCOD8276723 Si02
#       7
#    16  16  16  16  16  16  16
#     4  12  24  38  59  90 121 158 202 252 305 361
#     4  10  21  40  62  86 120 160 202 251 303 360
#     4  10  20  37  60  82 113 158 204 247 294 354
#     4  11  22  38  60  89 123 162 202 248 306 362
#     4  10  24  42  59  83 119 163 207 249 300 361
#     4  11  22  36  55  86 124 160 200 248 299 358
#     4   9  18  32  54  85 119 156 198 243 293 352
#
# _framework density 20.323881
#
# number of rings (size 3 to 8) (size 9 to 14) (size 15 to 20)
#    0.000    1.571    2.857    2.143    2.000    1.429 
#    0.000    0.000    0.000    0.857    0.000    7.000 
#    0.000    0.000    0.000    0.000    0.000    0.000 
#
# Total GULP energy -693790.263216 kJ/mol
# GULP energy per Si atom -12389.111843 kJ/mol
# Density = 2.027762 g / cm^3
# Si number density = 20.323881 Si / 1000 Ang^3
#
#
#
# Elastic Constant Matrix: (Units=GPa)
#
#
# Indices 1 2 3 4 5 6 
#
# 1 124.5041 80.5669 23.9159 0.0000 0.0000 0.0000
# 2 80.5669 132.0971 41.4586 0.0000 0.0000 0.0000
# 3 23.9159 41.4586 92.9274 0.0000 0.0000 0.0000
# 4 0.0000 0.0000 0.0000 23.8469 0.0000 0.0000
# 5 0.0000 0.0000 0.0000 0.0000 18.9262 0.0000
# 6 0.0000 0.0000 0.0000 0.0000 0.0000 30.9371
#
#
#
# Elastic Compliance Matrix: (Units=1/GPa)
#
#
# Indices 1 2 3 4 5 6 
#
# 1 0.013273 -0.008167 0.000228 0.000000 0.000000 0.000000
# 2 -0.008167 0.013828 -0.004067 0.000000 0.000000 0.000000
# 3 0.000228 -0.004067 0.012517 0.000000 0.000000 0.000000
# 4 0.000000 0.000000 0.000000 0.041934 0.000000 0.000000
# 5 0.000000 0.000000 0.000000 0.000000 0.052837 0.000000
# 6 0.000000 0.000000 0.000000 0.000000 0.000000 0.032324
#
#
# Mechanical properties :
#
#
# Convention : Reuss Voigt Hill
#
# Bulk Modulus (GPa) = 64.08275 71.26795 67.67535
# Shear Modulus (GPa) = 25.51982 28.31452 26.91717
#
# Velocity S-wave (km/s) = 3.54737 3.73656 3.64319
# Velocity P-wave (km/s) = 6.95540 7.33199 7.14618
#
# Compressibility (1/GPa) = 0.01560482
#
# Stress axis : x y z
#
# Youngs Moduli (GPa) = 75.34230 72.31946 79.89072
#
# Poissons Ratio (x) = 0.59060 -0.01818
# Poissons Ratio (y) = 0.61529 0.32494
# Poissons Ratio (z) = -0.01714 0.29414
#
# Static dielectric constant tensor:
#      x y z
#    x 3.420450 0.000000 0.000000 
#    y 0.000000 3.634440 0.000000 
#    z 0.000000 0.000000 3.800400 
# 
# 
# High freq. dielectric constant tensor:
#      x y z
#    x 1.766020 0.000000 0.000000 
#    y 0.000000 1.784220 0.000000 
#    z 0.000000 0.000000 1.803830 
# 
# From -- ./inp_files/32483.got.cif
#   From: 2010.03.12/outbox.cif.g09.slc.cpg/sg66_17_cif.got.tgz:32483.got - 2010.04.10 21:57:39.
