data_PCOD8276024
_publ_section_title
;
Structure prediction by ZEFSAII (Michael W. Deem and Ramdas Pophale) SiO2 
 PCOD8276024
Probable space group: C C C M
;
_chemical_formula_sum "Si O2"
_cell_formula_units_Z 104
_cell_length_a 16.751592
_cell_length_b 22.188309
_cell_length_c 14.019079
_cell_angle_alpha 90.000000
_cell_angle_beta 90.000000
_cell_angle_gamma 90.000000
_cell_volume 5210.744457
_symmetry_space_group_name_H-M "C C C M"
_symmetry_group_IT_number 66
_symmetry_cell_setting 'orthorhombic'
loop_
_space_group_symop_operation_xyz
x,y,z
-x,-y,z
x,-y,1/2-z
-x,y,1/2-z
-x,-y,-z
x,y,-z
-x,y,1/2+z
x,-y,1/2+z
1/2+x,1/2+y,z
1/2-x,1/2-y,z
1/2+x,1/2-y,1/2-z
1/2-x,1/2+y,1/2-z
1/2-x,1/2-y,-z
1/2+x,1/2+y,-z
1/2-x,1/2+y,1/2+z
1/2+x,1/2-y,1/2+z
loop_
_atom_site_type_symbol
_atom_site_label
_atom_site_fract_x
_atom_site_fract_y
_atom_site_fract_z
Si Si1 0.676017 0.375506 0.320462
Si Si2 0.212264 0.556021 0.805272
Si Si3 0.192203 0.302427 0.106659
Si Si4 0.078169 0.792133 0.188666
Si Si5 0.705575 0.461633 0.000000
Si Si6 0.573198 0.369444 0.000000
Si Si7 0.911507 0.338228 0.230317
Si Si8 0.908968 0.075130 0.500000
O O1 0.704241 0.428261 0.248557
O O2 0.755047 0.362264 0.382920
O O3 0.648791 0.320103 0.253519
O O4 0.610938 0.392352 0.399624
O O5 0.171350 0.500000 0.750000
O O6 0.235448 0.533856 0.910341
O O7 0.148669 0.611090 0.809492
O O8 0.250000 0.250000 0.143856
O O9 0.113190 0.309977 0.167982
O O10 0.162861 0.290136 0.000000
O O11 0.065985 0.827588 0.091517
O O12 0.091876 0.721119 0.162492
O O13 0.000000 0.799987 0.250000
O O14 0.635427 0.511363 0.000000
O O15 0.660992 0.397937 0.000000
O O16 0.505710 0.422756 0.000000
O O17 0.000000 0.364908 0.250000
#
# Coordination Sequence:
#
# PCOD8276024 Si02
#       8
#    16  16  16  16   8   8  16   8
#     4  11  20  37  62  91 122 164 218 270 325 372
#     4  11  24  43  69  89 127 174 221 277 323 387
#     4  10  19  33  61  93 120 160 213 265 321 382
#     4  11  22  40  61  93 137 170 213 268 331 394
#     4  12  25  43  62  97 131 173 231 263 321 392
#     4  12  25  39  64  95 134 186 213 258 331 404
#     4  10  24  44  64  95 135 169 211 277 335 392
#     4  12  23  38  65  93 130 175 217 270 316 383
#
# _framework density 19.958760000000002
#
# number of rings (size 3 to 8) (size 9 to 14) (size 15 to 20)
#    0.000    1.077    6.923    0.231    0.000    0.923 
#    6.923    0.769    0.000    0.923    0.000    0.000 
#    0.000    0.000    0.000    0.000    0.000    0.000 
#
# Total GULP energy -644350.860782 kJ/mol
# GULP energy per Si atom -12391.362707 kJ/mol
# Density = 1.991333 g / cm^3
# Si number density = 19.958760 Si / 1000 Ang^3
#
#
#
# Elastic Constant Matrix: (Units=GPa)
#
#
# Indices 1 2 3 4 5 6 
#
# 1 89.8294 32.3638 45.6178 0.0000 0.0000 0.0000
# 2 32.3638 108.8781 47.5830 0.0000 0.0000 0.0000
# 3 45.6178 47.5830 118.3722 0.0000 0.0000 0.0000
# 4 0.0000 0.0000 0.0000 23.2834 0.0000 0.0000
# 5 0.0000 0.0000 0.0000 0.0000 19.2223 0.0000
# 6 0.0000 0.0000 0.0000 0.0000 0.0000 38.4004
#
#
#
# Elastic Compliance Matrix: (Units=1/GPa)
#
#
# Indices 1 2 3 4 5 6 
#
# 1 0.014274 -0.002231 -0.004604 0.000000 0.000000 0.000000
# 2 -0.002231 0.011491 -0.003759 0.000000 0.000000 0.000000
# 3 -0.004604 -0.003759 0.011733 0.000000 0.000000 0.000000
# 4 0.000000 0.000000 0.000000 0.042949 0.000000 0.000000
# 5 0.000000 0.000000 0.000000 0.000000 0.052023 0.000000
# 6 0.000000 0.000000 0.000000 0.000000 0.000000 0.026041
#
#
# Mechanical properties :
#
#
# Convention : Reuss Voigt Hill
#
# Bulk Modulus (GPa) = 61.31348 63.13434 62.22391
# Shear Modulus (GPa) = 27.00710 28.94887 27.97799
#
# Velocity S-wave (km/s) = 3.68250 3.81259 3.74811
# Velocity P-wave (km/s) = 6.99056 7.14718 7.06930
#
# Compressibility (1/GPa) = 0.01630963
#
# Stress axis : x y z
#
# Youngs Moduli (GPa) = 70.05724 87.02767 85.22673
#
# Poissons Ratio (x) = 0.19414 0.39240
# Poissons Ratio (y) = 0.15628 0.32039
# Poissons Ratio (z) = 0.32255 0.32716
#
# Static dielectric constant tensor:
#      x y z
#    x 3.527850 0.000000 0.000000 
#    y 0.000000 3.702610 0.000000 
#    z 0.000000 0.000000 3.662990 
# 
# 
# High freq. dielectric constant tensor:
#      x y z
#    x 1.769070 0.000000 0.000000 
#    y 0.000000 1.778830 0.000000 
#    z 0.000000 0.000000 1.778770 
# 
# From -- ./inp_files/30235.got.cif
#   From: 2010.03.12/outbox.cif.g09.slc.cpg/sg66_16_cif.got.tgz:30235.got - 2010.04.10 21:57:39.
