data_PCOD8276607
_publ_section_title
;
Structure prediction by ZEFSAII (Michael W. Deem and Ramdas Pophale) SiO2 
 PCOD8276607
Probable space group: C C C M
;
_chemical_formula_sum "Si O2"
_cell_formula_units_Z 52
_cell_length_a 30.349496
_cell_length_b 10.306800
_cell_length_c 8.757626
_cell_angle_alpha 90.000000
_cell_angle_beta 90.000000
_cell_angle_gamma 90.000000
_cell_volume 2739.439582
_symmetry_space_group_name_H-M "C C C M"
_symmetry_group_IT_number 66
_symmetry_cell_setting 'orthorhombic'
loop_
_space_group_symop_operation_xyz
x,y,z
-x,-y,z
x,-y,1/2-z
-x,y,1/2-z
-x,-y,-z
x,y,-z
-x,y,1/2+z
x,-y,1/2+z
1/2+x,1/2+y,z
1/2-x,1/2-y,z
1/2+x,1/2-y,1/2-z
1/2-x,1/2+y,1/2-z
1/2-x,1/2-y,-z
1/2+x,1/2+y,-z
1/2-x,1/2+y,1/2+z
1/2+x,1/2-y,1/2+z
loop_
_atom_site_type_symbol
_atom_site_label
_atom_site_fract_x
_atom_site_fract_y
_atom_site_fract_z
Si Si1 0.000000 0.500000 0.750000
Si Si2 0.215959 0.862155 0.180634
Si Si3 0.042145 0.252980 0.668107
Si Si4 0.122827 0.862758 0.319250
O O1 0.968489 0.593392 0.649163
O O2 0.250000 0.750000 0.226431
O O3 0.169262 0.818553 0.249212
O O4 0.231451 0.000000 0.250000
O O5 0.211619 0.878363 0.000000
O O6 0.049685 0.192486 0.500000
O O7 0.085444 0.239201 0.771944
O O8 0.000000 0.183602 0.750000
O O9 0.127239 0.871404 0.500000
O O10 0.108255 0.000000 0.250000
#
# Coordination Sequence:
#
# PCOD8276607 Si02
#       4
#     4  16  16  16
#     4   8  22  36  60  76 114 148 186 234 282 328
#     4  10  21  39  62  88 118 153 193 242 294 349
#     4  10  20  36  57  81 111 146 186 229 278 332
#     4  11  22  37  59  84 113 149 188 233 285 338
#
# _framework density 18.981984000000001
#
# number of rings (size 3 to 8) (size 9 to 14) (size 15 to 20)
#    0.923    0.923    0.000    6.923    0.000    3.077 
#    2.769    3.077    0.000    0.000    0.000    0.000 
#    0.000    0.000    0.000    0.000    0.000    0.000 
#
# Total GULP energy -322237.293482 kJ/mol
# GULP energy per Si atom -12393.742057 kJ/mol
# Density = 1.893878 g / cm^3
# Si number density = 18.981984 Si / 1000 Ang^3
#
#
#
# Elastic Constant Matrix: (Units=GPa)
#
#
# Indices 1 2 3 4 5 6 
#
# 1 145.8515 77.7675 61.4875 0.0000 0.0000 0.0000
# 2 77.7675 87.9648 39.4258 0.0000 0.0000 0.0000
# 3 61.4875 39.4258 139.6846 0.0000 0.0000 0.0000
# 4 0.0000 0.0000 0.0000 25.5372 0.0000 0.0000
# 5 0.0000 0.0000 0.0000 0.0000 25.1285 0.0000
# 6 0.0000 0.0000 0.0000 0.0000 0.0000 38.8456
#
#
#
# Elastic Compliance Matrix: (Units=1/GPa)
#
#
# Indices 1 2 3 4 5 6 
#
# 1 0.014028 -0.011029 -0.003062 0.000000 0.000000 0.000000
# 2 -0.011029 0.021686 -0.001266 0.000000 0.000000 0.000000
# 3 -0.003062 -0.001266 0.008864 0.000000 0.000000 0.000000
# 4 0.000000 0.000000 0.000000 0.039159 0.000000 0.000000
# 5 0.000000 0.000000 0.000000 0.000000 0.039795 0.000000
# 6 0.000000 0.000000 0.000000 0.000000 0.000000 0.025743
#
#
# Mechanical properties :
#
#
# Convention : Reuss Voigt Hill
#
# Bulk Modulus (GPa) = 72.12950 81.20693 76.66821
# Shear Modulus (GPa) = 27.08394 30.89027 28.98710
#
# Velocity S-wave (km/s) = 3.78143 4.03841 3.91203
# Velocity P-wave (km/s) = 7.55957 8.03859 7.80276
#
# Compressibility (1/GPa) = 0.01386395
#
# Stress axis : x y z
#
# Youngs Moduli (GPa) = 71.28622 46.11185 112.81452
#
# Poissons Ratio (x) = 0.50859 0.34543
# Poissons Ratio (y) = 0.78625 0.14282
# Poissons Ratio (z) = 0.21827 0.05837
#
# Static dielectric constant tensor:
#      x y z
#    x 3.464740 0.000000 0.000000 
#    y 0.000000 3.260380 0.000000 
#    z 0.000000 0.000000 3.506910 
# 
# 
# High freq. dielectric constant tensor:
#      x y z
#    x 1.739420 0.000000 0.000000 
#    y 0.000000 1.715920 0.000000 
#    z 0.000000 0.000000 1.755800 
# 
# From -- ./inp_files/3611.got.cif
#   From: 2010.03.12/outbox.cif.g09.slc.cpg/sg66_2_cif.got.tgz:3611.got - 2010.04.10 21:57:39.
