data_PCOD8276815
_publ_section_title
;
Structure prediction by ZEFSAII (Michael W. Deem and Ramdas Pophale) SiO2 
 PCOD8276815
Probable space group: C C C M
;
_chemical_formula_sum "Si O2"
_cell_formula_units_Z 104
_cell_length_a 8.702510
_cell_length_b 19.689014
_cell_length_c 30.217893
_cell_angle_alpha 90.000000
_cell_angle_beta 90.000000
_cell_angle_gamma 90.000000
_cell_volume 5177.649860
_symmetry_space_group_name_H-M "C C C M"
_symmetry_group_IT_number 66
_symmetry_cell_setting 'orthorhombic'
loop_
_space_group_symop_operation_xyz
x,y,z
-x,-y,z
x,-y,1/2-z
-x,y,1/2-z
-x,-y,-z
x,y,-z
-x,y,1/2+z
x,-y,1/2+z
1/2+x,1/2+y,z
1/2-x,1/2-y,z
1/2+x,1/2-y,1/2-z
1/2-x,1/2+y,1/2-z
1/2-x,1/2-y,-z
1/2+x,1/2+y,-z
1/2-x,1/2+y,1/2+z
1/2+x,1/2-y,1/2+z
loop_
_atom_site_type_symbol
_atom_site_label
_atom_site_fract_x
_atom_site_fract_y
_atom_site_fract_z
Si Si1 0.453454 0.142498 0.887205
Si Si2 0.016859 0.203180 0.384932
Si Si3 0.177523 0.578471 0.240233
Si Si4 0.000000 0.000000 0.404749
Si Si5 0.758016 0.903921 0.360895
Si Si6 0.278161 0.326508 0.187655
Si Si7 0.822392 0.119639 0.448076
O O1 0.529463 0.216808 0.890090
O O2 0.590883 0.087274 0.884040
O O3 0.355632 0.141764 0.842456
O O4 0.350461 0.122574 0.929129
O O5 0.182136 0.168234 0.380158
O O6 0.932048 0.175034 0.341069
O O7 0.922467 0.180740 0.428283
O O8 0.208354 0.500000 0.250000
O O9 0.227989 0.597083 0.191089
O O10 0.290506 0.623880 0.270538
O O11 0.000000 0.597790 0.250000
O O12 0.123803 0.036714 0.373338
O O13 0.905733 0.049508 0.436347
O O14 0.250000 0.250000 0.204494
O O15 0.811478 0.128899 0.500000
#
# Coordination Sequence:
#
# PCOD8276815 Si02
#       7
#    16  16  16   8  16  16  16
#     4  10  20  38  65  88 121 158 207 248 308 380
#     4   9  21  38  61  93 120 160 201 251 314 370
#     4  11  24  37  59  89 121 164 219 269 306 350
#     4  10  25  42  61  90 122 168 204 247 315 382
#     4  11  23  40  60  85 126 165 206 255 309 361
#     4   9  19  39  58  84 120 160 208 256 308 370
#     4  10  21  40  67  93 124 159 198 254 311 374
#
# _framework density 20.086333
#
# number of rings (size 3 to 8) (size 9 to 14) (size 15 to 20)
#    0.000    2.000    1.538    2.077    6.462    3.692 
#    0.000    4.615    0.000    4.615    0.000    0.000 
#    0.000    0.000    0.000    0.000    0.000    0.000 
#
# Total GULP energy -644631.363158 kJ/mol
# GULP energy per Si atom -12396.756984 kJ/mol
# Density = 2.004062 g / cm^3
# Si number density = 20.086333 Si / 1000 Ang^3
#
#
#
# Elastic Constant Matrix: (Units=GPa)
#
#
# Indices 1 2 3 4 5 6 
#
# 1 102.5796 16.9394 45.4392 0.0000 0.0000 0.0000
# 2 16.9394 34.2149 25.3989 0.0000 0.0000 0.0000
# 3 45.4392 25.3989 148.3778 0.0000 0.0000 0.0000
# 4 0.0000 0.0000 0.0000 14.8378 0.0000 0.0000
# 5 0.0000 0.0000 0.0000 0.0000 12.1974 0.0000
# 6 0.0000 0.0000 0.0000 0.0000 0.0000 16.6236
#
#
#
# Elastic Compliance Matrix: (Units=1/GPa)
#
#
# Indices 1 2 3 4 5 6 
#
# 1 0.011648 -0.003573 -0.002955 0.000000 0.000000 0.000000
# 2 -0.003573 0.034577 -0.004825 0.000000 0.000000 0.000000
# 3 -0.002955 -0.004825 0.008471 0.000000 0.000000 0.000000
# 4 0.000000 0.000000 0.000000 0.067395 0.000000 0.000000
# 5 0.000000 0.000000 0.000000 0.000000 0.081985 0.000000
# 6 0.000000 0.000000 0.000000 0.000000 0.000000 0.060156
#
#
# Mechanical properties :
#
#
# Convention : Reuss Voigt Hill
#
# Bulk Modulus (GPa) = 31.25993 51.19191 41.22592
# Shear Modulus (GPa) = 16.80106 21.89141 19.34624
#
# Velocity S-wave (km/s) = 2.89527 3.30489 3.10684
# Velocity P-wave (km/s) = 5.17430 6.33280 5.78263
#
# Compressibility (1/GPa) = 0.03198984
#
# Stress axis : x y z
#
# Youngs Moduli (GPa) = 85.85421 28.92061 118.05677
#
# Poissons Ratio (x) = 0.10332 0.34891
# Poissons Ratio (y) = 0.30673 0.56959
# Poissons Ratio (z) = 0.25373 0.13953
#
# Static dielectric constant tensor:
#      x y z
#    x 3.852520 0.000000 0.000000 
#    y 0.000000 4.059510 0.000000 
#    z 0.000000 0.000000 3.405330 
# 
# 
# High freq. dielectric constant tensor:
#      x y z
#    x 1.792110 0.000000 0.000000 
#    y 0.000000 1.787340 0.000000 
#    z 0.000000 0.000000 1.767330 
# 
# From -- ./inp_files/68272.got.cif
#   From: 2010.03.12/outbox.cif.g09.slc.cpg/sg66_35_cif.got.tgz:68272.got - 2010.04.10 21:57:39.
