data_PCOD8276403
_publ_section_title
;
Structure prediction by ZEFSAII (Michael W. Deem and Ramdas Pophale) SiO2 
 PCOD8276403
Probable space group: C C C M
;
_chemical_formula_sum "Si O2"
_cell_formula_units_Z 80
_cell_length_a 11.455363
_cell_length_b 21.001078
_cell_length_c 14.434993
_cell_angle_alpha 90.000000
_cell_angle_beta 90.000000
_cell_angle_gamma 90.000000
_cell_volume 3472.698035
_symmetry_space_group_name_H-M "C C C M"
_symmetry_group_IT_number 66
_symmetry_cell_setting 'orthorhombic'
loop_
_space_group_symop_operation_xyz
x,y,z
-x,-y,z
x,-y,1/2-z
-x,y,1/2-z
-x,-y,-z
x,y,-z
-x,y,1/2+z
x,-y,1/2+z
1/2+x,1/2+y,z
1/2-x,1/2-y,z
1/2+x,1/2-y,1/2-z
1/2-x,1/2+y,1/2-z
1/2-x,1/2-y,-z
1/2+x,1/2+y,-z
1/2-x,1/2+y,1/2+z
1/2+x,1/2-y,1/2+z
loop_
_atom_site_type_symbol
_atom_site_label
_atom_site_fract_x
_atom_site_fract_y
_atom_site_fract_z
Si Si1 0.789382 0.883441 0.396259
Si Si2 0.232707 0.850900 0.607042
Si Si3 0.651764 0.199868 0.774596
Si Si4 0.989811 0.213699 0.894390
Si Si5 0.122654 0.980137 0.394275
O O1 0.755985 0.863996 0.500000
O O2 0.682759 0.863530 0.331344
O O3 0.912988 0.849177 0.370913
O O4 0.794658 0.959285 0.386416
O O5 0.272891 0.855244 0.500000
O O6 0.341081 0.822053 0.666271
O O7 0.189683 0.919166 0.648822
O O8 0.125413 0.802228 0.620474
O O9 0.750000 0.250000 0.802827
O O10 0.532728 0.229773 0.818608
O O11 0.966376 0.236211 0.000000
O O12 0.094001 0.959779 0.500000
O O13 0.000000 0.000000 0.345547
#
# Coordination Sequence:
#
# PCOD8276403 Si02
#       5
#    16  16  16  16  16
#     4   9  16  28  47  72 104 139 174 215 264 317
#     4  10  20  34  53  76 108 152 189 221 273 331
#     4  10  21  32  47  73 107 143 190 231 268 317
#     4   9  17  33  54  73 102 145 188 229 269 322
#     4   9  15  28  49  75 107 144 178 211 263 341
#
# _framework density 23.036843000000001
#
# number of rings (size 3 to 8) (size 9 to 14) (size 15 to 20)
#    0.000    2.600    2.000    0.600    0.000    6.800 
#    0.000    1.000    0.000    2.400    0.000    0.000 
#    0.000   27.200    0.000  112.600    0.000    1.000 
#
# Total GULP energy -495647.984239 kJ/mol
# GULP energy per Si atom -12391.199606 kJ/mol
# Density = 2.298441 g / cm^3
# Si number density = 23.036843 Si / 1000 Ang^3
#
#
#
# Elastic Constant Matrix: (Units=GPa)
#
#
# Indices 1 2 3 4 5 6 
#
# 1 56.7873 34.7958 44.5001 0.0000 0.0000 0.0000
# 2 34.7958 114.4465 61.2203 0.0000 0.0000 0.0000
# 3 44.5001 61.2203 128.3398 0.0000 0.0000 0.0000
# 4 0.0000 0.0000 0.0000 23.4839 0.0000 0.0000
# 5 0.0000 0.0000 0.0000 0.0000 29.2963 0.0000
# 6 0.0000 0.0000 0.0000 0.0000 0.0000 24.0811
#
#
#
# Elastic Compliance Matrix: (Units=1/GPa)
#
#
# Indices 1 2 3 4 5 6 
#
# 1 0.025512 -0.004061 -0.006909 0.000000 0.000000 0.000000
# 2 -0.004061 0.012377 -0.004496 0.000000 0.000000 0.000000
# 3 -0.006909 -0.004496 0.012332 0.000000 0.000000 0.000000
# 4 0.000000 0.000000 0.000000 0.042582 0.000000 0.000000
# 5 0.000000 0.000000 0.000000 0.000000 0.034134 0.000000
# 6 0.000000 0.000000 0.000000 0.000000 0.000000 0.041526
#
#
# Mechanical properties :
#
#
# Convention : Reuss Voigt Hill
#
# Bulk Modulus (GPa) = 51.84121 64.51179 58.17650
# Shear Modulus (GPa) = 24.29243 25.97609 25.13426
#
# Velocity S-wave (km/s) = 3.25084 3.36160 3.30668
# Velocity P-wave (km/s) = 6.05335 6.56747 6.31564
#
# Compressibility (1/GPa) = 0.01928967
#
# Stress axis : x y z
#
# Youngs Moduli (GPa) = 39.19780 80.79176 81.08902
#
# Poissons Ratio (x) = 0.32808 0.56022
# Poissons Ratio (y) = 0.15917 0.36460
# Poissons Ratio (z) = 0.27081 0.36326
#
# Static dielectric constant tensor:
#      x y z
#    x 3.791300 0.000000 0.000000 
#    y 0.000000 4.264830 0.000000 
#    z 0.000000 0.000000 4.246230 
# 
# 
# High freq. dielectric constant tensor:
#      x y z
#    x 1.865940 0.000000 0.000000 
#    y 0.000000 1.908470 0.000000 
#    z 0.000000 0.000000 1.920790 
# 
# From -- ./inp_files/26404.got.cif
#   From: 2010.03.12/outbox.cif.g09.slc.cpg/sg66_14_cif.got.tgz:26404.got - 2010.04.10 21:57:39.
