data_PCOD8276287
_publ_section_title
;
Structure prediction by ZEFSAII (Michael W. Deem and Ramdas Pophale) SiO2 
 PCOD8276287
Probable space group: C C C M
;
_chemical_formula_sum "Si O2"
_cell_formula_units_Z 84
_cell_length_a 6.245149
_cell_length_b 26.621384
_cell_length_c 18.571088
_cell_angle_alpha 90.000000
_cell_angle_beta 90.000000
_cell_angle_gamma 90.000000
_cell_volume 3087.527129
_symmetry_space_group_name_H-M "C C C M"
_symmetry_group_IT_number 66
_symmetry_cell_setting 'orthorhombic'
loop_
_space_group_symop_operation_xyz
x,y,z
-x,-y,z
x,-y,1/2-z
-x,y,1/2-z
-x,-y,-z
x,y,-z
-x,y,1/2+z
x,-y,1/2+z
1/2+x,1/2+y,z
1/2-x,1/2-y,z
1/2+x,1/2-y,1/2-z
1/2-x,1/2+y,1/2-z
1/2-x,1/2-y,-z
1/2+x,1/2+y,-z
1/2-x,1/2+y,1/2+z
1/2+x,1/2-y,1/2+z
loop_
_atom_site_type_symbol
_atom_site_label
_atom_site_fract_x
_atom_site_fract_y
_atom_site_fract_z
Si Si1 0.084432 0.168352 0.083912
Si Si2 0.824050 0.059960 0.627943
Si Si3 0.488377 0.763444 0.164419
Si Si4 0.000000 0.000000 0.750000
Si Si5 0.695365 0.960470 0.419165
Si Si6 0.407961 0.858044 0.083333
O O1 0.135361 0.216675 0.136453
O O2 0.840526 0.153737 0.095032
O O3 0.225823 0.119021 0.110248
O O4 0.130531 0.181129 0.000000
O O5 0.055367 0.046573 0.596700
O O6 0.840523 0.039216 0.709545
O O7 0.646381 0.020810 0.592605
O O8 0.500000 0.769617 0.250000
O O9 0.250000 0.750000 0.139563
O O10 0.550516 0.816051 0.124557
O O11 0.662874 0.944409 0.500000
O O12 0.561362 0.914489 0.380116
O O13 0.475548 0.853776 0.000000
#
# Coordination Sequence:
#
# PCOD8276287 Si02
#       6
#    16  16  16   4  16  16
#     4   9  16  26  44  66  92 131 171 212 257 306
#     4   9  14  21  33  56  93 128 157 188 248 311
#     4  10  20  32  47  70 101 135 175 213 261 309
#     4   8  16  20  26  48  88 132 152 176 236 320
#     4   8  12  20  36  57  82 116 155 197 239 286
#     4   8  14  26  44  65  89 124 173 218 251 294
#
# _framework density 27.206239
#
# number of rings (size 3 to 8) (size 9 to 14) (size 15 to 20)
#    0.000    3.429    0.000    4.000    1.333    2.286 
#    0.000    0.000    0.000    2.286    0.000    0.000 
#    0.000    3.048    0.000    6.095   32.762   45.524 
#
# Total GULP energy -520329.111124 kJ/mol
# GULP energy per Si atom -12388.788360 kJ/mol
# Density = 2.714432 g / cm^3
# Si number density = 27.206239 Si / 1000 Ang^3
#
#
#
# Elastic Constant Matrix: (Units=GPa)
#
#
# Indices 1 2 3 4 5 6 
#
# 1 112.0125 93.2569 -6.3423 0.0000 0.0000 0.0000
# 2 93.2569 328.2718 113.7673 0.0000 0.0000 0.0000
# 3 -6.3423 113.7673 166.4973 0.0000 0.0000 0.0000
# 4 0.0000 0.0000 0.0000 65.1247 0.0000 0.0000
# 5 0.0000 0.0000 0.0000 0.0000 18.6117 0.0000
# 6 0.0000 0.0000 0.0000 0.0000 0.0000 82.2312
#
#
#
# Elastic Compliance Matrix: (Units=1/GPa)
#
#
# Indices 1 2 3 4 5 6 
#
# 1 0.013558 -0.005281 0.004125 0.000000 0.000000 0.000000
# 2 -0.005281 0.006049 -0.004334 0.000000 0.000000 0.000000
# 3 0.004125 -0.004334 0.009125 0.000000 0.000000 0.000000
# 4 0.000000 0.000000 0.000000 0.015355 0.000000 0.000000
# 5 0.000000 0.000000 0.000000 0.000000 0.053730 0.000000
# 6 0.000000 0.000000 0.000000 0.000000 0.000000 0.012161
#
#
# Mechanical properties :
#
#
# Convention : Reuss Voigt Hill
#
# Bulk Modulus (GPa) = 56.33520 112.01614 84.17567
# Shear Modulus (GPa) = 39.40890 60.26684 49.83787
#
# Velocity S-wave (km/s) = 3.81008 4.71168 4.28466
# Velocity P-wave (km/s) = 6.33303 8.41797 7.44881
#
# Compressibility (1/GPa) = 0.01775089
#
# Stress axis : x y z
#
# Youngs Moduli (GPa) = 73.75657 165.32560 109.59137
#
# Poissons Ratio (x) = 0.87313 -0.45208
# Poissons Ratio (y) = 0.38953 0.47499
# Poissons Ratio (z) = -0.30426 0.71656
#
# Static dielectric constant tensor:
#      x y z
#    x 5.572960 0.000000 0.000000 
#    y 0.000000 5.515540 0.000000 
#    z 0.000000 0.000000 4.531480 
# 
# 
# High freq. dielectric constant tensor:
#      x y z
#    x 2.195450 0.000000 0.000000 
#    y 0.000000 2.152820 0.000000 
#    z 0.000000 0.000000 2.034890 
# 
# From -- ./inp_files/48898.got.cif
#   From: 2010.03.12/outbox.cif.g09.slc.cpg/sg66_25_cif.got.tgz:48898.got - 2010.04.10 21:57:39.
