data_PCOD8276465
_publ_section_title
;
Structure prediction by ZEFSAII (Michael W. Deem and Ramdas Pophale) SiO2 
 PCOD8276465
Probable space group: C C C M
;
_chemical_formula_sum "Si O2"
_cell_formula_units_Z 80
_cell_length_a 8.961450
_cell_length_b 17.979340
_cell_length_c 24.759186
_cell_angle_alpha 90.000000
_cell_angle_beta 90.000000
_cell_angle_gamma 90.000000
_cell_volume 3989.223729
_symmetry_space_group_name_H-M "C C C M"
_symmetry_group_IT_number 66
_symmetry_cell_setting 'orthorhombic'
loop_
_space_group_symop_operation_xyz
x,y,z
-x,-y,z
x,-y,1/2-z
-x,y,1/2-z
-x,-y,-z
x,y,-z
-x,y,1/2+z
x,-y,1/2+z
1/2+x,1/2+y,z
1/2-x,1/2-y,z
1/2+x,1/2-y,1/2-z
1/2-x,1/2+y,1/2-z
1/2-x,1/2-y,-z
1/2+x,1/2+y,-z
1/2-x,1/2+y,1/2+z
1/2+x,1/2-y,1/2+z
loop_
_atom_site_type_symbol
_atom_site_label
_atom_site_fract_x
_atom_site_fract_y
_atom_site_fract_z
Si Si1 0.872396 0.058848 0.062341
Si Si2 0.050097 0.195988 0.901711
Si Si3 0.646186 0.846855 0.060209
Si Si4 0.580419 0.930080 0.627713
Si Si5 0.412553 0.781378 0.805040
O O1 0.734957 0.042624 0.101743
O O2 0.925722 0.142748 0.073251
O O3 0.824380 0.050684 0.000000
O O4 0.000000 0.000000 0.077597
O O5 0.210672 0.154330 0.899628
O O6 0.064928 0.266816 0.940969
O O7 0.003017 0.223584 0.842380
O O8 0.528936 0.907844 0.078895
O O9 0.701701 0.866959 0.000000
O O10 0.603207 0.862560 0.668690
O O11 0.500000 0.000000 0.657506
O O12 0.500000 0.790471 0.750000
O O13 0.250000 0.750000 0.792890
#
# Coordination Sequence:
#
# PCOD8276465 Si02
#       5
#    16  16  16  16  16
#     4  11  22  37  61  91 134 179 213 253 313 388
#     4  10  20  38  60  91 124 163 213 265 313 375
#     4  10  20  34  60  93 130 173 210 250 308 376
#     4  11  24  41  62  94 134 166 211 265 317 384
#     4  11  25  45  71  92 117 162 215 272 334 381
#
# _framework density 20.054026
#
# number of rings (size 3 to 8) (size 9 to 14) (size 15 to 20)
#    0.000    1.400    2.000    4.200    5.600    3.600 
#    0.000    3.000    0.000    0.600    0.000    0.000 
#    0.000    0.000    0.000    0.000    0.000    0.000 
#
# Total GULP energy -496021.721639 kJ/mol
# GULP energy per Si atom -12400.543041 kJ/mol
# Density = 2.000838 g / cm^3
# Si number density = 20.054026 Si / 1000 Ang^3
#
#
#
# Elastic Constant Matrix: (Units=GPa)
#
#
# Indices 1 2 3 4 5 6 
#
# 1 138.4357 53.8283 63.5460 0.0000 0.0000 0.0000
# 2 53.8283 100.2797 34.5969 0.0000 0.0000 0.0000
# 3 63.5460 34.5969 122.2057 0.0000 0.0000 0.0000
# 4 0.0000 0.0000 0.0000 10.8455 0.0000 0.0000
# 5 0.0000 0.0000 0.0000 0.0000 35.2073 0.0000
# 6 0.0000 0.0000 0.0000 0.0000 0.0000 41.1644
#
#
#
# Elastic Compliance Matrix: (Units=1/GPa)
#
#
# Indices 1 2 3 4 5 6 
#
# 1 0.010965 -0.004343 -0.004472 0.000000 0.000000 0.000000
# 2 -0.004343 0.012772 -0.001357 0.000000 0.000000 0.000000
# 3 -0.004472 -0.001357 0.010893 0.000000 0.000000 0.000000
# 4 0.000000 0.000000 0.000000 0.092204 0.000000 0.000000
# 5 0.000000 0.000000 0.000000 0.000000 0.028403 0.000000
# 6 0.000000 0.000000 0.000000 0.000000 0.000000 0.024293
#
#
# Mechanical properties :
#
#
# Convention : Reuss Voigt Hill
#
# Bulk Modulus (GPa) = 70.00699 73.87371 71.94035
# Shear Modulus (GPa) = 24.43358 31.37343 27.90350
#
# Velocity S-wave (km/s) = 3.49433 3.95960 3.73422
# Velocity P-wave (km/s) = 7.15999 7.60407 7.38537
#
# Compressibility (1/GPa) = 0.01428429
#
# Stress axis : x y z
#
# Youngs Moduli (GPa) = 91.19792 78.29849 91.80402
#
# Poissons Ratio (x) = 0.34005 0.41057
# Poissons Ratio (y) = 0.39607 0.12462
# Poissons Ratio (z) = 0.40786 0.10628
#
# Static dielectric constant tensor:
#      x y z
#    x 3.826980 0.000000 0.000000 
#    y 0.000000 3.852280 0.000000 
#    z 0.000000 0.000000 3.372030 
# 
# 
# High freq. dielectric constant tensor:
#      x y z
#    x 1.797670 0.000000 0.000000 
#    y 0.000000 1.796590 0.000000 
#    z 0.000000 0.000000 1.751730 
# 
# From -- ./inp_files/62376.got.cif
#   From: 2010.03.12/outbox.cif.g09.slc.cpg/sg66_32_cif.got.tgz:62376.got - 2010.04.10 21:57:39.
