data_PCOD8276322
_publ_section_title
;
Structure prediction by ZEFSAII (Michael W. Deem and Ramdas Pophale) SiO2 
 PCOD8276322
Probable space group: C C C M
;
_chemical_formula_sum "Si O2"
_cell_formula_units_Z 88
_cell_length_a 29.859042
_cell_length_b 5.113306
_cell_length_c 32.859692
_cell_angle_alpha 90.000000
_cell_angle_beta 90.000000
_cell_angle_gamma 90.000000
_cell_volume 5016.965811
_symmetry_space_group_name_H-M "C C C M"
_symmetry_group_IT_number 66
_symmetry_cell_setting 'orthorhombic'
loop_
_space_group_symop_operation_xyz
x,y,z
-x,-y,z
x,-y,1/2-z
-x,y,1/2-z
-x,-y,-z
x,y,-z
-x,y,1/2+z
x,-y,1/2+z
1/2+x,1/2+y,z
1/2-x,1/2-y,z
1/2+x,1/2-y,1/2-z
1/2-x,1/2+y,1/2-z
1/2-x,1/2-y,-z
1/2+x,1/2+y,-z
1/2-x,1/2+y,1/2+z
1/2+x,1/2-y,1/2+z
loop_
_atom_site_type_symbol
_atom_site_label
_atom_site_fract_x
_atom_site_fract_y
_atom_site_fract_z
Si Si1 0.553148 0.496325 0.094691
Si Si2 0.891089 0.098285 0.324299
Si Si3 0.656933 0.077651 0.202995
Si Si4 0.480104 0.749231 0.705071
Si Si5 0.250000 0.750000 0.776926
Si Si6 0.552789 0.995380 0.044993
O O1 0.500000 0.500000 0.104525
O O2 0.583339 0.556798 0.133724
O O3 0.568823 0.221405 0.075776
O O4 0.567079 0.715400 0.062167
O O5 0.852505 0.322009 0.325394
O O6 0.926629 0.231749 0.292984
O O7 0.875003 0.819988 0.307803
O O8 0.708098 0.167187 0.194890
O O9 0.651294 0.000000 0.250000
O O10 0.500000 0.500000 0.681109
O O11 0.500000 0.756380 0.750000
O O12 0.500000 0.000000 0.680923
O O13 0.265033 0.500000 0.750000
O O14 0.500000 0.000000 0.040716
O O15 0.574183 0.034255 0.000000
#
# Coordination Sequence:
#
# PCOD8276322 Si02
#       6
#    16  16  16  16   8  16
#     4  10  20  33  48  71 107 140 169 213 256 291
#     4  12  23  35  52  76 102 137 174 213 262 307
#     4  11  24  37  57  75  96 128 175 223 266 319
#     4  10  22  34  45  61  93 133 177 214 237 273
#     4  10  20  42  58  78  94 118 163 230 289 316
#     4   9  17  31  52  72  93 132 182 215 247 297
#
# _framework density 17.540482000000001
#
# number of rings (size 3 to 8) (size 9 to 14) (size 15 to 20)
#    0.000    1.636    0.000    6.000    7.636    4.364 
#    0.000    0.000    0.000    0.000    0.000    0.000 
#    0.000    0.000    0.000   57.273    0.000    0.000 
#
# Total GULP energy -545263.848120 kJ/mol
# GULP energy per Si atom -12392.360185 kJ/mol
# Density = 1.750056 g / cm^3
# Si number density = 17.540482 Si / 1000 Ang^3
#
#
#
# Elastic Constant Matrix: (Units=GPa)
#
#
# Indices 1 2 3 4 5 6 
#
# 1 75.7396 34.2329 40.2357 0.0000 0.0000 0.0000
# 2 34.2329 148.2466 32.7860 0.0000 0.0000 0.0000
# 3 40.2357 32.7860 89.2378 0.0000 0.0000 0.0000
# 4 0.0000 0.0000 0.0000 -109.0716 0.0000 0.0000
# 5 0.0000 0.0000 0.0000 0.0000 -25.5062 0.0000
# 6 0.0000 0.0000 0.0000 0.0000 0.0000 31.7345
#
#
#
# Elastic Compliance Matrix: (Units=1/GPa)
#
#
# Indices 1 2 3 4 5 6 
#
# 1 0.018241 -0.002605 -0.007268 0.000000 0.000000 0.000000
# 2 -0.002605 0.007714 -0.001660 0.000000 0.000000 0.000000
# 3 -0.007268 -0.001660 0.015093 0.000000 0.000000 0.000000
# 4 0.000000 0.000000 0.000000 -0.009168 0.000000 0.000000
# 5 0.000000 0.000000 0.000000 0.000000 -0.039206 0.000000
# 6 0.000000 0.000000 0.000000 0.000000 0.000000 0.031511
#
#
# Mechanical properties :
#
#
# Convention : Reuss Voigt Hill
#
# Bulk Modulus (GPa) = 55.60622 58.63703 57.12163
# Shear Modulus (GPa) = 93.90747 -6.83734 43.53506
#
# Velocity S-wave (km/s) = 7.32487 -1.97649 4.98735
# Velocity P-wave (km/s) = 10.16410 5.31916 8.11179
#
# Compressibility (1/GPa) = 0.01798360
#
# Stress axis : x y z
#
# Youngs Moduli (GPa) = 54.82048 129.63284 66.25769
#
# Poissons Ratio (x) = 0.33769 0.48154
# Poissons Ratio (y) = 0.14281 0.10996
# Poissons Ratio (z) = 0.39841 0.21514
#
# Static dielectric constant tensor:
#      x y z
#    x 3.219880 0.000000 0.000000 
#    y 0.000000 3.364800 0.000000 
#    z 0.000000 0.000000 3.039960 
# 
# 
# High freq. dielectric constant tensor:
#      x y z
#    x 1.637510 0.000000 0.000000 
#    y 0.000000 1.716520 0.000000 
#    z 0.000000 0.000000 1.647540 
# 
# From -- ./inp_files/70542.got.cif
#   From: 2010.03.12/outbox.cif.g09.slc.cpg/sg66_36_cif.got.tgz:70542.got - 2010.04.10 21:57:39.
