data_PCOD8276009
_publ_section_title
;
Structure prediction by ZEFSAII (Michael W. Deem and Ramdas Pophale) SiO2 
 PCOD8276009
Probable space group: C C C M
;
_chemical_formula_sum "Si O2"
_cell_formula_units_Z 72
_cell_length_a 12.165010
_cell_length_b 20.817677
_cell_length_c 14.490934
_cell_angle_alpha 90.000000
_cell_angle_beta 90.000000
_cell_angle_gamma 90.000000
_cell_volume 3669.789169
_symmetry_space_group_name_H-M "C C C M"
_symmetry_group_IT_number 66
_symmetry_cell_setting 'orthorhombic'
loop_
_space_group_symop_operation_xyz
x,y,z
-x,-y,z
x,-y,1/2-z
-x,y,1/2-z
-x,-y,-z
x,y,-z
-x,y,1/2+z
x,-y,1/2+z
1/2+x,1/2+y,z
1/2-x,1/2-y,z
1/2+x,1/2-y,1/2-z
1/2-x,1/2+y,1/2-z
1/2-x,1/2-y,-z
1/2+x,1/2+y,-z
1/2-x,1/2+y,1/2+z
1/2+x,1/2-y,1/2+z
loop_
_atom_site_type_symbol
_atom_site_label
_atom_site_fract_x
_atom_site_fract_y
_atom_site_fract_z
Si Si1 0.885589 0.459857 0.500000
Si Si2 0.608842 0.141232 0.808662
Si Si3 0.749370 0.524697 0.344265
Si Si4 0.585163 0.702479 0.500000
Si Si5 0.250000 0.750000 0.150392
Si Si6 0.508062 0.834914 0.500000
Si Si7 0.085062 0.059127 0.500000
O O1 0.816484 0.474008 0.407380
O O2 0.000000 0.500000 0.500000
O O3 0.902969 0.382228 0.500000
O O4 0.500000 0.145766 0.750000
O O5 0.664761 0.073065 0.797173
O O6 0.690222 0.199455 0.781376
O O7 0.586138 0.147995 0.916155
O O8 0.691228 0.500000 0.250000
O O9 0.657316 0.556755 0.407621
O O10 0.661362 0.711183 0.410412
O O11 0.487147 0.757195 0.500000
O O12 0.530855 0.630732 0.500000
O O13 0.000000 0.000000 0.500000
#
# Coordination Sequence:
#
# PCOD8276009 Si02
#       7
#     8  16  16   8   8   8   8
#     4  11  19  32  54  92 131 153 196 254 310 365
#     4  11  20  33  59  90 121 163 201 253 314 367
#     4  11  23  36  57  91 126 160 203 259 313 373
#     4   9  17  35  64  83 110 153 207 258 299 352
#     4   9  18  34  58  87 120 146 204 259 294 369
#     4  10  19  33  56  89 116 155 202 246 301 352
#     4  11  23  44  66  86 117 163 220 260 304 367
#
# _framework density 19.619655999999999
#
# number of rings (size 3 to 8) (size 9 to 14) (size 15 to 20)
#    0.000    1.556    4.444    2.667    0.000    0.444 
#    0.000    4.444    0.000    3.333    0.000    0.000 
#    0.000    0.000    0.000    0.000    0.000    0.000 
#
# Total GULP energy -446025.016803 kJ/mol
# GULP energy per Si atom -12389.583800 kJ/mol
# Density = 1.957500 g / cm^3
# Si number density = 19.619656 Si / 1000 Ang^3
#
#
#
# Elastic Constant Matrix: (Units=GPa)
#
#
# Indices 1 2 3 4 5 6 
#
# 1 62.6163 51.5162 22.8006 0.0000 0.0000 0.0000
# 2 51.5162 164.4655 27.3909 0.0000 0.0000 0.0000
# 3 22.8006 27.3909 103.0176 0.0000 0.0000 0.0000
# 4 0.0000 0.0000 0.0000 14.5843 0.0000 0.0000
# 5 0.0000 0.0000 0.0000 0.0000 10.5052 0.0000
# 6 0.0000 0.0000 0.0000 0.0000 0.0000 42.9078
#
#
#
# Elastic Compliance Matrix: (Units=1/GPa)
#
#
# Indices 1 2 3 4 5 6 
#
# 1 0.022510 -0.006509 -0.003251 0.000000 0.000000 0.000000
# 2 -0.006509 0.008244 -0.000751 0.000000 0.000000 0.000000
# 3 -0.003251 -0.000751 0.010626 0.000000 0.000000 0.000000
# 4 0.000000 0.000000 0.000000 0.068567 0.000000 0.000000
# 5 0.000000 0.000000 0.000000 0.000000 0.095191 0.000000
# 6 0.000000 0.000000 0.000000 0.000000 0.000000 0.023306
#
#
# Mechanical properties :
#
#
# Convention : Reuss Voigt Hill
#
# Bulk Modulus (GPa) = 49.12424 59.27942 54.20183
# Shear Modulus (GPa) = 19.51193 28.82557 24.16875
#
# Velocity S-wave (km/s) = 3.15701 3.83720 3.51360
# Velocity P-wave (km/s) = 6.19528 7.06484 6.64430
#
# Compressibility (1/GPa) = 0.02035655
#
# Stress axis : x y z
#
# Youngs Moduli (GPa) = 44.42560 121.29483 94.10477
#
# Poissons Ratio (x) = 0.78954 0.30596
# Poissons Ratio (y) = 0.28918 0.07071
# Poissons Ratio (z) = 0.14444 0.09114
#
# Static dielectric constant tensor:
#      x y z
#    x 3.357060 0.000000 0.000000 
#    y 0.000000 4.069110 0.000000 
#    z 0.000000 0.000000 3.459600 
# 
# 
# High freq. dielectric constant tensor:
#      x y z
#    x 1.724950 0.000000 0.000000 
#    y 0.000000 1.776050 0.000000 
#    z 0.000000 0.000000 1.759500 
# 
# From -- ./inp_files/28026.got.cif
#   From: 2010.03.12/outbox.cif.g09.slc.cpg/sg66_15_cif.got.tgz:28026.got - 2010.04.10 21:57:39.
