data_PCOD8276013
_publ_section_title
;
Structure prediction by ZEFSAII (Michael W. Deem and Ramdas Pophale) SiO2 
 PCOD8276013
Probable space group: C C C M
;
_chemical_formula_sum "Si O2"
_cell_formula_units_Z 96
_cell_length_a 19.867101
_cell_length_b 15.574712
_cell_length_c 13.834374
_cell_angle_alpha 90.000000
_cell_angle_beta 90.000000
_cell_angle_gamma 90.000000
_cell_volume 4280.692547
_symmetry_space_group_name_H-M "C C C M"
_symmetry_group_IT_number 66
_symmetry_cell_setting 'orthorhombic'
loop_
_space_group_symop_operation_xyz
x,y,z
-x,-y,z
x,-y,1/2-z
-x,y,1/2-z
-x,-y,-z
x,y,-z
-x,y,1/2+z
x,-y,1/2+z
1/2+x,1/2+y,z
1/2-x,1/2-y,z
1/2+x,1/2-y,1/2-z
1/2-x,1/2+y,1/2-z
1/2-x,1/2-y,-z
1/2+x,1/2+y,-z
1/2-x,1/2+y,1/2+z
1/2+x,1/2-y,1/2+z
loop_
_atom_site_type_symbol
_atom_site_label
_atom_site_fract_x
_atom_site_fract_y
_atom_site_fract_z
Si Si1 0.798204 0.817379 0.735064
Si Si2 0.917170 0.753308 0.614291
Si Si3 0.292016 0.942715 0.890250
Si Si4 0.556381 0.064812 0.886081
Si Si5 0.672610 0.556745 0.891568
Si Si6 0.946038 0.937168 0.386886
O O1 0.750000 0.750000 0.790335
O O2 0.845005 0.760199 0.665261
O O3 0.749608 0.878163 0.674382
O O4 0.841802 0.867210 0.816215
O O5 0.903864 0.753935 0.500000
O O6 0.956033 0.665206 0.643982
O O7 0.957335 0.839065 0.648253
O O8 0.367936 0.959982 0.851632
O O9 0.251543 0.032791 0.887161
O O10 0.295382 0.906920 0.000000
O O11 0.500000 0.000000 0.839586
O O12 0.551221 0.054977 0.000000
O O13 0.628858 0.472145 0.861913
O O14 0.651895 0.586569 0.000000
O O15 0.958082 0.938341 0.500000
O O16 0.000000 0.000000 0.335958
#
# Coordination Sequence:
#
# PCOD8276013 Si02
#       6
#    16  16  16  16  16  16
#     4  12  22  34  58  91 124 159 209 261 321 374
#     4  10  19  33  57  92 128 158 200 255 313 376
#     4  10  19  34  60  91 122 159 205 260 317 372
#     4   9  18  33  56  91 130 164 199 245 309 380
#     4  10  22  39  58  84 120 162 211 259 314 381
#     4   9  18  35  60  88 118 157 199 250 312 370
#
# _framework density 22.426278
#
# number of rings (size 3 to 8) (size 9 to 14) (size 15 to 20)
#    0.000    2.000    3.333    1.000    0.000    1.000 
#    0.000    3.333    0.000    8.000    0.000    0.000 
#    0.000    0.667    0.000    0.000    0.000    0.000 
#
# Total GULP energy -594676.849351 kJ/mol
# GULP energy per Si atom -12389.101028 kJ/mol
# Density = 2.237523 g / cm^3
# Si number density = 22.426278 Si / 1000 Ang^3
#
#
#
# Elastic Constant Matrix: (Units=GPa)
#
#
# Indices 1 2 3 4 5 6 
#
# 1 131.3150 69.0648 15.9939 0.0000 0.0000 0.0000
# 2 69.0648 162.1903 41.9714 0.0000 0.0000 0.0000
# 3 15.9939 41.9714 63.5982 0.0000 0.0000 0.0000
# 4 0.0000 0.0000 0.0000 23.1815 0.0000 0.0000
# 5 0.0000 0.0000 0.0000 0.0000 0.6025 0.0000
# 6 0.0000 0.0000 0.0000 0.0000 0.0000 49.7947
#
#
#
# Elastic Compliance Matrix: (Units=1/GPa)
#
#
# Indices 1 2 3 4 5 6 
#
# 1 0.009819 -0.004272 0.000350 0.000000 0.000000 0.000000
# 2 -0.004272 0.009294 -0.005059 0.000000 0.000000 0.000000
# 3 0.000350 -0.005059 0.018975 0.000000 0.000000 0.000000
# 4 0.000000 0.000000 0.000000 0.043138 0.000000 0.000000
# 5 0.000000 0.000000 0.000000 0.000000 1.659640 0.000000
# 6 0.000000 0.000000 0.000000 0.000000 0.000000 0.020082
#
#
# Mechanical properties :
#
#
# Convention : Reuss Voigt Hill
#
# Bulk Modulus (GPa) = 49.68855 67.90705 58.79780
# Shear Modulus (GPa) = 2.80015 30.05396 16.42706
#
# Velocity S-wave (km/s) = 1.11862 3.66474 2.70939
# Velocity P-wave (km/s) = 4.88599 6.94643 6.00524
#
# Compressibility (1/GPa) = 0.02012536
#
# Stress axis : x y z
#
# Youngs Moduli (GPa) = 101.83846 107.59760 52.70223
#
# Poissons Ratio (x) = 0.45965 -0.01844
# Poissons Ratio (y) = 0.43504 0.26663
# Poissons Ratio (z) = -0.03562 0.54435
#
# Static dielectric constant tensor:
#      x y z
#    x 4.227130 0.000000 0.000000 
#    y 0.000000 4.348520 0.000000 
#    z 0.000000 0.000000 3.808720 
# 
# 
# High freq. dielectric constant tensor:
#      x y z
#    x 1.872780 0.000000 0.000000 
#    y 0.000000 1.878160 0.000000 
#    z 0.000000 0.000000 1.868450 
# 
# From -- ./inp_files/28374.got.cif
#   From: 2010.03.12/outbox.cif.g09.slc.cpg/sg66_15_cif.got.tgz:28374.got - 2010.04.10 21:57:39.
