data_PCOD8276281
_publ_section_title
;
Structure prediction by ZEFSAII (Michael W. Deem and Ramdas Pophale) SiO2 
 PCOD8276281
Probable space group: C C C M
;
_chemical_formula_sum "Si O2"
_cell_formula_units_Z 96
_cell_length_a 26.035840
_cell_length_b 28.270833
_cell_length_c 9.496330
_cell_angle_alpha 90.000000
_cell_angle_beta 90.000000
_cell_angle_gamma 90.000000
_cell_volume 6989.820083
_symmetry_space_group_name_H-M "C C C M"
_symmetry_group_IT_number 66
_symmetry_cell_setting 'orthorhombic'
loop_
_space_group_symop_operation_xyz
x,y,z
-x,-y,z
x,-y,1/2-z
-x,y,1/2-z
-x,-y,-z
x,y,-z
-x,y,1/2+z
x,-y,1/2+z
1/2+x,1/2+y,z
1/2-x,1/2-y,z
1/2+x,1/2-y,1/2-z
1/2-x,1/2+y,1/2-z
1/2-x,1/2-y,-z
1/2+x,1/2+y,-z
1/2-x,1/2+y,1/2+z
1/2+x,1/2-y,1/2+z
loop_
_atom_site_type_symbol
_atom_site_label
_atom_site_fract_x
_atom_site_fract_y
_atom_site_fract_z
Si Si1 0.549830 0.643680 0.335159
Si Si2 0.249221 0.853812 0.838162
Si Si3 0.715285 0.456025 0.162657
Si Si4 0.698291 0.780041 0.159570
Si Si5 0.147702 0.204835 0.337942
Si Si6 0.596757 0.455388 0.835926
O O1 0.500000 0.659771 0.250000
O O2 0.537839 0.645420 0.500000
O O3 0.594783 0.680012 0.295564
O O4 0.565754 0.590925 0.289022
O O5 0.247657 0.909236 0.800131
O O6 0.291729 0.829563 0.738889
O O7 0.192939 0.832568 0.811124
O O8 0.265335 0.845658 0.000000
O O9 0.737977 0.500000 0.250000
O O10 0.656138 0.446672 0.202493
O O11 0.720646 0.469036 0.000000
O O12 0.750000 0.750000 0.163685
O O13 0.654094 0.751029 0.240451
O O14 0.680515 0.790156 0.000000
O O15 0.147722 0.221348 0.500000
O O16 0.574622 0.500000 0.750000
O O17 0.589645 0.466045 0.000000
#
# Coordination Sequence:
#
# PCOD8276281 Si02
#       6
#    16  16  16  16  16  16
#     4  10  20  32  44  57  74  97 129 166 204 244
#     4   9  15  26  43  58  74 100 129 154 186 233
#     4   9  16  26  40  57  76 100 130 161 194 232
#     4   9  17  26  38  60  82  95 115 152 194 231
#     4   9  16  29  44  55  72  99 127 156 191 237
#     4   9  17  30  43  55  71  94 127 166 205 242
#
# _framework density 13.734259
#
# number of rings (size 3 to 8) (size 9 to 14) (size 15 to 20)
#    0.000    2.833    1.667    0.500    0.000    4.333 
#    0.000    1.667    0.000    0.000    0.000    0.000 
#    0.000    0.000    0.000    0.000    0.000    0.833 
#
# Total GULP energy -595173.294745 kJ/mol
# GULP energy per Si atom -12399.443641 kJ/mol
# Density = 1.370300 g / cm^3
# Si number density = 13.734259 Si / 1000 Ang^3
#
#
#
# Elastic Constant Matrix: (Units=GPa)
#
#
# Indices 1 2 3 4 5 6 
#
# 1 50.4108 46.8273 39.0347 0.0000 0.0000 0.0000
# 2 46.8273 94.0285 59.6878 0.0000 0.0000 0.0000
# 3 39.0347 59.6878 75.9119 0.0000 0.0000 0.0000
# 4 0.0000 0.0000 0.0000 24.9951 0.0000 0.0000
# 5 0.0000 0.0000 0.0000 0.0000 17.7209 0.0000
# 6 0.0000 0.0000 0.0000 0.0000 0.0000 17.8680
#
#
#
# Elastic Compliance Matrix: (Units=1/GPa)
#
#
# Indices 1 2 3 4 5 6 
#
# 1 0.040305 -0.013808 -0.009868 0.000000 0.000000 0.000000
# 2 -0.013808 0.025963 -0.013314 0.000000 0.000000 0.000000
# 3 -0.009868 -0.013314 0.028716 0.000000 0.000000 0.000000
# 4 0.000000 0.000000 0.000000 0.040008 0.000000 0.000000
# 5 0.000000 0.000000 0.000000 0.000000 0.056430 0.000000
# 6 0.000000 0.000000 0.000000 0.000000 0.000000 0.055966
#
#
# Mechanical properties :
#
#
# Convention : Reuss Voigt Hill
#
# Bulk Modulus (GPa) = 47.61122 56.82788 52.21955
# Shear Modulus (GPa) = 15.22671 17.10355 16.16513
#
# Velocity S-wave (km/s) = 3.33328 3.53274 3.43446
# Velocity P-wave (km/s) = 7.03957 7.62279 7.33698
#
# Compressibility (1/GPa) = 0.02100345
#
# Stress axis : x y z
#
# Youngs Moduli (GPa) = 24.81087 38.51603 34.82385
#
# Poissons Ratio (x) = 0.53184 0.34365
# Poissons Ratio (y) = 0.34259 0.46364
# Poissons Ratio (z) = 0.24484 0.51280
#
# Static dielectric constant tensor:
#      x y z
#    x 2.379590 0.000000 0.000000 
#    y 0.000000 2.764390 0.000000 
#    z 0.000000 0.000000 2.768380 
# 
# 
# High freq. dielectric constant tensor:
#      x y z
#    x 1.473650 0.000000 0.000000 
#    y 0.000000 1.515800 0.000000 
#    z 0.000000 0.000000 1.528920 
# 
# From -- ./inp_files/9272.got.cif
#   From: 2010.03.12/outbox.cif.g09.slc.cpg/sg66_5_cif.got.tgz:9272.got - 2010.04.10 21:57:39.
