data_PCOD8276243
_publ_section_title
;
Structure prediction by ZEFSAII (Michael W. Deem and Ramdas Pophale) SiO2 
 PCOD8276243
Probable space group: C C C M
;
_chemical_formula_sum "Si O2"
_cell_formula_units_Z 112
_cell_length_a 21.248696
_cell_length_b 16.030401
_cell_length_c 15.199733
_cell_angle_alpha 90.000000
_cell_angle_beta 90.000000
_cell_angle_gamma 90.000000
_cell_volume 5177.410841
_symmetry_space_group_name_H-M "C C C M"
_symmetry_group_IT_number 66
_symmetry_cell_setting 'orthorhombic'
loop_
_space_group_symop_operation_xyz
x,y,z
-x,-y,z
x,-y,1/2-z
-x,y,1/2-z
-x,-y,-z
x,y,-z
-x,y,1/2+z
x,-y,1/2+z
1/2+x,1/2+y,z
1/2-x,1/2-y,z
1/2+x,1/2-y,1/2-z
1/2-x,1/2+y,1/2-z
1/2-x,1/2-y,-z
1/2+x,1/2+y,-z
1/2-x,1/2+y,1/2+z
1/2+x,1/2-y,1/2+z
loop_
_atom_site_type_symbol
_atom_site_label
_atom_site_fract_x
_atom_site_fract_y
_atom_site_fract_z
Si Si1 0.934649 0.625492 0.205147
Si Si2 0.102296 0.907099 0.271088
Si Si3 0.827444 0.342924 0.836471
Si Si4 0.032857 0.216263 0.899981
Si Si5 0.741386 0.587706 0.795724
Si Si6 0.611459 0.309109 0.096604
Si Si7 0.845774 0.522551 0.902229
O O1 0.889789 0.663906 0.277975
O O2 0.938999 0.695859 0.129608
O O3 0.904201 0.542362 0.162666
O O4 0.000000 0.600935 0.250000
O O5 0.052179 0.857130 0.330500
O O6 0.168791 0.902175 0.323526
O O7 0.119296 0.874445 0.174290
O O8 0.077340 0.000000 0.250000
O O9 0.765702 0.341310 0.773009
O O10 0.833759 0.261404 0.897479
O O11 0.827333 0.425782 0.895474
O O12 0.958334 0.228495 0.896329
O O13 0.055085 0.194583 0.000000
O O14 0.754138 0.500000 0.750000
O O15 0.786650 0.584123 0.881026
O O16 0.619982 0.351853 0.000000
O O17 0.867922 0.542406 0.000000
#
# Coordination Sequence:
#
# PCOD8276243 Si02
#       7
#    16  16  16  16  16  16  16
#     4  11  19  37  58  83 122 168 205 247 300 361
#     4  11  23  43  65  89 121 160 204 259 327 375
#     4  10  19  38  61  84 123 166 200 244 307 360
#     4  11  23  40  62  90 124 164 208 258 315 370
#     4   8  19  38  62  86 117 163 204 243 304 371
#     4  11  23  40  62  91 122 158 207 258 309 374
#     4  10  21  36  58  92 126 162 210 256 297 363
#
# _framework density 21.632434
#
# number of rings (size 3 to 8) (size 9 to 14) (size 15 to 20)
#    0.000    1.714    2.857    2.571    0.000    4.000 
#    0.000    9.286    0.000    2.571    0.000    0.000 
#    0.000    0.000    0.000    0.000    0.000    0.000 
#
# Total GULP energy -694072.482412 kJ/mol
# GULP energy per Si atom -12394.151472 kJ/mol
# Density = 2.158320 g / cm^3
# Si number density = 21.632434 Si / 1000 Ang^3
#
#
#
# Elastic Constant Matrix: (Units=GPa)
#
#
# Indices 1 2 3 4 5 6 
#
# 1 43.0244 -2.5734 3.1359 0.0000 0.0000 0.0000
# 2 -2.5734 81.3861 29.0948 0.0000 0.0000 0.0000
# 3 3.1359 29.0948 116.2924 0.0000 0.0000 0.0000
# 4 0.0000 0.0000 0.0000 25.0574 0.0000 0.0000
# 5 0.0000 0.0000 0.0000 0.0000 20.8779 0.0000
# 6 0.0000 0.0000 0.0000 0.0000 0.0000 22.6407
#
#
#
# Elastic Compliance Matrix: (Units=1/GPa)
#
#
# Indices 1 2 3 4 5 6 
#
# 1 0.023371 0.001059 -0.000895 0.000000 0.000000 0.000000
# 2 0.001059 0.013542 -0.003417 0.000000 0.000000 0.000000
# 3 -0.000895 -0.003417 0.009478 0.000000 0.000000 0.000000
# 4 0.000000 0.000000 0.000000 0.039908 0.000000 0.000000
# 5 0.000000 0.000000 0.000000 0.000000 0.047898 0.000000
# 6 0.000000 0.000000 0.000000 0.000000 0.000000 0.044168
#
#
# Mechanical properties :
#
#
# Convention : Reuss Voigt Hill
#
# Bulk Modulus (GPa) = 25.07166 33.33527 29.20347
# Shear Modulus (GPa) = 25.23135 27.78490 26.50812
#
# Velocity S-wave (km/s) = 3.41892 3.58775 3.50435
# Velocity P-wave (km/s) = 5.21539 5.71016 5.46838
#
# Compressibility (1/GPa) = 0.03988567
#
# Stress axis : x y z
#
# Youngs Moduli (GPa) = 42.78765 73.84440 105.50828
#
# Poissons Ratio (x) = -0.07820 0.09445
# Poissons Ratio (y) = -0.04531 0.36048
# Poissons Ratio (z) = 0.03830 0.25229
#
# Static dielectric constant tensor:
#      x y z
#    x 4.009410 0.000000 0.000000 
#    y 0.000000 3.671630 0.000000 
#    z 0.000000 0.000000 3.922160 
# 
# 
# High freq. dielectric constant tensor:
#      x y z
#    x 1.850250 0.000000 0.000000 
#    y 0.000000 1.835250 0.000000 
#    z 0.000000 0.000000 1.844210 
# 
# From -- ./inp_files/32482.got.cif
#   From: 2010.03.12/outbox.cif.g09.slc.cpg/sg66_17_cif.got.tgz:32482.got - 2010.04.10 21:57:39.
