data_PCOD8276526
_publ_section_title
;
Structure prediction by ZEFSAII (Michael W. Deem and Ramdas Pophale) SiO2 
 PCOD8276526
Probable space group: C C C M
;
_chemical_formula_sum "Si O2"
_cell_formula_units_Z 96
_cell_length_a 23.871893
_cell_length_b 11.101931
_cell_length_c 18.486699
_cell_angle_alpha 90.000000
_cell_angle_beta 90.000000
_cell_angle_gamma 90.000000
_cell_volume 4899.420929
_symmetry_space_group_name_H-M "C C C M"
_symmetry_group_IT_number 66
_symmetry_cell_setting 'orthorhombic'
loop_
_space_group_symop_operation_xyz
x,y,z
-x,-y,z
x,-y,1/2-z
-x,y,1/2-z
-x,-y,-z
x,y,-z
-x,y,1/2+z
x,-y,1/2+z
1/2+x,1/2+y,z
1/2-x,1/2-y,z
1/2+x,1/2-y,1/2-z
1/2-x,1/2+y,1/2-z
1/2-x,1/2-y,-z
1/2+x,1/2+y,-z
1/2-x,1/2+y,1/2+z
1/2+x,1/2-y,1/2+z
loop_
_atom_site_type_symbol
_atom_site_label
_atom_site_fract_x
_atom_site_fract_y
_atom_site_fract_z
Si Si1 0.687558 0.698245 0.323753
Si Si2 0.326619 0.538296 0.582995
Si Si3 0.141111 0.399851 0.579859
Si Si4 0.707882 0.122191 0.421468
Si Si5 0.370110 0.729363 0.325602
Si Si6 0.063149 0.453613 0.175827
O O1 0.750000 0.750000 0.310589
O O2 0.689818 0.575263 0.368662
O O3 0.648782 0.787142 0.368980
O O4 0.653390 0.678026 0.249830
O O5 0.340765 0.501734 0.500000
O O6 0.275115 0.635402 0.586199
O O7 0.377232 0.614821 0.619983
O O8 0.125324 0.352653 0.500000
O O9 0.197979 0.477748 0.577934
O O10 0.091585 0.487246 0.606323
O O11 0.687889 0.174625 0.500000
O O12 0.675909 0.176152 0.353707
O O13 0.428356 0.806733 0.323252
O O14 0.092173 0.500000 0.250000
O O15 0.000000 0.500000 0.174733
#
# Coordination Sequence:
#
# PCOD8276526 Si02
#       6
#    16  16  16  16  16  16
#     4  12  22  34  54  83 124 167 208 240 281 348
#     4  11  22  35  52  78 120 168 202 233 286 354
#     4  10  20  35  56  85 118 154 198 243 290 347
#     4   9  18  33  52  76 114 160 197 234 287 351
#     4  11  22  35  55  86 116 149 196 254 302 351
#     4  10  21  41  66  88 112 143 190 253 319 366
#
# _framework density 19.594152999999999
#
# number of rings (size 3 to 8) (size 9 to 14) (size 15 to 20)
#    0.000    1.500    3.333    3.000    0.000    3.000 
#    0.000    0.000    0.000    1.000    0.000    2.333 
#    0.000    0.000    0.000    0.000    0.000    0.000 
#
# Total GULP energy -594838.547763 kJ/mol
# GULP energy per Si atom -12392.469745 kJ/mol
# Density = 1.954956 g / cm^3
# Si number density = 19.594153 Si / 1000 Ang^3
#
#
#
# Elastic Constant Matrix: (Units=GPa)
#
#
# Indices 1 2 3 4 5 6 
#
# 1 61.6450 25.3391 25.7707 0.0000 0.0000 0.0000
# 2 25.3391 60.6087 29.8131 0.0000 0.0000 0.0000
# 3 25.7707 29.8131 129.5319 0.0000 0.0000 0.0000
# 4 0.0000 0.0000 0.0000 31.4751 0.0000 0.0000
# 5 0.0000 0.0000 0.0000 0.0000 15.0517 0.0000
# 6 0.0000 0.0000 0.0000 0.0000 0.0000 28.2000
#
#
#
# Elastic Compliance Matrix: (Units=1/GPa)
#
#
# Indices 1 2 3 4 5 6 
#
# 1 0.020198 -0.007293 -0.002340 0.000000 0.000000 0.000000
# 2 -0.007293 0.021239 -0.003437 0.000000 0.000000 0.000000
# 3 -0.002340 -0.003437 0.008977 0.000000 0.000000 0.000000
# 4 0.000000 0.000000 0.000000 0.031771 0.000000 0.000000
# 5 0.000000 0.000000 0.000000 0.000000 0.066438 0.000000
# 6 0.000000 0.000000 0.000000 0.000000 0.000000 0.035461
#
#
# Mechanical properties :
#
#
# Convention : Reuss Voigt Hill
#
# Bulk Modulus (GPa) = 41.19818 45.95902 43.57860
# Shear Modulus (GPa) = 22.90254 26.33618 24.61936
#
# Velocity S-wave (km/s) = 3.42255 3.67015 3.54851
# Velocity P-wave (km/s) = 6.05721 6.43944 6.25125
#
# Compressibility (1/GPa) = 0.02427292
#
# Stress axis : x y z
#
# Youngs Moduli (GPa) = 49.50980 47.08247 111.39864
#
# Poissons Ratio (x) = 0.34339 0.26065
# Poissons Ratio (y) = 0.36109 0.38292
# Poissons Ratio (z) = 0.11584 0.16184
#
# Static dielectric constant tensor:
#      x y z
#    x 3.167330 0.000000 0.000000 
#    y 0.000000 3.671230 0.000000 
#    z 0.000000 0.000000 3.885410 
# 
# 
# High freq. dielectric constant tensor:
#      x y z
#    x 1.704980 0.000000 0.000000 
#    y 0.000000 1.771200 0.000000 
#    z 0.000000 0.000000 1.786210 
# 
# From -- ./inp_files/38886.got.cif
#   From: 2010.03.12/outbox.cif.g09.slc.cpg/sg66_20_cif.got.tgz:38886.got - 2010.04.10 21:57:39.
