data_PCOD8276865
_publ_section_title
;
Structure prediction by ZEFSAII (Michael W. Deem and Ramdas Pophale) SiO2 
 PCOD8276865
Probable space group: C C C M
;
_chemical_formula_sum "Si O2"
_cell_formula_units_Z 64
_cell_length_a 20.798662
_cell_length_b 5.085387
_cell_length_c 28.109428
_cell_angle_alpha 90.000000
_cell_angle_beta 90.000000
_cell_angle_gamma 90.000000
_cell_volume 2973.112987
_symmetry_space_group_name_H-M "C C C M"
_symmetry_group_IT_number 66
_symmetry_cell_setting 'orthorhombic'
loop_
_space_group_symop_operation_xyz
x,y,z
-x,-y,z
x,-y,1/2-z
-x,y,1/2-z
-x,-y,-z
x,y,-z
-x,y,1/2+z
x,-y,1/2+z
1/2+x,1/2+y,z
1/2-x,1/2-y,z
1/2+x,1/2-y,1/2-z
1/2-x,1/2+y,1/2-z
1/2-x,1/2-y,-z
1/2+x,1/2+y,-z
1/2-x,1/2+y,1/2+z
1/2+x,1/2-y,1/2+z
loop_
_atom_site_type_symbol
_atom_site_label
_atom_site_fract_x
_atom_site_fract_y
_atom_site_fract_z
Si Si1 0.177436 0.841318 0.650006
Si Si2 0.826953 0.745345 0.500000
Si Si3 0.373951 0.849391 0.899383
Si Si4 0.436472 0.328366 0.000000
Si Si5 0.500000 0.000000 0.075950
Si Si6 0.292529 0.500000 0.250000
O O1 0.250000 0.750000 0.642568
O O2 0.134654 0.595024 0.635619
O O3 0.163839 0.916846 0.705056
O O4 0.163221 0.091059 0.617313
O O5 0.750000 0.750000 0.500000
O O6 0.848194 0.588475 0.547155
O O7 0.867820 0.021526 0.500000
O O8 0.452030 0.800987 0.896132
O O9 0.500000 0.500000 0.000000
O O10 0.444435 0.152215 0.046842
O O11 0.250000 0.750000 0.233750
#
# Coordination Sequence:
#
# PCOD8276865 Si02
#       6
#    16   8  16   8   8   8
#     4  11  23  41  65  98 129 167 216 281 347 405
#     4  12  24  40  63  98 139 181 220 286 348 385
#     4  12  25  40  64  93 137 175 225 273 327 415
#     4  11  20  43  65  85 129 185 262 277 313 409
#     4  11  24  40  64  93 122 192 240 277 326 391
#     4  10  20  40  70  95 126 167 218 276 348 422
#
# _framework density 21.526257999999999
#
# number of rings (size 3 to 8) (size 9 to 14) (size 15 to 20)
#    0.000    0.750    2.500    7.500    0.000    1.000 
#    0.000    6.250    0.000    4.500    0.000    0.000 
#    0.000    0.000    0.000    0.000    0.000    0.000 
#
# Total GULP energy -396431.386088 kJ/mol
# GULP energy per Si atom -12388.480815 kJ/mol
# Density = 2.147726 g / cm^3
# Si number density = 21.526258 Si / 1000 Ang^3
#
#
#
# Elastic Constant Matrix: (Units=GPa)
#
#
# Indices 1 2 3 4 5 6 
#
# 1 162.5638 49.7523 65.1750 0.0000 0.0000 0.0000
# 2 49.7523 131.9183 55.5691 0.0000 0.0000 0.0000
# 3 65.1750 55.5691 111.9399 0.0000 0.0000 0.0000
# 4 0.0000 0.0000 0.0000 31.5885 0.0000 0.0000
# 5 0.0000 0.0000 0.0000 0.0000 -22.7031 0.0000
# 6 0.0000 0.0000 0.0000 0.0000 0.0000 51.0557
#
#
#
# Elastic Compliance Matrix: (Units=1/GPa)
#
#
# Indices 1 2 3 4 5 6 
#
# 1 0.008216 -0.001370 -0.004103 0.000000 0.000000 0.000000
# 2 -0.001370 0.009813 -0.004074 0.000000 0.000000 0.000000
# 3 -0.004103 -0.004074 0.013345 0.000000 0.000000 0.000000
# 4 0.000000 0.000000 0.000000 0.031657 0.000000 0.000000
# 5 0.000000 0.000000 0.000000 0.000000 -0.044047 0.000000
# 6 0.000000 0.000000 0.000000 0.000000 0.000000 0.019586
#
#
# Mechanical properties :
#
#
# Convention : Reuss Voigt Hill
#
# Bulk Modulus (GPa) = 81.43733 83.04609 82.24171
# Shear Modulus (GPa) = 80.96107 27.71661 54.33884
#
# Velocity S-wave (km/s) = 6.13938 3.59217 5.02970
# Velocity P-wave (km/s) = 9.38988 7.47446 8.48638
#
# Compressibility (1/GPa) = 0.01227938
#
# Stress axis : x y z
#
# Youngs Moduli (GPa) = 121.71563 101.90371 74.93554
#
# Poissons Ratio (x) = 0.13961 0.30749
# Poissons Ratio (y) = 0.16676 0.30527
# Poissons Ratio (z) = 0.49945 0.41513
#
# Static dielectric constant tensor:
#      x y z
#    x 4.050660 0.000000 0.000000 
#    y 0.000000 7.657870 0.000000 
#    z 0.000000 0.000000 3.946720 
# 
# 
# High freq. dielectric constant tensor:
#      x y z
#    x 1.841140 0.000000 0.000000 
#    y 0.000000 1.862370 0.000000 
#    z 0.000000 0.000000 1.830760 
# 
# From -- ./inp_files/65506.got.cif
#   From: 2010.03.12/outbox.cif.g09.slc.cpg/sg66_33_cif.got.tgz:65506.got - 2010.04.10 21:57:39.
