data_PCOD8276968
_publ_section_title
;
Structure prediction by ZEFSAII (Michael W. Deem and Ramdas Pophale) SiO2 
 PCOD8276968
Probable space group: C C C M
;
_chemical_formula_sum "Si O2"
_cell_formula_units_Z 112
_cell_length_a 24.018522
_cell_length_b 15.313702
_cell_length_c 15.055663
_cell_angle_alpha 90.000000
_cell_angle_beta 90.000000
_cell_angle_gamma 90.000000
_cell_volume 5537.660872
_symmetry_space_group_name_H-M "C C C M"
_symmetry_group_IT_number 66
_symmetry_cell_setting 'orthorhombic'
loop_
_space_group_symop_operation_xyz
x,y,z
-x,-y,z
x,-y,1/2-z
-x,y,1/2-z
-x,-y,-z
x,y,-z
-x,y,1/2+z
x,-y,1/2+z
1/2+x,1/2+y,z
1/2-x,1/2-y,z
1/2+x,1/2-y,1/2-z
1/2-x,1/2+y,1/2-z
1/2-x,1/2-y,-z
1/2+x,1/2+y,-z
1/2-x,1/2+y,1/2+z
1/2+x,1/2-y,1/2+z
loop_
_atom_site_type_symbol
_atom_site_label
_atom_site_fract_x
_atom_site_fract_y
_atom_site_fract_z
Si Si1 0.456819 0.860731 0.097639
Si Si2 0.216406 0.839745 0.399305
Si Si3 0.563485 0.281679 0.238472
Si Si4 0.372334 0.001964 0.353191
Si Si5 0.247626 0.465575 0.399667
Si Si6 0.158720 0.902890 0.231645
Si Si7 0.419177 0.170275 0.098977
O O1 0.431605 0.798148 0.171386
O O2 0.521842 0.877408 0.117086
O O3 0.423913 0.951250 0.099359
O O4 0.450246 0.817943 0.000000
O O5 0.190946 0.837307 0.500000
O O6 0.250000 0.750000 0.383398
O O7 0.171700 0.847569 0.320791
O O8 0.250744 0.929662 0.387266
O O9 0.500000 0.316254 0.250000
O O10 0.603389 0.355390 0.195050
O O11 0.587383 0.250617 0.333671
O O12 0.370944 0.902320 0.388760
O O13 0.383234 0.000000 0.250000
O O14 0.316088 0.055915 0.375312
O O15 0.261755 0.437259 0.500000
O O16 0.289061 0.409685 0.336624
O O17 0.138441 0.000000 0.250000
O O18 0.414127 0.209638 0.000000
#
# Coordination Sequence:
#
# PCOD8276968 Si02
#       7
#    16  16  16  16  16  16  16
#     4  10  21  37  55  83 123 163 201 243 297 362
#     4   9  19  35  57  84 114 145 184 237 295 347
#     4  10  22  39  60  86 113 151 203 256 303 355
#     4  12  21  33  58  87 123 165 198 241 289 360
#     4  10  22  39  57  83 117 157 203 242 290 358
#     4  10  22  40  60  83 116 153 192 248 305 356
#     4  10  21  36  57  88 124 157 196 250 308 359
#
# _framework density 20.225147
#
# number of rings (size 3 to 8) (size 9 to 14) (size 15 to 20)
#    0.000    1.857    1.429    3.000    2.000    4.286 
#    0.000    0.000    0.000    2.143    0.000    8.000 
#    0.000    0.000    0.000    0.000    0.000    0.000 
#
# Total GULP energy -693946.908197 kJ/mol
# GULP energy per Si atom -12391.909075 kJ/mol
# Density = 2.017911 g / cm^3
# Si number density = 20.225147 Si / 1000 Ang^3
#
#
#
# Elastic Constant Matrix: (Units=GPa)
#
#
# Indices 1 2 3 4 5 6 
#
# 1 103.8793 46.2322 30.2061 0.0000 0.0000 0.0000
# 2 46.2322 70.6415 37.0211 0.0000 0.0000 0.0000
# 3 30.2061 37.0211 127.9162 0.0000 0.0000 0.0000
# 4 0.0000 0.0000 0.0000 7.5280 0.0000 0.0000
# 5 0.0000 0.0000 0.0000 0.0000 7.0053 0.0000
# 6 0.0000 0.0000 0.0000 0.0000 0.0000 33.9064
#
#
#
# Elastic Compliance Matrix: (Units=1/GPa)
#
#
# Indices 1 2 3 4 5 6 
#
# 1 0.013644 -0.008536 -0.000752 0.000000 0.000000 0.000000
# 2 -0.008536 0.022027 -0.004359 0.000000 0.000000 0.000000
# 3 -0.000752 -0.004359 0.009257 0.000000 0.000000 0.000000
# 4 0.000000 0.000000 0.000000 0.132838 0.000000 0.000000
# 5 0.000000 0.000000 0.000000 0.000000 0.142748 0.000000
# 6 0.000000 0.000000 0.000000 0.000000 0.000000 0.029493
#
#
# Mechanical properties :
#
#
# Convention : Reuss Voigt Hill
#
# Bulk Modulus (GPa) = 56.70681 58.81734 57.76207
# Shear Modulus (GPa) = 13.04878 22.28644 17.66761
#
# Velocity S-wave (km/s) = 2.54279 3.32312 2.95879
# Velocity P-wave (km/s) = 6.05967 6.62333 6.34776
#
# Compressibility (1/GPa) = 0.01763457
#
# Stress axis : x y z
#
# Youngs Moduli (GPa) = 73.29285 45.39926 108.02926
#
# Poissons Ratio (x) = 0.38751 0.08119
# Poissons Ratio (y) = 0.62560 0.47094
# Poissons Ratio (z) = 0.05508 0.19791
#
# Static dielectric constant tensor:
#      x y z
#    x 3.584590 0.000000 0.000000 
#    y 0.000000 3.397050 0.000000 
#    z 0.000000 0.000000 3.883250 
# 
# 
# High freq. dielectric constant tensor:
#      x y z
#    x 1.786540 0.000000 0.000000 
#    y 0.000000 1.763490 0.000000 
#    z 0.000000 0.000000 1.803710 
# 
# From -- ./inp_files/32486.got.cif
#   From: 2010.03.12/outbox.cif.g09.slc.cpg/sg66_17_cif.got.tgz:32486.got - 2010.04.10 21:57:39.
