data_PCOD8276363
_publ_section_title
;
Structure prediction by ZEFSAII (Michael W. Deem and Ramdas Pophale) SiO2 
 PCOD8276363
Probable space group: C C C M
;
_chemical_formula_sum "Si O2"
_cell_formula_units_Z 68
_cell_length_a 11.662024
_cell_length_b 10.539176
_cell_length_c 26.927285
_cell_angle_alpha 90.000000
_cell_angle_beta 90.000000
_cell_angle_gamma 90.000000
_cell_volume 3309.582069
_symmetry_space_group_name_H-M "C C C M"
_symmetry_group_IT_number 66
_symmetry_cell_setting 'orthorhombic'
loop_
_space_group_symop_operation_xyz
x,y,z
-x,-y,z
x,-y,1/2-z
-x,y,1/2-z
-x,-y,-z
x,y,-z
-x,y,1/2+z
x,-y,1/2+z
1/2+x,1/2+y,z
1/2-x,1/2-y,z
1/2+x,1/2-y,1/2-z
1/2-x,1/2+y,1/2-z
1/2-x,1/2-y,-z
1/2+x,1/2+y,-z
1/2-x,1/2+y,1/2+z
1/2+x,1/2-y,1/2+z
loop_
_atom_site_type_symbol
_atom_site_label
_atom_site_fract_x
_atom_site_fract_y
_atom_site_fract_z
Si Si1 0.325499 0.130529 0.679094
Si Si2 0.731710 0.883360 0.858370
Si Si3 0.004561 0.634728 0.906954
Si Si4 0.915966 0.111742 0.443728
Si Si5 0.000000 0.500000 0.250000
O O1 0.250000 0.250000 0.696649
O O2 0.379352 0.158593 0.624528
O O3 0.422687 0.097603 0.718784
O O4 0.240045 0.007469 0.674394
O O5 0.750000 0.750000 0.829253
O O6 0.596452 0.885762 0.867403
O O7 0.804514 0.882667 0.909312
O O8 0.984628 0.755027 0.942310
O O9 0.000000 0.500000 0.937451
O O10 0.874895 0.086652 0.500000
O O11 0.000000 0.000000 0.425472
#
# Coordination Sequence:
#
# PCOD8276363 Si02
#       5
#    16  16  16  16   4
#     4  11  22  41  66  86 117 159 199 256 323 381
#     4   9  18  35  61  83 119 161 200 249 306 364
#     4   9  18  36  57  82 111 156 198 247 303 369
#     4  10  20  33  53  88 127 163 210 256 294 364
#     4  12  24  44  64  96 126 148 212 274 320 398
#
# _framework density 20.546402
#
# number of rings (size 3 to 8) (size 9 to 14) (size 15 to 20)
#    0.000    2.118    3.529    1.412    0.000    5.647 
#    0.000    3.529    0.000   12.706    0.000    0.000 
#    0.000    0.000    0.000    0.000    0.000    0.000 
#
# Total GULP energy -421228.360289 kJ/mol
# GULP energy per Si atom -12389.069420 kJ/mol
# Density = 2.049964 g / cm^3
# Si number density = 20.546402 Si / 1000 Ang^3
#
#
#
# Elastic Constant Matrix: (Units=GPa)
#
#
# Indices 1 2 3 4 5 6 
#
# 1 79.9397 56.3066 24.8274 0.0000 0.0000 0.0000
# 2 56.3066 206.1407 33.5332 0.0000 0.0000 0.0000
# 3 24.8274 33.5332 57.7566 0.0000 0.0000 0.0000
# 4 0.0000 0.0000 0.0000 21.1222 0.0000 0.0000
# 5 0.0000 0.0000 0.0000 0.0000 23.7505 0.0000
# 6 0.0000 0.0000 0.0000 0.0000 0.0000 40.6170
#
#
#
# Elastic Compliance Matrix: (Units=1/GPa)
#
#
# Indices 1 2 3 4 5 6 
#
# 1 0.016704 -0.003749 -0.005004 0.000000 0.000000 0.000000
# 2 -0.003749 0.006198 -0.001987 0.000000 0.000000 0.000000
# 3 -0.005004 -0.001987 0.020619 0.000000 0.000000 0.000000
# 4 0.000000 0.000000 0.000000 0.047344 0.000000 0.000000
# 5 0.000000 0.000000 0.000000 0.000000 0.042104 0.000000
# 6 0.000000 0.000000 0.000000 0.000000 0.000000 0.024620
#
#
# Mechanical properties :
#
#
# Convention : Reuss Voigt Hill
#
# Bulk Modulus (GPa) = 45.36935 63.68572 54.52754
# Shear Modulus (GPa) = 26.82172 32.37592 29.59882
#
# Velocity S-wave (km/s) = 3.61698 3.97387 3.79962
# Velocity P-wave (km/s) = 6.29069 7.21934 6.77095
#
# Compressibility (1/GPa) = 0.02204131
#
# Stress axis : x y z
#
# Youngs Moduli (GPa) = 59.86614 161.33574 48.49924
#
# Poissons Ratio (x) = 0.60479 0.24269
# Poissons Ratio (y) = 0.22442 0.09638
# Poissons Ratio (z) = 0.29957 0.32062
#
# Static dielectric constant tensor:
#      x y z
#    x 3.610340 0.000000 0.000000 
#    y 0.000000 4.451490 0.000000 
#    z 0.000000 0.000000 3.245670 
# 
# 
# High freq. dielectric constant tensor:
#      x y z
#    x 1.792070 0.000000 0.000000 
#    y 0.000000 1.833070 0.000000 
#    z 0.000000 0.000000 1.761630 
# 
# From -- ./inp_files/63373.got.cif
#   From: 2010.03.12/outbox.cif.g09.slc.cpg/sg66_32_cif.got.tgz:63373.got - 2010.04.10 21:57:39.
