data_PCOD8276310
_publ_section_title
;
Structure prediction by ZEFSAII (Michael W. Deem and Ramdas Pophale) SiO2 
 PCOD8276310
Probable space group: C C C M
;
_chemical_formula_sum "Si O2"
_cell_formula_units_Z 96
_cell_length_a 21.099984
_cell_length_b 9.664515
_cell_length_c 24.076587
_cell_angle_alpha 90.000000
_cell_angle_beta 90.000000
_cell_angle_gamma 90.000000
_cell_volume 4909.724391
_symmetry_space_group_name_H-M "C C C M"
_symmetry_group_IT_number 66
_symmetry_cell_setting 'orthorhombic'
loop_
_space_group_symop_operation_xyz
x,y,z
-x,-y,z
x,-y,1/2-z
-x,y,1/2-z
-x,-y,-z
x,y,-z
-x,y,1/2+z
x,-y,1/2+z
1/2+x,1/2+y,z
1/2-x,1/2-y,z
1/2+x,1/2-y,1/2-z
1/2-x,1/2+y,1/2-z
1/2-x,1/2-y,-z
1/2+x,1/2+y,-z
1/2-x,1/2+y,1/2+z
1/2+x,1/2-y,1/2+z
loop_
_atom_site_type_symbol
_atom_site_label
_atom_site_fract_x
_atom_site_fract_y
_atom_site_fract_z
Si Si1 0.283893 0.542502 0.563330
Si Si2 0.984338 0.849512 0.644624
Si Si3 0.441707 0.925972 0.809298
Si Si4 0.350110 0.007281 0.598275
Si Si5 0.097941 0.770236 0.436274
Si Si6 0.874515 0.805263 0.439192
O O1 0.262436 0.573048 0.500000
O O2 0.221893 0.549054 0.602433
O O3 0.336944 0.653232 0.581708
O O4 0.309961 0.388217 0.570470
O O5 0.962723 0.737161 0.691722
O O6 0.925227 0.861873 0.603782
O O7 0.044141 0.807107 0.607666
O O8 0.000000 0.000000 0.671966
O O9 0.375845 0.954790 0.840345
O O10 0.500000 0.000000 0.841686
O O11 0.435245 0.000000 0.750000
O O12 0.356693 0.144882 0.562298
O O13 0.392687 0.893522 0.567981
O O14 0.079576 0.809665 0.500000
O O15 0.902257 0.839466 0.500000
#
# Coordination Sequence:
#
# PCOD8276310 Si02
#       6
#    16  16  16  16  16  16
#     4  10  20  34  53  82 126 171 197 225 277 347
#     4  11  21  37  60  91 118 154 195 239 293 350
#     4  10  22  43  65  85 106 140 196 257 318 346
#     4  11  21  35  57  83 113 158 205 245 287 348
#     4  11  21  33  54  88 127 164 197 232 277 342
#     4  10  20  32  53  85 126 167 198 232 274 337
#
# _framework density 19.553032000000002
#
# number of rings (size 3 to 8) (size 9 to 14) (size 15 to 20)
#    0.000    1.500    3.333    3.000    0.000    3.333 
#    0.000    4.167    0.000    8.000    0.000    0.000 
#    0.000    0.000    0.000    0.000    0.000    0.000 
#
# Total GULP energy -594776.727160 kJ/mol
# GULP energy per Si atom -12391.181816 kJ/mol
# Density = 1.950853 g / cm^3
# Si number density = 19.553032 Si / 1000 Ang^3
#
#
#
# Elastic Constant Matrix: (Units=GPa)
#
#
# Indices 1 2 3 4 5 6 
#
# 1 98.8264 24.1017 46.9779 0.0000 0.0000 0.0000
# 2 24.1017 133.8167 44.0095 0.0000 0.0000 0.0000
# 3 46.9779 44.0095 80.6050 0.0000 0.0000 0.0000
# 4 0.0000 0.0000 0.0000 16.5424 0.0000 0.0000
# 5 0.0000 0.0000 0.0000 0.0000 21.2571 0.0000
# 6 0.0000 0.0000 0.0000 0.0000 0.0000 29.1881
#
#
#
# Elastic Compliance Matrix: (Units=1/GPa)
#
#
# Indices 1 2 3 4 5 6 
#
# 1 0.014001 0.000197 -0.008268 0.000000 0.000000 0.000000
# 2 0.000197 0.009111 -0.005090 0.000000 0.000000 0.000000
# 3 -0.008268 -0.005090 0.020004 0.000000 0.000000 0.000000
# 4 0.000000 0.000000 0.000000 0.060451 0.000000 0.000000
# 5 0.000000 0.000000 0.000000 0.000000 0.047043 0.000000
# 6 0.000000 0.000000 0.000000 0.000000 0.000000 0.034261
#
#
# Mechanical properties :
#
#
# Convention : Reuss Voigt Hill
#
# Bulk Modulus (GPa) = 59.53899 60.38070 59.95984
# Shear Modulus (GPa) = 23.06396 26.60811 24.83604
#
# Velocity S-wave (km/s) = 3.43820 3.69293 3.56784
# Velocity P-wave (km/s) = 6.80277 7.00936 6.90684
#
# Compressibility (1/GPa) = 0.01679572
#
# Stress axis : x y z
#
# Youngs Moduli (GPa) = 71.42509 109.75448 49.99111
#
# Poissons Ratio (x) = -0.02166 0.41331
# Poissons Ratio (y) = -0.01410 0.25444
# Poissons Ratio (z) = 0.59051 0.55861
#
# Static dielectric constant tensor:
#      x y z
#    x 3.719240 0.000000 0.000000 
#    y 0.000000 4.000130 0.000000 
#    z 0.000000 0.000000 3.123090 
# 
# 
# High freq. dielectric constant tensor:
#      x y z
#    x 1.765310 0.000000 0.000000 
#    y 0.000000 1.788410 0.000000 
#    z 0.000000 0.000000 1.713730 
# 
# From -- ./inp_files/65677.got.cif
#   From: 2010.03.12/outbox.cif.g09.slc.cpg/sg66_33_cif.got.tgz:65677.got - 2010.04.10 21:57:39.
