data_PCOD8276613
_publ_section_title
;
Structure prediction by ZEFSAII (Michael W. Deem and Ramdas Pophale) SiO2 
 PCOD8276613
Probable space group: C C C M
;
_chemical_formula_sum "Si O2"
_cell_formula_units_Z 96
_cell_length_a 23.342002
_cell_length_b 25.351227
_cell_length_c 8.638816
_cell_angle_alpha 90.000000
_cell_angle_beta 90.000000
_cell_angle_gamma 90.000000
_cell_volume 5112.005471
_symmetry_space_group_name_H-M "C C C M"
_symmetry_group_IT_number 66
_symmetry_cell_setting 'orthorhombic'
loop_
_space_group_symop_operation_xyz
x,y,z
-x,-y,z
x,-y,1/2-z
-x,y,1/2-z
-x,-y,-z
x,y,-z
-x,y,1/2+z
x,-y,1/2+z
1/2+x,1/2+y,z
1/2-x,1/2-y,z
1/2+x,1/2-y,1/2-z
1/2-x,1/2+y,1/2-z
1/2-x,1/2-y,-z
1/2+x,1/2+y,-z
1/2-x,1/2+y,1/2+z
1/2+x,1/2-y,1/2+z
loop_
_atom_site_type_symbol
_atom_site_label
_atom_site_fract_x
_atom_site_fract_y
_atom_site_fract_z
Si Si1 0.939057 0.056337 0.816979
Si Si2 0.061052 0.251056 0.316229
Si Si3 0.377205 0.652097 0.317088
Si Si4 0.937960 0.555996 0.315947
Si Si5 0.860476 0.347506 0.182386
Si Si6 0.746970 0.309252 0.317555
O O1 0.890846 0.097289 0.765743
O O2 0.000000 0.074901 0.750000
O O3 0.920911 0.000000 0.750000
O O4 0.943590 0.052791 0.000000
O O5 0.058244 0.245481 0.500000
O O6 0.078904 0.195997 0.241531
O O7 0.105381 0.295831 0.261815
O O8 0.000000 0.268185 0.250000
O O9 0.383589 0.646265 0.500000
O O10 0.313071 0.666169 0.265766
O O11 0.916806 0.500000 0.250000
O O12 0.942238 0.553084 0.500000
O O13 0.892970 0.600085 0.259277
O O14 0.000000 0.571156 0.250000
O O15 0.797023 0.346169 0.251972
O O16 0.855581 0.348422 0.000000
O O17 0.753583 0.307249 0.500000
O O18 0.750000 0.250000 0.248461
#
# Coordination Sequence:
#
# PCOD8276613 Si02
#       6
#    16  16  16  16  16  16
#     4  11  22  39  62  88 117 151 190 232 285 338
#     4  11  22  35  53  81 113 147 183 230 285 339
#     4  11  22  38  58  83 115 149 190 234 280 337
#     4  10  20  36  57  84 113 148 188 231 283 337
#     4  10  22  37  56  82 113 147 189 233 282 339
#     4  10  21  38  59  83 111 150 192 232 282 335
#
# _framework density 18.779322000000001
#
# number of rings (size 3 to 8) (size 9 to 14) (size 15 to 20)
#    0.000    1.500    1.667    5.000    0.000    3.667 
#    0.000    0.833    0.000    2.000    0.000    0.000 
#    0.000    0.000    0.000    0.000    0.000    0.000 
#
# Total GULP energy -595448.558968 kJ/mol
# GULP energy per Si atom -12405.178312 kJ/mol
# Density = 1.873658 g / cm^3
# Si number density = 18.779322 Si / 1000 Ang^3
#
#
#
# Elastic Constant Matrix: (Units=GPa)
#
#
# Indices 1 2 3 4 5 6 
#
# 1 113.2209 64.8776 38.1952 0.0000 0.0000 0.0000
# 2 64.8776 131.0090 41.0712 0.0000 0.0000 0.0000
# 3 38.1952 41.0712 84.6533 0.0000 0.0000 0.0000
# 4 0.0000 0.0000 0.0000 29.4457 0.0000 0.0000
# 5 0.0000 0.0000 0.0000 0.0000 32.6755 0.0000
# 6 0.0000 0.0000 0.0000 0.0000 0.0000 30.9697
#
#
#
# Elastic Compliance Matrix: (Units=1/GPa)
#
#
# Indices 1 2 3 4 5 6 
#
# 1 0.013046 -0.005443 -0.003246 0.000000 0.000000 0.000000
# 2 -0.005443 0.011273 -0.003014 0.000000 0.000000 0.000000
# 3 -0.003246 -0.003014 0.014739 0.000000 0.000000 0.000000
# 4 0.000000 0.000000 0.000000 0.033961 0.000000 0.000000
# 5 0.000000 0.000000 0.000000 0.000000 0.030604 0.000000
# 6 0.000000 0.000000 0.000000 0.000000 0.000000 0.032290
#
#
# Mechanical properties :
#
#
# Convention : Reuss Voigt Hill
#
# Bulk Modulus (GPa) = 63.87989 68.57457 66.22723
# Shear Modulus (GPa) = 30.38847 30.93412 30.66130
#
# Velocity S-wave (km/s) = 4.02703 4.06303 4.04507
# Velocity P-wave (km/s) = 7.46409 7.65547 7.56038
#
# Compressibility (1/GPa) = 0.01565438
#
# Stress axis : x y z
#
# Youngs Moduli (GPa) = 76.65043 88.70458 67.84569
#
# Poissons Ratio (x) = 0.48284 0.22019
# Poissons Ratio (y) = 0.41723 0.20446
# Poissons Ratio (z) = 0.24877 0.26731
#
# Static dielectric constant tensor:
#      x y z
#    x 3.500160 0.000000 0.000000 
#    y 0.000000 3.603110 0.000000 
#    z 0.000000 0.000000 3.433230 
# 
# 
# High freq. dielectric constant tensor:
#      x y z
#    x 1.728890 0.000000 0.000000 
#    y 0.000000 1.733760 0.000000 
#    z 0.000000 0.000000 1.736970 
# 
# From -- ./inp_files/9112.got.cif
#   From: 2010.03.12/outbox.cif.g09.slc.cpg/sg66_5_cif.got.tgz:9112.got - 2010.04.10 21:57:39.
