data_PCOD8276869
_publ_section_title
;
Structure prediction by ZEFSAII (Michael W. Deem and Ramdas Pophale) SiO2 
 PCOD8276869
Probable space group: C C C M
;
_chemical_formula_sum "Si O2"
_cell_formula_units_Z 96
_cell_length_a 11.802151
_cell_length_b 25.623934
_cell_length_c 17.182613
_cell_angle_alpha 90.000000
_cell_angle_beta 90.000000
_cell_angle_gamma 90.000000
_cell_volume 5196.323525
_symmetry_space_group_name_H-M "C C C M"
_symmetry_group_IT_number 66
_symmetry_cell_setting 'orthorhombic'
loop_
_space_group_symop_operation_xyz
x,y,z
-x,-y,z
x,-y,1/2-z
-x,y,1/2-z
-x,-y,-z
x,y,-z
-x,y,1/2+z
x,-y,1/2+z
1/2+x,1/2+y,z
1/2-x,1/2-y,z
1/2+x,1/2-y,1/2-z
1/2-x,1/2+y,1/2-z
1/2-x,1/2-y,-z
1/2+x,1/2+y,-z
1/2-x,1/2+y,1/2+z
1/2+x,1/2-y,1/2+z
loop_
_atom_site_type_symbol
_atom_site_label
_atom_site_fract_x
_atom_site_fract_y
_atom_site_fract_z
Si Si1 0.452240 0.690156 0.912995
Si Si2 0.897678 0.619951 0.913630
Si Si3 0.718271 0.350770 0.794404
Si Si4 0.058446 0.699546 0.833587
Si Si5 0.129711 0.559612 0.267648
Si Si6 0.798968 0.191582 0.627272
O O1 0.385299 0.649299 0.856540
O O2 0.446303 0.749000 0.883878
O O3 0.585992 0.680208 0.918573
O O4 0.401225 0.684650 0.000000
O O5 0.859277 0.571247 0.859804
O O6 0.794419 0.659582 0.918784
O O7 0.003886 0.650500 0.877610
O O8 0.927719 0.599260 0.000000
O O9 0.809500 0.310028 0.824903
O O10 0.780219 0.406855 0.782716
O O11 0.673229 0.329088 0.713259
O O12 0.000000 0.707981 0.750000
O O13 0.157437 0.500000 0.250000
O O14 0.000000 0.574945 0.250000
O O15 0.750000 0.250000 0.629922
#
# Coordination Sequence:
#
# PCOD8276869 Si02
#       6
#    16  16  16  16  16  16
#     4  12  25  34  50  84 124 160 198 239 284 343
#     4  11  21  34  59  89 118 147 189 246 296 335
#     4  11  21  37  57  82 112 158 191 238 298 358
#     4  12  19  36  56  82 117 163 191 224 286 364
#     4  10  20  41  65  85 111 151 201 250 296 359
#     4  11  20  36  58  79 113 160 205 232 273 348
#
# _framework density 18.474601
#
# number of rings (size 3 to 8) (size 9 to 14) (size 15 to 20)
#    0.000    0.833    6.667    4.000    0.000    2.667 
#    0.000    2.500    0.000    8.000    0.000    5.833 
#    0.000    0.000    0.000    0.000    0.000    0.000 
#
# Total GULP energy -594923.131228 kJ/mol
# GULP energy per Si atom -12394.231901 kJ/mol
# Density = 1.843255 g / cm^3
# Si number density = 18.474601 Si / 1000 Ang^3
#
#
#
# Elastic Constant Matrix: (Units=GPa)
#
#
# Indices 1 2 3 4 5 6 
#
# 1 72.7383 21.8891 19.5798 0.0000 0.0000 0.0000
# 2 21.8891 99.9558 44.2353 0.0000 0.0000 0.0000
# 3 19.5798 44.2353 134.1795 0.0000 0.0000 0.0000
# 4 0.0000 0.0000 0.0000 15.7804 0.0000 0.0000
# 5 0.0000 0.0000 0.0000 0.0000 0.2218 0.0000
# 6 0.0000 0.0000 0.0000 0.0000 0.0000 25.9792
#
#
#
# Elastic Compliance Matrix: (Units=1/GPa)
#
#
# Indices 1 2 3 4 5 6 
#
# 1 0.014905 -0.002695 -0.001287 0.000000 0.000000 0.000000
# 2 -0.002695 0.012201 -0.003629 0.000000 0.000000 0.000000
# 3 -0.001287 -0.003629 0.008837 0.000000 0.000000 0.000000
# 4 0.000000 0.000000 0.000000 0.063370 0.000000 0.000000
# 5 0.000000 0.000000 0.000000 0.000000 4.508865 0.000000
# 6 0.000000 0.000000 0.000000 0.000000 0.000000 0.038492
#
#
# Mechanical properties :
#
#
# Convention : Reuss Voigt Hill
#
# Bulk Modulus (GPa) = 48.25792 53.14244 50.70018
# Shear Modulus (GPa) = 1.07094 23.14092 12.10593
#
# Velocity S-wave (km/s) = 0.76219 3.54302 2.56261
# Velocity P-wave (km/s) = 5.19158 6.75018 6.02152
#
# Compressibility (1/GPa) = 0.02072199
#
# Stress axis : x y z
#
# Youngs Moduli (GPa) = 67.09087 81.96378 113.16283
#
# Poissons Ratio (x) = 0.22086 0.14560
# Poissons Ratio (y) = 0.18079 0.41066
# Poissons Ratio (z) = 0.08632 0.29744
#
# Static dielectric constant tensor:
#      x y z
#    x 3.579890 0.000000 0.000000 
#    y 0.000000 3.145660 0.000000 
#    z 0.000000 0.000000 3.884730 
# 
# 
# High freq. dielectric constant tensor:
#      x y z
#    x 1.722210 0.000000 0.000000 
#    y 0.000000 1.682200 0.000000 
#    z 0.000000 0.000000 1.724870 
# 
# From -- ./inp_files/39004.got.cif
#   From: 2010.03.12/outbox.cif.g09.slc.cpg/sg66_20_cif.got.tgz:39004.got - 2010.04.10 21:57:39.
