data_PCOD8276879
_publ_section_title
;
Structure prediction by ZEFSAII (Michael W. Deem and Ramdas Pophale) SiO2 
 PCOD8276879
Probable space group: C C C M
;
_chemical_formula_sum "Si O2"
_cell_formula_units_Z 88
_cell_length_a 10.703206
_cell_length_b 11.397266
_cell_length_c 29.146666
_cell_angle_alpha 90.000000
_cell_angle_beta 90.000000
_cell_angle_gamma 90.000000
_cell_volume 3555.522676
_symmetry_space_group_name_H-M "C C C M"
_symmetry_group_IT_number 66
_symmetry_cell_setting 'orthorhombic'
loop_
_space_group_symop_operation_xyz
x,y,z
-x,-y,z
x,-y,1/2-z
-x,y,1/2-z
-x,-y,-z
x,y,-z
-x,y,1/2+z
x,-y,1/2+z
1/2+x,1/2+y,z
1/2-x,1/2-y,z
1/2+x,1/2-y,1/2-z
1/2-x,1/2+y,1/2-z
1/2-x,1/2-y,-z
1/2+x,1/2+y,-z
1/2-x,1/2+y,1/2+z
1/2+x,1/2-y,1/2+z
loop_
_atom_site_type_symbol
_atom_site_label
_atom_site_fract_x
_atom_site_fract_y
_atom_site_fract_z
Si Si1 0.623691 0.075068 0.000000
Si Si2 0.076836 0.388467 0.692880
Si Si3 0.878287 0.076996 0.402049
Si Si4 0.880377 0.806153 0.808733
Si Si5 0.817634 0.630386 0.597652
Si Si6 0.625667 0.425859 0.500000
Si Si7 0.712060 0.500000 0.750000
O O1 0.620690 0.150393 0.047232
O O2 0.500000 0.000000 0.000000
O O3 0.752748 0.006411 0.000000
O O4 0.082172 0.387139 0.637759
O O5 0.208722 0.404891 0.719351
O O6 0.000000 0.500000 0.709181
O O7 0.998903 0.271947 0.707374
O O8 0.876919 0.176639 0.363685
O O9 0.874948 0.145413 0.451799
O O10 0.764308 0.986657 0.399896
O O11 0.000000 0.000000 0.395860
O O12 0.750000 0.750000 0.793761
O O13 0.881957 0.931860 0.783907
O O14 0.750000 0.750000 0.611227
O O15 0.500000 0.500000 0.500000
#
# Coordination Sequence:
#
# PCOD8276879 Si02
#       7
#     8  16  16  16  16   8   8
#     4  10  21  37  68 111 144 197 250 299 374 467
#     4  12  25  49  75 104 144 197 246 320 382 449
#     4  10  20  43  66 106 139 191 242 303 365 452
#     4  12  26  47  74 104 143 191 252 305 385 453
#     4  11  22  41  70 104 152 193 243 308 376 449
#     4   8  18  37  71  95 149 191 235 301 375 451
#     4  12  27  54  75 104 152 195 260 319 396 444
#
# _framework density 24.750229999999998
#
# number of rings (size 3 to 8) (size 9 to 14) (size 15 to 20)
#    0.000    1.091    3.636    2.182    0.000    2.182 
#    6.545    3.182    0.000    0.000    0.000    0.000 
#    0.000    0.000    0.000    0.000    0.000    0.000 
#
# Total GULP energy -545180.338285 kJ/mol
# GULP energy per Si atom -12390.462234 kJ/mol
# Density = 2.469390 g / cm^3
# Si number density = 24.750230 Si / 1000 Ang^3
#
#
#
# Elastic Constant Matrix: (Units=GPa)
#
#
# Indices 1 2 3 4 5 6 
#
# 1 100.2749 37.0605 26.4373 0.0000 0.0000 0.0000
# 2 37.0605 104.6149 46.2744 0.0000 0.0000 0.0000
# 3 26.4373 46.2744 193.1575 0.0000 0.0000 0.0000
# 4 0.0000 0.0000 0.0000 -4.8866 0.0000 0.0000
# 5 0.0000 0.0000 0.0000 0.0000 -1.0994 0.0000
# 6 0.0000 0.0000 0.0000 0.0000 0.0000 41.2258
#
#
#
# Elastic Compliance Matrix: (Units=1/GPa)
#
#
# Indices 1 2 3 4 5 6 
#
# 1 0.011552 -0.003795 -0.000672 0.000000 0.000000 0.000000
# 2 -0.003795 0.011939 -0.002341 0.000000 0.000000 0.000000
# 3 -0.000672 -0.002341 0.005830 0.000000 0.000000 0.000000
# 4 0.000000 0.000000 0.000000 -0.204641 0.000000 0.000000
# 5 0.000000 0.000000 0.000000 0.000000 -0.909596 0.000000
# 6 0.000000 0.000000 0.000000 0.000000 0.000000 0.024257
#
#
# Mechanical properties :
#
#
# Convention : Reuss Voigt Hill
#
# Bulk Modulus (GPa) = 63.67332 68.62131 66.14732
# Shear Modulus (GPa) = -4.79935 26.26631 10.73348
#
# Velocity S-wave (km/s) = -1.39403 3.26123 2.08474
# Velocity P-wave (km/s) = 4.81572 6.47816 5.70778
#
# Compressibility (1/GPa) = 0.01570516
#
# Stress axis : x y z
#
# Youngs Moduli (GPa) = 86.56174 83.76099 171.53130
#
# Poissons Ratio (x) = 0.31790 0.11526
# Poissons Ratio (y) = 0.32853 0.40150
# Poissons Ratio (z) = 0.05816 0.19606
#
# Static dielectric constant tensor:
#      x y z
#    x 4.433760 0.000000 0.000000 
#    y 0.000000 3.801750 0.000000 
#    z 0.000000 0.000000 5.333370 
# 
# 
# High freq. dielectric constant tensor:
#      x y z
#    x 1.982030 0.000000 0.000000 
#    y 0.000000 1.952090 0.000000 
#    z 0.000000 0.000000 2.026780 
# 
# From -- ./inp_files/68920.got.cif
#   From: 2010.03.12/outbox.cif.g09.slc.cpg/sg66_35_cif.got.tgz:68920.got - 2010.04.10 21:57:39.
