data_PCOD8276396
_publ_section_title
;
Structure prediction by ZEFSAII (Michael W. Deem and Ramdas Pophale) SiO2 
 PCOD8276396
Probable space group: C C C M
;
_chemical_formula_sum "Si O2"
_cell_formula_units_Z 80
_cell_length_a 27.338360
_cell_length_b 17.716588
_cell_length_c 8.715637
_cell_angle_alpha 90.000000
_cell_angle_beta 90.000000
_cell_angle_gamma 90.000000
_cell_volume 4221.353071
_symmetry_space_group_name_H-M "C C C M"
_symmetry_group_IT_number 66
_symmetry_cell_setting 'orthorhombic'
loop_
_space_group_symop_operation_xyz
x,y,z
-x,-y,z
x,-y,1/2-z
-x,y,1/2-z
-x,-y,-z
x,y,-z
-x,y,1/2+z
x,-y,1/2+z
1/2+x,1/2+y,z
1/2-x,1/2-y,z
1/2+x,1/2-y,1/2-z
1/2-x,1/2+y,1/2-z
1/2-x,1/2-y,-z
1/2+x,1/2+y,-z
1/2-x,1/2+y,1/2+z
1/2+x,1/2-y,1/2+z
loop_
_atom_site_type_symbol
_atom_site_label
_atom_site_fract_x
_atom_site_fract_y
_atom_site_fract_z
Si Si1 0.788540 0.581685 0.320490
Si Si2 0.642174 0.197143 0.678407
Si Si3 0.050964 0.226975 0.318889
Si Si4 0.303240 0.650506 0.325209
Si Si5 0.594078 0.420220 0.321120
O O1 0.780690 0.500000 0.250000
O O2 0.797791 0.575605 0.500000
O O3 0.835573 0.619929 0.242590
O O4 0.739960 0.630328 0.290148
O O5 0.629618 0.189194 0.500000
O O6 0.592312 0.214313 0.767012
O O7 0.681357 0.263532 0.706131
O O8 0.048039 0.225533 0.500000
O O9 0.061570 0.143034 0.259189
O O10 0.000000 0.255911 0.250000
O O11 0.284593 0.640861 0.500000
O O12 0.348722 0.595424 0.292558
O O13 0.579507 0.500000 0.250000
O O14 0.581527 0.418891 0.500000
#
# Coordination Sequence:
#
# PCOD8276396 Si02
#       5
#    16  16  16  16  16
#     4  12  24  36  54  81 113 148 185 225 270 321
#     4  10  21  39  60  82 110 143 181 226 274 323
#     4  11  22  38  59  82 107 139 181 226 275 328
#     4   9  19  35  55  79 111 149 185 222 266 318
#     4  10  20  34  52  78 112 149 187 228 273 320
#
# _framework density 18.951269
#
# number of rings (size 3 to 8) (size 9 to 14) (size 15 to 20)
#    0.000    1.600    0.000    7.200    0.000    9.200 
#    0.000    2.000    0.000    0.600    0.000    4.200 
#    0.000    0.000    0.000    0.000    0.000    0.000 
#
# Total GULP energy -496238.866328 kJ/mol
# GULP energy per Si atom -12405.971658 kJ/mol
# Density = 1.890813 g / cm^3
# Si number density = 18.951269 Si / 1000 Ang^3
#
#
#
# Elastic Constant Matrix: (Units=GPa)
#
#
# Indices 1 2 3 4 5 6 
#
# 1 96.9452 27.8548 48.6334 0.0000 0.0000 0.0000
# 2 27.8548 42.4690 26.9354 0.0000 0.0000 0.0000
# 3 48.6334 26.9354 143.1351 0.0000 0.0000 0.0000
# 4 0.0000 0.0000 0.0000 30.3873 0.0000 0.0000
# 5 0.0000 0.0000 0.0000 0.0000 33.8474 0.0000
# 6 0.0000 0.0000 0.0000 0.0000 0.0000 15.7481
#
#
#
# Elastic Compliance Matrix: (Units=1/GPa)
#
#
# Indices 1 2 3 4 5 6 
#
# 1 0.014071 -0.007037 -0.003457 0.000000 0.000000 0.000000
# 2 -0.007037 0.030257 -0.003303 0.000000 0.000000 0.000000
# 3 -0.003457 -0.003303 0.008782 0.000000 0.000000 0.000000
# 4 0.000000 0.000000 0.000000 0.032908 0.000000 0.000000
# 5 0.000000 0.000000 0.000000 0.000000 0.029544 0.000000
# 6 0.000000 0.000000 0.000000 0.000000 0.000000 0.063500
#
#
# Mechanical properties :
#
#
# Convention : Reuss Voigt Hill
#
# Bulk Modulus (GPa) = 39.18867 54.37737 46.78302
# Shear Modulus (GPa) = 23.23841 27.93827 25.58834
#
# Velocity S-wave (km/s) = 3.50554 3.84372 3.67852
# Velocity P-wave (km/s) = 6.09168 6.96092 6.54076
#
# Compressibility (1/GPa) = 0.02551758
#
# Stress axis : x y z
#
# Youngs Moduli (GPa) = 71.06811 33.05068 113.86307
#
# Poissons Ratio (x) = 0.23256 0.39360
# Poissons Ratio (y) = 0.50007 0.37608
# Poissons Ratio (z) = 0.24567 0.10916
#
# Static dielectric constant tensor:
#      x y z
#    x 3.430640 0.000000 0.000000 
#    y 0.000000 3.310670 0.000000 
#    z 0.000000 0.000000 3.525930 
# 
# 
# High freq. dielectric constant tensor:
#      x y z
#    x 1.732080 0.000000 0.000000 
#    y 0.000000 1.723170 0.000000 
#    z 0.000000 0.000000 1.750090 
# 
# From -- ./inp_files/6648.got.cif
#   From: 2010.03.12/outbox.cif.g09.slc.cpg/sg66_4_cif.got.tgz:6648.got - 2010.04.10 21:57:39.
