data_PCOD8276413
_publ_section_title
;
Structure prediction by ZEFSAII (Michael W. Deem and Ramdas Pophale) SiO2 
 PCOD8276413
Probable space group: C C C M
;
_chemical_formula_sum "Si O2"
_cell_formula_units_Z 112
_cell_length_a 15.943122
_cell_length_b 11.899103
_cell_length_c 30.823553
_cell_angle_alpha 90.000000
_cell_angle_beta 90.000000
_cell_angle_gamma 90.000000
_cell_volume 5847.500818
_symmetry_space_group_name_H-M "C C C M"
_symmetry_group_IT_number 66
_symmetry_cell_setting 'orthorhombic'
loop_
_space_group_symop_operation_xyz
x,y,z
-x,-y,z
x,-y,1/2-z
-x,y,1/2-z
-x,-y,-z
x,y,-z
-x,y,1/2+z
x,-y,1/2+z
1/2+x,1/2+y,z
1/2-x,1/2-y,z
1/2+x,1/2-y,1/2-z
1/2-x,1/2+y,1/2-z
1/2-x,1/2-y,-z
1/2+x,1/2+y,-z
1/2-x,1/2+y,1/2+z
1/2+x,1/2-y,1/2+z
loop_
_atom_site_type_symbol
_atom_site_label
_atom_site_fract_x
_atom_site_fract_y
_atom_site_fract_z
Si Si1 0.883088 0.780188 0.952461
Si Si2 0.816170 0.403662 0.220195
Si Si3 0.368591 0.663462 0.754997
Si Si4 0.983849 0.681628 0.120025
Si Si5 0.135120 0.522012 0.125306
Si Si6 0.764781 0.566075 0.951349
Si Si7 0.986894 0.880945 0.183112
O O1 0.826894 0.669994 0.953564
O O2 0.827370 0.887890 0.938149
O O3 0.960223 0.759838 0.920613
O O4 0.920882 0.802887 0.000000
O O5 0.857042 0.500000 0.250000
O O6 0.719961 0.391103 0.234117
O O7 0.868838 0.294167 0.232220
O O8 0.821998 0.434386 0.169374
O O9 0.440764 0.602885 0.781483
O O10 0.394553 0.641501 0.704605
O O11 0.064988 0.608465 0.108720
O O12 0.906803 0.600134 0.133918
O O13 0.007959 0.769839 0.156564
O O14 0.204049 0.518066 0.086563
O O15 0.762791 0.510267 0.000000
O O16 0.000000 0.000000 0.157093
#
# Coordination Sequence:
#
# PCOD8276413 Si02
#       7
#    16  16  16  16  16  16  16
#     4   8  15  29  50  77 111 146 183 222 271 334
#     4  11  21  36  54  79 106 142 177 229 277 330
#     4  10  22  37  54  75 103 136 186 224 271 321
#     4  10  20  34  53  83 111 146 179 225 284 339
#     4  10  20  34  53  83 118 139 181 228 287 351
#     4   8  15  29  50  78 112 148 179 224 283 338
#     4  11  21  38  55  75 103 142 184 228 266 327
#
# _framework density 19.153482
#
# number of rings (size 3 to 8) (size 9 to 14) (size 15 to 20)
#    0.000    2.286    1.429    3.429    0.000    2.857 
#    0.000    5.714    0.000    0.429    0.000    3.000 
#    0.000    0.000    0.000    0.000    0.000    0.000 
#
# Total GULP energy -693866.963589 kJ/mol
# GULP energy per Si atom -12390.481493 kJ/mol
# Density = 1.910989 g / cm^3
# Si number density = 19.153482 Si / 1000 Ang^3
#
#
#
# Elastic Constant Matrix: (Units=GPa)
#
#
# Indices 1 2 3 4 5 6 
#
# 1 65.5249 25.4829 33.6865 0.0000 0.0000 0.0000
# 2 25.4829 106.7541 46.0310 0.0000 0.0000 0.0000
# 3 33.6865 46.0310 105.0065 0.0000 0.0000 0.0000
# 4 0.0000 0.0000 0.0000 15.5655 0.0000 0.0000
# 5 0.0000 0.0000 0.0000 0.0000 17.4656 0.0000
# 6 0.0000 0.0000 0.0000 0.0000 0.0000 12.4042
#
#
#
# Elastic Compliance Matrix: (Units=1/GPa)
#
#
# Indices 1 2 3 4 5 6 
#
# 1 0.018729 -0.002318 -0.004992 0.000000 0.000000 0.000000
# 2 -0.002318 0.011838 -0.004445 0.000000 0.000000 0.000000
# 3 -0.004992 -0.004445 0.013073 0.000000 0.000000 0.000000
# 4 0.000000 0.000000 0.000000 0.064245 0.000000 0.000000
# 5 0.000000 0.000000 0.000000 0.000000 0.057255 0.000000
# 6 0.000000 0.000000 0.000000 0.000000 0.000000 0.080618
#
#
# Mechanical properties :
#
#
# Convention : Reuss Voigt Hill
#
# Bulk Modulus (GPa) = 49.68058 54.18737 51.93397
# Shear Modulus (GPa) = 18.11726 20.55940 19.33833
#
# Velocity S-wave (km/s) = 3.07888 3.27984 3.18095
# Velocity P-wave (km/s) = 6.21561 6.53419 6.37689
#
# Compressibility (1/GPa) = 0.02012859
#
# Stress axis : x y z
#
# Youngs Moduli (GPa) = 53.39174 84.47723 76.49085
#
# Poissons Ratio (x) = 0.19584 0.38186
# Poissons Ratio (y) = 0.12378 0.34003
# Poissons Ratio (z) = 0.26655 0.37554
#
# Static dielectric constant tensor:
#      x y z
#    x 3.403030 0.000000 0.000000 
#    y 0.000000 3.535660 0.000000 
#    z 0.000000 0.000000 3.694590 
# 
# 
# High freq. dielectric constant tensor:
#      x y z
#    x 1.729680 0.000000 0.000000 
#    y 0.000000 1.740580 0.000000 
#    z 0.000000 0.000000 1.735460 
# 
# From -- ./inp_files/69531.got.cif
#   From: 2010.03.12/outbox.cif.g09.slc.cpg/sg66_35_cif.got.tgz:69531.got - 2010.04.10 21:57:39.
