data_PCOD8276099
_publ_section_title
;
Structure prediction by ZEFSAII (Michael W. Deem and Ramdas Pophale) SiO2 
 PCOD8276099
Probable space group: C C C M
;
_chemical_formula_sum "Si O2"
_cell_formula_units_Z 116
_cell_length_a 26.724405
_cell_length_b 22.329231
_cell_length_c 9.806242
_cell_angle_alpha 90.000000
_cell_angle_beta 90.000000
_cell_angle_gamma 90.000000
_cell_volume 5851.731866
_symmetry_space_group_name_H-M "C C C M"
_symmetry_group_IT_number 66
_symmetry_cell_setting 'orthorhombic'
loop_
_space_group_symop_operation_xyz
x,y,z
-x,-y,z
x,-y,1/2-z
-x,y,1/2-z
-x,-y,-z
x,y,-z
-x,y,1/2+z
x,-y,1/2+z
1/2+x,1/2+y,z
1/2-x,1/2-y,z
1/2+x,1/2-y,1/2-z
1/2-x,1/2+y,1/2-z
1/2-x,1/2-y,-z
1/2+x,1/2+y,-z
1/2-x,1/2+y,1/2+z
1/2+x,1/2-y,1/2+z
loop_
_atom_site_type_symbol
_atom_site_label
_atom_site_fract_x
_atom_site_fract_y
_atom_site_fract_z
Si Si1 0.302166 0.272438 0.841189
Si Si2 0.958330 0.805993 0.350870
Si Si3 0.000000 0.000000 0.750000
Si Si4 0.214968 0.552326 0.654328
Si Si5 0.451375 0.830248 0.837904
Si Si6 0.091120 0.925893 0.148529
Si Si7 0.861942 0.655541 0.156455
Si Si8 0.824874 0.096238 0.342004
O O1 0.250000 0.250000 0.773130
O O2 0.345078 0.223583 0.816210
O O3 0.320081 0.336266 0.781469
O O4 0.291415 0.283485 0.000000
O O5 0.983360 0.804203 0.500000
O O6 0.939624 0.739712 0.314451
O O7 0.913962 0.853802 0.344463
O O8 0.000000 0.829670 0.250000
O O9 0.037147 0.957856 0.836854
O O10 0.193944 0.500000 0.750000
O O11 0.206595 0.531158 0.500000
O O12 0.185387 0.613313 0.683354
O O13 0.273025 0.562913 0.684646
O O14 0.500000 0.849095 0.750000
O O15 0.404843 0.863305 0.764692
O O16 0.456152 0.846868 0.000000
O O17 0.131751 0.941549 0.264319
O O18 0.112505 0.943984 0.000000
O O19 0.881394 0.648953 0.000000
O O20 0.840127 0.096782 0.500000
#
# Coordination Sequence:
#
# PCOD8276099 Si02
#       8
#    16  16   4  16  16  16  16  16
#     4   9  15  30  58  89 118 148 187 234 286 349
#     4   9  18  34  53  75 106 142 180 227 280 340
#     4  12  26  44  60  74 102 152 212 262 306 348
#     4  10  22  39  58  83 115 153 194 233 276 337
#     4  10  20  34  56  86 119 150 184 224 279 343
#     4  11  24  40  57  77 104 142 192 249 301 345
#     4  10  19  34  59  87 117 152 191 234 284 338
#     4  10  21  37  60  87 113 147 190 238 293 351
#
# _framework density 19.823191999999999
#
# number of rings (size 3 to 8) (size 9 to 14) (size 15 to 20)
#    0.000    2.069    2.069    1.448    0.966    3.310 
#    0.000    0.000    0.000    1.241    0.000    2.897 
#    0.000    0.000    0.000    0.000    0.000    0.000 
#
# Total GULP energy -718890.014112 kJ/mol
# GULP energy per Si atom -12394.655416 kJ/mol
# Density = 1.977807 g / cm^3
# Si number density = 19.823192 Si / 1000 Ang^3
#
#
#
# Elastic Constant Matrix: (Units=GPa)
#
#
# Indices 1 2 3 4 5 6 
#
# 1 107.2448 12.5710 61.9004 0.0000 0.0000 0.0000
# 2 12.5710 57.6171 24.5177 0.0000 0.0000 0.0000
# 3 61.9004 24.5177 110.7507 0.0000 0.0000 0.0000
# 4 0.0000 0.0000 0.0000 33.9002 0.0000 0.0000
# 5 0.0000 0.0000 0.0000 0.0000 32.3960 0.0000
# 6 0.0000 0.0000 0.0000 0.0000 0.0000 16.3674
#
#
#
# Elastic Compliance Matrix: (Units=1/GPa)
#
#
# Indices 1 2 3 4 5 6 
#
# 1 0.013770 0.000299 -0.007762 0.000000 0.000000 0.000000
# 2 0.000299 0.019167 -0.004410 0.000000 0.000000 0.000000
# 3 -0.007762 -0.004410 0.014344 0.000000 0.000000 0.000000
# 4 0.000000 0.000000 0.000000 0.029498 0.000000 0.000000
# 5 0.000000 0.000000 0.000000 0.000000 0.030868 0.000000
# 6 0.000000 0.000000 0.000000 0.000000 0.000000 0.061097
#
#
# Mechanical properties :
#
#
# Convention : Reuss Voigt Hill
#
# Bulk Modulus (GPa) = 42.49207 52.62120 47.55664
# Shear Modulus (GPa) = 24.95800 28.30764 26.63282
#
# Velocity S-wave (km/s) = 3.55213 3.78300 3.66938
# Velocity P-wave (km/s) = 6.18915 6.75902 6.48035
#
# Compressibility (1/GPa) = 0.02353380
#
# Stress axis : x y z
#
# Youngs Moduli (GPa) = 72.62306 52.17175 69.71521
#
# Poissons Ratio (x) = -0.01559 0.54115
# Poissons Ratio (y) = -0.02170 0.30746
# Poissons Ratio (z) = 0.56372 0.23009
#
# Static dielectric constant tensor:
#      x y z
#    x 3.401170 0.000000 0.000000 
#    y 0.000000 3.482380 0.000000 
#    z 0.000000 0.000000 3.531930 
# 
# 
# High freq. dielectric constant tensor:
#      x y z
#    x 1.764550 0.000000 0.000000 
#    y 0.000000 1.761730 0.000000 
#    z 0.000000 0.000000 1.758940 
# 
# From -- ./inp_files/10602.got.cif
#   From: 2010.03.12/outbox.cif.g09.slc.cpg/sg66_6_cif.got.tgz:10602.got - 2010.04.10 21:57:39.
