data_PCOD8276532
_publ_section_title
;
Structure prediction by ZEFSAII (Michael W. Deem and Ramdas Pophale) SiO2 
 PCOD8276532
Probable space group: C C C M
;
_chemical_formula_sum "Si O2"
_cell_formula_units_Z 96
_cell_length_a 27.119629
_cell_length_b 18.733806
_cell_length_c 9.331121
_cell_angle_alpha 90.000000
_cell_angle_beta 90.000000
_cell_angle_gamma 90.000000
_cell_volume 4740.712121
_symmetry_space_group_name_H-M "C C C M"
_symmetry_group_IT_number 66
_symmetry_cell_setting 'orthorhombic'
loop_
_space_group_symop_operation_xyz
x,y,z
-x,-y,z
x,-y,1/2-z
-x,y,1/2-z
-x,-y,-z
x,y,-z
-x,y,1/2+z
x,-y,1/2+z
1/2+x,1/2+y,z
1/2-x,1/2-y,z
1/2+x,1/2-y,1/2-z
1/2-x,1/2+y,1/2-z
1/2-x,1/2-y,-z
1/2+x,1/2+y,-z
1/2-x,1/2+y,1/2+z
1/2+x,1/2-y,1/2+z
loop_
_atom_site_type_symbol
_atom_site_label
_atom_site_fract_x
_atom_site_fract_y
_atom_site_fract_z
Si Si1 0.293549 0.561862 0.655701
Si Si2 0.950303 0.813153 0.668932
Si Si3 0.549209 0.851583 0.666452
Si Si4 0.592418 0.565207 0.839761
Si Si5 0.757144 0.666684 0.337870
Si Si6 0.149203 0.426919 0.668115
O O1 0.267801 0.500000 0.750000
O O2 0.267964 0.561703 0.500000
O O3 0.350809 0.546932 0.638471
O O4 0.284418 0.636295 0.733632
O O5 0.953573 0.830211 0.500000
O O6 0.937253 0.730830 0.696956
O O7 0.909876 0.862369 0.746341
O O8 0.000000 0.834812 0.750000
O O9 0.500000 0.875399 0.750000
O O10 0.537989 0.863278 0.500000
O O11 0.595586 0.898327 0.718501
O O12 0.567364 0.500000 0.750000
O O13 0.568499 0.572496 0.000000
O O14 0.744915 0.644187 0.500000
O O15 0.750000 0.750000 0.317528
O O16 0.810957 0.635245 0.295269
O O17 0.161684 0.500000 0.750000
O O18 0.148581 0.443072 0.500000
#
# Coordination Sequence:
#
# PCOD8276532 Si02
#       6
#    16  16  16  16  16  16
#     4  10  21  37  57  81 113 150 190 237 286 341
#     4  10  20  35  57  81 110 148 187 238 293 350
#     4   9  20  38  60  86 117 151 193 238 291 352
#     4  10  21  36  54  80 111 147 192 239 288 345
#     4  10  22  38  60  87 117 154 196 240 289 347
#     4  10  22  40  60  88 120 155 195 239 291 346
#
# _framework density 20.250124
#
# number of rings (size 3 to 8) (size 9 to 14) (size 15 to 20)
#    0.000    2.167    0.000    2.000    2.333    6.333 
#    0.000    3.333    0.000    0.000    0.000    0.000 
#    0.000    0.000    0.000    0.000    0.000    0.000 
#
# Total GULP energy -595046.199584 kJ/mol
# GULP energy per Si atom -12396.795825 kJ/mol
# Density = 2.020403 g / cm^3
# Si number density = 20.250124 Si / 1000 Ang^3
#
#
#
# Elastic Constant Matrix: (Units=GPa)
#
#
# Indices 1 2 3 4 5 6 
#
# 1 66.0143 47.5035 35.2886 0.0000 0.0000 0.0000
# 2 47.5035 107.3735 69.9866 0.0000 0.0000 0.0000
# 3 35.2886 69.9866 133.4698 0.0000 0.0000 0.0000
# 4 0.0000 0.0000 0.0000 34.7143 0.0000 0.0000
# 5 0.0000 0.0000 0.0000 0.0000 23.7276 0.0000
# 6 0.0000 0.0000 0.0000 0.0000 0.0000 29.5896
#
#
#
# Elastic Compliance Matrix: (Units=1/GPa)
#
#
# Indices 1 2 3 4 5 6 
#
# 1 0.022329 -0.009162 -0.001099 0.000000 0.000000 0.000000
# 2 -0.009162 0.017909 -0.006968 0.000000 0.000000 0.000000
# 3 -0.001099 -0.006968 0.011437 0.000000 0.000000 0.000000
# 4 0.000000 0.000000 0.000000 0.028807 0.000000 0.000000
# 5 0.000000 0.000000 0.000000 0.000000 0.042145 0.000000
# 6 0.000000 0.000000 0.000000 0.000000 0.000000 0.033796
#
#
# Mechanical properties :
#
#
# Convention : Reuss Voigt Hill
#
# Bulk Modulus (GPa) = 58.08858 68.04611 63.06735
# Shear Modulus (GPa) = 25.42987 27.87823 26.65405
#
# Velocity S-wave (km/s) = 3.54755 3.71441 3.63194
# Velocity P-wave (km/s) = 6.74744 7.21606 6.98568
#
# Compressibility (1/GPa) = 0.01721509
#
# Stress axis : x y z
#
# Youngs Moduli (GPa) = 44.78509 55.83910 87.43639
#
# Poissons Ratio (x) = 0.51160 0.09613
# Poissons Ratio (y) = 0.41032 0.60928
# Poissons Ratio (z) = 0.04924 0.38910
#
# Static dielectric constant tensor:
#      x y z
#    x 3.512100 0.000000 0.000000 
#    y 0.000000 3.624490 0.000000 
#    z 0.000000 0.000000 3.976010 
# 
# 
# High freq. dielectric constant tensor:
#      x y z
#    x 1.778980 0.000000 0.000000 
#    y 0.000000 1.790590 0.000000 
#    z 0.000000 0.000000 1.800010 
# 
# From -- ./inp_files/10259.got.cif
#   From: 2010.03.12/outbox.cif.g09.slc.cpg/sg66_6_cif.got.tgz:10259.got - 2010.04.10 21:57:39.
