data_PCOD8276807
_publ_section_title
;
Structure prediction by ZEFSAII (Michael W. Deem and Ramdas Pophale) SiO2 
 PCOD8276807
Probable space group: C C C M
;
_chemical_formula_sum "Si O2"
_cell_formula_units_Z 56
_cell_length_a 8.939035
_cell_length_b 15.862200
_cell_length_c 18.276463
_cell_angle_alpha 90.000000
_cell_angle_beta 90.000000
_cell_angle_gamma 90.000000
_cell_volume 2591.470150
_symmetry_space_group_name_H-M "C C C M"
_symmetry_group_IT_number 66
_symmetry_cell_setting 'orthorhombic'
loop_
_space_group_symop_operation_xyz
x,y,z
-x,-y,z
x,-y,1/2-z
-x,y,1/2-z
-x,-y,-z
x,y,-z
-x,y,1/2+z
x,-y,1/2+z
1/2+x,1/2+y,z
1/2-x,1/2-y,z
1/2+x,1/2-y,1/2-z
1/2-x,1/2+y,1/2-z
1/2-x,1/2-y,-z
1/2+x,1/2+y,-z
1/2-x,1/2+y,1/2+z
1/2+x,1/2-y,1/2+z
loop_
_atom_site_type_symbol
_atom_site_label
_atom_site_fract_x
_atom_site_fract_y
_atom_site_fract_z
Si Si1 0.881618 0.135109 0.000000
Si Si2 0.500000 0.264315 0.250000
Si Si3 0.671139 0.829293 0.871397
Si Si4 0.523061 0.409117 0.353042
Si Si5 0.544117 0.169007 0.000000
O O1 0.703198 0.123587 0.000000
O O2 0.934340 0.231316 0.000000
O O3 0.947884 0.086312 0.068430
O O4 0.384992 0.202612 0.208780
O O5 0.438632 0.331569 0.310732
O O6 0.750000 0.750000 0.911754
O O7 0.796884 0.898901 0.856874
O O8 0.541926 0.861378 0.926170
O O9 0.500000 0.500000 0.314700
#
# Coordination Sequence:
#
# PCOD8276807 Si02
#       5
#     8   8  16  16   8
#     4  11  22  35  62  95 122 159 210 254 308 369
#     4  10  21  36  62  90 115 160 212 254 295 366
#     4  10  20  38  63  89 119 161 210 253 303 365
#     4  11  23  41  63  91 126 162 201 258 316 371
#     4  11  20  36  62  94 120 158 213 266 288 357
#
# _framework density 21.609355999999998
#
# number of rings (size 3 to 8) (size 9 to 14) (size 15 to 20)
#    0.000    1.429    5.714    2.143    0.000    6.857 
#    0.000    2.857    0.000    3.429    0.000    0.000 
#    0.000    0.000    0.000    0.000    0.000    0.000 
#
# Total GULP energy -346870.464478 kJ/mol
# GULP energy per Si atom -12388.230874 kJ/mol
# Density = 2.156017 g / cm^3
# Si number density = 21.609356 Si / 1000 Ang^3
#
#
#
# Elastic Constant Matrix: (Units=GPa)
#
#
# Indices 1 2 3 4 5 6 
#
# 1 161.1445 57.0038 76.8860 0.0000 0.0000 0.0000
# 2 57.0038 88.3295 25.7484 0.0000 0.0000 0.0000
# 3 76.8860 25.7484 147.6684 0.0000 0.0000 0.0000
# 4 0.0000 0.0000 0.0000 -8.4541 0.0000 0.0000
# 5 0.0000 0.0000 0.0000 0.0000 38.5788 0.0000
# 6 0.0000 0.0000 0.0000 0.0000 0.0000 30.4041
#
#
#
# Elastic Compliance Matrix: (Units=1/GPa)
#
#
# Indices 1 2 3 4 5 6 
#
# 1 0.010158 -0.005282 -0.004368 0.000000 0.000000 0.000000
# 2 -0.005282 0.014674 0.000192 0.000000 0.000000 0.000000
# 3 -0.004368 0.000192 0.009013 0.000000 0.000000 0.000000
# 4 0.000000 0.000000 0.000000 -0.118285 0.000000 0.000000
# 5 0.000000 0.000000 0.000000 0.000000 0.025921 0.000000
# 6 0.000000 0.000000 0.000000 0.000000 0.000000 0.032890
#
#
# Mechanical properties :
#
#
# Convention : Reuss Voigt Hill
#
# Bulk Modulus (GPa) = 66.98843 79.60211 73.29527
# Shear Modulus (GPa) = -2881.65751 27.93937 -1426.85907
#
# Velocity S-wave (km/s) = -36.55705 3.59963 -25.72412
# Velocity P-wave (km/s) = 41.84285 7.36161 29.12585
#
# Compressibility (1/GPa) = 0.01492795
#
# Stress axis : x y z
#
# Youngs Moduli (GPa) = 98.44143 68.14585 110.95332
#
# Poissons Ratio (x) = 0.35998 0.48465
# Poissons Ratio (y) = 0.52001 -0.02126
# Poissons Ratio (z) = 0.42999 -0.01306
#
# Static dielectric constant tensor:
#      x y z
#    x 4.114120 0.000000 0.000000 
#    y 0.000000 3.524880 0.000000 
#    z 0.000000 0.000000 4.046720 
# 
# 
# High freq. dielectric constant tensor:
#      x y z
#    x 1.838580 0.000000 0.000000 
#    y 0.000000 1.820690 0.000000 
#    z 0.000000 0.000000 1.861140 
# 
# From -- ./inp_files/36094.got.cif
#   From: 2010.03.12/outbox.cif.g09.slc.cpg/sg66_19_cif.got.tgz:36094.got - 2010.04.10 21:57:39.
