data_PCOD8276657
_publ_section_title
;
Structure prediction by ZEFSAII (Michael W. Deem and Ramdas Pophale) SiO2 
 PCOD8276657
Probable space group: C C C M
;
_chemical_formula_sum "Si O2"
_cell_formula_units_Z 112
_cell_length_a 13.157247
_cell_length_b 27.638747
_cell_length_c 15.465339
_cell_angle_alpha 90.000000
_cell_angle_beta 90.000000
_cell_angle_gamma 90.000000
_cell_volume 5623.967760
_symmetry_space_group_name_H-M "C C C M"
_symmetry_group_IT_number 66
_symmetry_cell_setting 'orthorhombic'
loop_
_space_group_symop_operation_xyz
x,y,z
-x,-y,z
x,-y,1/2-z
-x,y,1/2-z
-x,-y,-z
x,y,-z
-x,y,1/2+z
x,-y,1/2+z
1/2+x,1/2+y,z
1/2-x,1/2-y,z
1/2+x,1/2-y,1/2-z
1/2-x,1/2+y,1/2-z
1/2-x,1/2-y,-z
1/2+x,1/2+y,-z
1/2-x,1/2+y,1/2+z
1/2+x,1/2-y,1/2+z
loop_
_atom_site_type_symbol
_atom_site_label
_atom_site_fract_x
_atom_site_fract_y
_atom_site_fract_z
Si Si1 0.819317 0.359495 0.666671
Si Si2 0.554696 0.448608 0.597831
Si Si3 0.010750 0.699612 0.846928
Si Si4 0.143781 0.892979 0.901652
Si Si5 0.728272 0.446395 0.258438
Si Si6 0.415948 0.750791 0.500000
Si Si7 0.735474 0.672155 0.000000
Si Si8 0.735658 0.806866 0.669803
O O1 0.819956 0.412210 0.709965
O O2 0.747596 0.361735 0.582942
O O3 0.765992 0.319551 0.728539
O O4 0.934926 0.345968 0.643470
O O5 0.500000 0.500000 0.613095
O O6 0.601386 0.447610 0.500000
O O7 0.476626 0.403332 0.607212
O O8 0.636692 0.442535 0.673185
O O9 0.123552 0.679729 0.866954
O O10 0.000000 0.721673 0.750000
O O11 0.983376 0.741631 0.914469
O O12 0.198244 0.930065 0.837496
O O13 0.175940 0.837580 0.877968
O O14 0.178530 0.903853 0.000000
O O15 0.771771 0.500000 0.250000
O O16 0.376157 0.695929 0.500000
O O17 0.321616 0.786998 0.500000
O O18 0.750000 0.750000 0.655826
#
# Coordination Sequence:
#
# PCOD8276657 Si02
#       8
#    16  16  16  16  16   8   8  16
#     4   9  21  37  57  89 118 152 194 244 300 350
#     4  10  20  36  60  89 121 156 194 242 305 366
#     4   9  19  37  58  81 115 155 197 239 291 349
#     4  10  22  39  56  84 119 159 202 243 293 357
#     4  11  21  36  62  88 117 154 194 246 301 361
#     4   9  18  32  59  86 109 163 195 235 306 339
#     4   9  18  34  58  84 124 143 199 251 285 363
#     4  10  22  39  60  83 119 161 203 244 296 353
#
# _framework density 19.914766
#
# number of rings (size 3 to 8) (size 9 to 14) (size 15 to 20)
#    0.000    2.286    1.429    0.429    8.000    0.286 
#    2.571    1.429    0.000   10.714    0.000    1.000 
#    0.000    0.000    0.000    0.000    0.000    0.000 
#
# Total GULP energy -694072.520641 kJ/mol
# GULP energy per Si atom -12394.152154 kJ/mol
# Density = 1.986944 g / cm^3
# Si number density = 19.914766 Si / 1000 Ang^3
#
#
#
# Elastic Constant Matrix: (Units=GPa)
#
#
# Indices 1 2 3 4 5 6 
#
# 1 75.8386 40.8185 35.7312 0.0000 0.0000 0.0000
# 2 40.8185 125.3919 46.0306 0.0000 0.0000 0.0000
# 3 35.7312 46.0306 132.0070 0.0000 0.0000 0.0000
# 4 0.0000 0.0000 0.0000 19.6826 0.0000 0.0000
# 5 0.0000 0.0000 0.0000 0.0000 23.0559 0.0000
# 6 0.0000 0.0000 0.0000 0.0000 0.0000 22.6188
#
#
#
# Elastic Compliance Matrix: (Units=1/GPa)
#
#
# Indices 1 2 3 4 5 6 
#
# 1 0.017003 -0.004410 -0.003065 0.000000 0.000000 0.000000
# 2 -0.004410 0.010290 -0.002394 0.000000 0.000000 0.000000
# 3 -0.003065 -0.002394 0.009240 0.000000 0.000000 0.000000
# 4 0.000000 0.000000 0.000000 0.050806 0.000000 0.000000
# 5 0.000000 0.000000 0.000000 0.000000 0.043373 0.000000
# 6 0.000000 0.000000 0.000000 0.000000 0.000000 0.044211
#
#
# Mechanical properties :
#
#
# Convention : Reuss Voigt Hill
#
# Bulk Modulus (GPa) = 59.54230 64.26647 61.90439
# Shear Modulus (GPa) = 24.96768 27.11528 26.04148
#
# Velocity S-wave (km/s) = 3.54464 3.69394 3.62006
# Velocity P-wave (km/s) = 6.83492 7.10876 6.97318
#
# Compressibility (1/GPa) = 0.01679478
#
# Stress axis : x y z
#
# Youngs Moduli (GPa) = 58.81166 97.18642 108.22812
#
# Poissons Ratio (x) = 0.42860 0.33168
# Poissons Ratio (y) = 0.25936 0.25912
# Poissons Ratio (z) = 0.18024 0.23269
#
# Static dielectric constant tensor:
#      x y z
#    x 3.571410 0.000000 0.000000 
#    y 0.000000 3.566420 0.000000 
#    z 0.000000 0.000000 3.903970 
# 
# 
# High freq. dielectric constant tensor:
#      x y z
#    x 1.753510 0.000000 0.000000 
#    y 0.000000 1.759670 0.000000 
#    z 0.000000 0.000000 1.795340 
# 
# From -- ./inp_files/28928.got.cif
#   From: 2010.03.12/outbox.cif.g09.slc.cpg/sg66_15_cif.got.tgz:28928.got - 2010.04.10 21:57:39.
