data_PCOD8276775
_publ_section_title
;
Structure prediction by ZEFSAII (Michael W. Deem and Ramdas Pophale) SiO2 
 PCOD8276775
Probable space group: C C C M
;
_chemical_formula_sum "Si O2"
_cell_formula_units_Z 72
_cell_length_a 8.989356
_cell_length_b 27.206061
_cell_length_c 14.421652
_cell_angle_alpha 90.000000
_cell_angle_beta 90.000000
_cell_angle_gamma 90.000000
_cell_volume 3527.030855
_symmetry_space_group_name_H-M "C C C M"
_symmetry_group_IT_number 66
_symmetry_cell_setting 'orthorhombic'
loop_
_space_group_symop_operation_xyz
x,y,z
-x,-y,z
x,-y,1/2-z
-x,y,1/2-z
-x,-y,-z
x,y,-z
-x,y,1/2+z
x,-y,1/2+z
1/2+x,1/2+y,z
1/2-x,1/2-y,z
1/2+x,1/2-y,1/2-z
1/2-x,1/2+y,1/2-z
1/2-x,1/2-y,-z
1/2+x,1/2+y,-z
1/2-x,1/2+y,1/2+z
1/2+x,1/2-y,1/2+z
loop_
_atom_site_type_symbol
_atom_site_label
_atom_site_fract_x
_atom_site_fract_y
_atom_site_fract_z
Si Si1 0.572519 0.547630 0.350328
Si Si2 0.970258 0.371685 0.000000
Si Si3 0.570700 0.950592 0.650273
Si Si4 0.254163 0.308885 0.000000
Si Si5 0.694687 0.304134 0.000000
Si Si6 0.984892 0.153835 0.360835
O O1 0.500000 0.500000 0.402907
O O2 0.500000 0.548296 0.250000
O O3 0.750920 0.543880 0.346077
O O4 0.522621 0.598687 0.397331
O O5 0.983416 0.404941 0.909366
O O6 0.813000 0.346616 0.000000
O O7 0.087689 0.328127 0.000000
O O8 0.500000 0.941448 0.750000
O O9 0.500000 0.000000 0.606980
O O10 0.250000 0.250000 0.000000
O O11 0.327177 0.330010 0.095219
O O12 0.750000 0.250000 0.000000
O O13 0.601282 0.308992 0.905923
O O14 0.000000 0.158909 0.250000
#
# Coordination Sequence:
#
# PCOD8276775 Si02
#       6
#    16   8  16   8   8  16
#     4  10  20  37  67  97 130 172 217 255 314 382
#     4  12  25  40  65  98 128 171 216 256 342 385
#     4  11  24  41  64  98 138 170 211 266 321 382
#     4  11  27  46  66  95 133 165 218 281 327 373
#     4  11  23  46  66  92 131 166 209 287 320 373
#     4  10  23  44  70  96 126 170 222 257 320 395
#
# _framework density 20.41377
#
# number of rings (size 3 to 8) (size 9 to 14) (size 15 to 20)
#    0.000    1.333    2.222    4.333    9.333    0.889 
#    0.000    5.000    0.000    0.000    0.000    0.000 
#    0.000    0.000    0.000    0.000    0.000    0.000 
#
# Total GULP energy -446135.634764 kJ/mol
# GULP energy per Si atom -12392.656521 kJ/mol
# Density = 2.036731 g / cm^3
# Si number density = 20.413770 Si / 1000 Ang^3
#
#
#
# Elastic Constant Matrix: (Units=GPa)
#
#
# Indices 1 2 3 4 5 6 
#
# 1 126.6672 40.1136 28.4597 0.0000 0.0000 0.0000
# 2 40.1136 146.7103 35.1725 0.0000 0.0000 0.0000
# 3 28.4597 35.1725 105.6989 0.0000 0.0000 0.0000
# 4 0.0000 0.0000 0.0000 30.2583 0.0000 0.0000
# 5 0.0000 0.0000 0.0000 0.0000 36.8906 0.0000
# 6 0.0000 0.0000 0.0000 0.0000 0.0000 44.9043
#
#
#
# Elastic Compliance Matrix: (Units=1/GPa)
#
#
# Indices 1 2 3 4 5 6 
#
# 1 0.008925 -0.002026 -0.001729 0.000000 0.000000 0.000000
# 2 -0.002026 0.007867 -0.002072 0.000000 0.000000 0.000000
# 3 -0.001729 -0.002072 0.010616 0.000000 0.000000 0.000000
# 4 0.000000 0.000000 0.000000 0.033049 0.000000 0.000000
# 5 0.000000 0.000000 0.000000 0.000000 0.027107 0.000000
# 6 0.000000 0.000000 0.000000 0.000000 0.000000 0.022270
#
#
# Mechanical properties :
#
#
# Convention : Reuss Voigt Hill
#
# Bulk Modulus (GPa) = 63.47782 65.17420 64.32601
# Shear Modulus (GPa) = 39.45141 40.76600 40.10870
#
# Velocity S-wave (km/s) = 4.40089 4.47361 4.43740
# Velocity P-wave (km/s) = 7.54897 7.66030 7.60484
#
# Compressibility (1/GPa) = 0.01575354
#
# Stress axis : x y z
#
# Youngs Moduli (GPa) = 112.04901 127.11566 94.19782
#
# Poissons Ratio (x) = 0.25750 0.16286
# Poissons Ratio (y) = 0.22698 0.19521
# Poissons Ratio (z) = 0.19372 0.26343
#
# Static dielectric constant tensor:
#      x y z
#    x 3.773850 0.000000 0.000000 
#    y 0.000000 4.359230 0.000000 
#    z 0.000000 0.000000 3.462810 
# 
# 
# High freq. dielectric constant tensor:
#      x y z
#    x 1.809590 0.000000 0.000000 
#    y 0.000000 1.815100 0.000000 
#    z 0.000000 0.000000 1.791610 
# 
# From -- ./inp_files/24558.got.cif
#   From: 2010.03.12/outbox.cif.g09.slc.cpg/sg66_13_cif.got.tgz:24558.got - 2010.04.10 21:57:39.
