data_PCOD8276202
_publ_section_title
;
Structure prediction by ZEFSAII (Michael W. Deem and Ramdas Pophale) SiO2 
 PCOD8276202
Probable space group: C C C M
;
_chemical_formula_sum "Si O2"
_cell_formula_units_Z 80
_cell_length_a 9.779748
_cell_length_b 23.500577
_cell_length_c 17.587795
_cell_angle_alpha 90.000000
_cell_angle_beta 90.000000
_cell_angle_gamma 90.000000
_cell_volume 4042.198016
_symmetry_space_group_name_H-M "C C C M"
_symmetry_group_IT_number 66
_symmetry_cell_setting 'orthorhombic'
loop_
_space_group_symop_operation_xyz
x,y,z
-x,-y,z
x,-y,1/2-z
-x,y,1/2-z
-x,-y,-z
x,y,-z
-x,y,1/2+z
x,-y,1/2+z
1/2+x,1/2+y,z
1/2-x,1/2-y,z
1/2+x,1/2-y,1/2-z
1/2-x,1/2+y,1/2-z
1/2-x,1/2-y,-z
1/2+x,1/2+y,-z
1/2-x,1/2+y,1/2+z
1/2+x,1/2-y,1/2+z
loop_
_atom_site_type_symbol
_atom_site_label
_atom_site_fract_x
_atom_site_fract_y
_atom_site_fract_z
Si Si1 0.602140 0.047944 0.589975
Si Si2 0.345101 0.489106 0.662075
Si Si3 0.485139 0.835221 0.916240
Si Si4 0.592487 0.732108 0.678889
Si Si5 0.822431 0.128796 0.084213
O O1 0.586933 0.048550 0.500000
O O2 0.563706 0.110686 0.620847
O O3 0.500000 0.000000 0.624334
O O4 0.755663 0.033360 0.613847
O O5 0.500000 0.500000 0.639930
O O6 0.313996 0.500000 0.750000
O O7 0.313018 0.424711 0.639944
O O8 0.495438 0.782349 0.859674
O O9 0.328386 0.849317 0.927880
O O10 0.546057 0.820104 0.000000
O O11 0.500000 0.713941 0.750000
O O12 0.750000 0.750000 0.699220
O O13 0.588604 0.678393 0.622459
O O14 0.882798 0.113808 0.000000
#
# Coordination Sequence:
#
# PCOD8276202 Si02
#       5
#    16  16  16  16  16
#     4  10  19  36  61  87 118 153 195 250 300 357
#     4  11  25  39  56  86 123 162 197 248 303 370
#     4   9  18  36  62  91 117 149 202 254 297 357
#     4  10  22  38  62  89 119 160 199 253 305 363
#     4  10  20  39  64  85 116 161 208 246 291 364
#
# _framework density 19.791212000000002
#
# number of rings (size 3 to 8) (size 9 to 14) (size 15 to 20)
#    0.000    2.000    2.000    1.200    2.800    7.600 
#    0.000    0.000    0.000    1.200    0.000    0.000 
#    0.000    0.000    0.000    0.000    0.000    0.000 
#
# Total GULP energy -495893.845435 kJ/mol
# GULP energy per Si atom -12397.346136 kJ/mol
# Density = 1.974617 g / cm^3
# Si number density = 19.791212 Si / 1000 Ang^3
#
#
#
# Elastic Constant Matrix: (Units=GPa)
#
#
# Indices 1 2 3 4 5 6 
#
# 1 55.8647 31.6730 28.2160 0.0000 0.0000 0.0000
# 2 31.6730 144.2793 65.0037 0.0000 0.0000 0.0000
# 3 28.2160 65.0037 84.1777 0.0000 0.0000 0.0000
# 4 0.0000 0.0000 0.0000 54.5590 0.0000 0.0000
# 5 0.0000 0.0000 0.0000 0.0000 27.8079 0.0000
# 6 0.0000 0.0000 0.0000 0.0000 0.0000 30.0435
#
#
#
# Elastic Compliance Matrix: (Units=1/GPa)
#
#
# Indices 1 2 3 4 5 6 
#
# 1 0.022042 -0.002316 -0.005600 0.000000 0.000000 0.000000
# 2 -0.002316 0.010872 -0.007620 0.000000 0.000000 0.000000
# 3 -0.005600 -0.007620 0.019641 0.000000 0.000000 0.000000
# 4 0.000000 0.000000 0.000000 0.018329 0.000000 0.000000
# 5 0.000000 0.000000 0.000000 0.000000 0.035961 0.000000
# 6 0.000000 0.000000 0.000000 0.000000 0.000000 0.033285
#
#
# Mechanical properties :
#
#
# Convention : Reuss Voigt Hill
#
# Bulk Modulus (GPa) = 46.54607 59.34524 52.94565
# Shear Modulus (GPa) = 28.03293 33.11069 30.57181
#
# Velocity S-wave (km/s) = 3.76764 4.09467 3.93455
# Velocity P-wave (km/s) = 6.51892 7.23919 6.88848
#
# Compressibility (1/GPa) = 0.02148409
#
# Stress axis : x y z
#
# Youngs Moduli (GPa) = 45.36840 91.97706 50.91455
#
# Poissons Ratio (x) = 0.21299 0.28513
# Poissons Ratio (y) = 0.10506 0.38795
# Poissons Ratio (z) = 0.25407 0.70083
#
# Static dielectric constant tensor:
#      x y z
#    x 3.428670 0.000000 0.000000 
#    y 0.000000 3.590870 0.000000 
#    z 0.000000 0.000000 4.419780 
# 
# 
# High freq. dielectric constant tensor:
#      x y z
#    x 1.752210 0.000000 0.000000 
#    y 0.000000 1.779900 0.000000 
#    z 0.000000 0.000000 1.769340 
# 
# From -- ./inp_files/32077.got.cif
#   From: 2010.03.12/outbox.cif.g09.slc.cpg/sg66_17_cif.got.tgz:32077.got - 2010.04.10 21:57:39.
