data_PCOD8276911
_publ_section_title
;
Structure prediction by ZEFSAII (Michael W. Deem and Ramdas Pophale) SiO2 
 PCOD8276911
Probable space group: C C C M
;
_chemical_formula_sum "Si O2"
_cell_formula_units_Z 112
_cell_length_a 15.504292
_cell_length_b 25.662102
_cell_length_c 13.904086
_cell_angle_alpha 90.000000
_cell_angle_beta 90.000000
_cell_angle_gamma 90.000000
_cell_volume 5532.056554
_symmetry_space_group_name_H-M "C C C M"
_symmetry_group_IT_number 66
_symmetry_cell_setting 'orthorhombic'
loop_
_space_group_symop_operation_xyz
x,y,z
-x,-y,z
x,-y,1/2-z
-x,y,1/2-z
-x,-y,-z
x,y,-z
-x,y,1/2+z
x,-y,1/2+z
1/2+x,1/2+y,z
1/2-x,1/2-y,z
1/2+x,1/2-y,1/2-z
1/2-x,1/2+y,1/2-z
1/2-x,1/2-y,-z
1/2+x,1/2+y,-z
1/2-x,1/2+y,1/2+z
1/2+x,1/2-y,1/2+z
loop_
_atom_site_type_symbol
_atom_site_label
_atom_site_fract_x
_atom_site_fract_y
_atom_site_fract_z
Si Si1 0.661815 0.280151 0.605245
Si Si2 0.499410 0.888595 0.113179
Si Si3 0.870276 0.438327 0.241710
Si Si4 0.020575 0.271146 0.391929
Si Si5 0.402599 0.481173 0.110846
Si Si6 0.173219 0.925324 0.785767
Si Si7 0.092518 0.824828 0.781835
O O1 0.658285 0.307094 0.500000
O O2 0.750000 0.250000 0.617659
O O3 0.579902 0.242375 0.618007
O O4 0.655711 0.321950 0.689410
O O5 0.417849 0.923905 0.141913
O O6 0.583641 0.909099 0.169162
O O7 0.472927 0.830011 0.146141
O O8 0.518614 0.891552 0.000000
O O9 0.876244 0.500000 0.250000
O O10 0.772973 0.418765 0.239155
O O11 0.054030 0.267218 0.500000
O O12 0.082755 0.230837 0.335079
O O13 0.500000 0.500000 0.126709
O O14 0.338596 0.528612 0.137317
O O15 0.380084 0.435133 0.185964
O O16 0.386999 0.463701 0.000000
O O17 0.137210 0.872640 0.838610
O O18 0.000000 0.845202 0.750000
#
# Coordination Sequence:
#
# PCOD8276911 Si02
#       7
#    16  16  16  16  16  16  16
#     4   9  19  33  53  83 116 149 198 252 301 357
#     4  10  23  41  66  88 121 166 206 258 321 379
#     4  11  24  41  63  94 123 157 212 267 315 377
#     4   9  20  39  59  86 119 162 207 245 300 375
#     4  10  21  39  64  87 123 168 206 251 310 372
#     4  11  22  40  59  93 128 158 207 264 313 373
#     4  10  21  34  59  87 123 167 197 248 308 367
#
# _framework density 20.245636000000001
#
# number of rings (size 3 to 8) (size 9 to 14) (size 15 to 20)
#    0.000    2.000    1.429    2.571    8.000    3.429 
#    0.000    2.857    0.000    2.143    0.000    0.000 
#    0.000    0.000    0.000    0.000    0.000    0.000 
#
# Total GULP energy -693955.777751 kJ/mol
# GULP energy per Si atom -12392.067460 kJ/mol
# Density = 2.019956 g / cm^3
# Si number density = 20.245636 Si / 1000 Ang^3
#
#
#
# Elastic Constant Matrix: (Units=GPa)
#
#
# Indices 1 2 3 4 5 6 
#
# 1 105.6222 38.4429 35.8741 0.0000 0.0000 0.0000
# 2 38.4429 127.1231 21.2880 0.0000 0.0000 0.0000
# 3 35.8741 21.2880 89.9606 0.0000 0.0000 0.0000
# 4 0.0000 0.0000 0.0000 24.4179 0.0000 0.0000
# 5 0.0000 0.0000 0.0000 0.0000 21.1743 0.0000
# 6 0.0000 0.0000 0.0000 0.0000 0.0000 13.0395
#
#
#
# Elastic Compliance Matrix: (Units=1/GPa)
#
#
# Indices 1 2 3 4 5 6 
#
# 1 0.011909 -0.002922 -0.004058 0.000000 0.000000 0.000000
# 2 -0.002922 0.008908 -0.000943 0.000000 0.000000 0.000000
# 3 -0.004058 -0.000943 0.012957 0.000000 0.000000 0.000000
# 4 0.000000 0.000000 0.000000 0.040954 0.000000 0.000000
# 5 0.000000 0.000000 0.000000 0.000000 0.047227 0.000000
# 6 0.000000 0.000000 0.000000 0.000000 0.000000 0.076690
#
#
# Mechanical properties :
#
#
# Convention : Reuss Voigt Hill
#
# Bulk Modulus (GPa) = 55.77366 57.10176 56.43771
# Shear Modulus (GPa) = 22.67920 26.86642 24.77281
#
# Velocity S-wave (km/s) = 3.35057 3.64678 3.50181
# Velocity P-wave (km/s) = 6.52509 6.78216 6.65487
#
# Compressibility (1/GPa) = 0.01792961
#
# Stress axis : x y z
#
# Youngs Moduli (GPa) = 83.96732 112.26009 77.17727
#
# Poissons Ratio (x) = 0.32802 0.31316
# Poissons Ratio (y) = 0.24535 0.07276
# Poissons Ratio (z) = 0.34072 0.10583
#
# Static dielectric constant tensor:
#      x y z
#    x 3.675310 0.000000 0.000000 
#    y 0.000000 3.740450 0.000000 
#    z 0.000000 0.000000 3.832470 
# 
# 
# High freq. dielectric constant tensor:
#      x y z
#    x 1.786610 0.000000 0.000000 
#    y 0.000000 1.794010 0.000000 
#    z 0.000000 0.000000 1.786430 
# 
# From -- ./inp_files/28658.got.cif
#   From: 2010.03.12/outbox.cif.g09.slc.cpg/sg66_15_cif.got.tgz:28658.got - 2010.04.10 21:57:39.
