data_PCOD8276849
_publ_section_title
;
Structure prediction by ZEFSAII (Michael W. Deem and Ramdas Pophale) SiO2 
 PCOD8276849
Probable space group: C C C M
;
_chemical_formula_sum "Si O2"
_cell_formula_units_Z 60
_cell_length_a 21.967958
_cell_length_b 13.705303
_cell_length_c 9.824103
_cell_angle_alpha 90.000000
_cell_angle_beta 90.000000
_cell_angle_gamma 90.000000
_cell_volume 2957.816574
_symmetry_space_group_name_H-M "C C C M"
_symmetry_group_IT_number 66
_symmetry_cell_setting 'orthorhombic'
loop_
_space_group_symop_operation_xyz
x,y,z
-x,-y,z
x,-y,1/2-z
-x,y,1/2-z
-x,-y,-z
x,y,-z
-x,y,1/2+z
x,-y,1/2+z
1/2+x,1/2+y,z
1/2-x,1/2-y,z
1/2+x,1/2-y,1/2-z
1/2-x,1/2+y,1/2-z
1/2-x,1/2-y,-z
1/2+x,1/2+y,-z
1/2-x,1/2+y,1/2+z
1/2+x,1/2-y,1/2+z
loop_
_atom_site_type_symbol
_atom_site_label
_atom_site_fract_x
_atom_site_fract_y
_atom_site_fract_z
Si Si1 0.307887 0.977879 0.000000
Si Si2 0.275598 0.500000 0.750000
Si Si3 0.136196 0.724644 0.000000
Si Si4 0.500000 0.000000 0.750000
Si Si5 0.881848 0.322449 0.500000
Si Si6 0.684232 0.706513 0.220990
Si Si7 0.023252 0.374849 0.500000
O O1 0.266806 0.960012 0.131164
O O2 0.340717 0.081393 0.000000
O O3 0.356853 0.892350 0.000000
O O4 0.316305 0.410080 0.804870
O O5 0.167722 0.777595 0.123826
O O6 0.062072 0.726513 0.000000
O O7 0.538963 0.933823 0.642063
O O8 0.867247 0.257607 0.368601
O O9 0.952109 0.349853 0.500000
O O10 0.750000 0.750000 0.181935
#
# Coordination Sequence:
#
# PCOD8276849 Si02
#       7
#     8   8   8   4   8  16   8
#     4  12  20  35  60  92 120 165 186 252 310 392
#     4  12  24  37  62  88 126 154 207 252 320 358
#     4  12  24  39  64  90 131 162 212 250 316 380
#     4  10  20  40  60  90 136 160 210 242 320 372
#     4  12  24  39  64  90 131 162 212 250 316 380
#     4  12  23  42  61  92 122 168 207 263 314 376
#     4  11  24  40  62  93 130 176 206 259 306 385
#
# _framework density 20.285235
#
# number of rings (size 3 to 8) (size 9 to 14) (size 15 to 20)
#    0.000    0.267    5.333    5.600    0.000    2.133 
#    0.000    0.000    0.000    4.800    0.000    0.000 
#    0.000    0.000    0.000    0.000    0.000    0.000 
#
# Total GULP energy -371931.724762 kJ/mol
# GULP energy per Si atom -12397.724159 kJ/mol
# Density = 2.023906 g / cm^3
# Si number density = 20.285235 Si / 1000 Ang^3
#
#
#
# Elastic Constant Matrix: (Units=GPa)
#
#
# Indices 1 2 3 4 5 6 
#
# 1 75.0975 22.4188 13.1107 0.0000 0.0000 0.0000
# 2 22.4188 108.8001 1.4349 0.0000 0.0000 0.0000
# 3 13.1107 1.4349 122.5135 0.0000 0.0000 0.0000
# 4 0.0000 0.0000 0.0000 34.3794 0.0000 0.0000
# 5 0.0000 0.0000 0.0000 0.0000 6.8424 0.0000
# 6 0.0000 0.0000 0.0000 0.0000 0.0000 15.4654
#
#
#
# Elastic Compliance Matrix: (Units=1/GPa)
#
#
# Indices 1 2 3 4 5 6 
#
# 1 0.014464 -0.002960 -0.001513 0.000000 0.000000 0.000000
# 2 -0.002960 0.009799 0.000202 0.000000 0.000000 0.000000
# 3 -0.001513 0.000202 0.008322 0.000000 0.000000 0.000000
# 4 0.000000 0.000000 0.000000 0.029087 0.000000 0.000000
# 5 0.000000 0.000000 0.000000 0.000000 0.146148 0.000000
# 6 0.000000 0.000000 0.000000 0.000000 0.000000 0.064661
#
#
# Mechanical properties :
#
#
# Convention : Reuss Voigt Hill
#
# Bulk Modulus (GPa) = 41.59506 42.25998 41.92752
# Shear Modulus (GPa) = 17.29883 29.30055 23.29969
#
# Velocity S-wave (km/s) = 2.92341 3.80469 3.39278
# Velocity P-wave (km/s) = 5.65196 6.33869 6.00515
#
# Compressibility (1/GPa) = 0.02404132
#
# Stress axis : x y z
#
# Youngs Moduli (GPa) = 69.13732 102.05629 120.16442
#
# Poissons Ratio (x) = 0.30213 0.18183
# Poissons Ratio (y) = 0.20468 -0.02428
# Poissons Ratio (z) = 0.10462 -0.02062
#
# Static dielectric constant tensor:
#      x y z
#    x 3.450290 0.000000 0.000000 
#    y 0.000000 3.726560 0.000000 
#    z 0.000000 0.000000 3.950900 
# 
# 
# High freq. dielectric constant tensor:
#      x y z
#    x 1.770190 0.000000 0.000000 
#    y 0.000000 1.784700 0.000000 
#    z 0.000000 0.000000 1.817170 
# 
# From -- ./inp_files/5035.got.cif
#   From: 2010.03.12/outbox.cif.g09.slc.cpg/sg66_3_cif.got.tgz:5035.got - 2010.04.10 21:57:39.
