data_PCOD8276774
_publ_section_title
;
Structure prediction by ZEFSAII (Michael W. Deem and Ramdas Pophale) SiO2 
 PCOD8276774
Probable space group: C C C M
;
_chemical_formula_sum "Si O2"
_cell_formula_units_Z 80
_cell_length_a 15.264039
_cell_length_b 10.081674
_cell_length_c 25.167397
_cell_angle_alpha 90.000000
_cell_angle_beta 90.000000
_cell_angle_gamma 90.000000
_cell_volume 3872.936861
_symmetry_space_group_name_H-M "C C C M"
_symmetry_group_IT_number 66
_symmetry_cell_setting 'orthorhombic'
loop_
_space_group_symop_operation_xyz
x,y,z
-x,-y,z
x,-y,1/2-z
-x,y,1/2-z
-x,-y,-z
x,y,-z
-x,y,1/2+z
x,-y,1/2+z
1/2+x,1/2+y,z
1/2-x,1/2-y,z
1/2+x,1/2-y,1/2-z
1/2-x,1/2+y,1/2-z
1/2-x,1/2-y,-z
1/2+x,1/2+y,-z
1/2-x,1/2+y,1/2+z
1/2+x,1/2-y,1/2+z
loop_
_atom_site_type_symbol
_atom_site_label
_atom_site_fract_x
_atom_site_fract_y
_atom_site_fract_z
Si Si1 0.353386 0.050991 0.000000
Si Si2 0.523838 0.795249 0.500000
Si Si3 0.978889 0.847735 0.807136
Si Si4 0.607657 0.281432 0.103633
Si Si5 0.285992 0.613593 0.705180
Si Si6 0.767675 0.469085 0.104944
O O1 0.419477 0.176123 0.000000
O O2 0.415804 0.924555 0.000000
O O3 0.290430 0.053036 0.948124
O O4 0.549075 0.709348 0.448966
O O5 0.876830 0.838796 0.820752
O O6 0.000000 0.782768 0.750000
O O7 0.039390 0.772446 0.848649
O O8 0.000000 0.000000 0.806896
O O9 0.669253 0.410874 0.103494
O O10 0.663776 0.149242 0.108723
O O11 0.297647 0.500000 0.750000
O O12 0.250000 0.750000 0.731411
O O13 0.224364 0.561157 0.657293
#
# Coordination Sequence:
#
# PCOD8276774 Si02
#       6
#     8   8  16  16  16  16
#     4   9  19  37  57  89 135 164 208 267 321 363
#     4   9  19  35  59  89 127 171 205 265 320 371
#     4  11  21  41  63  89 124 166 202 256 322 377
#     4  10  20  37  67  91 121 166 220 254 310 386
#     4  12  27  43  67  94 131 168 210 261 323 378
#     4  10  21  39  64  94 123 166 215 263 311 377
#
# _framework density 20.65616
#
# number of rings (size 3 to 8) (size 9 to 14) (size 15 to 20)
#    0.000    1.600    4.000    0.600    8.400    2.400 
#    0.000    2.000    0.000    0.000    0.000    0.000 
#    0.000    0.000    0.000    0.000    0.000    0.000 
#
# Total GULP energy -495845.698792 kJ/mol
# GULP energy per Si atom -12396.142470 kJ/mol
# Density = 2.060915 g / cm^3
# Si number density = 20.656160 Si / 1000 Ang^3
#
#
#
# Elastic Constant Matrix: (Units=GPa)
#
#
# Indices 1 2 3 4 5 6 
#
# 1 112.3909 33.2022 53.4367 0.0000 0.0000 0.0000
# 2 33.2022 67.5578 31.5989 0.0000 0.0000 0.0000
# 3 53.4367 31.5989 157.7374 0.0000 0.0000 0.0000
# 4 0.0000 0.0000 0.0000 27.3961 0.0000 0.0000
# 5 0.0000 0.0000 0.0000 0.0000 38.7570 0.0000
# 6 0.0000 0.0000 0.0000 0.0000 0.0000 12.0138
#
#
#
# Elastic Compliance Matrix: (Units=1/GPa)
#
#
# Indices 1 2 3 4 5 6 
#
# 1 0.011625 -0.004271 -0.003083 0.000000 0.000000 0.000000
# 2 -0.004271 0.017902 -0.002139 0.000000 0.000000 0.000000
# 3 -0.003083 -0.002139 0.007812 0.000000 0.000000 0.000000
# 4 0.000000 0.000000 0.000000 0.036502 0.000000 0.000000
# 5 0.000000 0.000000 0.000000 0.000000 0.025802 0.000000
# 6 0.000000 0.000000 0.000000 0.000000 0.000000 0.083237
#
#
# Mechanical properties :
#
#
# Convention : Reuss Voigt Hill
#
# Bulk Modulus (GPa) = 54.48679 63.79576 59.14128
# Shear Modulus (GPa) = 24.04028 30.26326 27.15177
#
# Velocity S-wave (km/s) = 3.41520 3.83181 3.62949
# Velocity P-wave (km/s) = 6.47971 7.10835 6.80130
#
# Compressibility (1/GPa) = 0.01835307
#
# Stress axis : x y z
#
# Youngs Moduli (GPa) = 86.02173 55.85979 128.00087
#
# Poissons Ratio (x) = 0.23860 0.39456
# Poissons Ratio (y) = 0.36744 0.27382
# Poissons Ratio (z) = 0.26516 0.11949
#
# Static dielectric constant tensor:
#      x y z
#    x 3.297170 0.000000 0.000000 
#    y 0.000000 3.506200 0.000000 
#    z 0.000000 0.000000 4.383720 
# 
# 
# High freq. dielectric constant tensor:
#      x y z
#    x 1.815020 0.000000 0.000000 
#    y 0.000000 1.781290 0.000000 
#    z 0.000000 0.000000 1.816660 
# 
# From -- ./inp_files/64486.got.cif
#   From: 2010.03.12/outbox.cif.g09.slc.cpg/sg66_33_cif.got.tgz:64486.got - 2010.04.10 21:57:39.
