data_PCOD8276666
_publ_section_title
;
Structure prediction by ZEFSAII (Michael W. Deem and Ramdas Pophale) SiO2 
 PCOD8276666
Probable space group: C C C M
;
_chemical_formula_sum "Si O2"
_cell_formula_units_Z 80
_cell_length_a 24.120947
_cell_length_b 12.621579
_cell_length_c 13.780470
_cell_angle_alpha 90.000000
_cell_angle_beta 90.000000
_cell_angle_gamma 90.000000
_cell_volume 4195.387446
_symmetry_space_group_name_H-M "C C C M"
_symmetry_group_IT_number 66
_symmetry_cell_setting 'orthorhombic'
loop_
_space_group_symop_operation_xyz
x,y,z
-x,-y,z
x,-y,1/2-z
-x,y,1/2-z
-x,-y,-z
x,y,-z
-x,y,1/2+z
x,-y,1/2+z
1/2+x,1/2+y,z
1/2-x,1/2-y,z
1/2+x,1/2-y,1/2-z
1/2-x,1/2+y,1/2-z
1/2-x,1/2-y,-z
1/2+x,1/2+y,-z
1/2-x,1/2+y,1/2+z
1/2+x,1/2-y,1/2+z
loop_
_atom_site_type_symbol
_atom_site_label
_atom_site_fract_x
_atom_site_fract_y
_atom_site_fract_z
Si Si1 0.695431 0.818540 0.757832
Si Si2 0.673169 0.993313 0.608470
Si Si3 0.922347 0.764404 0.767963
Si Si4 0.445557 0.065963 0.109325
Si Si5 0.000744 0.877081 0.112070
O O1 0.750000 0.750000 0.763790
O O2 0.691838 0.891741 0.852877
O O3 0.643498 0.737428 0.750062
O O4 0.699014 0.894860 0.665111
O O5 0.695505 0.983886 0.500000
O O6 0.606539 0.985898 0.616251
O O7 0.942089 0.648444 0.802426
O O8 0.954400 0.807359 0.672376
O O9 0.938776 0.840259 0.858257
O O10 0.500000 0.000000 0.128021
O O11 0.446335 0.117468 0.000000
O O12 0.013708 0.856718 0.000000
O O13 0.000000 0.000000 0.138951
#
# Coordination Sequence:
#
# PCOD8276666 Si02
#       5
#    16  16  16  16  16
#     4  10  22  40  59  84 115 151 194 239 278 332
#     4   9  20  39  58  85 119 148 185 234 283 333
#     4  10  20  36  61  84 111 152 192 226 286 336
#     4   9  18  32  57  90 121 148 176 219 280 348
#     4  10  22  40  57  83 119 148 187 239 285 337
#
# _framework density 19.068560000000002
#
# number of rings (size 3 to 8) (size 9 to 14) (size 15 to 20)
#    0.000    2.400    0.000    1.800    5.600    2.400 
#    7.200    0.000    0.000    0.600    0.000    0.000 
#    0.000    0.000    0.000    0.000    0.000    0.000 
#
# Total GULP energy -495731.484806 kJ/mol
# GULP energy per Si atom -12393.287120 kJ/mol
# Density = 1.902516 g / cm^3
# Si number density = 19.068560 Si / 1000 Ang^3
#
#
#
# Elastic Constant Matrix: (Units=GPa)
#
#
# Indices 1 2 3 4 5 6 
#
# 1 140.6723 64.2149 46.2178 0.0000 0.0000 0.0000
# 2 64.2149 58.5746 15.0233 0.0000 0.0000 0.0000
# 3 46.2178 15.0233 103.5953 0.0000 0.0000 0.0000
# 4 0.0000 0.0000 0.0000 17.0451 0.0000 0.0000
# 5 0.0000 0.0000 0.0000 0.0000 14.4751 0.0000
# 6 0.0000 0.0000 0.0000 0.0000 0.0000 34.2254
#
#
#
# Elastic Compliance Matrix: (Units=1/GPa)
#
#
# Indices 1 2 3 4 5 6 
#
# 1 0.016286 -0.016609 -0.004857 0.000000 0.000000 0.000000
# 2 -0.016609 0.034669 0.002382 0.000000 0.000000 0.000000
# 3 -0.004857 0.002382 0.011475 0.000000 0.000000 0.000000
# 4 0.000000 0.000000 0.000000 0.058668 0.000000 0.000000
# 5 0.000000 0.000000 0.000000 0.000000 0.069084 0.000000
# 6 0.000000 0.000000 0.000000 0.000000 0.000000 0.029218
#
#
# Mechanical properties :
#
#
# Convention : Reuss Voigt Hill
#
# Bulk Modulus (GPa) = 41.21652 61.52826 51.37239
# Shear Modulus (GPa) = 18.82140 24.97486 21.89813
#
# Velocity S-wave (km/s) = 3.14512 3.62296 3.39247
# Velocity P-wave (km/s) = 5.90347 7.05961 6.50726
#
# Compressibility (1/GPa) = 0.02426211
#
# Stress axis : x y z
#
# Youngs Moduli (GPa) = 61.40175 28.84406 87.14944
#
# Poissons Ratio (x) = 0.47906 0.42331
# Poissons Ratio (y) = 1.01980 -0.20759
# Poissons Ratio (z) = 0.29825 -0.06871
#
# Static dielectric constant tensor:
#      x y z
#    x 3.372790 0.000000 0.000000 
#    y 0.000000 3.446870 0.000000 
#    z 0.000000 0.000000 3.750810 
# 
# 
# High freq. dielectric constant tensor:
#      x y z
#    x 1.719200 0.000000 0.000000 
#    y 0.000000 1.737590 0.000000 
#    z 0.000000 0.000000 1.757130 
# 
# From -- ./inp_files/26428.got.cif
#   From: 2010.03.12/outbox.cif.g09.slc.cpg/sg66_14_cif.got.tgz:26428.got - 2010.04.10 21:57:39.
