data_PCOD8276654
_publ_section_title
;
Structure prediction by ZEFSAII (Michael W. Deem and Ramdas Pophale) SiO2 
 PCOD8276654
Probable space group: C C C M
;
_chemical_formula_sum "Si O2"
_cell_formula_units_Z 96
_cell_length_a 20.516574
_cell_length_b 13.853033
_cell_length_c 16.170659
_cell_angle_alpha 90.000000
_cell_angle_beta 90.000000
_cell_angle_gamma 90.000000
_cell_volume 4595.972578
_symmetry_space_group_name_H-M "C C C M"
_symmetry_group_IT_number 66
_symmetry_cell_setting 'orthorhombic'
loop_
_space_group_symop_operation_xyz
x,y,z
-x,-y,z
x,-y,1/2-z
-x,y,1/2-z
-x,-y,-z
x,y,-z
-x,y,1/2+z
x,-y,1/2+z
1/2+x,1/2+y,z
1/2-x,1/2-y,z
1/2+x,1/2-y,1/2-z
1/2-x,1/2+y,1/2-z
1/2-x,1/2-y,-z
1/2+x,1/2+y,-z
1/2-x,1/2+y,1/2+z
1/2+x,1/2-y,1/2+z
loop_
_atom_site_type_symbol
_atom_site_label
_atom_site_fract_x
_atom_site_fract_y
_atom_site_fract_z
Si Si1 0.510666 0.303035 0.598592
Si Si2 0.528055 0.905983 0.095409
Si Si3 0.398102 0.427379 0.320698
Si Si4 0.158738 0.426642 0.819998
Si Si5 0.146365 0.209730 0.809082
Si Si6 0.789396 0.946222 0.096686
O O1 0.521334 0.315263 0.500000
O O2 0.490785 0.192518 0.623013
O O3 0.458440 0.381638 0.628938
O O4 0.577906 0.315139 0.646537
O O5 0.605091 0.906349 0.109894
O O6 0.500000 0.000000 0.142877
O O7 0.514407 0.916222 0.000000
O O8 0.424830 0.500000 0.250000
O O9 0.355431 0.343084 0.279454
O O10 0.349191 0.482835 0.382147
O O11 0.133015 0.500000 0.750000
O O12 0.168715 0.317864 0.786198
O O13 0.222202 0.477809 0.859080
O O14 0.198861 0.162140 0.870391
O O15 0.777969 0.945288 0.000000
#
# Coordination Sequence:
#
# PCOD8276654 Si02
#       6
#    16  16  16  16  16  16
#     4  10  20  36  60  88 121 158 199 245 297 357
#     4   9  20  38  60  87 118 153 196 246 296 352
#     4  10  22  39  59  88 127 162 200 250 307 365
#     4  11  23  38  61  89 118 156 199 251 300 357
#     4  10  22  38  59  88 120 158 202 246 300 356
#     4  11  23  40  62  86 117 159 205 251 301 360
#
# _framework density 20.887851999999999
#
# number of rings (size 3 to 8) (size 9 to 14) (size 15 to 20)
#    0.000    1.833    0.000    4.000    2.333    7.667 
#    0.000    4.167    0.000    1.000    0.000    0.000 
#    0.000    0.000    0.000    0.000    0.000    0.000 
#
# Total GULP energy -594688.580714 kJ/mol
# GULP energy per Si atom -12389.345432 kJ/mol
# Density = 2.084031 g / cm^3
# Si number density = 20.887852 Si / 1000 Ang^3
#
#
#
# Elastic Constant Matrix: (Units=GPa)
#
#
# Indices 1 2 3 4 5 6 
#
# 1 79.5545 39.1910 10.9314 0.0000 0.0000 0.0000
# 2 39.1910 126.7320 33.8791 0.0000 0.0000 0.0000
# 3 10.9314 33.8791 64.8498 0.0000 0.0000 0.0000
# 4 0.0000 0.0000 0.0000 20.1181 0.0000 0.0000
# 5 0.0000 0.0000 0.0000 0.0000 24.3192 0.0000
# 6 0.0000 0.0000 0.0000 0.0000 0.0000 17.1989
#
#
#
# Elastic Compliance Matrix: (Units=1/GPa)
#
#
# Indices 1 2 3 4 5 6 
#
# 1 0.014830 -0.004554 -0.000121 0.000000 0.000000 0.000000
# 2 -0.004554 0.010570 -0.004754 0.000000 0.000000 0.000000
# 3 -0.000121 -0.004754 0.017924 0.000000 0.000000 0.000000
# 4 0.000000 0.000000 0.000000 0.049707 0.000000 0.000000
# 5 0.000000 0.000000 0.000000 0.000000 0.041120 0.000000
# 6 0.000000 0.000000 0.000000 0.000000 0.000000 0.058143
#
#
# Mechanical properties :
#
#
# Convention : Reuss Voigt Hill
#
# Bulk Modulus (GPa) = 40.87246 48.79326 44.83286
# Shear Modulus (GPa) = 22.79907 24.80287 23.80097
#
# Velocity S-wave (km/s) = 3.30737 3.44965 3.37926
# Velocity P-wave (km/s) = 5.84765 6.26715 6.06103
#
# Compressibility (1/GPa) = 0.02446635
#
# Stress axis : x y z
#
# Youngs Moduli (GPa) = 67.43121 94.60865 55.78985
#
# Poissons Ratio (x) = 0.43083 0.00674
# Poissons Ratio (y) = 0.30707 0.26524
# Poissons Ratio (z) = 0.00815 0.44980
#
# Static dielectric constant tensor:
#      x y z
#    x 3.704180 0.000000 0.000000 
#    y 0.000000 4.200260 0.000000 
#    z 0.000000 0.000000 3.631550 
# 
# 
# High freq. dielectric constant tensor:
#      x y z
#    x 1.811600 0.000000 0.000000 
#    y 0.000000 1.835630 0.000000 
#    z 0.000000 0.000000 1.806960 
# 
# From -- ./inp_files/28301.got.cif
#   From: 2010.03.12/outbox.cif.g09.slc.cpg/sg66_15_cif.got.tgz:28301.got - 2010.04.10 21:57:39.
