data_PCOD8276738
_publ_section_title
;
Structure prediction by ZEFSAII (Michael W. Deem and Ramdas Pophale) SiO2 
 PCOD8276738
Probable space group: C C C M
;
_chemical_formula_sum "Si O2"
_cell_formula_units_Z 96
_cell_length_a 20.374295
_cell_length_b 27.333476
_cell_length_c 8.686279
_cell_angle_alpha 90.000000
_cell_angle_beta 90.000000
_cell_angle_gamma 90.000000
_cell_volume 4837.391411
_symmetry_space_group_name_H-M "C C C M"
_symmetry_group_IT_number 66
_symmetry_cell_setting 'orthorhombic'
loop_
_space_group_symop_operation_xyz
x,y,z
-x,-y,z
x,-y,1/2-z
-x,y,1/2-z
-x,-y,-z
x,y,-z
-x,y,1/2+z
x,-y,1/2+z
1/2+x,1/2+y,z
1/2-x,1/2-y,z
1/2+x,1/2-y,1/2-z
1/2-x,1/2+y,1/2-z
1/2-x,1/2-y,-z
1/2+x,1/2+y,-z
1/2-x,1/2+y,1/2+z
1/2+x,1/2-y,1/2+z
loop_
_atom_site_type_symbol
_atom_site_label
_atom_site_fract_x
_atom_site_fract_y
_atom_site_fract_z
Si Si1 0.684621 0.219559 0.321873
Si Si2 0.818518 0.615331 0.320924
Si Si3 0.568761 0.399018 0.682312
Si Si4 0.430008 0.051805 0.818476
Si Si5 0.305650 0.448478 0.318914
Si Si6 0.932300 0.211796 0.681534
O O1 0.675572 0.204431 0.500000
O O2 0.750000 0.250000 0.297515
O O3 0.687653 0.172166 0.216342
O O4 0.625253 0.252995 0.260872
O O5 0.833975 0.607447 0.500000
O O6 0.877426 0.592959 0.222233
O O7 0.750125 0.590365 0.273709
O O8 0.500000 0.418252 0.750000
O O9 0.566618 0.402755 0.500000
O O10 0.625872 0.433121 0.744901
O O11 0.581526 0.343414 0.739431
O O12 0.500000 0.067649 0.750000
O O13 0.406559 0.000000 0.750000
O O14 0.436768 0.046589 0.000000
O O15 0.282978 0.500000 0.250000
O O16 0.314836 0.453049 0.500000
O O17 0.937468 0.212304 0.500000
O O18 0.000000 0.232142 0.750000
#
# Coordination Sequence:
#
# PCOD8276738 Si02
#       6
#    16  16  16  16  16  16
#     4  10  21  38  59  83 113 151 195 240 289 343
#     4  11  24  40  59  86 118 153 195 242 292 345
#     4  10  20  37  61  87 117 151 189 233 283 339
#     4  11  22  39  63  89 119 154 193 237 288 346
#     4  11  24  40  59  84 114 149 191 237 286 340
#     4   9  19  35  57  84 113 148 186 228 279 335
#
# _framework density 19.845405
#
# number of rings (size 3 to 8) (size 9 to 14) (size 15 to 20)
#    0.000    1.667    0.000    5.000    0.000    8.000 
#    0.000    3.333    0.000    0.000    0.000    0.000 
#    0.000    0.000    0.000    0.000    0.000    0.000 
#
# Total GULP energy -595490.539007 kJ/mol
# GULP energy per Si atom -12406.052896 kJ/mol
# Density = 1.980024 g / cm^3
# Si number density = 19.845405 Si / 1000 Ang^3
#
#
#
# Elastic Constant Matrix: (Units=GPa)
#
#
# Indices 1 2 3 4 5 6 
#
# 1 112.2034 38.4473 38.1834 0.0000 0.0000 0.0000
# 2 38.4473 82.3109 29.2380 0.0000 0.0000 0.0000
# 3 38.1834 29.2380 88.1463 0.0000 0.0000 0.0000
# 4 0.0000 0.0000 0.0000 35.5006 0.0000 0.0000
# 5 0.0000 0.0000 0.0000 0.0000 28.5247 0.0000
# 6 0.0000 0.0000 0.0000 0.0000 0.0000 86.0187
#
#
#
# Elastic Compliance Matrix: (Units=1/GPa)
#
#
# Indices 1 2 3 4 5 6 
#
# 1 0.011560 -0.004104 -0.003646 0.000000 0.000000 0.000000
# 2 -0.004104 0.015229 -0.003273 0.000000 0.000000 0.000000
# 3 -0.003646 -0.003273 0.014010 0.000000 0.000000 0.000000
# 4 0.000000 0.000000 0.000000 0.028169 0.000000 0.000000
# 5 0.000000 0.000000 0.000000 0.000000 0.035057 0.000000
# 6 0.000000 0.000000 0.000000 0.000000 0.000000 0.011625
#
#
# Mechanical properties :
#
#
# Convention : Reuss Voigt Hill
#
# Bulk Modulus (GPa) = 53.33097 54.93312 54.13204
# Shear Modulus (GPa) = 34.73488 41.79494 38.26491
#
# Velocity S-wave (km/s) = 4.18817 4.59412 4.39583
# Velocity P-wave (km/s) = 7.09360 7.47542 7.28701
#
# Compressibility (1/GPa) = 0.01875083
#
# Stress axis : x y z
#
# Youngs Moduli (GPa) = 86.50885 65.66427 71.37779
#
# Poissons Ratio (x) = 0.26951 0.26024
# Poissons Ratio (y) = 0.35506 0.23366
# Poissons Ratio (z) = 0.31541 0.21495
#
# Static dielectric constant tensor:
#      x y z
#    x 3.761460 0.000000 0.000000 
#    y 0.000000 3.647860 0.000000 
#    z 0.000000 0.000000 3.610500 
# 
# 
# High freq. dielectric constant tensor:
#      x y z
#    x 1.788050 0.000000 0.000000 
#    y 0.000000 1.774450 0.000000 
#    z 0.000000 0.000000 1.778360 
# 
# From -- ./inp_files/8008.got.cif
#   From: 2010.03.12/outbox.cif.g09.slc.cpg/sg66_5_cif.got.tgz:8008.got - 2010.04.10 21:57:39.
