data_PCOD8276736
_publ_section_title
;
Structure prediction by ZEFSAII (Michael W. Deem and Ramdas Pophale) SiO2 
 PCOD8276736
Probable space group: C C C M
;
_chemical_formula_sum "Si O2"
_cell_formula_units_Z 96
_cell_length_a 10.128221
_cell_length_b 27.319158
_cell_length_c 18.066661
_cell_angle_alpha 90.000000
_cell_angle_beta 90.000000
_cell_angle_gamma 90.000000
_cell_volume 4998.945186
_symmetry_space_group_name_H-M "C C C M"
_symmetry_group_IT_number 66
_symmetry_cell_setting 'orthorhombic'
loop_
_space_group_symop_operation_xyz
x,y,z
-x,-y,z
x,-y,1/2-z
-x,y,1/2-z
-x,-y,-z
x,y,-z
-x,y,1/2+z
x,-y,1/2+z
1/2+x,1/2+y,z
1/2-x,1/2-y,z
1/2+x,1/2-y,1/2-z
1/2-x,1/2+y,1/2-z
1/2-x,1/2-y,-z
1/2+x,1/2+y,-z
1/2-x,1/2+y,1/2+z
1/2+x,1/2-y,1/2+z
loop_
_atom_site_type_symbol
_atom_site_label
_atom_site_fract_x
_atom_site_fract_y
_atom_site_fract_z
Si Si1 0.731410 0.088389 0.324679
Si Si2 0.504640 0.161056 0.833644
Si Si3 0.751029 0.902274 0.345225
Si Si4 0.516090 0.650457 0.163621
Si Si5 0.151374 0.498377 0.414183
Si Si6 0.899988 0.753085 0.912810
O O1 0.595165 0.115809 0.342133
O O2 0.747161 0.076700 0.238044
O O3 0.850708 0.121348 0.354260
O O4 0.735201 0.037424 0.367845
O O5 0.500000 0.181984 0.750000
O O6 0.650006 0.142532 0.853603
O O7 0.472967 0.203377 0.891258
O O8 0.714173 0.945236 0.401522
O O9 0.894512 0.881659 0.366422
O O10 0.500000 0.661370 0.250000
O O11 0.521140 0.702095 0.122629
O O12 0.161124 0.512233 0.500000
O O13 0.000000 0.500000 0.386880
O O14 0.750000 0.750000 0.882755
O O15 0.902416 0.759795 0.000000
#
# Coordination Sequence:
#
# PCOD8276736 Si02
#       6
#    16  16  16  16  16  16
#     4  10  20  38  63  85 113 153 195 239 288 344
#     4  10  20  37  61  87 113 151 199 242 286 342
#     4  10  22  38  61  88 115 150 194 246 291 337
#     4  10  22  41  61  87 120 152 194 245 293 344
#     4  11  23  37  58  88 120 154 193 241 294 351
#     4  11  23  38  60  88 119 157 196 237 291 357
#
# _framework density 19.204052000000001
#
# number of rings (size 3 to 8) (size 9 to 14) (size 15 to 20)
#    0.000    1.667    3.333    1.000    0.000    4.667 
#    0.000    4.167    0.000    0.000    0.000    0.000 
#    0.000    0.000    0.000    0.000    0.000    0.000 
#
# Total GULP energy -595522.444661 kJ/mol
# GULP energy per Si atom -12406.717597 kJ/mol
# Density = 1.916034 g / cm^3
# Si number density = 19.204052 Si / 1000 Ang^3
#
#
#
# Elastic Constant Matrix: (Units=GPa)
#
#
# Indices 1 2 3 4 5 6 
#
# 1 76.3605 10.8312 23.9090 0.0000 0.0000 0.0000
# 2 10.8312 81.9096 37.7407 0.0000 0.0000 0.0000
# 3 23.9090 37.7407 52.5523 0.0000 0.0000 0.0000
# 4 0.0000 0.0000 0.0000 20.8871 0.0000 0.0000
# 5 0.0000 0.0000 0.0000 0.0000 23.3245 0.0000
# 6 0.0000 0.0000 0.0000 0.0000 0.0000 25.2825
#
#
#
# Elastic Compliance Matrix: (Units=1/GPa)
#
#
# Indices 1 2 3 4 5 6 
#
# 1 0.015444 0.001786 -0.008309 0.000000 0.000000 0.000000
# 2 0.001786 0.018453 -0.014065 0.000000 0.000000 0.000000
# 3 -0.008309 -0.014065 0.032910 0.000000 0.000000 0.000000
# 4 0.000000 0.000000 0.000000 0.047876 0.000000 0.000000
# 5 0.000000 0.000000 0.000000 0.000000 0.042873 0.000000
# 6 0.000000 0.000000 0.000000 0.000000 0.000000 0.039553
#
#
# Mechanical properties :
#
#
# Convention : Reuss Voigt Hill
#
# Bulk Modulus (GPa) = 39.01476 39.53159 39.27318
# Shear Modulus (GPa) = 20.25700 23.12159 21.68930
#
# Velocity S-wave (km/s) = 3.25134 3.47363 3.36432
# Velocity P-wave (km/s) = 5.86983 6.05952 5.96543
#
# Compressibility (1/GPa) = 0.02563133
#
# Stress axis : x y z
#
# Youngs Moduli (GPa) = 64.74969 54.19235 30.38627
#
# Poissons Ratio (x) = -0.09681 0.25249
# Poissons Ratio (y) = -0.11567 0.42737
# Poissons Ratio (z) = 0.53802 0.76220
#
# Static dielectric constant tensor:
#      x y z
#    x 3.629800 0.000000 0.000000 
#    y 0.000000 3.351200 0.000000 
#    z 0.000000 0.000000 3.355230 
# 
# 
# High freq. dielectric constant tensor:
#      x y z
#    x 1.751970 0.000000 0.000000 
#    y 0.000000 1.749990 0.000000 
#    z 0.000000 0.000000 1.737140 
# 
# From -- ./inp_files/38875.got.cif
#   From: 2010.03.12/outbox.cif.g09.slc.cpg/sg66_20_cif.got.tgz:38875.got - 2010.04.10 21:57:39.
