data_PCOD8276114
_publ_section_title
;
Structure prediction by ZEFSAII (Michael W. Deem and Ramdas Pophale) SiO2 
 PCOD8276114
Probable space group: C C C M
;
_chemical_formula_sum "Si O2"
_cell_formula_units_Z 84
_cell_length_a 22.429732
_cell_length_b 14.464640
_cell_length_c 15.455796
_cell_angle_alpha 90.000000
_cell_angle_beta 90.000000
_cell_angle_gamma 90.000000
_cell_volume 5014.447522
_symmetry_space_group_name_H-M "C C C M"
_symmetry_group_IT_number 66
_symmetry_cell_setting 'orthorhombic'
loop_
_space_group_symop_operation_xyz
x,y,z
-x,-y,z
x,-y,1/2-z
-x,y,1/2-z
-x,-y,-z
x,y,-z
-x,y,1/2+z
x,-y,1/2+z
1/2+x,1/2+y,z
1/2-x,1/2-y,z
1/2+x,1/2-y,1/2-z
1/2-x,1/2+y,1/2-z
1/2-x,1/2-y,-z
1/2+x,1/2+y,-z
1/2-x,1/2+y,1/2+z
1/2+x,1/2-y,1/2+z
loop_
_atom_site_type_symbol
_atom_site_label
_atom_site_fract_x
_atom_site_fract_y
_atom_site_fract_z
Si Si1 0.789853 0.110517 0.000000
Si Si2 0.706011 0.529843 0.846600
Si Si3 0.313620 0.280988 0.899138
Si Si4 0.500000 0.000000 0.750000
Si Si5 0.605665 0.918271 0.654904
Si Si6 0.656902 0.187889 0.000000
Si Si7 0.838542 0.402789 0.335420
O O1 0.719631 0.133983 0.000000
O O2 0.830595 0.202620 0.000000
O O3 0.806513 0.052825 0.914010
O O4 0.691845 0.500000 0.750000
O O5 0.664133 0.619776 0.863317
O O6 0.772243 0.567231 0.860632
O O7 0.250000 0.250000 0.858187
O O8 0.357775 0.197417 0.872985
O O9 0.307943 0.291904 0.000000
O O10 0.538667 0.927503 0.692307
O O11 0.616335 0.839843 0.582942
O O12 0.653084 0.899637 0.731814
O O13 0.619440 0.021196 0.618484
#
# Coordination Sequence:
#
# PCOD8276114 Si02
#       7
#     8  16  16   4  16   8  16
#     4  11  22  32  44  77 107 148 185 201 236 330
#     4  11  18  31  44  63 101 142 179 206 241 289
#     4   9  18  26  43  64  88 130 176 210 236 287
#     4   8  20  38  56  72 100 124 184 224 270 302
#     4  10  19  35  51  75  98 132 168 221 258 320
#     4  11  22  31  51  70 110 142 175 203 264 310
#     4   9  17  30  46  65  95 130 168 206 254 292
#
# _framework density 16.751595999999999
#
# number of rings (size 3 to 8) (size 9 to 14) (size 15 to 20)
#    0.000    2.286    4.762    0.000    5.333    0.381 
#    0.000    0.000    0.000    0.000    0.000    0.000 
#    0.000   18.286    0.000    0.000    0.000    0.000 
#
# Total GULP energy -520307.376116 kJ/mol
# GULP energy per Si atom -12388.270860 kJ/mol
# Density = 1.671347 g / cm^3
# Si number density = 16.751596 Si / 1000 Ang^3
#
#
#
# Elastic Constant Matrix: (Units=GPa)
#
#
# Indices 1 2 3 4 5 6 
#
# 1 44.0243 32.0400 18.2491 0.0000 0.0000 0.0000
# 2 32.0400 161.7196 64.2462 0.0000 0.0000 0.0000
# 3 18.2491 64.2462 94.4562 0.0000 0.0000 0.0000
# 4 0.0000 0.0000 0.0000 29.2633 0.0000 0.0000
# 5 0.0000 0.0000 0.0000 0.0000 15.7033 0.0000
# 6 0.0000 0.0000 0.0000 0.0000 0.0000 12.0348
#
#
#
# Elastic Compliance Matrix: (Units=1/GPa)
#
#
# Indices 1 2 3 4 5 6 
#
# 1 0.026857 -0.004466 -0.002151 0.000000 0.000000 0.000000
# 2 -0.004466 0.009216 -0.005405 0.000000 0.000000 0.000000
# 3 -0.002151 -0.005405 0.014679 0.000000 0.000000 0.000000
# 4 0.000000 0.000000 0.000000 0.034173 0.000000 0.000000
# 5 0.000000 0.000000 0.000000 0.000000 0.063681 0.000000
# 6 0.000000 0.000000 0.000000 0.000000 0.000000 0.083093
#
#
# Mechanical properties :
#
#
# Convention : Reuss Voigt Hill
#
# Bulk Modulus (GPa) = 37.44424 58.80788 48.12606
# Shear Modulus (GPa) = 18.89320 23.77791 21.33556
#
# Velocity S-wave (km/s) = 3.36198 3.77164 3.57269
# Velocity P-wave (km/s) = 6.12142 7.35860 6.76834
#
# Compressibility (1/GPa) = 0.02670637
#
# Stress axis : x y z
#
# Youngs Moduli (GPa) = 37.23436 108.50881 68.12427
#
# Poissons Ratio (x) = 0.48465 0.14653
# Poissons Ratio (y) = 0.16631 0.36824
# Poissons Ratio (z) = 0.08009 0.58653
#
# Static dielectric constant tensor:
#      x y z
#    x 2.718950 0.000000 0.000000 
#    y 0.000000 3.610500 0.000000 
#    z 0.000000 0.000000 3.095850 
# 
# 
# High freq. dielectric constant tensor:
#      x y z
#    x 1.574190 0.000000 0.000000 
#    y 0.000000 1.659020 0.000000 
#    z 0.000000 0.000000 1.649220 
# 
# From -- ./inp_files/33270.got.cif
#   From: 2010.03.12/outbox.cif.g09.slc.cpg/sg66_17_cif.got.tgz:33270.got - 2010.04.10 21:57:39.
