data_PCOD8276100
_publ_section_title
;
Structure prediction by ZEFSAII (Michael W. Deem and Ramdas Pophale) SiO2 
 PCOD8276100
Probable space group: C C C M
;
_chemical_formula_sum "Si O2"
_cell_formula_units_Z 80
_cell_length_a 24.353573
_cell_length_b 8.552369
_cell_length_c 18.524910
_cell_angle_alpha 90.000000
_cell_angle_beta 90.000000
_cell_angle_gamma 90.000000
_cell_volume 3858.382014
_symmetry_space_group_name_H-M "C C C M"
_symmetry_group_IT_number 66
_symmetry_cell_setting 'orthorhombic'
loop_
_space_group_symop_operation_xyz
x,y,z
-x,-y,z
x,-y,1/2-z
-x,y,1/2-z
-x,-y,-z
x,y,-z
-x,y,1/2+z
x,-y,1/2+z
1/2+x,1/2+y,z
1/2-x,1/2-y,z
1/2+x,1/2-y,1/2-z
1/2-x,1/2+y,1/2-z
1/2-x,1/2-y,-z
1/2+x,1/2+y,-z
1/2-x,1/2+y,1/2+z
1/2+x,1/2-y,1/2+z
loop_
_atom_site_type_symbol
_atom_site_label
_atom_site_fract_x
_atom_site_fract_y
_atom_site_fract_z
Si Si1 0.203646 0.125125 0.308318
Si Si2 0.872245 0.013878 0.579709
Si Si3 0.603428 0.165778 0.778981
Si Si4 0.963759 0.843676 0.832510
Si Si5 0.444747 0.212807 0.578293
O O1 0.250000 0.250000 0.328853
O O2 0.152385 0.211771 0.271791
O O3 0.226220 0.000000 0.250000
O O4 0.184392 0.041404 0.382438
O O5 0.857880 0.083886 0.500000
O O6 0.903360 0.131945 0.633233
O O7 0.915926 0.877968 0.567828
O O8 0.549670 0.248334 0.742217
O O9 0.589728 0.119810 0.861898
O O10 0.622185 0.000000 0.750000
O O11 0.993915 0.735589 0.891229
O O12 0.000000 0.000000 0.815909
O O13 0.447110 0.126788 0.500000
#
# Coordination Sequence:
#
# PCOD8276100 Si02
#       5
#    16  16  16  16  16
#     4  11  22  39  63  87 112 150 200 253 305 354
#     4   9  18  34  58  89 118 153 199 243 292 353
#     4  11  23  38  58  86 119 158 204 248 292 353
#     4  10  19  34  59  87 121 162 201 239 288 352
#     4   9  19  33  54  83 122 160 196 238 289 349
#
# _framework density 20.734079000000001
#
# number of rings (size 3 to 8) (size 9 to 14) (size 15 to 20)
#    0.000    2.000    2.000    1.800    0.000    8.400 
#    0.000    3.000    0.000    0.600    0.000    0.000 
#    0.000    0.000    0.000    0.000    0.000    0.000 
#
# Total GULP energy -495652.116418 kJ/mol
# GULP energy per Si atom -12391.302910 kJ/mol
# Density = 2.068689 g / cm^3
# Si number density = 20.734079 Si / 1000 Ang^3
#
#
#
# Elastic Constant Matrix: (Units=GPa)
#
#
# Indices 1 2 3 4 5 6 
#
# 1 83.6391 3.4386 32.4726 0.0000 0.0000 0.0000
# 2 3.4386 39.8933 21.8577 0.0000 0.0000 0.0000
# 3 32.4726 21.8577 166.9811 0.0000 0.0000 0.0000
# 4 0.0000 0.0000 0.0000 13.8373 0.0000 0.0000
# 5 0.0000 0.0000 0.0000 0.0000 -432.4090 0.0000
# 6 0.0000 0.0000 0.0000 0.0000 0.0000 26.9449
#
#
#
# Elastic Compliance Matrix: (Units=1/GPa)
#
#
# Indices 1 2 3 4 5 6 
#
# 1 0.012936 0.000284 -0.002553 0.000000 0.000000 0.000000
# 2 0.000284 0.027010 -0.003591 0.000000 0.000000 0.000000
# 3 -0.002553 -0.003591 0.006955 0.000000 0.000000 0.000000
# 4 0.000000 0.000000 0.000000 0.072268 0.000000 0.000000
# 5 0.000000 0.000000 0.000000 0.000000 -0.002313 0.000000
# 6 0.000000 0.000000 0.000000 0.000000 0.000000 0.037113
#
#
# Mechanical properties :
#
#
# Convention : Reuss Voigt Hill
#
# Bulk Modulus (GPa) = 28.42448 45.11680 36.77064
# Shear Modulus (GPa) = 28.18246 -62.80904 -17.31329
#
# Velocity S-wave (km/s) = 3.69078 -5.50985 -2.89280
# Velocity P-wave (km/s) = 5.64812 4.32099 2.57200
#
# Compressibility (1/GPa) = 0.03518094
#
# Stress axis : x y z
#
# Youngs Moduli (GPa) = 77.30645 37.02366 143.77855
#
# Poissons Ratio (x) = -0.01050 0.36702
# Poissons Ratio (y) = -0.02193 0.51627
# Poissons Ratio (z) = 0.19734 0.13294
#
# Static dielectric constant tensor:
#      x y z
#    x 3.547050 0.000000 0.000000 
#    y 0.000000 3.381440 0.000000 
#    z 0.000000 0.000000 4.366860 
# 
# 
# High freq. dielectric constant tensor:
#      x y z
#    x 1.791980 0.000000 0.000000 
#    y 0.000000 1.773500 0.000000 
#    z 0.000000 0.000000 1.829040 
# 
# From -- ./inp_files/44096.got.cif
#   From: 2010.03.12/outbox.cif.g09.slc.cpg/sg66_23_cif.got.tgz:44096.got - 2010.04.10 21:57:39.
