data_PCOD8276675
_publ_section_title
;
Structure prediction by ZEFSAII (Michael W. Deem and Ramdas Pophale) SiO2 
 PCOD8276675
Probable space group: C C C M
;
_chemical_formula_sum "Si O2"
_cell_formula_units_Z 116
_cell_length_a 28.173564
_cell_length_b 22.685977
_cell_length_c 9.064973
_cell_angle_alpha 90.000000
_cell_angle_beta 90.000000
_cell_angle_gamma 90.000000
_cell_volume 5793.830581
_symmetry_space_group_name_H-M "C C C M"
_symmetry_group_IT_number 66
_symmetry_cell_setting 'orthorhombic'
loop_
_space_group_symop_operation_xyz
x,y,z
-x,-y,z
x,-y,1/2-z
-x,y,1/2-z
-x,-y,-z
x,y,-z
-x,y,1/2+z
x,-y,1/2+z
1/2+x,1/2+y,z
1/2-x,1/2-y,z
1/2+x,1/2-y,1/2-z
1/2-x,1/2+y,1/2-z
1/2-x,1/2-y,-z
1/2+x,1/2+y,-z
1/2-x,1/2+y,1/2+z
1/2+x,1/2-y,1/2+z
loop_
_atom_site_type_symbol
_atom_site_label
_atom_site_fract_x
_atom_site_fract_y
_atom_site_fract_z
Si Si1 0.953393 0.235075 0.328229
Si Si2 0.224287 0.310444 0.659437
Si Si3 0.428363 0.602112 0.663647
Si Si4 0.616707 0.822302 0.329679
Si Si5 0.500000 0.500000 0.750000
Si Si6 0.845005 0.943418 0.673548
Si Si7 0.358341 0.940829 0.674738
Si Si8 0.250257 0.914604 0.331296
O O1 0.953993 0.250801 0.500000
O O2 0.952946 0.164553 0.302465
O O3 0.911335 0.271123 0.252802
O O4 0.000000 0.260077 0.250000
O O5 0.231906 0.343229 0.500000
O O6 0.250000 0.250000 0.654990
O O7 0.169479 0.297963 0.682898
O O8 0.246987 0.345598 0.795084
O O9 0.406517 0.602572 0.500000
O O10 0.465180 0.546329 0.666340
O O11 0.383534 0.604761 0.776357
O O12 0.600232 0.829770 0.500000
O O13 0.614190 0.885715 0.247651
O O14 0.843775 0.948035 0.500000
O O15 0.791035 0.940156 0.729575
O O16 0.868526 0.000000 0.750000
O O17 0.367807 0.940679 0.500000
O O18 0.301826 0.940542 0.709354
O O19 0.378939 0.000000 0.750000
O O20 0.236309 0.925307 0.500000
#
# Coordination Sequence:
#
# PCOD8276675 Si02
#       8
#    16  16  16  16   4  16  16  16
#     4  11  24  43  65  92 123 157 203 255 313 373
#     4   9  19  35  54  81 116 159 205 249 299 358
#     4  11  25  42  63  90 118 154 201 256 314 373
#     4  10  21  38  61  90 125 163 206 253 306 368
#     4  12  22  44  72  90 118 156 204 264 318 376
#     4  12  25  39  57  81 114 153 197 248 304 361
#     4  10  20  36  61  92 125 164 205 250 301 360
#     4  10  21  36  55  82 118 158 202 248 298 356
#
# _framework density 20.021297000000001
#
# number of rings (size 3 to 8) (size 9 to 14) (size 15 to 20)
#    0.000    1.517    1.379    3.517    1.931    5.241 
#    0.000    0.000    0.000    0.414    0.000    2.897 
#    0.000    0.000    0.000    0.000    0.000    0.000 
#
# Total GULP energy -718597.974807 kJ/mol
# GULP energy per Si atom -12389.620255 kJ/mol
# Density = 1.997573 g / cm^3
# Si number density = 20.021297 Si / 1000 Ang^3
#
#
#
# Elastic Constant Matrix: (Units=GPa)
#
#
# Indices 1 2 3 4 5 6 
#
# 1 52.6109 44.2190 45.1393 0.0000 0.0000 0.0000
# 2 44.2190 113.3730 59.5757 0.0000 0.0000 0.0000
# 3 45.1393 59.5757 153.8297 0.0000 0.0000 0.0000
# 4 0.0000 0.0000 0.0000 43.5058 0.0000 0.0000
# 5 0.0000 0.0000 0.0000 0.0000 32.8380 0.0000
# 6 0.0000 0.0000 0.0000 0.0000 0.0000 37.8943
#
#
#
# Elastic Compliance Matrix: (Units=1/GPa)
#
#
# Indices 1 2 3 4 5 6 
#
# 1 0.031798 -0.009415 -0.005684 0.000000 0.000000 0.000000
# 2 -0.009415 0.013862 -0.002606 0.000000 0.000000 0.000000
# 3 -0.005684 -0.002606 0.009178 0.000000 0.000000 0.000000
# 4 0.000000 0.000000 0.000000 0.022985 0.000000 0.000000
# 5 0.000000 0.000000 0.000000 0.000000 0.030453 0.000000
# 6 0.000000 0.000000 0.000000 0.000000 0.000000 0.026389
#
#
# Mechanical properties :
#
#
# Convention : Reuss Voigt Hill
#
# Bulk Modulus (GPa) = 51.47424 68.63131 60.05278
# Shear Modulus (GPa) = 28.32043 34.23958 31.28001
#
# Velocity S-wave (km/s) = 3.76508 4.13989 3.95693
# Velocity P-wave (km/s) = 6.68332 7.56341 7.13694
#
# Compressibility (1/GPa) = 0.01942719
#
# Stress axis : x y z
#
# Youngs Moduli (GPa) = 31.44866 72.14016 108.95797
#
# Poissons Ratio (x) = 0.67921 0.61935
# Poissons Ratio (y) = 0.29609 0.28392
# Poissons Ratio (z) = 0.17877 0.18798
#
# Static dielectric constant tensor:
#      x y z
#    x 3.356550 0.000000 0.000000 
#    y 0.000000 3.711110 0.000000 
#    z 0.000000 0.000000 3.931090 
# 
# 
# High freq. dielectric constant tensor:
#      x y z
#    x 1.769020 0.000000 0.000000 
#    y 0.000000 1.780260 0.000000 
#    z 0.000000 0.000000 1.792880 
# 
# From -- ./inp_files/10597.got.cif
#   From: 2010.03.12/outbox.cif.g09.slc.cpg/sg66_6_cif.got.tgz:10597.got - 2010.04.10 21:57:39.
