data_PCOD8276129
_publ_section_title
;
Structure prediction by ZEFSAII (Michael W. Deem and Ramdas Pophale) SiO2 
 PCOD8276129
Probable space group: C C C M
;
_chemical_formula_sum "Si O2"
_cell_formula_units_Z 88
_cell_length_a 8.959331
_cell_length_b 25.923993
_cell_length_c 22.296881
_cell_angle_alpha 90.000000
_cell_angle_beta 90.000000
_cell_angle_gamma 90.000000
_cell_volume 5178.710017
_symmetry_space_group_name_H-M "C C C M"
_symmetry_group_IT_number 66
_symmetry_cell_setting 'orthorhombic'
loop_
_space_group_symop_operation_xyz
x,y,z
-x,-y,z
x,-y,1/2-z
-x,y,1/2-z
-x,-y,-z
x,y,-z
-x,y,1/2+z
x,-y,1/2+z
1/2+x,1/2+y,z
1/2-x,1/2-y,z
1/2+x,1/2-y,1/2-z
1/2-x,1/2+y,1/2-z
1/2-x,1/2-y,-z
1/2+x,1/2+y,-z
1/2-x,1/2+y,1/2+z
1/2+x,1/2-y,1/2+z
loop_
_atom_site_type_symbol
_atom_site_label
_atom_site_fract_x
_atom_site_fract_y
_atom_site_fract_z
Si Si1 0.500000 0.864397 0.750000
Si Si2 0.584898 0.253789 0.068232
Si Si3 0.655718 0.200027 0.646162
Si Si4 0.981204 0.058240 0.348037
Si Si5 0.900829 0.854294 0.068691
Si Si6 0.758403 0.058901 0.755192
O O1 0.422480 0.828074 0.701325
O O2 0.372870 0.902577 0.774252
O O3 0.750000 0.250000 0.096674
O O4 0.475867 0.216006 0.102463
O O5 0.530344 0.312195 0.073127
O O6 0.587691 0.234330 0.000000
O O7 0.750000 0.250000 0.668686
O O8 0.760194 0.161479 0.609068
O O9 0.122640 0.069360 0.306826
O O10 0.974658 0.093408 0.406890
O O11 0.832514 0.070216 0.309411
O O12 0.000000 0.000000 0.370971
O O13 0.848287 0.861873 0.000000
O O14 0.700979 0.000000 0.750000
#
# Coordination Sequence:
#
# PCOD8276129 Si02
#       6
#     8  16  16  16  16  16
#     4  12  21  34  56  80 104 144 173 222 268 308
#     4   9  19  35  55  76 101 137 179 218 257 308
#     4  10  22  37  49  78 110 142 176 214 267 317
#     4   9  18  35  55  80 108 136 172 223 268 313
#     4  10  19  35  57  78 106 145 180 213 261 323
#     4   9  19  35  56  79 106 137 177 219 267 321
#
# _framework density 16.992650000000001
#
# number of rings (size 3 to 8) (size 9 to 14) (size 15 to 20)
#    0.000    2.364    1.818    1.909    2.545    3.273 
#    3.273    0.000    0.000    0.000    0.000    2.545 
#    0.000    0.000    0.000    0.000    0.000    0.000 
#
# Total GULP energy -545381.381712 kJ/mol
# GULP energy per Si atom -12395.031403 kJ/mol
# Density = 1.695397 g / cm^3
# Si number density = 16.992650 Si / 1000 Ang^3
#
#
#
# Elastic Constant Matrix: (Units=GPa)
#
#
# Indices 1 2 3 4 5 6 
#
# 1 109.7366 58.3694 42.9575 0.0000 0.0000 0.0000
# 2 58.3694 106.5669 66.0212 0.0000 0.0000 0.0000
# 3 42.9575 66.0212 95.0921 0.0000 0.0000 0.0000
# 4 0.0000 0.0000 0.0000 -9.7062 0.0000 0.0000
# 5 0.0000 0.0000 0.0000 0.0000 27.2589 0.0000
# 6 0.0000 0.0000 0.0000 0.0000 0.0000 26.7958
#
#
#
# Elastic Compliance Matrix: (Units=1/GPa)
#
#
# Indices 1 2 3 4 5 6 
#
# 1 0.013002 -0.006111 -0.001631 0.000000 0.000000 0.000000
# 2 -0.006111 0.019339 -0.010666 0.000000 0.000000 0.000000
# 3 -0.001631 -0.010666 0.018658 0.000000 0.000000 0.000000
# 4 0.000000 0.000000 0.000000 -0.103027 0.000000 0.000000
# 5 0.000000 0.000000 0.000000 0.000000 0.036685 0.000000
# 6 0.000000 0.000000 0.000000 0.000000 0.000000 0.037319
#
#
# Mechanical properties :
#
#
# Convention : Reuss Voigt Hill
#
# Bulk Modulus (GPa) = 70.50678 71.78797 71.14737
# Shear Modulus (GPa) = 78.71612 18.47286 48.59449
#
# Velocity S-wave (km/s) = 6.81353 3.30071 5.35345
# Velocity P-wave (km/s) = 10.17259 7.54085 8.95394
#
# Compressibility (1/GPa) = 0.01418303
#
# Stress axis : x y z
#
# Youngs Moduli (GPa) = 76.91390 51.70914 53.59617
#
# Poissons Ratio (x) = 0.31600 0.08739
# Poissons Ratio (y) = 0.47003 0.57166
# Poissons Ratio (z) = 0.12541 0.55153
#
# Static dielectric constant tensor:
#      x y z
#    x 3.288110 0.000000 0.000000 
#    y 0.000000 3.203500 0.000000 
#    z 0.000000 0.000000 3.089510 
# 
# 
# High freq. dielectric constant tensor:
#      x y z
#    x 1.662200 0.000000 0.000000 
#    y 0.000000 1.658920 0.000000 
#    z 0.000000 0.000000 1.641990 
# 
# From -- ./inp_files/37188.got.cif
#   From: 2010.03.12/outbox.cif.g09.slc.cpg/sg66_19_cif.got.tgz:37188.got - 2010.04.10 21:57:39.
