data_PCOD8276218
_publ_section_title
;
Structure prediction by ZEFSAII (Michael W. Deem and Ramdas Pophale) SiO2 
 PCOD8276218
Probable space group: C C C M
;
_chemical_formula_sum "Si O2"
_cell_formula_units_Z 96
_cell_length_a 28.870980
_cell_length_b 20.238027
_cell_length_c 8.486754
_cell_angle_alpha 90.000000
_cell_angle_beta 90.000000
_cell_angle_gamma 90.000000
_cell_volume 4958.739691
_symmetry_space_group_name_H-M "C C C M"
_symmetry_group_IT_number 66
_symmetry_cell_setting 'orthorhombic'
loop_
_space_group_symop_operation_xyz
x,y,z
-x,-y,z
x,-y,1/2-z
-x,y,1/2-z
-x,-y,-z
x,y,-z
-x,y,1/2+z
x,-y,1/2+z
1/2+x,1/2+y,z
1/2-x,1/2-y,z
1/2+x,1/2-y,1/2-z
1/2-x,1/2+y,1/2-z
1/2-x,1/2-y,-z
1/2+x,1/2+y,-z
1/2-x,1/2+y,1/2+z
1/2+x,1/2-y,1/2+z
loop_
_atom_site_type_symbol
_atom_site_label
_atom_site_fract_x
_atom_site_fract_y
_atom_site_fract_z
Si Si1 0.948877 0.829326 0.186721
Si Si2 0.131299 0.926569 0.685545
Si Si3 0.307332 0.801623 0.184486
Si Si4 0.217072 0.162624 0.813076
Si Si5 0.949914 0.434372 0.819472
Si Si6 0.593764 0.190928 0.682207
O O1 0.911763 0.883062 0.251817
O O2 0.931869 0.757191 0.243389
O O3 0.000000 0.845648 0.250000
O O4 0.949942 0.831819 0.000000
O O5 0.127559 0.929459 0.500000
O O6 0.180667 0.894497 0.734577
O O7 0.127924 0.000000 0.750000
O O8 0.269763 0.853953 0.257990
O O9 0.292522 0.726124 0.206218
O O10 0.351946 0.805909 0.293845
O O11 0.316360 0.816971 0.000000
O O12 0.214282 0.177952 0.000000
O O13 0.925381 0.500000 0.750000
O O14 0.921031 0.369429 0.789302
O O15 0.000000 0.423167 0.750000
O O16 0.955466 0.447700 0.000000
O O17 0.581799 0.178395 0.500000
#
# Coordination Sequence:
#
# PCOD8276218 Si02
#       6
#    16  16  16  16  16  16
#     4  10  22  39  58  84 116 152 198 247 298 353
#     4  10  22  40  60  84 115 156 200 245 298 358
#     4  11  21  33  56  90 118 143 187 238 287 345
#     4  10  19  37  59  81 113 152 190 231 289 351
#     4  11  22  38  58  84 115 154 197 238 288 348
#     4  11  21  38  60  85 119 157 195 242 296 351
#
# _framework density 19.359757999999999
#
# number of rings (size 3 to 8) (size 9 to 14) (size 15 to 20)
#    0.000    1.500    1.667    6.000    0.000    5.000 
#    0.000    2.500    0.000    2.000    0.000    0.000 
#    0.000    0.000    0.000    0.000    0.000    0.000 
#
# Total GULP energy -594985.681826 kJ/mol
# GULP energy per Si atom -12395.535038 kJ/mol
# Density = 1.931569 g / cm^3
# Si number density = 19.359758 Si / 1000 Ang^3
#
#
#
# Elastic Constant Matrix: (Units=GPa)
#
#
# Indices 1 2 3 4 5 6 
#
# 1 105.2873 45.7730 11.8284 0.0000 0.0000 0.0000
# 2 45.7730 112.3709 14.5684 0.0000 0.0000 0.0000
# 3 11.8284 14.5684 68.6345 0.0000 0.0000 0.0000
# 4 0.0000 0.0000 0.0000 30.7575 0.0000 0.0000
# 5 0.0000 0.0000 0.0000 0.0000 29.4213 0.0000
# 6 0.0000 0.0000 0.0000 0.0000 0.0000 -22.8304
#
#
#
# Elastic Compliance Matrix: (Units=1/GPa)
#
#
# Indices 1 2 3 4 5 6 
#
# 1 0.011611 -0.004597 -0.001025 0.000000 0.000000 0.000000
# 2 -0.004597 0.010971 -0.001536 0.000000 0.000000 0.000000
# 3 -0.001025 -0.001536 0.015073 0.000000 0.000000 0.000000
# 4 0.000000 0.000000 0.000000 0.032512 0.000000 0.000000
# 5 0.000000 0.000000 0.000000 0.000000 0.033989 0.000000
# 6 0.000000 0.000000 0.000000 0.000000 0.000000 -0.043801
#
#
# Mechanical properties :
#
#
# Convention : Reuss Voigt Hill
#
# Bulk Modulus (GPa) = 42.84920 47.84801 45.34860
# Shear Modulus (GPa) = 60.64146 21.74452 41.19299
#
# Velocity S-wave (km/s) = 5.60281 3.35503 4.61777
# Velocity P-wave (km/s) = 8.00228 6.30691 7.20464
#
# Compressibility (1/GPa) = 0.02333766
#
# Stress axis : x y z
#
# Youngs Moduli (GPa) = 86.12172 91.15129 66.34476
#
# Poissons Ratio (x) = 0.41901 0.06803
# Poissons Ratio (y) = 0.39589 0.10193
# Poissons Ratio (z) = 0.08831 0.14005
#
# Static dielectric constant tensor:
#      x y z
#    x 2.589910 0.000000 0.000000 
#    y 0.000000 4.103900 0.000000 
#    z 0.000000 0.000000 3.325910 
# 
# 
# High freq. dielectric constant tensor:
#      x y z
#    x 1.765000 0.000000 0.000000 
#    y 0.000000 1.738580 0.000000 
#    z 0.000000 0.000000 1.755850 
# 
# From -- ./inp_files/7990.got.cif
#   From: 2010.03.12/outbox.cif.g09.slc.cpg/sg66_4_cif.got.tgz:7990.got - 2010.04.10 21:57:39.
