data_PCOD8276579
_publ_section_title
;
Structure prediction by ZEFSAII (Michael W. Deem and Ramdas Pophale) SiO2 
 PCOD8276579
Probable space group: C C C M
;
_chemical_formula_sum "Si O2"
_cell_formula_units_Z 112
_cell_length_a 14.867491
_cell_length_b 23.729463
_cell_length_c 17.245239
_cell_angle_alpha 90.000000
_cell_angle_beta 90.000000
_cell_angle_gamma 90.000000
_cell_volume 6084.078544
_symmetry_space_group_name_H-M "C C C M"
_symmetry_group_IT_number 66
_symmetry_cell_setting 'orthorhombic'
loop_
_space_group_symop_operation_xyz
x,y,z
-x,-y,z
x,-y,1/2-z
-x,y,1/2-z
-x,-y,-z
x,y,-z
-x,y,1/2+z
x,-y,1/2+z
1/2+x,1/2+y,z
1/2-x,1/2-y,z
1/2+x,1/2-y,1/2-z
1/2-x,1/2+y,1/2-z
1/2-x,1/2-y,-z
1/2+x,1/2+y,-z
1/2-x,1/2+y,1/2+z
1/2+x,1/2-y,1/2+z
loop_
_atom_site_type_symbol
_atom_site_label
_atom_site_fract_x
_atom_site_fract_y
_atom_site_fract_z
Si Si1 0.090666 0.685885 0.298585
Si Si2 0.294091 0.872698 0.408036
Si Si3 0.362320 0.307887 0.160168
Si Si4 0.742828 0.687405 0.310184
Si Si5 0.328406 0.589886 0.911490
Si Si6 0.020757 0.089840 0.839152
Si Si7 0.694729 0.521040 0.837741
O O1 0.108563 0.641035 0.368682
O O2 0.097300 0.745345 0.344300
O O3 0.166171 0.675158 0.234879
O O4 0.000000 0.677274 0.250000
O O5 0.303538 0.883569 0.500000
O O6 0.227665 0.818969 0.391514
O O7 0.257024 0.926982 0.362104
O O8 0.340170 0.317677 0.250716
O O9 0.437145 0.351469 0.131128
O O10 0.750000 0.750000 0.347259
O O11 0.725852 0.641269 0.374696
O O12 0.430824 0.580936 0.886495
O O13 0.279112 0.531163 0.892595
O O14 0.324757 0.604142 0.000000
O O15 0.090601 0.038559 0.851190
O O16 0.000000 0.094775 0.750000
O O17 0.711036 0.500000 0.750000
#
# Coordination Sequence:
#
# PCOD8276579 Si02
#       7
#    16  16  16  16  16  16  16
#     4  10  20  35  61  86 105 147 201 245 280 346
#     4  10  21  37  56  86 123 150 188 247 302 342
#     4   9  18  33  59  81 111 155 193 224 276 344
#     4   9  19  37  58  79 105 147 194 234 278 336
#     4  12  24  35  53  83 118 153 188 231 284 343
#     4  11  19  32  55  83 118 155 185 225 267 339
#     4  11  21  36  60  82 111 158 197 229 279 348
#
# _framework density 18.408702999999999
#
# number of rings (size 3 to 8) (size 9 to 14) (size 15 to 20)
#    0.000    1.714    2.857    4.286    2.000    4.857 
#    0.000    0.714    0.000    3.857    0.000    5.000 
#    0.000    0.000    0.000    0.000    0.000    0.000 
#
# Total GULP energy -693992.742456 kJ/mol
# GULP energy per Si atom -12392.727544 kJ/mol
# Density = 1.836680 g / cm^3
# Si number density = 18.408703 Si / 1000 Ang^3
#
#
#
# Elastic Constant Matrix: (Units=GPa)
#
#
# Indices 1 2 3 4 5 6 
#
# 1 52.8697 47.0136 24.6133 0.0000 0.0000 0.0000
# 2 47.0136 97.3404 48.3743 0.0000 0.0000 0.0000
# 3 24.6133 48.3743 100.2628 0.0000 0.0000 0.0000
# 4 0.0000 0.0000 0.0000 20.1148 0.0000 0.0000
# 5 0.0000 0.0000 0.0000 0.0000 19.3766 0.0000
# 6 0.0000 0.0000 0.0000 0.0000 0.0000 19.1571
#
#
#
# Elastic Compliance Matrix: (Units=1/GPa)
#
#
# Indices 1 2 3 4 5 6 
#
# 1 0.033176 -0.015753 -0.000544 0.000000 0.000000 0.000000
# 2 -0.015753 0.020993 -0.006262 0.000000 0.000000 0.000000
# 3 -0.000544 -0.006262 0.013128 0.000000 0.000000 0.000000
# 4 0.000000 0.000000 0.000000 0.049715 0.000000 0.000000
# 5 0.000000 0.000000 0.000000 0.000000 0.051609 0.000000
# 6 0.000000 0.000000 0.000000 0.000000 0.000000 0.052200
#
#
# Mechanical properties :
#
#
# Convention : Reuss Voigt Hill
#
# Bulk Modulus (GPa) = 45.08437 54.49724 49.79081
# Shear Modulus (GPa) = 18.29283 20.42782 19.36032
#
# Velocity S-wave (km/s) = 3.15573 3.33480 3.24650
# Velocity P-wave (km/s) = 6.14997 6.67055 6.41554
#
# Compressibility (1/GPa) = 0.02218064
#
# Stress axis : x y z
#
# Youngs Moduli (GPa) = 30.14249 47.63398 76.17101
#
# Poissons Ratio (x) = 0.75038 0.04142
# Poissons Ratio (y) = 0.47484 0.47695
# Poissons Ratio (z) = 0.01639 0.29827
#
# Static dielectric constant tensor:
#      x y z
#    x 3.224520 0.000000 0.000000 
#    y 0.000000 3.416860 0.000000 
#    z 0.000000 0.000000 3.618820 
# 
# 
# High freq. dielectric constant tensor:
#      x y z
#    x 1.685280 0.000000 0.000000 
#    y 0.000000 1.727020 0.000000 
#    z 0.000000 0.000000 1.696530 
# 
# From -- ./inp_files/28872.got.cif
#   From: 2010.03.12/outbox.cif.g09.slc.cpg/sg66_15_cif.got.tgz:28872.got - 2010.04.10 21:57:39.
