data_PCOD8276889
_publ_section_title
;
Structure prediction by ZEFSAII (Michael W. Deem and Ramdas Pophale) SiO2 
 PCOD8276889
Probable space group: C C C M
;
_chemical_formula_sum "Si O2"
_cell_formula_units_Z 64
_cell_length_a 7.502512
_cell_length_b 19.599495
_cell_length_c 17.771137
_cell_angle_alpha 90.000000
_cell_angle_beta 90.000000
_cell_angle_gamma 90.000000
_cell_volume 2613.164774
_symmetry_space_group_name_H-M "C C C M"
_symmetry_group_IT_number 66
_symmetry_cell_setting 'orthorhombic'
loop_
_space_group_symop_operation_xyz
x,y,z
-x,-y,z
x,-y,1/2-z
-x,y,1/2-z
-x,-y,-z
x,y,-z
-x,y,1/2+z
x,-y,1/2+z
1/2+x,1/2+y,z
1/2-x,1/2-y,z
1/2+x,1/2-y,1/2-z
1/2-x,1/2+y,1/2-z
1/2-x,1/2-y,-z
1/2+x,1/2+y,-z
1/2-x,1/2+y,1/2+z
1/2+x,1/2-y,1/2+z
loop_
_atom_site_type_symbol
_atom_site_label
_atom_site_fract_x
_atom_site_fract_y
_atom_site_fract_z
Si Si1 0.924108 0.352799 0.086501
Si Si2 0.169201 0.899934 0.584755
Si Si3 0.049858 0.774151 0.663799
Si Si4 0.804614 0.479887 0.836723
O O1 0.128093 0.375630 0.092210
O O2 0.914510 0.276023 0.119383
O O3 0.794709 0.399701 0.140051
O O4 0.857585 0.355254 0.000000
O O5 0.101264 0.900676 0.500000
O O6 0.035311 0.850282 0.629938
O O7 0.157250 0.976553 0.618113
O O8 0.250000 0.750000 0.651892
O O9 0.000000 0.775524 0.750000
O O10 0.778267 0.500000 0.750000
O O11 0.000000 0.500000 0.864975
#
# Coordination Sequence:
#
# PCOD8276889 Si02
#       4
#    16  16  16  16
#     4   9  17  29  49  79 114 150 190 242 293 340
#     4   9  17  31  50  78 113 150 191 240 291 345
#     4  10  21  33  55  83 117 154 195 241 291 348
#     4   9  17  26  48  81 117 146 183 240 292 335
#
# _framework density 24.491375999999999
#
# number of rings (size 3 to 8) (size 9 to 14) (size 15 to 20)
#    0.000    2.750    0.000    1.500   10.500    6.000 
#    0.000    0.000    0.000    3.750    0.000    1.750 
#    0.000    0.000    0.000    0.000    0.000    0.000 
#
# Total GULP energy -396589.674667 kJ/mol
# GULP energy per Si atom -12393.427333 kJ/mol
# Density = 2.443563 g / cm^3
# Si number density = 24.491376 Si / 1000 Ang^3
#
#
#
# Elastic Constant Matrix: (Units=GPa)
#
#
# Indices 1 2 3 4 5 6 
#
# 1 14.7813 50.8282 31.1994 0.0000 0.0000 0.0000
# 2 50.8282 163.9422 89.2552 0.0000 0.0000 0.0000
# 3 31.1994 89.2552 185.2926 0.0000 0.0000 0.0000
# 4 0.0000 0.0000 0.0000 38.4625 0.0000 0.0000
# 5 0.0000 0.0000 0.0000 0.0000 24.6473 0.0000
# 6 0.0000 0.0000 0.0000 0.0000 0.0000 57.0926
#
#
#
# Elastic Compliance Matrix: (Units=1/GPa)
#
#
# Indices 1 2 3 4 5 6 
#
# 1 -0.936002 0.277048 0.024150 0.000000 0.000000 0.000000
# 2 0.277048 -0.073735 -0.011131 0.000000 0.000000 0.000000
# 3 0.024150 -0.011131 0.006692 0.000000 0.000000 0.000000
# 4 0.000000 0.000000 0.000000 0.025999 0.000000 0.000000
# 5 0.000000 0.000000 0.000000 0.000000 0.040572 0.000000
# 6 0.000000 0.000000 0.000000 0.000000 0.000000 0.017515
#
#
# Mechanical properties :
#
#
# Convention : Reuss Voigt Hill
#
# Bulk Modulus (GPa) = -2.36456 78.50906 38.07225
# Shear Modulus (GPa) = -3.04866 36.88937 16.92035
#
# Velocity S-wave (km/s) = -1.11691 3.88521 2.63129
# Velocity P-wave (km/s) = 1.62200 7.22855 4.98101
#
# Compressibility (1/GPa) = -0.42291210
#
# Stress axis : x y z
#
# Youngs Moduli (GPa) = -1.06837 -13.56199 149.42682
#
# Poissons Ratio (x) = 3.75732 -3.60861
# Poissons Ratio (y) = 0.29599 1.66323
# Poissons Ratio (z) = 0.02580 -0.15096
#
# Static dielectric constant tensor:
#      x y z
#    x 4.024570 0.000000 0.000000 
#    y 0.000000 4.930630 0.000000 
#    z 0.000000 0.000000 4.157520 
# 
# 
# High freq. dielectric constant tensor:
#      x y z
#    x 1.954820 0.000000 0.000000 
#    y 0.000000 1.983310 0.000000 
#    z 0.000000 0.000000 1.968910 
# 
# From -- ./inp_files/25820.got.cif
#   From: 2010.03.12/outbox.cif.g09.slc.cpg/sg66_13_cif.got.tgz:25820.got - 2010.04.10 21:57:39.
