data_PCOD8276144
_publ_section_title
;
Structure prediction by ZEFSAII (Michael W. Deem and Ramdas Pophale) SiO2 
 PCOD8276144
Probable space group: C C C M
;
_chemical_formula_sum "Si O2"
_cell_formula_units_Z 96
_cell_length_a 28.329007
_cell_length_b 10.383575
_cell_length_c 17.730798
_cell_angle_alpha 90.000000
_cell_angle_beta 90.000000
_cell_angle_gamma 90.000000
_cell_volume 5215.627157
_symmetry_space_group_name_H-M "C C C M"
_symmetry_group_IT_number 66
_symmetry_cell_setting 'orthorhombic'
loop_
_space_group_symop_operation_xyz
x,y,z
-x,-y,z
x,-y,1/2-z
-x,y,1/2-z
-x,-y,-z
x,y,-z
-x,y,1/2+z
x,-y,1/2+z
1/2+x,1/2+y,z
1/2-x,1/2-y,z
1/2+x,1/2-y,1/2-z
1/2-x,1/2+y,1/2-z
1/2-x,1/2-y,-z
1/2+x,1/2+y,-z
1/2-x,1/2+y,1/2+z
1/2+x,1/2-y,1/2+z
loop_
_atom_site_type_symbol
_atom_site_label
_atom_site_fract_x
_atom_site_fract_y
_atom_site_fract_z
Si Si1 0.058428 0.261194 0.588571
Si Si2 0.398677 0.504124 0.589561
Si Si3 0.802054 0.109308 0.410713
Si Si4 0.392921 0.996345 0.338962
Si Si5 0.802127 0.597982 0.089326
Si Si6 0.551622 0.762965 0.088352
O O1 0.068095 0.274700 0.500000
O O2 0.078982 0.127054 0.621323
O O3 0.084110 0.374294 0.631326
O O4 0.003366 0.268651 0.606703
O O5 0.400098 0.499631 0.500000
O O6 0.344618 0.519256 0.619361
O O7 0.429371 0.625488 0.617193
O O8 0.802283 0.113068 0.500000
O O9 0.810767 0.255430 0.383745
O O10 0.750869 0.056351 0.384763
O O11 0.339246 0.992553 0.368559
O O12 0.422410 0.874786 0.367036
O O13 0.392985 0.000000 0.250000
O O14 0.808934 0.582606 0.000000
O O15 0.562111 0.782875 0.000000
#
# Coordination Sequence:
#
# PCOD8276144 Si02
#       6
#    16  16  16  16  16  16
#     4  10  21  35  55  83 111 135 172 227 279 318
#     4   9  16  31  57  87 110 130 169 226 277 319
#     4   8  14  27  57  89 104 127 173 224 266 312
#     4  12  24  36  52  75 111 149 182 218 267 318
#     4   9  16  31  57  83 104 135 183 228 262 312
#     4  10  19  35  59  81 103 141 184 220 262 321
#
# _framework density 18.406223000000001
#
# number of rings (size 3 to 8) (size 9 to 14) (size 15 to 20)
#    0.000    2.333    1.667    3.500    0.000    4.667 
#    0.000    1.667    7.333    6.000    0.000    0.000 
#    0.000    0.000    0.000    0.000    0.000    0.000 
#
# Total GULP energy -595072.914203 kJ/mol
# GULP energy per Si atom -12397.352379 kJ/mol
# Density = 1.836433 g / cm^3
# Si number density = 18.406223 Si / 1000 Ang^3
#
#
#
# Elastic Constant Matrix: (Units=GPa)
#
#
# Indices 1 2 3 4 5 6 
#
# 1 157.8342 78.7889 55.1947 0.0000 0.0000 0.0000
# 2 78.7889 128.7930 45.0593 0.0000 0.0000 0.0000
# 3 55.1947 45.0593 51.4649 0.0000 0.0000 0.0000
# 4 0.0000 0.0000 0.0000 -12.8532 0.0000 0.0000
# 5 0.0000 0.0000 0.0000 0.0000 -1.9423 0.0000
# 6 0.0000 0.0000 0.0000 0.0000 0.0000 56.1961
#
#
#
# Elastic Compliance Matrix: (Units=1/GPa)
#
#
# Indices 1 2 3 4 5 6 
#
# 1 0.011331 -0.003864 -0.008770 0.000000 0.000000 0.000000
# 2 -0.003864 0.012510 -0.006810 0.000000 0.000000 0.000000
# 3 -0.008770 -0.006810 0.034798 0.000000 0.000000 0.000000
# 4 0.000000 0.000000 0.000000 -0.077801 0.000000 0.000000
# 5 0.000000 0.000000 0.000000 0.000000 -0.514843 0.000000
# 6 0.000000 0.000000 0.000000 0.000000 0.000000 0.017795
#
#
# Mechanical properties :
#
#
# Convention : Reuss Voigt Hill
#
# Bulk Modulus (GPa) = 50.62335 77.35311 63.98823
# Shear Modulus (GPa) = -10.62159 18.88339 4.13090
#
# Velocity S-wave (km/s) = -2.40482 3.20648 1.49972
# Velocity P-wave (km/s) = 4.45558 7.47164 6.15133
#
# Compressibility (1/GPa) = 0.01975373
#
# Stress axis : x y z
#
# Youngs Moduli (GPa) = 88.25173 79.93345 28.73743
#
# Poissons Ratio (x) = 0.30884 0.25202
# Poissons Ratio (y) = 0.34098 0.19569
# Poissons Ratio (z) = 0.77393 0.54431
#
# Static dielectric constant tensor:
#      x y z
#    x 3.903910 0.000000 0.000000 
#    y 0.000000 3.672310 0.000000 
#    z 0.000000 0.000000 2.926760 
# 
# 
# High freq. dielectric constant tensor:
#      x y z
#    x 1.737850 0.000000 0.000000 
#    y 0.000000 1.708330 0.000000 
#    z 0.000000 0.000000 1.662800 
# 
# From -- ./inp_files/52960.got.cif
#   From: 2010.03.12/outbox.cif.g09.slc.cpg/sg66_27_cif.got.tgz:52960.got - 2010.04.10 21:57:39.
