data_PCOD8276240
_publ_section_title
;
Structure prediction by ZEFSAII (Michael W. Deem and Ramdas Pophale) SiO2 
 PCOD8276240
Probable space group: C C C M
;
_chemical_formula_sum "Si O2"
_cell_formula_units_Z 120
_cell_length_a 8.873126
_cell_length_b 23.492107
_cell_length_c 29.236687
_cell_angle_alpha 90.000000
_cell_angle_beta 90.000000
_cell_angle_gamma 90.000000
_cell_volume 6094.341370
_symmetry_space_group_name_H-M "C C C M"
_symmetry_group_IT_number 66
_symmetry_cell_setting 'orthorhombic'
loop_
_space_group_symop_operation_xyz
x,y,z
-x,-y,z
x,-y,1/2-z
-x,y,1/2-z
-x,-y,-z
x,y,-z
-x,y,1/2+z
x,-y,1/2+z
1/2+x,1/2+y,z
1/2-x,1/2-y,z
1/2+x,1/2-y,1/2-z
1/2-x,1/2+y,1/2-z
1/2-x,1/2-y,-z
1/2+x,1/2+y,-z
1/2-x,1/2+y,1/2+z
1/2+x,1/2-y,1/2+z
loop_
_atom_site_type_symbol
_atom_site_label
_atom_site_fract_x
_atom_site_fract_y
_atom_site_fract_z
Si Si1 0.690456 0.606938 0.551891
Si Si2 0.527069 0.935537 0.397021
Si Si3 0.919083 0.736524 0.297952
Si Si4 0.500000 0.500000 0.917468
Si Si5 0.707200 0.415936 0.366980
Si Si6 0.552762 0.666109 0.632748
Si Si7 0.176406 0.383933 0.684497
Si Si8 0.836203 0.064948 0.262726
O O1 0.690777 0.628417 0.500000
O O2 0.863541 0.593623 0.565942
O O3 0.583235 0.550488 0.554409
O O4 0.631880 0.660590 0.582622
O O5 0.364471 0.905050 0.393237
O O6 0.603433 0.932405 0.347037
O O7 0.500000 0.000000 0.411578
O O8 0.750000 0.750000 0.285030
O O9 0.967945 0.772285 0.343293
O O10 0.932971 0.671127 0.313915
O O11 0.000000 0.750689 0.250000
O O12 0.371746 0.472307 0.886401
O O13 0.612867 0.358795 0.374004
O O14 0.721950 0.426610 0.313535
O O15 0.655566 0.627997 0.665756
O O16 0.199835 0.406234 0.735282
O O17 0.000000 0.092735 0.250000
O O18 0.846725 0.000000 0.250000
#
# Coordination Sequence:
#
# PCOD8276240 Si02
#       8
#    16  16  16   8  16  16  16  16
#     4  10  21  39  64  89 120 156 202 253 314 379
#     4  11  22  37  54  84 127 160 191 246 314 364
#     4  10  23  38  59  84 119 160 207 257 302 356
#     4  10  19  38  57  90 120 160 201 248 295 370
#     4  11  21  33  56  80 121 163 200 247 295 353
#     4   9  21  39  59  81 117 153 210 258 299 351
#     4  10  22  38  52  82 121 163 203 251 286 354
#     4  11  21  31  55  84 117 168 213 237 278 359
#
# _framework density 19.690397000000001
#
# number of rings (size 3 to 8) (size 9 to 14) (size 15 to 20)
#    0.000    1.733    2.667    1.800    7.467    0.267 
#    0.000    2.000    0.000   10.000    0.000    0.000 
#    0.000   20.000    0.000    0.000    0.000    0.000 
#
# Total GULP energy -743502.535481 kJ/mol
# GULP energy per Si atom -12391.708925 kJ/mol
# Density = 1.964558 g / cm^3
# Si number density = 19.690397 Si / 1000 Ang^3
#
#
#
# Elastic Constant Matrix: (Units=GPa)
#
#
# Indices 1 2 3 4 5 6 
#
# 1 97.3471 22.3625 36.0501 0.0000 0.0000 0.0000
# 2 22.3625 63.1039 36.0647 0.0000 0.0000 0.0000
# 3 36.0501 36.0647 146.6310 0.0000 0.0000 0.0000
# 4 0.0000 0.0000 0.0000 16.4308 0.0000 0.0000
# 5 0.0000 0.0000 0.0000 0.0000 21.4683 0.0000
# 6 0.0000 0.0000 0.0000 0.0000 0.0000 19.1890
#
#
#
# Elastic Compliance Matrix: (Units=1/GPa)
#
#
# Indices 1 2 3 4 5 6 
#
# 1 0.011747 -0.002923 -0.002169 0.000000 0.000000 0.000000
# 2 -0.002923 0.019166 -0.003995 0.000000 0.000000 0.000000
# 3 -0.002169 -0.003995 0.008336 0.000000 0.000000 0.000000
# 4 0.000000 0.000000 0.000000 0.060861 0.000000 0.000000
# 5 0.000000 0.000000 0.000000 0.000000 0.046580 0.000000
# 6 0.000000 0.000000 0.000000 0.000000 0.000000 0.052113
#
#
# Mechanical properties :
#
#
# Convention : Reuss Voigt Hill
#
# Bulk Modulus (GPa) = 47.45221 55.11517 51.28369
# Shear Modulus (GPa) = 22.32102 25.59128 23.95615
#
# Velocity S-wave (km/s) = 3.37055 3.60902 3.49182
# Velocity P-wave (km/s) = 6.26889 6.73932 6.50835
#
# Compressibility (1/GPa) = 0.02107383
#
# Stress axis : x y z
#
# Youngs Moduli (GPa) = 85.12565 52.17523 119.96435
#
# Poissons Ratio (x) = 0.15252 0.26022
# Poissons Ratio (y) = 0.24885 0.47930
# Poissons Ratio (z) = 0.18465 0.20846
#
# Static dielectric constant tensor:
#      x y z
#    x 3.782130 0.000000 0.000000 
#    y 0.000000 3.547060 0.000000 
#    z 0.000000 0.000000 3.323030 
# 
# 
# High freq. dielectric constant tensor:
#      x y z
#    x 1.773940 0.000000 0.000000 
#    y 0.000000 1.743620 0.000000 
#    z 0.000000 0.000000 1.750650 
# 
# From -- ./inp_files/62969.got.cif
#   From: 2010.03.12/outbox.cif.g09.slc.cpg/sg66_32_cif.got.tgz:62969.got - 2010.04.10 21:57:39.
