data_PCOD8276571
_publ_section_title
;
Structure prediction by ZEFSAII (Michael W. Deem and Ramdas Pophale) SiO2 
 PCOD8276571
Probable space group: C C C M
;
_chemical_formula_sum "Si O2"
_cell_formula_units_Z 80
_cell_length_a 18.711242
_cell_length_b 9.890998
_cell_length_c 21.008856
_cell_angle_alpha 90.000000
_cell_angle_beta 90.000000
_cell_angle_gamma 90.000000
_cell_volume 3888.169006
_symmetry_space_group_name_H-M "C C C M"
_symmetry_group_IT_number 66
_symmetry_cell_setting 'orthorhombic'
loop_
_space_group_symop_operation_xyz
x,y,z
-x,-y,z
x,-y,1/2-z
-x,y,1/2-z
-x,-y,-z
x,y,-z
-x,y,1/2+z
x,-y,1/2+z
1/2+x,1/2+y,z
1/2-x,1/2-y,z
1/2+x,1/2-y,1/2-z
1/2-x,1/2+y,1/2-z
1/2-x,1/2-y,-z
1/2+x,1/2+y,-z
1/2-x,1/2+y,1/2+z
1/2+x,1/2-y,1/2+z
loop_
_atom_site_type_symbol
_atom_site_label
_atom_site_fract_x
_atom_site_fract_y
_atom_site_fract_z
Si Si1 0.933506 0.736991 0.074221
Si Si2 0.341712 0.493898 0.926613
Si Si3 0.329697 0.769994 0.862888
Si Si4 0.687213 0.959740 0.927444
Si Si5 0.472204 0.152405 0.315207
O O1 0.874681 0.632550 0.103597
O O2 0.002166 0.725211 0.119710
O O3 0.905562 0.889097 0.081696
O O4 0.954061 0.707089 0.000000
O O5 0.360585 0.628796 0.888257
O O6 0.267065 0.427452 0.901241
O O7 0.330573 0.534603 0.000000
O O8 0.250000 0.750000 0.832963
O O9 0.326032 0.880197 0.919484
O O10 0.385890 0.831450 0.812049
O O11 0.683396 0.916182 0.000000
O O12 0.500000 0.221983 0.250000
O O13 0.500000 0.000000 0.317033
#
# Coordination Sequence:
#
# PCOD8276571 Si02
#       5
#    16  16  16  16  16
#     4  10  20  35  59  90 120 157 203 246 296 359
#     4   9  18  32  54  89 129 159 189 247 308 352
#     4  10  20  37  60  86 117 155 204 244 294 362
#     4   9  16  30  55  87 123 160 200 243 294 355
#     4  11  24  43  64  86 120 159 200 252 305 354
#
# _framework density 20.575237999999999
#
# number of rings (size 3 to 8) (size 9 to 14) (size 15 to 20)
#    0.000    2.200    2.000    1.200    0.000    7.600 
#    0.000    6.000    0.000    0.000    0.000    0.000 
#    0.000    0.000    0.000    0.000    0.000    0.000 
#
# Total GULP energy -495650.987898 kJ/mol
# GULP energy per Si atom -12391.274697 kJ/mol
# Density = 2.052841 g / cm^3
# Si number density = 20.575238 Si / 1000 Ang^3
#
#
#
# Elastic Constant Matrix: (Units=GPa)
#
#
# Indices 1 2 3 4 5 6 
#
# 1 124.3597 37.8602 48.1292 0.0000 0.0000 0.0000
# 2 37.8602 78.5400 20.5208 0.0000 0.0000 0.0000
# 3 48.1292 20.5208 82.5335 0.0000 0.0000 0.0000
# 4 0.0000 0.0000 0.0000 8.3733 0.0000 0.0000
# 5 0.0000 0.0000 0.0000 0.0000 19.0113 0.0000
# 6 0.0000 0.0000 0.0000 0.0000 0.0000 29.6334
#
#
#
# Elastic Compliance Matrix: (Units=1/GPa)
#
#
# Indices 1 2 3 4 5 6 
#
# 1 0.011473 -0.004045 -0.005684 0.000000 0.000000 0.000000
# 2 -0.004045 0.015043 -0.001381 0.000000 0.000000 0.000000
# 3 -0.005684 -0.001381 0.015775 0.000000 0.000000 0.000000
# 4 0.000000 0.000000 0.000000 0.119428 0.000000 0.000000
# 5 0.000000 0.000000 0.000000 0.000000 0.052600 0.000000
# 6 0.000000 0.000000 0.000000 0.000000 0.000000 0.033746
#
#
# Mechanical properties :
#
#
# Convention : Reuss Voigt Hill
#
# Bulk Modulus (GPa) = 49.82922 55.38372 52.60647
# Shear Modulus (GPa) = 18.05212 23.33180 20.69196
#
# Velocity S-wave (km/s) = 2.96526 3.37111 3.17468
# Velocity P-wave (km/s) = 5.99953 6.49065 6.24992
#
# Compressibility (1/GPa) = 0.02006855
#
# Stress axis : x y z
#
# Youngs Moduli (GPa) = 87.16348 66.47494 63.39284
#
# Poissons Ratio (x) = 0.26890 0.36036
# Poissons Ratio (y) = 0.35259 0.08757
# Poissons Ratio (z) = 0.49548 0.09183
#
# Static dielectric constant tensor:
#      x y z
#    x 3.916530 0.000000 0.000000 
#    y 0.000000 3.622130 0.000000 
#    z 0.000000 0.000000 3.570360 
# 
# 
# High freq. dielectric constant tensor:
#      x y z
#    x 1.817200 0.000000 0.000000 
#    y 0.000000 1.804600 0.000000 
#    z 0.000000 0.000000 1.752610 
# 
# From -- ./inp_files/65070.got.cif
#   From: 2010.03.12/outbox.cif.g09.slc.cpg/sg66_33_cif.got.tgz:65070.got - 2010.04.10 21:57:39.
