data_PCOD8276031
_publ_section_title
;
Structure prediction by ZEFSAII (Michael W. Deem and Ramdas Pophale) SiO2 
 PCOD8276031
Probable space group: C C C M
;
_chemical_formula_sum "Si O2"
_cell_formula_units_Z 56
_cell_length_a 16.013654
_cell_length_b 13.079789
_cell_length_c 12.672409
_cell_angle_alpha 90.000000
_cell_angle_beta 90.000000
_cell_angle_gamma 90.000000
_cell_volume 2654.302157
_symmetry_space_group_name_H-M "C C C M"
_symmetry_group_IT_number 66
_symmetry_cell_setting 'orthorhombic'
loop_
_space_group_symop_operation_xyz
x,y,z
-x,-y,z
x,-y,1/2-z
-x,y,1/2-z
-x,-y,-z
x,y,-z
-x,y,1/2+z
x,-y,1/2+z
1/2+x,1/2+y,z
1/2-x,1/2-y,z
1/2+x,1/2-y,1/2-z
1/2-x,1/2+y,1/2-z
1/2-x,1/2-y,-z
1/2+x,1/2+y,-z
1/2-x,1/2+y,1/2+z
1/2+x,1/2-y,1/2+z
loop_
_atom_site_type_symbol
_atom_site_label
_atom_site_fract_x
_atom_site_fract_y
_atom_site_fract_z
Si Si1 0.042887 0.849722 0.875293
Si Si2 0.272159 0.000000 0.750000
Si Si3 0.829845 0.682602 0.376669
Si Si4 0.374562 0.561214 0.375673
O O1 0.086132 0.743325 0.843908
O O2 0.947468 0.861854 0.828517
O O3 0.101005 0.945254 0.843446
O O4 0.031527 0.858232 0.000000
O O5 0.331026 0.074107 0.682167
O O6 0.215957 0.075550 0.823636
O O7 0.827686 0.658372 0.500000
O O8 0.750000 0.750000 0.345046
O O9 0.365678 0.577349 0.500000
#
# Coordination Sequence:
#
# PCOD8276031 Si02
#       4
#    16   8  16  16
#     4   8  15  30  50  71 111 154 185 223 281 343
#     4  12  20  27  54  92 117 144 190 244 281 332
#     4  10  19  34  51  76 118 161 191 226 287 354
#     4   9  17  30  49  80 113 144 183 234 282 329
#
# _framework density 21.097823999999999
#
# number of rings (size 3 to 8) (size 9 to 14) (size 15 to 20)
#    0.000    2.571    2.857    2.571    0.000    2.286 
#    0.000    0.000    0.000    3.429    0.000   12.000 
#    0.000   20.571    0.000    0.000    0.000    0.000 
#
# Total GULP energy -347108.795306 kJ/mol
# GULP energy per Si atom -12396.742689 kJ/mol
# Density = 2.104980 g / cm^3
# Si number density = 21.097824 Si / 1000 Ang^3
#
#
#
# Elastic Constant Matrix: (Units=GPa)
#
#
# Indices 1 2 3 4 5 6 
#
# 1 76.4616 58.2297 31.2331 0.0000 0.0000 0.0000
# 2 58.2297 119.0673 49.3499 0.0000 0.0000 0.0000
# 3 31.2331 49.3499 50.2662 0.0000 0.0000 0.0000
# 4 0.0000 0.0000 0.0000 42.4022 0.0000 0.0000
# 5 0.0000 0.0000 0.0000 0.0000 4.1346 0.0000
# 6 0.0000 0.0000 0.0000 0.0000 0.0000 29.8846
#
#
#
# Elastic Compliance Matrix: (Units=1/GPa)
#
#
# Indices 1 2 3 4 5 6 
#
# 1 0.021601 -0.008432 -0.005143 0.000000 0.000000 0.000000
# 2 -0.008432 0.017452 -0.011895 0.000000 0.000000 0.000000
# 3 -0.005143 -0.011895 0.034768 0.000000 0.000000 0.000000
# 4 0.000000 0.000000 0.000000 0.023584 0.000000 0.000000
# 5 0.000000 0.000000 0.000000 0.000000 0.241859 0.000000
# 6 0.000000 0.000000 0.000000 0.000000 0.000000 0.033462
#
#
# Mechanical properties :
#
#
# Convention : Reuss Voigt Hill
#
# Bulk Modulus (GPa) = 43.70534 58.15783 50.93158
# Shear Modulus (GPa) = 11.59301 22.41644 17.00472
#
# Velocity S-wave (km/s) = 2.34666 3.26314 2.84208
# Velocity P-wave (km/s) = 5.30122 6.46707 5.91295
#
# Compressibility (1/GPa) = 0.02288050
#
# Stress axis : x y z
#
# Youngs Moduli (GPa) = 46.29428 57.29847 28.76194
#
# Poissons Ratio (x) = 0.48315 0.14793
# Poissons Ratio (y) = 0.39036 0.34212
# Poissons Ratio (z) = 0.23811 0.68157
#
# Static dielectric constant tensor:
#      x y z
#    x 3.764050 0.000000 0.000000 
#    y 0.000000 3.536620 0.000000 
#    z 0.000000 0.000000 4.106240 
# 
# 
# High freq. dielectric constant tensor:
#      x y z
#    x 1.798980 0.000000 0.000000 
#    y 0.000000 1.776430 0.000000 
#    z 0.000000 0.000000 1.866540 
# 
# From -- ./inp_files/25620.got.cif
#   From: 2010.03.12/outbox.cif.g09.slc.cpg/sg66_13_cif.got.tgz:25620.got - 2010.04.10 21:57:39.
