data_PCOD8276455
_publ_section_title
;
Structure prediction by ZEFSAII (Michael W. Deem and Ramdas Pophale) SiO2 
 PCOD8276455
Probable space group: C C C M
;
_chemical_formula_sum "Si O2"
_cell_formula_units_Z 96
_cell_length_a 14.177556
_cell_length_b 20.220808
_cell_length_c 17.698599
_cell_angle_alpha 90.000000
_cell_angle_beta 90.000000
_cell_angle_gamma 90.000000
_cell_volume 5073.863348
_symmetry_space_group_name_H-M "C C C M"
_symmetry_group_IT_number 66
_symmetry_cell_setting 'orthorhombic'
loop_
_space_group_symop_operation_xyz
x,y,z
-x,-y,z
x,-y,1/2-z
-x,y,1/2-z
-x,-y,-z
x,y,-z
-x,y,1/2+z
x,-y,1/2+z
1/2+x,1/2+y,z
1/2-x,1/2-y,z
1/2+x,1/2-y,1/2-z
1/2-x,1/2+y,1/2-z
1/2-x,1/2-y,-z
1/2+x,1/2+y,-z
1/2-x,1/2+y,1/2+z
1/2+x,1/2-y,1/2+z
loop_
_atom_site_type_symbol
_atom_site_label
_atom_site_fract_x
_atom_site_fract_y
_atom_site_fract_z
Si Si1 0.957943 0.432410 0.833136
Si Si2 0.933906 0.176154 0.586857
Si Si3 0.253518 0.673401 0.684009
Si Si4 0.242624 0.938108 0.197014
Si Si5 0.070586 0.673333 0.412487
Si Si6 0.931769 0.059592 0.088621
O O1 0.846692 0.442103 0.836340
O O2 0.000000 0.500000 0.866084
O O3 0.000000 0.417995 0.750000
O O4 0.983740 0.372645 0.888817
O O5 0.907796 0.164891 0.500000
O O6 0.841474 0.156086 0.631932
O O7 0.962671 0.251719 0.603284
O O8 0.019587 0.128983 0.610958
O O9 0.250000 0.750000 0.707475
O O10 0.264666 0.631079 0.759312
O O11 0.160485 0.653390 0.637659
O O12 0.168195 0.942120 0.129601
O O13 0.221926 0.000000 0.250000
O O14 0.097034 0.663488 0.500000
O O15 0.911274 0.054007 0.000000
O O16 0.000000 0.000000 0.115255
#
# Coordination Sequence:
#
# PCOD8276455 Si02
#       6
#    16  16  16  16  16  16
#     4  11  21  40  59  79 116 155 183 239 300 344
#     4   9  19  37  57  83 121 154 190 241 290 338
#     4  10  20  34  57  89 116 151 194 242 292 345
#     4  12  23  38  61  85 116 150 194 240 295 349
#     4  10  20  36  60  87 114 153 197 238 290 353
#     4  10  23  42  61  84 118 159 198 242 293 346
#
# _framework density 18.920494000000001
#
# number of rings (size 3 to 8) (size 9 to 14) (size 15 to 20)
#    0.000    1.667    3.333    1.500    0.000    6.667 
#    0.000    4.167    0.000    3.500    0.000    0.000 
#    0.000    0.000    0.000    0.000    0.000    0.000 
#
# Total GULP energy -595334.653617 kJ/mol
# GULP energy per Si atom -12402.805284 kJ/mol
# Density = 1.887743 g / cm^3
# Si number density = 18.920494 Si / 1000 Ang^3
#
#
#
# Elastic Constant Matrix: (Units=GPa)
#
#
# Indices 1 2 3 4 5 6 
#
# 1 152.2261 63.7243 56.8677 0.0000 0.0000 0.0000
# 2 63.7243 109.4556 51.6505 0.0000 0.0000 0.0000
# 3 56.8677 51.6505 61.8421 0.0000 0.0000 0.0000
# 4 0.0000 0.0000 0.0000 35.4834 0.0000 0.0000
# 5 0.0000 0.0000 0.0000 0.0000 17.5814 0.0000
# 6 0.0000 0.0000 0.0000 0.0000 0.0000 29.8599
#
#
#
# Elastic Compliance Matrix: (Units=1/GPa)
#
#
# Indices 1 2 3 4 5 6 
#
# 1 0.010421 -0.002550 -0.007453 0.000000 0.000000 0.000000
# 2 -0.002550 0.015703 -0.010770 0.000000 0.000000 0.000000
# 3 -0.007453 -0.010770 0.032019 0.000000 0.000000 0.000000
# 4 0.000000 0.000000 0.000000 0.028182 0.000000 0.000000
# 5 0.000000 0.000000 0.000000 0.000000 0.056878 0.000000
# 6 0.000000 0.000000 0.000000 0.000000 0.000000 0.033490
#
#
# Mechanical properties :
#
#
# Convention : Reuss Voigt Hill
#
# Bulk Modulus (GPa) = 60.25362 74.22321 67.23842
# Shear Modulus (GPa) = 22.34423 26.67036 24.50730
#
# Velocity S-wave (km/s) = 3.44023 3.75854 3.60290
# Velocity P-wave (km/s) = 6.90616 7.62559 7.27478
#
# Compressibility (1/GPa) = 0.01659651
#
# Stress axis : x y z
#
# Youngs Moduli (GPa) = 95.96137 63.68179 31.23161
#
# Poissons Ratio (x) = 0.16239 0.23276
# Poissons Ratio (y) = 0.24471 0.33637
# Poissons Ratio (z) = 0.71518 0.68587
#
# Static dielectric constant tensor:
#      x y z
#    x 3.428930 0.000000 0.000000 
#    y 0.000000 3.685250 0.000000 
#    z 0.000000 0.000000 3.296650 
# 
# 
# High freq. dielectric constant tensor:
#      x y z
#    x 1.736120 0.000000 0.000000 
#    y 0.000000 1.751720 0.000000 
#    z 0.000000 0.000000 1.722860 
# 
# From -- ./inp_files/28371.got.cif
#   From: 2010.03.12/outbox.cif.g09.slc.cpg/sg66_15_cif.got.tgz:28371.got - 2010.04.10 21:57:39.
