data_PCOD8276307
_publ_section_title
;
Structure prediction by ZEFSAII (Michael W. Deem and Ramdas Pophale) SiO2 
 PCOD8276307
Probable space group: C C C M
;
_chemical_formula_sum "Si O2"
_cell_formula_units_Z 112
_cell_length_a 25.815457
_cell_length_b 15.951291
_cell_length_c 13.564822
_cell_angle_alpha 90.000000
_cell_angle_beta 90.000000
_cell_angle_gamma 90.000000
_cell_volume 5585.856246
_symmetry_space_group_name_H-M "C C C M"
_symmetry_group_IT_number 66
_symmetry_cell_setting 'orthorhombic'
loop_
_space_group_symop_operation_xyz
x,y,z
-x,-y,z
x,-y,1/2-z
-x,y,1/2-z
-x,-y,-z
x,y,-z
-x,y,1/2+z
x,-y,1/2+z
1/2+x,1/2+y,z
1/2-x,1/2-y,z
1/2+x,1/2-y,1/2-z
1/2-x,1/2+y,1/2-z
1/2-x,1/2-y,-z
1/2+x,1/2+y,-z
1/2-x,1/2+y,1/2+z
1/2+x,1/2-y,1/2+z
loop_
_atom_site_type_symbol
_atom_site_label
_atom_site_fract_x
_atom_site_fract_y
_atom_site_fract_z
Si Si1 0.582118 0.646742 0.260616
Si Si2 0.211565 0.112323 0.111616
Si Si3 0.769656 0.662410 0.390178
Si Si4 0.365781 0.761596 0.385135
Si Si5 0.818238 0.591941 0.780326
Si Si6 0.009468 0.096382 0.106845
Si Si7 0.333327 0.559768 0.109984
O O1 0.593262 0.733281 0.199781
O O2 0.561052 0.589109 0.172399
O O3 0.536374 0.651408 0.342260
O O4 0.633327 0.608551 0.309165
O O5 0.185076 0.202839 0.128053
O O6 0.258787 0.094773 0.184205
O O7 0.168477 0.039945 0.131638
O O8 0.232636 0.105350 0.000000
O O9 0.791416 0.673287 0.500000
O O10 0.750000 0.750000 0.348524
O O11 0.819103 0.639376 0.324277
O O12 0.725331 0.592296 0.384890
O O13 0.385205 0.756481 0.500000
O O14 0.353041 0.859042 0.360476
O O15 0.838687 0.500000 0.750000
O O16 0.019626 0.138613 0.000000
O O17 0.000000 0.000000 0.089804
O O18 0.356314 0.576233 0.000000
#
# Coordination Sequence:
#
# PCOD8276307 Si02
#       7
#    16  16  16  16  16  16  16
#     4  11  21  36  59  83 118 159 194 236 291 355
#     4  10  21  35  53  78 112 154 201 250 297 345
#     4  10  20  34  50  73 105 146 199 253 292 333
#     4  11  25  38  56  85 116 148 196 253 305 362
#     4  12  22  36  57  75 108 155 198 248 304 354
#     4  10  23  39  57  86 121 154 192 239 291 356
#     4  10  20  32  52  83 114 154 208 250 281 338
#
# _framework density 20.050642
#
# number of rings (size 3 to 8) (size 9 to 14) (size 15 to 20)
#    0.000    1.429    1.429    5.143    4.000    1.714 
#    0.000    0.714    0.000    0.000    0.000    2.000 
#    0.000    5.714    0.000    0.000    0.000    0.000 
#
# Total GULP energy -693779.828283 kJ/mol
# GULP energy per Si atom -12388.925505 kJ/mol
# Density = 2.000501 g / cm^3
# Si number density = 20.050642 Si / 1000 Ang^3
#
#
#
# Elastic Constant Matrix: (Units=GPa)
#
#
# Indices 1 2 3 4 5 6 
#
# 1 30.5015 3.2309 24.0806 0.0000 0.0000 0.0000
# 2 3.2309 103.4401 34.4307 0.0000 0.0000 0.0000
# 3 24.0806 34.4307 133.2288 0.0000 0.0000 0.0000
# 4 0.0000 0.0000 0.0000 32.9064 0.0000 0.0000
# 5 0.0000 0.0000 0.0000 0.0000 -24.7900 0.0000
# 6 0.0000 0.0000 0.0000 0.0000 0.0000 18.5595
#
#
#
# Elastic Compliance Matrix: (Units=1/GPa)
#
#
# Indices 1 2 3 4 5 6 
#
# 1 0.038381 0.001215 -0.007251 0.000000 0.000000 0.000000
# 2 0.001215 0.010616 -0.002963 0.000000 0.000000 0.000000
# 3 -0.007251 -0.002963 0.009582 0.000000 0.000000 0.000000
# 4 0.000000 0.000000 0.000000 0.030389 0.000000 0.000000
# 5 0.000000 0.000000 0.000000 0.000000 -0.040339 0.000000
# 6 0.000000 0.000000 0.000000 0.000000 0.000000 0.053881
#
#
# Mechanical properties :
#
#
# Convention : Reuss Voigt Hill
#
# Bulk Modulus (GPa) = 24.64239 43.40606 34.02423
# Shear Modulus (GPa) = 37.30337 19.03040 28.16689
#
# Velocity S-wave (km/s) = 4.31798 3.08412 3.75212
# Velocity P-wave (km/s) = 6.09727 5.86324 5.98140
#
# Compressibility (1/GPa) = 0.04058048
#
# Stress axis : x y z
#
# Youngs Moduli (GPa) = 26.05430 94.19962 104.35945
#
# Poissons Ratio (x) = -0.11443 0.75674
# Poissons Ratio (y) = -0.03165 0.30922
# Poissons Ratio (z) = 0.18893 0.27912
#
# Static dielectric constant tensor:
#      x y z
#    x 3.436280 0.000000 0.000000 
#    y 0.000000 3.565850 0.000000 
#    z 0.000000 0.000000 4.281760 
# 
# 
# High freq. dielectric constant tensor:
#      x y z
#    x 1.726660 0.000000 0.000000 
#    y 0.000000 1.756140 0.000000 
#    z 0.000000 0.000000 1.822610 
# 
# From -- ./inp_files/32463.got.cif
#   From: 2010.03.12/outbox.cif.g09.slc.cpg/sg66_17_cif.got.tgz:32463.got - 2010.04.10 21:57:39.
