data_PCOD8276541
_publ_section_title
;
Structure prediction by ZEFSAII (Michael W. Deem and Ramdas Pophale) SiO2 
 PCOD8276541
Probable space group: C C C M
;
_chemical_formula_sum "Si O2"
_cell_formula_units_Z 88
_cell_length_a 11.984159
_cell_length_b 17.932801
_cell_length_c 21.539157
_cell_angle_alpha 90.000000
_cell_angle_beta 90.000000
_cell_angle_gamma 90.000000
_cell_volume 4628.970291
_symmetry_space_group_name_H-M "C C C M"
_symmetry_group_IT_number 66
_symmetry_cell_setting 'orthorhombic'
loop_
_space_group_symop_operation_xyz
x,y,z
-x,-y,z
x,-y,1/2-z
-x,y,1/2-z
-x,-y,-z
x,y,-z
-x,y,1/2+z
x,-y,1/2+z
1/2+x,1/2+y,z
1/2-x,1/2-y,z
1/2+x,1/2-y,1/2-z
1/2-x,1/2+y,1/2-z
1/2-x,1/2-y,-z
1/2+x,1/2+y,-z
1/2-x,1/2+y,1/2+z
1/2+x,1/2-y,1/2+z
loop_
_atom_site_type_symbol
_atom_site_label
_atom_site_fract_x
_atom_site_fract_y
_atom_site_fract_z
Si Si1 0.536852 0.647223 0.929580
Si Si2 0.115226 0.543669 0.928505
Si Si3 0.264673 0.831467 0.628317
Si Si4 0.759656 0.979952 0.184022
Si Si5 0.500000 0.500000 0.146018
Si Si6 0.003259 0.690795 0.572002
O O1 0.670881 0.656360 0.924688
O O2 0.494210 0.575236 0.893920
O O3 0.479697 0.724572 0.903332
O O4 0.501775 0.634297 0.000000
O O5 0.203503 0.515453 0.877568
O O6 0.000000 0.500000 0.919665
O O7 0.096940 0.632411 0.915600
O O8 0.158602 0.532147 0.000000
O O9 0.250000 0.750000 0.658443
O O10 0.247441 0.890771 0.682660
O O11 0.386250 0.844946 0.600870
O O12 0.889044 0.003357 0.187313
O O13 0.702185 0.000000 0.250000
O O14 0.029106 0.698523 0.500000
#
# Coordination Sequence:
#
# PCOD8276541 Si02
#       6
#    16  16  16  16   8  16
#     4   9  17  29  52  82 111 144 187 232 272 327
#     4  10  20  35  57  85 117 146 174 220 284 340
#     4   9  17  31  52  79 108 141 185 235 276 316
#     4  11  23  39  58  80 109 149 191 232 276 335
#     4  10  22  38  54  74 107 150 195 234 279 322
#     4   9  16  30  51  81 116 146 177 222 281 333
#
# _framework density 19.010708000000001
#
# number of rings (size 3 to 8) (size 9 to 14) (size 15 to 20)
#    0.000    2.364    1.818    1.091    0.000    6.182 
#    0.000    2.727    0.000    7.636    0.000    0.000 
#    0.000    0.000    0.000    0.000    0.000    0.000 
#
# Total GULP energy -545163.163535 kJ/mol
# GULP energy per Si atom -12390.071899 kJ/mol
# Density = 1.896744 g / cm^3
# Si number density = 19.010708 Si / 1000 Ang^3
#
#
#
# Elastic Constant Matrix: (Units=GPa)
#
#
# Indices 1 2 3 4 5 6 
#
# 1 63.2713 33.2762 34.8990 0.0000 0.0000 0.0000
# 2 33.2762 148.1738 52.6471 0.0000 0.0000 0.0000
# 3 34.8990 52.6471 96.7804 0.0000 0.0000 0.0000
# 4 0.0000 0.0000 0.0000 14.7969 0.0000 0.0000
# 5 0.0000 0.0000 0.0000 0.0000 11.8429 0.0000
# 6 0.0000 0.0000 0.0000 0.0000 0.0000 26.9863
#
#
#
# Elastic Compliance Matrix: (Units=1/GPa)
#
#
# Indices 1 2 3 4 5 6 
#
# 1 0.020417 -0.002441 -0.006035 0.000000 0.000000 0.000000
# 2 -0.002441 0.008658 -0.003829 0.000000 0.000000 0.000000
# 3 -0.006035 -0.003829 0.014592 0.000000 0.000000 0.000000
# 4 0.000000 0.000000 0.000000 0.067582 0.000000 0.000000
# 5 0.000000 0.000000 0.000000 0.000000 0.084439 0.000000
# 6 0.000000 0.000000 0.000000 0.000000 0.000000 0.037056
#
#
# Mechanical properties :
#
#
# Convention : Reuss Voigt Hill
#
# Bulk Modulus (GPa) = 52.47486 61.09669 56.78577
# Shear Modulus (GPa) = 18.96054 23.21876 21.08965
#
# Velocity S-wave (km/s) = 3.16153 3.49858 3.33431
# Velocity P-wave (km/s) = 6.40232 6.96619 6.69020
#
# Compressibility (1/GPa) = 0.01905674
#
# Stress axis : x y z
#
# Youngs Moduli (GPa) = 48.97796 115.50492 68.53135
#
# Poissons Ratio (x) = 0.28196 0.41356
# Poissons Ratio (y) = 0.11956 0.26243
# Poissons Ratio (z) = 0.29556 0.44231
#
# Static dielectric constant tensor:
#      x y z
#    x 3.272610 0.000000 0.000000 
#    y 0.000000 4.069100 0.000000 
#    z 0.000000 0.000000 3.096470 
# 
# 
# High freq. dielectric constant tensor:
#      x y z
#    x 1.715760 0.000000 0.000000 
#    y 0.000000 1.766350 0.000000 
#    z 0.000000 0.000000 1.704850 
# 
# From -- ./inp_files/48556.got.cif
#   From: 2010.03.12/outbox.cif.g09.slc.cpg/sg66_25_cif.got.tgz:48556.got - 2010.04.10 21:57:39.
