data_PCOD8276236
_publ_section_title
;
Structure prediction by ZEFSAII (Michael W. Deem and Ramdas Pophale) SiO2 
 PCOD8276236
Probable space group: C C C M
;
_chemical_formula_sum "Si O2"
_cell_formula_units_Z 88
_cell_length_a 19.384911
_cell_length_b 9.093692
_cell_length_c 23.462965
_cell_angle_alpha 90.000000
_cell_angle_beta 90.000000
_cell_angle_gamma 90.000000
_cell_volume 4136.061092
_symmetry_space_group_name_H-M "C C C M"
_symmetry_group_IT_number 66
_symmetry_cell_setting 'orthorhombic'
loop_
_space_group_symop_operation_xyz
x,y,z
-x,-y,z
x,-y,1/2-z
-x,y,1/2-z
-x,-y,-z
x,y,-z
-x,y,1/2+z
x,-y,1/2+z
1/2+x,1/2+y,z
1/2-x,1/2-y,z
1/2+x,1/2-y,1/2-z
1/2-x,1/2+y,1/2-z
1/2-x,1/2-y,-z
1/2+x,1/2+y,-z
1/2-x,1/2+y,1/2+z
1/2+x,1/2-y,1/2+z
loop_
_atom_site_type_symbol
_atom_site_label
_atom_site_fract_x
_atom_site_fract_y
_atom_site_fract_z
Si Si1 0.813848 0.146053 0.000000
Si Si2 0.185404 0.851922 0.712628
Si Si3 0.905431 0.411570 0.000000
Si Si4 0.000000 0.000000 0.642495
Si Si5 0.355824 0.429671 0.908411
Si Si6 0.000000 0.500000 0.399111
Si Si7 0.830031 0.708772 0.000000
Si Si8 0.959621 0.712576 0.802182
O O1 0.750000 0.250000 0.000000
O O2 0.812114 0.046006 0.944150
O O3 0.880862 0.245797 0.000000
O O4 0.250000 0.750000 0.730192
O O5 0.190275 0.901937 0.647172
O O6 0.117074 0.752516 0.719025
O O7 0.182622 0.000000 0.750000
O O8 0.844587 0.534403 0.000000
O O9 0.947589 0.418951 0.058741
O O10 0.068360 0.992375 0.604097
O O11 0.996825 0.858323 0.682906
O O12 0.365350 0.278663 0.943861
O O13 0.042210 0.610983 0.358279
O O14 0.750000 0.750000 0.000000
O O15 0.000000 0.634660 0.750000
#
# Coordination Sequence:
#
# PCOD8276236 Si02
#       8
#     8  16   8   8  16   8   8  16
#     4  11  24  37  58  87 120 159 200 250 306 363
#     4  11  25  44  67  95 128 168 211 262 320 385
#     4  11  22  40  58  88 126 155 209 263 304 373
#     4  10  19  37  64  88 114 153 203 258 310 364
#     4  10  22  40  62  88 118 159 205 252 310 376
#     4  11  25  38  60  90 123 165 200 258 322 363
#     4  11  22  39  62  85 122 171 208 253 322 384
#     4  11  22  41  64  91 124 161 207 258 316 380
#
# _framework density 21.276281999999998
#
# number of rings (size 3 to 8) (size 9 to 14) (size 15 to 20)
#    0.000    1.273    0.000    7.636    0.000    6.545 
#    0.000    0.000    0.000    0.000    0.000    0.000 
#    0.000    0.000    0.000    0.000    0.000    0.000 
#
# Total GULP energy -545515.196729 kJ/mol
# GULP energy per Si atom -12398.072653 kJ/mol
# Density = 2.122786 g / cm^3
# Si number density = 21.276282 Si / 1000 Ang^3
#
#
#
# Elastic Constant Matrix: (Units=GPa)
#
#
# Indices 1 2 3 4 5 6 
#
# 1 114.2860 20.6194 32.8769 0.0000 0.0000 0.0000
# 2 20.6194 83.5373 35.9985 0.0000 0.0000 0.0000
# 3 32.8769 35.9985 143.3546 0.0000 0.0000 0.0000
# 4 0.0000 0.0000 0.0000 29.5435 0.0000 0.0000
# 5 0.0000 0.0000 0.0000 0.0000 31.3054 0.0000
# 6 0.0000 0.0000 0.0000 0.0000 0.0000 41.5052
#
#
#
# Elastic Compliance Matrix: (Units=1/GPa)
#
#
# Indices 1 2 3 4 5 6 
#
# 1 0.009552 -0.001585 -0.001793 0.000000 0.000000 0.000000
# 2 -0.001585 0.013686 -0.003073 0.000000 0.000000 0.000000
# 3 -0.001793 -0.003073 0.008159 0.000000 0.000000 0.000000
# 4 0.000000 0.000000 0.000000 0.033848 0.000000 0.000000
# 5 0.000000 0.000000 0.000000 0.000000 0.031943 0.000000
# 6 0.000000 0.000000 0.000000 0.000000 0.000000 0.024093
#
#
# Mechanical properties :
#
#
# Convention : Reuss Voigt Hill
#
# Bulk Modulus (GPa) = 54.06996 57.79638 55.93317
# Shear Modulus (GPa) = 35.62560 37.24968 36.43764
#
# Velocity S-wave (km/s) = 4.09642 4.18875 4.14284
# Velocity P-wave (km/s) = 6.91683 7.11462 7.01642
#
# Compressibility (1/GPa) = 0.01849456
#
# Stress axis : x y z
#
# Youngs Moduli (GPa) = 104.69416 73.06553 122.57069
#
# Poissons Ratio (x) = 0.11582 0.21971
# Poissons Ratio (y) = 0.16596 0.37670
# Poissons Ratio (z) = 0.18766 0.22455
#
# Static dielectric constant tensor:
#      x y z
#    x 3.727920 0.000000 0.000000 
#    y 0.000000 4.147780 0.000000 
#    z 0.000000 0.000000 4.016410 
# 
# 
# High freq. dielectric constant tensor:
#      x y z
#    x 1.830950 0.000000 0.000000 
#    y 0.000000 1.843230 0.000000 
#    z 0.000000 0.000000 1.847440 
# 
# From -- ./inp_files/59427.got.cif
#   From: 2010.03.12/outbox.cif.g09.slc.cpg/sg66_30_cif.got.tgz:59427.got - 2010.04.10 21:57:39.
