data_PCOD8276578
_publ_section_title
;
Structure prediction by ZEFSAII (Michael W. Deem and Ramdas Pophale) SiO2 
 PCOD8276578
Probable space group: C C C M
;
_chemical_formula_sum "Si O2"
_cell_formula_units_Z 96
_cell_length_a 19.164825
_cell_length_b 14.165072
_cell_length_c 18.283877
_cell_angle_alpha 90.000000
_cell_angle_beta 90.000000
_cell_angle_gamma 90.000000
_cell_volume 4963.544677
_symmetry_space_group_name_H-M "C C C M"
_symmetry_group_IT_number 66
_symmetry_cell_setting 'orthorhombic'
loop_
_space_group_symop_operation_xyz
x,y,z
-x,-y,z
x,-y,1/2-z
-x,y,1/2-z
-x,-y,-z
x,y,-z
-x,y,1/2+z
x,-y,1/2+z
1/2+x,1/2+y,z
1/2-x,1/2-y,z
1/2+x,1/2-y,1/2-z
1/2-x,1/2+y,1/2-z
1/2-x,1/2-y,-z
1/2+x,1/2+y,-z
1/2-x,1/2+y,1/2+z
1/2+x,1/2-y,1/2+z
loop_
_atom_site_type_symbol
_atom_site_label
_atom_site_fract_x
_atom_site_fract_y
_atom_site_fract_z
Si Si1 0.956935 0.093502 0.081192
Si Si2 0.433631 0.063193 0.079952
Si Si3 0.037048 0.254655 0.173288
Si Si4 0.673197 0.751853 0.744748
Si Si5 0.826745 0.548396 0.324166
Si Si6 0.168886 0.943233 0.822060
O O1 0.885518 0.048999 0.112494
O O2 0.996174 0.169982 0.132682
O O3 0.944880 0.137919 0.000000
O O4 0.000000 0.000000 0.073186
O O5 0.460078 0.151687 0.125940
O O6 0.500000 0.000000 0.070095
O O7 0.372880 0.997999 0.113121
O O8 0.407524 0.097692 0.000000
O O9 0.118069 0.232247 0.190492
O O10 0.000000 0.276475 0.250000
O O11 0.750000 0.750000 0.782456
O O12 0.659038 0.841347 0.691766
O O13 0.670640 0.667714 0.688649
O O14 0.849940 0.500000 0.250000
O O15 0.746518 0.523265 0.344340
O O16 0.143044 0.000000 0.750000
#
# Coordination Sequence:
#
# PCOD8276578 Si02
#       6
#    16  16  16  16  16  16
#     4  11  25  41  59  89 127 161 201 260 316 369
#     4  11  25  40  58  89 128 161 201 258 316 376
#     4  12  22  38  67  91 119 167 209 254 309 372
#     4  10  20  35  60  95 120 150 205 260 300 356
#     4  10  20  38  62  90 121 161 206 253 303 368
#     4  10  21  38  63  92 120 159 211 259 301 366
#
# _framework density 19.341017000000001
#
# number of rings (size 3 to 8) (size 9 to 14) (size 15 to 20)
#    0.000    1.333    3.333    2.500    0.000    0.667 
#    0.000    0.000    0.000    4.000    0.000    0.000 
#    0.000    0.000    0.000    0.000    0.000    0.000 
#
# Total GULP energy -594733.598508 kJ/mol
# GULP energy per Si atom -12390.283302 kJ/mol
# Density = 1.929700 g / cm^3
# Si number density = 19.341017 Si / 1000 Ang^3
#
#
#
# Elastic Constant Matrix: (Units=GPa)
#
#
# Indices 1 2 3 4 5 6 
#
# 1 114.1978 25.8581 72.5011 0.0000 0.0000 0.0000
# 2 25.8581 99.8933 48.9541 0.0000 0.0000 0.0000
# 3 72.5011 48.9541 147.3971 0.0000 0.0000 0.0000
# 4 0.0000 0.0000 0.0000 14.3118 0.0000 0.0000
# 5 0.0000 0.0000 0.0000 0.0000 83.1026 0.0000
# 6 0.0000 0.0000 0.0000 0.0000 0.0000 32.4087
#
#
#
# Elastic Compliance Matrix: (Units=1/GPa)
#
#
# Indices 1 2 3 4 5 6 
#
# 1 0.012739 -0.000271 -0.006176 0.000000 0.000000 0.000000
# 2 -0.000271 0.011963 -0.003840 0.000000 0.000000 0.000000
# 3 -0.006176 -0.003840 0.011098 0.000000 0.000000 0.000000
# 4 0.000000 0.000000 0.000000 0.069873 0.000000 0.000000
# 5 0.000000 0.000000 0.000000 0.000000 0.012033 0.000000
# 6 0.000000 0.000000 0.000000 0.000000 0.000000 0.030856
#
#
# Mechanical properties :
#
#
# Convention : Reuss Voigt Hill
#
# Bulk Modulus (GPa) = 65.67882 72.90164 69.29023
# Shear Modulus (GPa) = 28.70105 40.24295 34.47200
#
# Velocity S-wave (km/s) = 3.85638 4.56642 4.22634
# Velocity P-wave (km/s) = 7.33900 8.09800 7.72782
#
# Compressibility (1/GPa) = 0.01522561
#
# Stress axis : x y z
#
# Youngs Moduli (GPa) = 78.49847 83.59420 90.11017
#
# Poissons Ratio (x) = 0.02265 0.55653
# Poissons Ratio (y) = 0.02127 0.34600
# Poissons Ratio (z) = 0.48481 0.32098
#
# Static dielectric constant tensor:
#      x y z
#    x 4.760260 0.000000 0.000000 
#    y 0.000000 3.619890 0.000000 
#    z 0.000000 0.000000 3.636530 
# 
# 
# High freq. dielectric constant tensor:
#      x y z
#    x 1.769280 0.000000 0.000000 
#    y 0.000000 1.766200 0.000000 
#    z 0.000000 0.000000 1.733310 
# 
# From -- ./inp_files/31219.got.cif
#   From: 2010.03.12/outbox.cif.g09.slc.cpg/sg66_16_cif.got.tgz:31219.got - 2010.04.10 21:57:39.
