data_PCOD8276001
_publ_section_title
;
Structure prediction by ZEFSAII (Michael W. Deem and Ramdas Pophale) SiO2 
 PCOD8276001
Probable space group: C C C M
;
_chemical_formula_sum "Si O2"
_cell_formula_units_Z 96
_cell_length_a 20.444128
_cell_length_b 27.771901
_cell_length_c 8.724153
_cell_angle_alpha 90.000000
_cell_angle_beta 90.000000
_cell_angle_gamma 90.000000
_cell_volume 4953.332404
_symmetry_space_group_name_H-M "C C C M"
_symmetry_group_IT_number 66
_symmetry_cell_setting 'orthorhombic'
loop_
_space_group_symop_operation_xyz
x,y,z
-x,-y,z
x,-y,1/2-z
-x,y,1/2-z
-x,-y,-z
x,y,-z
-x,y,1/2+z
x,-y,1/2+z
1/2+x,1/2+y,z
1/2-x,1/2-y,z
1/2+x,1/2-y,1/2-z
1/2-x,1/2+y,1/2-z
1/2-x,1/2-y,-z
1/2+x,1/2+y,-z
1/2-x,1/2+y,1/2+z
1/2+x,1/2-y,1/2+z
loop_
_atom_site_type_symbol
_atom_site_label
_atom_site_fract_x
_atom_site_fract_y
_atom_site_fract_z
Si Si1 0.809366 0.114930 0.681050
Si Si2 0.802753 0.551669 0.678955
Si Si3 0.568029 0.107023 0.819807
Si Si4 0.431140 0.209906 0.817798
Si Si5 0.431985 0.448408 0.818833
Si Si6 0.685998 0.276386 0.682237
O O1 0.799406 0.113580 0.500000
O O2 0.746630 0.090820 0.755831
O O3 0.875395 0.088053 0.730608
O O4 0.815399 0.169178 0.744125
O O5 0.788370 0.500000 0.750000
O O6 0.790972 0.547568 0.500000
O O7 0.876453 0.567997 0.718221
O O8 0.500000 0.087548 0.750000
O O9 0.588243 0.157392 0.743541
O O10 0.559376 0.115278 0.000000
O O11 0.500000 0.227197 0.750000
O O12 0.377647 0.247981 0.759005
O O13 0.435131 0.207685 0.000000
O O14 0.413715 0.500000 0.750000
O O15 0.500000 0.428895 0.750000
O O16 0.438980 0.453156 0.000000
O O17 0.687486 0.276301 0.500000
O O18 0.750000 0.250000 0.748617
#
# Coordination Sequence:
#
# PCOD8276001 Si02
#       6
#    16  16  16  16  16  16
#     4  10  21  37  57  81 109 143 184 226 268 320
#     4  11  24  39  57  82 110 142 180 224 274 327
#     4  10  21  37  57  82 111 143 181 222 269 324
#     4  10  19  33  56  82 110 145 182 222 269 320
#     4  10  20  34  54  78 105 138 176 217 263 315
#     4   9  18  33  54  79 106 140 181 220 261 312
#
# _framework density 19.380890999999998
#
# number of rings (size 3 to 8) (size 9 to 14) (size 15 to 20)
#    0.000    2.000    0.000    5.000    0.000    7.667 
#    0.000    3.333    0.000    4.500    0.000    0.000 
#    0.000    0.000    0.000    0.000    0.000    0.000 
#
# Total GULP energy -595337.861818 kJ/mol
# GULP energy per Si atom -12402.872121 kJ/mol
# Density = 1.933678 g / cm^3
# Si number density = 19.380891 Si / 1000 Ang^3
#
#
#
# Elastic Constant Matrix: (Units=GPa)
#
#
# Indices 1 2 3 4 5 6 
#
# 1 113.8360 51.3458 36.4654 0.0000 0.0000 0.0000
# 2 51.3458 92.8010 19.9613 0.0000 0.0000 0.0000
# 3 36.4654 19.9613 64.5162 0.0000 0.0000 0.0000
# 4 0.0000 0.0000 0.0000 17.6235 0.0000 0.0000
# 5 0.0000 0.0000 0.0000 0.0000 18.1582 0.0000
# 6 0.0000 0.0000 0.0000 0.0000 0.0000 42.3167
#
#
#
# Elastic Compliance Matrix: (Units=1/GPa)
#
#
# Indices 1 2 3 4 5 6 
#
# 1 0.013388 -0.006192 -0.005651 0.000000 0.000000 0.000000
# 2 -0.006192 0.014408 -0.000958 0.000000 0.000000 0.000000
# 3 -0.005651 -0.000958 0.018991 0.000000 0.000000 0.000000
# 4 0.000000 0.000000 0.000000 0.056742 0.000000 0.000000
# 5 0.000000 0.000000 0.000000 0.000000 0.055072 0.000000
# 6 0.000000 0.000000 0.000000 0.000000 0.000000 0.023631
#
#
# Mechanical properties :
#
#
# Convention : Reuss Voigt Hill
#
# Bulk Modulus (GPa) = 47.20562 54.07755 50.64158
# Shear Modulus (GPa) = 23.26729 26.51175 24.88952
#
# Velocity S-wave (km/s) = 3.46862 3.70257 3.58750
# Velocity P-wave (km/s) = 6.36014 6.80013 6.58381
#
# Compressibility (1/GPa) = 0.02118392
#
# Stress axis : x y z
#
# Youngs Moduli (GPa) = 74.69631 69.40782 52.65786
#
# Poissons Ratio (x) = 0.42975 0.29758
# Poissons Ratio (y) = 0.46249 0.05045
# Poissons Ratio (z) = 0.42212 0.06650
#
# Static dielectric constant tensor:
#      x y z
#    x 3.779030 0.000000 0.000000 
#    y 0.000000 3.610670 0.000000 
#    z 0.000000 0.000000 3.439250 
# 
# 
# High freq. dielectric constant tensor:
#      x y z
#    x 1.770890 0.000000 0.000000 
#    y 0.000000 1.756040 0.000000 
#    z 0.000000 0.000000 1.746860 
# 
# From -- ./inp_files/8023.got.cif
#   From: 2010.03.12/outbox.cif.g09.slc.cpg/sg66_5_cif.got.tgz:8023.got - 2010.04.10 21:57:39.
