data_PCOD8276583
_publ_section_title
;
Structure prediction by ZEFSAII (Michael W. Deem and Ramdas Pophale) SiO2 
 PCOD8276583
Probable space group: C C C M
;
_chemical_formula_sum "Si O2"
_cell_formula_units_Z 44
_cell_length_a 7.623597
_cell_length_b 13.674389
_cell_length_c 18.150825
_cell_angle_alpha 90.000000
_cell_angle_beta 90.000000
_cell_angle_gamma 90.000000
_cell_volume 1892.187766
_symmetry_space_group_name_H-M "C C C M"
_symmetry_group_IT_number 66
_symmetry_cell_setting 'orthorhombic'
loop_
_space_group_symop_operation_xyz
x,y,z
-x,-y,z
x,-y,1/2-z
-x,y,1/2-z
-x,-y,-z
x,y,-z
-x,y,1/2+z
x,-y,1/2+z
1/2+x,1/2+y,z
1/2-x,1/2-y,z
1/2+x,1/2-y,1/2-z
1/2-x,1/2+y,1/2-z
1/2-x,1/2-y,-z
1/2+x,1/2+y,-z
1/2-x,1/2+y,1/2+z
1/2+x,1/2-y,1/2+z
loop_
_atom_site_type_symbol
_atom_site_label
_atom_site_fract_x
_atom_site_fract_y
_atom_site_fract_z
Si Si1 0.644416 0.616036 0.500000
Si Si2 0.610081 0.829289 0.155517
Si Si3 0.250000 0.250000 0.624862
Si Si4 0.251614 0.608720 0.500000
Si Si5 0.000000 0.500000 0.750000
O O1 0.725745 0.654985 0.574861
O O2 0.444004 0.656344 0.500000
O O3 0.694995 0.503782 0.500000
O O4 0.750000 0.750000 0.183452
O O5 0.421021 0.778564 0.172405
O O6 0.639961 0.856708 0.070029
O O7 0.625605 0.930556 0.200768
#
# Coordination Sequence:
#
# PCOD8276583 Si02
#       5
#     8  16   8   8   4
#     4  10  20  35  69 116 144 183 234 305 379 429
#     4  12  26  50  74 109 148 195 250 311 367 444
#     4  11  22  40  72 104 144 191 240 300 374 437
#     4  11  21  43  73 111 148 184 246 313 368 434
#     4  12  32  50  74 106 148 212 248 296 390 444
#
# _framework density 23.253504
#
# number of rings (size 3 to 8) (size 9 to 14) (size 15 to 20)
#    0.000    0.727    3.636    4.909    2.545    2.182 
#    0.000    1.818    0.000    0.000    0.000    0.000 
#    0.000    0.000    0.000    0.000    0.000    0.000 
#
# Total GULP energy -272721.534359 kJ/mol
# GULP energy per Si atom -12396.433380 kJ/mol
# Density = 2.320058 g / cm^3
# Si number density = 23.253504 Si / 1000 Ang^3
#
#
#
# Elastic Constant Matrix: (Units=GPa)
#
#
# Indices 1 2 3 4 5 6 
#
# 1 173.1946 64.1454 42.8759 0.0000 0.0000 0.0000
# 2 64.1454 136.1577 73.7392 0.0000 0.0000 0.0000
# 3 42.8759 73.7392 67.9109 0.0000 0.0000 0.0000
# 4 0.0000 0.0000 0.0000 76.5934 0.0000 0.0000
# 5 0.0000 0.0000 0.0000 0.0000 25.5736 0.0000
# 6 0.0000 0.0000 0.0000 0.0000 0.0000 34.6566
#
#
#
# Elastic Compliance Matrix: (Units=1/GPa)
#
#
# Indices 1 2 3 4 5 6 
#
# 1 0.007112 -0.002230 -0.002068 0.000000 0.000000 0.000000
# 2 -0.002230 0.018528 -0.018710 0.000000 0.000000 0.000000
# 3 -0.002068 -0.018710 0.036347 0.000000 0.000000 0.000000
# 4 0.000000 0.000000 0.000000 0.013056 0.000000 0.000000
# 5 0.000000 0.000000 0.000000 0.000000 0.039103 0.000000
# 6 0.000000 0.000000 0.000000 0.000000 0.000000 0.028855
#
#
# Mechanical properties :
#
#
# Convention : Reuss Voigt Hill
#
# Bulk Modulus (GPa) = 62.62029 82.08713 72.35371
# Shear Modulus (GPa) = 25.72808 40.46490 33.09649
#
# Velocity S-wave (km/s) = 3.32989 4.17605 3.77674
# Velocity P-wave (km/s) = 6.46313 7.65703 7.08528
#
# Compressibility (1/GPa) = 0.01596927
#
# Stress axis : x y z
#
# Youngs Moduli (GPa) = 140.60852 53.97271 27.51280
#
# Poissons Ratio (x) = 0.12037 0.05691
# Poissons Ratio (y) = 0.31360 0.51476
# Poissons Ratio (z) = 0.29084 1.00982
#
# Static dielectric constant tensor:
#      x y z
#    x 4.486900 0.000000 0.000000 
#    y 0.000000 4.337780 0.000000 
#    z 0.000000 0.000000 4.021090 
# 
# 
# High freq. dielectric constant tensor:
#      x y z
#    x 1.921970 0.000000 0.000000 
#    y 0.000000 1.938300 0.000000 
#    z 0.000000 0.000000 1.917530 
# 
# From -- ./inp_files/35694.got.cif
#   From: 2010.03.12/outbox.cif.g09.slc.cpg/sg66_18_cif.got.tgz:35694.got - 2010.04.10 21:57:39.
