data_PCOD8276213
_publ_section_title
;
Structure prediction by ZEFSAII (Michael W. Deem and Ramdas Pophale) SiO2 
 PCOD8276213
Probable space group: C C C M
;
_chemical_formula_sum "Si O2"
_cell_formula_units_Z 104
_cell_length_a 21.055501
_cell_length_b 14.345243
_cell_length_c 17.157159
_cell_angle_alpha 90.000000
_cell_angle_beta 90.000000
_cell_angle_gamma 90.000000
_cell_volume 5182.256023
_symmetry_space_group_name_H-M "C C C M"
_symmetry_group_IT_number 66
_symmetry_cell_setting 'orthorhombic'
loop_
_space_group_symop_operation_xyz
x,y,z
-x,-y,z
x,-y,1/2-z
-x,y,1/2-z
-x,-y,-z
x,y,-z
-x,y,1/2+z
x,-y,1/2+z
1/2+x,1/2+y,z
1/2-x,1/2-y,z
1/2+x,1/2-y,1/2-z
1/2-x,1/2+y,1/2-z
1/2-x,1/2-y,-z
1/2+x,1/2+y,-z
1/2-x,1/2+y,1/2+z
1/2+x,1/2-y,1/2+z
loop_
_atom_site_type_symbol
_atom_site_label
_atom_site_fract_x
_atom_site_fract_y
_atom_site_fract_z
Si Si1 0.592717 0.572304 0.590647
Si Si2 0.621488 0.804280 0.156455
Si Si3 0.795983 0.902503 0.291999
Si Si4 0.345318 0.090787 0.302500
Si Si5 0.569157 0.009086 0.590277
Si Si6 0.047561 0.866026 0.409680
Si Si7 0.250000 0.250000 0.822592
O O1 0.610462 0.586903 0.500000
O O2 0.649124 0.614236 0.643780
O O3 0.527123 0.625715 0.610422
O O4 0.583205 0.462843 0.608265
O O5 0.628056 0.824376 0.249648
O O6 0.593505 0.888128 0.107310
O O7 0.578766 0.712933 0.144178
O O8 0.694889 0.796538 0.124896
O O9 0.726715 0.897263 0.332962
O O10 0.793113 0.821944 0.227365
O O11 0.808777 0.000000 0.250000
O O12 0.349763 0.000000 0.250000
O O13 0.388647 0.075678 0.377424
O O14 0.565892 0.990409 0.500000
O O15 0.500000 0.000000 0.628959
O O16 0.056508 0.839066 0.500000
#
# Coordination Sequence:
#
# PCOD8276213 Si02
#       7
#    16  16  16  16  16  16   8
#     4   9  19  36  58  83 117 152 184 233 292 350
#     4  10  19  37  60  83 115 148 192 242 293 337
#     4  10  19  37  58  79 117 152 189 240 295 346
#     4   8  18  34  54  79 109 150 188 233 281 335
#     4  10  21  38  57  82 117 153 193 240 290 349
#     4   9  18  35  57  86 118 147 185 235 289 342
#     4  10  22  38  56  86 116 148 200 256 292 336
#
# _framework density 20.068480000000001
#
# number of rings (size 3 to 8) (size 9 to 14) (size 15 to 20)
#    0.000    2.615    0.000    3.231    0.000    3.385 
#    8.308    8.077    0.000    0.000    0.000    0.000 
#    0.000    0.000    0.000    1.692    0.000    0.000 
#
# Total GULP energy -644405.406070 kJ/mol
# GULP energy per Si atom -12392.411655 kJ/mol
# Density = 2.002280 g / cm^3
# Si number density = 20.068480 Si / 1000 Ang^3
#
#
#
# Elastic Constant Matrix: (Units=GPa)
#
#
# Indices 1 2 3 4 5 6 
#
# 1 164.9053 48.5160 65.3625 0.0000 0.0000 0.0000
# 2 48.5160 90.2073 29.7116 0.0000 0.0000 0.0000
# 3 65.3625 29.7116 56.9757 0.0000 0.0000 0.0000
# 4 0.0000 0.0000 0.0000 23.5055 0.0000 0.0000
# 5 0.0000 0.0000 0.0000 0.0000 43.3625 0.0000
# 6 0.0000 0.0000 0.0000 0.0000 0.0000 39.7392
#
#
#
# Elastic Compliance Matrix: (Units=1/GPa)
#
#
# Indices 1 2 3 4 5 6 
#
# 1 0.011477 -0.002217 -0.012010 0.000000 0.000000 0.000000
# 2 -0.002217 0.013813 -0.004660 0.000000 0.000000 0.000000
# 3 -0.012010 -0.004660 0.033759 0.000000 0.000000 0.000000
# 4 0.000000 0.000000 0.000000 0.042543 0.000000 0.000000
# 5 0.000000 0.000000 0.000000 0.000000 0.023061 0.000000
# 6 0.000000 0.000000 0.000000 0.000000 0.000000 0.025164
#
#
# Mechanical properties :
#
#
# Convention : Reuss Voigt Hill
#
# Bulk Modulus (GPa) = 47.00321 66.58539 56.79430
# Shear Modulus (GPa) = 25.68291 32.55466 29.11879
#
# Velocity S-wave (km/s) = 3.58126 4.03200 3.81329
# Velocity P-wave (km/s) = 6.36968 7.41128 6.91014
#
# Compressibility (1/GPa) = 0.02127514
#
# Stress axis : x y z
#
# Youngs Moduli (GPa) = 87.13415 72.39746 29.62156
#
# Poissons Ratio (x) = 0.16048 0.35575
# Poissons Ratio (y) = 0.19315 0.13804
# Poissons Ratio (z) = 1.04648 0.33737
#
# Static dielectric constant tensor:
#      x y z
#    x 3.972080 0.000000 0.000000 
#    y 0.000000 3.821120 0.000000 
#    z 0.000000 0.000000 3.364390 
# 
# 
# High freq. dielectric constant tensor:
#      x y z
#    x 1.800640 0.000000 0.000000 
#    y 0.000000 1.785630 0.000000 
#    z 0.000000 0.000000 1.751990 
# 
# From -- ./inp_files/42944.got.cif
#   From: 2010.03.12/outbox.cif.g09.slc.cpg/sg66_22_cif.got.tgz:42944.got - 2010.04.10 21:57:39.
