data_PCOD8276732
_publ_section_title
;
Structure prediction by ZEFSAII (Michael W. Deem and Ramdas Pophale) SiO2 
 PCOD8276732
Probable space group: C C C M
;
_chemical_formula_sum "Si O2"
_cell_formula_units_Z 72
_cell_length_a 20.633525
_cell_length_b 9.258206
_cell_length_c 19.481917
_cell_angle_alpha 90.000000
_cell_angle_beta 90.000000
_cell_angle_gamma 90.000000
_cell_volume 3721.619402
_symmetry_space_group_name_H-M "C C C M"
_symmetry_group_IT_number 66
_symmetry_cell_setting 'orthorhombic'
loop_
_space_group_symop_operation_xyz
x,y,z
-x,-y,z
x,-y,1/2-z
-x,y,1/2-z
-x,-y,-z
x,y,-z
-x,y,1/2+z
x,-y,1/2+z
1/2+x,1/2+y,z
1/2-x,1/2-y,z
1/2+x,1/2-y,1/2-z
1/2-x,1/2+y,1/2-z
1/2-x,1/2-y,-z
1/2+x,1/2+y,-z
1/2-x,1/2+y,1/2+z
1/2+x,1/2-y,1/2+z
loop_
_atom_site_type_symbol
_atom_site_label
_atom_site_fract_x
_atom_site_fract_y
_atom_site_fract_z
Si Si1 0.275835 0.411285 0.367768
Si Si2 0.651459 0.876040 0.000000
Si Si3 0.364648 0.997658 0.356085
Si Si4 0.425545 0.201266 0.744576
Si Si5 0.129057 0.000000 0.250000
Si Si6 0.303328 0.436851 0.000000
O O1 0.250000 0.250000 0.378907
O O2 0.212931 0.506450 0.351725
O O3 0.325686 0.431936 0.307300
O O4 0.316151 0.464991 0.433651
O O5 0.616555 0.950961 0.934054
O O6 0.647209 0.700375 0.000000
O O7 0.727734 0.900355 0.000000
O O8 0.386274 0.877176 0.303597
O O9 0.396803 0.150714 0.330554
O O10 0.500000 0.155721 0.750000
O O11 0.418690 0.368076 0.765664
#
# Coordination Sequence:
#
# PCOD8276732 Si02
#       6
#    16   8  16  16   8   8
#     4  11  21  35  58  91 120 150 187 234 293 350
#     4   9  18  34  57  89 113 151 186 234 287 352
#     4  10  20  37  61  84 115 147 190 236 285 345
#     4  11  23  40  57  80 113 156 199 241 286 336
#     4  12  23  36  58  86 117 152 190 244 290 338
#     4   9  19  34  54  85 129 154 173 222 301 361
#
# _framework density 19.346418
#
# number of rings (size 3 to 8) (size 9 to 14) (size 15 to 20)
#    0.000    1.556    2.222    4.667    0.000    1.778 
#    0.000    2.222    0.000    0.000    0.000    6.222 
#    0.000    0.000    0.000    0.000    0.000    0.000 
#
# Total GULP energy -446028.678589 kJ/mol
# GULP energy per Si atom -12389.685516 kJ/mol
# Density = 1.930238 g / cm^3
# Si number density = 19.346418 Si / 1000 Ang^3
#
#
#
# Elastic Constant Matrix: (Units=GPa)
#
#
# Indices 1 2 3 4 5 6 
#
# 1 52.5072 9.5064 17.9551 0.0000 0.0000 0.0000
# 2 9.5064 138.1462 40.7245 0.0000 0.0000 0.0000
# 3 17.9551 40.7245 111.6655 0.0000 0.0000 0.0000
# 4 0.0000 0.0000 0.0000 29.6803 0.0000 0.0000
# 5 0.0000 0.0000 0.0000 0.0000********** 0.0000
# 6 0.0000 0.0000 0.0000 0.0000 0.0000 7.2148
#
#
#
# Elastic Compliance Matrix: (Units=1/GPa)
#
#
# Indices 1 2 3 4 5 6 
#
# 1 0.020182 -0.000484 -0.003069 0.000000 0.000000 0.000000
# 2 -0.000484 0.008122 -0.002884 0.000000 0.000000 0.000000
# 3 -0.003069 -0.002884 0.010501 0.000000 0.000000 0.000000
# 4 0.000000 0.000000 0.000000 0.033692 0.000000 0.000000
# 5 0.000000 0.000000 0.000000 0.000000 -0.000063 0.000000
# 6 0.000000 0.000000 0.000000 0.000000 0.000000 0.138604
#
#
# Mechanical properties :
#
#
# Convention : Reuss Voigt Hill
#
# Bulk Modulus (GPa) = 38.56431 48.74342 43.65386
# Shear Modulus (GPa) = 21.50021 -3142.46462 -1560.48221
#
# Velocity S-wave (km/s) = 3.33727 -40.34650 -28.43152
# Velocity P-wave (km/s) = 5.90142 46.31634 32.48366
#
# Compressibility (1/GPa) = 0.02593071
#
# Stress axis : x y z
#
# Youngs Moduli (GPa) = 49.54918 123.11757 95.23226
#
# Poissons Ratio (x) = 0.05962 0.29222
# Poissons Ratio (y) = 0.02399 0.27468
# Poissons Ratio (z) = 0.15204 0.35511
#
# Static dielectric constant tensor:
#      x y z
#    x 3.347140 0.000000 0.000000 
#    y 0.000000 3.870760 0.000000 
#    z 0.000000 0.000000 3.881960 
# 
# 
# High freq. dielectric constant tensor:
#      x y z
#    x 1.723900 0.000000 0.000000 
#    y 0.000000 1.766050 0.000000 
#    z 0.000000 0.000000 1.753370 
# 
# From -- ./inp_files/43465.got.cif
#   From: 2010.03.12/outbox.cif.g09.slc.cpg/sg66_22_cif.got.tgz:43465.got - 2010.04.10 21:57:39.
