data_PCOD8276627
_publ_section_title
;
Structure prediction by ZEFSAII (Michael W. Deem and Ramdas Pophale) SiO2 
 PCOD8276627
Probable space group: C C C M
;
_chemical_formula_sum "Si O2"
_cell_formula_units_Z 56
_cell_length_a 13.860658
_cell_length_b 11.191208
_cell_length_c 17.258633
_cell_angle_alpha 90.000000
_cell_angle_beta 90.000000
_cell_angle_gamma 90.000000
_cell_volume 2677.116120
_symmetry_space_group_name_H-M "C C C M"
_symmetry_group_IT_number 66
_symmetry_cell_setting 'orthorhombic'
loop_
_space_group_symop_operation_xyz
x,y,z
-x,-y,z
x,-y,1/2-z
-x,y,1/2-z
-x,-y,-z
x,y,-z
-x,y,1/2+z
x,-y,1/2+z
1/2+x,1/2+y,z
1/2-x,1/2-y,z
1/2+x,1/2-y,1/2-z
1/2-x,1/2+y,1/2-z
1/2-x,1/2-y,-z
1/2+x,1/2+y,-z
1/2-x,1/2+y,1/2+z
1/2+x,1/2-y,1/2+z
loop_
_atom_site_type_symbol
_atom_site_label
_atom_site_fract_x
_atom_site_fract_y
_atom_site_fract_z
Si Si1 0.246996 0.005906 0.161094
Si Si2 0.913257 0.182115 0.301498
Si Si3 0.250000 0.750000 0.190035
Si Si4 0.931412 0.393066 0.590038
O O1 0.143217 0.071925 0.157737
O O2 0.320098 0.073927 0.105119
O O3 0.283482 0.000000 0.250000
O O4 0.239911 0.866769 0.134935
O O5 0.841906 0.258429 0.247054
O O6 0.957637 0.271222 0.365571
O O7 0.000000 0.129059 0.250000
O O8 0.948064 0.368878 0.500000
O O9 0.000000 0.500000 0.619949
#
# Coordination Sequence:
#
# PCOD8276627 Si02
#       4
#    16  16   8  16
#     4  10  20  37  58  91 124 162 214 262 318 375
#     4  11  21  36  62  93 125 167 211 270 318 382
#     4  10  20  36  58  92 122 162 216 256 320 372
#     4  11  23  38  61  94 127 167 216 265 321 381
#
# _framework density 20.918032
#
# number of rings (size 3 to 8) (size 9 to 14) (size 15 to 20)
#    0.000    1.429    5.714    1.714    0.000    7.429 
#    0.000    0.714    0.000    6.857    0.000   30.000 
#    0.000    0.000    0.000    0.000    0.000    0.000 
#
# Total GULP energy -347122.910872 kJ/mol
# GULP energy per Si atom -12397.246817 kJ/mol
# Density = 2.087042 g / cm^3
# Si number density = 20.918032 Si / 1000 Ang^3
#
#
#
# Elastic Constant Matrix: (Units=GPa)
#
#
# Indices 1 2 3 4 5 6 
#
# 1 116.0946 37.1289 20.0897 0.0000 0.0000 0.0000
# 2 37.1289 150.9236 19.6329 0.0000 0.0000 0.0000
# 3 20.0897 19.6329 40.9229 0.0000 0.0000 0.0000
# 4 0.0000 0.0000 0.0000 19.7262 0.0000 0.0000
# 5 0.0000 0.0000 0.0000 0.0000 26.2581 0.0000
# 6 0.0000 0.0000 0.0000 0.0000 0.0000 44.1459
#
#
#
# Elastic Compliance Matrix: (Units=1/GPa)
#
#
# Indices 1 2 3 4 5 6 
#
# 1 0.009912 -0.001926 -0.003942 0.000000 0.000000 0.000000
# 2 -0.001926 0.007441 -0.002625 0.000000 0.000000 0.000000
# 3 -0.003942 -0.002625 0.027630 0.000000 0.000000 0.000000
# 4 0.000000 0.000000 0.000000 0.050694 0.000000 0.000000
# 5 0.000000 0.000000 0.000000 0.000000 0.038083 0.000000
# 6 0.000000 0.000000 0.000000 0.000000 0.000000 0.022652
#
#
# Mechanical properties :
#
#
# Convention : Reuss Voigt Hill
#
# Bulk Modulus (GPa) = 35.71564 51.29379 43.50472
# Shear Modulus (GPa) = 27.36277 33.43201 30.39739
#
# Velocity S-wave (km/s) = 3.62068 4.00214 3.81618
# Velocity P-wave (km/s) = 5.88135 6.77722 6.34511
#
# Compressibility (1/GPa) = 0.02799893
#
# Stress axis : x y z
#
# Youngs Moduli (GPa) = 100.89146 134.39057 36.19189
#
# Poissons Ratio (x) = 0.25878 0.14267
# Poissons Ratio (y) = 0.19428 0.09499
# Poissons Ratio (z) = 0.39771 0.35271
#
# Static dielectric constant tensor:
#      x y z
#    x 3.838630 0.000000 0.000000 
#    y 0.000000 4.177180 0.000000 
#    z 0.000000 0.000000 3.292840 
# 
# 
# High freq. dielectric constant tensor:
#      x y z
#    x 1.816760 0.000000 0.000000 
#    y 0.000000 1.839330 0.000000 
#    z 0.000000 0.000000 1.765090 
# 
# From -- ./inp_files/27532.got.cif
#   From: 2010.03.12/outbox.cif.g09.slc.cpg/sg66_14_cif.got.tgz:27532.got - 2010.04.10 21:57:39.
