data_PCOD8276385
_publ_section_title
;
Structure prediction by ZEFSAII (Michael W. Deem and Ramdas Pophale) SiO2 
 PCOD8276385
Probable space group: C C C M
;
_chemical_formula_sum "Si O2"
_cell_formula_units_Z 80
_cell_length_a 18.533422
_cell_length_b 26.946597
_cell_length_c 8.664979
_cell_angle_alpha 90.000000
_cell_angle_beta 90.000000
_cell_angle_gamma 90.000000
_cell_volume 4327.400156
_symmetry_space_group_name_H-M "C C C M"
_symmetry_group_IT_number 66
_symmetry_cell_setting 'orthorhombic'
loop_
_space_group_symop_operation_xyz
x,y,z
-x,-y,z
x,-y,1/2-z
-x,y,1/2-z
-x,-y,-z
x,y,-z
-x,y,1/2+z
x,-y,1/2+z
1/2+x,1/2+y,z
1/2-x,1/2-y,z
1/2+x,1/2-y,1/2-z
1/2-x,1/2+y,1/2-z
1/2-x,1/2-y,-z
1/2+x,1/2+y,-z
1/2-x,1/2+y,1/2+z
1/2+x,1/2-y,1/2+z
loop_
_atom_site_type_symbol
_atom_site_label
_atom_site_fract_x
_atom_site_fract_y
_atom_site_fract_z
Si Si1 0.711101 0.398816 0.181315
Si Si2 0.277355 0.804110 0.679938
Si Si3 0.076332 0.946693 0.682985
Si Si4 0.152819 0.551765 0.316538
Si Si5 0.075015 0.350084 0.178676
O O1 0.733607 0.342607 0.216689
O O2 0.634892 0.406810 0.263872
O O3 0.767979 0.438093 0.249235
O O4 0.704033 0.407324 0.000000
O O5 0.263000 0.815902 0.500000
O O6 0.250000 0.750000 0.726848
O O7 0.362804 0.809652 0.716137
O O8 0.071741 0.949889 0.500000
O O9 0.000000 0.928942 0.750000
O O10 0.098374 0.000000 0.750000
O O11 0.122801 0.500000 0.250000
O O12 0.158035 0.549830 0.500000
O O13 0.099589 0.595678 0.259548
O O14 0.000000 0.332236 0.250000
O O15 0.060950 0.354376 0.000000
#
# Coordination Sequence:
#
# PCOD8276385 Si02
#       5
#    16  16  16  16  16
#     4  11  21  34  53  78 106 137 175 219 265 314
#     4   9  19  38  60  79 102 136 176 218 267 317
#     4  11  21  35  53  76 107 142 179 218 264 316
#     4  10  20  34  51  75 105 140 179 215 256 305
#     4   9  19  34  53  77 105 137 171 210 258 310
#
# _framework density 18.486851999999999
#
# number of rings (size 3 to 8) (size 9 to 14) (size 15 to 20)
#    0.000    2.000    0.000    6.600    0.000    4.800 
#    0.000    3.000    0.000    2.400    0.000    0.000 
#    0.000    0.000    0.000    0.000    0.000    0.000 
#
# Total GULP energy -496072.393916 kJ/mol
# GULP energy per Si atom -12401.809848 kJ/mol
# Density = 1.844478 g / cm^3
# Si number density = 18.486852 Si / 1000 Ang^3
#
#
#
# Elastic Constant Matrix: (Units=GPa)
#
#
# Indices 1 2 3 4 5 6 
#
# 1 131.7662 48.1340 41.4035 0.0000 0.0000 0.0000
# 2 48.1340 92.5398 25.9933 0.0000 0.0000 0.0000
# 3 41.4035 25.9933 105.3197 0.0000 0.0000 0.0000
# 4 0.0000 0.0000 0.0000 10.8265 0.0000 0.0000
# 5 0.0000 0.0000 0.0000 0.0000 32.8338 0.0000
# 6 0.0000 0.0000 0.0000 0.0000 0.0000 20.8191
#
#
#
# Elastic Compliance Matrix: (Units=1/GPa)
#
#
# Indices 1 2 3 4 5 6 
#
# 1 0.010122 -0.004456 -0.002879 0.000000 0.000000 0.000000
# 2 -0.004456 0.013573 -0.001598 0.000000 0.000000 0.000000
# 3 -0.002879 -0.001598 0.011021 0.000000 0.000000 0.000000
# 4 0.000000 0.000000 0.000000 0.092366 0.000000 0.000000
# 5 0.000000 0.000000 0.000000 0.000000 0.030456 0.000000
# 6 0.000000 0.000000 0.000000 0.000000 0.000000 0.048033
#
#
# Mechanical properties :
#
#
# Convention : Reuss Voigt Hill
#
# Bulk Modulus (GPa) = 59.35072 62.29860 60.82466
# Shear Modulus (GPa) = 21.82889 27.16887 24.49888
#
# Velocity S-wave (km/s) = 3.43997 3.83774 3.64429
# Velocity P-wave (km/s) = 6.92473 7.30819 7.11904
#
# Compressibility (1/GPa) = 0.01684899
#
# Stress axis : x y z
#
# Youngs Moduli (GPa) = 98.79771 73.67689 90.73398
#
# Poissons Ratio (x) = 0.32830 0.26125
# Poissons Ratio (y) = 0.44024 0.14500
# Poissons Ratio (z) = 0.28447 0.11774
#
# Static dielectric constant tensor:
#      x y z
#    x 3.561900 0.000000 0.000000 
#    y 0.000000 3.306270 0.000000 
#    z 0.000000 0.000000 3.386990 
# 
# 
# High freq. dielectric constant tensor:
#      x y z
#    x 1.719210 0.000000 0.000000 
#    y 0.000000 1.700170 0.000000 
#    z 0.000000 0.000000 1.724590 
# 
# From -- ./inp_files/6676.got.cif
#   From: 2010.03.12/outbox.cif.g09.slc.cpg/sg66_4_cif.got.tgz:6676.got - 2010.04.10 21:57:39.
