data_PCOD8276052
_publ_section_title
;
Structure prediction by ZEFSAII (Michael W. Deem and Ramdas Pophale) SiO2 
 PCOD8276052
Probable space group: C C C M
;
_chemical_formula_sum "Si O2"
_cell_formula_units_Z 96
_cell_length_a 30.332334
_cell_length_b 20.657339
_cell_length_c 8.839529
_cell_angle_alpha 90.000000
_cell_angle_beta 90.000000
_cell_angle_gamma 90.000000
_cell_volume 5538.718984
_symmetry_space_group_name_H-M "C C C M"
_symmetry_group_IT_number 66
_symmetry_cell_setting 'orthorhombic'
loop_
_space_group_symop_operation_xyz
x,y,z
-x,-y,z
x,-y,1/2-z
-x,y,1/2-z
-x,-y,-z
x,y,-z
-x,y,1/2+z
x,-y,1/2+z
1/2+x,1/2+y,z
1/2-x,1/2-y,z
1/2+x,1/2-y,1/2-z
1/2-x,1/2+y,1/2-z
1/2-x,1/2-y,-z
1/2+x,1/2+y,-z
1/2-x,1/2+y,1/2+z
1/2+x,1/2-y,1/2+z
loop_
_atom_site_type_symbol
_atom_site_label
_atom_site_fract_x
_atom_site_fract_y
_atom_site_fract_z
Si Si1 0.932336 0.062771 0.825121
Si Si2 0.752847 0.565582 0.824381
Si Si3 0.152882 0.093751 0.829929
Si Si4 0.866395 0.759817 0.824801
Si Si5 0.785323 0.696527 0.320573
Si Si6 0.955144 0.795053 0.680118
O O1 0.880161 0.060976 0.788897
O O2 0.951894 0.130216 0.762634
O O3 0.955521 0.000000 0.750000
O O4 0.940693 0.057186 0.000000
O O5 0.772035 0.500000 0.750000
O O6 0.700446 0.563863 0.803841
O O7 0.771918 0.626075 0.735121
O O8 0.766421 0.569781 0.000000
O O9 0.155325 0.170265 0.800411
O O10 0.135355 0.080341 0.000000
O O11 0.833499 0.709417 0.747474
O O12 0.913991 0.754828 0.744444
O O13 0.872380 0.742186 0.000000
O O14 0.788242 0.697402 0.500000
O O15 0.750000 0.750000 0.262887
O O16 0.955401 0.790008 0.500000
O O17 0.000000 0.765803 0.750000
#
# Coordination Sequence:
#
# PCOD8276052 Si02
#       6
#    16  16  16  16  16  16
#     4  10  20  31  45  64  90 124 166 212 259 310
#     4  11  22  35  50  73 105 141 180 222 266 313
#     4   9  18  31  48  69  95 130 171 214 260 307
#     4  10  19  34  55  77 101 132 171 216 263 313
#     4  11  22  35  54  79 107 141 180 221 263 315
#     4  10  21  36  52  72  96 126 164 212 265 316
#
# _framework density 17.332528
#
# number of rings (size 3 to 8) (size 9 to 14) (size 15 to 20)
#    0.000    1.833    1.667    3.000    0.000    6.333 
#    0.000    1.667    0.000    0.000    0.000    0.000 
#    0.000    0.667    0.000    6.667    0.000    4.000 
#
# Total GULP energy -595268.767552 kJ/mol
# GULP energy per Si atom -12401.432657 kJ/mol
# Density = 1.729308 g / cm^3
# Si number density = 17.332528 Si / 1000 Ang^3
#
#
#
# Elastic Constant Matrix: (Units=GPa)
#
#
# Indices 1 2 3 4 5 6 
#
# 1 88.5260 29.3491 39.6192 0.0000 0.0000 0.0000
# 2 29.3491 71.1855 26.0292 0.0000 0.0000 0.0000
# 3 39.6192 26.0292 80.0897 0.0000 0.0000 0.0000
# 4 0.0000 0.0000 0.0000 27.4559 0.0000 0.0000
# 5 0.0000 0.0000 0.0000 0.0000 27.5047 0.0000
# 6 0.0000 0.0000 0.0000 0.0000 0.0000 7.5249
#
#
#
# Elastic Compliance Matrix: (Units=1/GPa)
#
#
# Indices 1 2 3 4 5 6 
#
# 1 0.015480 -0.004065 -0.006336 0.000000 0.000000 0.000000
# 2 -0.004065 0.017010 -0.003517 0.000000 0.000000 0.000000
# 3 -0.006336 -0.003517 0.016764 0.000000 0.000000 0.000000
# 4 0.000000 0.000000 0.000000 0.036422 0.000000 0.000000
# 5 0.000000 0.000000 0.000000 0.000000 0.036357 0.000000
# 6 0.000000 0.000000 0.000000 0.000000 0.000000 0.132893
#
#
# Mechanical properties :
#
#
# Convention : Reuss Voigt Hill
#
# Bulk Modulus (GPa) = 46.69499 47.75516 47.22507
# Shear Modulus (GPa) = 17.24724 22.15067 19.69896
#
# Velocity S-wave (km/s) = 3.15791 3.57877 3.37490
# Velocity P-wave (km/s) = 6.34789 6.68498 6.51861
#
# Compressibility (1/GPa) = 0.02141557
#
# Stress axis : x y z
#
# Youngs Moduli (GPa) = 64.60088 58.78914 59.65293
#
# Poissons Ratio (x) = 0.23899 0.37798
# Poissons Ratio (y) = 0.26262 0.20981
# Poissons Ratio (z) = 0.40934 0.20678
#
# Static dielectric constant tensor:
#      x y z
#    x 3.105900 0.000000 0.000000 
#    y 0.000000 3.026890 0.000000 
#    z 0.000000 0.000000 3.272950 
# 
# 
# High freq. dielectric constant tensor:
#      x y z
#    x 1.655030 0.000000 0.000000 
#    y 0.000000 1.636620 0.000000 
#    z 0.000000 0.000000 1.683380 
# 
# From -- ./inp_files/7949.got.cif
#   From: 2010.03.12/outbox.cif.g09.slc.cpg/sg66_4_cif.got.tgz:7949.got - 2010.04.10 21:57:39.
