data_PCOD8276708
_publ_section_title
;
Structure prediction by ZEFSAII (Michael W. Deem and Ramdas Pophale) SiO2 
 PCOD8276708
Probable space group: C C C M
;
_chemical_formula_sum "Si O2"
_cell_formula_units_Z 116
_cell_length_a 17.886690
_cell_length_b 24.838379
_cell_length_c 13.486783
_cell_angle_alpha 90.000000
_cell_angle_beta 90.000000
_cell_angle_gamma 90.000000
_cell_volume 5991.859200
_symmetry_space_group_name_H-M "C C C M"
_symmetry_group_IT_number 66
_symmetry_cell_setting 'orthorhombic'
loop_
_space_group_symop_operation_xyz
x,y,z
-x,-y,z
x,-y,1/2-z
-x,y,1/2-z
-x,-y,-z
x,y,-z
-x,y,1/2+z
x,-y,1/2+z
1/2+x,1/2+y,z
1/2-x,1/2-y,z
1/2+x,1/2-y,1/2-z
1/2-x,1/2+y,1/2-z
1/2-x,1/2-y,-z
1/2+x,1/2+y,-z
1/2-x,1/2+y,1/2+z
1/2+x,1/2-y,1/2+z
loop_
_atom_site_type_symbol
_atom_site_label
_atom_site_fract_x
_atom_site_fract_y
_atom_site_fract_z
Si Si1 0.677871 0.220097 0.218059
Si Si2 0.942424 0.205161 0.883321
Si Si3 0.529795 0.104128 0.391707
Si Si4 0.431273 0.218704 0.110510
Si Si5 0.000000 0.000000 0.750000
Si Si6 0.091055 0.914194 0.882807
Si Si7 0.737884 0.887800 0.616995
Si Si8 0.107980 0.440537 0.716328
O O1 0.750000 0.250000 0.257785
O O2 0.628967 0.262927 0.157069
O O3 0.635671 0.202846 0.317428
O O4 0.705094 0.169100 0.154197
O O5 0.947998 0.142329 0.854548
O O6 0.020879 0.231140 0.847260
O O7 0.934543 0.211286 0.000000
O O8 0.556391 0.084311 0.500000
O O9 0.512159 0.167912 0.392888
O O10 0.454029 0.073936 0.364830
O O11 0.597176 0.095231 0.314651
O O12 0.399760 0.230731 0.000000
O O13 0.946571 0.962388 0.681133
O O14 0.177564 0.903254 0.854046
O O15 0.082741 0.928045 0.000000
O O16 0.727883 0.888591 0.500000
O O17 0.689158 0.934213 0.668684
O O18 0.093580 0.500000 0.750000
#
# Coordination Sequence:
#
# PCOD8276708 Si02
#       8
#    16  16  16  16   4  16  16  16
#     4  12  22  35  63  94 126 158 197 244 312 376
#     4  10  21  37  60  92 125 157 202 250 303 371
#     4  10  20  37  57  84 120 164 209 251 295 350
#     4  10  22  38  59  87 126 167 201 242 297 371
#     4  12  26  44  76  90 124 162 210 264 310 366
#     4  10  24  44  67  95 123 157 205 261 316 367
#     4  11  23  41  62  91 127 159 199 255 316 369
#     4  11  23  36  57  84 117 160 211 254 301 355
#
# _framework density 19.3596
#
# number of rings (size 3 to 8) (size 9 to 14) (size 15 to 20)
#    0.000    1.379    2.759    3.103    4.828    3.586 
#    0.000    0.000    0.000    1.655    0.000    0.000 
#    0.000    0.000    0.000    0.000    0.000    0.000 
#
# Total GULP energy -718821.689890 kJ/mol
# GULP energy per Si atom -12393.477412 kJ/mol
# Density = 1.931554 g / cm^3
# Si number density = 19.359600 Si / 1000 Ang^3
#
#
#
# Elastic Constant Matrix: (Units=GPa)
#
#
# Indices 1 2 3 4 5 6 
#
# 1 104.8636 52.5204 61.9911 0.0000 0.0000 0.0000
# 2 52.5204 109.6839 46.6086 0.0000 0.0000 0.0000
# 3 61.9911 46.6086 110.6356 0.0000 0.0000 0.0000
# 4 0.0000 0.0000 0.0000 31.1091 0.0000 0.0000
# 5 0.0000 0.0000 0.0000 0.0000 25.3268 0.0000
# 6 0.0000 0.0000 0.0000 0.0000 0.0000 40.9465
#
#
#
# Elastic Compliance Matrix: (Units=1/GPa)
#
#
# Indices 1 2 3 4 5 6 
#
# 1 0.016029 -0.004700 -0.007001 0.000000 0.000000 0.000000
# 2 -0.004700 0.012483 -0.002625 0.000000 0.000000 0.000000
# 3 -0.007001 -0.002625 0.014068 0.000000 0.000000 0.000000
# 4 0.000000 0.000000 0.000000 0.032145 0.000000 0.000000
# 5 0.000000 0.000000 0.000000 0.000000 0.039484 0.000000
# 6 0.000000 0.000000 0.000000 0.000000 0.000000 0.024422
#
#
# Mechanical properties :
#
#
# Convention : Reuss Voigt Hill
#
# Bulk Modulus (GPa) = 71.80625 71.93593 71.87109
# Shear Modulus (GPa) = 29.08211 30.41401 29.74806
#
# Velocity S-wave (km/s) = 3.88004 3.96789 3.92421
# Velocity P-wave (km/s) = 7.56599 7.63090 7.59851
#
# Compressibility (1/GPa) = 0.01392636
#
# Stress axis : x y z
#
# Youngs Moduli (GPa) = 62.38624 80.10673 71.08494
#
# Poissons Ratio (x) = 0.37652 0.49769
# Poissons Ratio (y) = 0.29323 0.18663
# Poissons Ratio (z) = 0.43679 0.21031
#
# Static dielectric constant tensor:
#      x y z
#    x 3.536410 0.000000 0.000000 
#    y 0.000000 3.745830 0.000000 
#    z 0.000000 0.000000 3.593530 
# 
# 
# High freq. dielectric constant tensor:
#      x y z
#    x 1.741130 0.000000 0.000000 
#    y 0.000000 1.758230 0.000000 
#    z 0.000000 0.000000 1.764940 
# 
# From -- ./inp_files/30386.got.cif
#   From: 2010.03.12/outbox.cif.g09.slc.cpg/sg66_16_cif.got.tgz:30386.got - 2010.04.10 21:57:39.
