data_PCOD8276838
_publ_section_title
;
Structure prediction by ZEFSAII (Michael W. Deem and Ramdas Pophale) SiO2 
 PCOD8276838
Probable space group: C C C M
;
_chemical_formula_sum "Si O2"
_cell_formula_units_Z 112
_cell_length_a 23.180276
_cell_length_b 15.915581
_cell_length_c 14.851107
_cell_angle_alpha 90.000000
_cell_angle_beta 90.000000
_cell_angle_gamma 90.000000
_cell_volume 5478.982673
_symmetry_space_group_name_H-M "C C C M"
_symmetry_group_IT_number 66
_symmetry_cell_setting 'orthorhombic'
loop_
_space_group_symop_operation_xyz
x,y,z
-x,-y,z
x,-y,1/2-z
-x,y,1/2-z
-x,-y,-z
x,y,-z
-x,y,1/2+z
x,-y,1/2+z
1/2+x,1/2+y,z
1/2-x,1/2-y,z
1/2+x,1/2-y,1/2-z
1/2-x,1/2+y,1/2-z
1/2-x,1/2-y,-z
1/2+x,1/2+y,-z
1/2-x,1/2+y,1/2+z
1/2+x,1/2-y,1/2+z
loop_
_atom_site_type_symbol
_atom_site_label
_atom_site_fract_x
_atom_site_fract_y
_atom_site_fract_z
Si Si1 0.686094 0.785694 0.397123
Si Si2 0.136696 0.287465 0.096607
Si Si3 0.820050 0.596138 0.766848
Si Si4 0.958244 0.170924 0.367278
Si Si5 0.892915 0.989604 0.898986
Si Si6 0.712057 0.629011 0.104934
Si Si7 0.416086 0.333493 0.331926
O O1 0.673862 0.813597 0.500000
O O2 0.750000 0.750000 0.388321
O O3 0.683473 0.865949 0.332808
O O4 0.638518 0.717649 0.367609
O O5 0.129959 0.358012 0.174325
O O6 0.077711 0.237609 0.075215
O O7 0.187191 0.221907 0.125523
O O8 0.153486 0.328890 0.000000
O O9 0.835676 0.500000 0.750000
O O10 0.763421 0.609840 0.826988
O O11 0.934297 0.190198 0.267990
O O12 0.025712 0.185942 0.388272
O O13 0.946604 0.074420 0.394189
O O14 0.901062 0.067718 0.832495
O O15 0.835589 0.940092 0.870921
O O16 0.887501 0.025754 0.000000
O O17 0.730452 0.621971 0.000000
#
# Coordination Sequence:
#
# PCOD8276838 Si02
#       7
#    16  16  16  16  16  16  16
#     4  11  26  44  62  88 125 170 215 253 307 380
#     4  10  20  39  64  91 121 154 207 261 308 367
#     4  12  25  39  62  86 118 163 206 268 322 361
#     4  10  21  37  62  94 124 166 213 249 305 372
#     4  10  21  34  55  95 135 166 206 245 295 377
#     4   9  20  37  60  91 125 164 206 252 306 369
#     4  11  22  39  62  88 132 172 203 252 305 374
#
# _framework density 20.441751
#
# number of rings (size 3 to 8) (size 9 to 14) (size 15 to 20)
#    0.000    1.571    1.429    4.286    4.000    6.286 
#    0.000    0.000    0.000    1.714    0.000    2.000 
#    0.000    0.000    0.000    0.000    0.000    0.000 
#
# Total GULP energy -694078.749973 kJ/mol
# GULP energy per Si atom -12394.263392 kJ/mol
# Density = 2.039523 g / cm^3
# Si number density = 20.441751 Si / 1000 Ang^3
#
#
#
# Elastic Constant Matrix: (Units=GPa)
#
#
# Indices 1 2 3 4 5 6 
#
# 1 113.1700 44.0998 29.1040 0.0000 0.0000 0.0000
# 2 44.0998 128.0429 58.2671 0.0000 0.0000 0.0000
# 3 29.1040 58.2671 108.9075 0.0000 0.0000 0.0000
# 4 0.0000 0.0000 0.0000 18.4496 0.0000 0.0000
# 5 0.0000 0.0000 0.0000 0.0000 38.1761 0.0000
# 6 0.0000 0.0000 0.0000 0.0000 0.0000 17.6922
#
#
#
# Elastic Compliance Matrix: (Units=1/GPa)
#
#
# Indices 1 2 3 4 5 6 
#
# 1 0.010310 -0.003036 -0.001131 0.000000 0.000000 0.000000
# 2 -0.003036 0.011217 -0.005190 0.000000 0.000000 0.000000
# 3 -0.001131 -0.005190 0.012261 0.000000 0.000000 0.000000
# 4 0.000000 0.000000 0.000000 0.054202 0.000000 0.000000
# 5 0.000000 0.000000 0.000000 0.000000 0.026194 0.000000
# 6 0.000000 0.000000 0.000000 0.000000 0.000000 0.056522
#
#
# Mechanical properties :
#
#
# Convention : Reuss Voigt Hill
#
# Bulk Modulus (GPa) = 66.33810 68.11803 67.22807
# Shear Modulus (GPa) = 25.71405 29.44021 27.57713
#
# Velocity S-wave (km/s) = 3.55056 3.79911 3.67694
# Velocity P-wave (km/s) = 7.02363 7.25532 7.14041
#
# Compressibility (1/GPa) = 0.01507429
#
# Stress axis : x y z
#
# Youngs Moduli (GPa) = 96.99039 89.14662 81.55913
#
# Poissons Ratio (x) = 0.27069 0.09222
# Poissons Ratio (y) = 0.29451 0.42330
# Poissons Ratio (z) = 0.10967 0.46268
#
# Static dielectric constant tensor:
#      x y z
#    x 3.829460 0.000000 0.000000 
#    y 0.000000 3.557820 0.000000 
#    z 0.000000 0.000000 4.028690 
# 
# 
# High freq. dielectric constant tensor:
#      x y z
#    x 1.791030 0.000000 0.000000 
#    y 0.000000 1.770430 0.000000 
#    z 0.000000 0.000000 1.822480 
# 
# From -- ./inp_files/32500.got.cif
#   From: 2010.03.12/outbox.cif.g09.slc.cpg/sg66_17_cif.got.tgz:32500.got - 2010.04.10 21:57:39.
