data_PCOD8276929
_publ_section_title
;
Structure prediction by ZEFSAII (Michael W. Deem and Ramdas Pophale) SiO2 
 PCOD8276929
Probable space group: C C C M
;
_chemical_formula_sum "Si O2"
_cell_formula_units_Z 96
_cell_length_a 23.399781
_cell_length_b 14.542763
_cell_length_c 14.203739
_cell_angle_alpha 90.000000
_cell_angle_beta 90.000000
_cell_angle_gamma 90.000000
_cell_volume 4833.496437
_symmetry_space_group_name_H-M "C C C M"
_symmetry_group_IT_number 66
_symmetry_cell_setting 'orthorhombic'
loop_
_space_group_symop_operation_xyz
x,y,z
-x,-y,z
x,-y,1/2-z
-x,y,1/2-z
-x,-y,-z
x,y,-z
-x,y,1/2+z
x,-y,1/2+z
1/2+x,1/2+y,z
1/2-x,1/2-y,z
1/2+x,1/2-y,1/2-z
1/2-x,1/2+y,1/2-z
1/2-x,1/2-y,-z
1/2+x,1/2+y,-z
1/2-x,1/2+y,1/2+z
1/2+x,1/2-y,1/2+z
loop_
_atom_site_type_symbol
_atom_site_label
_atom_site_fract_x
_atom_site_fract_y
_atom_site_fract_z
Si Si1 0.124700 0.096188 0.795134
Si Si2 0.265122 0.644185 0.181950
Si Si3 0.402232 0.809902 0.500000
Si Si4 0.347540 0.376234 0.000000
Si Si5 0.635411 0.021547 0.000000
Si Si6 0.361859 0.088906 0.697391
Si Si7 0.440233 0.770903 0.295229
Si Si8 0.769011 0.035957 0.000000
O O1 0.187917 0.132880 0.764487
O O2 0.074099 0.166071 0.768165
O O3 0.108865 0.000000 0.750000
O O4 0.120972 0.086626 0.907520
O O5 0.250000 0.750000 0.159503
O O6 0.206431 0.594341 0.210127
O O7 0.291484 0.593096 0.090534
O O8 0.348512 0.736566 0.500000
O O9 0.440556 0.791256 0.407301
O O10 0.381167 0.914455 0.500000
O O11 0.286686 0.428204 0.000000
O O12 0.614305 0.077351 0.908883
O O13 0.702320 0.030279 0.000000
O O14 0.388776 0.176480 0.745535
O O15 0.384747 0.000000 0.750000
O O16 0.500000 0.800550 0.250000
#
# Coordination Sequence:
#
# PCOD8276929 Si02
#       8
#    16  16   8   8   8  16  16   8
#     4  11  22  42  65  91 127 165 209 258 316 381
#     4  11  21  37  61  91 128 168 199 255 315 373
#     4  10  22  44  62  86 126 158 210 265 310 364
#     4  10  22  36  58  93 122 164 202 256 308 372
#     4  10  22  37  60  92 129 166 207 259 302 380
#     4  11  22  39  60  90 128 164 206 251 317 378
#     4  11  25  44  66  91 121 165 215 264 311 369
#     4  10  21  35  58  95 128 159 210 247 310 382
#
# _framework density 19.861398000000001
#
# number of rings (size 3 to 8) (size 9 to 14) (size 15 to 20)
#    0.000    1.333    5.000    0.750    2.333    1.667 
#    0.000    3.333    0.000    3.000    0.000    0.000 
#    0.000    0.000    0.000    0.000    0.000    0.000 
#
# Total GULP energy -594909.057241 kJ/mol
# GULP energy per Si atom -12393.938693 kJ/mol
# Density = 1.981619 g / cm^3
# Si number density = 19.861398 Si / 1000 Ang^3
#
#
#
# Elastic Constant Matrix: (Units=GPa)
#
#
# Indices 1 2 3 4 5 6 
#
# 1 29.5490 16.3162 43.4712 0.0000 0.0000 0.0000
# 2 16.3162 101.4556 39.2293 0.0000 0.0000 0.0000
# 3 43.4712 39.2293 144.7456 0.0000 0.0000 0.0000
# 4 0.0000 0.0000 0.0000 29.1226 0.0000 0.0000
# 5 0.0000 0.0000 0.0000 0.0000 0.7608 0.0000
# 6 0.0000 0.0000 0.0000 0.0000 0.0000 16.1404
#
#
#
# Elastic Compliance Matrix: (Units=1/GPa)
#
#
# Indices 1 2 3 4 5 6 
#
# 1 0.061474 -0.003069 -0.017631 0.000000 0.000000 0.000000
# 2 -0.003069 0.011164 -0.002104 0.000000 0.000000 0.000000
# 3 -0.017631 -0.002104 0.012774 0.000000 0.000000 0.000000
# 4 0.000000 0.000000 0.000000 0.034338 0.000000 0.000000
# 5 0.000000 0.000000 0.000000 0.000000 1.314427 0.000000
# 6 0.000000 0.000000 0.000000 0.000000 0.000000 0.061956
#
#
# Mechanical properties :
#
#
# Convention : Reuss Voigt Hill
#
# Bulk Modulus (GPa) = 25.12289 52.64261 38.88275
# Shear Modulus (GPa) = 3.21542 20.98699 12.10121
#
# Velocity S-wave (km/s) = 1.27375 3.25418 2.47104
# Velocity P-wave (km/s) = 3.85225 6.37825 5.26887
#
# Compressibility (1/GPa) = 0.03980434
#
# Stress axis : x y z
#
# Youngs Moduli (GPa) = 16.26700 89.57693 78.28512
#
# Poissons Ratio (x) = 0.27493 1.38021
# Poissons Ratio (y) = 0.04993 0.16470
# Poissons Ratio (z) = 0.28680 0.18845
#
# Static dielectric constant tensor:
#      x y z
#    x 3.179420 0.000000 0.000000 
#    y 0.000000 3.857530 0.000000 
#    z 0.000000 0.000000 4.262430 
# 
# 
# High freq. dielectric constant tensor:
#      x y z
#    x 1.732880 0.000000 0.000000 
#    y 0.000000 1.789790 0.000000 
#    z 0.000000 0.000000 1.792580 
# 
# From -- ./inp_files/28489.got.cif
#   From: 2010.03.12/outbox.cif.g09.slc.cpg/sg66_15_cif.got.tgz:28489.got - 2010.04.10 21:57:39.
