data_PCOD8276049
_publ_section_title
;
Structure prediction by ZEFSAII (Michael W. Deem and Ramdas Pophale) SiO2 
 PCOD8276049
Probable space group: C C C M
;
_chemical_formula_sum "Si O2"
_cell_formula_units_Z 96
_cell_length_a 30.279859
_cell_length_b 19.582993
_cell_length_c 9.043655
_cell_angle_alpha 90.000000
_cell_angle_beta 90.000000
_cell_angle_gamma 90.000000
_cell_volume 5362.618519
_symmetry_space_group_name_H-M "C C C M"
_symmetry_group_IT_number 66
_symmetry_cell_setting 'orthorhombic'
loop_
_space_group_symop_operation_xyz
x,y,z
-x,-y,z
x,-y,1/2-z
-x,y,1/2-z
-x,-y,-z
x,y,-z
-x,y,1/2+z
x,-y,1/2+z
1/2+x,1/2+y,z
1/2-x,1/2-y,z
1/2+x,1/2-y,1/2-z
1/2-x,1/2+y,1/2-z
1/2-x,1/2-y,-z
1/2+x,1/2+y,-z
1/2-x,1/2+y,1/2+z
1/2+x,1/2-y,1/2+z
loop_
_atom_site_type_symbol
_atom_site_label
_atom_site_fract_x
_atom_site_fract_y
_atom_site_fract_z
Si Si1 0.736932 0.067200 0.828515
Si Si2 0.870027 0.202028 0.674628
Si Si3 0.953940 0.286508 0.328878
Si Si4 0.452777 0.936888 0.327095
Si Si5 0.838272 0.069120 0.174996
Si Si6 0.295895 0.213329 0.328285
O O1 0.787346 0.081229 0.779898
O O2 0.707971 0.133248 0.787893
O O3 0.717352 0.000000 0.750000
O O4 0.735298 0.051459 0.000000
O O5 0.865367 0.190663 0.500000
O O6 0.917775 0.231348 0.719517
O O7 0.866386 0.130968 0.759797
O O8 0.833100 0.255476 0.725091
O O9 0.965122 0.281019 0.500000
O O10 0.932762 0.361753 0.295625
O O11 0.000000 0.271475 0.250000
O O12 0.500000 0.935507 0.250000
O O13 0.456807 0.952210 0.500000
O O14 0.425603 0.000000 0.250000
O O15 0.855985 0.000000 0.250000
O O16 0.844986 0.065275 0.000000
O O17 0.308414 0.224440 0.500000
O O18 0.250000 0.250000 0.293140
#
# Coordination Sequence:
#
# PCOD8276049 Si02
#       6
#    16  16  16  16  16  16
#     4   9  18  32  51  73 103 140 178 218 259 307
#     4  11  22  35  53  81 110 139 176 221 268 318
#     4   9  20  36  53  75 105 137 176 222 268 318
#     4   9  15  26  45  69  95 125 162 208 254 301
#     4  10  19  34  54  79 107 139 176 218 261 313
#     4  10  19  35  53  74 106 142 177 217 261 312
#
# _framework density 17.901702
#
# number of rings (size 3 to 8) (size 9 to 14) (size 15 to 20)
#    0.000    2.333    1.667    2.000    0.000    3.667 
#    0.000    0.833    0.000    4.500    0.000    3.500 
#    0.000    0.000    0.000    0.000    0.000    0.000 
#
# Total GULP energy -595013.122188 kJ/mol
# GULP energy per Si atom -12396.106712 kJ/mol
# Density = 1.786096 g / cm^3
# Si number density = 17.901702 Si / 1000 Ang^3
#
#
#
# Elastic Constant Matrix: (Units=GPa)
#
#
# Indices 1 2 3 4 5 6 
#
# 1 66.3299 55.7886 37.8681 0.0000 0.0000 0.0000
# 2 55.7886 155.3047 63.5149 0.0000 0.0000 0.0000
# 3 37.8681 63.5149 82.0913 0.0000 0.0000 0.0000
# 4 0.0000 0.0000 0.0000 36.9372 0.0000 0.0000
# 5 0.0000 0.0000 0.0000 0.0000 18.9809 0.0000
# 6 0.0000 0.0000 0.0000 0.0000 0.0000 21.3718
#
#
#
# Elastic Compliance Matrix: (Units=1/GPa)
#
#
# Indices 1 2 3 4 5 6 
#
# 1 0.023668 -0.005906 -0.006349 0.000000 0.000000 0.000000
# 2 -0.005906 0.010893 -0.005704 0.000000 0.000000 0.000000
# 3 -0.006349 -0.005704 0.019523 0.000000 0.000000 0.000000
# 4 0.000000 0.000000 0.000000 0.027073 0.000000 0.000000
# 5 0.000000 0.000000 0.000000 0.000000 0.052684 0.000000
# 6 0.000000 0.000000 0.000000 0.000000 0.000000 0.046791
#
#
# Mechanical properties :
#
#
# Convention : Reuss Voigt Hill
#
# Bulk Modulus (GPa) = 55.04184 68.67437 61.85810
# Shear Modulus (GPa) = 22.46144 25.22828 23.84486
#
# Velocity S-wave (km/s) = 3.54603 3.75809 3.65360
# Velocity P-wave (km/s) = 6.89777 7.56811 7.24070
#
# Compressibility (1/GPa) = 0.01816800
#
# Stress axis : x y z
#
# Youngs Moduli (GPa) = 42.25193 91.80159 51.22095
#
# Poissons Ratio (x) = 0.54214 0.32518
# Poissons Ratio (y) = 0.24952 0.29216
# Poissons Ratio (z) = 0.26824 0.52363
#
# Static dielectric constant tensor:
#      x y z
#    x 3.052600 0.000000 0.000000 
#    y 0.000000 4.153770 0.000000 
#    z 0.000000 0.000000 3.327370 
# 
# 
# High freq. dielectric constant tensor:
#      x y z
#    x 1.648850 0.000000 0.000000 
#    y 0.000000 1.710360 0.000000 
#    z 0.000000 0.000000 1.699460 
# 
# From -- ./inp_files/8053.got.cif
#   From: 2010.03.12/outbox.cif.g09.slc.cpg/sg66_5_cif.got.tgz:8053.got - 2010.04.10 21:57:39.
