data_PCOD8276619
_publ_section_title
;
Structure prediction by ZEFSAII (Michael W. Deem and Ramdas Pophale) SiO2 
 PCOD8276619
Probable space group: C C C M
;
_chemical_formula_sum "Si O2"
_cell_formula_units_Z 96
_cell_length_a 17.601579
_cell_length_b 12.315865
_cell_length_c 24.147775
_cell_angle_alpha 90.000000
_cell_angle_beta 90.000000
_cell_angle_gamma 90.000000
_cell_volume 5234.722566
_symmetry_space_group_name_H-M "C C C M"
_symmetry_group_IT_number 66
_symmetry_cell_setting 'orthorhombic'
loop_
_space_group_symop_operation_xyz
x,y,z
-x,-y,z
x,-y,1/2-z
-x,y,1/2-z
-x,-y,-z
x,y,-z
-x,y,1/2+z
x,-y,1/2+z
1/2+x,1/2+y,z
1/2-x,1/2-y,z
1/2+x,1/2-y,1/2-z
1/2-x,1/2+y,1/2-z
1/2-x,1/2-y,-z
1/2+x,1/2+y,-z
1/2-x,1/2+y,1/2+z
1/2+x,1/2-y,1/2+z
loop_
_atom_site_type_symbol
_atom_site_label
_atom_site_fract_x
_atom_site_fract_y
_atom_site_fract_z
Si Si1 0.582719 0.881229 0.727702
Si Si2 0.592192 0.005533 0.000000
Si Si3 0.883744 0.000000 0.750000
Si Si4 0.050978 0.603087 0.105046
Si Si5 0.936103 0.208833 0.602129
Si Si6 0.831983 0.219871 0.295657
Si Si7 0.000000 0.000000 0.343872
Si Si8 0.340756 0.236228 0.000000
O O1 0.500000 0.843263 0.750000
O O2 0.592828 0.870688 0.661866
O O3 0.648090 0.800234 0.746257
O O4 0.601516 0.000000 0.750000
O O5 0.611702 0.072807 0.943817
O O6 0.500000 0.000000 0.000000
O O7 0.635586 0.891003 0.000000
O O8 0.831871 0.902468 0.772341
O O9 0.933631 0.958813 0.697544
O O10 0.000000 0.500000 0.119327
O O11 0.999256 0.703328 0.085156
O O12 0.893428 0.244617 0.657448
O O13 0.874819 0.201439 0.553007
O O14 0.975341 0.094008 0.614036
O O15 0.750000 0.250000 0.319797
O O16 0.250000 0.250000 0.000000
#
# Coordination Sequence:
#
# PCOD8276619 Si02
#       8
#    16   8   8  16  16  16   8   8
#     4  11  20  32  55  85 113 138 184 245 286 325
#     4  10  20  36  58  83 111 149 193 236 285 345
#     4   9  20  38  54  78 109 150 192 220 289 346
#     4  11  17  33  58  85 108 137 190 246 286 323
#     4  11  20  37  57  82 113 146 192 235 284 339
#     4  11  23  36  54  80 119 155 183 228 290 359
#     4   9  20  35  62  80 106 147 188 243 270 330
#     4  12  24  37  56  84 122 153 184 232 297 350
#
# _framework density 18.339081
#
# number of rings (size 3 to 8) (size 9 to 14) (size 15 to 20)
#    0.000    1.333    6.667    1.500    3.500    0.333 
#    0.000    0.000    0.000    0.000    0.000    1.750 
#    0.000    0.000    0.000    0.000    0.000    0.000 
#
# Total GULP energy -595053.403847 kJ/mol
# GULP energy per Si atom -12396.945913 kJ/mol
# Density = 1.829734 g / cm^3
# Si number density = 18.339081 Si / 1000 Ang^3
#
#
#
# Elastic Constant Matrix: (Units=GPa)
#
#
# Indices 1 2 3 4 5 6 
#
# 1 69.8057 54.9960 30.5488 0.0000 0.0000 0.0000
# 2 54.9960 95.3590 40.5958 0.0000 0.0000 0.0000
# 3 30.5488 40.5958 125.6406 0.0000 0.0000 0.0000
# 4 0.0000 0.0000 0.0000 27.9096 0.0000 0.0000
# 5 0.0000 0.0000 0.0000 0.0000 7.6842 0.0000
# 6 0.0000 0.0000 0.0000 0.0000 0.0000 23.2190
#
#
#
# Elastic Compliance Matrix: (Units=1/GPa)
#
#
# Indices 1 2 3 4 5 6 
#
# 1 0.026583 -0.014586 -0.001751 0.000000 0.000000 0.000000
# 2 -0.014586 0.020162 -0.002968 0.000000 0.000000 0.000000
# 3 -0.001751 -0.002968 0.009344 0.000000 0.000000 0.000000
# 4 0.000000 0.000000 0.000000 0.035830 0.000000 0.000000
# 5 0.000000 0.000000 0.000000 0.000000 0.130138 0.000000
# 6 0.000000 0.000000 0.000000 0.000000 0.000000 0.043068
#
#
# Mechanical properties :
#
#
# Convention : Reuss Voigt Hill
#
# Bulk Modulus (GPa) = 57.20868 60.34294 58.77581
# Shear Modulus (GPa) = 16.15190 22.74020 19.44605
#
# Velocity S-wave (km/s) = 2.97094 3.52516 3.25985
# Velocity P-wave (km/s) = 6.55983 7.03878 6.80352
#
# Compressibility (1/GPa) = 0.01747986
#
# Stress axis : x y z
#
# Youngs Moduli (GPa) = 37.61811 49.59759 107.02129
#
# Poissons Ratio (x) = 0.72342 0.18736
# Poissons Ratio (y) = 0.54869 0.31766
# Poissons Ratio (z) = 0.06586 0.14721
#
# Static dielectric constant tensor:
#      x y z
#    x 3.073770 0.000000 0.000000 
#    y 0.000000 3.237450 0.000000 
#    z 0.000000 0.000000 3.821940 
# 
# 
# High freq. dielectric constant tensor:
#      x y z
#    x 1.671520 0.000000 0.000000 
#    y 0.000000 1.711530 0.000000 
#    z 0.000000 0.000000 1.725510 
# 
# From -- ./inp_files/58843.got.cif
#   From: 2010.03.12/outbox.cif.g09.slc.cpg/sg66_30_cif.got.tgz:58843.got - 2010.04.10 21:57:39.
