data_PCOD8276226
_publ_section_title
;
Structure prediction by ZEFSAII (Michael W. Deem and Ramdas Pophale) SiO2 
 PCOD8276226
Probable space group: C C C M
;
_chemical_formula_sum "Si O2"
_cell_formula_units_Z 64
_cell_length_a 12.212628
_cell_length_b 16.054372
_cell_length_c 17.203880
_cell_angle_alpha 90.000000
_cell_angle_beta 90.000000
_cell_angle_gamma 90.000000
_cell_volume 3373.097192
_symmetry_space_group_name_H-M "C C C M"
_symmetry_group_IT_number 66
_symmetry_cell_setting 'orthorhombic'
loop_
_space_group_symop_operation_xyz
x,y,z
-x,-y,z
x,-y,1/2-z
-x,y,1/2-z
-x,-y,-z
x,y,-z
-x,y,1/2+z
x,-y,1/2+z
1/2+x,1/2+y,z
1/2-x,1/2-y,z
1/2+x,1/2-y,1/2-z
1/2-x,1/2+y,1/2-z
1/2-x,1/2-y,-z
1/2+x,1/2+y,-z
1/2-x,1/2+y,1/2+z
1/2+x,1/2-y,1/2+z
loop_
_atom_site_type_symbol
_atom_site_label
_atom_site_fract_x
_atom_site_fract_y
_atom_site_fract_z
Si Si1 0.596536 0.250399 0.348562
Si Si2 0.139216 0.707342 0.173509
Si Si3 0.751786 0.123748 0.412504
Si Si4 0.880365 0.535134 0.590646
O O1 0.630065 0.211002 0.266126
O O2 0.466299 0.255363 0.361852
O O3 0.649814 0.188492 0.411577
O O4 0.648572 0.342896 0.358285
O O5 0.250000 0.750000 0.142927
O O6 0.141213 0.612634 0.146109
O O7 0.795768 0.118105 0.500000
O O8 0.710155 0.033441 0.385162
O O9 0.869868 0.559923 0.500000
O O10 0.000000 0.500000 0.608630
#
# Coordination Sequence:
#
# PCOD8276226 Si02
#       4
#    16  16  16  16
#     4  10  20  36  55  87 115 153 197 229 293 350
#     4  11  22  37  56  87 126 150 185 243 302 350
#     4  10  19  37  62  83 111 153 202 242 274 339
#     4  10  21  37  58  87 115 149 199 245 288 339
#
# _framework density 18.973659999999999
#
# number of rings (size 3 to 8) (size 9 to 14) (size 15 to 20)
#    0.000    1.750    5.000    1.500    0.000    2.500 
#    0.000    1.250    0.000    6.000    0.000    0.000 
#    0.000    0.000    0.000    0.000    0.000    0.000 
#
# Total GULP energy -396710.980778 kJ/mol
# GULP energy per Si atom -12397.218149 kJ/mol
# Density = 1.893048 g / cm^3
# Si number density = 18.973660 Si / 1000 Ang^3
#
#
#
# Elastic Constant Matrix: (Units=GPa)
#
#
# Indices 1 2 3 4 5 6 
#
# 1 160.3046 82.0854 36.6999 0.0000 0.0000 0.0000
# 2 82.0854 141.6053 65.9592 0.0000 0.0000 0.0000
# 3 36.6999 65.9592 70.4909 0.0000 0.0000 0.0000
# 4 0.0000 0.0000 0.0000 11.6497 0.0000 0.0000
# 5 0.0000 0.0000 0.0000 0.0000 18.5683 0.0000
# 6 0.0000 0.0000 0.0000 0.0000 0.0000 35.3199
#
#
#
# Elastic Compliance Matrix: (Units=1/GPa)
#
#
# Indices 1 2 3 4 5 6 
#
# 1 0.008876 -0.005305 0.000343 0.000000 0.000000 0.000000
# 2 -0.005305 0.015688 -0.011918 0.000000 0.000000 0.000000
# 3 0.000343 -0.011918 0.025159 0.000000 0.000000 0.000000
# 4 0.000000 0.000000 0.000000 0.085839 0.000000 0.000000
# 5 0.000000 0.000000 0.000000 0.000000 0.053855 0.000000
# 6 0.000000 0.000000 0.000000 0.000000 0.000000 0.028313
#
#
# Mechanical properties :
#
#
# Convention : Reuss Voigt Hill
#
# Bulk Modulus (GPa) = 62.64186 82.43219 72.53703
# Shear Modulus (GPa) = 19.46949 25.61801 22.54375
#
# Velocity S-wave (km/s) = 3.20681 3.67848 3.45071
# Velocity P-wave (km/s) = 6.84093 7.84739 7.36138
#
# Compressibility (1/GPa) = 0.01596376
#
# Stress axis : x y z
#
# Youngs Moduli (GPa) = 112.66222 63.74197 39.74649
#
# Poissons Ratio (x) = 0.33814 -0.01362
# Poissons Ratio (y) = 0.59766 0.47369
# Poissons Ratio (z) = -0.03860 0.75966
#
# Static dielectric constant tensor:
#      x y z
#    x 3.714730 0.000000 0.000000 
#    y 0.000000 3.433700 0.000000 
#    z 0.000000 0.000000 3.366820 
# 
# 
# High freq. dielectric constant tensor:
#      x y z
#    x 1.733540 0.000000 0.000000 
#    y 0.000000 1.722820 0.000000 
#    z 0.000000 0.000000 1.732160 
# 
# From -- ./inp_files/38213.got.cif
#   From: 2010.03.12/outbox.cif.g09.slc.cpg/sg66_20_cif.got.tgz:38213.got - 2010.04.10 21:57:39.
