data_PCOD8276269
_publ_section_title
;
Structure prediction by ZEFSAII (Michael W. Deem and Ramdas Pophale) SiO2 
 PCOD8276269
Probable space group: C C C M
;
_chemical_formula_sum "Si O2"
_cell_formula_units_Z 88
_cell_length_a 16.125117
_cell_length_b 16.785475
_cell_length_c 17.654776
_cell_angle_alpha 90.000000
_cell_angle_beta 90.000000
_cell_angle_gamma 90.000000
_cell_volume 4778.578466
_symmetry_space_group_name_H-M "C C C M"
_symmetry_group_IT_number 66
_symmetry_cell_setting 'orthorhombic'
loop_
_space_group_symop_operation_xyz
x,y,z
-x,-y,z
x,-y,1/2-z
-x,y,1/2-z
-x,-y,-z
x,y,-z
-x,y,1/2+z
x,-y,1/2+z
1/2+x,1/2+y,z
1/2-x,1/2-y,z
1/2+x,1/2-y,1/2-z
1/2-x,1/2+y,1/2-z
1/2-x,1/2-y,-z
1/2+x,1/2+y,-z
1/2-x,1/2+y,1/2+z
1/2+x,1/2-y,1/2+z
loop_
_atom_site_type_symbol
_atom_site_label
_atom_site_fract_x
_atom_site_fract_y
_atom_site_fract_z
Si Si1 0.745447 0.861974 0.840055
Si Si2 0.986448 0.676071 0.667621
Si Si3 0.000000 0.500000 0.374590
Si Si4 0.813317 0.485151 0.084446
Si Si5 0.797130 0.672385 0.334463
Si Si6 0.628416 0.261234 0.587558
O O1 0.721771 0.842915 0.753852
O O2 0.689257 0.812707 0.898499
O O3 0.840469 0.835829 0.859903
O O4 0.726861 0.953410 0.856533
O O5 0.037215 0.730129 0.608833
O O6 0.000000 0.712599 0.750000
O O7 0.013439 0.582212 0.671607
O O8 0.892091 0.688450 0.647183
O O9 0.085763 0.487167 0.420515
O O10 0.773945 0.403117 0.114546
O O11 0.779959 0.500562 0.000000
O O12 0.750000 0.750000 0.363964
O O13 0.628878 0.286620 0.500000
#
# Coordination Sequence:
#
# PCOD8276269 Si02
#       6
#    16  16   8  16  16  16
#     4  11  19  37  57  82 114 143 190 238 291 336
#     4  11  19  33  53  79 114 150 184 228 280 344
#     4  10  20  30  50  76 114 144 188 218 278 338
#     4  11  22  34  54  81 116 151 188 236 282 342
#     4  11  22  38  56  82 115 160 193 224 281 354
#     4  11  21  33  57  85 113 143 184 243 296 331
#
# _framework density 18.415517999999999
#
# number of rings (size 3 to 8) (size 9 to 14) (size 15 to 20)
#    0.000    1.091    5.455    3.273    0.000    6.182 
#    0.000    0.000    0.000    1.091    0.000    6.364 
#    0.000    0.000    0.000    0.000    0.000    0.000 
#
# Total GULP energy -545245.311455 kJ/mol
# GULP energy per Si atom -12391.938897 kJ/mol
# Density = 1.837360 g / cm^3
# Si number density = 18.415518 Si / 1000 Ang^3
#
#
#
# Elastic Constant Matrix: (Units=GPa)
#
#
# Indices 1 2 3 4 5 6 
#
# 1 77.5705 52.7479 25.0596 0.0000 0.0000 0.0000
# 2 52.7479 113.3051 15.2482 0.0000 0.0000 0.0000
# 3 25.0596 15.2482 70.4996 0.0000 0.0000 0.0000
# 4 0.0000 0.0000 0.0000 24.3463 0.0000 0.0000
# 5 0.0000 0.0000 0.0000 0.0000 17.1997 0.0000
# 6 0.0000 0.0000 0.0000 0.0000 0.0000 30.1510
#
#
#
# Elastic Compliance Matrix: (Units=1/GPa)
#
#
# Indices 1 2 3 4 5 6 
#
# 1 0.020703 -0.008907 -0.005433 0.000000 0.000000 0.000000
# 2 -0.008907 0.012922 0.000371 0.000000 0.000000 0.000000
# 3 -0.005433 0.000371 0.016035 0.000000 0.000000 0.000000
# 4 0.000000 0.000000 0.000000 0.041074 0.000000 0.000000
# 5 0.000000 0.000000 0.000000 0.000000 0.058140 0.000000
# 6 0.000000 0.000000 0.000000 0.000000 0.000000 0.033166
#
#
# Mechanical properties :
#
#
# Convention : Reuss Voigt Hill
#
# Bulk Modulus (GPa) = 46.03250 49.72072 47.87661
# Shear Modulus (GPa) = 23.01811 25.56071 24.28941
#
# Velocity S-wave (km/s) = 3.53927 3.72963 3.63569
# Velocity P-wave (km/s) = 6.46164 6.75313 6.60899
#
# Compressibility (1/GPa) = 0.02172378
#
# Stress axis : x y z
#
# Youngs Moduli (GPa) = 48.30132 77.38513 62.36243
#
# Poissons Ratio (x) = 0.68928 0.33879
# Poissons Ratio (y) = 0.43022 -0.02315
# Poissons Ratio (z) = 0.26241 -0.02872
#
# Static dielectric constant tensor:
#      x y z
#    x 3.494230 0.000000 0.000000 
#    y 0.000000 3.519440 0.000000 
#    z 0.000000 0.000000 3.240830 
# 
# 
# High freq. dielectric constant tensor:
#      x y z
#    x 1.692300 0.000000 0.000000 
#    y 0.000000 1.702420 0.000000 
#    z 0.000000 0.000000 1.713640 
# 
# From -- ./inp_files/41559.got.cif
#   From: 2010.03.12/outbox.cif.g09.slc.cpg/sg66_21_cif.got.tgz:41559.got - 2010.04.10 21:57:39.
