data_PCOD8276237
_publ_section_title
;
Structure prediction by ZEFSAII (Michael W. Deem and Ramdas Pophale) SiO2 
 PCOD8276237
Probable space group: C C C M
;
_chemical_formula_sum "Si O2"
_cell_formula_units_Z 72
_cell_length_a 12.882514
_cell_length_b 15.856290
_cell_length_c 16.925895
_cell_angle_alpha 90.000000
_cell_angle_beta 90.000000
_cell_angle_gamma 90.000000
_cell_volume 3457.433579
_symmetry_space_group_name_H-M "C C C M"
_symmetry_group_IT_number 66
_symmetry_cell_setting 'orthorhombic'
loop_
_space_group_symop_operation_xyz
x,y,z
-x,-y,z
x,-y,1/2-z
-x,y,1/2-z
-x,-y,-z
x,y,-z
-x,y,1/2+z
x,-y,1/2+z
1/2+x,1/2+y,z
1/2-x,1/2-y,z
1/2+x,1/2-y,1/2-z
1/2-x,1/2+y,1/2-z
1/2-x,1/2-y,-z
1/2+x,1/2+y,-z
1/2-x,1/2+y,1/2+z
1/2+x,1/2-y,1/2+z
loop_
_atom_site_type_symbol
_atom_site_label
_atom_site_fract_x
_atom_site_fract_y
_atom_site_fract_z
Si Si1 0.449786 0.815213 0.091078
Si Si2 0.250000 0.250000 0.197751
Si Si3 0.246799 0.576530 0.092576
Si Si4 0.836591 0.393361 0.408611
Si Si5 0.912803 0.164264 0.194665
O O1 0.339057 0.854150 0.115275
O O2 0.540844 0.882480 0.109389
O O3 0.470909 0.726909 0.134145
O O4 0.448597 0.791920 0.000000
O O5 0.229144 0.330027 0.143295
O O6 0.154068 0.226692 0.252100
O O7 0.198923 0.486702 0.115088
O O8 0.347453 0.594016 0.146865
O O9 0.276981 0.581429 0.000000
O O10 0.812447 0.375252 0.500000
O O11 0.000000 0.119285 0.250000
#
# Coordination Sequence:
#
# PCOD8276237 Si02
#       5
#    16   8  16  16  16
#     4  10  19  37  66  96 126 162 209 265 320 383
#     4  12  23  40  61  86 128 172 208 254 319 386
#     4  10  21  40  66  96 127 164 211 267 324 378
#     4  10  22  40  64  92 123 165 216 262 312 382
#     4  12  23  39  61  93 132 171 212 259 324 386
#
# _framework density 20.824694999999998
#
# number of rings (size 3 to 8) (size 9 to 14) (size 15 to 20)
#    0.000    1.333    4.444    1.667    0.000    5.333 
#    0.000    2.222    0.000    2.667    0.000    0.000 
#    0.000    0.000    0.000    0.000    0.000    0.000 
#
# Total GULP energy -446416.384559 kJ/mol
# GULP energy per Si atom -12400.455127 kJ/mol
# Density = 2.077730 g / cm^3
# Si number density = 20.824695 Si / 1000 Ang^3
#
#
#
# Elastic Constant Matrix: (Units=GPa)
#
#
# Indices 1 2 3 4 5 6 
#
# 1 114.4535 47.8499 61.0807 0.0000 0.0000 0.0000
# 2 47.8499 80.1459 50.4383 0.0000 0.0000 0.0000
# 3 61.0807 50.4383 80.7306 0.0000 0.0000 0.0000
# 4 0.0000 0.0000 0.0000 14.3922 0.0000 0.0000
# 5 0.0000 0.0000 0.0000 0.0000 38.3844 0.0000
# 6 0.0000 0.0000 0.0000 0.0000 0.0000 38.7845
#
#
#
# Elastic Compliance Matrix: (Units=1/GPa)
#
#
# Indices 1 2 3 4 5 6 
#
# 1 0.015081 -0.003004 -0.009533 0.000000 0.000000 0.000000
# 2 -0.003004 0.021160 -0.010947 0.000000 0.000000 0.000000
# 3 -0.009533 -0.010947 0.026439 0.000000 0.000000 0.000000
# 4 0.000000 0.000000 0.000000 0.069482 0.000000 0.000000
# 5 0.000000 0.000000 0.000000 0.000000 0.026052 0.000000
# 6 0.000000 0.000000 0.000000 0.000000 0.000000 0.025784
#
#
# Mechanical properties :
#
#
# Convention : Reuss Voigt Hill
#
# Bulk Modulus (GPa) = 63.65023 66.00750 64.82887
# Shear Modulus (GPa) = 21.16808 26.04297 23.60552
#
# Velocity S-wave (km/s) = 3.19170 3.54019 3.37045
# Velocity P-wave (km/s) = 6.64934 6.96248 6.80771
#
# Compressibility (1/GPa) = 0.01571086
#
# Stress axis : x y z
#
# Youngs Moduli (GPa) = 66.30990 47.25794 37.82255
#
# Poissons Ratio (x) = 0.14197 0.36056
# Poissons Ratio (y) = 0.19921 0.41406
# Poissons Ratio (z) = 0.63214 0.51735
#
# Static dielectric constant tensor:
#      x y z
#    x 3.952560 0.000000 0.000000 
#    y 0.000000 3.574540 0.000000 
#    z 0.000000 0.000000 3.920520 
# 
# 
# High freq. dielectric constant tensor:
#      x y z
#    x 1.815250 0.000000 0.000000 
#    y 0.000000 1.801880 0.000000 
#    z 0.000000 0.000000 1.827350 
# 
# From -- ./inp_files/38296.got.cif
#   From: 2010.03.12/outbox.cif.g09.slc.cpg/sg66_20_cif.got.tgz:38296.got - 2010.04.10 21:57:39.
