data_PCOD8276698
_publ_section_title
;
Structure prediction by ZEFSAII (Michael W. Deem and Ramdas Pophale) SiO2 
 PCOD8276698
Probable space group: C C C M
;
_chemical_formula_sum "Si O2"
_cell_formula_units_Z 112
_cell_length_a 12.477811
_cell_length_b 26.100452
_cell_length_c 17.669267
_cell_angle_alpha 90.000000
_cell_angle_beta 90.000000
_cell_angle_gamma 90.000000
_cell_volume 5754.465159
_symmetry_space_group_name_H-M "C C C M"
_symmetry_group_IT_number 66
_symmetry_cell_setting 'orthorhombic'
loop_
_space_group_symop_operation_xyz
x,y,z
-x,-y,z
x,-y,1/2-z
-x,y,1/2-z
-x,-y,-z
x,y,-z
-x,y,1/2+z
x,-y,1/2+z
1/2+x,1/2+y,z
1/2-x,1/2-y,z
1/2+x,1/2-y,1/2-z
1/2-x,1/2+y,1/2-z
1/2-x,1/2-y,-z
1/2+x,1/2+y,-z
1/2-x,1/2+y,1/2+z
1/2+x,1/2-y,1/2+z
loop_
_atom_site_type_symbol
_atom_site_label
_atom_site_fract_x
_atom_site_fract_y
_atom_site_fract_z
Si Si1 0.012082 0.075927 0.088177
Si Si2 0.674377 0.505149 0.410786
Si Si3 0.935134 0.182115 0.087165
Si Si4 0.612480 0.018610 0.665100
Si Si5 0.770521 0.692219 0.683110
Si Si6 0.020524 0.295884 0.588063
Si Si7 0.398326 0.134110 0.803335
O O1 0.018653 0.136430 0.105492
O O2 0.116545 0.046906 0.120511
O O3 0.899581 0.052281 0.118238
O O4 0.012203 0.063764 0.000000
O O5 0.690117 0.504838 0.500000
O O6 0.791854 0.510592 0.376406
O O7 0.835371 0.172372 0.141956
O O8 0.996822 0.235179 0.102071
O O9 0.894934 0.179731 0.000000
O O10 0.629746 0.079772 0.658990
O O11 0.500000 0.000000 0.627713
O O12 0.614313 0.000000 0.750000
O O13 0.750000 0.750000 0.711907
O O14 0.864199 0.689226 0.620989
O O15 0.799069 0.656624 0.754944
O O16 0.017203 0.310314 0.500000
O O17 0.925478 0.325611 0.630350
O O18 0.500000 0.125818 0.750000
#
# Coordination Sequence:
#
# PCOD8276698 Si02
#       7
#    16  16  16  16  16  16  16
#     4   8  16  33  56  83 115 143 171 222 288 337
#     4   9  19  36  58  82 110 145 184 229 282 339
#     4   9  16  29  55  86 110 138 180 230 281 335
#     4  11  23  39  57  77 108 150 190 236 282 328
#     4   9  18  32  53  79 109 143 181 226 278 338
#     4   9  18  32  53  80 109 140 184 234 280 334
#     4  10  20  37  54  72 107 151 178 223 289 334
#
# _framework density 19.463146999999999
#
# number of rings (size 3 to 8) (size 9 to 14) (size 15 to 20)
#    0.000    2.714    1.429    1.286    2.000    2.571 
#    2.571    2.857    0.000    0.429    0.000    0.000 
#    0.000    0.000    0.000    0.000    0.000    0.000 
#
# Total GULP energy -694129.443543 kJ/mol
# GULP energy per Si atom -12395.168635 kJ/mol
# Density = 1.941885 g / cm^3
# Si number density = 19.463147 Si / 1000 Ang^3
#
#
#
# Elastic Constant Matrix: (Units=GPa)
#
#
# Indices 1 2 3 4 5 6 
#
# 1 83.6560 21.9166 25.9675 0.0000 0.0000 0.0000
# 2 21.9166 106.1729 26.5715 0.0000 0.0000 0.0000
# 3 25.9675 26.5715 54.9890 0.0000 0.0000 0.0000
# 4 0.0000 0.0000 0.0000 20.6796 0.0000 0.0000
# 5 0.0000 0.0000 0.0000 0.0000 25.7965 0.0000
# 6 0.0000 0.0000 0.0000 0.0000 0.0000 20.7446
#
#
#
# Elastic Compliance Matrix: (Units=1/GPa)
#
#
# Indices 1 2 3 4 5 6 
#
# 1 0.014194 -0.001425 -0.006014 0.000000 0.000000 0.000000
# 2 -0.001425 0.010857 -0.004574 0.000000 0.000000 0.000000
# 3 -0.006014 -0.004574 0.023236 0.000000 0.000000 0.000000
# 4 0.000000 0.000000 0.000000 0.048357 0.000000 0.000000
# 5 0.000000 0.000000 0.000000 0.000000 0.038765 0.000000
# 6 0.000000 0.000000 0.000000 0.000000 0.000000 0.048205
#
#
# Mechanical properties :
#
#
# Convention : Reuss Voigt Hill
#
# Bulk Modulus (GPa) = 41.21763 43.74768 42.48266
# Shear Modulus (GPa) = 23.17750 24.80162 23.98956
#
# Velocity S-wave (km/s) = 3.45460 3.57359 3.51460
# Velocity P-wave (km/s) = 6.09390 6.28915 6.19229
#
# Compressibility (1/GPa) = 0.02426146
#
# Stress axis : x y z
#
# Youngs Moduli (GPa) = 70.45295 92.10377 43.03741
#
# Poissons Ratio (x) = 0.13123 0.25884
# Poissons Ratio (y) = 0.10038 0.19684
# Poissons Ratio (z) = 0.42372 0.42124
#
# Static dielectric constant tensor:
#      x y z
#    x 3.538600 0.000000 0.000000 
#    y 0.000000 3.724520 0.000000 
#    z 0.000000 0.000000 3.294100 
# 
# 
# High freq. dielectric constant tensor:
#      x y z
#    x 1.741490 0.000000 0.000000 
#    y 0.000000 1.768460 0.000000 
#    z 0.000000 0.000000 1.732320 
# 
# From -- ./inp_files/49133.got.cif
#   From: 2010.03.12/outbox.cif.g09.slc.cpg/sg66_25_cif.got.tgz:49133.got - 2010.04.10 21:57:39.
