data_PCOD8276944
_publ_section_title
;
Structure prediction by ZEFSAII (Michael W. Deem and Ramdas Pophale) SiO2 
 PCOD8276944
Probable space group: C C C M
;
_chemical_formula_sum "Si O2"
_cell_formula_units_Z 112
_cell_length_a 12.526368
_cell_length_b 16.446925
_cell_length_c 27.381143
_cell_angle_alpha 90.000000
_cell_angle_beta 90.000000
_cell_angle_gamma 90.000000
_cell_volume 5641.069516
_symmetry_space_group_name_H-M "C C C M"
_symmetry_group_IT_number 66
_symmetry_cell_setting 'orthorhombic'
loop_
_space_group_symop_operation_xyz
x,y,z
-x,-y,z
x,-y,1/2-z
-x,y,1/2-z
-x,-y,-z
x,y,-z
-x,y,1/2+z
x,-y,1/2+z
1/2+x,1/2+y,z
1/2-x,1/2-y,z
1/2+x,1/2-y,1/2-z
1/2-x,1/2+y,1/2-z
1/2-x,1/2-y,-z
1/2+x,1/2+y,-z
1/2-x,1/2+y,1/2+z
1/2+x,1/2-y,1/2+z
loop_
_atom_site_type_symbol
_atom_site_label
_atom_site_fract_x
_atom_site_fract_y
_atom_site_fract_z
Si Si1 0.191622 0.386366 0.554017
Si Si2 0.394599 0.450191 0.866974
Si Si3 0.960168 0.364020 0.197122
Si Si4 0.977017 0.590568 0.095090
Si Si5 0.237344 0.424392 0.946643
Si Si6 0.273370 0.393148 0.656658
Si Si7 0.015178 0.175818 0.304247
O O1 0.221046 0.348740 0.500000
O O2 0.203061 0.482464 0.550303
O O3 0.264817 0.360556 0.600257
O O4 0.071827 0.357809 0.569406
O O5 0.500000 0.500000 0.881397
O O6 0.344234 0.411826 0.915557
O O7 0.307834 0.511074 0.841844
O O8 0.425724 0.373347 0.834077
O O9 0.833666 0.379298 0.188539
O O10 0.000000 0.397469 0.250000
O O11 0.022225 0.409608 0.153977
O O12 0.000502 0.271653 0.192005
O O13 0.862720 0.623638 0.077078
O O14 0.000000 0.500000 0.077039
O O15 0.260999 0.388344 0.000000
O O16 0.364111 0.339193 0.680084
O O17 0.000000 0.143054 0.250000
#
# Coordination Sequence:
#
# PCOD8276944 Si02
#       7
#    16  16  16  16  16  16  16
#     4   8  14  27  50  78 103 130 169 215 259 306
#     4   9  19  34  53  79 103 132 176 219 257 302
#     4  10  21  36  55  79 105 137 175 220 270 316
#     4   9  17  30  49  76 106 135 172 215 261 313
#     4   9  16  28  49  75 104 137 170 208 258 314
#     4   9  18  34  56  80 105 133 173 220 260 306
#     4  10  21  37  55  74 104 145 180 211 262 325
#
# _framework density 19.854389999999999
#
# number of rings (size 3 to 8) (size 9 to 14) (size 15 to 20)
#    0.000    2.857    0.000    1.714    0.000    6.000 
#    0.000    8.571    0.000   12.857    0.000    0.000 
#    0.000    0.000    0.000    0.000    0.000    0.000 
#
# Total GULP energy -693737.178117 kJ/mol
# GULP energy per Si atom -12388.163895 kJ/mol
# Density = 1.980920 g / cm^3
# Si number density = 19.854390 Si / 1000 Ang^3
#
#
#
# Elastic Constant Matrix: (Units=GPa)
#
#
# Indices 1 2 3 4 5 6 
#
# 1 107.2022 25.5308 79.3581 0.0000 0.0000 0.0000
# 2 25.5308 34.0732 10.8795 0.0000 0.0000 0.0000
# 3 79.3581 10.8795 160.1394 0.0000 0.0000 0.0000
# 4 0.0000 0.0000 0.0000 1949.2059 0.0000 0.0000
# 5 0.0000 0.0000 0.0000 0.0000 32.4353 0.0000
# 6 0.0000 0.0000 0.0000 0.0000 0.0000 17.0506
#
#
#
# Elastic Compliance Matrix: (Units=1/GPa)
#
#
# Indices 1 2 3 4 5 6 
#
# 1 0.017951 -0.010845 -0.008159 0.000000 0.000000 0.000000
# 2 -0.010845 0.036552 0.002891 0.000000 0.000000 0.000000
# 3 -0.008159 0.002891 0.010091 0.000000 0.000000 0.000000
# 4 0.000000 0.000000 0.000000 0.000513 0.000000 0.000000
# 5 0.000000 0.000000 0.000000 0.000000 0.030831 0.000000
# 6 0.000000 0.000000 0.000000 0.000000 0.000000 0.058649
#
#
# Mechanical properties :
#
#
# Convention : Reuss Voigt Hill
#
# Bulk Modulus (GPa) = 30.89474 59.21684 45.05579
# Shear Modulus (GPa) = 25.30350 412.11479 218.70915
#
# Velocity S-wave (km/s) = 3.57382 14.42287 10.50694
# Velocity P-wave (km/s) = 5.71175 17.52853 13.03598
#
# Compressibility (1/GPa) = 0.03236797
#
# Stress axis : x y z
#
# Youngs Moduli (GPa) = 55.70829 27.35855 99.09567
#
# Poissons Ratio (x) = 0.29671 0.80850
# Poissons Ratio (y) = 0.60417 -0.28650
# Poissons Ratio (z) = 0.45451 -0.07910
#
# Static dielectric constant tensor:
#      x y z
#    x 3.702870 0.000000 0.000000 
#    y 0.000000 3.193730 0.000000 
#    z 0.000000 0.000000 4.051560 
# 
# 
# High freq. dielectric constant tensor:
#      x y z
#    x 1.775170 0.000000 0.000000 
#    y 0.000000 1.730220 0.000000 
#    z 0.000000 0.000000 1.782900 
# 
# From -- ./inp_files/57152.got.cif
#   From: 2010.03.12/outbox.cif.g09.slc.cpg/sg66_29_cif.got.tgz:57152.got - 2010.04.10 21:57:39.
