data_PCOD8276433
_publ_section_title
;
Structure prediction by ZEFSAII (Michael W. Deem and Ramdas Pophale) SiO2 
 PCOD8276433
Probable space group: C C C M
;
_chemical_formula_sum "Si O2"
_cell_formula_units_Z 80
_cell_length_a 18.589363
_cell_length_b 17.284123
_cell_length_c 13.167684
_cell_angle_alpha 90.000000
_cell_angle_beta 90.000000
_cell_angle_gamma 90.000000
_cell_volume 4230.787885
_symmetry_space_group_name_H-M "C C C M"
_symmetry_group_IT_number 66
_symmetry_cell_setting 'orthorhombic'
loop_
_space_group_symop_operation_xyz
x,y,z
-x,-y,z
x,-y,1/2-z
-x,y,1/2-z
-x,-y,-z
x,y,-z
-x,y,1/2+z
x,-y,1/2+z
1/2+x,1/2+y,z
1/2-x,1/2-y,z
1/2+x,1/2-y,1/2-z
1/2-x,1/2+y,1/2-z
1/2-x,1/2-y,-z
1/2+x,1/2+y,-z
1/2-x,1/2+y,1/2+z
1/2+x,1/2-y,1/2+z
loop_
_atom_site_type_symbol
_atom_site_label
_atom_site_fract_x
_atom_site_fract_y
_atom_site_fract_z
Si Si1 0.639535 0.617461 0.702127
Si Si2 0.500000 0.878540 0.750000
Si Si3 0.790001 0.605750 0.384113
Si Si4 0.078586 0.026596 0.113979
Si Si5 0.618202 0.000000 0.250000
Si Si6 0.413120 0.772227 0.885948
O O1 0.725180 0.628561 0.691886
O O2 0.613940 0.591306 0.813959
O O3 0.625134 0.551185 0.618932
O O4 0.595550 0.694884 0.679433
O O5 0.566881 0.930506 0.789371
O O6 0.477679 0.824572 0.843692
O O7 0.765338 0.588326 0.500000
O O8 0.832163 0.530271 0.342170
O O9 0.839287 0.681092 0.383004
O O10 0.077470 0.060156 0.000000
O O11 0.000000 0.000000 0.151621
O O12 0.433572 0.748438 0.000000
#
# Coordination Sequence:
#
# PCOD8276433 Si02
#       6
#    16   8  16  16   8  16
#     4  11  20  34  56  80 108 140 180 222 266 320
#     4   9  20  34  54  79 108 142 182 223 278 316
#     4  10  20  34  55  81 107 142 181 223 272 320
#     4  10  22  37  54  79 107 141 180 220 270 321
#     4   9  18  36  54  78 109 140 180 232 267 324
#     4  10  21  35  54  80 110 142 180 223 270 325
#
# _framework density 18.909008
#
# number of rings (size 3 to 8) (size 9 to 14) (size 15 to 20)
#    0.000    2.000    0.000    4.800    2.800    2.400 
#    0.000    4.000    0.000    4.800    0.000    0.000 
#    0.000    0.000    0.000    0.000    0.000    0.000 
#
# Total GULP energy -495880.916065 kJ/mol
# GULP energy per Si atom -12397.022902 kJ/mol
# Density = 1.886597 g / cm^3
# Si number density = 18.909008 Si / 1000 Ang^3
#
#
#
# Elastic Constant Matrix: (Units=GPa)
#
#
# Indices 1 2 3 4 5 6 
#
# 1 77.4774 26.9092 52.5300 0.0000 0.0000 0.0000
# 2 26.9092 116.5393 55.5224 0.0000 0.0000 0.0000
# 3 52.5300 55.5224 136.8085 0.0000 0.0000 0.0000
# 4 0.0000 0.0000 0.0000 18.6533 0.0000 0.0000
# 5 0.0000 0.0000 0.0000 0.0000 30.1470 0.0000
# 6 0.0000 0.0000 0.0000 0.0000 0.0000 20.5677
#
#
#
# Elastic Compliance Matrix: (Units=1/GPa)
#
#
# Indices 1 2 3 4 5 6 
#
# 1 0.017552 -0.001044 -0.006316 0.000000 0.000000 0.000000
# 2 -0.001044 0.010700 -0.003942 0.000000 0.000000 0.000000
# 3 -0.006316 -0.003942 0.011334 0.000000 0.000000 0.000000
# 4 0.000000 0.000000 0.000000 0.053610 0.000000 0.000000
# 5 0.000000 0.000000 0.000000 0.000000 0.033171 0.000000
# 6 0.000000 0.000000 0.000000 0.000000 0.000000 0.048620
#
#
# Mechanical properties :
#
#
# Convention : Reuss Voigt Hill
#
# Bulk Modulus (GPa) = 58.88101 66.74980 62.81540
# Shear Modulus (GPa) = 24.60039 26.93119 25.76579
#
# Velocity S-wave (km/s) = 3.61083 3.77802 3.69537
# Velocity P-wave (km/s) = 6.97072 7.37621 7.17633
#
# Compressibility (1/GPa) = 0.01698341
#
# Stress axis : x y z
#
# Youngs Moduli (GPa) = 56.97518 93.46079 88.22909
#
# Poissons Ratio (x) = 0.09755 0.55722
# Poissons Ratio (y) = 0.05947 0.34776
# Poissons Ratio (z) = 0.35983 0.36838
#
# Static dielectric constant tensor:
#      x y z
#    x 3.600750 0.000000 0.000000 
#    y 0.000000 3.451710 0.000000 
#    z 0.000000 0.000000 3.349740 
# 
# 
# High freq. dielectric constant tensor:
#      x y z
#    x 1.743650 0.000000 0.000000 
#    y 0.000000 1.735170 0.000000 
#    z 0.000000 0.000000 1.722420 
# 
# From -- ./inp_files/29991.got.cif
#   From: 2010.03.12/outbox.cif.g09.slc.cpg/sg66_15_cif.got.tgz:29991.got - 2010.04.10 21:57:39.
