data_PCOD8276720
_publ_section_title
;
Structure prediction by ZEFSAII (Michael W. Deem and Ramdas Pophale) SiO2 
 PCOD8276720
Probable space group: C C C M
;
_chemical_formula_sum "Si O2"
_cell_formula_units_Z 96
_cell_length_a 22.365051
_cell_length_b 15.012625
_cell_length_c 13.914011
_cell_angle_alpha 90.000000
_cell_angle_beta 90.000000
_cell_angle_gamma 90.000000
_cell_volume 4671.742227
_symmetry_space_group_name_H-M "C C C M"
_symmetry_group_IT_number 66
_symmetry_cell_setting 'orthorhombic'
loop_
_space_group_symop_operation_xyz
x,y,z
-x,-y,z
x,-y,1/2-z
-x,y,1/2-z
-x,-y,-z
x,y,-z
-x,y,1/2+z
x,-y,1/2+z
1/2+x,1/2+y,z
1/2-x,1/2-y,z
1/2+x,1/2-y,1/2-z
1/2-x,1/2+y,1/2-z
1/2-x,1/2-y,-z
1/2+x,1/2+y,-z
1/2-x,1/2+y,1/2+z
1/2+x,1/2-y,1/2+z
loop_
_atom_site_type_symbol
_atom_site_label
_atom_site_fract_x
_atom_site_fract_y
_atom_site_fract_z
Si Si1 0.365437 0.398538 0.268272
Si Si2 0.566780 0.108867 0.716090
Si Si3 0.755475 0.146251 0.108384
Si Si4 0.087244 0.213173 0.107352
Si Si5 0.026146 0.091046 0.607190
Si Si6 0.626933 0.061792 0.111172
O O1 0.380555 0.500000 0.250000
O O2 0.302206 0.395920 0.319464
O O3 0.363888 0.338638 0.171899
O O4 0.419933 0.364365 0.334028
O O5 0.500000 0.081797 0.750000
O O6 0.570667 0.189952 0.644352
O O7 0.598750 0.135786 0.817481
O O8 0.602808 0.030141 0.659318
O O9 0.750000 0.250000 0.137295
O O10 0.697414 0.082774 0.116430
O O11 0.780140 0.141642 0.000000
O O12 0.025374 0.162581 0.107541
O O13 0.114246 0.219807 0.000000
O O14 0.049783 0.070321 0.500000
O O15 0.000000 0.000000 0.652961
O O16 0.605017 0.068574 0.000000
#
# Coordination Sequence:
#
# PCOD8276720 Si02
#       6
#    16  16  16  16  16  16
#     4  12  23  36  64  90 122 166 214 265 322 385
#     4  11  23  40  66  97 135 172 211 265 328 397
#     4  10  23  43  65  91 121 159 214 274 323 379
#     4  11  24  40  61  94 134 174 216 268 328 395
#     4  10  20  37  59  88 126 162 203 256 318 384
#     4  10  22  41  67  93 127 169 215 268 323 381
#
# _framework density 20.549078000000002
#
# number of rings (size 3 to 8) (size 9 to 14) (size 15 to 20)
#    0.000    1.333    1.667    4.500    2.333    2.667 
#    0.000    4.167    0.000    1.500    0.000    0.000 
#    0.000    0.000    0.000    0.000    0.000    0.000 
#
# Total GULP energy -594706.271813 kJ/mol
# GULP energy per Si atom -12389.713996 kJ/mol
# Density = 2.050231 g / cm^3
# Si number density = 20.549078 Si / 1000 Ang^3
#
#
#
# Elastic Constant Matrix: (Units=GPa)
#
#
# Indices 1 2 3 4 5 6 
#
# 1 95.7288 27.7466 61.1268 0.0000 0.0000 0.0000
# 2 27.7466 106.7320 40.1525 0.0000 0.0000 0.0000
# 3 61.1268 40.1525 157.8823 0.0000 0.0000 0.0000
# 4 0.0000 0.0000 0.0000 32.9709 0.0000 0.0000
# 5 0.0000 0.0000 0.0000 0.0000 29.8174 0.0000
# 6 0.0000 0.0000 0.0000 0.0000 0.0000 -21.7257
#
#
#
# Elastic Compliance Matrix: (Units=1/GPa)
#
#
# Indices 1 2 3 4 5 6 
#
# 1 0.014180 -0.001792 -0.005034 0.000000 0.000000 0.000000
# 2 -0.001792 0.010587 -0.001999 0.000000 0.000000 0.000000
# 3 -0.005034 -0.001999 0.008791 0.000000 0.000000 0.000000
# 4 0.000000 0.000000 0.000000 0.030330 0.000000 0.000000
# 5 0.000000 0.000000 0.000000 0.000000 0.033537 0.000000
# 6 0.000000 0.000000 0.000000 0.000000 0.000000 -0.046029
#
#
# Mechanical properties :
#
#
# Convention : Reuss Voigt Hill
#
# Bulk Modulus (GPa) = 62.86130 68.71054 65.78592
# Shear Modulus (GPa) = 67.24909 23.63370 45.44140
#
# Velocity S-wave (km/s) = 5.72688 3.39501 4.70761
# Velocity P-wave (km/s) = 8.62477 6.99128 7.85063
#
# Compressibility (1/GPa) = 0.01590804
#
# Stress axis : x y z
#
# Youngs Moduli (GPa) = 70.52028 94.45479 113.75019
#
# Poissons Ratio (x) = 0.16931 0.57265
# Poissons Ratio (y) = 0.12641 0.22733
# Poissons Ratio (z) = 0.35502 0.18877
#
# Static dielectric constant tensor:
#      x y z
#    x 3.586780 0.000000 0.000000 
#    y 0.000000 3.472250 0.000000 
#    z 0.000000 0.000000 4.558760 
# 
# 
# High freq. dielectric constant tensor:
#      x y z
#    x 1.789350 0.000000 0.000000 
#    y 0.000000 1.806400 0.000000 
#    z 0.000000 0.000000 1.824290 
# 
# From -- ./inp_files/31180.got.cif
#   From: 2010.03.12/outbox.cif.g09.slc.cpg/sg66_16_cif.got.tgz:31180.got - 2010.04.10 21:57:39.
