data_PCOD8276361
_publ_section_title
;
Structure prediction by ZEFSAII (Michael W. Deem and Ramdas Pophale) SiO2 
 PCOD8276361
Probable space group: C C C M
;
_chemical_formula_sum "Si O2"
_cell_formula_units_Z 112
_cell_length_a 26.749050
_cell_length_b 13.012313
_cell_length_c 14.837730
_cell_angle_alpha 90.000000
_cell_angle_beta 90.000000
_cell_angle_gamma 90.000000
_cell_volume 5164.524332
_symmetry_space_group_name_H-M "C C C M"
_symmetry_group_IT_number 66
_symmetry_cell_setting 'orthorhombic'
loop_
_space_group_symop_operation_xyz
x,y,z
-x,-y,z
x,-y,1/2-z
-x,y,1/2-z
-x,-y,-z
x,y,-z
-x,y,1/2+z
x,-y,1/2+z
1/2+x,1/2+y,z
1/2-x,1/2-y,z
1/2+x,1/2-y,1/2-z
1/2-x,1/2+y,1/2-z
1/2-x,1/2-y,-z
1/2+x,1/2+y,-z
1/2-x,1/2+y,1/2+z
1/2+x,1/2-y,1/2+z
loop_
_atom_site_type_symbol
_atom_site_label
_atom_site_fract_x
_atom_site_fract_y
_atom_site_fract_z
Si Si1 0.100053 0.015673 0.854125
Si Si2 0.436246 0.303309 0.396995
Si Si3 0.044882 0.778399 0.398181
Si Si4 0.660089 0.757535 0.708286
Si Si5 0.688240 0.950596 0.401316
Si Si6 0.204500 0.953057 0.154526
Si Si7 0.640444 0.167426 0.397172
O O1 0.076519 0.126526 0.861598
O O2 0.110702 0.000000 0.750000
O O3 0.064526 0.927989 0.895478
O O4 0.156310 0.005198 0.895103
O O5 0.426652 0.265266 0.500000
O O6 0.489717 0.266155 0.355112
O O7 0.396362 0.257043 0.327633
O O8 0.032115 0.806410 0.500000
O O9 0.079645 0.677071 0.389498
O O10 0.679001 0.867101 0.674736
O O11 0.694898 0.668865 0.668346
O O12 0.662934 0.759207 0.818150
O O13 0.671325 0.910888 0.500000
O O14 0.747445 0.973363 0.407323
O O15 0.656390 0.051538 0.377149
O O16 0.218075 0.000000 0.250000
O O17 0.656814 0.201069 0.500000
#
# Coordination Sequence:
#
# PCOD8276361 Si02
#       7
#    16  16  16  16  16  16  16
#     4  10  20  33  53  84 121 159 199 242 291 355
#     4  10  21  35  56  88 121 155 197 245 299 359
#     4  10  20  36  56  81 118 158 196 243 298 355
#     4  11  22  39  64  88 119 155 194 245 296 356
#     4  11  24  41  62  87 117 155 199 248 298 348
#     4  10  21  37  58  87 121 154 194 240 292 351
#     4  10  22  40  61  86 117 156 201 246 294 351
#
# _framework density 21.686411
#
# number of rings (size 3 to 8) (size 9 to 14) (size 15 to 20)
#    0.000    1.714    0.000    5.571    0.000    8.000 
#    0.000    3.571    0.000   14.571    0.000    0.000 
#    0.000    0.000    0.000    0.000    0.000    0.000 
#
# Total GULP energy -693979.680850 kJ/mol
# GULP energy per Si atom -12392.494301 kJ/mol
# Density = 2.163705 g / cm^3
# Si number density = 21.686411 Si / 1000 Ang^3
#
#
#
# Elastic Constant Matrix: (Units=GPa)
#
#
# Indices 1 2 3 4 5 6 
#
# 1 143.3030 64.7122 23.7116 0.0000 0.0000 0.0000
# 2 64.7122 77.8730 22.5961 0.0000 0.0000 0.0000
# 3 23.7116 22.5961 90.5634 0.0000 0.0000 0.0000
# 4 0.0000 0.0000 0.0000 28.8495 0.0000 0.0000
# 5 0.0000 0.0000 0.0000 0.0000 23.9453 0.0000
# 6 0.0000 0.0000 0.0000 0.0000 0.0000 31.3604
#
#
#
# Elastic Compliance Matrix: (Units=1/GPa)
#
#
# Indices 1 2 3 4 5 6 
#
# 1 0.011206 -0.009121 -0.000658 0.000000 0.000000 0.000000
# 2 -0.009121 0.021268 -0.002918 0.000000 0.000000 0.000000
# 3 -0.000658 -0.002918 0.011942 0.000000 0.000000 0.000000
# 4 0.000000 0.000000 0.000000 0.034663 0.000000 0.000000
# 5 0.000000 0.000000 0.000000 0.000000 0.041762 0.000000
# 6 0.000000 0.000000 0.000000 0.000000 0.000000 0.031887
#
#
# Mechanical properties :
#
#
# Convention : Reuss Voigt Hill
#
# Bulk Modulus (GPa) = 52.57359 59.30879 55.94119
# Shear Modulus (GPa) = 27.10555 30.21234 28.65894
#
# Velocity S-wave (km/s) = 3.53921 3.73654 3.63921
# Velocity P-wave (km/s) = 6.40286 6.78405 6.59621
#
# Compressibility (1/GPa) = 0.01902096
#
# Stress axis : x y z
#
# Youngs Moduli (GPa) = 89.23750 47.01916 83.73484
#
# Poissons Ratio (x) = 0.42887 0.05512
# Poissons Ratio (y) = 0.81395 0.24437
# Poissons Ratio (z) = 0.05874 0.13722
#
# Static dielectric constant tensor:
#      x y z
#    x 4.302780 0.000000 0.000000 
#    y 0.000000 3.717770 0.000000 
#    z 0.000000 0.000000 3.999710 
# 
# 
# High freq. dielectric constant tensor:
#      x y z
#    x 1.855540 0.000000 0.000000 
#    y 0.000000 1.827260 0.000000 
#    z 0.000000 0.000000 1.860760 
# 
# From -- ./inp_files/32435.got.cif
#   From: 2010.03.12/outbox.cif.g09.slc.cpg/sg66_17_cif.got.tgz:32435.got - 2010.04.10 21:57:39.
