data_PCOD8276112
_publ_section_title
;
Structure prediction by ZEFSAII (Michael W. Deem and Ramdas Pophale) SiO2 
 PCOD8276112
Probable space group: C C C M
;
_chemical_formula_sum "Si O2"
_cell_formula_units_Z 112
_cell_length_a 14.859015
_cell_length_b 13.438955
_cell_length_c 26.817948
_cell_angle_alpha 90.000000
_cell_angle_beta 90.000000
_cell_angle_gamma 90.000000
_cell_volume 5355.266219
_symmetry_space_group_name_H-M "C C C M"
_symmetry_group_IT_number 66
_symmetry_cell_setting 'orthorhombic'
loop_
_space_group_symop_operation_xyz
x,y,z
-x,-y,z
x,-y,1/2-z
-x,y,1/2-z
-x,-y,-z
x,y,-z
-x,y,1/2+z
x,-y,1/2+z
1/2+x,1/2+y,z
1/2-x,1/2-y,z
1/2+x,1/2-y,1/2-z
1/2-x,1/2+y,1/2-z
1/2-x,1/2-y,-z
1/2+x,1/2+y,-z
1/2-x,1/2+y,1/2+z
1/2+x,1/2-y,1/2+z
loop_
_atom_site_type_symbol
_atom_site_label
_atom_site_fract_x
_atom_site_fract_y
_atom_site_fract_z
Si Si1 0.710036 0.145356 0.697300
Si Si2 0.245474 0.973640 0.555153
Si Si3 0.834383 0.189204 0.945206
Si Si4 0.448287 0.655817 0.854613
Si Si5 0.836363 0.312696 0.809268
Si Si6 0.606250 0.005628 0.630452
Si Si7 0.133832 0.061491 0.146731
O O1 0.750000 0.250000 0.677851
O O2 0.674282 0.149530 0.753209
O O3 0.628528 0.103618 0.663433
O O4 0.796104 0.071872 0.692426
O O5 0.249777 0.922891 0.500000
O O6 0.346821 0.985738 0.576360
O O7 0.185513 0.912534 0.594926
O O8 0.194742 0.076656 0.549462
O O9 0.750000 0.250000 0.923393
O O10 0.919380 0.201345 0.908310
O O11 0.862582 0.230502 0.000000
O O12 0.419500 0.734824 0.812253
O O13 0.400149 0.550327 0.848111
O O14 0.554720 0.642353 0.850089
O O15 0.750000 0.250000 0.827886
O O16 0.852572 0.407898 0.843631
O O17 0.500000 0.000000 0.623150
#
# Coordination Sequence:
#
# PCOD8276112 Si02
#       7
#    16  16  16  16  16  16  16
#     4  10  23  41  59  82 120 164 203 252 312 374
#     4   9  18  35  59  84 120 164 199 235 304 371
#     4   9  16  28  51  87 124 157 196 246 300 358
#     4  10  19  34  61  90 121 157 199 255 304 368
#     4  11  22  39  63  87 118 160 205 253 315 363
#     4  11  24  40  62  93 124 158 205 265 302 358
#     4   9  20  38  59  88 124 158 199 250 309 367
#
# _framework density 20.913993000000001
#
# number of rings (size 3 to 8) (size 9 to 14) (size 15 to 20)
#    0.000    2.143    0.000    4.286    2.000    3.143 
#    2.571    2.857    0.000   17.143    0.000    0.000 
#    0.000    0.000    0.000    0.000    0.000    0.000 
#
# Total GULP energy -694104.851782 kJ/mol
# GULP energy per Si atom -12394.729496 kJ/mol
# Density = 2.086639 g / cm^3
# Si number density = 20.913993 Si / 1000 Ang^3
#
#
#
# Elastic Constant Matrix: (Units=GPa)
#
#
# Indices 1 2 3 4 5 6 
#
# 1 134.5925 23.0506 61.8209 0.0000 0.0000 0.0000
# 2 23.0506 58.3551 30.3859 0.0000 0.0000 0.0000
# 3 61.8209 30.3859 141.4136 0.0000 0.0000 0.0000
# 4 0.0000 0.0000 0.0000 32.7560 0.0000 0.0000
# 5 0.0000 0.0000 0.0000 0.0000 20.0332 0.0000
# 6 0.0000 0.0000 0.0000 0.0000 0.0000 34.4572
#
#
#
# Elastic Compliance Matrix: (Units=1/GPa)
#
#
# Indices 1 2 3 4 5 6 
#
# 1 0.009458 -0.001783 -0.003752 0.000000 0.000000 0.000000
# 2 -0.001783 0.019631 -0.003439 0.000000 0.000000 0.000000
# 3 -0.003752 -0.003439 0.009451 0.000000 0.000000 0.000000
# 4 0.000000 0.000000 0.000000 0.030529 0.000000 0.000000
# 5 0.000000 0.000000 0.000000 0.000000 0.049917 0.000000
# 6 0.000000 0.000000 0.000000 0.000000 0.000000 0.029022
#
#
# Mechanical properties :
#
#
# Convention : Reuss Voigt Hill
#
# Bulk Modulus (GPa) = 48.55887 62.76400 55.66143
# Shear Modulus (GPa) = 28.93203 32.05621 30.49412
#
# Velocity S-wave (km/s) = 3.72342 3.91930 3.82261
# Velocity P-wave (km/s) = 6.46173 7.11034 6.79378
#
# Compressibility (1/GPa) = 0.02059356
#
# Stress axis : x y z
#
# Youngs Moduli (GPa) = 105.72599 50.93918 105.81371
#
# Poissons Ratio (x) = 0.09080 0.39700
# Poissons Ratio (y) = 0.18846 0.36389
# Poissons Ratio (z) = 0.39667 0.17518
#
# Static dielectric constant tensor:
#      x y z
#    x 3.829310 0.000000 0.000000 
#    y 0.000000 3.880160 0.000000 
#    z 0.000000 0.000000 4.099050 
# 
# 
# High freq. dielectric constant tensor:
#      x y z
#    x 1.811490 0.000000 0.000000 
#    y 0.000000 1.813140 0.000000 
#    z 0.000000 0.000000 1.816050 
# 
# From -- ./inp_files/64640.got.cif
#   From: 2010.03.12/outbox.cif.g09.slc.cpg/sg66_33_cif.got.tgz:64640.got - 2010.04.10 21:57:39.
