data_PCOD8276557
_publ_section_title
;
Structure prediction by ZEFSAII (Michael W. Deem and Ramdas Pophale) SiO2 
 PCOD8276557
Probable space group: C C C M
;
_chemical_formula_sum "Si O2"
_cell_formula_units_Z 104
_cell_length_a 23.041699
_cell_length_b 15.665052
_cell_length_c 14.265264
_cell_angle_alpha 90.000000
_cell_angle_beta 90.000000
_cell_angle_gamma 90.000000
_cell_volume 5149.038667
_symmetry_space_group_name_H-M "C C C M"
_symmetry_group_IT_number 66
_symmetry_cell_setting 'orthorhombic'
loop_
_space_group_symop_operation_xyz
x,y,z
-x,-y,z
x,-y,1/2-z
-x,y,1/2-z
-x,-y,-z
x,y,-z
-x,y,1/2+z
x,-y,1/2+z
1/2+x,1/2+y,z
1/2-x,1/2-y,z
1/2+x,1/2-y,1/2-z
1/2-x,1/2+y,1/2-z
1/2-x,1/2-y,-z
1/2+x,1/2+y,-z
1/2-x,1/2+y,1/2+z
1/2+x,1/2-y,1/2+z
loop_
_atom_site_type_symbol
_atom_site_label
_atom_site_fract_x
_atom_site_fract_y
_atom_site_fract_z
Si Si1 0.095712 0.327962 0.249345
Si Si2 0.498996 0.774757 0.887229
Si Si3 0.167635 0.500000 0.750000
Si Si4 0.978381 0.086386 0.895659
Si Si5 0.242790 0.070228 0.896039
Si Si6 0.198674 0.198310 0.754210
Si Si7 0.144546 0.046436 0.343257
O O1 0.051974 0.326513 0.160025
O O2 0.126151 0.418770 0.263561
O O3 0.142453 0.255194 0.226241
O O4 0.061466 0.310608 0.346197
O O5 0.502574 0.675102 0.853017
O O6 0.499514 0.785238 0.000000
O O7 0.208826 0.482946 0.839117
O O8 0.908834 0.085228 0.900323
O O9 0.004068 0.083984 0.000000
O O10 0.000000 0.000000 0.842158
O O11 0.226676 0.160982 0.850040
O O12 0.182647 0.017887 0.904486
O O13 0.267297 0.086793 0.000000
O O14 0.250000 0.250000 0.703684
O O15 0.186567 0.122925 0.683266
O O16 0.120658 0.000000 0.250000
#
# Coordination Sequence:
#
# PCOD8276557 Si02
#       7
#    16  16   8  16  16  16  16
#     4  11  24  43  69  89 127 171 208 271 327 372
#     4  10  24  43  64  96 126 163 220 267 316 381
#     4  12  24  47  64  90 123 164 218 266 326 386
#     4  10  21  35  55  87 126 161 197 244 302 373
#     4  11  23  39  63  96 131 166 207 257 313 384
#     4  11  20  40  64  93 129 165 207 253 316 381
#     4  10  20  35  58  86 123 164 202 244 294 373
#
# _framework density 20.197945000000001
#
# number of rings (size 3 to 8) (size 9 to 14) (size 15 to 20)
#    0.000    1.385    5.385    0.462    4.308    3.692 
#    0.000    0.769    0.000    2.308    0.000    0.000 
#    0.000    0.000    0.000    0.000    0.000    0.000 
#
# Total GULP energy -644478.846554 kJ/mol
# GULP energy per Si atom -12393.823972 kJ/mol
# Density = 2.015197 g / cm^3
# Si number density = 20.197945 Si / 1000 Ang^3
#
#
#
# Elastic Constant Matrix: (Units=GPa)
#
#
# Indices 1 2 3 4 5 6 
#
# 1 107.4026 34.9927 34.8780 0.0000 0.0000 0.0000
# 2 34.9927 99.7319 25.1726 0.0000 0.0000 0.0000
# 3 34.8780 25.1726 101.0693 0.0000 0.0000 0.0000
# 4 0.0000 0.0000 0.0000 12.4462 0.0000 0.0000
# 5 0.0000 0.0000 0.0000 0.0000 2.6980 0.0000
# 6 0.0000 0.0000 0.0000 0.0000 0.0000 45.2674
#
#
#
# Elastic Compliance Matrix: (Units=1/GPa)
#
#
# Indices 1 2 3 4 5 6 
#
# 1 0.011368 -0.003200 -0.003126 0.000000 0.000000 0.000000
# 2 -0.003200 0.011600 -0.001785 0.000000 0.000000 0.000000
# 3 -0.003126 -0.001785 0.011418 0.000000 0.000000 0.000000
# 4 0.000000 0.000000 0.000000 0.080346 0.000000 0.000000
# 5 0.000000 0.000000 0.000000 0.000000 0.370646 0.000000
# 6 0.000000 0.000000 0.000000 0.000000 0.000000 0.022091
#
#
# Mechanical properties :
#
#
# Convention : Reuss Voigt Hill
#
# Bulk Modulus (GPa) = 55.05294 55.36559 55.20926
# Shear Modulus (GPa) = 9.43849 26.29302 17.86575
#
# Velocity S-wave (km/s) = 2.16406 3.61191 2.97734
# Velocity P-wave (km/s) = 5.79310 6.69818 6.26201
#
# Compressibility (1/GPa) = 0.01816433
#
# Stress axis : x y z
#
# Youngs Moduli (GPa) = 87.96251 86.20610 87.58421
#
# Poissons Ratio (x) = 0.27584 0.27381
# Poissons Ratio (y) = 0.28146 0.15633
# Poissons Ratio (z) = 0.27499 0.15387
#
# Static dielectric constant tensor:
#      x y z
#    x 3.747870 0.000000 0.000000 
#    y 0.000000 4.258930 0.000000 
#    z 0.000000 0.000000 3.467940 
# 
# 
# High freq. dielectric constant tensor:
#      x y z
#    x 1.797380 0.000000 0.000000 
#    y 0.000000 1.794790 0.000000 
#    z 0.000000 0.000000 1.770450 
# 
# From -- ./inp_files/32510.got.cif
#   From: 2010.03.12/outbox.cif.g09.slc.cpg/sg66_17_cif.got.tgz:32510.got - 2010.04.10 21:57:39.
