data_PCOD8276266
_publ_section_title
;
Structure prediction by ZEFSAII (Michael W. Deem and Ramdas Pophale) SiO2 
 PCOD8276266
Probable space group: C C C M
;
_chemical_formula_sum "Si O2"
_cell_formula_units_Z 104
_cell_length_a 22.646560
_cell_length_b 9.899873
_cell_length_c 26.108117
_cell_angle_alpha 90.000000
_cell_angle_beta 90.000000
_cell_angle_gamma 90.000000
_cell_volume 5853.389388
_symmetry_space_group_name_H-M "C C C M"
_symmetry_group_IT_number 66
_symmetry_cell_setting 'orthorhombic'
loop_
_space_group_symop_operation_xyz
x,y,z
-x,-y,z
x,-y,1/2-z
-x,y,1/2-z
-x,-y,-z
x,y,-z
-x,y,1/2+z
x,-y,1/2+z
1/2+x,1/2+y,z
1/2-x,1/2-y,z
1/2+x,1/2-y,1/2-z
1/2-x,1/2+y,1/2-z
1/2-x,1/2-y,-z
1/2+x,1/2+y,-z
1/2-x,1/2+y,1/2+z
1/2+x,1/2-y,1/2+z
loop_
_atom_site_type_symbol
_atom_site_label
_atom_site_fract_x
_atom_site_fract_y
_atom_site_fract_z
Si Si1 0.315821 0.952010 0.109029
Si Si2 0.681026 0.464083 0.391362
Si Si3 0.320056 0.870437 0.000000
Si Si4 0.681433 0.571418 0.500000
Si Si5 0.250000 0.750000 0.742987
Si Si6 0.654071 0.805440 0.167025
Si Si7 0.068670 0.339882 0.748866
Si Si8 0.842235 0.202915 0.823540
O O1 0.359036 0.057237 0.136612
O O2 0.250475 0.012178 0.111272
O O3 0.342224 0.941184 0.051827
O O4 0.313789 0.807665 0.136459
O O5 0.661371 0.485333 0.450379
O O6 0.667199 0.313320 0.373048
O O7 0.644781 0.565656 0.354321
O O8 0.347781 0.719643 0.000000
O O9 0.249645 0.886248 0.000000
O O10 0.291261 0.839773 0.705822
O O11 0.205285 0.834946 0.778998
O O12 0.596214 0.772169 0.200257
O O13 0.081758 0.500000 0.750000
O O14 0.098041 0.268028 0.699446
O O15 0.000000 0.306732 0.750000
#
# Coordination Sequence:
#
# PCOD8276266 Si02
#       8
#    16  16   8   8   8  16  16  16
#     4  11  18  33  49  81 109 143 180 210 256 314
#     4  11  20  33  50  81 113 143 171 216 267 318
#     4   9  18  29  51  73 108 146 181 214 245 317
#     4   9  18  31  49  73 110 147 176 210 261 316
#     4  10  20  30  46  74 110 134 168 212 252 318
#     4  11  22  33  51  79 111 140 175 215 270 313
#     4  10  22  39  56  77 104 140 184 221 261 313
#     4  11  20  31  56  77 104 140 180 211 263 310
#
# _framework density 17.767482999999999
#
# number of rings (size 3 to 8) (size 9 to 14) (size 15 to 20)
#    0.000    1.538    6.154    0.000    0.000    4.308 
#    0.000    3.846    0.000    0.000    0.000    6.462 
#    0.000    0.000    0.000    0.000    0.000    0.000 
#
# Total GULP energy -644477.647415 kJ/mol
# GULP energy per Si atom -12393.800912 kJ/mol
# Density = 1.772704 g / cm^3
# Si number density = 17.767483 Si / 1000 Ang^3
#
#
#
# Elastic Constant Matrix: (Units=GPa)
#
#
# Indices 1 2 3 4 5 6 
#
# 1 67.5579 7.2542 31.7901 0.0000 0.0000 0.0000
# 2 7.2542 68.4691 41.8064 0.0000 0.0000 0.0000
# 3 31.7901 41.8064 142.6349 0.0000 0.0000 0.0000
# 4 0.0000 0.0000 0.0000 28.7694 0.0000 0.0000
# 5 0.0000 0.0000 0.0000 0.0000 11.3776 0.0000
# 6 0.0000 0.0000 0.0000 0.0000 0.0000 17.2765
#
#
#
# Elastic Compliance Matrix: (Units=1/GPa)
#
#
# Indices 1 2 3 4 5 6 
#
# 1 0.016557 0.000608 -0.003868 0.000000 0.000000 0.000000
# 2 0.000608 0.017811 -0.005356 0.000000 0.000000 0.000000
# 3 -0.003868 -0.005356 0.009443 0.000000 0.000000 0.000000
# 4 0.000000 0.000000 0.000000 0.034759 0.000000 0.000000
# 5 0.000000 0.000000 0.000000 0.000000 0.087892 0.000000
# 6 0.000000 0.000000 0.000000 0.000000 0.000000 0.057882
#
#
# Mechanical properties :
#
#
# Convention : Reuss Voigt Hill
#
# Bulk Modulus (GPa) = 37.62498 48.92928 43.27713
# Shear Modulus (GPa) = 19.96513 24.67211 22.31862
#
# Velocity S-wave (km/s) = 3.35578 3.73045 3.54807
# Velocity P-wave (km/s) = 6.01975 6.79363 6.41836
#
# Compressibility (1/GPa) = 0.02657809
#
# Stress axis : x y z
#
# Youngs Moduli (GPa) = 60.39682 56.14516 105.89983
#
# Poissons Ratio (x) = -0.03412 0.40966
# Poissons Ratio (y) = -0.03671 0.56719
# Poissons Ratio (z) = 0.23364 0.30071
#
# Static dielectric constant tensor:
#      x y z
#    x 2.831850 0.000000 0.000000 
#    y 0.000000 3.226800 0.000000 
#    z 0.000000 0.000000 3.675530 
# 
# 
# High freq. dielectric constant tensor:
#      x y z
#    x 1.624340 0.000000 0.000000 
#    y 0.000000 1.682110 0.000000 
#    z 0.000000 0.000000 1.705730 
# 
# From -- ./inp_files/62739.got.cif
#   From: 2010.03.12/outbox.cif.g09.slc.cpg/sg66_32_cif.got.tgz:62739.got - 2010.04.10 21:57:39.
