data_PCOD8276655
_publ_section_title
;
Structure prediction by ZEFSAII (Michael W. Deem and Ramdas Pophale) SiO2 
 PCOD8276655
Probable space group: C C C M
;
_chemical_formula_sum "Si O2"
_cell_formula_units_Z 88
_cell_length_a 12.586566
_cell_length_b 21.239468
_cell_length_c 15.748635
_cell_angle_alpha 90.000000
_cell_angle_beta 90.000000
_cell_angle_gamma 90.000000
_cell_volume 4210.113553
_symmetry_space_group_name_H-M "C C C M"
_symmetry_group_IT_number 66
_symmetry_cell_setting 'orthorhombic'
loop_
_space_group_symop_operation_xyz
x,y,z
-x,-y,z
x,-y,1/2-z
-x,y,1/2-z
-x,-y,-z
x,y,-z
-x,y,1/2+z
x,-y,1/2+z
1/2+x,1/2+y,z
1/2-x,1/2-y,z
1/2+x,1/2-y,1/2-z
1/2-x,1/2+y,1/2-z
1/2-x,1/2-y,-z
1/2+x,1/2+y,-z
1/2-x,1/2+y,1/2+z
1/2+x,1/2-y,1/2+z
loop_
_atom_site_type_symbol
_atom_site_label
_atom_site_fract_x
_atom_site_fract_y
_atom_site_fract_z
Si Si1 0.704669 0.592318 0.687151
Si Si2 0.561364 0.708619 0.662186
Si Si3 0.787855 0.107442 0.500000
Si Si4 0.052498 0.636701 0.500000
Si Si5 0.425922 0.850809 0.169164
Si Si6 0.119476 0.026573 0.144186
Si Si7 0.576769 0.281847 0.500000
O O1 0.653768 0.657342 0.656248
O O2 0.828869 0.605230 0.696741
O O3 0.644268 0.562164 0.767661
O O4 0.692717 0.534449 0.621295
O O5 0.500000 0.700141 0.750000
O O6 0.611047 0.778685 0.654257
O O7 0.484273 0.696090 0.584010
O O8 0.660665 0.094994 0.500000
O O9 0.850905 0.079762 0.421351
O O10 0.809744 0.182775 0.500000
O O11 0.094263 0.707753 0.500000
O O12 0.983355 0.622573 0.415664
O O13 0.500000 0.853632 0.250000
O O14 0.000000 0.000000 0.140411
#
# Coordination Sequence:
#
# PCOD8276655 Si02
#       7
#    16  16   8   8  16  16   8
#     4  11  21  39  59  82 118 160 192 241 303 350
#     4  10  20  36  60  89 118 150 193 248 306 361
#     4  12  22  39  62  87 118 160 198 242 308 364
#     4  10  23  41  59  88 124 154 199 255 290 349
#     4  10  22  39  60  87 117 155 204 247 293 360
#     4  11  24  39  60  90 120 151 198 251 301 366
#     4  10  21  36  61  91 118 152 195 247 306 359
#
# _framework density 20.902049000000002
#
# number of rings (size 3 to 8) (size 9 to 14) (size 15 to 20)
#    0.000    1.455    0.000    6.545    0.000    2.182 
#    0.000   17.273    0.000    0.000    0.000    0.000 
#    0.000    0.000    0.000    0.000    0.000    0.000 
#
# Total GULP energy -545214.052174 kJ/mol
# GULP energy per Si atom -12391.228459 kJ/mol
# Density = 2.085447 g / cm^3
# Si number density = 20.902049 Si / 1000 Ang^3
#
#
#
# Elastic Constant Matrix: (Units=GPa)
#
#
# Indices 1 2 3 4 5 6 
#
# 1 107.4069 52.6599 25.5583 0.0000 0.0000 0.0000
# 2 52.6599 85.4779 12.6749 0.0000 0.0000 0.0000
# 3 25.5583 12.6749 107.7015 0.0000 0.0000 0.0000
# 4 0.0000 0.0000 0.0000 32.1903 0.0000 0.0000
# 5 0.0000 0.0000 0.0000 0.0000 19.0445 0.0000
# 6 0.0000 0.0000 0.0000 0.0000 0.0000 43.3106
#
#
#
# Elastic Compliance Matrix: (Units=1/GPa)
#
#
# Indices 1 2 3 4 5 6 
#
# 1 0.013891 -0.008212 -0.002330 0.000000 0.000000 0.000000
# 2 -0.008212 0.016762 -0.000024 0.000000 0.000000 0.000000
# 3 -0.002330 -0.000024 0.009841 0.000000 0.000000 0.000000
# 4 0.000000 0.000000 0.000000 0.031065 0.000000 0.000000
# 5 0.000000 0.000000 0.000000 0.000000 0.052509 0.000000
# 6 0.000000 0.000000 0.000000 0.000000 0.000000 0.023089
#
#
# Mechanical properties :
#
#
# Convention : Reuss Voigt Hill
#
# Bulk Modulus (GPa) = 51.64926 53.59695 52.62311
# Shear Modulus (GPa) = 28.61350 32.88861 30.75105
#
# Velocity S-wave (km/s) = 3.70392 3.97099 3.83978
# Velocity P-wave (km/s) = 6.56170 6.83540 6.69995
#
# Compressibility (1/GPa) = 0.01936136
#
# Stress axis : x y z
#
# Youngs Moduli (GPa) = 71.98790 59.65945 101.61931
#
# Poissons Ratio (x) = 0.48995 0.23677
# Poissons Ratio (y) = 0.59119 0.00242
# Poissons Ratio (z) = 0.16773 0.00142
#
# Static dielectric constant tensor:
#      x y z
#    x 3.586180 0.000000 0.000000 
#    y 0.000000 4.207740 0.000000 
#    z 0.000000 0.000000 2.379370 
# 
# 
# High freq. dielectric constant tensor:
#      x y z
#    x 1.811520 0.000000 0.000000 
#    y 0.000000 1.830610 0.000000 
#    z 0.000000 0.000000 1.820400 
# 
# From -- ./inp_files/38702.got.cif
#   From: 2010.03.12/outbox.cif.g09.slc.cpg/sg66_20_cif.got.tgz:38702.got - 2010.04.10 21:57:39.
