data_PCOD8276882
_publ_section_title
;
Structure prediction by ZEFSAII (Michael W. Deem and Ramdas Pophale) SiO2 
 PCOD8276882
Probable space group: C C C M
;
_chemical_formula_sum "Si O2"
_cell_formula_units_Z 60
_cell_length_a 25.558978
_cell_length_b 6.681798
_cell_length_c 16.420206
_cell_angle_alpha 90.000000
_cell_angle_beta 90.000000
_cell_angle_gamma 90.000000
_cell_volume 2804.241600
_symmetry_space_group_name_H-M "C C C M"
_symmetry_group_IT_number 66
_symmetry_cell_setting 'orthorhombic'
loop_
_space_group_symop_operation_xyz
x,y,z
-x,-y,z
x,-y,1/2-z
-x,y,1/2-z
-x,-y,-z
x,y,-z
-x,y,1/2+z
x,-y,1/2+z
1/2+x,1/2+y,z
1/2-x,1/2-y,z
1/2+x,1/2-y,1/2-z
1/2-x,1/2+y,1/2-z
1/2-x,1/2-y,-z
1/2+x,1/2+y,-z
1/2-x,1/2+y,1/2+z
1/2+x,1/2-y,1/2+z
loop_
_atom_site_type_symbol
_atom_site_label
_atom_site_fract_x
_atom_site_fract_y
_atom_site_fract_z
Si Si1 0.443583 0.388002 0.000000
Si Si2 0.282203 0.957888 0.000000
Si Si3 0.826865 0.000000 0.750000
Si Si4 0.000000 0.000000 0.750000
Si Si5 0.414381 0.352521 0.361442
Si Si6 0.906273 0.550649 0.500000
Si Si7 0.750000 0.750000 0.140275
O O1 0.500000 0.500000 0.000000
O O2 0.412314 0.452600 0.080580
O O3 0.440831 0.149653 0.000000
O O4 0.250000 0.750000 0.000000
O O5 0.269175 0.071564 0.916958
O O6 0.344076 0.944186 0.000000
O O7 0.861599 0.858616 0.691330
O O8 0.794196 0.840759 0.801662
O O9 0.964737 0.146424 0.803814
O O10 0.422443 0.158801 0.416862
#
# Coordination Sequence:
#
# PCOD8276882 Si02
#       7
#     8   8   8   4  16   8   8
#     4  11  22  45  71  94 135 176 231 288 344 416
#     4  11  24  47  71 102 138 192 239 290 346 441
#     4  11  24  43  66 100 146 179 226 301 354 416
#     4  10  20  46  62  92 142 170 212 292 344 396
#     4  10  23  43  67  96 134 176 226 287 344 411
#     4  11  24  40  73  99 129 182 239 274 349 426
#     4  11  26  42  70  99 144 184 234 285 364 416
#
# _framework density 21.396159999999998
#
# number of rings (size 3 to 8) (size 9 to 14) (size 15 to 20)
#    0.000    1.333    1.333    3.200    5.600    6.400 
#    0.000    5.333    0.000    0.000    0.000    0.000 
#    0.000    0.000    0.000    0.000    0.000    0.000 
#
# Total GULP energy -371865.886280 kJ/mol
# GULP energy per Si atom -12395.529543 kJ/mol
# Density = 2.134746 g / cm^3
# Si number density = 21.396160 Si / 1000 Ang^3
#
#
#
# Elastic Constant Matrix: (Units=GPa)
#
#
# Indices 1 2 3 4 5 6 
#
# 1 153.9056 72.2274 83.5049 0.0000 0.0000 0.0000
# 2 72.2274 174.0612 84.0257 0.0000 0.0000 0.0000
# 3 83.5049 84.0257 180.0310 0.0000 0.0000 0.0000
# 4 0.0000 0.0000 0.0000 36.0357 0.0000 0.0000
# 5 0.0000 0.0000 0.0000 0.0000 31.2574 0.0000
# 6 0.0000 0.0000 0.0000 0.0000 0.0000 29.5154
#
#
#
# Elastic Compliance Matrix: (Units=1/GPa)
#
#
# Indices 1 2 3 4 5 6 
#
# 1 0.009348 -0.002305 -0.003260 0.000000 0.000000 0.000000
# 2 -0.002305 0.007984 -0.002657 0.000000 0.000000 0.000000
# 3 -0.003260 -0.002657 0.008307 0.000000 0.000000 0.000000
# 4 0.000000 0.000000 0.000000 0.027750 0.000000 0.000000
# 5 0.000000 0.000000 0.000000 0.000000 0.031992 0.000000
# 6 0.000000 0.000000 0.000000 0.000000 0.000000 0.033881
#
#
# Mechanical properties :
#
#
# Convention : Reuss Voigt Hill
#
# Bulk Modulus (GPa) = 108.76332 109.72375 109.24353
# Shear Modulus (GPa) = 36.03006 37.24437 36.63721
#
# Velocity S-wave (km/s) = 4.10805 4.17670 4.14252
# Velocity P-wave (km/s) = 8.57000 8.64020 8.60517
#
# Compressibility (1/GPa) = 0.00919428
#
# Stress axis : x y z
#
# Youngs Moduli (GPa) = 106.97263 125.24298 120.38073
#
# Poissons Ratio (x) = 0.28872 0.39245
# Poissons Ratio (y) = 0.24661 0.31989
# Poissons Ratio (z) = 0.34874 0.33281
#
# Static dielectric constant tensor:
#      x y z
#    x 4.104860 0.000000 0.000000 
#    y 0.000000 2.673690 0.000000 
#    z 0.000000 0.000000 4.538170 
# 
# 
# High freq. dielectric constant tensor:
#      x y z
#    x 1.852890 0.000000 0.000000 
#    y 0.000000 1.826330 0.000000 
#    z 0.000000 0.000000 1.870770 
# 
# From -- ./inp_files/34920.got.cif
#   From: 2010.03.12/outbox.cif.g09.slc.cpg/sg66_18_cif.got.tgz:34920.got - 2010.04.10 21:57:39.
