data_PCOD8276386
_publ_section_title
;
Structure prediction by ZEFSAII (Michael W. Deem and Ramdas Pophale) SiO2 
 PCOD8276386
Probable space group: C C C M
;
_chemical_formula_sum "Si O2"
_cell_formula_units_Z 112
_cell_length_a 23.552609
_cell_length_b 16.950510
_cell_length_c 14.445962
_cell_angle_alpha 90.000000
_cell_angle_beta 90.000000
_cell_angle_gamma 90.000000
_cell_volume 5767.243126
_symmetry_space_group_name_H-M "C C C M"
_symmetry_group_IT_number 66
_symmetry_cell_setting 'orthorhombic'
loop_
_space_group_symop_operation_xyz
x,y,z
-x,-y,z
x,-y,1/2-z
-x,y,1/2-z
-x,-y,-z
x,y,-z
-x,y,1/2+z
x,-y,1/2+z
1/2+x,1/2+y,z
1/2-x,1/2-y,z
1/2+x,1/2-y,1/2-z
1/2-x,1/2+y,1/2-z
1/2-x,1/2-y,-z
1/2+x,1/2+y,-z
1/2-x,1/2+y,1/2+z
1/2+x,1/2-y,1/2+z
loop_
_atom_site_type_symbol
_atom_site_label
_atom_site_fract_x
_atom_site_fract_y
_atom_site_fract_z
Si Si1 0.018911 0.227879 0.654305
Si Si2 0.136151 0.297222 0.395927
Si Si3 0.798264 0.589376 0.275238
Si Si4 0.198303 0.691145 0.398073
Si Si5 0.100860 0.192561 0.101563
Si Si6 0.913853 0.914142 0.726656
Si Si7 0.312384 0.628907 0.109589
O O1 0.069541 0.275823 0.607221
O O2 0.038061 0.138003 0.677343
O O3 0.000000 0.269932 0.750000
O O4 0.963851 0.223272 0.589739
O O5 0.150697 0.324496 0.500000
O O6 0.148380 0.368309 0.325090
O O7 0.174729 0.221299 0.369678
O O8 0.812969 0.500000 0.250000
O O9 0.785390 0.625471 0.175497
O O10 0.746159 0.601934 0.344895
O O11 0.189576 0.652596 0.500000
O O12 0.250000 0.750000 0.402253
O O13 0.140755 0.735358 0.366920
O O14 0.107315 0.125185 0.177834
O O15 0.120411 0.161426 0.000000
O O16 0.861184 0.923848 0.656362
O O17 0.938710 0.000000 0.750000
O O18 0.310736 0.612778 0.000000
#
# Coordination Sequence:
#
# PCOD8276386 Si02
#       7
#    16  16  16  16  16  16  16
#     4   9  18  33  55  80 108 143 187 230 271 320
#     4  10  20  36  58  81 108 144 186 228 271 323
#     4  12  23  35  55  83 113 142 174 225 284 336
#     4  10  21  38  59  80 106 144 186 225 268 324
#     4  10  20  35  57  81 105 142 191 233 270 319
#     4  10  20  34  51  78 116 152 181 223 274 322
#     4  10  21  37  58  81 108 147 191 227 264 319
#
# _framework density 19.420024999999999
#
# number of rings (size 3 to 8) (size 9 to 14) (size 15 to 20)
#    0.000    1.857    0.000    6.000    0.000    6.000 
#    0.000    2.143    0.000    3.857    0.000    6.000 
#    0.000    0.000    0.000    0.000    0.000    0.000 
#
# Total GULP energy -694242.544947 kJ/mol
# GULP energy per Si atom -12397.188303 kJ/mol
# Density = 1.937582 g / cm^3
# Si number density = 19.420025 Si / 1000 Ang^3
#
#
#
# Elastic Constant Matrix: (Units=GPa)
#
#
# Indices 1 2 3 4 5 6 
#
# 1 103.3599 30.7916 23.7082 0.0000 0.0000 0.0000
# 2 30.7916 83.8116 42.3396 0.0000 0.0000 0.0000
# 3 23.7082 42.3396 112.0118 0.0000 0.0000 0.0000
# 4 0.0000 0.0000 0.0000 -92.5504 0.0000 0.0000
# 5 0.0000 0.0000 0.0000 0.0000 39.8632 0.0000
# 6 0.0000 0.0000 0.0000 0.0000 0.0000 6.2774
#
#
#
# Elastic Compliance Matrix: (Units=1/GPa)
#
#
# Indices 1 2 3 4 5 6 
#
# 1 0.010951 -0.003526 -0.000985 0.000000 0.000000 0.000000
# 2 -0.003526 0.015883 -0.005257 0.000000 0.000000 0.000000
# 3 -0.000985 -0.005257 0.011123 0.000000 0.000000 0.000000
# 4 0.000000 0.000000 0.000000 -0.010805 0.000000 0.000000
# 5 0.000000 0.000000 0.000000 0.000000 0.025086 0.000000
# 6 0.000000 0.000000 0.000000 0.000000 0.000000 0.159302
#
#
# Mechanical properties :
#
#
# Convention : Reuss Voigt Hill
#
# Bulk Modulus (GPa) = 54.28619 54.76247 54.52433
# Shear Modulus (GPa) = 21.07778 4.20763 12.64271
#
# Velocity S-wave (km/s) = 3.29806 1.47355 2.55427
# Velocity P-wave (km/s) = 6.52053 5.58170 6.06929
#
# Compressibility (1/GPa) = 0.01842089
#
# Stress axis : x y z
#
# Youngs Moduli (GPa) = 91.31387 62.96166 89.90071
#
# Poissons Ratio (x) = 0.22198 0.08857
# Poissons Ratio (y) = 0.32194 0.47263
# Poissons Ratio (z) = 0.08997 0.33101
#
# Static dielectric constant tensor:
#      x y z
#    x 3.685430 0.000000 0.000000 
#    y 0.000000 3.139260 0.000000 
#    z 0.000000 0.000000 3.905830 
# 
# 
# High freq. dielectric constant tensor:
#      x y z
#    x 1.763350 0.000000 0.000000 
#    y 0.000000 1.708740 0.000000 
#    z 0.000000 0.000000 1.779840 
# 
# From -- ./inp_files/32460.got.cif
#   From: 2010.03.12/outbox.cif.g09.slc.cpg/sg66_17_cif.got.tgz:32460.got - 2010.04.10 21:57:39.
