data_PCOD8276379
_publ_section_title
;
Structure prediction by ZEFSAII (Michael W. Deem and Ramdas Pophale) SiO2 
 PCOD8276379
Probable space group: C C C M
;
_chemical_formula_sum "Si O2"
_cell_formula_units_Z 96
_cell_length_a 20.298173
_cell_length_b 29.790972
_cell_length_c 9.516906
_cell_angle_alpha 90.000000
_cell_angle_beta 90.000000
_cell_angle_gamma 90.000000
_cell_volume 5754.894980
_symmetry_space_group_name_H-M "C C C M"
_symmetry_group_IT_number 66
_symmetry_cell_setting 'orthorhombic'
loop_
_space_group_symop_operation_xyz
x,y,z
-x,-y,z
x,-y,1/2-z
-x,y,1/2-z
-x,-y,-z
x,y,-z
-x,y,1/2+z
x,-y,1/2+z
1/2+x,1/2+y,z
1/2-x,1/2-y,z
1/2+x,1/2-y,1/2-z
1/2-x,1/2+y,1/2-z
1/2-x,1/2-y,-z
1/2+x,1/2+y,-z
1/2-x,1/2+y,1/2+z
1/2+x,1/2-y,1/2+z
loop_
_atom_site_type_symbol
_atom_site_label
_atom_site_fract_x
_atom_site_fract_y
_atom_site_fract_z
Si Si1 0.311127 0.779650 0.662405
Si Si2 0.728299 0.139245 0.164104
Si Si3 0.117091 0.960668 0.154843
Si Si4 0.273819 0.960410 0.155672
Si Si5 0.381493 0.360336 0.335273
Si Si6 0.061922 0.780322 0.665163
O O1 0.300750 0.791880 0.500000
O O2 0.250000 0.750000 0.717545
O O3 0.315164 0.825666 0.749028
O O4 0.378141 0.753306 0.689283
O O5 0.706973 0.089084 0.212397
O O6 0.804825 0.147469 0.196941
O O7 0.714037 0.145704 0.000000
O O8 0.195514 0.964013 0.151701
O O9 0.097358 0.910960 0.207141
O O10 0.086151 0.000000 0.250000
O O11 0.088525 0.968582 0.000000
O O12 0.304782 0.000000 0.250000
O O13 0.302653 0.967062 0.000000
O O14 0.396162 0.351026 0.500000
O O15 0.422968 0.328379 0.234361
O O16 0.046342 0.786572 0.500000
O O17 0.000000 0.759760 0.750000
#
# Coordination Sequence:
#
# PCOD8276379 Si02
#       6
#    16  16  16  16  16  16
#     4  10  20  34  50  72  99 124 158 203 245 285
#     4   9  17  28  46  71  97 126 162 199 235 282
#     4   8  14  24  39  61  89 119 153 193 235 280
#     4   8  14  24  37  60  93 126 157 189 229 276
#     4   9  17  30  47  68  94 124 159 198 240 285
#     4  11  23  37  52  70  95 126 160 200 243 291
#
# _framework density 16.681450999999999
#
# number of rings (size 3 to 8) (size 9 to 14) (size 15 to 20)
#    0.000    2.833    1.667    2.500    0.000    3.000 
#    0.000    3.333    0.000    0.500    0.000    3.500 
#    0.000    0.667    0.000    7.333    0.000    5.667 
#
# Total GULP energy -594999.187752 kJ/mol
# GULP energy per Si atom -12395.816412 kJ/mol
# Density = 1.664348 g / cm^3
# Si number density = 16.681451 Si / 1000 Ang^3
#
#
#
# Elastic Constant Matrix: (Units=GPa)
#
#
# Indices 1 2 3 4 5 6 
#
# 1 51.9014 36.7830 37.0754 0.0000 0.0000 0.0000
# 2 36.7830 127.5296 68.1874 0.0000 0.0000 0.0000
# 3 37.0754 68.1874 85.1764 0.0000 0.0000 0.0000
# 4 0.0000 0.0000 0.0000 36.2073 0.0000 0.0000
# 5 0.0000 0.0000 0.0000 0.0000 19.7664 0.0000
# 6 0.0000 0.0000 0.0000 0.0000 0.0000 12.3646
#
#
#
# Elastic Compliance Matrix: (Units=1/GPa)
#
#
# Indices 1 2 3 4 5 6 
#
# 1 0.028513 -0.002776 -0.010188 0.000000 0.000000 0.000000
# 2 -0.002776 0.013980 -0.009983 0.000000 0.000000 0.000000
# 3 -0.010188 -0.009983 0.024167 0.000000 0.000000 0.000000
# 4 0.000000 0.000000 0.000000 0.027619 0.000000 0.000000
# 5 0.000000 0.000000 0.000000 0.000000 0.050591 0.000000
# 6 0.000000 0.000000 0.000000 0.000000 0.000000 0.080876
#
#
# Mechanical properties :
#
#
# Convention : Reuss Voigt Hill
#
# Bulk Modulus (GPa) = 48.15990 60.96655 54.56323
# Shear Modulus (GPa) = 17.94934 21.83845 19.89390
#
# Velocity S-wave (km/s) = 3.28381 3.62214 3.45712
# Velocity P-wave (km/s) = 6.58110 7.35663 6.97965
#
# Compressibility (1/GPa) = 0.02076416
#
# Stress axis : x y z
#
# Youngs Moduli (GPa) = 35.07176 71.53206 41.37894
#
# Poissons Ratio (x) = 0.19860 0.42159
# Poissons Ratio (y) = 0.09737 0.41308
# Poissons Ratio (z) = 0.35733 0.71410
#
# Static dielectric constant tensor:
#      x y z
#    x 2.707750 0.000000 0.000000 
#    y 0.000000 3.259380 0.000000 
#    z 0.000000 0.000000 3.278500 
# 
# 
# High freq. dielectric constant tensor:
#      x y z
#    x 1.587810 0.000000 0.000000 
#    y 0.000000 1.649360 0.000000 
#    z 0.000000 0.000000 1.645360 
# 
# From -- ./inp_files/9274.got.cif
#   From: 2010.03.12/outbox.cif.g09.slc.cpg/sg66_5_cif.got.tgz:9274.got - 2010.04.10 21:57:39.
