data_PCOD8276231
_publ_section_title
;
Structure prediction by ZEFSAII (Michael W. Deem and Ramdas Pophale) SiO2 
 PCOD8276231
Probable space group: C C C M
;
_chemical_formula_sum "Si O2"
_cell_formula_units_Z 80
_cell_length_a 27.193023
_cell_length_b 7.057090
_cell_length_c 18.363642
_cell_angle_alpha 90.000000
_cell_angle_beta 90.000000
_cell_angle_gamma 90.000000
_cell_volume 3524.049205
_symmetry_space_group_name_H-M "C C C M"
_symmetry_group_IT_number 66
_symmetry_cell_setting 'orthorhombic'
loop_
_space_group_symop_operation_xyz
x,y,z
-x,-y,z
x,-y,1/2-z
-x,y,1/2-z
-x,-y,-z
x,y,-z
-x,y,1/2+z
x,-y,1/2+z
1/2+x,1/2+y,z
1/2-x,1/2-y,z
1/2+x,1/2-y,1/2-z
1/2-x,1/2+y,1/2-z
1/2-x,1/2-y,-z
1/2+x,1/2+y,-z
1/2-x,1/2+y,1/2+z
1/2+x,1/2-y,1/2+z
loop_
_atom_site_type_symbol
_atom_site_label
_atom_site_fract_x
_atom_site_fract_y
_atom_site_fract_z
Si Si1 0.394814 0.809024 0.704216
Si Si2 0.581071 0.936781 0.417888
Si Si3 0.138945 0.082432 0.418304
Si Si4 0.549868 0.612384 0.673038
Si Si5 0.206865 0.883345 0.681980
O O1 0.434600 0.664801 0.742441
O O2 0.339640 0.734339 0.710320
O O3 0.396803 0.000000 0.750000
O O4 0.409472 0.862540 0.621148
O O5 0.562437 0.974552 0.500000
O O6 0.631934 0.811093 0.418307
O O7 0.541537 0.806954 0.373569
O O8 0.134502 0.000498 0.500000
O O9 0.095074 0.994496 0.366295
O O10 0.191071 0.023065 0.384084
O O11 0.500000 0.500000 0.670762
O O12 0.250000 0.750000 0.651621
O O13 0.228353 0.000000 0.750000
#
# Coordination Sequence:
#
# PCOD8276231 Si02
#       5
#    16  16  16  16  16
#     4  10  19  37  62  96 134 164 228 288 335 386
#     4   8  17  35  63  95 137 177 214 273 337 393
#     4   9  20  38  61  97 138 172 215 270 331 399
#     4   9  17  34  67 100 133 176 224 270 330 401
#     4  12  23  39  64  93 129 178 230 278 334 399
#
# _framework density 22.701160999999999
#
# number of rings (size 3 to 8) (size 9 to 14) (size 15 to 20)
#    1.200    1.200    2.000    0.600    0.000    2.800 
#    0.000    2.000    0.000   15.600    0.000    7.000 
#    0.000    0.000    0.000    0.000    0.000    0.000 
#
# Total GULP energy -495798.037091 kJ/mol
# GULP energy per Si atom -12394.950927 kJ/mol
# Density = 2.264949 g / cm^3
# Si number density = 22.701161 Si / 1000 Ang^3
#
#
#
# Elastic Constant Matrix: (Units=GPa)
#
#
# Indices 1 2 3 4 5 6 
#
# 1 88.8683 43.1612 37.3408 0.0000 0.0000 0.0000
# 2 43.1612 94.6686 44.7431 0.0000 0.0000 0.0000
# 3 37.3408 44.7431 203.5270 0.0000 0.0000 0.0000
# 4 0.0000 0.0000 0.0000 34.7566 0.0000 0.0000
# 5 0.0000 0.0000 0.0000 0.0000 18.2149 0.0000
# 6 0.0000 0.0000 0.0000 0.0000 0.0000 24.8839
#
#
#
# Elastic Compliance Matrix: (Units=1/GPa)
#
#
# Indices 1 2 3 4 5 6 
#
# 1 0.014789 -0.006093 -0.001374 0.000000 0.000000 0.000000
# 2 -0.006093 0.014299 -0.002025 0.000000 0.000000 0.000000
# 3 -0.001374 -0.002025 0.005611 0.000000 0.000000 0.000000
# 4 0.000000 0.000000 0.000000 0.028771 0.000000 0.000000
# 5 0.000000 0.000000 0.000000 0.000000 0.054900 0.000000
# 6 0.000000 0.000000 0.000000 0.000000 0.000000 0.040187
#
#
# Mechanical properties :
#
#
# Convention : Reuss Voigt Hill
#
# Bulk Modulus (GPa) = 63.64068 70.83933 67.24001
# Shear Modulus (GPa) = 27.35532 33.02567 30.19049
#
# Velocity S-wave (km/s) = 3.47510 3.81832 3.65075
# Velocity P-wave (km/s) = 6.64806 7.12126 6.88873
#
# Compressibility (1/GPa) = 0.01571322
#
# Stress axis : x y z
#
# Youngs Moduli (GPa) = 67.61655 69.93725 178.23182
#
# Poissons Ratio (x) = 0.42616 0.24486
# Poissons Ratio (y) = 0.41202 0.36100
# Poissons Ratio (z) = 0.09289 0.14165
#
# Static dielectric constant tensor:
#      x y z
#    x 3.578480 0.000000 0.000000 
#    y 0.000000 4.649660 0.000000 
#    z 0.000000 0.000000 4.455870 
# 
# 
# High freq. dielectric constant tensor:
#      x y z
#    x 1.855420 0.000000 0.000000 
#    y 0.000000 1.914660 0.000000 
#    z 0.000000 0.000000 1.910090 
# 
# From -- ./inp_files/44123.got.cif
#   From: 2010.03.12/outbox.cif.g09.slc.cpg/sg66_23_cif.got.tgz:44123.got - 2010.04.10 21:57:39.
