data_PCOD8276209
_publ_section_title
;
Structure prediction by ZEFSAII (Michael W. Deem and Ramdas Pophale) SiO2 
 PCOD8276209
Probable space group: C C C M
;
_chemical_formula_sum "Si O2"
_cell_formula_units_Z 128
_cell_length_a 16.453374
_cell_length_b 22.279047
_cell_length_c 20.321352
_cell_angle_alpha 90.000000
_cell_angle_beta 90.000000
_cell_angle_gamma 90.000000
_cell_volume 7449.106407
_symmetry_space_group_name_H-M "C C C M"
_symmetry_group_IT_number 66
_symmetry_cell_setting 'orthorhombic'
loop_
_space_group_symop_operation_xyz
x,y,z
-x,-y,z
x,-y,1/2-z
-x,y,1/2-z
-x,-y,-z
x,y,-z
-x,y,1/2+z
x,-y,1/2+z
1/2+x,1/2+y,z
1/2-x,1/2-y,z
1/2+x,1/2-y,1/2-z
1/2-x,1/2+y,1/2-z
1/2-x,1/2-y,-z
1/2+x,1/2+y,-z
1/2-x,1/2+y,1/2+z
1/2+x,1/2-y,1/2+z
loop_
_atom_site_type_symbol
_atom_site_label
_atom_site_fract_x
_atom_site_fract_y
_atom_site_fract_z
Si Si1 0.185416 0.198644 0.424837
Si Si2 0.550761 0.749479 0.348574
Si Si3 0.796608 0.524352 0.179629
Si Si4 0.119206 0.249324 0.793922
Si Si5 0.431326 0.867809 0.924277
Si Si6 0.747366 0.847874 0.219134
Si Si7 0.930059 0.451323 0.427509
Si Si8 0.774659 0.599730 0.359945
O O1 0.160138 0.208715 0.500000
O O2 0.250000 0.250000 0.401935
O O3 0.104280 0.195450 0.379017
O O4 0.225538 0.132846 0.417503
O O5 0.580694 0.764792 0.276053
O O6 0.453267 0.739112 0.346977
O O7 0.574791 0.800604 0.399767
O O8 0.830632 0.500000 0.250000
O O9 0.746339 0.586428 0.185093
O O10 0.869684 0.538193 0.131366
O O11 0.742190 0.468688 0.151787
O O12 0.168403 0.186940 0.791875
O O13 0.175663 0.306569 0.812157
O O14 0.523984 0.888700 0.913872
O O15 0.368644 0.908122 0.881927
O O16 0.404502 0.871265 0.000000
O O17 0.731727 0.857661 0.296156
O O18 0.886888 0.450352 0.500000
O O19 0.000000 0.500000 0.428932
#
# Coordination Sequence:
#
# PCOD8276209 Si02
#       8
#    16  16  16  16  16  16  16  16
#     4  11  20  31  52  81 114 144 172 214 267 324
#     4  11  20  32  50  81 105 141 175 217 273 323
#     4  10  22  35  53  76 107 146 185 227 267 316
#     4  10  20  33  57  74 105 140 177 225 272 318
#     4  11  20  31  49  75 111 145 175 209 256 323
#     4  10  19  37  52  77 105 139 180 226 264 317
#     4  10  20  33  47  70 108 148 182 215 255 315
#     4  11  19  32  48  76 108 142 178 211 261 321
#
# _framework density 17.183268999999999
#
# number of rings (size 3 to 8) (size 9 to 14) (size 15 to 20)
#    0.000    1.500    5.000    1.500    0.000    0.750 
#    0.000    0.000    0.000    2.250    0.000    7.000 
#    0.000    0.000    0.000    0.000    0.000    0.000 
#
# Total GULP energy -793096.215887 kJ/mol
# GULP energy per Si atom -12392.128373 kJ/mol
# Density = 1.714416 g / cm^3
# Si number density = 17.183269 Si / 1000 Ang^3
#
#
#
# Elastic Constant Matrix: (Units=GPa)
#
#
# Indices 1 2 3 4 5 6 
#
# 1 78.1621 36.5042 29.2576 0.0000 0.0000 0.0000
# 2 36.5042 109.6793 29.4549 0.0000 0.0000 0.0000
# 3 29.2576 29.4549 59.2308 0.0000 0.0000 0.0000
# 4 0.0000 0.0000 0.0000 26.6121 0.0000 0.0000
# 5 0.0000 0.0000 0.0000 0.0000 26.8830 0.0000
# 6 0.0000 0.0000 0.0000 0.0000 0.0000 18.6753
#
#
#
# Elastic Compliance Matrix: (Units=1/GPa)
#
#
# Indices 1 2 3 4 5 6 
#
# 1 0.017054 -0.003940 -0.006465 0.000000 0.000000 0.000000
# 2 -0.003940 0.011433 -0.003739 0.000000 0.000000 0.000000
# 3 -0.006465 -0.003739 0.021936 0.000000 0.000000 0.000000
# 4 0.000000 0.000000 0.000000 0.037577 0.000000 0.000000
# 5 0.000000 0.000000 0.000000 0.000000 0.037198 0.000000
# 6 0.000000 0.000000 0.000000 0.000000 0.000000 0.053547
#
#
# Mechanical properties :
#
#
# Convention : Reuss Voigt Hill
#
# Bulk Modulus (GPa) = 45.17733 48.61171 46.89452
# Shear Modulus (GPa) = 23.31976 24.55780 23.93878
#
# Velocity S-wave (km/s) = 3.68791 3.78454 3.73653
# Velocity P-wave (km/s) = 6.66954 6.88829 6.77980
#
# Compressibility (1/GPa) = 0.02213500
#
# Stress axis : x y z
#
# Youngs Moduli (GPa) = 58.63792 87.46602 45.58729
#
# Poissons Ratio (x) = 0.34460 0.29471
# Poissons Ratio (y) = 0.23102 0.17047
# Poissons Ratio (z) = 0.37907 0.32707
#
# Static dielectric constant tensor:
#      x y z
#    x 3.270010 0.000000 0.000000 
#    y 0.000000 3.384400 0.000000 
#    z 0.000000 0.000000 3.216760 
# 
# 
# High freq. dielectric constant tensor:
#      x y z
#    x 1.631820 0.000000 0.000000 
#    y 0.000000 1.663040 0.000000 
#    z 0.000000 0.000000 1.660620 
# 
# From -- ./inp_files/51306.got.cif
#   From: 2010.03.12/outbox.cif.g09.slc.cpg/sg66_26_cif.got.tgz:51306.got - 2010.04.10 21:57:39.
