data_PCOD8276330
_publ_section_title
;
Structure prediction by ZEFSAII (Michael W. Deem and Ramdas Pophale) SiO2 
 PCOD8276330
Probable space group: C C C M
;
_chemical_formula_sum "Si O2"
_cell_formula_units_Z 64
_cell_length_a 9.779949
_cell_length_b 41.698736
_cell_length_c 8.749788
_cell_angle_alpha 90.000000
_cell_angle_beta 90.000000
_cell_angle_gamma 90.000000
_cell_volume 3568.264269
_symmetry_space_group_name_H-M "C C C M"
_symmetry_group_IT_number 66
_symmetry_cell_setting 'orthorhombic'
loop_
_space_group_symop_operation_xyz
x,y,z
-x,-y,z
x,-y,1/2-z
-x,y,1/2-z
-x,-y,-z
x,y,-z
-x,y,1/2+z
x,-y,1/2+z
1/2+x,1/2+y,z
1/2-x,1/2-y,z
1/2+x,1/2-y,1/2-z
1/2-x,1/2+y,1/2-z
1/2-x,1/2-y,-z
1/2+x,1/2+y,-z
1/2-x,1/2+y,1/2+z
1/2+x,1/2-y,1/2+z
loop_
_atom_site_type_symbol
_atom_site_label
_atom_site_fract_x
_atom_site_fract_y
_atom_site_fract_z
Si Si1 0.648468 0.841801 0.179088
Si Si2 0.650504 0.221687 0.819511
Si Si3 0.852259 0.412139 0.321465
Si Si4 0.852833 0.033522 0.317703
O O1 0.500000 0.843185 0.250000
O O2 0.721763 0.811525 0.260206
O O3 0.713509 0.876845 0.214204
O O4 0.641017 0.834863 0.000000
O O5 0.500000 0.226902 0.750000
O O6 0.750000 0.250000 0.764869
O O7 0.636487 0.220562 0.000000
O O8 0.873752 0.416191 0.500000
O O9 0.748808 0.438838 0.259010
O O10 0.000000 0.417358 0.250000
O O11 0.861766 0.031408 0.500000
O O12 0.000000 0.041912 0.250000
O O13 0.798453 0.000000 0.250000
#
# Coordination Sequence:
#
# PCOD8276330 Si02
#       4
#    16  16  16  16
#     4   9  16  29  49  71  96 127 160 196 240 287
#     4  10  20  33  50  73  99 128 163 200 240 287
#     4   9  19  33  51  75 100 125 159 201 242 286
#     4  10  20  35  52  72  98 130 165 198 238 288
#
# _framework density 17.935891999999999
#
# number of rings (size 3 to 8) (size 9 to 14) (size 15 to 20)
#    0.000    2.500    0.000    4.500    0.000    5.500 
#    0.000    3.750    0.000    6.000    0.000    0.000 
#    0.000    0.000    0.000    0.000    0.000    0.000 
#
# Total GULP energy -396539.662024 kJ/mol
# GULP energy per Si atom -12391.864438 kJ/mol
# Density = 1.789507 g / cm^3
# Si number density = 17.935892 Si / 1000 Ang^3
#
#
#
# Elastic Constant Matrix: (Units=GPa)
#
#
# Indices 1 2 3 4 5 6 
#
# 1 70.8032 84.9277 30.7261 0.0000 0.0000 0.0000
# 2 84.9277 201.6320 54.4449 0.0000 0.0000 0.0000
# 3 30.7261 54.4449 70.1960 0.0000 0.0000 0.0000
# 4 0.0000 0.0000 0.0000 42.9388 0.0000 0.0000
# 5 0.0000 0.0000 0.0000 0.0000 14.5662 0.0000
# 6 0.0000 0.0000 0.0000 0.0000 0.0000 34.6532
#
#
#
# Elastic Compliance Matrix: (Units=1/GPa)
#
#
# Indices 1 2 3 4 5 6 
#
# 1 0.029466 -0.011294 -0.004138 0.000000 0.000000 0.000000
# 2 -0.011294 0.010602 -0.003280 0.000000 0.000000 0.000000
# 3 -0.004138 -0.003280 0.018601 0.000000 0.000000 0.000000
# 4 0.000000 0.000000 0.000000 0.023289 0.000000 0.000000
# 5 0.000000 0.000000 0.000000 0.000000 0.068652 0.000000
# 6 0.000000 0.000000 0.000000 0.000000 0.000000 0.028857
#
#
# Mechanical properties :
#
#
# Convention : Reuss Voigt Hill
#
# Bulk Modulus (GPa) = 47.06798 75.86985 61.46891
# Shear Modulus (GPa) = 22.32409 29.93380 26.12895
#
# Velocity S-wave (km/s) = 3.53180 4.08969 3.82094
# Velocity P-wave (km/s) = 6.55216 8.04321 7.33566
#
# Compressibility (1/GPa) = 0.02124587
#
# Stress axis : x y z
#
# Youngs Moduli (GPa) = 33.93699 94.32132 53.76070
#
# Poissons Ratio (x) = 1.06525 0.22248
# Poissons Ratio (y) = 0.38328 0.17631
# Poissons Ratio (z) = 0.14044 0.30933
#
# Static dielectric constant tensor:
#      x y z
#    x 3.057290 0.000000 0.000000 
#    y 0.000000 4.392030 0.000000 
#    z 0.000000 0.000000 3.389130 
# 
# 
# High freq. dielectric constant tensor:
#      x y z
#    x 1.653510 0.000000 0.000000 
#    y 0.000000 1.720180 0.000000 
#    z 0.000000 0.000000 1.706090 
# 
# From -- ./inp_files/3970.got.cif
#   From: 2010.03.12/outbox.cif.g09.slc.cpg/sg66_2_cif.got.tgz:3970.got - 2010.04.10 21:57:39.
