data_PCOD8276688
_publ_section_title
;
Structure prediction by ZEFSAII (Michael W. Deem and Ramdas Pophale) SiO2 
 PCOD8276688
Probable space group: C C C M
;
_chemical_formula_sum "Si O2"
_cell_formula_units_Z 80
_cell_length_a 14.737923
_cell_length_b 11.249002
_cell_length_c 25.636296
_cell_angle_alpha 90.000000
_cell_angle_beta 90.000000
_cell_angle_gamma 90.000000
_cell_volume 4250.162690
_symmetry_space_group_name_H-M "C C C M"
_symmetry_group_IT_number 66
_symmetry_cell_setting 'orthorhombic'
loop_
_space_group_symop_operation_xyz
x,y,z
-x,-y,z
x,-y,1/2-z
-x,y,1/2-z
-x,-y,-z
x,y,-z
-x,y,1/2+z
x,-y,1/2+z
1/2+x,1/2+y,z
1/2-x,1/2-y,z
1/2+x,1/2-y,1/2-z
1/2-x,1/2+y,1/2-z
1/2-x,1/2-y,-z
1/2+x,1/2+y,-z
1/2-x,1/2+y,1/2+z
1/2+x,1/2-y,1/2+z
loop_
_atom_site_type_symbol
_atom_site_label
_atom_site_fract_x
_atom_site_fract_y
_atom_site_fract_z
Si Si1 0.226927 0.885471 0.000000
Si Si2 0.016493 0.862807 0.000000
Si Si3 0.097116 0.771989 0.406393
Si Si4 0.767142 0.441200 0.407349
Si Si5 0.497223 0.807136 0.693003
Si Si6 0.852803 0.483784 0.193677
O O1 0.250000 0.750000 0.000000
O O2 0.265952 0.955441 0.950082
O O3 0.122049 0.864567 0.000000
O O4 0.976609 0.794183 0.049515
O O5 0.000000 0.000000 0.000000
O O6 0.147240 0.646332 0.417029
O O7 0.171828 0.874378 0.408325
O O8 0.040616 0.779002 0.352212
O O9 0.777075 0.498388 0.350310
O O10 0.500000 0.742757 0.750000
O O11 0.598999 0.856567 0.682218
O O12 0.429927 0.917393 0.694702
O O13 0.803574 0.500000 0.250000
#
# Coordination Sequence:
#
# PCOD8276688 Si02
#       6
#     8   8  16  16  16  16
#     4  12  27  41  55  81 120 149 185 242 295 332
#     4  12  23  41  57  77 112 152 183 222 292 343
#     4  10  20  36  63  83 107 150 193 229 271 340
#     4  10  20  38  59  84 112 145 195 233 272 335
#     4   8  15  30  54  84 110 141 185 230 275 324
#     4   8  15  30  54  81 113 145 181 232 278 319
#
# _framework density 18.822807999999998
#
# number of rings (size 3 to 8) (size 9 to 14) (size 15 to 20)
#    0.000    2.400    2.000    1.800    2.800    1.600 
#    0.000    3.000    4.400    0.000    0.000    0.000 
#    0.000    0.000    0.000    0.000    0.000    0.000 
#
# Total GULP energy -495538.568283 kJ/mol
# GULP energy per Si atom -12388.464207 kJ/mol
# Density = 1.877997 g / cm^3
# Si number density = 18.822808 Si / 1000 Ang^3
#
#
#
# Elastic Constant Matrix: (Units=GPa)
#
#
# Indices 1 2 3 4 5 6 
#
# 1 66.3839 26.5811 46.4999 0.0000 0.0000 0.0000
# 2 26.5811 86.7770 57.8559 0.0000 0.0000 0.0000
# 3 46.4999 57.8559 177.0326 0.0000 0.0000 0.0000
# 4 0.0000 0.0000 0.0000 5.9515 0.0000 0.0000
# 5 0.0000 0.0000 0.0000 0.0000 25.3968 0.0000
# 6 0.0000 0.0000 0.0000 0.0000 0.0000 15.9466
#
#
#
# Elastic Compliance Matrix: (Units=1/GPa)
#
#
# Indices 1 2 3 4 5 6 
#
# 1 0.019135 -0.003210 -0.003977 0.000000 0.000000 0.000000
# 2 -0.003210 0.015273 -0.004148 0.000000 0.000000 0.000000
# 3 -0.003977 -0.004148 0.008049 0.000000 0.000000 0.000000
# 4 0.000000 0.000000 0.000000 0.168025 0.000000 0.000000
# 5 0.000000 0.000000 0.000000 0.000000 0.039375 0.000000
# 6 0.000000 0.000000 0.000000 0.000000 0.000000 0.062709
#
#
# Mechanical properties :
#
#
# Convention : Reuss Voigt Hill
#
# Bulk Modulus (GPa) = 50.53922 65.78526 58.16224
# Shear Modulus (GPa) = 14.62711 22.74274 18.68493
#
# Velocity S-wave (km/s) = 2.79067 3.47977 3.15409
# Velocity P-wave (km/s) = 6.10672 7.15337 6.65067
#
# Compressibility (1/GPa) = 0.01978661
#
# Stress axis : x y z
#
# Youngs Moduli (GPa) = 52.26051 65.47655 124.23955
#
# Poissons Ratio (x) = 0.21016 0.49411
# Poissons Ratio (y) = 0.16774 0.51537
# Poissons Ratio (z) = 0.20784 0.27161
#
# Static dielectric constant tensor:
#      x y z
#    x 3.376610 0.000000 0.000000 
#    y 0.000000 3.326050 0.000000 
#    z 0.000000 0.000000 4.040000 
# 
# 
# High freq. dielectric constant tensor:
#      x y z
#    x 1.721710 0.000000 0.000000 
#    y 0.000000 1.704570 0.000000 
#    z 0.000000 0.000000 1.747360 
# 
# From -- ./inp_files/57948.got.cif
#   From: 2010.03.12/outbox.cif.g09.slc.cpg/sg66_29_cif.got.tgz:57948.got - 2010.04.10 21:57:39.
