data_PCOD8276896
_publ_section_title
;
Structure prediction by ZEFSAII (Michael W. Deem and Ramdas Pophale) SiO2 
 PCOD8276896
Probable space group: C C C M
;
_chemical_formula_sum "Si O2"
_cell_formula_units_Z 56
_cell_length_a 5.149262
_cell_length_b 32.634320
_cell_length_c 14.620778
_cell_angle_alpha 90.000000
_cell_angle_beta 90.000000
_cell_angle_gamma 90.000000
_cell_volume 2456.914483
_symmetry_space_group_name_H-M "C C C M"
_symmetry_group_IT_number 66
_symmetry_cell_setting 'orthorhombic'
loop_
_space_group_symop_operation_xyz
x,y,z
-x,-y,z
x,-y,1/2-z
-x,y,1/2-z
-x,-y,-z
x,y,-z
-x,y,1/2+z
x,-y,1/2+z
1/2+x,1/2+y,z
1/2-x,1/2-y,z
1/2+x,1/2-y,1/2-z
1/2-x,1/2+y,1/2-z
1/2-x,1/2-y,-z
1/2+x,1/2+y,-z
1/2-x,1/2+y,1/2+z
1/2+x,1/2-y,1/2+z
loop_
_atom_site_type_symbol
_atom_site_label
_atom_site_fract_x
_atom_site_fract_y
_atom_site_fract_z
Si Si1 0.144468 0.340572 0.605348
Si Si2 0.000000 0.275029 0.750000
Si Si3 0.135028 0.107566 0.104384
Si Si4 0.247023 0.981762 0.649201
O O1 0.205424 0.328384 0.500000
O O2 0.369772 0.371517 0.641924
O O3 0.131049 0.300543 0.667671
O O4 0.864676 0.360492 0.615388
O O5 0.750000 0.250000 0.711523
O O6 0.222721 0.067124 0.158442
O O7 0.092602 0.094246 0.000000
O O8 0.500000 0.000000 0.597223
O O9 0.251425 0.000000 0.750000
O O10 0.000000 0.000000 0.595093
#
# Coordination Sequence:
#
# PCOD8276896 Si02
#       4
#    16   8  16  16
#     4  10  23  43  66  91 122 162 205 251 304 365
#     4  12  26  42  66 100 129 158 197 248 314 384
#     4  10  21  39  61  85 118 163 211 256 302 360
#     4  10  21  34  51  81 117 155 203 254 309 354
#
# _framework density 22.792818
#
# number of rings (size 3 to 8) (size 9 to 14) (size 15 to 20)
#    0.000    1.714    0.000    3.429    0.000    9.143 
#    0.000    0.000    0.000    0.000    0.000    0.000 
#    0.000    0.000    0.000    0.000    0.000    0.000 
#
# Total GULP energy -347040.710615 kJ/mol
# GULP energy per Si atom -12394.311093 kJ/mol
# Density = 2.274094 g / cm^3
# Si number density = 22.792818 Si / 1000 Ang^3
#
#
#
# Elastic Constant Matrix: (Units=GPa)
#
#
# Indices 1 2 3 4 5 6 
#
# 1 193.2714 52.1050 22.6290 0.0000 0.0000 0.0000
# 2 52.1050 136.2298 52.2799 0.0000 0.0000 0.0000
# 3 22.6290 52.2799 63.3202 0.0000 0.0000 0.0000
# 4 0.0000 0.0000 0.0000 13.1567 0.0000 0.0000
# 5 0.0000 0.0000 0.0000 0.0000 18.4429 0.0000
# 6 0.0000 0.0000 0.0000 0.0000 0.0000 21.0791
#
#
#
# Elastic Compliance Matrix: (Units=1/GPa)
#
#
# Indices 1 2 3 4 5 6 
#
# 1 0.005774 -0.002074 -0.000351 0.000000 0.000000 0.000000
# 2 -0.002074 0.011490 -0.008745 0.000000 0.000000 0.000000
# 3 -0.000351 -0.008745 0.023139 0.000000 0.000000 0.000000
# 4 0.000000 0.000000 0.000000 0.076007 0.000000 0.000000
# 5 0.000000 0.000000 0.000000 0.000000 0.054222 0.000000
# 6 0.000000 0.000000 0.000000 0.000000 0.000000 0.047440
#
#
# Mechanical properties :
#
#
# Convention : Reuss Voigt Hill
#
# Bulk Modulus (GPa) = 55.36504 71.87216 63.61860
# Shear Modulus (GPa) = 20.28945 28.25623 24.27284
#
# Velocity S-wave (km/s) = 2.98681 3.52476 3.26687
# Velocity P-wave (km/s) = 6.01980 6.94021 6.49632
#
# Compressibility (1/GPa) = 0.01806194
#
# Stress axis : x y z
#
# Youngs Moduli (GPa) = 173.18206 87.03339 43.21709
#
# Poissons Ratio (x) = 0.18048 0.01519
# Poissons Ratio (y) = 0.35912 0.37795
# Poissons Ratio (z) = 0.06087 0.76115
#
# Static dielectric constant tensor:
#      x y z
#    x 2.819620 0.000000 0.000000 
#    y 0.000000 3.977700 0.000000 
#    z 0.000000 0.000000 3.903120 
# 
# 
# High freq. dielectric constant tensor:
#      x y z
#    x 1.933640 0.000000 0.000000 
#    y 0.000000 1.893730 0.000000 
#    z 0.000000 0.000000 1.881790 
# 
# From -- ./inp_files/22470.got.cif
#   From: 2010.03.12/outbox.cif.g09.slc.cpg/sg66_12_cif.got.tgz:22470.got - 2010.04.10 21:57:39.
