data_PCOD8276382
_publ_section_title
;
Structure prediction by ZEFSAII (Michael W. Deem and Ramdas Pophale) SiO2 
 PCOD8276382
Probable space group: C C C M
;
_chemical_formula_sum "Si O2"
_cell_formula_units_Z 96
_cell_length_a 29.403243
_cell_length_b 20.803456
_cell_length_c 8.902295
_cell_angle_alpha 90.000000
_cell_angle_beta 90.000000
_cell_angle_gamma 90.000000
_cell_volume 5445.436567
_symmetry_space_group_name_H-M "C C C M"
_symmetry_group_IT_number 66
_symmetry_cell_setting 'orthorhombic'
loop_
_space_group_symop_operation_xyz
x,y,z
-x,-y,z
x,-y,1/2-z
-x,y,1/2-z
-x,-y,-z
x,y,-z
-x,y,1/2+z
x,-y,1/2+z
1/2+x,1/2+y,z
1/2-x,1/2-y,z
1/2+x,1/2-y,1/2-z
1/2-x,1/2+y,1/2-z
1/2-x,1/2-y,-z
1/2+x,1/2+y,-z
1/2-x,1/2+y,1/2+z
1/2+x,1/2-y,1/2+z
loop_
_atom_site_type_symbol
_atom_site_label
_atom_site_fract_x
_atom_site_fract_y
_atom_site_fract_z
Si Si1 0.111676 0.062521 0.332168
Si Si2 0.950674 0.702725 0.323748
Si Si3 0.287970 0.699215 0.178703
Si Si4 0.451227 0.060294 0.326335
Si Si5 0.383976 0.695885 0.321301
Si Si6 0.719267 0.560034 0.663648
O O1 0.090946 0.068381 0.500000
O O2 0.100108 0.126415 0.238815
O O3 0.165325 0.052846 0.344191
O O4 0.090241 0.000000 0.250000
O O5 0.953960 0.720092 0.500000
O O6 0.929100 0.630891 0.302792
O O7 0.918670 0.751506 0.237373
O O8 0.000000 0.707552 0.250000
O O9 0.250000 0.750000 0.224701
O O10 0.334515 0.716389 0.261423
O O11 0.269673 0.629605 0.235813
O O12 0.297449 0.697248 0.000000
O O13 0.500000 0.063256 0.250000
O O14 0.456647 0.044408 0.500000
O O15 0.423695 0.000000 0.250000
O O16 0.383502 0.694008 0.500000
O O17 0.741415 0.500000 0.750000
O O18 0.741441 0.557016 0.500000
#
# Coordination Sequence:
#
# PCOD8276382 Si02
#       6
#    16  16  16  16  16  16
#     4   9  16  28  46  69  96 125 160 202 244 286
#     4  10  20  34  51  73 100 131 165 202 245 292
#     4   9  18  33  51  70  95 128 164 202 245 291
#     4   9  16  26  44  68  94 122 155 197 241 284
#     4  11  21  32  49  74 102 132 165 203 246 293
#     4   8  14  24  41  65  90 117 150 191 236 280
#
# _framework density 17.629439999999999
#
# number of rings (size 3 to 8) (size 9 to 14) (size 15 to 20)
#    0.000    2.667    0.000    4.500    0.000    6.333 
#    0.000    0.000    0.000    1.500    0.000    5.833 
#    0.000    0.000    0.000    0.000    0.000    0.000 
#
# Total GULP energy -594763.559829 kJ/mol
# GULP energy per Si atom -12390.907496 kJ/mol
# Density = 1.758931 g / cm^3
# Si number density = 17.629440 Si / 1000 Ang^3
#
#
#
# Elastic Constant Matrix: (Units=GPa)
#
#
# Indices 1 2 3 4 5 6 
#
# 1 47.0961 57.4618 37.1641 0.0000 0.0000 0.0000
# 2 57.4618 166.1816 72.2412 0.0000 0.0000 0.0000
# 3 37.1641 72.2412 127.1278 0.0000 0.0000 0.0000
# 4 0.0000 0.0000 0.0000 34.6522 0.0000 0.0000
# 5 0.0000 0.0000 0.0000 0.0000 17.9769 0.0000
# 6 0.0000 0.0000 0.0000 0.0000 0.0000 21.8568
#
#
#
# Elastic Compliance Matrix: (Units=1/GPa)
#
#
# Indices 1 2 3 4 5 6 
#
# 1 0.038947 -0.011312 -0.004958 0.000000 0.000000 0.000000
# 2 -0.011312 0.011277 -0.003101 0.000000 0.000000 0.000000
# 3 -0.004958 -0.003101 0.011078 0.000000 0.000000 0.000000
# 4 0.000000 0.000000 0.000000 0.028858 0.000000 0.000000
# 5 0.000000 0.000000 0.000000 0.000000 0.055627 0.000000
# 6 0.000000 0.000000 0.000000 0.000000 0.000000 0.045752
#
#
# Mechanical properties :
#
#
# Convention : Reuss Voigt Hill
#
# Bulk Modulus (GPa) = 44.32610 74.90437 59.61523
# Shear Modulus (GPa) = 21.02602 26.46641 23.74622
#
# Velocity S-wave (km/s) = 3.45725 3.87882 3.67408
# Velocity P-wave (km/s) = 6.41362 7.91459 7.20331
#
# Compressibility (1/GPa) = 0.02256007
#
# Stress axis : x y z
#
# Youngs Moduli (GPa) = 25.67611 88.67529 90.27072
#
# Poissons Ratio (x) = 1.00307 0.44752
# Poissons Ratio (y) = 0.29044 0.27997
# Poissons Ratio (z) = 0.12729 0.27502
#
# Static dielectric constant tensor:
#      x y z
#    x 2.725140 0.000000 0.000000 
#    y 0.000000 3.986320 0.000000 
#    z 0.000000 0.000000 3.489950 
# 
# 
# High freq. dielectric constant tensor:
#      x y z
#    x 1.610090 0.000000 0.000000 
#    y 0.000000 1.708210 0.000000 
#    z 0.000000 0.000000 1.693170 
# 
# From -- ./inp_files/10277.got.cif
#   From: 2010.03.12/outbox.cif.g09.slc.cpg/sg66_6_cif.got.tgz:10277.got - 2010.04.10 21:57:39.
