data_PCOD8276965
_publ_section_title
;
Structure prediction by ZEFSAII (Michael W. Deem and Ramdas Pophale) SiO2 
 PCOD8276965
Probable space group: C C C M
;
_chemical_formula_sum "Si O2"
_cell_formula_units_Z 48
_cell_length_a 18.873263
_cell_length_b 7.898418
_cell_length_c 14.323014
_cell_angle_alpha 90.000000
_cell_angle_beta 90.000000
_cell_angle_gamma 90.000000
_cell_volume 2135.116231
_symmetry_space_group_name_H-M "C C C M"
_symmetry_group_IT_number 66
_symmetry_cell_setting 'orthorhombic'
loop_
_space_group_symop_operation_xyz
x,y,z
-x,-y,z
x,-y,1/2-z
-x,y,1/2-z
-x,-y,-z
x,y,-z
-x,y,1/2+z
x,-y,1/2+z
1/2+x,1/2+y,z
1/2-x,1/2-y,z
1/2+x,1/2-y,1/2-z
1/2-x,1/2+y,1/2-z
1/2-x,1/2-y,-z
1/2+x,1/2+y,-z
1/2-x,1/2+y,1/2+z
1/2+x,1/2-y,1/2+z
loop_
_atom_site_type_symbol
_atom_site_label
_atom_site_fract_x
_atom_site_fract_y
_atom_site_fract_z
Si Si1 0.935373 0.327669 0.696500
Si Si2 0.618364 0.548550 0.500000
Si Si3 0.513765 0.237221 0.500000
Si Si4 0.803583 0.105882 0.665153
O O1 0.916257 0.500000 0.750000
O O2 0.960935 0.368367 0.590549
O O3 0.871038 0.201376 0.705790
O O4 0.000000 0.235586 0.750000
O O5 0.558884 0.407117 0.500000
O O6 0.571826 0.722821 0.500000
O O7 0.671587 0.528707 0.587415
O O8 0.750000 0.250000 0.625630
O O9 0.768106 0.000000 0.750000
#
# Coordination Sequence:
#
# PCOD8276965 Si02
#       4
#    16   8   8  16
#     4  10  21  36  57  86 118 152 190 239 291 343
#     4   9  19  36  61  85 112 154 199 239 280 343
#     4   9  18  35  58  87 117 150 195 239 284 340
#     4  11  22  38  59  84 117 154 196 242 292 346
#
# _framework density 22.481210000000001
#
# number of rings (size 3 to 8) (size 9 to 14) (size 15 to 20)
#    0.000    2.000    0.000    3.500    0.000    6.000 
#    0.000    2.500    0.000    0.000    0.000    0.000 
#    0.000    0.000    0.000    0.000    0.000    0.000 
#
# Total GULP energy -297393.101160 kJ/mol
# GULP energy per Si atom -12391.379215 kJ/mol
# Density = 2.243004 g / cm^3
# Si number density = 22.481210 Si / 1000 Ang^3
#
#
#
# Elastic Constant Matrix: (Units=GPa)
#
#
# Indices 1 2 3 4 5 6 
#
# 1 71.4755 8.9697 9.4264 0.0000 0.0000 0.0000
# 2 8.9697 66.1751 30.1781 0.0000 0.0000 0.0000
# 3 9.4264 30.1781 155.6409 0.0000 0.0000 0.0000
# 4 0.0000 0.0000 0.0000 -129.5903 0.0000 0.0000
# 5 0.0000 0.0000 0.0000 0.0000 27.0383 0.0000
# 6 0.0000 0.0000 0.0000 0.0000 0.0000 34.7086
#
#
#
# Elastic Compliance Matrix: (Units=1/GPa)
#
#
# Indices 1 2 3 4 5 6 
#
# 1 0.014274 -0.001690 -0.000537 0.000000 0.000000 0.000000
# 2 -0.001690 0.016777 -0.003151 0.000000 0.000000 0.000000
# 3 -0.000537 -0.003151 0.007068 0.000000 0.000000 0.000000
# 4 0.000000 0.000000 0.000000 -0.007717 0.000000 0.000000
# 5 0.000000 0.000000 0.000000 0.000000 0.036985 0.000000
# 6 0.000000 0.000000 0.000000 0.000000 0.000000 0.028811
#
#
# Mechanical properties :
#
#
# Convention : Reuss Voigt Hill
#
# Bulk Modulus (GPa) = 36.54360 43.38224 39.96292
# Shear Modulus (GPa) = 43.07558 2.74582 22.91070
#
# Velocity S-wave (km/s) = 4.38204 1.10636 3.19580
# Velocity P-wave (km/s) = 6.47252 4.57942 5.60645
#
# Compressibility (1/GPa) = 0.02736458
#
# Stress axis : x y z
#
# Youngs Moduli (GPa) = 70.05898 59.60433 141.47343
#
# Poissons Ratio (x) = 0.10073 0.07595
# Poissons Ratio (y) = 0.11839 0.44574
# Poissons Ratio (z) = 0.03761 0.18780
#
# Static dielectric constant tensor:
#      x y z
#    x 4.121110 0.000000 0.000000 
#    y 0.000000 3.815060 0.000000 
#    z 0.000000 0.000000 4.293110 
# 
# 
# High freq. dielectric constant tensor:
#      x y z
#    x 1.881440 0.000000 0.000000 
#    y 0.000000 1.865610 0.000000 
#    z 0.000000 0.000000 1.895360 
# 
# From -- ./inp_files/23549.got.cif
#   From: 2010.03.12/outbox.cif.g09.slc.cpg/sg66_12_cif.got.tgz:23549.got - 2010.04.10 21:57:39.
