data_PCOD8276284
_publ_section_title
;
Structure prediction by ZEFSAII (Michael W. Deem and Ramdas Pophale) SiO2 
 PCOD8276284
Probable space group: C C C M
;
_chemical_formula_sum "Si O2"
_cell_formula_units_Z 88
_cell_length_a 5.113003
_cell_length_b 33.271909
_cell_length_c 32.697998
_cell_angle_alpha 90.000000
_cell_angle_beta 90.000000
_cell_angle_gamma 90.000000
_cell_volume 5562.562837
_symmetry_space_group_name_H-M "C C C M"
_symmetry_group_IT_number 66
_symmetry_cell_setting 'orthorhombic'
loop_
_space_group_symop_operation_xyz
x,y,z
-x,-y,z
x,-y,1/2-z
-x,y,1/2-z
-x,-y,-z
x,y,-z
-x,y,1/2+z
x,-y,1/2+z
1/2+x,1/2+y,z
1/2-x,1/2-y,z
1/2+x,1/2-y,1/2-z
1/2-x,1/2+y,1/2-z
1/2-x,1/2-y,-z
1/2+x,1/2+y,-z
1/2-x,1/2+y,1/2+z
1/2+x,1/2-y,1/2+z
loop_
_atom_site_type_symbol
_atom_site_label
_atom_site_fract_x
_atom_site_fract_y
_atom_site_fract_z
Si Si1 0.997458 0.047688 0.795740
Si Si2 0.758562 0.471914 0.500000
Si Si3 0.406243 0.088740 0.069615
Si Si4 0.502873 0.952319 0.845603
Si Si5 0.932209 0.864723 0.547482
Si Si6 0.996200 0.772840 0.451519
O O1 0.744024 0.062795 0.819785
O O2 0.000000 0.066050 0.750000
O O3 0.247552 0.062839 0.820534
O O4 0.000000 0.000000 0.792692
O O5 0.500000 0.500000 0.500000
O O6 0.785564 0.445010 0.459932
O O7 0.000000 0.500000 0.500000
O O8 0.506301 0.068479 0.110701
O O9 0.646227 0.115176 0.052122
O O10 0.152417 0.116209 0.076785
O O11 0.500000 0.000000 0.852248
O O12 0.015198 0.869692 0.500000
O O13 0.947071 0.818661 0.561435
O O14 0.007589 0.769483 0.500000
O O15 0.750000 0.750000 0.432901
O O16 0.250000 0.750000 0.433014
#
# Coordination Sequence:
#
# PCOD8276284 Si02
#       6
#    16   8  16  16  16  16
#     4   9  17  31  50  69  87 110 144 191 247 297
#     4  12  24  36  48  60  82 126 178 218 242 262
#     4  12  22  35  47  66  91 126 166 204 244 271
#     4  10  20  32  47  67  91 118 156 203 236 278
#     4  11  20  34  49  65  91 123 160 199 240 280
#     4   9  17  29  47  69  87 109 146 194 237 281
#
# _framework density 15.820045
#
# number of rings (size 3 to 8) (size 9 to 14) (size 15 to 20)
#    0.000    1.636    1.818    4.364    0.000    7.273 
#    0.000    0.000    0.000    0.000    0.000    0.000 
#    0.000    0.000    0.000    0.000    0.000  229.091 
#
# Total GULP energy -545332.692079 kJ/mol
# GULP energy per Si atom -12393.924820 kJ/mol
# Density = 1.578404 g / cm^3
# Si number density = 15.820045 Si / 1000 Ang^3
#
#
#
# Elastic Constant Matrix: (Units=GPa)
#
#
# Indices 1 2 3 4 5 6 
#
# 1 150.0730 56.0521 35.1186 0.0000 0.0000 0.0000
# 2 56.0521 89.0604 32.8112 0.0000 0.0000 0.0000
# 3 35.1186 32.8112 88.6862 0.0000 0.0000 0.0000
# 4 0.0000 0.0000 0.0000 4.6009 0.0000 0.0000
# 5 0.0000 0.0000 0.0000 0.0000 23.2373 0.0000
# 6 0.0000 0.0000 0.0000 0.0000 0.0000 28.4890
#
#
#
# Elastic Compliance Matrix: (Units=1/GPa)
#
#
# Indices 1 2 3 4 5 6 
#
# 1 0.008924 -0.004995 -0.001686 0.000000 0.000000 0.000000
# 2 -0.004995 0.015797 -0.003866 0.000000 0.000000 0.000000
# 3 -0.001686 -0.003866 0.013374 0.000000 0.000000 0.000000
# 4 0.000000 0.000000 0.000000 0.217349 0.000000 0.000000
# 5 0.000000 0.000000 0.000000 0.000000 0.043034 0.000000
# 6 0.000000 0.000000 0.000000 0.000000 0.000000 0.035101
#
#
# Mechanical properties :
#
#
# Convention : Reuss Voigt Hill
#
# Bulk Modulus (GPa) = 58.82454 63.97596 61.40025
# Shear Modulus (GPa) = 13.87584 24.85462 19.36523
#
# Velocity S-wave (km/s) = 2.96481 3.96799 3.50250
# Velocity P-wave (km/s) = 6.99888 7.84352 7.43321
#
# Compressibility (1/GPa) = 0.01699971
#
# Stress axis : x y z
#
# Youngs Moduli (GPa) = 112.06255 63.30477 74.77460
#
# Poissons Ratio (x) = 0.31623 0.12603
# Poissons Ratio (y) = 0.55978 0.28909
# Poissons Ratio (z) = 0.18888 0.24475
#
# Static dielectric constant tensor:
#      x y z
#    x 3.301500 0.000000 0.000000 
#    y 0.000000 2.965800 0.000000 
#    z 0.000000 0.000000 2.822170 
# 
# 
# High freq. dielectric constant tensor:
#      x y z
#    x 1.635490 0.000000 0.000000 
#    y 0.000000 1.583970 0.000000 
#    z 0.000000 0.000000 1.572320 
# 
# From -- ./inp_files/61658.got.cif
#   From: 2010.03.12/outbox.cif.g09.slc.cpg/sg66_31_cif.got.tgz:61658.got - 2010.04.10 21:57:39.
