data_PCOD8276448
_publ_section_title
;
Structure prediction by ZEFSAII (Michael W. Deem and Ramdas Pophale) SiO2 
 PCOD8276448
Probable space group: C C C M
;
_chemical_formula_sum "Si O2"
_cell_formula_units_Z 80
_cell_length_a 24.479568
_cell_length_b 15.717219
_cell_length_c 10.281925
_cell_angle_alpha 90.000000
_cell_angle_beta 90.000000
_cell_angle_gamma 90.000000
_cell_volume 3955.978163
_symmetry_space_group_name_H-M "C C C M"
_symmetry_group_IT_number 66
_symmetry_cell_setting 'orthorhombic'
loop_
_space_group_symop_operation_xyz
x,y,z
-x,-y,z
x,-y,1/2-z
-x,y,1/2-z
-x,-y,-z
x,y,-z
-x,y,1/2+z
x,-y,1/2+z
1/2+x,1/2+y,z
1/2-x,1/2-y,z
1/2+x,1/2-y,1/2-z
1/2-x,1/2+y,1/2-z
1/2-x,1/2-y,-z
1/2+x,1/2+y,-z
1/2-x,1/2+y,1/2+z
1/2+x,1/2-y,1/2+z
loop_
_atom_site_type_symbol
_atom_site_label
_atom_site_fract_x
_atom_site_fract_y
_atom_site_fract_z
Si Si1 0.080260 0.265277 0.232339
Si Si2 0.333382 0.423187 0.000000
Si Si3 0.319990 0.615485 0.000000
Si Si4 0.196392 0.800236 0.268491
Si Si5 0.942340 0.550564 0.859073
Si Si6 0.445711 0.642481 0.500000
Si Si7 0.061067 0.181201 0.500000
O O1 0.146407 0.267208 0.234802
O O2 0.052675 0.352972 0.188117
O O3 0.062284 0.195459 0.130342
O O4 0.057678 0.242536 0.374770
O O5 0.314107 0.374593 0.128544
O O6 0.400081 0.431795 0.000000
O O7 0.306376 0.515699 0.000000
O O8 0.294161 0.658515 0.873004
O O9 0.385315 0.624211 0.000000
O O10 0.250000 0.750000 0.311616
O O11 0.906602 0.500000 0.750000
O O12 0.000000 0.500000 0.868117
O O13 0.913401 0.547810 0.000000
O O14 0.509534 0.615095 0.500000
#
# Coordination Sequence:
#
# PCOD8276448 Si02
#       7
#    16   8   8  16  16   8   8
#     4  10  21  37  55  81 116 149 205 235 277 368
#     4  10  21  38  62  91 120 151 198 238 293 354
#     4  10  21  40  60  95 120 145 194 246 295 354
#     4  10  21  40  66  87 114 158 196 246 298 351
#     4  10  22  34  50  76 108 154 190 238 289 335
#     4  10  20  34  56  83 114 161 186 231 283 346
#     4  10  22  32  58  87 114 155 190 229 295 344
#
# _framework density 20.222557999999999
#
# number of rings (size 3 to 8) (size 9 to 14) (size 15 to 20)
#    0.000    2.000    1.000    1.800    7.000    0.400 
#    0.000    2.000    0.000    7.200    0.000    0.000 
#    0.000    0.000    0.000    0.000    0.000    0.000 
#
# Total GULP energy -495639.028046 kJ/mol
# GULP energy per Si atom -12390.975701 kJ/mol
# Density = 2.017653 g / cm^3
# Si number density = 20.222558 Si / 1000 Ang^3
#
#
#
# Elastic Constant Matrix: (Units=GPa)
#
#
# Indices 1 2 3 4 5 6 
#
# 1 93.3527 10.0854 -2.9114 0.0000 0.0000 0.0000
# 2 10.0854 80.9618 21.2933 0.0000 0.0000 0.0000
# 3 -2.9114 21.2933 167.6374 0.0000 0.0000 0.0000
# 4 0.0000 0.0000 0.0000 23.1712 0.0000 0.0000
# 5 0.0000 0.0000 0.0000 0.0000 10.0813 0.0000
# 6 0.0000 0.0000 0.0000 0.0000 0.0000 17.7568
#
#
#
# Elastic Compliance Matrix: (Units=1/GPa)
#
#
# Indices 1 2 3 4 5 6 
#
# 1 0.010881 -0.001454 0.000374 0.000000 0.000000 0.000000
# 2 -0.001454 0.012973 -0.001673 0.000000 0.000000 0.000000
# 3 0.000374 -0.001673 0.006184 0.000000 0.000000 0.000000
# 4 0.000000 0.000000 0.000000 0.043157 0.000000 0.000000
# 5 0.000000 0.000000 0.000000 0.000000 0.099193 0.000000
# 6 0.000000 0.000000 0.000000 0.000000 0.000000 0.056316
#
#
# Mechanical properties :
#
#
# Convention : Reuss Voigt Hill
#
# Bulk Modulus (GPa) = 40.76403 44.32073 42.54238
# Shear Modulus (GPa) = 20.62812 31.10083 25.86448
#
# Velocity S-wave (km/s) = 3.19729 3.92590 3.58018
# Velocity P-wave (km/s) = 5.81650 6.52030 6.17843
#
# Compressibility (1/GPa) = 0.02453143
#
# Stress axis : x y z
#
# Youngs Moduli (GPa) = 91.90532 77.08549 161.70102
#
# Poissons Ratio (x) = 0.11206 -0.06041
# Poissons Ratio (y) = 0.13360 0.27053
# Poissons Ratio (z) = -0.03434 0.12897
#
# Static dielectric constant tensor:
#      x y z
#    x 3.647810 0.000000 0.000000 
#    y 0.000000 3.404800 0.000000 
#    z 0.000000 0.000000 4.577820 
# 
# 
# High freq. dielectric constant tensor:
#      x y z
#    x 1.765490 0.000000 0.000000 
#    y 0.000000 1.768840 0.000000 
#    z 0.000000 0.000000 1.824570 
# 
# From -- ./inp_files/19693.got.cif
#   From: 2010.03.12/outbox.cif.g09.slc.cpg/sg66_10_cif.got.tgz:19693.got - 2010.04.10 21:57:39.
