data_PCOD8276360
_publ_section_title
;
Structure prediction by ZEFSAII (Michael W. Deem and Ramdas Pophale) SiO2 
 PCOD8276360
Probable space group: C C C M
;
_chemical_formula_sum "Si O2"
_cell_formula_units_Z 88
_cell_length_a 18.584622
_cell_length_b 12.279975
_cell_length_c 19.687312
_cell_angle_alpha 90.000000
_cell_angle_beta 90.000000
_cell_angle_gamma 90.000000
_cell_volume 4493.012624
_symmetry_space_group_name_H-M "C C C M"
_symmetry_group_IT_number 66
_symmetry_cell_setting 'orthorhombic'
loop_
_space_group_symop_operation_xyz
x,y,z
-x,-y,z
x,-y,1/2-z
-x,y,1/2-z
-x,-y,-z
x,y,-z
-x,y,1/2+z
x,-y,1/2+z
1/2+x,1/2+y,z
1/2-x,1/2-y,z
1/2+x,1/2-y,1/2-z
1/2-x,1/2+y,1/2-z
1/2-x,1/2-y,-z
1/2+x,1/2+y,-z
1/2-x,1/2+y,1/2+z
1/2+x,1/2-y,1/2+z
loop_
_atom_site_type_symbol
_atom_site_label
_atom_site_fract_x
_atom_site_fract_y
_atom_site_fract_z
Si Si1 0.103889 0.680291 0.925641
Si Si2 0.750000 0.750000 0.622124
Si Si3 0.396322 0.983616 0.674595
Si Si4 0.310191 0.337477 0.078568
Si Si5 0.737044 0.512788 0.322779
Si Si6 0.053001 0.700073 0.423229
O O1 0.176021 0.753429 0.921369
O O2 0.102110 0.595315 0.865647
O O3 0.028647 0.748196 0.919428
O O4 0.105440 0.623069 0.000000
O O5 0.747563 0.640980 0.666281
O O6 0.441470 0.896074 0.631988
O O7 0.429993 0.000000 0.750000
O O8 0.313224 0.948724 0.681334
O O9 0.250000 0.250000 0.102186
O O10 0.306602 0.451824 0.118322
O O11 0.389841 0.293246 0.094144
O O12 0.298106 0.365853 0.000000
O O13 0.697481 0.500000 0.250000
O O14 0.069064 0.655905 0.500000
#
# Coordination Sequence:
#
# PCOD8276360 Si02
#       6
#    16   8  16  16  16  16
#     4  10  21  36  55  80 113 152 193 238 289 348
#     4  10  23  40  58  84 113 156 192 232 289 348
#     4  10  20  33  53  84 119 150 186 238 295 351
#     4  10  20  35  59  87 114 148 194 242 284 334
#     4  10  22  37  60  86 117 155 193 234 285 349
#     4  10  20  35  56  83 113 147 192 246 294 337
#
# _framework density 19.585968000000001
#
# number of rings (size 3 to 8) (size 9 to 14) (size 15 to 20)
#    0.000    2.000    1.818    1.364    1.273    8.000 
#    0.000    0.909    0.000    4.364    0.000    0.000 
#    0.000    0.000    0.000    0.000    0.000    0.000 
#
# Total GULP energy -545166.143022 kJ/mol
# GULP energy per Si atom -12390.139614 kJ/mol
# Density = 1.954139 g / cm^3
# Si number density = 19.585968 Si / 1000 Ang^3
#
#
#
# Elastic Constant Matrix: (Units=GPa)
#
#
# Indices 1 2 3 4 5 6 
#
# 1 146.9113 43.2950 43.5127 0.0000 0.0000 0.0000
# 2 43.2950 90.6422 50.4360 0.0000 0.0000 0.0000
# 3 43.5127 50.4360 131.9239 0.0000 0.0000 0.0000
# 4 0.0000 0.0000 0.0000 26.1162 0.0000 0.0000
# 5 0.0000 0.0000 0.0000 0.0000 8.8979 0.0000
# 6 0.0000 0.0000 0.0000 0.0000 0.0000 18.7597
#
#
#
# Elastic Compliance Matrix: (Units=1/GPa)
#
#
# Indices 1 2 3 4 5 6 
#
# 1 0.008157 -0.003047 -0.001525 0.000000 0.000000 0.000000
# 2 -0.003047 0.015152 -0.004788 0.000000 0.000000 0.000000
# 3 -0.001525 -0.004788 0.009914 0.000000 0.000000 0.000000
# 4 0.000000 0.000000 0.000000 0.038290 0.000000 0.000000
# 5 0.000000 0.000000 0.000000 0.000000 0.112386 0.000000
# 6 0.000000 0.000000 0.000000 0.000000 0.000000 0.053306
#
#
# Mechanical properties :
#
#
# Convention : Reuss Voigt Hill
#
# Bulk Modulus (GPa) = 68.95761 71.55164 70.25462
# Shear Modulus (GPa) = 19.17484 26.23701 22.70593
#
# Velocity S-wave (km/s) = 3.13231 3.66400 3.40854
# Velocity P-wave (km/s) = 6.95456 7.38317 7.17207
#
# Compressibility (1/GPa) = 0.01450166
#
# Stress axis : x y z
#
# Youngs Moduli (GPa) = 122.59961 65.99836 100.87148
#
# Poissons Ratio (x) = 0.20111 0.15386
# Poissons Ratio (y) = 0.37359 0.48294
# Poissons Ratio (z) = 0.18700 0.31598
#
# Static dielectric constant tensor:
#      x y z
#    x 4.045510 0.000000 0.000000 
#    y 0.000000 3.132100 0.000000 
#    z 0.000000 0.000000 3.715760 
# 
# 
# High freq. dielectric constant tensor:
#      x y z
#    x 1.772680 0.000000 0.000000 
#    y 0.000000 1.718800 0.000000 
#    z 0.000000 0.000000 1.773320 
# 
# From -- ./inp_files/38641.got.cif
#   From: 2010.03.12/outbox.cif.g09.slc.cpg/sg66_20_cif.got.tgz:38641.got - 2010.04.10 21:57:39.
