data_PCOD8276103
_publ_section_title
;
Structure prediction by ZEFSAII (Michael W. Deem and Ramdas Pophale) SiO2 
 PCOD8276103
Probable space group: C C C M
;
_chemical_formula_sum "Si O2"
_cell_formula_units_Z 96
_cell_length_a 8.302956
_cell_length_b 25.250157
_cell_length_c 21.762986
_cell_angle_alpha 90.000000
_cell_angle_beta 90.000000
_cell_angle_gamma 90.000000
_cell_volume 4562.630528
_symmetry_space_group_name_H-M "C C C M"
_symmetry_group_IT_number 66
_symmetry_cell_setting 'orthorhombic'
loop_
_space_group_symop_operation_xyz
x,y,z
-x,-y,z
x,-y,1/2-z
-x,y,1/2-z
-x,-y,-z
x,y,-z
-x,y,1/2+z
x,-y,1/2+z
1/2+x,1/2+y,z
1/2-x,1/2-y,z
1/2+x,1/2-y,1/2-z
1/2-x,1/2+y,1/2-z
1/2-x,1/2-y,-z
1/2+x,1/2+y,-z
1/2-x,1/2+y,1/2+z
1/2+x,1/2-y,1/2+z
loop_
_atom_site_type_symbol
_atom_site_label
_atom_site_fract_x
_atom_site_fract_y
_atom_site_fract_z
Si Si1 0.914569 0.723208 0.359003
Si Si2 0.415760 0.327281 0.834086
Si Si3 0.154615 0.651921 0.429607
Si Si4 0.261267 0.361575 0.290881
Si Si5 0.818267 0.479448 0.187768
Si Si6 0.165181 0.469862 0.932740
O O1 0.750000 0.750000 0.386361
O O2 0.867235 0.683739 0.304677
O O3 0.036011 0.765439 0.327841
O O4 0.005177 0.688966 0.410646
O O5 0.321395 0.333298 0.897043
O O6 0.307371 0.350608 0.779492
O O7 0.582105 0.360004 0.834968
O O8 0.187755 0.663230 0.500000
O O9 0.119403 0.590404 0.416061
O O10 0.177596 0.416650 0.306400
O O11 0.728650 0.500000 0.250000
O O12 0.736267 0.502634 0.124508
O O13 0.000000 0.500000 0.186956
O O14 0.000000 0.500000 0.940494
O O15 0.255946 0.473046 0.000000
#
# Coordination Sequence:
#
# PCOD8276103 Si02
#       6
#    16  16  16  16  16  16
#     4  10  22  38  61  89 118 158 206 252 299 358
#     4  10  23  40  59  88 124 160 199 248 308 366
#     4  11  23  40  61  87 124 164 201 247 304 365
#     4  10  22  41  62  89 121 154 202 257 308 359
#     4  10  19  34  59  89 117 149 197 253 307 362
#     4   9  18  34  57  84 112 149 198 244 292 352
#
# _framework density 21.040495
#
# number of rings (size 3 to 8) (size 9 to 14) (size 15 to 20)
#    0.000    2.000    0.000    3.500    0.000   11.667 
#    0.000    9.167    0.000    2.000    0.000    0.000 
#    0.000    0.000    0.000    0.000    0.000    0.000 
#
# Total GULP energy -594722.860873 kJ/mol
# GULP energy per Si atom -12390.059602 kJ/mol
# Density = 2.099261 g / cm^3
# Si number density = 21.040495 Si / 1000 Ang^3
#
#
#
# Elastic Constant Matrix: (Units=GPa)
#
#
# Indices 1 2 3 4 5 6 
#
# 1 75.6113 54.7088 42.9192 0.0000 0.0000 0.0000
# 2 54.7088 174.6293 69.0838 0.0000 0.0000 0.0000
# 3 42.9192 69.0838 157.9243 0.0000 0.0000 0.0000
# 4 0.0000 0.0000 0.0000 47.5258 0.0000 0.0000
# 5 0.0000 0.0000 0.0000 0.0000 18.3319 0.0000
# 6 0.0000 0.0000 0.0000 0.0000 0.0000 25.9557
#
#
#
# Elastic Compliance Matrix: (Units=1/GPa)
#
#
# Indices 1 2 3 4 5 6 
#
# 1 0.018180 -0.004524 -0.002962 0.000000 0.000000 0.000000
# 2 -0.004524 0.008050 -0.002292 0.000000 0.000000 0.000000
# 3 -0.002962 -0.002292 0.008140 0.000000 0.000000 0.000000
# 4 0.000000 0.000000 0.000000 0.021041 0.000000 0.000000
# 5 0.000000 0.000000 0.000000 0.000000 0.054550 0.000000
# 6 0.000000 0.000000 0.000000 0.000000 0.000000 0.038527
#
#
# Mechanical properties :
#
#
# Convention : Reuss Voigt Hill
#
# Bulk Modulus (GPa) = 67.50141 82.39873 74.95007
# Shear Modulus (GPa) = 28.90466 34.45955 31.68211
#
# Velocity S-wave (km/s) = 3.71045 4.05133 3.88463
# Velocity P-wave (km/s) = 7.10689 7.81865 7.47125
#
# Compressibility (1/GPa) = 0.01481451
#
# Stress axis : x y z
#
# Youngs Moduli (GPa) = 55.00550 124.21627 122.85270
#
# Poissons Ratio (x) = 0.56193 0.36387
# Poissons Ratio (y) = 0.24883 0.28161
# Poissons Ratio (z) = 0.16292 0.28473
#
# Static dielectric constant tensor:
#      x y z
#    x 3.750620 0.000000 0.000000 
#    y 0.000000 4.051520 0.000000 
#    z 0.000000 0.000000 5.212510 
# 
# 
# High freq. dielectric constant tensor:
#      x y z
#    x 1.795110 0.000000 0.000000 
#    y 0.000000 1.843470 0.000000 
#    z 0.000000 0.000000 1.826050 
# 
# From -- ./inp_files/55658.got.cif
#   From: 2010.03.12/outbox.cif.g09.slc.cpg/sg66_28_cif.got.tgz:55658.got - 2010.04.10 21:57:39.
