data_PCOD8276406
_publ_section_title
;
Structure prediction by ZEFSAII (Michael W. Deem and Ramdas Pophale) SiO2 
 PCOD8276406
Probable space group: C C C M
;
_chemical_formula_sum "Si O2"
_cell_formula_units_Z 120
_cell_length_a 7.578711
_cell_length_b 32.163595
_cell_length_c 26.360888
_cell_angle_alpha 90.000000
_cell_angle_beta 90.000000
_cell_angle_gamma 90.000000
_cell_volume 6425.692922
_symmetry_space_group_name_H-M "C C C M"
_symmetry_group_IT_number 66
_symmetry_cell_setting 'orthorhombic'
loop_
_space_group_symop_operation_xyz
x,y,z
-x,-y,z
x,-y,1/2-z
-x,y,1/2-z
-x,-y,-z
x,y,-z
-x,y,1/2+z
x,-y,1/2+z
1/2+x,1/2+y,z
1/2-x,1/2-y,z
1/2+x,1/2-y,1/2-z
1/2-x,1/2+y,1/2-z
1/2-x,1/2-y,-z
1/2+x,1/2+y,-z
1/2-x,1/2+y,1/2+z
1/2+x,1/2-y,1/2+z
loop_
_atom_site_type_symbol
_atom_site_label
_atom_site_fract_x
_atom_site_fract_y
_atom_site_fract_z
Si Si1 0.293441 0.411439 0.189687
Si Si2 0.524766 0.877222 0.440913
Si Si3 0.750000 0.750000 0.150041
Si Si4 0.317317 0.343252 0.377100
Si Si5 0.703159 0.341195 0.611959
Si Si6 0.696720 0.418333 0.806107
Si Si7 0.485395 0.953556 0.869347
Si Si8 0.413907 0.724506 0.201630
O O1 0.274157 0.364829 0.166359
O O2 0.491780 0.429842 0.185954
O O3 0.244120 0.409947 0.248595
O O4 0.165432 0.442159 0.159623
O O5 0.557132 0.882308 0.500000
O O6 0.663330 0.843033 0.419092
O O7 0.329200 0.860135 0.430704
O O8 0.551958 0.922417 0.415888
O O9 0.737898 0.707942 0.116728
O O10 0.571003 0.754538 0.182515
O O11 0.503024 0.351375 0.405694
O O12 0.258535 0.376554 0.335767
O O13 0.340384 0.301221 0.345566
O O14 0.821652 0.453802 0.829783
O O15 0.500000 0.000000 0.891576
O O16 0.500000 0.699195 0.250000
O O17 0.250000 0.750000 0.223579
#
# Coordination Sequence:
#
# PCOD8276406 Si02
#       8
#    16  16   8  16  16  16  16  16
#     4   9  18  31  51  76 107 148 183 207 257 319
#     4  10  21  40  61  79  99 136 184 232 285 331
#     4  10  20  34  53  78 118 148 183 224 270 312
#     4   9  20  34  53  77 109 141 182 225 263 319
#     4   9  19  35  55  79 109 142 182 230 268 319
#     4   9  18  31  51  74 105 148 180 209 253 321
#     4  10  21  36  52  79 109 132 171 227 276 328
#     4  11  21  31  48  80 118 151 183 217 262 315
#
# _framework density 18.67503
#
# number of rings (size 3 to 8) (size 9 to 14) (size 15 to 20)
#    0.000    2.400    0.667    1.200    5.600    2.400 
#    0.000    1.667    0.000    7.600    0.000    7.467 
#    0.000    0.000    0.000    0.000    0.000    0.000 
#
# Total GULP energy -743549.181424 kJ/mol
# GULP energy per Si atom -12392.486357 kJ/mol
# Density = 1.863252 g / cm^3
# Si number density = 18.675030 Si / 1000 Ang^3
#
#
#
# Elastic Constant Matrix: (Units=GPa)
#
#
# Indices 1 2 3 4 5 6 
#
# 1 104.5510 29.8100 49.6669 0.0000 0.0000 0.0000
# 2 29.8100 86.7751 29.7983 0.0000 0.0000 0.0000
# 3 49.6669 29.7983 116.1100 0.0000 0.0000 0.0000
# 4 0.0000 0.0000 0.0000 13.1807 0.0000 0.0000
# 5 0.0000 0.0000 0.0000 0.0000 22.8565 0.0000
# 6 0.0000 0.0000 0.0000 0.0000 0.0000 21.9643
#
#
#
# Elastic Compliance Matrix: (Units=1/GPa)
#
#
# Indices 1 2 3 4 5 6 
#
# 1 0.012559 -0.002708 -0.004677 0.000000 0.000000 0.000000
# 2 -0.002708 0.013222 -0.002235 0.000000 0.000000 0.000000
# 3 -0.004677 -0.002235 0.011187 0.000000 0.000000 0.000000
# 4 0.000000 0.000000 0.000000 0.075868 0.000000 0.000000
# 5 0.000000 0.000000 0.000000 0.000000 0.043751 0.000000
# 6 0.000000 0.000000 0.000000 0.000000 0.000000 0.045528
#
#
# Mechanical properties :
#
#
# Convention : Reuss Voigt Hill
#
# Bulk Modulus (GPa) = 56.41069 58.44296 57.42683
# Shear Modulus (GPa) = 22.00082 24.81104 23.40593
#
# Velocity S-wave (km/s) = 3.43605 3.64891 3.54408
# Velocity P-wave (km/s) = 6.78336 7.00823 6.89671
#
# Compressibility (1/GPa) = 0.01772714
#
# Stress axis : x y z
#
# Youngs Moduli (GPa) = 79.62590 75.63260 89.39189
#
# Poissons Ratio (x) = 0.20483 0.41809
# Poissons Ratio (y) = 0.21565 0.19977
# Poissons Ratio (z) = 0.37241 0.16902
#
# Static dielectric constant tensor:
#      x y z
#    x 3.903450 0.000000 0.000000 
#    y 0.000000 3.191900 0.000000 
#    z 0.000000 0.000000 3.150230 
# 
# 
# High freq. dielectric constant tensor:
#      x y z
#    x 1.749080 0.000000 0.000000 
#    y 0.000000 1.702410 0.000000 
#    z 0.000000 0.000000 1.695080 
# 
# From -- ./inp_files/62976.got.cif
#   From: 2010.03.12/outbox.cif.g09.slc.cpg/sg66_32_cif.got.tgz:62976.got - 2010.04.10 21:57:39.
