data_PCOD8276190
_publ_section_title
;
Structure prediction by ZEFSAII (Michael W. Deem and Ramdas Pophale) SiO2 
 PCOD8276190
Probable space group: C C C M
;
_chemical_formula_sum "Si O2"
_cell_formula_units_Z 96
_cell_length_a 9.980164
_cell_length_b 27.893695
_cell_length_c 18.064073
_cell_angle_alpha 90.000000
_cell_angle_beta 90.000000
_cell_angle_gamma 90.000000
_cell_volume 5028.742588
_symmetry_space_group_name_H-M "C C C M"
_symmetry_group_IT_number 66
_symmetry_cell_setting 'orthorhombic'
loop_
_space_group_symop_operation_xyz
x,y,z
-x,-y,z
x,-y,1/2-z
-x,y,1/2-z
-x,-y,-z
x,y,-z
-x,y,1/2+z
x,-y,1/2+z
1/2+x,1/2+y,z
1/2-x,1/2-y,z
1/2+x,1/2-y,1/2-z
1/2-x,1/2+y,1/2-z
1/2-x,1/2-y,-z
1/2+x,1/2+y,-z
1/2-x,1/2+y,1/2+z
1/2+x,1/2-y,1/2+z
loop_
_atom_site_type_symbol
_atom_site_label
_atom_site_fract_x
_atom_site_fract_y
_atom_site_fract_z
Si Si1 0.005621 0.651533 0.662393
Si Si2 0.970192 0.845889 0.087292
Si Si3 0.775881 0.590710 0.914299
Si Si4 0.645658 0.988177 0.586041
Si Si5 0.095259 0.753260 0.680215
Si Si6 0.745422 0.886513 0.411851
O O1 0.097142 0.609455 0.630632
O O2 0.062571 0.703348 0.639443
O O3 0.000000 0.645864 0.750000
O O4 0.859166 0.648809 0.626786
O O5 0.109983 0.868088 0.115096
O O6 0.859331 0.884222 0.112504
O O7 0.934097 0.795395 0.123083
O O8 0.971296 0.837954 0.000000
O O9 0.758439 0.533848 0.900092
O O10 0.805813 0.601271 0.000000
O O11 0.622530 0.978023 0.500000
O O12 0.717144 0.940608 0.618514
O O13 0.500000 0.000000 0.622092
O O14 0.250000 0.750000 0.705719
O O15 0.000000 0.761373 0.750000
O O16 0.732946 0.883275 0.500000
#
# Coordination Sequence:
#
# PCOD8276190 Si02
#       6
#    16  16  16  16  16  16
#     4  11  23  37  58  85 111 150 197 236 287 342
#     4  10  23  38  59  89 119 150 188 243 295 334
#     4  10  19  36  59  85 116 151 191 234 285 343
#     4   9  16  30  57  86 113 152 192 229 281 345
#     4  11  25  42  62  84 115 155 197 236 286 352
#     4  10  21  38  58  86 120 151 188 237 289 341
#
# _framework density 19.090259
#
# number of rings (size 3 to 8) (size 9 to 14) (size 15 to 20)
#    0.000    1.833    3.333    0.500    4.667    2.333 
#    0.000    6.667    0.000    0.000    0.000    3.500 
#    0.000    0.000    0.000    0.000    0.000    0.000 
#
# Total GULP energy -595179.229392 kJ/mol
# GULP energy per Si atom -12399.567279 kJ/mol
# Density = 1.904681 g / cm^3
# Si number density = 19.090259 Si / 1000 Ang^3
#
#
#
# Elastic Constant Matrix: (Units=GPa)
#
#
# Indices 1 2 3 4 5 6 
#
# 1 140.2671 47.0839 30.5342 0.0000 0.0000 0.0000
# 2 47.0839 118.2562 22.2526 0.0000 0.0000 0.0000
# 3 30.5342 22.2526 31.8527 0.0000 0.0000 0.0000
# 4 0.0000 0.0000 0.0000 12.2545 0.0000 0.0000
# 5 0.0000 0.0000 0.0000 0.0000 24.1759 0.0000
# 6 0.0000 0.0000 0.0000 0.0000 0.0000 33.7743
#
#
#
# Elastic Compliance Matrix: (Units=1/GPa)
#
#
# Indices 1 2 3 4 5 6 
#
# 1 0.009566 -0.002398 -0.007494 0.000000 0.000000 0.000000
# 2 -0.002398 0.010337 -0.004923 0.000000 0.000000 0.000000
# 3 -0.007494 -0.004923 0.042018 0.000000 0.000000 0.000000
# 4 0.000000 0.000000 0.000000 0.081603 0.000000 0.000000
# 5 0.000000 0.000000 0.000000 0.000000 0.041364 0.000000
# 6 0.000000 0.000000 0.000000 0.000000 0.000000 0.029608
#
#
# Mechanical properties :
#
#
# Convention : Reuss Voigt Hill
#
# Bulk Modulus (GPa) = 30.96928 54.45751 42.71339
# Shear Modulus (GPa) = 19.61633 26.74128 23.17880
#
# Velocity S-wave (km/s) = 3.20903 3.74676 3.48827
# Velocity P-wave (km/s) = 5.47616 6.87793 6.21668
#
# Compressibility (1/GPa) = 0.03229007
#
# Stress axis : x y z
#
# Youngs Moduli (GPa) = 104.54000 96.73548 23.79957
#
# Poissons Ratio (x) = 0.23201 0.17836
# Poissons Ratio (y) = 0.25073 0.11716
# Poissons Ratio (z) = 0.78344 0.47620
#
# Static dielectric constant tensor:
#      x y z
#    x 3.684500 0.000000 0.000000 
#    y 0.000000 3.750120 0.000000 
#    z 0.000000 0.000000 3.165460 
# 
# 
# High freq. dielectric constant tensor:
#      x y z
#    x 1.750930 0.000000 0.000000 
#    y 0.000000 1.759030 0.000000 
#    z 0.000000 0.000000 1.710410 
# 
# From -- ./inp_files/47279.got.cif
#   From: 2010.03.12/outbox.cif.g09.slc.cpg/sg66_24_cif.got.tgz:47279.got - 2010.04.10 21:57:39.
