data_PCOD8276770
_publ_section_title
;
Structure prediction by ZEFSAII (Michael W. Deem and Ramdas Pophale) SiO2 
 PCOD8276770
Probable space group: C C C M
;
_chemical_formula_sum "Si O2"
_cell_formula_units_Z 88
_cell_length_a 34.457049
_cell_length_b 5.149417
_cell_length_c 25.105008
_cell_angle_alpha 90.000000
_cell_angle_beta 90.000000
_cell_angle_gamma 90.000000
_cell_volume 4454.474807
_symmetry_space_group_name_H-M "C C C M"
_symmetry_group_IT_number 66
_symmetry_cell_setting 'orthorhombic'
loop_
_space_group_symop_operation_xyz
x,y,z
-x,-y,z
x,-y,1/2-z
-x,y,1/2-z
-x,-y,-z
x,y,-z
-x,y,1/2+z
x,-y,1/2+z
1/2+x,1/2+y,z
1/2-x,1/2-y,z
1/2+x,1/2-y,1/2-z
1/2-x,1/2+y,1/2-z
1/2-x,1/2-y,-z
1/2+x,1/2+y,-z
1/2-x,1/2+y,1/2+z
1/2+x,1/2-y,1/2+z
loop_
_atom_site_type_symbol
_atom_site_label
_atom_site_fract_x
_atom_site_fract_y
_atom_site_fract_z
Si Si1 0.191606 0.073559 0.500000
Si Si2 0.026472 0.750810 0.000000
Si Si3 0.088940 0.659543 0.913818
Si Si4 0.104704 0.539032 0.692659
Si Si5 0.640339 0.923665 0.000000
Si Si6 0.274080 0.505386 0.887015
Si Si7 0.858330 0.053237 0.156115
O O1 0.157087 0.864285 0.500000
O O2 0.219133 0.034716 0.550310
O O3 0.174488 0.363842 0.500000
O O4 0.052138 0.759949 0.053455
O O5 0.000000 0.500000 0.000000
O O6 0.000000 0.000000 0.000000
O O7 0.076008 0.517648 0.858014
O O8 0.113698 0.453612 0.947865
O O9 0.117259 0.902358 0.899125
O O10 0.083360 0.500000 0.750000
O O11 0.122371 0.824661 0.689990
O O12 0.139284 0.322807 0.689561
O O13 0.250000 0.250000 0.874250
O O14 0.314378 0.482479 0.855998
O O15 0.250000 0.750000 0.865344
#
# Coordination Sequence:
#
# PCOD8276770 Si02
#       7
#     8   8  16  16   8  16  16
#     4  12  20  34  46  77 108 151 197 244 296 354
#     4  11  26  41  62  99 135 169 190 230 291 367
#     4   9  23  37  65  88 122 159 201 241 294 356
#     4  10  20  37  65  94 112 146 211 266 294 339
#     4  11  20  33  58  80 115 143 199 239 293 352
#     4  12  23  35  51  77 118 158 199 254 310 365
#     4  10  21  37  60  85 112 157 203 251 306 354
#
# _framework density 19.755417000000001
#
# number of rings (size 3 to 8) (size 9 to 14) (size 15 to 20)
#    1.091    0.364    1.818    4.364    2.545    1.455 
#    0.000    0.000    0.000   11.455    0.000    0.000 
#    0.000    0.000    0.000    0.000    0.000    0.000 
#
# Total GULP energy -545294.994354 kJ/mol
# GULP energy per Si atom -12393.068054 kJ/mol
# Density = 1.971045 g / cm^3
# Si number density = 19.755417 Si / 1000 Ang^3
#
#
#
# Elastic Constant Matrix: (Units=GPa)
#
#
# Indices 1 2 3 4 5 6 
#
# 1 86.0684 23.1314 26.7946 0.0000 0.0000 0.0000
# 2 23.1314 98.8121 14.8081 0.0000 0.0000 0.0000
# 3 26.7946 14.8081 120.2004 0.0000 0.0000 0.0000
# 4 0.0000 0.0000 0.0000 -32.5811 0.0000 0.0000
# 5 0.0000 0.0000 0.0000 0.0000 21.4207 0.0000
# 6 0.0000 0.0000 0.0000 0.0000 0.0000 25.9877
#
#
#
# Elastic Compliance Matrix: (Units=1/GPa)
#
#
# Indices 1 2 3 4 5 6 
#
# 1 0.013151 -0.002689 -0.002600 0.000000 0.000000 0.000000
# 2 -0.002689 0.010860 -0.000739 0.000000 0.000000 0.000000
# 3 -0.002600 -0.000739 0.008990 0.000000 0.000000 0.000000
# 4 0.000000 0.000000 0.000000 -0.030693 0.000000 0.000000
# 5 0.000000 0.000000 0.000000 0.000000 0.046684 0.000000
# 6 0.000000 0.000000 0.000000 0.000000 0.000000 0.038480
#
#
# Mechanical properties :
#
#
# Convention : Reuss Voigt Hill
#
# Bulk Modulus (GPa) = 47.74211 48.28323 48.01267
# Shear Modulus (GPa) = 46.94421 18.98858 32.96639
#
# Velocity S-wave (km/s) = 4.87999 3.10366 4.08944
# Velocity P-wave (km/s) = 7.48141 6.11041 6.83040
#
# Compressibility (1/GPa) = 0.02094587
#
# Stress axis : x y z
#
# Youngs Moduli (GPa) = 76.04082 92.07806 111.23378
#
# Poissons Ratio (x) = 0.24759 0.28924
# Poissons Ratio (y) = 0.20446 0.08215
# Poissons Ratio (z) = 0.19773 0.06800
#
# Static dielectric constant tensor:
#      x y z
#    x 3.274500 0.000000 0.000000 
#    y 0.000000 3.627330 0.000000 
#    z 0.000000 0.000000 3.642800 
# 
# 
# High freq. dielectric constant tensor:
#      x y z
#    x 1.728880 0.000000 0.000000 
#    y 0.000000 1.786500 0.000000 
#    z 0.000000 0.000000 1.765770 
# 
# From -- ./inp_files/66419.got.cif
#   From: 2010.03.12/outbox.cif.g09.slc.cpg/sg66_34_cif.got.tgz:66419.got - 2010.04.10 21:57:39.
