data_PCOD8276256
_publ_section_title
;
Structure prediction by ZEFSAII (Michael W. Deem and Ramdas Pophale) SiO2 
 PCOD8276256
Probable space group: C C C M
;
_chemical_formula_sum "Si O2"
_cell_formula_units_Z 104
_cell_length_a 8.654477
_cell_length_b 25.109424
_cell_length_c 23.828690
_cell_angle_alpha 90.000000
_cell_angle_beta 90.000000
_cell_angle_gamma 90.000000
_cell_volume 5178.187187
_symmetry_space_group_name_H-M "C C C M"
_symmetry_group_IT_number 66
_symmetry_cell_setting 'orthorhombic'
loop_
_space_group_symop_operation_xyz
x,y,z
-x,-y,z
x,-y,1/2-z
-x,y,1/2-z
-x,-y,-z
x,y,-z
-x,y,1/2+z
x,-y,1/2+z
1/2+x,1/2+y,z
1/2-x,1/2-y,z
1/2+x,1/2-y,1/2-z
1/2-x,1/2+y,1/2-z
1/2-x,1/2-y,-z
1/2+x,1/2+y,-z
1/2-x,1/2+y,1/2+z
1/2+x,1/2-y,1/2+z
loop_
_atom_site_type_symbol
_atom_site_label
_atom_site_fract_x
_atom_site_fract_y
_atom_site_fract_z
Si Si1 0.567252 0.752027 0.616334
Si Si2 0.402085 0.903405 0.500000
Si Si3 0.439188 0.441898 0.120823
Si Si4 0.074094 0.555928 0.383656
Si Si5 0.568017 0.845590 0.188906
Si Si6 0.067201 0.841327 0.688996
Si Si7 0.415761 0.776602 0.500000
Si Si8 0.444713 0.559956 0.500000
O O1 0.750000 0.750000 0.617814
O O2 0.510278 0.802902 0.649517
O O3 0.498764 0.699253 0.643898
O O4 0.510420 0.756018 0.552960
O O5 0.490627 0.923299 0.443976
O O6 0.390765 0.839844 0.500000
O O7 0.237475 0.931797 0.500000
O O8 0.500000 0.500000 0.137561
O O9 0.257115 0.448138 0.114337
O O10 0.483580 0.400580 0.169625
O O11 0.506581 0.418650 0.060665
O O12 0.024291 0.596604 0.335021
O O13 0.000000 0.500000 0.367736
O O14 0.500000 0.839583 0.250000
O O15 0.749778 0.835055 0.190353
O O16 0.000000 0.829101 0.750000
O O17 0.250000 0.750000 0.500000
O O18 0.500000 0.500000 0.500000
#
# Coordination Sequence:
#
# PCOD8276256 Si02
#       8
#    16   8  16  16  16  16   8   8
#     4  12  26  44  66  96 130 163 211 267 323 385
#     4  10  19  39  63  92 128 163 211 253 317 384
#     4   9  20  37  60  90 126 162 211 260 316 381
#     4  10  21  37  63  90 124 166 210 257 317 382
#     4  11  23  42  65  91 127 169 216 266 318 383
#     4  11  24  42  65  93 124 172 218 263 325 383
#     4  12  25  42  72  99 130 171 209 261 324 385
#     4   8  16  33  59  89 121 157 203 249 300 371
#
# _framework density 20.084247999999999
#
# number of rings (size 3 to 8) (size 9 to 14) (size 15 to 20)
#    0.000    1.538    1.538    3.231    4.308    3.077 
#    0.000    3.077    0.000    0.000    0.000    0.000 
#    0.000    0.000    0.000    0.000    0.000    0.000 
#
# Total GULP energy -644584.618868 kJ/mol
# GULP energy per Si atom -12395.858055 kJ/mol
# Density = 2.003854 g / cm^3
# Si number density = 20.084248 Si / 1000 Ang^3
#
#
#
# Elastic Constant Matrix: (Units=GPa)
#
#
# Indices 1 2 3 4 5 6 
#
# 1 94.5869 59.8221 55.0698 0.0000 0.0000 0.0000
# 2 59.8221 144.6236 65.4259 0.0000 0.0000 0.0000
# 3 55.0698 65.4259 159.2284 0.0000 0.0000 0.0000
# 4 0.0000 0.0000 0.0000 35.3587 0.0000 0.0000
# 5 0.0000 0.0000 0.0000 0.0000 33.5536 0.0000
# 6 0.0000 0.0000 0.0000 0.0000 0.0000 33.5195
#
#
#
# Elastic Compliance Matrix: (Units=1/GPa)
#
#
# Indices 1 2 3 4 5 6 
#
# 1 0.015676 -0.004952 -0.003387 0.000000 0.000000 0.000000
# 2 -0.004952 0.010058 -0.002420 0.000000 0.000000 0.000000
# 3 -0.003387 -0.002420 0.008446 0.000000 0.000000 0.000000
# 4 0.000000 0.000000 0.000000 0.028282 0.000000 0.000000
# 5 0.000000 0.000000 0.000000 0.000000 0.029803 0.000000
# 6 0.000000 0.000000 0.000000 0.000000 0.000000 0.029833
#
#
# Mechanical properties :
#
#
# Convention : Reuss Voigt Hill
#
# Bulk Modulus (GPa) = 78.97656 84.34162 81.65909
# Shear Modulus (GPa) = 33.82122 35.02778 34.42450
#
# Velocity S-wave (km/s) = 4.10807 4.18070 4.14455
# Velocity P-wave (km/s) = 7.86827 8.08638 7.97807
#
# Compressibility (1/GPa) = 0.01266198
#
# Stress axis : x y z
#
# Youngs Moduli (GPa) = 63.79115 99.42708 118.39962
#
# Poissons Ratio (x) = 0.49237 0.40100
# Poissons Ratio (y) = 0.31590 0.28652
# Poissons Ratio (z) = 0.21605 0.24060
#
# Static dielectric constant tensor:
#      x y z
#    x 3.558270 0.000000 0.000000 
#    y 0.000000 3.944560 0.000000 
#    z 0.000000 0.000000 4.118480 
# 
# 
# High freq. dielectric constant tensor:
#      x y z
#    x 1.772960 0.000000 0.000000 
#    y 0.000000 1.792440 0.000000 
#    z 0.000000 0.000000 1.805110 
# 
# From -- ./inp_files/47461.got.cif
#   From: 2010.03.12/outbox.cif.g09.slc.cpg/sg66_24_cif.got.tgz:47461.got - 2010.04.10 21:57:39.
