data_PCOD8276004
_publ_section_title
;
Structure prediction by ZEFSAII (Michael W. Deem and Ramdas Pophale) SiO2 
 PCOD8276004
Probable space group: C C C M
;
_chemical_formula_sum "Si O2"
_cell_formula_units_Z 112
_cell_length_a 12.632923
_cell_length_b 25.216463
_cell_length_c 18.235773
_cell_angle_alpha 90.000000
_cell_angle_beta 90.000000
_cell_angle_gamma 90.000000
_cell_volume 5809.144727
_symmetry_space_group_name_H-M "C C C M"
_symmetry_group_IT_number 66
_symmetry_cell_setting 'orthorhombic'
loop_
_space_group_symop_operation_xyz
x,y,z
-x,-y,z
x,-y,1/2-z
-x,y,1/2-z
-x,-y,-z
x,y,-z
-x,y,1/2+z
x,-y,1/2+z
1/2+x,1/2+y,z
1/2-x,1/2-y,z
1/2+x,1/2-y,1/2-z
1/2-x,1/2+y,1/2-z
1/2-x,1/2-y,-z
1/2+x,1/2+y,-z
1/2-x,1/2+y,1/2+z
1/2+x,1/2-y,1/2+z
loop_
_atom_site_type_symbol
_atom_site_label
_atom_site_fract_x
_atom_site_fract_y
_atom_site_fract_z
Si Si1 0.993320 0.562215 0.333461
Si Si2 0.551936 0.554278 0.412741
Si Si3 0.900549 0.146268 0.587207
Si Si4 0.664344 0.867034 0.913650
Si Si5 0.551508 0.763191 0.913085
Si Si6 0.218453 0.588732 0.915609
Si Si7 0.325085 0.207215 0.584643
O O1 0.088629 0.590001 0.376492
O O2 0.000000 0.500000 0.340960
O O3 0.000000 0.581633 0.250000
O O4 0.878912 0.574773 0.365013
O O5 0.500000 0.500000 0.381790
O O6 0.546267 0.554610 0.500000
O O7 0.486444 0.604568 0.381841
O O8 0.674569 0.559505 0.388030
O O9 0.906058 0.149541 0.500000
O O10 0.785447 0.124096 0.610826
O O11 0.923107 0.205003 0.620395
O O12 0.639000 0.806447 0.890192
O O13 0.647730 0.874752 0.000000
O O14 0.442028 0.787587 0.880617
O O15 0.548474 0.757798 0.000000
O O16 0.233334 0.651446 0.906788
O O17 0.193611 0.573535 0.000000
O O18 0.339359 0.222196 0.500000
O O19 0.250000 0.250000 0.624010
#
# Coordination Sequence:
#
# PCOD8276004 Si02
#       7
#    16  16  16  16  16  16  16
#     4  11  25  41  56  77 106 145 185 231 281 332
#     4   9  18  30  46  78 118 147 173 218 276 325
#     4   9  17  28  47  80 118 146 169 214 273 324
#     4  10  19  33  56  84 108 136 179 225 273 328
#     4   9  15  26  44  76 113 137 171 215 266 322
#     4  10  19  34  57  84 112 142 185 231 273 327
#     4   9  15  24  44  76 112 144 173 216 269 324
#
# _framework density 19.279947
#
# number of rings (size 3 to 8) (size 9 to 14) (size 15 to 20)
#    0.000    2.429    1.429    1.714    2.000    6.286 
#    0.000    0.000    0.000    2.571    0.000    0.000 
#    0.000    0.000    0.000    0.000    0.000    0.000 
#
# Total GULP energy -694054.576820 kJ/mol
# GULP energy per Si atom -12393.831729 kJ/mol
# Density = 1.923607 g / cm^3
# Si number density = 19.279947 Si / 1000 Ang^3
#
#
#
# Elastic Constant Matrix: (Units=GPa)
#
#
# Indices 1 2 3 4 5 6 
#
# 1 141.7128 40.7742 35.1682 0.0000 0.0000 0.0000
# 2 40.7742 79.1467 27.4970 0.0000 0.0000 0.0000
# 3 35.1682 27.4970 38.3773 0.0000 0.0000 0.0000
# 4 0.0000 0.0000 0.0000 8.8655 0.0000 0.0000
# 5 0.0000 0.0000 0.0000 0.0000 9.7570 0.0000
# 6 0.0000 0.0000 0.0000 0.0000 0.0000 38.1816
#
#
#
# Elastic Compliance Matrix: (Units=1/GPa)
#
#
# Indices 1 2 3 4 5 6 
#
# 1 0.009487 -0.002486 -0.006913 0.000000 0.000000 0.000000
# 2 -0.002486 0.017474 -0.010242 0.000000 0.000000 0.000000
# 3 -0.006913 -0.010242 0.039730 0.000000 0.000000 0.000000
# 4 0.000000 0.000000 0.000000 0.112797 0.000000 0.000000
# 5 0.000000 0.000000 0.000000 0.000000 0.102491 0.000000
# 6 0.000000 0.000000 0.000000 0.000000 0.000000 0.026191
#
#
# Mechanical properties :
#
#
# Convention : Reuss Voigt Hill
#
# Bulk Modulus (GPa) = 36.48300 51.79063 44.13682
# Shear Modulus (GPa) = 14.02185 21.74731 17.88458
#
# Velocity S-wave (km/s) = 2.69973 3.36218 3.04900
# Velocity P-wave (km/s) = 5.35555 6.48021 5.94453
#
# Compressibility (1/GPa) = 0.02741003
#
# Stress axis : x y z
#
# Youngs Moduli (GPa) = 105.40380 57.22926 25.16998
#
# Poissons Ratio (x) = 0.14227 0.17400
# Poissons Ratio (y) = 0.26203 0.25778
# Poissons Ratio (z) = 0.72864 0.58612
#
# Static dielectric constant tensor:
#      x y z
#    x 3.807780 0.000000 0.000000 
#    y 0.000000 3.679480 0.000000 
#    z 0.000000 0.000000 2.898810 
# 
# 
# High freq. dielectric constant tensor:
#      x y z
#    x 1.769250 0.000000 0.000000 
#    y 0.000000 1.764800 0.000000 
#    z 0.000000 0.000000 1.667370 
# 
# From -- ./inp_files/48998.got.cif
#   From: 2010.03.12/outbox.cif.g09.slc.cpg/sg66_25_cif.got.tgz:48998.got - 2010.04.10 21:57:39.
