data_PCOD8276181
_publ_section_title
;
Structure prediction by ZEFSAII (Michael W. Deem and Ramdas Pophale) SiO2 
 PCOD8276181
Probable space group: C C C M
;
_chemical_formula_sum "Si O2"
_cell_formula_units_Z 88
_cell_length_a 8.058596
_cell_length_b 18.517571
_cell_length_c 29.964489
_cell_angle_alpha 90.000000
_cell_angle_beta 90.000000
_cell_angle_gamma 90.000000
_cell_volume 4471.469557
_symmetry_space_group_name_H-M "C C C M"
_symmetry_group_IT_number 66
_symmetry_cell_setting 'orthorhombic'
loop_
_space_group_symop_operation_xyz
x,y,z
-x,-y,z
x,-y,1/2-z
-x,y,1/2-z
-x,-y,-z
x,y,-z
-x,y,1/2+z
x,-y,1/2+z
1/2+x,1/2+y,z
1/2-x,1/2-y,z
1/2+x,1/2-y,1/2-z
1/2-x,1/2+y,1/2-z
1/2-x,1/2-y,-z
1/2+x,1/2+y,-z
1/2-x,1/2+y,1/2+z
1/2+x,1/2-y,1/2+z
loop_
_atom_site_type_symbol
_atom_site_label
_atom_site_fract_x
_atom_site_fract_y
_atom_site_fract_z
Si Si1 0.967956 0.172336 0.361879
Si Si2 0.824663 0.385389 0.128495
Si Si3 0.928584 0.283274 0.796615
Si Si4 0.919845 0.610244 0.950933
Si Si5 0.324044 0.470039 0.889639
Si Si6 0.750000 0.750000 0.069688
O O1 0.860979 0.098423 0.357176
O O2 0.900079 0.221679 0.400721
O O3 0.157372 0.160224 0.376608
O O4 0.957775 0.217941 0.316038
O O5 0.929078 0.351734 0.169482
O O6 0.774987 0.468971 0.138477
O O7 0.925777 0.381007 0.082435
O O8 0.750000 0.250000 0.787982
O O9 0.000000 0.311560 0.750000
O O10 0.789386 0.552262 0.931441
O O11 0.825492 0.685705 0.959410
O O12 0.980450 0.583970 0.000000
O O13 0.500000 0.500000 0.908157
#
# Coordination Sequence:
#
# PCOD8276181 Si02
#       6
#    16  16  16  16  16   8
#     4   9  19  37  60  83 112 153 189 233 290 347
#     4  10  20  38  57  86 118 149 190 241 287 343
#     4  10  21  35  61  90 114 145 192 240 287 346
#     4  11  22  35  57  84 115 154 198 239 286 344
#     4   9  20  37  59  80 115 156 188 236 296 343
#     4  10  19  36  58  82 114 152 188 236 293 338
#
# _framework density 19.680330000000001
#
# number of rings (size 3 to 8) (size 9 to 14) (size 15 to 20)
#    0.000    2.182    1.818    0.818    1.273    1.818 
#    0.000    9.091    0.000   26.727    0.000    0.000 
#    0.000    0.000    0.000    0.000    0.000    0.000 
#
# Total GULP energy -545310.637357 kJ/mol
# GULP energy per Si atom -12393.423576 kJ/mol
# Density = 1.963554 g / cm^3
# Si number density = 19.680330 Si / 1000 Ang^3
#
#
#
# Elastic Constant Matrix: (Units=GPa)
#
#
# Indices 1 2 3 4 5 6 
#
# 1 73.1113 39.6714 57.2043 0.0000 0.0000 0.0000
# 2 39.6714 125.2940 63.4296 0.0000 0.0000 0.0000
# 3 57.2043 63.4296 148.1089 0.0000 0.0000 0.0000
# 4 0.0000 0.0000 0.0000 16.7317 0.0000 0.0000
# 5 0.0000 0.0000 0.0000 0.0000 22.6244 0.0000
# 6 0.0000 0.0000 0.0000 0.0000 0.0000 25.3688
#
#
#
# Elastic Compliance Matrix: (Units=1/GPa)
#
#
# Indices 1 2 3 4 5 6 
#
# 1 0.020546 -0.003177 -0.006575 0.000000 0.000000 0.000000
# 2 -0.003177 0.010682 -0.003348 0.000000 0.000000 0.000000
# 3 -0.006575 -0.003348 0.010725 0.000000 0.000000 0.000000
# 4 0.000000 0.000000 0.000000 0.059767 0.000000 0.000000
# 5 0.000000 0.000000 0.000000 0.000000 0.044200 0.000000
# 6 0.000000 0.000000 0.000000 0.000000 0.000000 0.039419
#
#
# Mechanical properties :
#
#
# Convention : Reuss Voigt Hill
#
# Bulk Modulus (GPa) = 63.47662 74.12498 68.80080
# Shear Modulus (GPa) = 23.06397 25.35890 24.21144
#
# Velocity S-wave (km/s) = 3.42706 3.59352 3.51128
# Velocity P-wave (km/s) = 6.92701 7.41378 7.17453
#
# Compressibility (1/GPa) = 0.01575383
#
# Stress axis : x y z
#
# Youngs Moduli (GPa) = 48.67118 93.61684 93.24068
#
# Poissons Ratio (x) = 0.29741 0.61306
# Poissons Ratio (y) = 0.15462 0.31214
# Poissons Ratio (z) = 0.32001 0.31340
#
# Static dielectric constant tensor:
#      x y z
#    x 3.632520 0.000000 0.000000 
#    y 0.000000 2.878380 0.000000 
#    z 0.000000 0.000000 3.253250 
# 
# 
# High freq. dielectric constant tensor:
#      x y z
#    x 1.778700 0.000000 0.000000 
#    y 0.000000 1.783350 0.000000 
#    z 0.000000 0.000000 1.729860 
# 
# From -- ./inp_files/68176.got.cif
#   From: 2010.03.12/outbox.cif.g09.slc.cpg/sg66_35_cif.got.tgz:68176.got - 2010.04.10 21:57:39.
