data_PCOD8276900
_publ_section_title
;
Structure prediction by ZEFSAII (Michael W. Deem and Ramdas Pophale) SiO2 
 PCOD8276900
Probable space group: C C C M
;
_chemical_formula_sum "Si O2"
_cell_formula_units_Z 72
_cell_length_a 17.299373
_cell_length_b 21.728121
_cell_length_c 9.417091
_cell_angle_alpha 90.000000
_cell_angle_beta 90.000000
_cell_angle_gamma 90.000000
_cell_volume 3539.723190
_symmetry_space_group_name_H-M "C C C M"
_symmetry_group_IT_number 66
_symmetry_cell_setting 'orthorhombic'
loop_
_space_group_symop_operation_xyz
x,y,z
-x,-y,z
x,-y,1/2-z
-x,y,1/2-z
-x,-y,-z
x,y,-z
-x,y,1/2+z
x,-y,1/2+z
1/2+x,1/2+y,z
1/2-x,1/2-y,z
1/2+x,1/2-y,1/2-z
1/2-x,1/2+y,1/2-z
1/2-x,1/2-y,-z
1/2+x,1/2+y,-z
1/2-x,1/2+y,1/2+z
1/2+x,1/2-y,1/2+z
loop_
_atom_site_type_symbol
_atom_site_label
_atom_site_fract_x
_atom_site_fract_y
_atom_site_fract_z
Si Si1 0.350173 0.193874 0.831456
Si Si2 0.773254 0.875528 0.659137
Si Si3 0.065966 0.427164 0.848152
Si Si4 0.077500 0.193262 0.334967
Si Si5 0.702831 0.000000 0.750000
O O1 0.268327 0.169467 0.771757
O O2 0.413352 0.141611 0.799978
O O3 0.378271 0.251554 0.742244
O O4 0.341487 0.208084 0.000000
O O5 0.745760 0.857460 0.500000
O O6 0.865429 0.865489 0.673535
O O7 0.756812 0.948026 0.680855
O O8 0.144274 0.467418 0.860093
O O9 0.000000 0.455830 0.750000
O O10 0.025885 0.425780 0.000000
O O11 0.058688 0.209863 0.500000
O O12 0.000000 0.176589 0.250000
#
# Coordination Sequence:
#
# PCOD8276900 Si02
#       5
#    16  16  16  16   8
#     4  10  21  37  59  88 120 153 188 229 283 347
#     4  10  22  40  61  85 114 151 194 239 289 344
#     4  10  21  34  52  81 114 148 183 221 270 329
#     4  11  23  39  60  86 116 150 190 239 294 348
#     4  10  21  38  59  78 108 148 194 240 283 336
#
# _framework density 20.340574
#
# number of rings (size 3 to 8) (size 9 to 14) (size 15 to 20)
#    0.000    1.778    0.000    3.667    0.000   13.333 
#    0.000    0.556    0.000    2.667    0.000    0.000 
#    0.000    0.000    0.000    0.000    0.000    0.000 
#
# Total GULP energy -446133.112846 kJ/mol
# GULP energy per Si atom -12392.586468 kJ/mol
# Density = 2.029428 g / cm^3
# Si number density = 20.340574 Si / 1000 Ang^3
#
#
#
# Elastic Constant Matrix: (Units=GPa)
#
#
# Indices 1 2 3 4 5 6 
#
# 1 124.0511 61.5311 73.6956 0.0000 0.0000 0.0000
# 2 61.5311 100.1193 45.4604 0.0000 0.0000 0.0000
# 3 73.6956 45.4604 141.1085 0.0000 0.0000 0.0000
# 4 0.0000 0.0000 0.0000 107.6899 0.0000 0.0000
# 5 0.0000 0.0000 0.0000 0.0000 32.9020 0.0000
# 6 0.0000 0.0000 0.0000 0.0000 0.0000 12.2706
#
#
#
# Elastic Compliance Matrix: (Units=1/GPa)
#
#
# Indices 1 2 3 4 5 6 
#
# 1 0.014523 -0.006421 -0.005516 0.000000 0.000000 0.000000
# 2 -0.006421 0.014538 -0.001330 0.000000 0.000000 0.000000
# 3 -0.005516 -0.001330 0.010396 0.000000 0.000000 0.000000
# 4 0.000000 0.000000 0.000000 0.009286 0.000000 0.000000
# 5 0.000000 0.000000 0.000000 0.000000 0.030393 0.000000
# 6 0.000000 0.000000 0.000000 0.000000 0.000000 0.081496
#
#
# Mechanical properties :
#
#
# Convention : Reuss Voigt Hill
#
# Bulk Modulus (GPa) = 77.38346 80.73920 79.06133
# Shear Modulus (GPa) = 26.11302 42.87861 34.49582
#
# Velocity S-wave (km/s) = 3.58689 4.59631 4.12261
# Velocity P-wave (km/s) = 7.43511 8.24306 7.84948
#
# Compressibility (1/GPa) = 0.01292266
#
# Stress axis : x y z
#
# Youngs Moduli (GPa) = 68.85578 68.78399 96.18811
#
# Poissons Ratio (x) = 0.44165 0.53060
# Poissons Ratio (y) = 0.44211 0.12797
# Poissons Ratio (z) = 0.37983 0.09151
#
# Static dielectric constant tensor:
#      x y z
#    x 3.704650 0.000000 0.000000 
#    y 0.000000 3.712870 0.000000 
#    z 0.000000 0.000000 3.812920 
# 
# 
# High freq. dielectric constant tensor:
#      x y z
#    x 1.785100 0.000000 0.000000 
#    y 0.000000 1.793370 0.000000 
#    z 0.000000 0.000000 1.805230 
# 
# From -- ./inp_files/6471.got.cif
#   From: 2010.03.12/outbox.cif.g09.slc.cpg/sg66_4_cif.got.tgz:6471.got - 2010.04.10 21:57:39.
