data_PCOD8276426
_publ_section_title
;
Structure prediction by ZEFSAII (Michael W. Deem and Ramdas Pophale) SiO2 
 PCOD8276426
Probable space group: C C C M
;
_chemical_formula_sum "Si O2"
_cell_formula_units_Z 96
_cell_length_a 24.917265
_cell_length_b 9.210071
_cell_length_c 20.511229
_cell_angle_alpha 90.000000
_cell_angle_beta 90.000000
_cell_angle_gamma 90.000000
_cell_volume 4707.117426
_symmetry_space_group_name_H-M "C C C M"
_symmetry_group_IT_number 66
_symmetry_cell_setting 'orthorhombic'
loop_
_space_group_symop_operation_xyz
x,y,z
-x,-y,z
x,-y,1/2-z
-x,y,1/2-z
-x,-y,-z
x,y,-z
-x,y,1/2+z
x,-y,1/2+z
1/2+x,1/2+y,z
1/2-x,1/2-y,z
1/2+x,1/2-y,1/2-z
1/2-x,1/2+y,1/2-z
1/2-x,1/2-y,-z
1/2+x,1/2+y,-z
1/2-x,1/2+y,1/2+z
1/2+x,1/2-y,1/2+z
loop_
_atom_site_type_symbol
_atom_site_label
_atom_site_fract_x
_atom_site_fract_y
_atom_site_fract_z
Si Si1 0.297879 0.979860 0.426403
Si Si2 0.941417 0.976390 0.573370
Si Si3 0.608503 0.180277 0.075416
Si Si4 0.124545 0.770414 0.621952
Si Si5 0.778461 0.898733 0.812175
Si Si6 0.561466 0.028433 0.319594
O O1 0.274570 0.968711 0.500000
O O2 0.338721 0.844942 0.416495
O O3 0.249502 0.972348 0.375258
O O4 0.328687 0.134322 0.416993
O O5 0.954554 0.932476 0.500000
O O6 0.905386 0.842512 0.601219
O O7 0.905751 0.121060 0.573577
O O8 0.000000 0.000000 0.608596
O O9 0.575912 0.074416 0.121130
O O10 0.591500 0.156116 0.000000
O O11 0.159827 0.866952 0.671311
O O12 0.077450 0.692052 0.662292
O O13 0.750000 0.750000 0.792933
O O14 0.774172 0.000000 0.750000
O O15 0.500000 0.000000 0.307632
O O16 0.591329 0.000000 0.250000
#
# Coordination Sequence:
#
# PCOD8276426 Si02
#       6
#    16  16  16  16  16  16
#     4   9  19  37  60  84 110 145 193 239 279 333
#     4  10  20  34  54  84 120 152 185 231 287 343
#     4   9  19  35  56  82 113 150 187 229 284 341
#     4  10  21  35  56  83 111 147 189 234 285 334
#     4  10  23  39  58  84 113 149 189 234 289 344
#     4  10  21  37  57  81 110 148 193 236 277 329
#
# _framework density 20.394646999999999
#
# number of rings (size 3 to 8) (size 9 to 14) (size 15 to 20)
#    0.000    2.333    0.000    1.500    0.000   13.333 
#    0.000    0.000    0.000    6.500    0.000    0.000 
#    0.000    0.000    0.000    0.000    0.000    0.000 
#
# Total GULP energy -594739.417685 kJ/mol
# GULP energy per Si atom -12390.404535 kJ/mol
# Density = 2.034823 g / cm^3
# Si number density = 20.394647 Si / 1000 Ang^3
#
#
#
# Elastic Constant Matrix: (Units=GPa)
#
#
# Indices 1 2 3 4 5 6 
#
# 1 98.2269 55.7721 38.0788 0.0000 0.0000 0.0000
# 2 55.7721 121.9165 50.0360 0.0000 0.0000 0.0000
# 3 38.0788 50.0360 114.0034 0.0000 0.0000 0.0000
# 4 0.0000 0.0000 0.0000 27.6418 0.0000 0.0000
# 5 0.0000 0.0000 0.0000 0.0000 -7.7321 0.0000
# 6 0.0000 0.0000 0.0000 0.0000 0.0000 34.3634
#
#
#
# Elastic Compliance Matrix: (Units=1/GPa)
#
#
# Indices 1 2 3 4 5 6 
#
# 1 0.014236 -0.005563 -0.002313 0.000000 0.000000 0.000000
# 2 -0.005563 0.012178 -0.003487 0.000000 0.000000 0.000000
# 3 -0.002313 -0.003487 0.011075 0.000000 0.000000 0.000000
# 4 0.000000 0.000000 0.000000 0.036177 0.000000 0.000000
# 5 0.000000 0.000000 0.000000 0.000000 -0.129330 0.000000
# 6 0.000000 0.000000 0.000000 0.000000 0.000000 0.029101
#
#
# Mechanical properties :
#
#
# Convention : Reuss Voigt Hill
#
# Bulk Modulus (GPa) = 67.73977 69.10230 68.42104
# Shear Modulus (GPa) = 4613.54815 23.53859 2318.54337
#
# Velocity S-wave (km/s) = 47.61352 3.40097 33.75362
# Velocity P-wave (km/s) = 55.28125 7.02697 39.40428
#
# Compressibility (1/GPa) = 0.01476238
#
# Stress axis : x y z
#
# Youngs Moduli (GPa) = 70.24497 82.11378 90.29505
#
# Poissons Ratio (x) = 0.45679 0.20889
# Poissons Ratio (y) = 0.39077 0.31485
# Poissons Ratio (z) = 0.16251 0.28632
#
# Static dielectric constant tensor:
#      x y z
#    x 4.057960 0.000000 0.000000 
#    y 0.000000 3.882580 0.000000 
#    z 0.000000 0.000000 3.786260 
# 
# 
# High freq. dielectric constant tensor:
#      x y z
#    x 1.791200 0.000000 0.000000 
#    y 0.000000 1.799120 0.000000 
#    z 0.000000 0.000000 1.789500 
# 
# From -- ./inp_files/52958.got.cif
#   From: 2010.03.12/outbox.cif.g09.slc.cpg/sg66_27_cif.got.tgz:52958.got - 2010.04.10 21:57:39.
