data_PCOD8276940
_publ_section_title
;
Structure prediction by ZEFSAII (Michael W. Deem and Ramdas Pophale) SiO2 
 PCOD8276940
Probable space group: C C C M
;
_chemical_formula_sum "Si O2"
_cell_formula_units_Z 96
_cell_length_a 28.740939
_cell_length_b 19.912929
_cell_length_c 9.071884
_cell_angle_alpha 90.000000
_cell_angle_beta 90.000000
_cell_angle_gamma 90.000000
_cell_volume 5191.986883
_symmetry_space_group_name_H-M "C C C M"
_symmetry_group_IT_number 66
_symmetry_cell_setting 'orthorhombic'
loop_
_space_group_symop_operation_xyz
x,y,z
-x,-y,z
x,-y,1/2-z
-x,y,1/2-z
-x,-y,-z
x,y,-z
-x,y,1/2+z
x,-y,1/2+z
1/2+x,1/2+y,z
1/2-x,1/2-y,z
1/2+x,1/2-y,1/2-z
1/2-x,1/2+y,1/2-z
1/2-x,1/2-y,-z
1/2+x,1/2+y,-z
1/2-x,1/2+y,1/2+z
1/2+x,1/2-y,1/2+z
loop_
_atom_site_type_symbol
_atom_site_label
_atom_site_fract_x
_atom_site_fract_y
_atom_site_fract_z
Si Si1 0.398285 0.694915 0.667447
Si Si2 0.123737 0.570621 0.827482
Si Si3 0.207618 0.659443 0.173410
Si Si4 0.451913 0.559543 0.666851
Si Si5 0.692151 0.311075 0.826130
Si Si6 0.050158 0.684607 0.173297
O O1 0.390827 0.720006 0.500000
O O2 0.432366 0.633306 0.675427
O O3 0.351335 0.662702 0.734367
O O4 0.418860 0.755010 0.764299
O O5 0.115714 0.500000 0.750000
O O6 0.170591 0.606122 0.760418
O O7 0.078502 0.616236 0.796511
O O8 0.129952 0.557577 0.000000
O O9 0.261715 0.645088 0.215299
O O10 0.196909 0.734250 0.227860
O O11 0.201198 0.658426 0.000000
O O12 0.422515 0.500000 0.750000
O O13 0.500000 0.564802 0.750000
O O14 0.458288 0.536305 0.500000
O O15 0.682722 0.315420 0.000000
O O16 0.000000 0.680062 0.250000
O O17 0.042643 0.696836 0.000000
#
# Coordination Sequence:
#
# PCOD8276940 Si02
#       6
#    16  16  16  16  16  16
#     4  11  22  35  54  85 118 145 181 229 279 330
#     4  10  21  38  58  81 111 149 191 234 285 342
#     4   8  15  32  56  81 105 138 184 223 264 328
#     4  10  21  36  54  76 104 141 180 221 265 323
#     4   9  16  31  58  82 106 141 180 223 269 323
#     4  11  23  39  59  82 111 147 191 239 286 340
#
# _framework density 18.490031999999999
#
# number of rings (size 3 to 8) (size 9 to 14) (size 15 to 20)
#    0.000    2.167    1.667    3.500    0.000    5.667 
#    0.000    5.000    0.000    4.000    0.000    0.000 
#    0.000    0.000    0.000    0.000    0.000    0.000 
#
# Total GULP energy -594781.524883 kJ/mol
# GULP energy per Si atom -12391.281768 kJ/mol
# Density = 1.844795 g / cm^3
# Si number density = 18.490032 Si / 1000 Ang^3
#
#
#
# Elastic Constant Matrix: (Units=GPa)
#
#
# Indices 1 2 3 4 5 6 
#
# 1 114.8695 26.3504 53.4300 0.0000 0.0000 0.0000
# 2 26.3504 68.5581 43.8148 0.0000 0.0000 0.0000
# 3 53.4300 43.8148 102.0418 0.0000 0.0000 0.0000
# 4 0.0000 0.0000 0.0000 37.9751 0.0000 0.0000
# 5 0.0000 0.0000 0.0000 0.0000 10.8291 0.0000
# 6 0.0000 0.0000 0.0000 0.0000 0.0000 24.1041
#
#
#
# Elastic Compliance Matrix: (Units=1/GPa)
#
#
# Indices 1 2 3 4 5 6 
#
# 1 0.011539 -0.000791 -0.005703 0.000000 0.000000 0.000000
# 2 -0.000791 0.020157 -0.008241 0.000000 0.000000 0.000000
# 3 -0.005703 -0.008241 0.016324 0.000000 0.000000 0.000000
# 4 0.000000 0.000000 0.000000 0.026333 0.000000 0.000000
# 5 0.000000 0.000000 0.000000 0.000000 0.092344 0.000000
# 6 0.000000 0.000000 0.000000 0.000000 0.000000 0.041487
#
#
# Mechanical properties :
#
#
# Convention : Reuss Voigt Hill
#
# Bulk Modulus (GPa) = 53.90246 59.18444 56.54345
# Shear Modulus (GPa) = 20.50556 25.37327 22.93942
#
# Velocity S-wave (km/s) = 3.33379 3.70843 3.52609
# Velocity P-wave (km/s) = 6.63584 7.10035 6.87202
#
# Compressibility (1/GPa) = 0.01855203
#
# Stress axis : x y z
#
# Youngs Moduli (GPa) = 86.65953 49.61118 61.25826
#
# Poissons Ratio (x) = 0.03923 0.34933
# Poissons Ratio (y) = 0.06852 0.50482
# Poissons Ratio (z) = 0.49419 0.40884
#
# Static dielectric constant tensor:
#      x y z
#    x 3.735000 0.000000 0.000000 
#    y 0.000000 2.916480 0.000000 
#    z 0.000000 0.000000 3.419120 
# 
# 
# High freq. dielectric constant tensor:
#      x y z
#    x 1.725370 0.000000 0.000000 
#    y 0.000000 1.706030 0.000000 
#    z 0.000000 0.000000 1.708530 
# 
# From -- ./inp_files/10264.got.cif
#   From: 2010.03.12/outbox.cif.g09.slc.cpg/sg66_6_cif.got.tgz:10264.got - 2010.04.10 21:57:39.
