data_PCOD8276942
_publ_section_title
;
Structure prediction by ZEFSAII (Michael W. Deem and Ramdas Pophale) SiO2 
 PCOD8276942
Probable space group: C C C M
;
_chemical_formula_sum "Si O2"
_cell_formula_units_Z 64
_cell_length_a 33.587136
_cell_length_b 4.959416
_cell_length_c 19.135735
_cell_angle_alpha 90.000000
_cell_angle_beta 90.000000
_cell_angle_gamma 90.000000
_cell_volume 3187.488743
_symmetry_space_group_name_H-M "C C C M"
_symmetry_group_IT_number 66
_symmetry_cell_setting 'orthorhombic'
loop_
_space_group_symop_operation_xyz
x,y,z
-x,-y,z
x,-y,1/2-z
-x,y,1/2-z
-x,-y,-z
x,y,-z
-x,y,1/2+z
x,-y,1/2+z
1/2+x,1/2+y,z
1/2-x,1/2-y,z
1/2+x,1/2-y,1/2-z
1/2-x,1/2+y,1/2-z
1/2-x,1/2-y,-z
1/2+x,1/2+y,-z
1/2-x,1/2+y,1/2+z
1/2+x,1/2-y,1/2+z
loop_
_atom_site_type_symbol
_atom_site_label
_atom_site_fract_x
_atom_site_fract_y
_atom_site_fract_z
Si Si1 0.403969 0.494922 0.830719
Si Si2 0.353361 0.996298 0.331217
Si Si3 0.776633 0.510093 0.921670
Si Si4 0.473308 0.246915 0.076492
O O1 0.416934 0.500000 0.750000
O O2 0.389526 0.796362 0.851568
O O3 0.439790 0.358070 0.872153
O O4 0.366347 0.307257 0.847290
O O5 0.314597 0.060873 0.375375
O O6 0.342200 0.000000 0.250000
O O7 0.750000 0.250000 0.924020
O O8 0.750000 0.750000 0.888883
O O9 0.790725 0.590793 0.000000
O O10 0.500000 0.500000 0.062155
O O11 0.500000 0.000000 0.108729
O O12 0.456059 0.154000 0.000000
#
# Coordination Sequence:
#
# PCOD8276942 Si02
#       4
#    16  16  16  16
#     4  10  21  37  55  80 111 142 181 226 271 326
#     4  10  21  36  55  79 108 142 181 224 270 324
#     4  10  21  36  54  79 109 140 179 225 271 324
#     4  10  21  37  57  82 111 143 182 227 274 328
#
# _framework density 20.078500999999999
#
# number of rings (size 3 to 8) (size 9 to 14) (size 15 to 20)
#    0.000    2.000    0.000    3.000    0.000    3.500 
#    0.000    1.250    0.000    0.000    0.000    0.000 
#    0.000    0.000    0.000    0.000    0.000    0.000 
#
# Total GULP energy -396530.917697 kJ/mol
# GULP energy per Si atom -12391.591178 kJ/mol
# Density = 2.003280 g / cm^3
# Si number density = 20.078501 Si / 1000 Ang^3
#
#
#
# Elastic Constant Matrix: (Units=GPa)
#
#
# Indices 1 2 3 4 5 6 
#
# 1 106.5714 27.9642 70.6448 0.0000 0.0000 0.0000
# 2 27.9642 109.5474 33.4547 0.0000 0.0000 0.0000
# 3 70.6448 33.4547 87.7124 0.0000 0.0000 0.0000
# 4 0.0000 0.0000 0.0000 33.0487 0.0000 0.0000
# 5 0.0000 0.0000 0.0000 0.0000 35.9130 0.0000
# 6 0.0000 0.0000 0.0000 0.0000 0.0000 37.2878
#
#
#
# Elastic Compliance Matrix: (Units=1/GPa)
#
#
# Indices 1 2 3 4 5 6 
#
# 1 0.020136 -0.000212 -0.016137 0.000000 0.000000 0.000000
# 2 -0.000212 0.010334 -0.003771 0.000000 0.000000 0.000000
# 3 -0.016137 -0.003771 0.025836 0.000000 0.000000 0.000000
# 4 0.000000 0.000000 0.000000 0.030258 0.000000 0.000000
# 5 0.000000 0.000000 0.000000 0.000000 0.027845 0.000000
# 6 0.000000 0.000000 0.000000 0.000000 0.000000 0.026818
#
#
# Mechanical properties :
#
#
# Convention : Reuss Voigt Hill
#
# Bulk Modulus (GPa) = 62.24081 63.10651 62.67366
# Shear Modulus (GPa) = 26.76328 32.70107 29.73217
#
# Velocity S-wave (km/s) = 3.65490 4.04005 3.85229
# Velocity P-wave (km/s) = 6.99121 7.29800 7.14625
#
# Compressibility (1/GPa) = 0.01606663
#
# Stress axis : x y z
#
# Youngs Moduli (GPa) = 49.66228 96.76645 38.70564
#
# Poissons Ratio (x) = 0.02052 0.62459
# Poissons Ratio (y) = 0.01053 0.14595
# Poissons Ratio (z) = 0.80140 0.36488
#
# Static dielectric constant tensor:
#      x y z
#    x 3.238640 0.000000 0.000000 
#    y 0.000000 4.069840 0.000000 
#    z 0.000000 0.000000 3.821900 
# 
# 
# High freq. dielectric constant tensor:
#      x y z
#    x 1.770690 0.000000 0.000000 
#    y 0.000000 1.809330 0.000000 
#    z 0.000000 0.000000 1.775230 
# 
# From -- ./inp_files/35034.got.cif
#   From: 2010.03.12/outbox.cif.g09.slc.cpg/sg66_18_cif.got.tgz:35034.got - 2010.04.10 21:57:39.
