data_PCOD8276978
_publ_section_title
;
Structure prediction by ZEFSAII (Michael W. Deem and Ramdas Pophale) SiO2 
 PCOD8276978
Probable space group: C C C M
;
_chemical_formula_sum "Si O2"
_cell_formula_units_Z 60
_cell_length_a 11.277358
_cell_length_b 9.608639
_cell_length_c 24.224519
_cell_angle_alpha 90.000000
_cell_angle_beta 90.000000
_cell_angle_gamma 90.000000
_cell_volume 2624.970378
_symmetry_space_group_name_H-M "C C C M"
_symmetry_group_IT_number 66
_symmetry_cell_setting 'orthorhombic'
loop_
_space_group_symop_operation_xyz
x,y,z
-x,-y,z
x,-y,1/2-z
-x,y,1/2-z
-x,-y,-z
x,y,-z
-x,y,1/2+z
x,-y,1/2+z
1/2+x,1/2+y,z
1/2-x,1/2-y,z
1/2+x,1/2-y,1/2-z
1/2-x,1/2+y,1/2-z
1/2-x,1/2-y,-z
1/2+x,1/2+y,-z
1/2-x,1/2+y,1/2+z
1/2+x,1/2-y,1/2+z
loop_
_atom_site_type_symbol
_atom_site_label
_atom_site_fract_x
_atom_site_fract_y
_atom_site_fract_z
Si Si1 0.861782 0.349453 0.941617
Si Si2 0.000000 0.000000 0.144699
Si Si3 0.109485 0.729521 0.826304
Si Si4 0.500000 0.000000 0.250000
Si Si5 0.202723 0.102179 0.062742
O O1 0.750000 0.250000 0.945371
O O2 0.938194 0.308172 0.888196
O O3 0.818784 0.506569 0.934647
O O4 0.934124 0.334568 0.000000
O O5 0.041522 0.874747 0.185802
O O6 0.892843 0.955618 0.105371
O O7 0.250000 0.750000 0.824326
O O8 0.081090 0.602350 0.785967
O O9 0.250000 0.250000 0.083196
O O10 0.151171 0.106752 0.000000
#
# Coordination Sequence:
#
# PCOD8276978 Si02
#       5
#    16   8  16   4  16
#     4   9  17  38  67  98 144 178 207 276 345 396
#     4  12  23  39  74  98 132 184 229 269 354 410
#     4  11  26  49  71 103 137 176 229 293 339 405
#     4  12  32  50  74  98 128 182 248 282 352 404
#     4  10  21  36  61 104 149 185 221 268 329 414
#
# _framework density 22.857399999999998
#
# number of rings (size 3 to 8) (size 9 to 14) (size 15 to 20)
#    0.000    1.600    5.333    0.400    3.733    3.733 
#    0.000    0.667    0.000    0.000    0.000    0.000 
#    0.000    0.000    0.000    0.000    0.000    0.000 
#
# Total GULP energy -371735.699409 kJ/mol
# GULP energy per Si atom -12391.189980 kJ/mol
# Density = 2.280538 g / cm^3
# Si number density = 22.857400 Si / 1000 Ang^3
#
#
#
# Elastic Constant Matrix: (Units=GPa)
#
#
# Indices 1 2 3 4 5 6 
#
# 1 45.5395 30.2426 32.9709 0.0000 0.0000 0.0000
# 2 30.2426 179.5225 54.5136 0.0000 0.0000 0.0000
# 3 32.9709 54.5136 121.2753 0.0000 0.0000 0.0000
# 4 0.0000 0.0000 0.0000 41.6014 0.0000 0.0000
# 5 0.0000 0.0000 0.0000 0.0000 13.6400 0.0000
# 6 0.0000 0.0000 0.0000 0.0000 0.0000 38.4581
#
#
#
# Elastic Compliance Matrix: (Units=1/GPa)
#
#
# Indices 1 2 3 4 5 6 
#
# 1 0.028538 -0.002839 -0.006482 0.000000 0.000000 0.000000
# 2 -0.002839 0.006733 -0.002255 0.000000 0.000000 0.000000
# 3 -0.006482 -0.002255 0.011022 0.000000 0.000000 0.000000
# 4 0.000000 0.000000 0.000000 0.024038 0.000000 0.000000
# 5 0.000000 0.000000 0.000000 0.000000 0.073314 0.000000
# 6 0.000000 0.000000 0.000000 0.000000 0.000000 0.026002
#
#
# Mechanical properties :
#
#
# Convention : Reuss Voigt Hill
#
# Bulk Modulus (GPa) = 43.21490 64.64348 53.92919
# Shear Modulus (GPa) = 24.93618 33.98059 29.45839
#
# Velocity S-wave (km/s) = 3.30653 3.85987 3.59387
# Velocity P-wave (km/s) = 5.79007 6.94316 6.39266
#
# Compressibility (1/GPa) = 0.02314017
#
# Stress axis : x y z
#
# Youngs Moduli (GPa) = 35.04148 148.51583 90.73132
#
# Poissons Ratio (x) = 0.42165 0.58815
# Poissons Ratio (y) = 0.09949 0.20458
# Poissons Ratio (z) = 0.22715 0.33487
#
# Static dielectric constant tensor:
#      x y z
#    x 3.623930 0.000000 0.000000 
#    y 0.000000 4.556710 0.000000 
#    z 0.000000 0.000000 4.542910 
# 
# 
# High freq. dielectric constant tensor:
#      x y z
#    x 1.868790 0.000000 0.000000 
#    y 0.000000 1.933800 0.000000 
#    z 0.000000 0.000000 1.891430 
# 
# From -- ./inp_files/63263.got.cif
#   From: 2010.03.12/outbox.cif.g09.slc.cpg/sg66_32_cif.got.tgz:63263.got - 2010.04.10 21:57:39.
