data_PCOD8276199
_publ_section_title
;
Structure prediction by ZEFSAII (Michael W. Deem and Ramdas Pophale) SiO2 
 PCOD8276199
Probable space group: C C C M
;
_chemical_formula_sum "Si O2"
_cell_formula_units_Z 56
_cell_length_a 34.841690
_cell_length_b 5.165199
_cell_length_c 13.764259
_cell_angle_alpha 90.000000
_cell_angle_beta 90.000000
_cell_angle_gamma 90.000000
_cell_volume 2477.074718
_symmetry_space_group_name_H-M "C C C M"
_symmetry_group_IT_number 66
_symmetry_cell_setting 'orthorhombic'
loop_
_space_group_symop_operation_xyz
x,y,z
-x,-y,z
x,-y,1/2-z
-x,y,1/2-z
-x,-y,-z
x,y,-z
-x,y,1/2+z
x,-y,1/2+z
1/2+x,1/2+y,z
1/2-x,1/2-y,z
1/2+x,1/2-y,1/2-z
1/2-x,1/2+y,1/2-z
1/2-x,1/2-y,-z
1/2+x,1/2+y,-z
1/2-x,1/2+y,1/2+z
1/2+x,1/2-y,1/2+z
loop_
_atom_site_type_symbol
_atom_site_label
_atom_site_fract_x
_atom_site_fract_y
_atom_site_fract_z
Si Si1 0.707706 0.699138 0.884501
Si Si2 0.922574 0.748828 0.688951
Si Si3 0.162426 0.300911 0.615499
Si Si4 0.526158 0.250117 0.000000
O O1 0.750000 0.750000 0.840807
O O2 0.691984 0.421395 0.849103
O O3 0.678818 0.923435 0.848832
O O4 0.709990 0.704975 0.000000
O O5 0.934862 0.500000 0.750000
O O6 0.877754 0.746950 0.666034
O O7 0.946593 0.750926 0.591878
O O8 0.933497 0.000000 0.750000
O O9 0.157065 0.291981 0.500000
O O10 0.500000 0.500000 0.000000
O O11 0.500000 0.000000 0.000000
#
# Coordination Sequence:
#
# PCOD8276199 Si02
#       4
#    16  16  16   8
#     4   9  17  29  54  90 125 170 226 278 329 384
#     4  12  26  45  72 103 138 179 223 271 332 399
#     4  10  19  36  60  88 129 174 222 274 328 387
#     4  12  28  50  76 106 139 172 217 272 334 406
#
# _framework density 22.607310999999999
#
# number of rings (size 3 to 8) (size 9 to 14) (size 15 to 20)
#    0.000    1.429    1.429    4.286    0.000    6.857 
#    0.000    0.000    0.000   17.143    0.000    0.000 
#    0.000    0.000    0.000    0.000    0.000    0.000 
#
# Total GULP energy -347376.006039 kJ/mol
# GULP energy per Si atom -12406.285930 kJ/mol
# Density = 2.255586 g / cm^3
# Si number density = 22.607311 Si / 1000 Ang^3
#
#
#
# Elastic Constant Matrix: (Units=GPa)
#
#
# Indices 1 2 3 4 5 6 
#
# 1 132.0447 54.1302 48.8673 0.0000 0.0000 0.0000
# 2 54.1302 197.3618 41.8850 0.0000 0.0000 0.0000
# 3 48.8673 41.8850 82.4872 0.0000 0.0000 0.0000
# 4 0.0000 0.0000 0.0000 26.6628 0.0000 0.0000
# 5 0.0000 0.0000 0.0000 0.0000 667.8432 0.0000
# 6 0.0000 0.0000 0.0000 0.0000 0.0000 55.7924
#
#
#
# Elastic Compliance Matrix: (Units=1/GPa)
#
#
# Indices 1 2 3 4 5 6 
#
# 1 0.010182 -0.001695 -0.005171 0.000000 0.000000 0.000000
# 2 -0.001695 0.005961 -0.002023 0.000000 0.000000 0.000000
# 3 -0.005171 -0.002023 0.016214 0.000000 0.000000 0.000000
# 4 0.000000 0.000000 0.000000 0.037505 0.000000 0.000000
# 5 0.000000 0.000000 0.000000 0.000000 0.001497 0.000000
# 6 0.000000 0.000000 0.000000 0.000000 0.000000 0.017924
#
#
# Mechanical properties :
#
#
# Convention : Reuss Voigt Hill
#
# Bulk Modulus (GPa) = 68.59362 77.96207 73.27785
# Shear Modulus (GPa) = 44.67463 167.86044 106.26753
#
# Velocity S-wave (km/s) = 4.45017 8.62622 6.86352
# Velocity P-wave (km/s) = 7.53741 11.56615 9.76188
#
# Compressibility (1/GPa) = 0.01457861
#
# Stress axis : x y z
#
# Youngs Moduli (GPa) = 98.21392 167.75703 61.67626
#
# Poissons Ratio (x) = 0.28437 0.31894
# Poissons Ratio (y) = 0.16648 0.12475
# Poissons Ratio (z) = 0.50789 0.33931
#
# Static dielectric constant tensor:
#      x y z
#    x 4.141150 0.000000 0.000000 
#    y 0.000000 4.338900 0.000000 
#    z 0.000000 0.000000 4.101790 
# 
# 
# High freq. dielectric constant tensor:
#      x y z
#    x 1.896160 0.000000 0.000000 
#    y 0.000000 1.907590 0.000000 
#    z 0.000000 0.000000 1.905910 
# 
# From -- ./inp_files/22497.got.cif
#   From: 2010.03.12/outbox.cif.g09.slc.cpg/sg66_12_cif.got.tgz:22497.got - 2010.04.10 21:57:39.
