data_PCOD8276629
_publ_section_title
;
Structure prediction by ZEFSAII (Michael W. Deem and Ramdas Pophale) SiO2 
 PCOD8276629
Probable space group: C C C M
;
_chemical_formula_sum "Si O2"
_cell_formula_units_Z 112
_cell_length_a 25.412323
_cell_length_b 14.513436
_cell_length_c 14.871702
_cell_angle_alpha 90.000000
_cell_angle_beta 90.000000
_cell_angle_gamma 90.000000
_cell_volume 5484.982968
_symmetry_space_group_name_H-M "C C C M"
_symmetry_group_IT_number 66
_symmetry_cell_setting 'orthorhombic'
loop_
_space_group_symop_operation_xyz
x,y,z
-x,-y,z
x,-y,1/2-z
-x,y,1/2-z
-x,-y,-z
x,y,-z
-x,y,1/2+z
x,-y,1/2+z
1/2+x,1/2+y,z
1/2-x,1/2-y,z
1/2+x,1/2-y,1/2-z
1/2-x,1/2+y,1/2-z
1/2-x,1/2-y,-z
1/2+x,1/2+y,-z
1/2-x,1/2+y,1/2+z
1/2+x,1/2-y,1/2+z
loop_
_atom_site_type_symbol
_atom_site_label
_atom_site_fract_x
_atom_site_fract_y
_atom_site_fract_z
Si Si1 0.302391 0.204484 0.294731
Si Si2 0.205862 0.476623 0.401830
Si Si3 0.399729 0.671106 0.601327
Si Si4 0.620452 0.334582 0.102873
Si Si5 0.171402 0.330325 0.899964
Si Si6 0.991814 0.102969 0.106764
Si Si7 0.319937 0.483381 0.852085
O O1 0.250000 0.250000 0.336368
O O2 0.304902 0.098681 0.326002
O O3 0.352626 0.260299 0.331353
O O4 0.296464 0.206658 0.186503
O O5 0.199185 0.429925 0.500000
O O6 0.163744 0.559657 0.390757
O O7 0.263280 0.525662 0.399212
O O8 0.403316 0.633654 0.500000
O O9 0.385056 0.779074 0.605948
O O10 0.457685 0.659299 0.644157
O O11 0.353814 0.610156 0.646229
O O12 0.561779 0.350239 0.142819
O O13 0.649261 0.432572 0.103074
O O14 0.620499 0.297543 0.000000
O O15 0.196383 0.307393 0.000000
O O16 0.986982 0.102131 0.000000
O O17 0.000000 0.000000 0.144282
O O18 0.306070 0.500000 0.750000
#
# Coordination Sequence:
#
# PCOD8276629 Si02
#       7
#    16  16  16  16  16  16  16
#     4  12  24  39  60  88 123 155 201 250 299 357
#     4  11  24  41  62  85 117 160 204 249 302 356
#     4  10  20  36  59  83 115 157 204 247 292 351
#     4  11  22  37  59  88 124 163 201 245 305 362
#     4  10  24  42  60  85 118 162 204 246 298 356
#     4   9  17  34  59  87 119 159 200 245 299 360
#     4  12  22  33  51  84 123 160 200 244 293 349
#
# _framework density 20.419388999999999
#
# number of rings (size 3 to 8) (size 9 to 14) (size 15 to 20)
#    0.000    1.286    2.857    3.857    2.000    0.857 
#    0.000    3.571    0.000    0.857    0.000    7.000 
#    0.000    0.000    0.000    0.000    0.000    0.000 
#
# Total GULP energy -694033.373106 kJ/mol
# GULP energy per Si atom -12393.453091 kJ/mol
# Density = 2.037291 g / cm^3
# Si number density = 20.419389 Si / 1000 Ang^3
#
#
#
# Elastic Constant Matrix: (Units=GPa)
#
#
# Indices 1 2 3 4 5 6 
#
# 1 123.6814 80.4194 26.6688 0.0000 0.0000 0.0000
# 2 80.4194 127.3764 31.8057 0.0000 0.0000 0.0000
# 3 26.6688 31.8057 106.0693 0.0000 0.0000 0.0000
# 4 0.0000 0.0000 0.0000 28.3689 0.0000 0.0000
# 5 0.0000 0.0000 0.0000 0.0000 12.4615 0.0000
# 6 0.0000 0.0000 0.0000 0.0000 0.0000 31.4384
#
#
#
# Elastic Compliance Matrix: (Units=1/GPa)
#
#
# Indices 1 2 3 4 5 6 
#
# 1 0.013800 -0.008481 -0.000926 0.000000 0.000000 0.000000
# 2 -0.008481 0.013698 -0.001975 0.000000 0.000000 0.000000
# 3 -0.000926 -0.001975 0.010253 0.000000 0.000000 0.000000
# 4 0.000000 0.000000 0.000000 0.035250 0.000000 0.000000
# 5 0.000000 0.000000 0.000000 0.000000 0.080247 0.000000
# 6 0.000000 0.000000 0.000000 0.000000 0.000000 0.031808
#
#
# Mechanical properties :
#
#
# Convention : Reuss Voigt Hill
#
# Bulk Modulus (GPa) = 66.73091 70.54610 68.63851
# Shear Modulus (GPa) = 23.49433 29.00262 26.24848
#
# Velocity S-wave (km/s) = 3.39571 3.77284 3.58923
# Velocity P-wave (km/s) = 6.93726 7.32138 7.13191
#
# Compressibility (1/GPa) = 0.01498556
#
# Stress axis : x y z
#
# Youngs Moduli (GPa) = 72.46611 73.00080 97.53213
#
# Poissons Ratio (x) = 0.61912 0.09036
# Poissons Ratio (y) = 0.61459 0.19265
# Poissons Ratio (z) = 0.06714 0.14419
#
# Static dielectric constant tensor:
#      x y z
#    x 3.747230 0.000000 0.000000 
#    y 0.000000 3.656440 0.000000 
#    z 0.000000 0.000000 3.815780 
# 
# 
# High freq. dielectric constant tensor:
#      x y z
#    x 1.774090 0.000000 0.000000 
#    y 0.000000 1.782640 0.000000 
#    z 0.000000 0.000000 1.812900 
# 
# From -- ./inp_files/32485.got.cif
#   From: 2010.03.12/outbox.cif.g09.slc.cpg/sg66_17_cif.got.tgz:32485.got - 2010.04.10 21:57:39.
