data_PCOD8276196
_publ_section_title
;
Structure prediction by ZEFSAII (Michael W. Deem and Ramdas Pophale) SiO2 
 PCOD8276196
Probable space group: C C C M
;
_chemical_formula_sum "Si O2"
_cell_formula_units_Z 56
_cell_length_a 16.554549
_cell_length_b 17.113003
_cell_length_c 9.529117
_cell_angle_alpha 90.000000
_cell_angle_beta 90.000000
_cell_angle_gamma 90.000000
_cell_volume 2699.580233
_symmetry_space_group_name_H-M "C C C M"
_symmetry_group_IT_number 66
_symmetry_cell_setting 'orthorhombic'
loop_
_space_group_symop_operation_xyz
x,y,z
-x,-y,z
x,-y,1/2-z
-x,y,1/2-z
-x,-y,-z
x,y,-z
-x,y,1/2+z
x,-y,1/2+z
1/2+x,1/2+y,z
1/2-x,1/2-y,z
1/2+x,1/2-y,1/2-z
1/2-x,1/2+y,1/2-z
1/2-x,1/2-y,-z
1/2+x,1/2+y,-z
1/2-x,1/2+y,1/2+z
1/2+x,1/2-y,1/2+z
loop_
_atom_site_type_symbol
_atom_site_label
_atom_site_fract_x
_atom_site_fract_y
_atom_site_fract_z
Si Si1 0.343712 0.258606 0.835616
Si Si2 0.698236 0.000000 0.250000
Si Si3 0.924278 0.375949 0.160816
Si Si4 0.645752 0.433637 0.345860
O O1 0.250000 0.250000 0.800250
O O2 0.394597 0.202409 0.736614
O O3 0.371769 0.346078 0.793373
O O4 0.360266 0.241134 0.000000
O O5 0.643787 0.057500 0.157274
O O6 0.756543 0.052482 0.349257
O O7 0.000000 0.407940 0.250000
O O8 0.948728 0.357267 0.000000
O O9 0.603089 0.500000 0.250000
O O10 0.610171 0.444703 0.500000
#
# Coordination Sequence:
#
# PCOD8276196 Si02
#       4
#    16   8  16  16
#     4  10  19  36  60  84 115 153 194 241 290 343
#     4  10  21  36  58  86 117 152 194 232 287 344
#     4  12  26  40  58  84 120 161 199 240 288 350
#     4   9  18  32  56  87 116 147 187 236 287 337
#
# _framework density 20.743964999999999
#
# number of rings (size 3 to 8) (size 9 to 14) (size 15 to 20)
#    0.857    0.857    2.857    2.143    0.000    6.286 
#    0.000    0.000    0.000    0.857    0.000    6.000 
#    0.000    0.000    0.000    0.000    0.000    0.000 
#
# Total GULP energy -347025.017956 kJ/mol
# GULP energy per Si atom -12393.750641 kJ/mol
# Density = 2.069675 g / cm^3
# Si number density = 20.743965 Si / 1000 Ang^3
#
#
#
# Elastic Constant Matrix: (Units=GPa)
#
#
# Indices 1 2 3 4 5 6 
#
# 1 25.3991 2.3052 3.8244 0.0000 0.0000 0.0000
# 2 2.3052 117.3753 41.5238 0.0000 0.0000 0.0000
# 3 3.8244 41.5238 101.5050 0.0000 0.0000 0.0000
# 4 0.0000 0.0000 0.0000 33.6385 0.0000 0.0000
# 5 0.0000 0.0000 0.0000 0.0000 25.1011 0.0000
# 6 0.0000 0.0000 0.0000 0.0000 0.0000 22.4533
#
#
#
# Elastic Compliance Matrix: (Units=1/GPa)
#
#
# Indices 1 2 3 4 5 6 
#
# 1 0.039605 -0.000292 -0.001373 0.000000 0.000000 0.000000
# 2 -0.000292 0.009963 -0.004065 0.000000 0.000000 0.000000
# 3 -0.001373 -0.004065 0.011566 0.000000 0.000000 0.000000
# 4 0.000000 0.000000 0.000000 0.029728 0.000000 0.000000
# 5 0.000000 0.000000 0.000000 0.000000 0.039839 0.000000
# 6 0.000000 0.000000 0.000000 0.000000 0.000000 0.044537
#
#
# Mechanical properties :
#
#
# Convention : Reuss Voigt Hill
#
# Bulk Modulus (GPa) = 20.13087 37.73181 28.93134
# Shear Modulus (GPa) = 24.59954 29.34697 26.97326
#
# Velocity S-wave (km/s) = 3.44737 3.76536 3.60987
# Velocity P-wave (km/s) = 5.05681 6.09366 5.59929
#
# Compressibility (1/GPa) = 0.04967496
#
# Stress axis : x y z
#
# Youngs Moduli (GPa) = 25.24957 100.36691 86.45803
#
# Poissons Ratio (x) = 0.02933 0.11868
# Poissons Ratio (y) = 0.00738 0.35144
# Poissons Ratio (z) = 0.03466 0.40798
#
# Static dielectric constant tensor:
#      x y z
#    x 3.438230 0.000000 0.000000 
#    y 0.000000 3.829250 0.000000 
#    z 0.000000 0.000000 3.484080 
# 
# 
# High freq. dielectric constant tensor:
#      x y z
#    x 1.783360 0.000000 0.000000 
#    y 0.000000 1.827100 0.000000 
#    z 0.000000 0.000000 1.800550 
# 
# From -- ./inp_files/6008.got.cif
#   From: 2010.03.12/outbox.cif.g09.slc.cpg/sg66_4_cif.got.tgz:6008.got - 2010.04.10 21:57:39.
