data_PCOD8276680
_publ_section_title
;
Structure prediction by ZEFSAII (Michael W. Deem and Ramdas Pophale) SiO2 
 PCOD8276680
Probable space group: C C C M
;
_chemical_formula_sum "Si O2"
_cell_formula_units_Z 64
_cell_length_a 17.588011
_cell_length_b 10.990764
_cell_length_c 15.183583
_cell_angle_alpha 90.000000
_cell_angle_beta 90.000000
_cell_angle_gamma 90.000000
_cell_volume 2935.072808
_symmetry_space_group_name_H-M "C C C M"
_symmetry_group_IT_number 66
_symmetry_cell_setting 'orthorhombic'
loop_
_space_group_symop_operation_xyz
x,y,z
-x,-y,z
x,-y,1/2-z
-x,y,1/2-z
-x,-y,-z
x,y,-z
-x,y,1/2+z
x,-y,1/2+z
1/2+x,1/2+y,z
1/2-x,1/2-y,z
1/2+x,1/2-y,1/2-z
1/2-x,1/2+y,1/2-z
1/2-x,1/2-y,-z
1/2+x,1/2+y,-z
1/2-x,1/2+y,1/2+z
1/2+x,1/2-y,1/2+z
loop_
_atom_site_type_symbol
_atom_site_label
_atom_site_fract_x
_atom_site_fract_y
_atom_site_fract_z
Si Si1 0.164610 0.090627 0.000000
Si Si2 0.868868 0.930538 0.663906
Si Si3 0.840380 0.377055 0.500000
Si Si4 0.500000 0.297288 0.250000
Si Si5 0.750000 0.750000 0.283978
Si Si6 0.619980 0.111807 0.689758
O O1 0.144855 0.232543 0.000000
O O2 0.254424 0.078401 0.000000
O O3 0.128439 0.024151 0.916017
O O4 0.953820 0.878762 0.679569
O O5 0.807025 0.822705 0.650922
O O6 0.840258 0.000000 0.750000
O O7 0.877185 0.432991 0.588430
O O8 0.558290 0.217707 0.305891
O O9 0.702248 0.838274 0.219559
O O10 0.593819 0.000000 0.750000
#
# Coordination Sequence:
#
# PCOD8276680 Si02
#       6
#     8  16   8   8   8  16
#     4  11  22  38  65  97 128 163 207 261 316 368
#     4  11  22  39  61  89 126 165 209 264 317 368
#     4  11  22  37  64  99 125 160 212 256 311 381
#     4  10  24  42  60  88 128 172 214 252 310 380
#     4  10  20  36  62  90 122 164 210 260 316 380
#     4  11  22  41  64  89 127 168 209 261 316 372
#
# _framework density 21.805250999999998
#
# number of rings (size 3 to 8) (size 9 to 14) (size 15 to 20)
#    0.000    1.250    0.000    9.000    0.000    1.500 
#    0.000   11.250    0.000    0.000    0.000    0.000 
#    0.000    0.000    0.000    0.000    0.000    0.000 
#
# Total GULP energy -396854.777552 kJ/mol
# GULP energy per Si atom -12401.711799 kJ/mol
# Density = 2.175562 g / cm^3
# Si number density = 21.805251 Si / 1000 Ang^3
#
#
#
# Elastic Constant Matrix: (Units=GPa)
#
#
# Indices 1 2 3 4 5 6 
#
# 1 119.4525 48.2208 34.0701 0.0000 0.0000 0.0000
# 2 48.2208 102.4438 53.6212 0.0000 0.0000 0.0000
# 3 34.0701 53.6212 158.4974 0.0000 0.0000 0.0000
# 4 0.0000 0.0000 0.0000 39.8390 0.0000 0.0000
# 5 0.0000 0.0000 0.0000 0.0000 14.4717 0.0000
# 6 0.0000 0.0000 0.0000 0.0000 0.0000 36.1524
#
#
#
# Elastic Compliance Matrix: (Units=1/GPa)
#
#
# Indices 1 2 3 4 5 6 
#
# 1 0.010400 -0.004527 -0.000704 0.000000 0.000000 0.000000
# 2 -0.004527 0.013832 -0.003707 0.000000 0.000000 0.000000
# 3 -0.000704 -0.003707 0.007715 0.000000 0.000000 0.000000
# 4 0.000000 0.000000 0.000000 0.025101 0.000000 0.000000
# 5 0.000000 0.000000 0.000000 0.000000 0.069100 0.000000
# 6 0.000000 0.000000 0.000000 0.000000 0.000000 0.027661
#
#
# Mechanical properties :
#
#
# Convention : Reuss Voigt Hill
#
# Bulk Modulus (GPa) = 71.06343 72.46866 71.76604
# Shear Modulus (GPa) = 28.34889 34.39139 31.37014
#
# Velocity S-wave (km/s) = 3.60959 3.97572 3.79707
# Velocity P-wave (km/s) = 7.07340 7.37440 7.22547
#
# Compressibility (1/GPa) = 0.01407194
#
# Stress axis : x y z
#
# Youngs Moduli (GPa) = 96.15690 72.29486 129.62502
#
# Poissons Ratio (x) = 0.32725 0.09127
# Poissons Ratio (y) = 0.43527 0.48046
# Poissons Ratio (z) = 0.06770 0.26796
#
# Static dielectric constant tensor:
#      x y z
#    x 4.013380 0.000000 0.000000 
#    y 0.000000 4.134560 0.000000 
#    z 0.000000 0.000000 3.645950 
# 
# 
# High freq. dielectric constant tensor:
#      x y z
#    x 1.863860 0.000000 0.000000 
#    y 0.000000 1.862990 0.000000 
#    z 0.000000 0.000000 1.838190 
# 
# From -- ./inp_files/25884.got.cif
#   From: 2010.03.12/outbox.cif.g09.slc.cpg/sg66_13_cif.got.tgz:25884.got - 2010.04.10 21:57:39.
