data_PCOD8276482
_publ_section_title
;
Structure prediction by ZEFSAII (Michael W. Deem and Ramdas Pophale) SiO2 
 PCOD8276482
Probable space group: C C C M
;
_chemical_formula_sum "Si O2"
_cell_formula_units_Z 96
_cell_length_a 29.002034
_cell_length_b 20.387853
_cell_length_c 8.604232
_cell_angle_alpha 90.000000
_cell_angle_beta 90.000000
_cell_angle_gamma 90.000000
_cell_volume 5087.589507
_symmetry_space_group_name_H-M "C C C M"
_symmetry_group_IT_number 66
_symmetry_cell_setting 'orthorhombic'
loop_
_space_group_symop_operation_xyz
x,y,z
-x,-y,z
x,-y,1/2-z
-x,y,1/2-z
-x,-y,-z
x,y,-z
-x,y,1/2+z
x,-y,1/2+z
1/2+x,1/2+y,z
1/2-x,1/2-y,z
1/2+x,1/2-y,1/2-z
1/2-x,1/2+y,1/2-z
1/2-x,1/2-y,-z
1/2+x,1/2+y,-z
1/2-x,1/2+y,1/2+z
1/2+x,1/2-y,1/2+z
loop_
_atom_site_type_symbol
_atom_site_label
_atom_site_fract_x
_atom_site_fract_y
_atom_site_fract_z
Si Si1 0.403398 0.692763 0.682426
Si Si2 0.125290 0.573075 0.814267
Si Si3 0.209727 0.659094 0.183095
Si Si4 0.449837 0.563799 0.683877
Si Si5 0.692616 0.306296 0.816184
Si Si6 0.051872 0.672501 0.314172
O O1 0.407337 0.697720 0.500000
O O2 0.432399 0.632743 0.750853
O O3 0.352370 0.670402 0.728679
O O4 0.422764 0.761517 0.750399
O O5 0.124097 0.500000 0.750000
O O6 0.172694 0.607074 0.749331
O O7 0.080715 0.611090 0.750141
O O8 0.123537 0.572555 0.000000
O O9 0.263480 0.647626 0.231932
O O10 0.198567 0.731760 0.241750
O O11 0.205713 0.656387 0.000000
O O12 0.421861 0.500000 0.750000
O O13 0.500000 0.557218 0.750000
O O14 0.447991 0.562583 0.500000
O O15 0.685375 0.308524 0.000000
O O16 0.050501 0.669878 0.500000
O O17 0.000000 0.669458 0.250000
#
# Coordination Sequence:
#
# PCOD8276482 Si02
#       6
#    16  16  16  16  16  16
#     4  10  21  35  53  83 117 144 178 229 281 327
#     4  11  22  39  60  83 113 150 189 234 285 338
#     4   8  16  32  55  82 108 138 180 222 263 320
#     4  10  20  35  53  75 105 142 182 223 267 324
#     4   9  16  31  57  83 107 140 180 220 265 322
#     4  11  23  39  58  83 113 146 188 237 287 338
#
# _framework density 18.869447000000001
#
# number of rings (size 3 to 8) (size 9 to 14) (size 15 to 20)
#    0.000    2.167    1.667    3.500    0.000    2.333 
#    0.000    5.833    0.000    4.000    0.000    0.000 
#    0.000    0.000    0.000    0.000    0.000    0.000 
#
# Total GULP energy -594697.369870 kJ/mol
# GULP energy per Si atom -12389.528539 kJ/mol
# Density = 1.882650 g / cm^3
# Si number density = 18.869447 Si / 1000 Ang^3
#
#
#
# Elastic Constant Matrix: (Units=GPa)
#
#
# Indices 1 2 3 4 5 6 
#
# 1 144.6243 71.4216 22.5440 0.0000 0.0000 0.0000
# 2 71.4216 135.4363 33.9147 0.0000 0.0000 0.0000
# 3 22.5440 33.9147 34.2611 0.0000 0.0000 0.0000
# 4 0.0000 0.0000 0.0000 24.8743 0.0000 0.0000
# 5 0.0000 0.0000 0.0000 0.0000 21.3858 0.0000
# 6 0.0000 0.0000 0.0000 0.0000 0.0000 31.1984
#
#
#
# Elastic Compliance Matrix: (Units=1/GPa)
#
#
# Indices 1 2 3 4 5 6 
#
# 1 0.009423 -0.004543 -0.001704 0.000000 0.000000 0.000000
# 2 -0.004543 0.012007 -0.008896 0.000000 0.000000 0.000000
# 3 -0.001704 -0.008896 0.039115 0.000000 0.000000 0.000000
# 4 0.000000 0.000000 0.000000 0.040202 0.000000 0.000000
# 5 0.000000 0.000000 0.000000 0.000000 0.046760 0.000000
# 6 0.000000 0.000000 0.000000 0.000000 0.000000 0.032053
#
#
# Mechanical properties :
#
#
# Convention : Reuss Voigt Hill
#
# Bulk Modulus (GPa) = 33.04734 63.34248 48.19491
# Shear Modulus (GPa) = 22.73419 27.92112 25.32765
#
# Velocity S-wave (km/s) = 3.47481 3.85086 3.66766
# Velocity P-wave (km/s) = 5.80093 7.30848 6.59790
#
# Compressibility (1/GPa) = 0.03025963
#
# Stress axis : x y z
#
# Youngs Moduli (GPa) = 106.11805 83.28562 25.56550
#
# Poissons Ratio (x) = 0.37835 0.04356
# Poissons Ratio (y) = 0.48207 0.22744
# Poissons Ratio (z) = 0.18081 0.74094
#
# Static dielectric constant tensor:
#      x y z
#    x 3.615450 0.000000 0.000000 
#    y 0.000000 3.778610 0.000000 
#    z 0.000000 0.000000 3.267460 
# 
# 
# High freq. dielectric constant tensor:
#      x y z
#    x 1.740360 0.000000 0.000000 
#    y 0.000000 1.729450 0.000000 
#    z 0.000000 0.000000 1.717490 
# 
# From -- ./inp_files/10241.got.cif
#   From: 2010.03.12/outbox.cif.g09.slc.cpg/sg66_6_cif.got.tgz:10241.got - 2010.04.10 21:57:39.
