data_PCOD8276299
_publ_section_title
;
Structure prediction by ZEFSAII (Michael W. Deem and Ramdas Pophale) SiO2 
 PCOD8276299
Probable space group: C C C M
;
_chemical_formula_sum "Si O2"
_cell_formula_units_Z 88
_cell_length_a 20.621395
_cell_length_b 21.806869
_cell_length_c 9.320934
_cell_angle_alpha 90.000000
_cell_angle_beta 90.000000
_cell_angle_gamma 90.000000
_cell_volume 4191.512722
_symmetry_space_group_name_H-M "C C C M"
_symmetry_group_IT_number 66
_symmetry_cell_setting 'orthorhombic'
loop_
_space_group_symop_operation_xyz
x,y,z
-x,-y,z
x,-y,1/2-z
-x,y,1/2-z
-x,-y,-z
x,y,-z
-x,y,1/2+z
x,-y,1/2+z
1/2+x,1/2+y,z
1/2-x,1/2-y,z
1/2+x,1/2-y,1/2-z
1/2-x,1/2+y,1/2-z
1/2-x,1/2-y,-z
1/2+x,1/2+y,-z
1/2-x,1/2+y,1/2+z
1/2+x,1/2-y,1/2+z
loop_
_atom_site_type_symbol
_atom_site_label
_atom_site_fract_x
_atom_site_fract_y
_atom_site_fract_z
Si Si1 0.700838 0.363357 0.169200
Si Si2 0.067255 0.655257 0.167448
Si Si3 0.413980 0.554533 0.845633
Si Si4 0.120215 0.767268 0.334950
Si Si5 0.500000 0.656062 0.750000
Si Si6 0.676062 0.937642 0.336311
O O1 0.654538 0.420249 0.211369
O O2 0.679545 0.304878 0.263690
O O3 0.772592 0.385436 0.213081
O O4 0.694761 0.346682 0.000000
O O5 0.112031 0.706460 0.240721
O O6 0.104473 0.590634 0.181784
O O7 0.000000 0.648544 0.250000
O O8 0.055268 0.672144 0.000000
O O9 0.441595 0.500000 0.750000
O O10 0.463050 0.611688 0.860502
O O11 0.404936 0.524335 0.000000
O O12 0.137752 0.751990 0.500000
O O13 0.051621 0.802800 0.334559
O O14 0.690855 0.954850 0.500000
O O15 0.682359 0.000000 0.250000
#
# Coordination Sequence:
#
# PCOD8276299 Si02
#       6
#    16  16  16  16   8  16
#     4   9  20  39  60  85 121 162 202 246 304 364
#     4  11  24  42  65  93 125 161 204 255 316 376
#     4  10  20  32  49  75 109 151 196 243 289 345
#     4  11  22  37  61  90 121 160 207 253 305 365
#     4  10  21  34  52  76 113 154 202 244 302 352
#     4  10  23  43  67  93 123 163 206 256 313 374
#
# _framework density 20.994807000000002
#
# number of rings (size 3 to 8) (size 9 to 14) (size 15 to 20)
#    0.000    1.818    0.909    2.455    0.000    9.091 
#    0.000    5.455    0.000    0.000    0.000    0.000 
#    0.000    0.000    0.000    0.000    0.000    0.000 
#
# Total GULP energy -545494.869835 kJ/mol
# GULP energy per Si atom -12397.610678 kJ/mol
# Density = 2.094702 g / cm^3
# Si number density = 20.994807 Si / 1000 Ang^3
#
#
#
# Elastic Constant Matrix: (Units=GPa)
#
#
# Indices 1 2 3 4 5 6 
#
# 1 92.7737 49.0728 50.8637 0.0000 0.0000 0.0000
# 2 49.0728 75.1573 52.3216 0.0000 0.0000 0.0000
# 3 50.8637 52.3216 128.7314 0.0000 0.0000 0.0000
# 4 0.0000 0.0000 0.0000 32.1221 0.0000 0.0000
# 5 0.0000 0.0000 0.0000 0.0000 28.3235 0.0000
# 6 0.0000 0.0000 0.0000 0.0000 0.0000 21.5626
#
#
#
# Elastic Compliance Matrix: (Units=1/GPa)
#
#
# Indices 1 2 3 4 5 6 
#
# 1 0.017328 -0.009131 -0.003135 0.000000 0.000000 0.000000
# 2 -0.009131 0.023368 -0.005890 0.000000 0.000000 0.000000
# 3 -0.003135 -0.005890 0.011401 0.000000 0.000000 0.000000
# 4 0.000000 0.000000 0.000000 0.031131 0.000000 0.000000
# 5 0.000000 0.000000 0.000000 0.000000 0.035306 0.000000
# 6 0.000000 0.000000 0.000000 0.000000 0.000000 0.046377
#
#
# Mechanical properties :
#
#
# Convention : Reuss Voigt Hill
#
# Bulk Modulus (GPa) = 63.35562 66.79761 65.07662
# Shear Modulus (GPa) = 24.21493 26.02858 25.12175
#
# Velocity S-wave (km/s) = 3.39983 3.52485 3.46290
# Velocity P-wave (km/s) = 6.75678 6.96070 6.85950
#
# Compressibility (1/GPa) = 0.01578392
#
# Stress axis : x y z
#
# Youngs Moduli (GPa) = 57.71073 42.79396 87.71438
#
# Poissons Ratio (x) = 0.39077 0.27499
# Poissons Ratio (y) = 0.52698 0.51661
# Poissons Ratio (z) = 0.18093 0.25204
#
# Static dielectric constant tensor:
#      x y z
#    x 3.841220 0.000000 0.000000 
#    y 0.000000 3.620730 0.000000 
#    z 0.000000 0.000000 3.692060 
# 
# 
# High freq. dielectric constant tensor:
#      x y z
#    x 1.826520 0.000000 0.000000 
#    y 0.000000 1.814150 0.000000 
#    z 0.000000 0.000000 1.817410 
# 
# From -- ./inp_files/8987.got.cif
#   From: 2010.03.12/outbox.cif.g09.slc.cpg/sg66_5_cif.got.tgz:8987.got - 2010.04.10 21:57:39.
