data_PCOD8276122
_publ_section_title
;
Structure prediction by ZEFSAII (Michael W. Deem and Ramdas Pophale) SiO2 
 PCOD8276122
Probable space group: C C C M
;
_chemical_formula_sum "Si O2"
_cell_formula_units_Z 104
_cell_length_a 27.057545
_cell_length_b 21.191223
_cell_length_c 9.652255
_cell_angle_alpha 90.000000
_cell_angle_beta 90.000000
_cell_angle_gamma 90.000000
_cell_volume 5534.433812
_symmetry_space_group_name_H-M "C C C M"
_symmetry_group_IT_number 66
_symmetry_cell_setting 'orthorhombic'
loop_
_space_group_symop_operation_xyz
x,y,z
-x,-y,z
x,-y,1/2-z
-x,y,1/2-z
-x,-y,-z
x,y,-z
-x,y,1/2+z
x,-y,1/2+z
1/2+x,1/2+y,z
1/2-x,1/2-y,z
1/2+x,1/2-y,1/2-z
1/2-x,1/2+y,1/2-z
1/2-x,1/2-y,-z
1/2+x,1/2+y,-z
1/2-x,1/2+y,1/2+z
1/2+x,1/2-y,1/2+z
loop_
_atom_site_type_symbol
_atom_site_label
_atom_site_fract_x
_atom_site_fract_y
_atom_site_fract_z
Si Si1 0.307524 0.692366 0.158083
Si Si2 0.727812 0.500000 0.750000
Si Si3 0.544938 0.249746 0.341400
Si Si4 0.651230 0.802662 0.163088
Si Si5 0.043347 0.895552 0.655367
Si Si6 0.289224 0.117193 0.346879
Si Si7 0.150646 0.910393 0.651635
O O1 0.316446 0.750729 0.258463
O O2 0.249881 0.674670 0.159631
O O3 0.337794 0.633851 0.219272
O O4 0.325209 0.705915 0.000000
O O5 0.762880 0.550370 0.676219
O O6 0.690451 0.466798 0.641496
O O7 0.500000 0.222912 0.250000
O O8 0.529280 0.241836 0.500000
O O9 0.593484 0.208658 0.308496
O O10 0.555567 0.322767 0.304807
O O11 0.668400 0.869441 0.231387
O O12 0.663528 0.802478 0.000000
O O13 0.023075 0.900254 0.500000
O O14 0.094301 0.934686 0.674418
O O15 0.000000 0.924099 0.750000
O O16 0.313331 0.115865 0.500000
O O17 0.152341 0.875468 0.500000
#
# Coordination Sequence:
#
# PCOD8276122 Si02
#       7
#    16   8  16  16  16  16  16
#     4  10  20  33  51  77 109 140 174 218 265 316
#     4  10  22  38  59  76  99 138 184 226 270 314
#     4   9  18  32  50  77 110 140 173 209 253 316
#     4  11  21  34  53  80 110 141 176 213 261 320
#     4   9  17  31  50  74 103 135 175 219 263 313
#     4  10  22  37  52  76 106 137 179 225 266 316
#     4  10  19  35  56  75 102 140 181 225 267 315
#
# _framework density 18.791443000000001
#
# number of rings (size 3 to 8) (size 9 to 14) (size 15 to 20)
#    0.000    2.154    1.538    1.846    0.000    8.000 
#    0.000    0.385    0.000    1.846    0.000    0.538 
#    0.000    3.692    0.000    0.000    0.000    0.000 
#
# Total GULP energy -644483.270252 kJ/mol
# GULP energy per Si atom -12393.909043 kJ/mol
# Density = 1.874867 g / cm^3
# Si number density = 18.791443 Si / 1000 Ang^3
#
#
#
# Elastic Constant Matrix: (Units=GPa)
#
#
# Indices 1 2 3 4 5 6 
#
# 1 79.9817 41.2017 57.0972 0.0000 0.0000 0.0000
# 2 41.2017 59.9349 39.5580 0.0000 0.0000 0.0000
# 3 57.0972 39.5580 134.4645 0.0000 0.0000 0.0000
# 4 0.0000 0.0000 0.0000 12.3942 0.0000 0.0000
# 5 0.0000 0.0000 0.0000 0.0000 32.1576 0.0000
# 6 0.0000 0.0000 0.0000 0.0000 0.0000 21.1185
#
#
#
# Elastic Compliance Matrix: (Units=1/GPa)
#
#
# Indices 1 2 3 4 5 6 
#
# 1 0.023039 -0.011641 -0.006358 0.000000 0.000000 0.000000
# 2 -0.011641 0.026587 -0.002879 0.000000 0.000000 0.000000
# 3 -0.006358 -0.002879 0.010984 0.000000 0.000000 0.000000
# 4 0.000000 0.000000 0.000000 0.080683 0.000000 0.000000
# 5 0.000000 0.000000 0.000000 0.000000 0.031097 0.000000
# 6 0.000000 0.000000 0.000000 0.000000 0.000000 0.047352
#
#
# Mechanical properties :
#
#
# Convention : Reuss Voigt Hill
#
# Bulk Modulus (GPa) = 53.03975 61.12167 57.08071
# Shear Modulus (GPa) = 18.67195 22.23567 20.45381
#
# Velocity S-wave (km/s) = 3.15563 3.44363 3.30277
# Velocity P-wave (km/s) = 6.44702 6.95761 6.70718
#
# Compressibility (1/GPa) = 0.01885378
#
# Stress axis : x y z
#
# Youngs Moduli (GPa) = 43.40535 37.61189 91.04524
#
# Poissons Ratio (x) = 0.43785 0.57887
# Poissons Ratio (y) = 0.50529 0.26208
# Poissons Ratio (z) = 0.27597 0.10827
#
# Static dielectric constant tensor:
#      x y z
#    x 3.443790 0.000000 0.000000 
#    y 0.000000 3.254160 0.000000 
#    z 0.000000 0.000000 3.601560 
# 
# 
# High freq. dielectric constant tensor:
#      x y z
#    x 1.719630 0.000000 0.000000 
#    y 0.000000 1.690380 0.000000 
#    z 0.000000 0.000000 1.742250 
# 
# From -- ./inp_files/10561.got.cif
#   From: 2010.03.12/outbox.cif.g09.slc.cpg/sg66_6_cif.got.tgz:10561.got - 2010.04.10 21:57:39.
