data_PCOD8276336
_publ_section_title
;
Structure prediction by ZEFSAII (Michael W. Deem and Ramdas Pophale) SiO2 
 PCOD8276336
Probable space group: C C C M
;
_chemical_formula_sum "Si O2"
_cell_formula_units_Z 80
_cell_length_a 4.890928
_cell_length_b 22.835852
_cell_length_c 35.754094
_cell_angle_alpha 90.000000
_cell_angle_beta 90.000000
_cell_angle_gamma 90.000000
_cell_volume 3993.321412
_symmetry_space_group_name_H-M "C C C M"
_symmetry_group_IT_number 66
_symmetry_cell_setting 'orthorhombic'
loop_
_space_group_symop_operation_xyz
x,y,z
-x,-y,z
x,-y,1/2-z
-x,y,1/2-z
-x,-y,-z
x,y,-z
-x,y,1/2+z
x,-y,1/2+z
1/2+x,1/2+y,z
1/2-x,1/2-y,z
1/2+x,1/2-y,1/2-z
1/2-x,1/2+y,1/2-z
1/2-x,1/2-y,-z
1/2+x,1/2+y,-z
1/2-x,1/2+y,1/2+z
1/2+x,1/2-y,1/2+z
loop_
_atom_site_type_symbol
_atom_site_label
_atom_site_fract_x
_atom_site_fract_y
_atom_site_fract_z
Si Si1 0.900213 0.434686 0.136387
Si Si2 0.990124 0.790327 0.458185
Si Si3 0.085332 0.130946 0.109225
Si Si4 0.550408 0.868933 0.292337
Si Si5 0.557825 0.694422 0.818868
O O1 0.610920 0.424834 0.116026
O O2 0.848168 0.421268 0.180648
O O3 0.000000 0.500000 0.130410
O O4 0.105445 0.388860 0.116794
O O5 0.914996 0.812803 0.500000
O O6 0.750000 0.750000 0.441451
O O7 0.250000 0.750000 0.459403
O O8 0.047163 0.847017 0.432906
O O9 0.004575 0.185633 0.136810
O O10 0.500000 0.888904 0.250000
O O11 0.242134 0.858954 0.305655
O O12 0.761898 0.812490 0.297301
O O13 0.750000 0.750000 0.809232
#
# Coordination Sequence:
#
# PCOD8276336 Si02
#       5
#    16  16  16  16  16
#     4  10  21  37  57  78 102 139 183 228 273 309
#     4  10  20  34  56  86 116 144 172 208 259 314
#     4  10  20  35  56  80 108 139 178 221 259 315
#     4  10  21  35  51  75 103 133 176 222 266 316
#     4  10  20  33  51  74 103 140 173 207 258 320
#
# _framework density 20.033449000000001
#
# number of rings (size 3 to 8) (size 9 to 14) (size 15 to 20)
#    0.000    2.000    0.000    3.600    0.000    5.200 
#    0.000    0.000    0.000   12.000    0.000    0.000 
#    0.000    0.000    0.000    0.000    0.000    0.000 
#
# Total GULP energy -495605.970794 kJ/mol
# GULP energy per Si atom -12390.149270 kJ/mol
# Density = 1.998785 g / cm^3
# Si number density = 20.033449 Si / 1000 Ang^3
#
#
#
# Elastic Constant Matrix: (Units=GPa)
#
#
# Indices 1 2 3 4 5 6 
#
# 1 99.1173 2.3464 14.7135 0.0000 0.0000 0.0000
# 2 2.3464 57.1400 34.0469 0.0000 0.0000 0.0000
# 3 14.7135 34.0469 110.8204 0.0000 0.0000 0.0000
# 4 0.0000 0.0000 0.0000 16.8114 0.0000 0.0000
# 5 0.0000 0.0000 0.0000 0.0000 26.3198 0.0000
# 6 0.0000 0.0000 0.0000 0.0000 0.0000 29.5131
#
#
#
# Elastic Compliance Matrix: (Units=1/GPa)
#
#
# Indices 1 2 3 4 5 6 
#
# 1 0.010303 0.000480 -0.001515 0.000000 0.000000 0.000000
# 2 0.000480 0.021445 -0.006652 0.000000 0.000000 0.000000
# 3 -0.001515 -0.006652 0.011269 0.000000 0.000000 0.000000
# 4 0.000000 0.000000 0.000000 0.059484 0.000000 0.000000
# 5 0.000000 0.000000 0.000000 0.000000 0.037994 0.000000
# 6 0.000000 0.000000 0.000000 0.000000 0.000000 0.033883
#
#
# Mechanical properties :
#
#
# Convention : Reuss Voigt Hill
#
# Bulk Modulus (GPa) = 36.17840 41.03236 38.60538
# Shear Modulus (GPa) = 25.12994 28.92690 27.02842
#
# Velocity S-wave (km/s) = 3.54559 3.80403 3.67708
# Velocity P-wave (km/s) = 5.90422 6.31036 6.11066
#
# Compressibility (1/GPa) = 0.02764080
#
# Stress axis : x y z
#
# Youngs Moduli (GPa) = 97.06254 46.63125 88.74295
#
# Poissons Ratio (x) = -0.02237 0.13447
# Poissons Ratio (y) = -0.04657 0.59033
# Poissons Ratio (z) = 0.14708 0.31020
#
# Static dielectric constant tensor:
#      x y z
#    x 3.951090 0.000000 0.000000 
#    y 0.000000 3.179780 0.000000 
#    z 0.000000 0.000000 3.801570 
# 
# 
# High freq. dielectric constant tensor:
#      x y z
#    x 1.810960 0.000000 0.000000 
#    y 0.000000 1.738530 0.000000 
#    z 0.000000 0.000000 1.768850 
# 
# From -- ./inp_files/67192.got.cif
#   From: 2010.03.12/outbox.cif.g09.slc.cpg/sg66_34_cif.got.tgz:67192.got - 2010.04.10 21:57:39.
