data_PCOD8276201
_publ_section_title
;
Structure prediction by ZEFSAII (Michael W. Deem and Ramdas Pophale) SiO2 
 PCOD8276201
Probable space group: C C C M
;
_chemical_formula_sum "Si O2"
_cell_formula_units_Z 88
_cell_length_a 23.086400
_cell_length_b 11.840912
_cell_length_c 15.710279
_cell_angle_alpha 90.000000
_cell_angle_beta 90.000000
_cell_angle_gamma 90.000000
_cell_volume 4294.625192
_symmetry_space_group_name_H-M "C C C M"
_symmetry_group_IT_number 66
_symmetry_cell_setting 'orthorhombic'
loop_
_space_group_symop_operation_xyz
x,y,z
-x,-y,z
x,-y,1/2-z
-x,y,1/2-z
-x,-y,-z
x,y,-z
-x,y,1/2+z
x,-y,1/2+z
1/2+x,1/2+y,z
1/2-x,1/2-y,z
1/2+x,1/2-y,1/2-z
1/2-x,1/2+y,1/2-z
1/2-x,1/2-y,-z
1/2+x,1/2+y,-z
1/2-x,1/2+y,1/2+z
1/2+x,1/2-y,1/2+z
loop_
_atom_site_type_symbol
_atom_site_label
_atom_site_fract_x
_atom_site_fract_y
_atom_site_fract_z
Si Si1 0.891822 0.425649 0.166749
Si Si2 0.869981 0.000000 0.750000
Si Si3 0.127112 0.351939 0.095638
Si Si4 0.183562 0.757414 0.750073
Si Si5 0.944264 0.928994 0.406625
Si Si6 0.502931 0.805301 0.399378
O O1 0.890710 0.500000 0.250000
O O2 0.865923 0.511190 0.095463
O O3 0.853634 0.311935 0.179063
O O4 0.958152 0.401758 0.142758
O O5 0.831139 0.888997 0.751474
O O6 0.906849 0.994758 0.663312
O O7 0.174282 0.293663 0.156046
O O8 0.063388 0.315715 0.132037
O O9 0.136614 0.306931 0.000000
O O10 0.250000 0.750000 0.776771
O O11 0.912326 0.915576 0.500000
O O12 0.966603 0.810194 0.369660
O O13 0.000000 0.000000 0.426091
O O14 0.504236 0.819424 0.500000
#
# Coordination Sequence:
#
# PCOD8276201 Si02
#       6
#    16   8  16  16  16  16
#     4  10  21  38  60  90 124 157 204 250 308 372
#     4  12  23  42  68  88 124 173 216 258 320 370
#     4  10  22  39  64  94 127 160 198 256 316 379
#     4  11  26  42  64  87 119 164 220 267 310 365
#     4  10  21  37  60  93 131 164 202 251 307 385
#     4  10  19  36  60  92 127 157 194 244 312 384
#
# _framework density 20.490728000000001
#
# number of rings (size 3 to 8) (size 9 to 14) (size 15 to 20)
#    0.000    1.636    1.818    2.455    3.818    9.091 
#    0.000    0.000    0.000    2.727    0.000    0.000 
#    0.000    0.000    0.000    0.000    0.000    0.000 
#
# Total GULP energy -545386.582257 kJ/mol
# GULP energy per Si atom -12395.149597 kJ/mol
# Density = 2.044409 g / cm^3
# Si number density = 20.490728 Si / 1000 Ang^3
#
#
#
# Elastic Constant Matrix: (Units=GPa)
#
#
# Indices 1 2 3 4 5 6 
#
# 1 83.4859 30.1378 23.1157 0.0000 0.0000 0.0000
# 2 30.1378 122.6585 14.2962 0.0000 0.0000 0.0000
# 3 23.1157 14.2962 60.9665 0.0000 0.0000 0.0000
# 4 0.0000 0.0000 0.0000 22.1836 0.0000 0.0000
# 5 0.0000 0.0000 0.0000 0.0000 9.5038 0.0000
# 6 0.0000 0.0000 0.0000 0.0000 0.0000 21.5402
#
#
#
# Elastic Compliance Matrix: (Units=1/GPa)
#
#
# Indices 1 2 3 4 5 6 
#
# 1 0.014368 -0.002977 -0.004750 0.000000 0.000000 0.000000
# 2 -0.002977 0.008998 -0.000981 0.000000 0.000000 0.000000
# 3 -0.004750 -0.000981 0.018433 0.000000 0.000000 0.000000
# 4 0.000000 0.000000 0.000000 0.045078 0.000000 0.000000
# 5 0.000000 0.000000 0.000000 0.000000 0.105222 0.000000
# 6 0.000000 0.000000 0.000000 0.000000 0.000000 0.046425
#
#
# Mechanical properties :
#
#
# Convention : Reuss Voigt Hill
#
# Bulk Modulus (GPa) = 41.01012 44.69004 42.85008
# Shear Modulus (GPa) = 18.93454 23.94959 21.44207
#
# Velocity S-wave (km/s) = 3.04312 3.42248 3.23836
# Velocity P-wave (km/s) = 5.69253 6.12169 5.91101
#
# Compressibility (1/GPa) = 0.02438422
#
# Stress axis : x y z
#
# Youngs Moduli (GPa) = 69.60062 111.12977 54.24934
#
# Poissons Ratio (x) = 0.33079 0.25766
# Poissons Ratio (y) = 0.20718 0.05324
# Poissons Ratio (z) = 0.33057 0.10907
#
# Static dielectric constant tensor:
#      x y z
#    x 3.438570 0.000000 0.000000 
#    y 0.000000 5.158510 0.000000 
#    z 0.000000 0.000000 4.138510 
# 
# 
# High freq. dielectric constant tensor:
#      x y z
#    x 1.767330 0.000000 0.000000 
#    y 0.000000 1.821080 0.000000 
#    z 0.000000 0.000000 1.802260 
# 
# From -- ./inp_files/42772.got.cif
#   From: 2010.03.12/outbox.cif.g09.slc.cpg/sg66_22_cif.got.tgz:42772.got - 2010.04.10 21:57:39.
