data_PCOD8276969
_publ_section_title
;
Structure prediction by ZEFSAII (Michael W. Deem and Ramdas Pophale) SiO2 
 PCOD8276969
Probable space group: C C C M
;
_chemical_formula_sum "Si O2"
_cell_formula_units_Z 116
_cell_length_a 12.335945
_cell_length_b 26.085678
_cell_length_c 17.623042
_cell_angle_alpha 90.000000
_cell_angle_beta 90.000000
_cell_angle_gamma 90.000000
_cell_volume 5670.944928
_symmetry_space_group_name_H-M "C C C M"
_symmetry_group_IT_number 66
_symmetry_cell_setting 'orthorhombic'
loop_
_space_group_symop_operation_xyz
x,y,z
-x,-y,z
x,-y,1/2-z
-x,y,1/2-z
-x,-y,-z
x,y,-z
-x,y,1/2+z
x,-y,1/2+z
1/2+x,1/2+y,z
1/2-x,1/2-y,z
1/2+x,1/2-y,1/2-z
1/2-x,1/2+y,1/2-z
1/2-x,1/2-y,-z
1/2+x,1/2+y,-z
1/2-x,1/2+y,1/2+z
1/2+x,1/2-y,1/2+z
loop_
_atom_site_type_symbol
_atom_site_label
_atom_site_fract_x
_atom_site_fract_y
_atom_site_fract_z
Si Si1 0.543374 0.207286 0.330043
Si Si2 0.537680 0.688875 0.088536
Si Si3 0.352395 0.051965 0.869223
Si Si4 0.264319 0.348150 0.822794
Si Si5 0.594264 0.614850 0.692516
Si Si6 0.244247 0.051692 0.412652
Si Si7 0.500000 0.000000 0.750000
Si Si8 0.956119 0.386108 0.917038
O O1 0.500000 0.227599 0.250000
O O2 0.524511 0.251469 0.391178
O O3 0.668628 0.192983 0.320055
O O4 0.476873 0.157350 0.355214
O O5 0.657088 0.671327 0.111338
O O6 0.449721 0.654259 0.130698
O O7 0.519332 0.681466 0.000000
O O8 0.268696 0.094952 0.844961
O O9 0.442565 0.074700 0.926289
O O10 0.278994 0.007439 0.905065
O O11 0.420690 0.035892 0.796571
O O12 0.320537 0.351686 0.740725
O O13 0.500000 0.594038 0.750000
O O14 0.649131 0.567281 0.646612
O O15 0.207497 0.061128 0.500000
O O16 0.349224 0.084559 0.390135
O O17 0.938177 0.361431 0.000000
#
# Coordination Sequence:
#
# PCOD8276969 Si02
#       8
#    16  16  16  16  16  16   4  16
#     4  11  22  37  64  92 122 155 194 245 305 368
#     4  11  24  43  62  84 115 157 206 257 305 351
#     4  11  22  35  60  93 129 159 196 240 297 363
#     4  10  23  38  63  89 120 157 199 250 299 360
#     4  10  22  43  62  84 117 158 210 261 303 348
#     4  11  21  38  62  89 124 166 202 243 304 367
#     4  12  20  32  58  88 130 168 186 232 292 356
#     4  10  21  36  57  92 131 161 192 239 299 370
#
# _framework density 20.455145000000002
#
# number of rings (size 3 to 8) (size 9 to 14) (size 15 to 20)
#    0.000    1.379    1.379    4.552    3.862    4.966 
#    0.000    6.897    0.000    9.103    0.000    0.000 
#    0.000    0.000    0.000    0.000    0.000    0.000 
#
# Total GULP energy -719218.952369 kJ/mol
# GULP energy per Si atom -12400.326765 kJ/mol
# Density = 2.040859 g / cm^3
# Si number density = 20.455145 Si / 1000 Ang^3
#
#
#
# Elastic Constant Matrix: (Units=GPa)
#
#
# Indices 1 2 3 4 5 6 
#
# 1 98.7118 45.2771 49.8283 0.0000 0.0000 0.0000
# 2 45.2771 101.5544 42.9548 0.0000 0.0000 0.0000
# 3 49.8283 42.9548 132.7369 0.0000 0.0000 0.0000
# 4 0.0000 0.0000 0.0000 18.2369 0.0000 0.0000
# 5 0.0000 0.0000 0.0000 0.0000 39.1068 0.0000
# 6 0.0000 0.0000 0.0000 0.0000 0.0000 -596.6988
#
#
#
# Elastic Compliance Matrix: (Units=1/GPa)
#
#
# Indices 1 2 3 4 5 6 
#
# 1 0.014222 -0.004730 -0.003808 0.000000 0.000000 0.000000
# 2 -0.004730 0.012982 -0.002425 0.000000 0.000000 0.000000
# 3 -0.003808 -0.002425 0.009748 0.000000 0.000000 0.000000
# 4 0.000000 0.000000 0.000000 0.054834 0.000000 0.000000
# 5 0.000000 0.000000 0.000000 0.000000 0.025571 0.000000
# 6 0.000000 0.000000 0.000000 0.000000 0.000000 -0.001676
#
#
# Mechanical properties :
#
#
# Convention : Reuss Voigt Hill
#
# Bulk Modulus (GPa) = 66.55664 67.68039 67.11851
# Shear Modulus (GPa) = 35.05890 -94.87482 -29.90796
#
# Velocity S-wave (km/s) = 4.14447 -6.81781 -3.82792
# Velocity P-wave (km/s) = 7.45055 5.36821 3.65328
#
# Compressibility (1/GPa) = 0.01502480
#
# Stress axis : x y z
#
# Youngs Moduli (GPa) = 70.31123 77.03165 102.58355
#
# Poissons Ratio (x) = 0.36437 0.39067
# Poissons Ratio (y) = 0.33258 0.24880
# Poissons Ratio (z) = 0.26776 0.18683
#
# Static dielectric constant tensor:
#      x y z
#    x 4.170530 0.000000 0.000000 
#    y 0.000000 3.628180 0.000000 
#    z 0.000000 0.000000 3.660360 
# 
# 
# High freq. dielectric constant tensor:
#      x y z
#    x 1.799920 0.000000 0.000000 
#    y 0.000000 1.798180 0.000000 
#    z 0.000000 0.000000 1.809540 
# 
# From -- ./inp_files/39110.got.cif
#   From: 2010.03.12/outbox.cif.g09.slc.cpg/sg66_20_cif.got.tgz:39110.got - 2010.04.10 21:57:39.
