data_PCOD8276803
_publ_section_title
;
Structure prediction by ZEFSAII (Michael W. Deem and Ramdas Pophale) SiO2 
 PCOD8276803
Probable space group: C C C M
;
_chemical_formula_sum "Si O2"
_cell_formula_units_Z 116
_cell_length_a 12.303589
_cell_length_b 25.335341
_cell_length_c 18.560339
_cell_angle_alpha 90.000000
_cell_angle_beta 90.000000
_cell_angle_gamma 90.000000
_cell_volume 5785.547631
_symmetry_space_group_name_H-M "C C C M"
_symmetry_group_IT_number 66
_symmetry_cell_setting 'orthorhombic'
loop_
_space_group_symop_operation_xyz
x,y,z
-x,-y,z
x,-y,1/2-z
-x,y,1/2-z
-x,-y,-z
x,y,-z
-x,y,1/2+z
x,-y,1/2+z
1/2+x,1/2+y,z
1/2-x,1/2-y,z
1/2+x,1/2-y,1/2-z
1/2-x,1/2+y,1/2-z
1/2-x,1/2-y,-z
1/2+x,1/2+y,-z
1/2-x,1/2+y,1/2+z
1/2+x,1/2-y,1/2+z
loop_
_atom_site_type_symbol
_atom_site_label
_atom_site_fract_x
_atom_site_fract_y
_atom_site_fract_z
Si Si1 0.695393 0.039580 0.082829
Si Si2 0.597307 0.793786 0.701752
Si Si3 0.890492 0.110038 0.916936
Si Si4 0.164532 0.177090 0.290618
Si Si5 0.040967 0.370499 0.416141
Si Si6 0.500000 0.500000 0.250000
Si Si7 0.811620 0.422180 0.584233
Si Si8 0.397219 0.594729 0.672006
O O1 0.822463 0.055413 0.092633
O O2 0.616230 0.083198 0.118329
O O3 0.671600 0.981713 0.114570
O O4 0.661323 0.037960 0.000000
O O5 0.500000 0.816352 0.750000
O O6 0.711822 0.813467 0.734431
O O7 0.595746 0.730549 0.702969
O O8 0.572161 0.815622 0.621962
O O9 0.828121 0.154425 0.871543
O O10 0.011163 0.105290 0.887041
O O11 0.893985 0.127408 0.000000
O O12 0.102397 0.136773 0.237393
O O13 0.065396 0.361692 0.500000
O O14 0.916402 0.386376 0.402521
O O15 0.581526 0.463548 0.296421
O O16 0.779177 0.423537 0.500000
O O17 0.715107 0.397761 0.630589
#
# Coordination Sequence:
#
# PCOD8276803 Si02
#       8
#    16  16  16  16  16   4  16  16
#     4   9  18  34  57  88 123 157 195 243 305 363
#     4  11  23  40  64  89 114 166 206 254 306 367
#     4  11  21  38  62  86 118 157 199 251 302 362
#     4  11  24  42  62  85 126 155 206 257 310 358
#     4  10  20  38  62  89 123 156 202 257 303 363
#     4  12  24  36  66  84 126 164 210 248 298 358
#     4  10  21  36  60  91 124 165 201 245 307 369
#     4  12  23  40  57  88 124 162 199 255 299 367
#
# _framework density 20.049959999999999
#
# number of rings (size 3 to 8) (size 9 to 14) (size 15 to 20)
#    0.000    1.379    2.759    3.310    0.000    2.207 
#    0.000    4.138    0.000    0.828    0.000    8.690 
#    0.000    0.000    0.000    0.000    0.000    0.000 
#
# Total GULP energy -719066.350315 kJ/mol
# GULP energy per Si atom -12397.695695 kJ/mol
# Density = 2.000433 g / cm^3
# Si number density = 20.049960 Si / 1000 Ang^3
#
#
#
# Elastic Constant Matrix: (Units=GPa)
#
#
# Indices 1 2 3 4 5 6 
#
# 1 110.0139 39.9615 43.1785 0.0000 0.0000 0.0000
# 2 39.9615 110.4380 43.2049 0.0000 0.0000 0.0000
# 3 43.1785 43.2049 88.8886 0.0000 0.0000 0.0000
# 4 0.0000 0.0000 0.0000 23.2377 0.0000 0.0000
# 5 0.0000 0.0000 0.0000 0.0000 34.4593 0.0000
# 6 0.0000 0.0000 0.0000 0.0000 0.0000 27.9292
#
#
#
# Elastic Compliance Matrix: (Units=1/GPa)
#
#
# Indices 1 2 3 4 5 6 
#
# 1 0.011763 -0.002495 -0.004501 0.000000 0.000000 0.000000
# 2 -0.002495 0.011710 -0.004480 0.000000 0.000000 0.000000
# 3 -0.004501 -0.004480 0.015614 0.000000 0.000000 0.000000
# 4 0.000000 0.000000 0.000000 0.043033 0.000000 0.000000
# 5 0.000000 0.000000 0.000000 0.000000 0.029020 0.000000
# 6 0.000000 0.000000 0.000000 0.000000 0.000000 0.035805
#
#
# Mechanical properties :
#
#
# Convention : Reuss Voigt Hill
#
# Bulk Modulus (GPa) = 61.97823 62.44782 62.21302
# Shear Modulus (GPa) = 28.52655 29.32496 28.92575
#
# Velocity S-wave (km/s) = 3.77606 3.82854 3.80239
# Velocity P-wave (km/s) = 7.07040 7.12442 7.09746
#
# Compressibility (1/GPa) = 0.01613470
#
# Stress axis : x y z
#
# Youngs Moduli (GPa) = 85.01416 85.39453 64.04592
#
# Poissons Ratio (x) = 0.21310 0.28827
# Poissons Ratio (y) = 0.21215 0.28691
# Poissons Ratio (z) = 0.38264 0.38254
#
# Static dielectric constant tensor:
#      x y z
#    x 3.758240 0.000000 0.000000 
#    y 0.000000 3.610730 0.000000 
#    z 0.000000 0.000000 3.526210 
# 
# 
# High freq. dielectric constant tensor:
#      x y z
#    x 1.800740 0.000000 0.000000 
#    y 0.000000 1.774490 0.000000 
#    z 0.000000 0.000000 1.767320 
# 
# From -- ./inp_files/39129.got.cif
#   From: 2010.03.12/outbox.cif.g09.slc.cpg/sg66_20_cif.got.tgz:39129.got - 2010.04.10 21:57:39.
