data_PCOD8276245
_publ_section_title
;
Structure prediction by ZEFSAII (Michael W. Deem and Ramdas Pophale) SiO2 
 PCOD8276245
Probable space group: C C C M
;
_chemical_formula_sum "Si O2"
_cell_formula_units_Z 116
_cell_length_a 21.904373
_cell_length_b 27.006902
_cell_length_c 9.091418
_cell_angle_alpha 90.000000
_cell_angle_beta 90.000000
_cell_angle_gamma 90.000000
_cell_volume 5378.203373
_symmetry_space_group_name_H-M "C C C M"
_symmetry_group_IT_number 66
_symmetry_cell_setting 'orthorhombic'
loop_
_space_group_symop_operation_xyz
x,y,z
-x,-y,z
x,-y,1/2-z
-x,y,1/2-z
-x,-y,-z
x,y,-z
-x,y,1/2+z
x,-y,1/2+z
1/2+x,1/2+y,z
1/2-x,1/2-y,z
1/2+x,1/2-y,1/2-z
1/2-x,1/2+y,1/2-z
1/2-x,1/2-y,-z
1/2+x,1/2+y,-z
1/2-x,1/2+y,1/2+z
1/2+x,1/2-y,1/2+z
loop_
_atom_site_type_symbol
_atom_site_label
_atom_site_fract_x
_atom_site_fract_y
_atom_site_fract_z
Si Si1 0.769739 0.806276 0.669196
Si Si2 0.333164 0.050845 0.328685
Si Si3 0.414573 0.587934 0.664179
Si Si4 0.090153 0.821629 0.833297
Si Si5 0.500000 0.500000 0.750000
Si Si6 0.308937 0.548523 0.167432
Si Si7 0.159874 0.648666 0.675578
Si Si8 0.559574 0.210683 0.829706
O O1 0.758995 0.823399 0.500000
O O2 0.750000 0.750000 0.690591
O O3 0.839724 0.812421 0.714487
O O4 0.729261 0.841057 0.774626
O O5 0.352298 0.048926 0.500000
O O6 0.261339 0.060483 0.309476
O O7 0.364295 0.096470 0.243507
O O8 0.353102 0.000000 0.250000
O O9 0.393639 0.597881 0.500000
O O10 0.445118 0.637963 0.729921
O O11 0.456513 0.538261 0.661992
O O12 0.353405 0.589137 0.764380
O O13 0.055801 0.769708 0.817520
O O14 0.086326 0.841213 0.000000
O O15 0.329699 0.500000 0.250000
O O16 0.326313 0.540824 0.000000
O O17 0.155225 0.646875 0.500000
O O18 0.118509 0.691744 0.742828
O O19 0.500000 0.188096 0.750000
O O20 0.562700 0.193549 0.000000
#
# Coordination Sequence:
#
# PCOD8276245 Si02
#       8
#    16  16  16  16   4  16  16  16
#     4  10  19  38  64  93 129 172 210 255 324 395
#     4  10  21  38  62  94 130 167 204 251 307 375
#     4  12  26  42  62  83 112 154 209 269 326 383
#     4  10  23  42  66  92 124 163 208 261 326 393
#     4  12  30  48  60  82 114 168 222 280 338 392
#     4  10  20  36  59  85 117 155 198 247 309 374
#     4  12  24  38  62  97 133 172 213 261 313 378
#     4  11  24  45  67  92 125 168 213 261 314 378
#
# _framework density 21.568539999999999
#
# number of rings (size 3 to 8) (size 9 to 14) (size 15 to 20)
#    0.000    1.241    2.069    3.931    0.966    8.552 
#    0.000    0.000    0.000    0.414    0.000    2.897 
#    0.000    0.000    0.000    0.000    0.000    0.000 
#
# Total GULP energy -718969.768525 kJ/mol
# GULP energy per Si atom -12396.030492 kJ/mol
# Density = 2.151945 g / cm^3
# Si number density = 21.568540 Si / 1000 Ang^3
#
#
#
# Elastic Constant Matrix: (Units=GPa)
#
#
# Indices 1 2 3 4 5 6 
#
# 1 52.6924 1.3179 21.6176 0.0000 0.0000 0.0000
# 2 1.3179 100.5301 51.0490 0.0000 0.0000 0.0000
# 3 21.6176 51.0490 150.5765 0.0000 0.0000 0.0000
# 4 0.0000 0.0000 0.0000 32.6369 0.0000 0.0000
# 5 0.0000 0.0000 0.0000 0.0000 48.3842 0.0000
# 6 0.0000 0.0000 0.0000 0.0000 0.0000 11.5485
#
#
#
# Elastic Compliance Matrix: (Units=1/GPa)
#
#
# Indices 1 2 3 4 5 6 
#
# 1 0.020344 0.001469 -0.003419 0.000000 0.000000 0.000000
# 2 0.001469 0.012122 -0.004321 0.000000 0.000000 0.000000
# 3 -0.003419 -0.004321 0.008597 0.000000 0.000000 0.000000
# 4 0.000000 0.000000 0.000000 0.030640 0.000000 0.000000
# 5 0.000000 0.000000 0.000000 0.000000 0.020668 0.000000
# 6 0.000000 0.000000 0.000000 0.000000 0.000000 0.086592
#
#
# Mechanical properties :
#
#
# Convention : Reuss Voigt Hill
#
# Bulk Modulus (GPa) = 35.05996 50.19643 42.62819
# Shear Modulus (GPa) = 24.87440 33.83490 29.35465
#
# Velocity S-wave (km/s) = 3.39967 3.96500 3.69317
# Velocity P-wave (km/s) = 5.63034 6.65471 6.16384
#
# Compressibility (1/GPa) = 0.02852257
#
# Stress axis : x y z
#
# Youngs Moduli (GPa) = 49.15474 82.49471 116.32298
#
# Poissons Ratio (x) = -0.12122 0.39769
# Poissons Ratio (y) = -0.07223 0.50258
# Poissons Ratio (z) = 0.16805 0.35643
#
# Static dielectric constant tensor:
#      x y z
#    x 3.626020 0.000000 0.000000 
#    y 0.000000 3.973390 0.000000 
#    z 0.000000 0.000000 3.830800 
# 
# 
# High freq. dielectric constant tensor:
#      x y z
#    x 1.826510 0.000000 0.000000 
#    y 0.000000 1.860500 0.000000 
#    z 0.000000 0.000000 1.845470 
# 
# From -- ./inp_files/9415.got.cif
#   From: 2010.03.12/outbox.cif.g09.slc.cpg/sg66_5_cif.got.tgz:9415.got - 2010.04.10 21:57:39.
