data_PCOD8276407
_publ_section_title
;
Structure prediction by ZEFSAII (Michael W. Deem and Ramdas Pophale) SiO2 
 PCOD8276407
Probable space group: C C C M
;
_chemical_formula_sum "Si O2"
_cell_formula_units_Z 80
_cell_length_a 25.454632
_cell_length_b 17.966590
_cell_length_c 8.998849
_cell_angle_alpha 90.000000
_cell_angle_beta 90.000000
_cell_angle_gamma 90.000000
_cell_volume 4115.470040
_symmetry_space_group_name_H-M "C C C M"
_symmetry_group_IT_number 66
_symmetry_cell_setting 'orthorhombic'
loop_
_space_group_symop_operation_xyz
x,y,z
-x,-y,z
x,-y,1/2-z
-x,y,1/2-z
-x,-y,-z
x,y,-z
-x,y,1/2+z
x,-y,1/2+z
1/2+x,1/2+y,z
1/2-x,1/2-y,z
1/2+x,1/2-y,1/2-z
1/2-x,1/2+y,1/2-z
1/2-x,1/2-y,-z
1/2+x,1/2+y,-z
1/2-x,1/2+y,1/2+z
1/2+x,1/2-y,1/2+z
loop_
_atom_site_type_symbol
_atom_site_label
_atom_site_fract_x
_atom_site_fract_y
_atom_site_fract_z
Si Si1 0.154830 0.149710 0.170637
Si Si2 0.335688 0.195395 0.321975
Si Si3 0.449111 0.635205 0.833066
Si Si4 0.549295 0.812313 0.663236
Si Si5 0.736859 0.076329 0.329281
O O1 0.173821 0.222551 0.258321
O O2 0.103289 0.112708 0.243711
O O3 0.200845 0.089097 0.181009
O O4 0.142557 0.171209 0.000000
O O5 0.331746 0.199495 0.500000
O O6 0.393564 0.165786 0.271157
O O7 0.292041 0.142391 0.255526
O O8 0.500000 0.601182 0.750000
O O9 0.454034 0.723635 0.838711
O O10 0.446092 0.602612 0.000000
O O11 0.500000 0.847325 0.750000
O O12 0.544157 0.845885 0.500000
O O13 0.718130 0.073781 0.500000
O O14 0.721609 0.000000 0.250000
#
# Coordination Sequence:
#
# PCOD8276407 Si02
#       5
#    16  16  16  16  16
#     4  10  20  34  53  79 108 137 174 217 260 310
#     4  10  20  34  54  80 108 138 174 215 260 310
#     4   9  16  27  46  74 106 138 170 208 257 307
#     4   8  15  26  43  71 103 133 164 201 247 297
#     4  11  24  39  55  75 102 138 177 219 267 316
#
# _framework density 19.438849000000001
#
# number of rings (size 3 to 8) (size 9 to 14) (size 15 to 20)
#    0.000    2.400    0.000    4.200    0.000   11.200 
#    0.000    0.000    0.000    1.200    0.000    8.400 
#    0.000    0.000    0.000    0.000    0.000    0.000 
#
# Total GULP energy -495907.588385 kJ/mol
# GULP energy per Si atom -12397.689710 kJ/mol
# Density = 1.939461 g / cm^3
# Si number density = 19.438849 Si / 1000 Ang^3
#
#
#
# Elastic Constant Matrix: (Units=GPa)
#
#
# Indices 1 2 3 4 5 6 
#
# 1 87.9289 -2.5464 38.3294 0.0000 0.0000 0.0000
# 2 -2.5464 19.2518 12.4839 0.0000 0.0000 0.0000
# 3 38.3294 12.4839 126.7768 0.0000 0.0000 0.0000
# 4 0.0000 0.0000 0.0000 10.8189 0.0000 0.0000
# 5 0.0000 0.0000 0.0000 0.0000 40.0107 0.0000
# 6 0.0000 0.0000 0.0000 0.0000 0.0000 2.4762
#
#
#
# Elastic Compliance Matrix: (Units=1/GPa)
#
#
# Indices 1 2 3 4 5 6 
#
# 1 0.013491 0.004731 -0.004545 0.000000 0.000000 0.000000
# 2 0.004731 0.057146 -0.007058 0.000000 0.000000 0.000000
# 3 -0.004545 -0.007058 0.009957 0.000000 0.000000 0.000000
# 4 0.000000 0.000000 0.000000 0.092430 0.000000 0.000000
# 5 0.000000 0.000000 0.000000 0.000000 0.024993 0.000000
# 6 0.000000 0.000000 0.000000 0.000000 0.000000 0.403845
#
#
# Mechanical properties :
#
#
# Convention : Reuss Voigt Hill
#
# Bulk Modulus (GPa) = 14.95850 36.72126 25.83988
# Shear Modulus (GPa) = 7.83837 23.04053 15.43945
#
# Velocity S-wave (km/s) = 2.01024 3.44653 2.82131
# Velocity P-wave (km/s) = 3.61939 5.89659 4.89233
#
# Compressibility (1/GPa) = 0.06685163
#
# Stress axis : x y z
#
# Youngs Moduli (GPa) = 74.12366 17.49911 100.43274
#
# Poissons Ratio (x) = -0.08280 0.45644
# Poissons Ratio (y) = -0.35071 0.70883
# Poissons Ratio (z) = 0.33687 0.12350
#
# Static dielectric constant tensor:
#      x y z
#    x 3.850250 0.000000 0.000000 
#    y 0.000000 2.935870 0.000000 
#    z 0.000000 0.000000 3.799850 
# 
# 
# High freq. dielectric constant tensor:
#      x y z
#    x 1.774020 0.000000 0.000000 
#    y 0.000000 1.697390 0.000000 
#    z 0.000000 0.000000 1.771640 
# 
# From -- ./inp_files/6665.got.cif
#   From: 2010.03.12/outbox.cif.g09.slc.cpg/sg66_4_cif.got.tgz:6665.got - 2010.04.10 21:57:39.
