data_PCOD8276763
_publ_section_title
;
Structure prediction by ZEFSAII (Michael W. Deem and Ramdas Pophale) SiO2 
 PCOD8276763
Probable space group: C C C M
;
_chemical_formula_sum "Si O2"
_cell_formula_units_Z 68
_cell_length_a 18.528090
_cell_length_b 18.099414
_cell_length_c 10.314542
_cell_angle_alpha 90.000000
_cell_angle_beta 90.000000
_cell_angle_gamma 90.000000
_cell_volume 3458.956611
_symmetry_space_group_name_H-M "C C C M"
_symmetry_group_IT_number 66
_symmetry_cell_setting 'orthorhombic'
loop_
_space_group_symop_operation_xyz
x,y,z
-x,-y,z
x,-y,1/2-z
-x,y,1/2-z
-x,-y,-z
x,y,-z
-x,y,1/2+z
x,-y,1/2+z
1/2+x,1/2+y,z
1/2-x,1/2-y,z
1/2+x,1/2-y,1/2-z
1/2-x,1/2+y,1/2-z
1/2-x,1/2-y,-z
1/2+x,1/2+y,-z
1/2-x,1/2+y,1/2+z
1/2+x,1/2-y,1/2+z
loop_
_atom_site_type_symbol
_atom_site_label
_atom_site_fract_x
_atom_site_fract_y
_atom_site_fract_z
Si Si1 0.917958 0.656892 0.500000
Si Si2 0.414812 0.763500 0.254756
Si Si3 0.410112 0.147485 0.000000
Si Si4 0.118820 0.894939 0.650359
Si Si5 0.000000 0.000000 0.250000
Si Si6 0.261541 0.500000 0.250000
Si Si7 0.834249 0.490030 0.000000
O O1 0.885513 0.701422 0.377923
O O2 0.893461 0.573038 0.500000
O O3 0.003852 0.650023 0.500000
O O4 0.500000 0.769795 0.250000
O O5 0.381229 0.810093 0.373185
O O6 0.393070 0.678464 0.266463
O O7 0.377858 0.066109 0.000000
O O8 0.131259 0.875641 0.500000
O O9 0.189610 0.930495 0.712048
O O10 0.049884 0.948916 0.659410
O O11 0.213577 0.479372 0.372784
#
# Coordination Sequence:
#
# PCOD8276763 Si02
#       7
#     8  16   8  16   4   8   8
#     4  10  23  39  64  97 120 155 209 272 324 361
#     4  10  20  37  63  97 129 154 197 262 323 374
#     4  10  21  39  68  93 116 163 209 260 328 373
#     4  11  21  41  61  94 130 163 207 248 304 377
#     4  10  22  32  68  98 118 168 198 246 318 354
#     4  11  26  41  63  90 125 174 214 252 299 374
#     4  12  23  46  62  85 126 166 216 268 306 363
#
# _framework density 19.659106999999999
#
# number of rings (size 3 to 8) (size 9 to 14) (size 15 to 20)
#    0.000    1.412    3.529    2.118    0.000    0.941 
#    2.118   11.765    0.000    0.000    0.000    0.000 
#    0.000    0.000    0.000    0.000    0.000    0.000 
#
# Total GULP energy -421656.508674 kJ/mol
# GULP energy per Si atom -12401.662020 kJ/mol
# Density = 1.961436 g / cm^3
# Si number density = 19.659107 Si / 1000 Ang^3
#
#
#
# Elastic Constant Matrix: (Units=GPa)
#
#
# Indices 1 2 3 4 5 6 
#
# 1 39.3603 26.3454 35.0197 0.0000 0.0000 0.0000
# 2 26.3454 141.0318 49.6968 0.0000 0.0000 0.0000
# 3 35.0197 49.6968 154.1170 0.0000 0.0000 0.0000
# 4 0.0000 0.0000 0.0000 32.4798 0.0000 0.0000
# 5 0.0000 0.0000 0.0000 0.0000 15.9565 0.0000
# 6 0.0000 0.0000 0.0000 0.0000 0.0000 20.0954
#
#
#
# Elastic Compliance Matrix: (Units=1/GPa)
#
#
# Indices 1 2 3 4 5 6 
#
# 1 0.033795 -0.004069 -0.006367 0.000000 0.000000 0.000000
# 2 -0.004069 0.008490 -0.001813 0.000000 0.000000 0.000000
# 3 -0.006367 -0.001813 0.008520 0.000000 0.000000 0.000000
# 4 0.000000 0.000000 0.000000 0.030788 0.000000 0.000000
# 5 0.000000 0.000000 0.000000 0.000000 0.062670 0.000000
# 6 0.000000 0.000000 0.000000 0.000000 0.000000 0.049763
#
#
# Mechanical properties :
#
#
# Convention : Reuss Voigt Hill
#
# Bulk Modulus (GPa) = 38.01420 61.84811 49.93115
# Shear Modulus (GPa) = 21.99802 28.60280 25.30041
#
# Velocity S-wave (km/s) = 3.34874 3.81850 3.59131
# Velocity P-wave (km/s) = 5.85924 7.13932 6.53072
#
# Compressibility (1/GPa) = 0.02630596
#
# Stress axis : x y z
#
# Youngs Moduli (GPa) = 29.59017 117.79087 117.37217
#
# Poissons Ratio (x) = 0.47935 0.74730
# Poissons Ratio (y) = 0.12042 0.21278
# Poissons Ratio (z) = 0.18840 0.21354
#
# Static dielectric constant tensor:
#      x y z
#    x 3.431560 0.000000 0.000000 
#    y 0.000000 3.614430 0.000000 
#    z 0.000000 0.000000 3.945080 
# 
# 
# High freq. dielectric constant tensor:
#      x y z
#    x 1.750460 0.000000 0.000000 
#    y 0.000000 1.777710 0.000000 
#    z 0.000000 0.000000 1.781800 
# 
# From -- ./inp_files/7495.got.cif
#   From: 2010.03.12/outbox.cif.g09.slc.cpg/sg66_4_cif.got.tgz:7495.got - 2010.04.10 21:57:39.
