data_PCOD8276984
_publ_section_title
;
Structure prediction by ZEFSAII (Michael W. Deem and Ramdas Pophale) SiO2 
 PCOD8276984
Probable space group: C C C M
;
_chemical_formula_sum "Si O2"
_cell_formula_units_Z 96
_cell_length_a 10.545429
_cell_length_b 20.166080
_cell_length_c 19.099739
_cell_angle_alpha 90.000000
_cell_angle_beta 90.000000
_cell_angle_gamma 90.000000
_cell_volume 4061.749824
_symmetry_space_group_name_H-M "C C C M"
_symmetry_group_IT_number 66
_symmetry_cell_setting 'orthorhombic'
loop_
_space_group_symop_operation_xyz
x,y,z
-x,-y,z
x,-y,1/2-z
-x,y,1/2-z
-x,-y,-z
x,y,-z
-x,y,1/2+z
x,-y,1/2+z
1/2+x,1/2+y,z
1/2-x,1/2-y,z
1/2+x,1/2-y,1/2-z
1/2-x,1/2+y,1/2-z
1/2-x,1/2-y,-z
1/2+x,1/2+y,-z
1/2-x,1/2+y,1/2+z
1/2+x,1/2-y,1/2+z
loop_
_atom_site_type_symbol
_atom_site_label
_atom_site_fract_x
_atom_site_fract_y
_atom_site_fract_z
Si Si1 0.151638 0.304519 0.896200
Si Si2 0.730759 0.565078 0.077496
Si Si3 0.251420 0.461170 0.680710
Si Si4 0.137234 0.666595 0.759884
Si Si5 0.992636 0.893801 0.330940
Si Si6 0.111037 0.239822 0.620184
O O1 0.250000 0.250000 0.926389
O O2 0.170750 0.374844 0.934191
O O3 0.193661 0.317033 0.815681
O O4 0.006308 0.282475 0.911940
O O5 0.802167 0.501293 0.112940
O O6 0.625769 0.587720 0.134104
O O7 0.677619 0.546005 0.000000
O O8 0.211618 0.500000 0.750000
O O9 0.212083 0.384551 0.690153
O O10 0.402999 0.458657 0.668057
O O11 0.128532 0.736335 0.799936
O O12 0.000000 0.633407 0.750000
O O13 0.931165 0.836294 0.379118
O O14 0.000000 0.869575 0.250000
O O15 0.250000 0.250000 0.581738
#
# Coordination Sequence:
#
# PCOD8276984 Si02
#       6
#    16  16  16  16  16  16
#     4  11  21  40  68 101 141 184 231 290 352 423
#     4  12  28  46  68 102 143 191 240 288 354 433
#     4  12  23  40  67 102 140 186 239 290 349 415
#     4  10  21  36  66 107 141 177 231 301 358 411
#     4  12  22  40  71 102 142 177 233 294 356 418
#     4  11  22  38  66 108 144 175 231 302 363 413
#
# _framework density 23.635133
#
# number of rings (size 3 to 8) (size 9 to 14) (size 15 to 20)
#    0.000    0.667    6.667    2.500    0.000    2.000 
#    0.000    0.000    0.000   11.000    0.000    0.000 
#    0.000    0.000    0.000    0.000    0.000    0.000 
#
# Total GULP energy -594660.408927 kJ/mol
# GULP energy per Si atom -12388.758519 kJ/mol
# Density = 2.358134 g / cm^3
# Si number density = 23.635133 Si / 1000 Ang^3
#
#
#
# Elastic Constant Matrix: (Units=GPa)
#
#
# Indices 1 2 3 4 5 6 
#
# 1 112.6554 7.8771 11.9298 0.0000 0.0000 0.0000
# 2 7.8771 81.9943 19.7841 0.0000 0.0000 0.0000
# 3 11.9298 19.7841 106.9264 0.0000 0.0000 0.0000
# 4 0.0000 0.0000 0.0000 18.3946 0.0000 0.0000
# 5 0.0000 0.0000 0.0000 0.0000 -111.6539 0.0000
# 6 0.0000 0.0000 0.0000 0.0000 0.0000 33.6615
#
#
#
# Elastic Compliance Matrix: (Units=1/GPa)
#
#
# Indices 1 2 3 4 5 6 
#
# 1 0.009016 -0.000653 -0.000885 0.000000 0.000000 0.000000
# 2 -0.000653 0.012813 -0.002298 0.000000 0.000000 0.000000
# 3 -0.000885 -0.002298 0.009876 0.000000 0.000000 0.000000
# 4 0.000000 0.000000 0.000000 0.054364 0.000000 0.000000
# 5 0.000000 0.000000 0.000000 0.000000 -0.008956 0.000000
# 6 0.000000 0.000000 0.000000 0.000000 0.000000 0.029708
#
#
# Mechanical properties :
#
#
# Convention : Reuss Voigt Hill
#
# Bulk Modulus (GPa) = 41.60790 42.30645 41.95717
# Shear Modulus (GPa) = 40.81529 5.54611 23.18070
#
# Velocity S-wave (km/s) = 4.16010 1.53351 3.13513
# Velocity P-wave (km/s) = 6.38104 4.59066 5.55841
#
# Compressibility (1/GPa) = 0.02403390
#
# Stress axis : x y z
#
# Youngs Moduli (GPa) = 110.91399 78.04492 101.25392
#
# Poissons Ratio (x) = 0.05093 0.08963
# Poissons Ratio (y) = 0.07238 0.23268
# Poissons Ratio (z) = 0.09818 0.17934
#
# Static dielectric constant tensor:
#      x y z
#    x 4.700810 0.000000 0.000000 
#    y 0.000000 4.370150 0.000000 
#    z 0.000000 0.000000 3.797340 
# 
# 
# High freq. dielectric constant tensor:
#      x y z
#    x 1.932330 0.000000 0.000000 
#    y 0.000000 1.948930 0.000000 
#    z 0.000000 0.000000 1.897550 
# 
# From -- ./inp_files/48829.got.cif
#   From: 2010.03.12/outbox.cif.g09.slc.cpg/sg66_25_cif.got.tgz:48829.got - 2010.04.10 21:57:39.
