data_PCOD8276587
_publ_section_title
;
Structure prediction by ZEFSAII (Michael W. Deem and Ramdas Pophale) SiO2 
 PCOD8276587
Probable space group: C C C M
;
_chemical_formula_sum "Si O2"
_cell_formula_units_Z 52
_cell_length_a 13.821902
_cell_length_b 24.655200
_cell_length_c 8.736356
_cell_angle_alpha 90.000000
_cell_angle_beta 90.000000
_cell_angle_gamma 90.000000
_cell_volume 2977.190758
_symmetry_space_group_name_H-M "C C C M"
_symmetry_group_IT_number 66
_symmetry_cell_setting 'orthorhombic'
loop_
_space_group_symop_operation_xyz
x,y,z
-x,-y,z
x,-y,1/2-z
-x,y,1/2-z
-x,-y,-z
x,y,-z
-x,y,1/2+z
x,-y,1/2+z
1/2+x,1/2+y,z
1/2-x,1/2-y,z
1/2+x,1/2-y,1/2-z
1/2-x,1/2+y,1/2-z
1/2-x,1/2-y,-z
1/2+x,1/2+y,-z
1/2-x,1/2+y,1/2+z
1/2+x,1/2-y,1/2+z
loop_
_atom_site_type_symbol
_atom_site_label
_atom_site_fract_x
_atom_site_fract_y
_atom_site_fract_z
Si Si1 0.686274 0.948898 0.333822
Si Si2 0.000000 0.500000 0.250000
Si Si3 0.277283 0.829762 0.815936
Si Si4 0.104318 0.764859 0.683389
O O1 0.733587 0.945956 0.500000
O O2 0.570485 0.960727 0.348359
O O3 0.705449 0.891004 0.254606
O O4 0.737544 0.000000 0.250000
O O5 0.174882 0.810712 0.750327
O O6 0.362650 0.793795 0.744078
O O7 0.280663 0.824958 0.000000
O O8 0.105140 0.765883 0.500000
O O9 0.000000 0.778574 0.750000
#
# Coordination Sequence:
#
# PCOD8276587 Si02
#       4
#    16   4  16  16
#     4   9  19  31  49  74 105 137 170 207 252 303
#     4   8  18  32  46  76 104 136 170 200 256 304
#     4  10  20  36  53  79 109 139 175 218 258 311
#     4  11  22  36  54  78 103 140 177 218 265 312
#
# _framework density 17.46613
#
# number of rings (size 3 to 8) (size 9 to 14) (size 15 to 20)
#    0.923    1.231    0.000    6.000    2.154    2.462 
#    0.000    0.000    0.000    0.923    0.000    6.462 
#    0.000    0.000    0.000    0.000    0.000    0.000 
#
# Total GULP energy -322096.961540 kJ/mol
# GULP energy per Si atom -12388.344675 kJ/mol
# Density = 1.742638 g / cm^3
# Si number density = 17.466130 Si / 1000 Ang^3
#
#
#
# Elastic Constant Matrix: (Units=GPa)
#
#
# Indices 1 2 3 4 5 6 
#
# 1 85.7541 43.5686 26.9749 0.0000 0.0000 0.0000
# 2 43.5686 173.5204 39.0497 0.0000 0.0000 0.0000
# 3 26.9749 39.0497 104.0578 0.0000 0.0000 0.0000
# 4 0.0000 0.0000 0.0000 26.1381 0.0000 0.0000
# 5 0.0000 0.0000 0.0000 0.0000 20.1216 0.0000
# 6 0.0000 0.0000 0.0000 0.0000 0.0000 17.3860
#
#
#
# Elastic Compliance Matrix: (Units=1/GPa)
#
#
# Indices 1 2 3 4 5 6 
#
# 1 0.013943 -0.002935 -0.002513 0.000000 0.000000 0.000000
# 2 -0.002935 0.006913 -0.001833 0.000000 0.000000 0.000000
# 3 -0.002513 -0.001833 0.010949 0.000000 0.000000 0.000000
# 4 0.000000 0.000000 0.000000 0.038258 0.000000 0.000000
# 5 0.000000 0.000000 0.000000 0.000000 0.049698 0.000000
# 6 0.000000 0.000000 0.000000 0.000000 0.000000 0.057518
#
#
# Mechanical properties :
#
#
# Convention : Reuss Voigt Hill
#
# Bulk Modulus (GPa) = 57.99729 64.72427 61.36078
# Shear Modulus (GPa) = 25.30504 29.64508 27.47506
#
# Velocity S-wave (km/s) = 3.81045 4.12429 3.97047
# Velocity P-wave (km/s) = 7.25514 7.73415 7.49847
#
# Compressibility (1/GPa) = 0.01724219
#
# Stress axis : x y z
#
# Youngs Moduli (GPa) = 71.72015 144.66369 91.32933
#
# Poissons Ratio (x) = 0.42465 0.22950
# Poissons Ratio (y) = 0.21053 0.16742
# Poissons Ratio (z) = 0.18023 0.26519
#
# Static dielectric constant tensor:
#      x y z
#    x 3.044850 0.000000 0.000000 
#    y 0.000000 3.387100 0.000000 
#    z 0.000000 0.000000 3.245420 
# 
# 
# High freq. dielectric constant tensor:
#      x y z
#    x 1.647270 0.000000 0.000000 
#    y 0.000000 1.679380 0.000000 
#    z 0.000000 0.000000 1.683440 
# 
# From -- ./inp_files/4935.got.cif
#   From: 2010.03.12/outbox.cif.g09.slc.cpg/sg66_3_cif.got.tgz:4935.got - 2010.04.10 21:57:39.
