data_PCOD8276246
_publ_section_title
;
Structure prediction by ZEFSAII (Michael W. Deem and Ramdas Pophale) SiO2 
 PCOD8276246
Probable space group: C C C M
;
_chemical_formula_sum "Si O2"
_cell_formula_units_Z 80
_cell_length_a 5.797663
_cell_length_b 26.803929
_cell_length_c 24.451550
_cell_angle_alpha 90.000000
_cell_angle_beta 90.000000
_cell_angle_gamma 90.000000
_cell_volume 3799.774475
_symmetry_space_group_name_H-M "C C C M"
_symmetry_group_IT_number 66
_symmetry_cell_setting 'orthorhombic'
loop_
_space_group_symop_operation_xyz
x,y,z
-x,-y,z
x,-y,1/2-z
-x,y,1/2-z
-x,-y,-z
x,y,-z
-x,y,1/2+z
x,-y,1/2+z
1/2+x,1/2+y,z
1/2-x,1/2-y,z
1/2+x,1/2-y,1/2-z
1/2-x,1/2+y,1/2-z
1/2-x,1/2-y,-z
1/2+x,1/2+y,-z
1/2-x,1/2+y,1/2+z
1/2+x,1/2-y,1/2+z
loop_
_atom_site_type_symbol
_atom_site_label
_atom_site_fract_x
_atom_site_fract_y
_atom_site_fract_z
Si Si1 0.394614 0.447684 0.615270
Si Si2 0.403188 0.705970 0.806576
Si Si3 0.606378 0.888172 0.693900
Si Si4 0.768135 0.077801 0.000000
Si Si5 0.784252 0.851263 0.882284
Si Si6 0.769553 0.633449 0.000000
O O1 0.500000 0.500000 0.633133
O O2 0.208977 0.435352 0.662022
O O3 0.274669 0.454566 0.555738
O O4 0.580487 0.403547 0.614810
O O5 0.500000 0.728542 0.750000
O O6 0.250000 0.750000 0.832143
O O7 0.288863 0.653790 0.789087
O O8 0.583104 0.694541 0.854657
O O9 0.500000 0.909213 0.750000
O O10 0.440420 0.859239 0.653178
O O11 0.512970 0.102767 0.000000
O O12 0.011460 0.108404 0.000000
O O13 0.719737 0.834455 0.944163
#
# Coordination Sequence:
#
# PCOD8276246 Si02
#       6
#    16  16  16   8  16   8
#     4  10  22  38  59  90 128 169 222 274 327 387
#     4  11  23  38  65  97 122 156 214 277 338 400
#     4  11  21  39  62  84 126 166 214 269 333 404
#     4  10  19  38  64  96 125 169 231 285 324 382
#     4  10  22  40  61  92 127 170 213 266 332 399
#     4  10  20  40  66  93 134 180 216 271 338 398
#
# _framework density 21.053879999999999
#
# number of rings (size 3 to 8) (size 9 to 14) (size 15 to 20)
#    0.000    1.600    4.000    0.900    0.000    0.800 
#    0.000    5.500    0.000    1.200    0.000    0.000 
#    0.000    0.000    0.000    0.000    0.000    0.000 
#
# Total GULP energy -495561.725173 kJ/mol
# GULP energy per Si atom -12389.043129 kJ/mol
# Density = 2.100596 g / cm^3
# Si number density = 21.053880 Si / 1000 Ang^3
#
#
#
# Elastic Constant Matrix: (Units=GPa)
#
#
# Indices 1 2 3 4 5 6 
#
# 1 108.8700 27.0324 47.5110 0.0000 0.0000 0.0000
# 2 27.0324 82.8513 37.9733 0.0000 0.0000 0.0000
# 3 47.5110 37.9733 179.3414 0.0000 0.0000 0.0000
# 4 0.0000 0.0000 0.0000 18.9548 0.0000 0.0000
# 5 0.0000 0.0000 0.0000 0.0000 31.4229 0.0000
# 6 0.0000 0.0000 0.0000 0.0000 0.0000 28.0082
#
#
#
# Elastic Compliance Matrix: (Units=1/GPa)
#
#
# Indices 1 2 3 4 5 6 
#
# 1 0.010819 -0.002454 -0.002346 0.000000 0.000000 0.000000
# 2 -0.002454 0.013924 -0.002298 0.000000 0.000000 0.000000
# 3 -0.002346 -0.002298 0.006684 0.000000 0.000000 0.000000
# 4 0.000000 0.000000 0.000000 0.052757 0.000000 0.000000
# 5 0.000000 0.000000 0.000000 0.000000 0.031824 0.000000
# 6 0.000000 0.000000 0.000000 0.000000 0.000000 0.035704
#
#
# Mechanical properties :
#
#
# Convention : Reuss Voigt Hill
#
# Bulk Modulus (GPa) = 58.04145 66.23288 62.13717
# Shear Modulus (GPa) = 29.12869 32.91359 31.02114
#
# Velocity S-wave (km/s) = 3.72362 3.95815 3.84268
# Velocity P-wave (km/s) = 6.79080 7.23991 7.01895
#
# Compressibility (1/GPa) = 0.01722907
#
# Stress axis : x y z
#
# Youngs Moduli (GPa) = 92.43280 71.81907 149.60825
#
# Poissons Ratio (x) = 0.17628 0.35104
# Poissons Ratio (y) = 0.22687 0.34380
# Poissons Ratio (z) = 0.21688 0.16504
#
# Static dielectric constant tensor:
#      x y z
#    x 4.124610 0.000000 0.000000 
#    y 0.000000 3.306720 0.000000 
#    z 0.000000 0.000000 4.309070 
# 
# 
# High freq. dielectric constant tensor:
#      x y z
#    x 1.838630 0.000000 0.000000 
#    y 0.000000 1.782320 0.000000 
#    z 0.000000 0.000000 1.848410 
# 
# From -- ./inp_files/54399.got.cif
#   From: 2010.03.12/outbox.cif.g09.slc.cpg/sg66_28_cif.got.tgz:54399.got - 2010.04.10 21:57:39.
