data_PCOD8276997
_publ_section_title
;
Structure prediction by ZEFSAII (Michael W. Deem and Ramdas Pophale) SiO2 
 PCOD8276997
Probable space group: C C C M
;
_chemical_formula_sum "Si O2"
_cell_formula_units_Z 116
_cell_length_a 22.471771
_cell_length_b 27.860007
_cell_length_c 9.039929
_cell_angle_alpha 90.000000
_cell_angle_beta 90.000000
_cell_angle_gamma 90.000000
_cell_volume 5659.571374
_symmetry_space_group_name_H-M "C C C M"
_symmetry_group_IT_number 66
_symmetry_cell_setting 'orthorhombic'
loop_
_space_group_symop_operation_xyz
x,y,z
-x,-y,z
x,-y,1/2-z
-x,y,1/2-z
-x,-y,-z
x,y,-z
-x,y,1/2+z
x,-y,1/2+z
1/2+x,1/2+y,z
1/2-x,1/2-y,z
1/2+x,1/2-y,1/2-z
1/2-x,1/2+y,1/2-z
1/2-x,1/2-y,-z
1/2+x,1/2+y,-z
1/2-x,1/2+y,1/2+z
1/2+x,1/2-y,1/2+z
loop_
_atom_site_type_symbol
_atom_site_label
_atom_site_fract_x
_atom_site_fract_y
_atom_site_fract_z
Si Si1 0.379228 0.331882 0.673428
Si Si2 0.060851 0.747293 0.671310
Si Si3 0.500000 0.500000 0.250000
Si Si4 0.403665 0.576025 0.334653
Si Si5 0.061734 0.635950 0.671745
Si Si6 0.727797 0.451764 0.324620
Si Si7 0.823003 0.386546 0.829116
Si Si8 0.244827 0.801744 0.831735
O O1 0.392416 0.330914 0.500000
O O2 0.392471 0.280580 0.746043
O O3 0.417710 0.376747 0.736666
O O4 0.309545 0.336545 0.720096
O O5 0.056587 0.761299 0.500000
O O6 0.077410 0.691737 0.691816
O O7 0.000000 0.759654 0.750000
O O8 0.455927 0.535794 0.337993
O O9 0.395551 0.594903 0.500000
O O10 0.341078 0.555029 0.276004
O O11 0.057757 0.621518 0.500000
O O12 0.113384 0.605241 0.751492
O O13 0.000000 0.622600 0.750000
O O14 0.751072 0.500000 0.250000
O O15 0.734534 0.454385 0.500000
O O16 0.770962 0.411758 0.260691
O O17 0.806830 0.330022 0.818058
O O18 0.825549 0.403702 0.000000
O O19 0.250000 0.750000 0.747545
O O20 0.228055 0.789932 0.000000
#
# Coordination Sequence:
#
# PCOD8276997 Si02
#       8
#    16  16   4  16  16  16  16  16
#     4  11  22  37  58  83 118 160 204 255 314 376
#     4  10  21  37  56  81 117 161 210 256 305 362
#     4  12  26  48  68  90 114 164 222 274 338 396
#     4  11  25  43  64  88 118 155 204 266 327 384
#     4  10  21  38  61  91 126 166 208 254 302 361
#     4  11  23  42  66  92 123 159 204 260 318 379
#     4  11  21  37  62  92 125 163 206 254 312 377
#     4   9  18  32  53  84 120 159 202 247 300 368
#
# _framework density 20.496251999999998
#
# number of rings (size 3 to 8) (size 9 to 14) (size 15 to 20)
#    0.000    1.517    2.069    3.103    0.966    4.414 
#    0.000    0.000    0.000    3.724    0.000    2.897 
#    0.000    0.000    0.000    0.000    0.000    0.000 
#
# Total GULP energy -718811.976962 kJ/mol
# GULP energy per Si atom -12393.309948 kJ/mol
# Density = 2.044960 g / cm^3
# Si number density = 20.496252 Si / 1000 Ang^3
#
#
#
# Elastic Constant Matrix: (Units=GPa)
#
#
# Indices 1 2 3 4 5 6 
#
# 1 124.9371 32.8770 51.1069 0.0000 0.0000 0.0000
# 2 32.8770 66.8080 28.3568 0.0000 0.0000 0.0000
# 3 51.1069 28.3568 114.0103 0.0000 0.0000 0.0000
# 4 0.0000 0.0000 0.0000 29.8427 0.0000 0.0000
# 5 0.0000 0.0000 0.0000 0.0000 29.5499 0.0000
# 6 0.0000 0.0000 0.0000 0.0000 0.0000 29.9146
#
#
#
# Elastic Compliance Matrix: (Units=1/GPa)
#
#
# Indices 1 2 3 4 5 6 
#
# 1 0.010502 -0.003544 -0.003826 0.000000 0.000000 0.000000
# 2 -0.003544 0.017931 -0.002871 0.000000 0.000000 0.000000
# 3 -0.003826 -0.002871 0.011200 0.000000 0.000000 0.000000
# 4 0.000000 0.000000 0.000000 0.033509 0.000000 0.000000
# 5 0.000000 0.000000 0.000000 0.000000 0.033841 0.000000
# 6 0.000000 0.000000 0.000000 0.000000 0.000000 0.033428
#
#
# Mechanical properties :
#
#
# Convention : Reuss Voigt Hill
#
# Bulk Modulus (GPa) = 52.21787 58.93744 55.57766
# Shear Modulus (GPa) = 29.89039 30.75574 30.32307
#
# Velocity S-wave (km/s) = 3.82296 3.87790 3.85053
# Velocity P-wave (km/s) = 6.70960 6.99060 6.85154
#
# Compressibility (1/GPa) = 0.01915053
#
# Stress axis : x y z
#
# Youngs Moduli (GPa) = 95.22230 55.76931 89.28281
#
# Poissons Ratio (x) = 0.19765 0.34160
# Poissons Ratio (y) = 0.33747 0.25635
# Poissons Ratio (z) = 0.36433 0.16012
#
# Static dielectric constant tensor:
#      x y z
#    x 3.696440 0.000000 0.000000 
#    y 0.000000 3.561190 0.000000 
#    z 0.000000 0.000000 3.611760 
# 
# 
# High freq. dielectric constant tensor:
#      x y z
#    x 1.804330 0.000000 0.000000 
#    y 0.000000 1.787800 0.000000 
#    z 0.000000 0.000000 1.796200 
# 
# From -- ./inp_files/9434.got.cif
#   From: 2010.03.12/outbox.cif.g09.slc.cpg/sg66_5_cif.got.tgz:9434.got - 2010.04.10 21:57:39.
