data_PCOD8276943
_publ_section_title
;
Structure prediction by ZEFSAII (Michael W. Deem and Ramdas Pophale) SiO2 
 PCOD8276943
Probable space group: C C C M
;
_chemical_formula_sum "Si O2"
_cell_formula_units_Z 116
_cell_length_a 26.995351
_cell_length_b 26.067043
_cell_length_c 9.001954
_cell_angle_alpha 90.000000
_cell_angle_beta 90.000000
_cell_angle_gamma 90.000000
_cell_volume 6334.575786
_symmetry_space_group_name_H-M "C C C M"
_symmetry_group_IT_number 66
_symmetry_cell_setting 'orthorhombic'
loop_
_space_group_symop_operation_xyz
x,y,z
-x,-y,z
x,-y,1/2-z
-x,y,1/2-z
-x,-y,-z
x,y,-z
-x,y,1/2+z
x,-y,1/2+z
1/2+x,1/2+y,z
1/2-x,1/2-y,z
1/2+x,1/2-y,1/2-z
1/2-x,1/2+y,1/2-z
1/2-x,1/2-y,-z
1/2+x,1/2+y,-z
1/2-x,1/2+y,1/2+z
1/2+x,1/2-y,1/2+z
loop_
_atom_site_type_symbol
_atom_site_label
_atom_site_fract_x
_atom_site_fract_y
_atom_site_fract_z
Si Si1 0.076850 0.080755 0.164452
Si Si2 0.283791 0.949033 0.175842
Si Si3 0.500000 0.500000 0.750000
Si Si4 0.709432 0.689611 0.164902
Si Si5 0.138051 0.258281 0.326595
Si Si6 0.181706 0.652005 0.328726
Si Si7 0.814543 0.074533 0.332145
Si Si8 0.949541 0.816574 0.324664
O O1 0.130056 0.055408 0.208409
O O2 0.062745 0.125272 0.278593
O O3 0.081494 0.105206 0.000000
O O4 0.035611 0.036402 0.153760
O O5 0.314089 0.901116 0.240192
O O6 0.225308 0.947464 0.216904
O O7 0.306908 0.000000 0.250000
O O8 0.289764 0.950491 0.000000
O O9 0.688031 0.727458 0.288377
O O10 0.767785 0.683832 0.190193
O O11 0.682373 0.635588 0.181818
O O12 0.699333 0.712445 0.000000
O O13 0.136293 0.269800 0.500000
O O14 0.138102 0.312936 0.240836
O O15 0.091854 0.224009 0.273003
O O16 0.170385 0.639403 0.500000
O O17 0.798129 0.058825 0.500000
O O18 0.955838 0.816689 0.500000
O O19 0.000000 0.797736 0.250000
#
# Coordination Sequence:
#
# PCOD8276943 Si02
#       8
#    16  16   4  16  16  16  16  16
#     4  11  23  40  57  74 101 134 177 234 293 342
#     4  11  22  37  56  79 109 145 182 223 266 315
#     4  12  26  36  56  86  98 132 182 248 300 340
#     4   9  17  31  51  75 104 139 175 213 262 326
#     4  11  22  34  52  81 109 138 176 223 275 328
#     4  10  21  36  54  79 110 144 181 218 263 326
#     4   9  19  35  53  74 101 138 180 224 276 334
#     4  11  24  40  59  80 105 138 182 229 281 339
#
# _framework density 18.312197000000001
#
# number of rings (size 3 to 8) (size 9 to 14) (size 15 to 20)
#    0.000    1.655    2.069    3.931    0.966    7.172 
#    0.000    0.000    0.000    0.000    0.000    0.000 
#    0.000    0.552    0.000    5.793    0.000    3.172 
#
# Total GULP energy -719133.295749 kJ/mol
# GULP energy per Si atom -12398.849927 kJ/mol
# Density = 1.827052 g / cm^3
# Si number density = 18.312197 Si / 1000 Ang^3
#
#
#
# Elastic Constant Matrix: (Units=GPa)
#
#
# Indices 1 2 3 4 5 6 
#
# 1 50.5919 52.0084 29.4468 0.0000 0.0000 0.0000
# 2 52.0084 109.8623 58.5535 0.0000 0.0000 0.0000
# 3 29.4468 58.5535 111.1384 0.0000 0.0000 0.0000
# 4 0.0000 0.0000 0.0000 29.3811 0.0000 0.0000
# 5 0.0000 0.0000 0.0000 0.0000 21.0833 0.0000
# 6 0.0000 0.0000 0.0000 0.0000 0.0000 23.1981
#
#
#
# Elastic Compliance Matrix: (Units=1/GPa)
#
#
# Indices 1 2 3 4 5 6 
#
# 1 0.038560 -0.017810 -0.000833 0.000000 0.000000 0.000000
# 2 -0.017810 0.020882 -0.006283 0.000000 0.000000 0.000000
# 3 -0.000833 -0.006283 0.012529 0.000000 0.000000 0.000000
# 4 0.000000 0.000000 0.000000 0.034035 0.000000 0.000000
# 5 0.000000 0.000000 0.000000 0.000000 0.047431 0.000000
# 6 0.000000 0.000000 0.000000 0.000000 0.000000 0.043107
#
#
# Mechanical properties :
#
#
# Convention : Reuss Voigt Hill
#
# Bulk Modulus (GPa) = 45.21195 61.29001 53.25098
# Shear Modulus (GPa) = 19.70298 23.50475 21.60387
#
# Velocity S-wave (km/s) = 3.28372 3.58656 3.43848
# Velocity P-wave (km/s) = 6.25462 7.11993 6.70126
#
# Compressibility (1/GPa) = 0.02211805
#
# Stress axis : x y z
#
# Youngs Moduli (GPa) = 25.93389 47.88809 79.81600
#
# Poissons Ratio (x) = 0.85288 0.06653
# Poissons Ratio (y) = 0.46188 0.50148
# Poissons Ratio (z) = 0.02162 0.30088
#
# Static dielectric constant tensor:
#      x y z
#    x 3.285160 0.000000 0.000000 
#    y 0.000000 3.415510 0.000000 
#    z 0.000000 0.000000 3.334950 
# 
# 
# High freq. dielectric constant tensor:
#      x y z
#    x 1.674760 0.000000 0.000000 
#    y 0.000000 1.707860 0.000000 
#    z 0.000000 0.000000 1.715870 
# 
# From -- ./inp_files/11810.got.cif
#   From: 2010.03.12/outbox.cif.g09.slc.cpg/sg66_6_cif.got.tgz:11810.got - 2010.04.10 21:57:39.
