data_PCOD8276383
_publ_section_title
;
Structure prediction by ZEFSAII (Michael W. Deem and Ramdas Pophale) SiO2 
 PCOD8276383
Probable space group: C C C M
;
_chemical_formula_sum "Si O2"
_cell_formula_units_Z 80
_cell_length_a 17.790347
_cell_length_b 27.775681
_cell_length_c 8.858636
_cell_angle_alpha 90.000000
_cell_angle_beta 90.000000
_cell_angle_gamma 90.000000
_cell_volume 4377.397562
_symmetry_space_group_name_H-M "C C C M"
_symmetry_group_IT_number 66
_symmetry_cell_setting 'orthorhombic'
loop_
_space_group_symop_operation_xyz
x,y,z
-x,-y,z
x,-y,1/2-z
-x,y,1/2-z
-x,-y,-z
x,y,-z
-x,y,1/2+z
x,-y,1/2+z
1/2+x,1/2+y,z
1/2-x,1/2-y,z
1/2+x,1/2-y,1/2-z
1/2-x,1/2+y,1/2-z
1/2-x,1/2-y,-z
1/2+x,1/2+y,-z
1/2-x,1/2+y,1/2+z
1/2+x,1/2-y,1/2+z
loop_
_atom_site_type_symbol
_atom_site_label
_atom_site_fract_x
_atom_site_fract_y
_atom_site_fract_z
Si Si1 0.736969 0.447861 0.323798
Si Si2 0.070138 0.051635 0.173948
Si Si3 0.296068 0.857284 0.177598
Si Si4 0.188389 0.209065 0.834371
Si Si5 0.081110 0.289658 0.179085
O O1 0.746370 0.500000 0.250000
O O2 0.756563 0.452145 0.500000
O O3 0.652641 0.425784 0.300613
O O4 0.793835 0.411391 0.242266
O O5 0.000000 0.081282 0.250000
O O6 0.072772 0.000000 0.250000
O O7 0.051275 0.046033 0.000000
O O8 0.217135 0.830610 0.216289
O O9 0.366236 0.830986 0.253227
O O10 0.307419 0.858457 0.000000
O O11 0.250000 0.250000 0.852294
O O12 0.112524 0.236159 0.779180
O O13 0.176300 0.184752 0.000000
O O14 0.000000 0.295571 0.250000
O O15 0.078168 0.296507 0.000000
#
# Coordination Sequence:
#
# PCOD8276383 Si02
#       5
#    16  16  16  16  16
#     4  10  20  34  51  73 102 138 181 226 269 312
#     4   9  16  26  43  64  88 119 156 201 250 298
#     4  11  21  33  53  79 106 139 178 217 260 312
#     4   8  16  32  52  74 102 134 165 204 255 306
#     4  10  20  35  56  81 109 139 172 213 262 315
#
# _framework density 18.275697999999998
#
# number of rings (size 3 to 8) (size 9 to 14) (size 15 to 20)
#    0.000    2.400    0.000    5.400    0.000    6.800 
#    0.000    1.000    0.000    0.600    0.000    4.200 
#    0.000    0.000    0.000    0.000    0.000    0.000 
#
# Total GULP energy -495659.851520 kJ/mol
# GULP energy per Si atom -12391.496288 kJ/mol
# Density = 1.823410 g / cm^3
# Si number density = 18.275698 Si / 1000 Ang^3
#
#
#
# Elastic Constant Matrix: (Units=GPa)
#
#
# Indices 1 2 3 4 5 6 
#
# 1 104.5266 48.7440 56.6409 0.0000 0.0000 0.0000
# 2 48.7440 81.0201 50.4355 0.0000 0.0000 0.0000
# 3 56.6409 50.4355 137.2748 0.0000 0.0000 0.0000
# 4 0.0000 0.0000 0.0000 23.3006 0.0000 0.0000
# 5 0.0000 0.0000 0.0000 0.0000 31.5889 0.0000
# 6 0.0000 0.0000 0.0000 0.0000 0.0000 21.2383
#
#
#
# Elastic Compliance Matrix: (Units=1/GPa)
#
#
# Indices 1 2 3 4 5 6 
#
# 1 0.014563 -0.006510 -0.003617 0.000000 0.000000 0.000000
# 2 -0.006510 0.018913 -0.004263 0.000000 0.000000 0.000000
# 3 -0.003617 -0.004263 0.010343 0.000000 0.000000 0.000000
# 4 0.000000 0.000000 0.000000 0.042917 0.000000 0.000000
# 5 0.000000 0.000000 0.000000 0.000000 0.031657 0.000000
# 6 0.000000 0.000000 0.000000 0.000000 0.000000 0.047085
#
#
# Mechanical properties :
#
#
# Convention : Reuss Voigt Hill
#
# Bulk Modulus (GPa) = 66.49044 70.49580 68.49312
# Shear Modulus (GPa) = 25.09174 26.35898 25.72536
#
# Velocity S-wave (km/s) = 3.70936 3.80188 3.75591
# Velocity P-wave (km/s) = 7.40315 7.61115 7.50787
#
# Compressibility (1/GPa) = 0.01503976
#
# Stress axis : x y z
#
# Youngs Moduli (GPa) = 68.66928 52.87502 96.68233
#
# Poissons Ratio (x) = 0.34420 0.34970
# Poissons Ratio (y) = 0.44701 0.41212
# Poissons Ratio (z) = 0.24837 0.22539
#
# Static dielectric constant tensor:
#      x y z
#    x 3.836240 0.000000 0.000000 
#    y 0.000000 3.210580 0.000000 
#    z 0.000000 0.000000 3.450740 
# 
# 
# High freq. dielectric constant tensor:
#      x y z
#    x 1.694330 0.000000 0.000000 
#    y 0.000000 1.684620 0.000000 
#    z 0.000000 0.000000 1.721110 
# 
# From -- ./inp_files/6661.got.cif
#   From: 2010.03.12/outbox.cif.g09.slc.cpg/sg66_4_cif.got.tgz:6661.got - 2010.04.10 21:57:39.
