data_PCOD8276659
_publ_section_title
;
Structure prediction by ZEFSAII (Michael W. Deem and Ramdas Pophale) SiO2 
 PCOD8276659
Probable space group: C C C M
;
_chemical_formula_sum "Si O2"
_cell_formula_units_Z 116
_cell_length_a 10.685332
_cell_length_b 26.032156
_cell_length_c 19.328091
_cell_angle_alpha 90.000000
_cell_angle_beta 90.000000
_cell_angle_gamma 90.000000
_cell_volume 5376.344885
_symmetry_space_group_name_H-M "C C C M"
_symmetry_group_IT_number 66
_symmetry_cell_setting 'orthorhombic'
loop_
_space_group_symop_operation_xyz
x,y,z
-x,-y,z
x,-y,1/2-z
-x,y,1/2-z
-x,-y,-z
x,y,-z
-x,y,1/2+z
x,-y,1/2+z
1/2+x,1/2+y,z
1/2-x,1/2-y,z
1/2+x,1/2-y,1/2-z
1/2-x,1/2+y,1/2-z
1/2-x,1/2-y,-z
1/2+x,1/2+y,-z
1/2-x,1/2+y,1/2+z
1/2+x,1/2-y,1/2+z
loop_
_atom_site_type_symbol
_atom_site_label
_atom_site_fract_x
_atom_site_fract_y
_atom_site_fract_z
Si Si1 0.729676 0.349935 0.334998
Si Si2 0.866904 0.979438 0.673316
Si Si3 0.439515 0.896547 0.925273
Si Si4 0.000000 0.500000 0.250000
Si Si5 0.412832 0.208527 0.921867
Si Si6 0.017060 0.205379 0.671359
Si Si7 0.654551 0.953528 0.864865
Si Si8 0.274066 0.370569 0.681050
O O1 0.789575 0.300958 0.375036
O O2 0.582167 0.340599 0.337506
O O3 0.759546 0.403277 0.372153
O O4 0.779373 0.355774 0.256461
O O5 0.871076 0.918057 0.680503
O O6 0.841786 0.000000 0.750000
O O7 0.751457 0.998783 0.622857
O O8 0.000000 0.000000 0.644383
O O9 0.518100 0.845033 0.925158
O O10 0.533569 0.945512 0.914807
O O11 0.338562 0.889490 0.866102
O O12 0.374138 0.904275 0.000000
O O13 0.090197 0.461487 0.209078
O O14 0.501203 0.249755 0.884310
O O15 0.378880 0.227129 0.000000
O O16 0.000000 0.226870 0.750000
O O17 0.152382 0.180233 0.655333
#
# Coordination Sequence:
#
# PCOD8276659 Si02
#       8
#    16  16  16   4  16  16  16  16
#     4  10  20  36  60  90 122 159 202 265 322 379
#     4  11  21  35  62  94 129 163 202 260 329 389
#     4  10  24  42  62  87 124 171 214 264 322 377
#     4  12  20  32  56  96 116 156 208 252 316 376
#     4  10  23  42  63  89 121 167 214 264 324 385
#     4  10  23  37  58  89 128 160 209 259 326 383
#     4  11  19  35  59  87 122 155 205 258 311 384
#     4  11  22  39  60  93 129 167 207 267 323 382
#
# _framework density 21.575997000000001
#
# number of rings (size 3 to 8) (size 9 to 14) (size 15 to 20)
#    0.000    1.517    2.069    2.897    5.793    3.310 
#    0.000    4.483    0.000    3.310    0.000    0.000 
#    0.000    0.552    0.000    0.000    0.000    0.000 
#
# Total GULP energy -718644.862770 kJ/mol
# GULP energy per Si atom -12390.428668 kJ/mol
# Density = 2.152689 g / cm^3
# Si number density = 21.575997 Si / 1000 Ang^3
#
#
#
# Elastic Constant Matrix: (Units=GPa)
#
#
# Indices 1 2 3 4 5 6 
#
# 1 91.4919 15.7328 40.0138 0.0000 0.0000 0.0000
# 2 15.7328 84.2188 38.2227 0.0000 0.0000 0.0000
# 3 40.0138 38.2227 114.3711 0.0000 0.0000 0.0000
# 4 0.0000 0.0000 0.0000 12.6237 0.0000 0.0000
# 5 0.0000 0.0000 0.0000 0.0000 3.5740 0.0000
# 6 0.0000 0.0000 0.0000 0.0000 0.0000 22.0041
#
#
#
# Elastic Compliance Matrix: (Units=1/GPa)
#
#
# Indices 1 2 3 4 5 6 
#
# 1 0.012917 -0.000427 -0.004377 0.000000 0.000000 0.000000
# 2 -0.000427 0.014011 -0.004533 0.000000 0.000000 0.000000
# 3 -0.004377 -0.004533 0.011790 0.000000 0.000000 0.000000
# 4 0.000000 0.000000 0.000000 0.079216 0.000000 0.000000
# 5 0.000000 0.000000 0.000000 0.000000 0.279795 0.000000
# 6 0.000000 0.000000 0.000000 0.000000 0.000000 0.045446
#
#
# Mechanical properties :
#
#
# Convention : Reuss Voigt Hill
#
# Bulk Modulus (GPa) = 49.88794 53.11337 51.50065
# Shear Modulus (GPa) = 10.67169 20.71456 15.69313
#
# Velocity S-wave (km/s) = 2.22639 3.10187 2.69985
# Velocity P-wave (km/s) = 5.45722 6.12365 5.80002
#
# Compressibility (1/GPa) = 0.02004492
#
# Stress axis : x y z
#
# Youngs Moduli (GPa) = 77.41472 71.37300 84.82021
#
# Poissons Ratio (x) = 0.03046 0.37123
# Poissons Ratio (y) = 0.03304 0.38450
# Poissons Ratio (z) = 0.33882 0.32354
#
# Static dielectric constant tensor:
#      x y z
#    x 4.001490 0.000000 0.000000 
#    y 0.000000 4.065020 0.000000 
#    z 0.000000 0.000000 4.041220 
# 
# 
# High freq. dielectric constant tensor:
#      x y z
#    x 1.850090 0.000000 0.000000 
#    y 0.000000 1.858720 0.000000 
#    z 0.000000 0.000000 1.813560 
# 
# From -- ./inp_files/39141.got.cif
#   From: 2010.03.12/outbox.cif.g09.slc.cpg/sg66_20_cif.got.tgz:39141.got - 2010.04.10 21:57:39.
