data_PCOD8276875
_publ_section_title
;
Structure prediction by ZEFSAII (Michael W. Deem and Ramdas Pophale) SiO2 
 PCOD8276875
Probable space group: C C C M
;
_chemical_formula_sum "Si O2"
_cell_formula_units_Z 56
_cell_length_a 9.868569
_cell_length_b 10.920586
_cell_length_c 19.447003
_cell_angle_alpha 90.000000
_cell_angle_beta 90.000000
_cell_angle_gamma 90.000000
_cell_volume 2095.814335
_symmetry_space_group_name_H-M "C C C M"
_symmetry_group_IT_number 66
_symmetry_cell_setting 'orthorhombic'
loop_
_space_group_symop_operation_xyz
x,y,z
-x,-y,z
x,-y,1/2-z
-x,y,1/2-z
-x,-y,-z
x,y,-z
-x,y,1/2+z
x,-y,1/2+z
1/2+x,1/2+y,z
1/2-x,1/2-y,z
1/2+x,1/2-y,1/2-z
1/2-x,1/2+y,1/2-z
1/2-x,1/2-y,-z
1/2+x,1/2+y,-z
1/2-x,1/2+y,1/2+z
1/2+x,1/2-y,1/2+z
loop_
_atom_site_type_symbol
_atom_site_label
_atom_site_fract_x
_atom_site_fract_y
_atom_site_fract_z
Si Si1 0.392410 0.107298 0.148820
Si Si2 0.186842 0.000000 0.250000
Si Si3 0.387479 0.311403 0.351722
Si Si4 0.057519 0.135879 0.500000
Si Si5 0.897193 0.613680 0.000000
O O1 0.476559 0.232464 0.157511
O O2 0.317988 0.102338 0.072959
O O3 0.500000 0.000000 0.156123
O O4 0.280070 0.095667 0.207096
O O5 0.090864 0.928624 0.196775
O O6 0.250000 0.250000 0.324978
O O7 0.355810 0.351279 0.430328
O O8 0.954020 0.248796 0.500000
O O9 0.000000 0.000000 0.500000
O O10 0.000000 0.500000 0.000000
#
# Coordination Sequence:
#
# PCOD8276875 Si02
#       5
#    16   8  16   8   8
#     4  10  20  41  69 100 140 177 240 301 348 423
#     4  12  25  44  69 110 148 189 236 302 373 440
#     4  11  24  44  73 103 137 194 247 288 365 450
#     4  10  23  48  68 104 148 187 240 319 365 419
#     4   8  18  38  70  97 120 193 241 285 353 417
#
# _framework density 26.719925
#
# number of rings (size 3 to 8) (size 9 to 14) (size 15 to 20)
#    0.000    1.714    2.857    0.857    0.000    1.143 
#   15.429    0.000    0.000    6.857    0.000    0.000 
#    0.000    0.000    0.000    0.000    0.000    0.000 
#
# Total GULP energy -346899.026279 kJ/mol
# GULP energy per Si atom -12389.250939 kJ/mol
# Density = 2.665911 g / cm^3
# Si number density = 26.719925 Si / 1000 Ang^3
#
#
#
# Elastic Constant Matrix: (Units=GPa)
#
#
# Indices 1 2 3 4 5 6 
#
# 1 47.0383 41.8763 38.1059 0.0000 0.0000 0.0000
# 2 41.8763 168.5116 67.8994 0.0000 0.0000 0.0000
# 3 38.1059 67.8994 232.1647 0.0000 0.0000 0.0000
# 4 0.0000 0.0000 0.0000 46.0890 0.0000 0.0000
# 5 0.0000 0.0000 0.0000 0.0000 -66.3073 0.0000
# 6 0.0000 0.0000 0.0000 0.0000 0.0000 40.8810
#
#
#
# Elastic Compliance Matrix: (Units=1/GPa)
#
#
# Indices 1 2 3 4 5 6 
#
# 1 0.029044 -0.006004 -0.003011 0.000000 0.000000 0.000000
# 2 -0.006004 0.007968 -0.001345 0.000000 0.000000 0.000000
# 3 -0.003011 -0.001345 0.005195 0.000000 0.000000 0.000000
# 4 0.000000 0.000000 0.000000 0.021697 0.000000 0.000000
# 5 0.000000 0.000000 0.000000 0.000000 -0.015081 0.000000
# 6 0.000000 0.000000 0.000000 0.000000 0.000000 0.024461
#
#
# Mechanical properties :
#
#
# Convention : Reuss Voigt Hill
#
# Bulk Modulus (GPa) = 46.54079 82.60864 64.57472
# Shear Modulus (GPa) = 49.42317 24.12140 36.77229
#
# Velocity S-wave (km/s) = 4.30545 3.00784 3.71376
# Velocity P-wave (km/s) = 6.49397 6.56098 6.52756
#
# Compressibility (1/GPa) = 0.02148653
#
# Stress axis : x y z
#
# Youngs Moduli (GPa) = 34.43053 125.49636 192.49887
#
# Poissons Ratio (x) = 0.75353 0.57962
# Poissons Ratio (y) = 0.20673 0.25890
# Poissons Ratio (z) = 0.10367 0.16878
#
# Static dielectric constant tensor:
#      x y z
#    x 4.158200 0.000000 0.000000 
#    y 0.000000 5.533680 0.000000 
#    z 0.000000 0.000000 5.839500 
# 
# 
# High freq. dielectric constant tensor:
#      x y z
#    x 2.027590 0.000000 0.000000 
#    y 0.000000 2.092880 0.000000 
#    z 0.000000 0.000000 2.111340 
# 
# From -- ./inp_files/47949.got.cif
#   From: 2010.03.12/outbox.cif.g09.slc.cpg/sg66_24_cif.got.tgz:47949.got - 2010.04.10 21:57:39.
