data_PCOD8276389
_publ_section_title
;
Structure prediction by ZEFSAII (Michael W. Deem and Ramdas Pophale) SiO2 
 PCOD8276389
Probable space group: C C C M
;
_chemical_formula_sum "Si O2"
_cell_formula_units_Z 64
_cell_length_a 14.586180
_cell_length_b 27.373022
_cell_length_c 8.631816
_cell_angle_alpha 90.000000
_cell_angle_beta 90.000000
_cell_angle_gamma 90.000000
_cell_volume 3446.406409
_symmetry_space_group_name_H-M "C C C M"
_symmetry_group_IT_number 66
_symmetry_cell_setting 'orthorhombic'
loop_
_space_group_symop_operation_xyz
x,y,z
-x,-y,z
x,-y,1/2-z
-x,y,1/2-z
-x,-y,-z
x,y,-z
-x,y,1/2+z
x,-y,1/2+z
1/2+x,1/2+y,z
1/2-x,1/2-y,z
1/2+x,1/2-y,1/2-z
1/2-x,1/2+y,1/2-z
1/2-x,1/2-y,-z
1/2+x,1/2+y,-z
1/2-x,1/2+y,1/2+z
1/2+x,1/2-y,1/2+z
loop_
_atom_site_type_symbol
_atom_site_label
_atom_site_fract_x
_atom_site_fract_y
_atom_site_fract_z
Si Si1 0.596691 0.052650 0.682686
Si Si2 0.650495 0.772137 0.169130
Si Si3 0.093729 0.169301 0.183901
Si Si4 0.716918 0.135185 0.180591
O O1 0.500000 0.071587 0.750000
O O2 0.587976 0.048728 0.500000
O O3 0.677342 0.089295 0.727958
O O4 0.622335 0.000000 0.750000
O O5 0.750000 0.750000 0.147348
O O6 0.589689 0.726962 0.230711
O O7 0.652624 0.817471 0.287089
O O8 0.616038 0.790813 0.000000
O O9 0.179331 0.142742 0.263190
O O10 0.000000 0.145646 0.250000
O O11 0.101461 0.162504 0.000000
O O12 0.715866 0.124006 0.000000
#
# Coordination Sequence:
#
# PCOD8276389 Si02
#       4
#    16  16  16  16
#     4  11  22  39  60  83 109 136 171 216 268 322
#     4   8  16  31  48  69 101 138 176 218 261 304
#     4  10  20  34  52  76 108 146 185 225 267 313
#     4  11  21  34  54  80 109 143 181 220 266 318
#
# _framework density 18.570069
#
# number of rings (size 3 to 8) (size 9 to 14) (size 15 to 20)
#    0.000    2.000    0.000    7.500    0.000    6.500 
#    0.000    2.500    0.000    0.750    0.000    5.250 
#    0.000    0.000    0.000    0.000    0.000    0.000 
#
# Total GULP energy -396692.130047 kJ/mol
# GULP energy per Si atom -12396.629064 kJ/mol
# Density = 1.852780 g / cm^3
# Si number density = 18.570069 Si / 1000 Ang^3
#
#
#
# Elastic Constant Matrix: (Units=GPa)
#
#
# Indices 1 2 3 4 5 6 
#
# 1 92.7440 47.1932 39.3216 0.0000 0.0000 0.0000
# 2 47.1932 83.6438 44.2052 0.0000 0.0000 0.0000
# 3 39.3216 44.2052 134.2940 0.0000 0.0000 0.0000
# 4 0.0000 0.0000 0.0000 39.6920 0.0000 0.0000
# 5 0.0000 0.0000 0.0000 0.0000 902.3517 0.0000
# 6 0.0000 0.0000 0.0000 0.0000 0.0000 22.5334
#
#
#
# Elastic Compliance Matrix: (Units=1/GPa)
#
#
# Indices 1 2 3 4 5 6 
#
# 1 0.015564 -0.007715 -0.002018 0.000000 0.000000 0.000000
# 2 -0.007715 0.018298 -0.003764 0.000000 0.000000 0.000000
# 3 -0.002018 -0.003764 0.009276 0.000000 0.000000 0.000000
# 4 0.000000 0.000000 0.000000 0.025194 0.000000 0.000000
# 5 0.000000 0.000000 0.000000 0.000000 0.001108 0.000000
# 6 0.000000 0.000000 0.000000 0.000000 0.000000 0.044379
#
#
# Mechanical properties :
#
#
# Convention : Reuss Voigt Hill
#
# Bulk Modulus (GPa) = 61.94162 63.56909 62.75535
# Shear Modulus (GPa) = 34.20147 204.91288 119.55718
#
# Velocity S-wave (km/s) = 4.29622 10.51596 8.03252
# Velocity P-wave (km/s) = 7.61827 13.48160 10.94969
#
# Compressibility (1/GPa) = 0.01614423
#
# Stress axis : x y z
#
# Youngs Moduli (GPa) = 64.25262 54.65185 107.80418
#
# Poissons Ratio (x) = 0.42164 0.21750
# Poissons Ratio (y) = 0.49571 0.40578
# Poissons Ratio (z) = 0.12963 0.20571
#
# Static dielectric constant tensor:
#      x y z
#    x 3.595860 0.000000 0.000000 
#    y 0.000000 3.373100 0.000000 
#    z 0.000000 0.000000 3.484580 
# 
# 
# High freq. dielectric constant tensor:
#      x y z
#    x 1.715090 0.000000 0.000000 
#    y 0.000000 1.697240 0.000000 
#    z 0.000000 0.000000 1.734320 
# 
# From -- ./inp_files/5082.got.cif
#   From: 2010.03.12/outbox.cif.g09.slc.cpg/sg66_3_cif.got.tgz:5082.got - 2010.04.10 21:57:39.
