data_PCOD8276229
_publ_section_title
;
Structure prediction by ZEFSAII (Michael W. Deem and Ramdas Pophale) SiO2 
 PCOD8276229
Probable space group: C C C M
;
_chemical_formula_sum "Si O2"
_cell_formula_units_Z 80
_cell_length_a 28.623499
_cell_length_b 8.500878
_cell_length_c 15.824384
_cell_angle_alpha 90.000000
_cell_angle_beta 90.000000
_cell_angle_gamma 90.000000
_cell_volume 3850.466226
_symmetry_space_group_name_H-M "C C C M"
_symmetry_group_IT_number 66
_symmetry_cell_setting 'orthorhombic'
loop_
_space_group_symop_operation_xyz
x,y,z
-x,-y,z
x,-y,1/2-z
-x,y,1/2-z
-x,-y,-z
x,y,-z
-x,y,1/2+z
x,-y,1/2+z
1/2+x,1/2+y,z
1/2-x,1/2-y,z
1/2+x,1/2-y,1/2-z
1/2-x,1/2+y,1/2-z
1/2-x,1/2-y,-z
1/2+x,1/2+y,-z
1/2-x,1/2+y,1/2+z
1/2+x,1/2-y,1/2+z
loop_
_atom_site_type_symbol
_atom_site_label
_atom_site_fract_x
_atom_site_fract_y
_atom_site_fract_z
Si Si1 0.886615 0.318609 0.341895
Si Si2 0.946456 0.311750 0.500000
Si Si3 0.296307 0.670570 0.905551
Si Si4 0.949085 0.685868 0.500000
Si Si5 0.387643 0.818934 0.844716
Si Si6 0.792258 0.870554 0.175188
O O1 0.920283 0.250805 0.415321
O O2 0.910490 0.300703 0.248859
O O3 0.875301 0.499746 0.362650
O O4 0.838684 0.227088 0.338941
O O5 0.950201 0.498650 0.500000
O O6 0.998843 0.241988 0.500000
O O7 0.250000 0.750000 0.867075
O O8 0.339563 0.720822 0.846472
O O9 0.288077 0.482233 0.907145
O O10 0.305957 0.732400 0.000000
O O11 0.923064 0.747139 0.584473
O O12 0.750000 0.750000 0.185302
O O13 0.794030 0.000000 0.250000
#
# Coordination Sequence:
#
# PCOD8276229 Si02
#       6
#    16   8  16   8  16  16
#     4  10  22  36  61  88 126 159 207 250 309 360
#     4   9  20  38  58  95 124 157 198 267 310 359
#     4  11  23  39  59  87 124 165 208 250 305 376
#     4   9  18  36  64  91 126 151 206 259 314 363
#     4  10  19  37  62  92 118 166 203 255 305 370
#     4  12  25  39  60  88 124 166 206 255 299 370
#
# _framework density 20.776703999999999
#
# number of rings (size 3 to 8) (size 9 to 14) (size 15 to 20)
#    0.000    1.600    3.000    1.800    4.200    1.200 
#    0.000    4.000    0.000    2.400    0.000    0.000 
#    0.000    0.000    0.000    0.000    0.000    0.000 
#
# Total GULP energy -495784.310297 kJ/mol
# GULP energy per Si atom -12394.607757 kJ/mol
# Density = 2.072942 g / cm^3
# Si number density = 20.776704 Si / 1000 Ang^3
#
#
#
# Elastic Constant Matrix: (Units=GPa)
#
#
# Indices 1 2 3 4 5 6 
#
# 1 170.4746 50.8192 83.4964 0.0000 0.0000 0.0000
# 2 50.8192 77.3806 35.0046 0.0000 0.0000 0.0000
# 3 83.4964 35.0046 154.9032 0.0000 0.0000 0.0000
# 4 0.0000 0.0000 0.0000 24.1405 0.0000 0.0000
# 5 0.0000 0.0000 0.0000 0.0000 18.3781 0.0000
# 6 0.0000 0.0000 0.0000 0.0000 0.0000 22.7383
#
#
#
# Elastic Compliance Matrix: (Units=1/GPa)
#
#
# Indices 1 2 3 4 5 6 
#
# 1 0.009027 -0.004152 -0.003928 0.000000 0.000000 0.000000
# 2 -0.004152 0.016304 -0.001446 0.000000 0.000000 0.000000
# 3 -0.003928 -0.001446 0.008900 0.000000 0.000000 0.000000
# 4 0.000000 0.000000 0.000000 0.041424 0.000000 0.000000
# 5 0.000000 0.000000 0.000000 0.000000 0.054413 0.000000
# 6 0.000000 0.000000 0.000000 0.000000 0.000000 0.043979
#
#
# Mechanical properties :
#
#
# Convention : Reuss Voigt Hill
#
# Bulk Modulus (GPa) = 65.87991 82.37764 74.12878
# Shear Modulus (GPa) = 25.23233 28.61393 26.92313
#
# Velocity S-wave (km/s) = 3.48868 3.71511 3.60367
# Velocity P-wave (km/s) = 6.92858 7.62482 7.28502
#
# Compressibility (1/GPa) = 0.01517913
#
# Stress axis : x y z
#
# Youngs Moduli (GPa) = 110.77314 61.33392 112.36396
#
# Poissons Ratio (x) = 0.25465 0.44134
# Poissons Ratio (y) = 0.45992 0.16252
# Poissons Ratio (z) = 0.43509 0.08871
#
# Static dielectric constant tensor:
#      x y z
#    x 3.739350 0.000000 0.000000 
#    y 0.000000 3.886350 0.000000 
#    z 0.000000 0.000000 4.189030 
# 
# 
# High freq. dielectric constant tensor:
#      x y z
#    x 1.797580 0.000000 0.000000 
#    y 0.000000 1.794580 0.000000 
#    z 0.000000 0.000000 1.833510 
# 
# From -- ./inp_files/44149.got.cif
#   From: 2010.03.12/outbox.cif.g09.slc.cpg/sg66_23_cif.got.tgz:44149.got - 2010.04.10 21:57:39.
