data_PCOD8276663
_publ_section_title
;
Structure prediction by ZEFSAII (Michael W. Deem and Ramdas Pophale) SiO2 
 PCOD8276663
Probable space group: C C C M
;
_chemical_formula_sum "Si O2"
_cell_formula_units_Z 104
_cell_length_a 20.625680
_cell_length_b 24.721854
_cell_length_c 9.885411
_cell_angle_alpha 90.000000
_cell_angle_beta 90.000000
_cell_angle_gamma 90.000000
_cell_volume 5040.620986
_symmetry_space_group_name_H-M "C C C M"
_symmetry_group_IT_number 66
_symmetry_cell_setting 'orthorhombic'
loop_
_space_group_symop_operation_xyz
x,y,z
-x,-y,z
x,-y,1/2-z
-x,y,1/2-z
-x,-y,-z
x,y,-z
-x,y,1/2+z
x,-y,1/2+z
1/2+x,1/2+y,z
1/2-x,1/2-y,z
1/2+x,1/2-y,1/2-z
1/2-x,1/2+y,1/2-z
1/2-x,1/2-y,-z
1/2+x,1/2+y,-z
1/2-x,1/2+y,1/2+z
1/2+x,1/2-y,1/2+z
loop_
_atom_site_type_symbol
_atom_site_label
_atom_site_fract_x
_atom_site_fract_y
_atom_site_fract_z
Si Si1 0.626556 0.115686 0.747717
Si Si2 0.062777 0.276960 0.156375
Si Si3 0.092292 0.547529 0.500000
Si Si4 0.053371 0.935380 0.353360
Si Si5 0.333276 0.500000 0.750000
Si Si6 0.442020 0.927266 0.000000
Si Si7 0.868630 0.166801 0.343791
Si Si8 0.770863 0.892087 0.344965
O O1 0.608818 0.171610 0.675973
O O2 0.627158 0.068793 0.634802
O O3 0.695926 0.117732 0.817146
O O4 0.573932 0.105327 0.864461
O O5 0.106618 0.225810 0.197084
O O6 0.000000 0.279711 0.250000
O O7 0.040351 0.273469 0.000000
O O8 0.098172 0.482967 0.500000
O O9 0.018256 0.565412 0.500000
O O10 0.020417 0.939082 0.500000
O O11 0.071572 0.873795 0.318112
O O12 0.000000 0.957356 0.250000
O O13 0.119114 0.970736 0.356565
O O14 0.288588 0.454942 0.679919
O O15 0.845415 0.164186 0.500000
O O16 0.809150 0.149902 0.249097
O O17 0.786623 0.877983 0.500000
#
# Coordination Sequence:
#
# PCOD8276663 Si02
#       8
#    16  16   8  16   8   8  16  16
#     4  12  25  41  65  99 127 168 211 264 317 386
#     4  11  24  43  69  98 128 166 214 266 323 382
#     4  11  24  42  68  93 128 172 208 264 331 385
#     4  10  20  36  60  91 124 159 204 255 309 364
#     4  10  23  40  62  86 123 170 214 260 310 376
#     4  11  24  44  64  95 132 162 214 270 323 385
#     4   9  22  43  65  92 126 171 213 259 315 377
#     4  11  25  43  63  92 129 169 220 264 314 382
#
# _framework density 20.632377000000002
#
# number of rings (size 3 to 8) (size 9 to 14) (size 15 to 20)
#    0.000    1.385    1.538    3.000    4.308    6.769 
#    0.000    2.308    0.000    0.000    0.000    0.000 
#    0.000    0.000    0.000    0.000    0.000    0.000 
#
# Total GULP energy -644966.201447 kJ/mol
# GULP energy per Si atom -12403.196182 kJ/mol
# Density = 2.058542 g / cm^3
# Si number density = 20.632377 Si / 1000 Ang^3
#
#
#
# Elastic Constant Matrix: (Units=GPa)
#
#
# Indices 1 2 3 4 5 6 
#
# 1 81.8228 28.2937 36.6825 0.0000 0.0000 0.0000
# 2 28.2937 116.1336 24.9742 0.0000 0.0000 0.0000
# 3 36.6825 24.9742 116.9365 0.0000 0.0000 0.0000
# 4 0.0000 0.0000 0.0000 20.1904 0.0000 0.0000
# 5 0.0000 0.0000 0.0000 0.0000 32.8019 0.0000
# 6 0.0000 0.0000 0.0000 0.0000 0.0000 23.3828
#
#
#
# Elastic Compliance Matrix: (Units=1/GPa)
#
#
# Indices 1 2 3 4 5 6 
#
# 1 0.015029 -0.002775 -0.004122 0.000000 0.000000 0.000000
# 2 -0.002775 0.009538 -0.001166 0.000000 0.000000 0.000000
# 3 -0.004122 -0.001166 0.010094 0.000000 0.000000 0.000000
# 4 0.000000 0.000000 0.000000 0.049528 0.000000 0.000000
# 5 0.000000 0.000000 0.000000 0.000000 0.030486 0.000000
# 6 0.000000 0.000000 0.000000 0.000000 0.000000 0.042766
#
#
# Mechanical properties :
#
#
# Convention : Reuss Voigt Hill
#
# Bulk Modulus (GPa) = 53.95584 54.97710 54.46647
# Shear Modulus (GPa) = 27.81700 30.27120 29.04410
#
# Velocity S-wave (km/s) = 3.67580 3.83452 3.75600
# Velocity P-wave (km/s) = 6.65005 6.80504 6.72799
#
# Compressibility (1/GPa) = 0.01853368
#
# Stress axis : x y z
#
# Youngs Moduli (GPa) = 66.53780 104.84692 99.07092
#
# Poissons Ratio (x) = 0.29096 0.40836
# Poissons Ratio (y) = 0.18465 0.11556
# Poissons Ratio (z) = 0.27426 0.12230
#
# Static dielectric constant tensor:
#      x y z
#    x 3.518710 0.000000 0.000000 
#    y 0.000000 3.965270 0.000000 
#    z 0.000000 0.000000 3.375750 
# 
# 
# High freq. dielectric constant tensor:
#      x y z
#    x 1.799420 0.000000 0.000000 
#    y 0.000000 1.818190 0.000000 
#    z 0.000000 0.000000 1.816900 
# 
# From -- ./inp_files/8195.got.cif
#   From: 2010.03.12/outbox.cif.g09.slc.cpg/sg66_5_cif.got.tgz:8195.got - 2010.04.10 21:57:39.
