data_PCOD8276320
_publ_section_title
;
Structure prediction by ZEFSAII (Michael W. Deem and Ramdas Pophale) SiO2 
 PCOD8276320
Probable space group: C C C M
;
_chemical_formula_sum "Si O2"
_cell_formula_units_Z 96
_cell_length_a 30.159629
_cell_length_b 20.928703
_cell_length_c 8.818751
_cell_angle_alpha 90.000000
_cell_angle_beta 90.000000
_cell_angle_gamma 90.000000
_cell_volume 5566.412545
_symmetry_space_group_name_H-M "C C C M"
_symmetry_group_IT_number 66
_symmetry_cell_setting 'orthorhombic'
loop_
_space_group_symop_operation_xyz
x,y,z
-x,-y,z
x,-y,1/2-z
-x,y,1/2-z
-x,-y,-z
x,y,-z
-x,y,1/2+z
x,-y,1/2+z
1/2+x,1/2+y,z
1/2-x,1/2-y,z
1/2+x,1/2-y,1/2-z
1/2-x,1/2+y,1/2-z
1/2-x,1/2-y,-z
1/2+x,1/2+y,-z
1/2-x,1/2+y,1/2+z
1/2+x,1/2-y,1/2+z
loop_
_atom_site_type_symbol
_atom_site_label
_atom_site_fract_x
_atom_site_fract_y
_atom_site_fract_z
Si Si1 0.564465 0.436375 0.173587
Si Si2 0.366427 0.264506 0.321959
Si Si3 0.044948 0.802565 0.679857
Si Si4 0.163511 0.095078 0.330026
Si Si5 0.213388 0.698508 0.320049
Si Si6 0.250206 0.063245 0.823576
O O1 0.544241 0.500000 0.250000
O O2 0.547987 0.375970 0.267897
O O3 0.617470 0.442190 0.180146
O O4 0.548169 0.429483 0.000000
O O5 0.374180 0.255795 0.500000
O O6 0.414056 0.260552 0.240669
O O7 0.343816 0.331715 0.282889
O O8 0.334017 0.210431 0.257349
O O9 0.043710 0.799110 0.500000
O O10 0.000000 0.772894 0.750000
O O11 0.183237 0.090523 0.500000
O O12 0.197889 0.064123 0.213499
O O13 0.208012 0.701922 0.500000
O O14 0.250000 0.750000 0.264984
O O15 0.227677 0.628319 0.262559
O O16 0.272264 0.000000 0.750000
O O17 0.257143 0.057540 0.000000
#
# Coordination Sequence:
#
# PCOD8276320 Si02
#       6
#    16  16  16  16  16  16
#     4  10  20  33  47  68  94 127 170 214 261 313
#     4  10  20  34  54  78 101 130 170 215 259 311
#     4  11  22  37  55  73  97 127 162 211 263 313
#     4   9  18  31  47  68  96 129 169 213 257 302
#     4  10  20  35  53  76 104 138 178 218 261 310
#     4  11  22  33  48  70 102 138 175 217 259 307
#
# _framework density 17.246296000000001
#
# number of rings (size 3 to 8) (size 9 to 14) (size 15 to 20)
#    0.000    1.833    1.667    4.500    0.000    6.667 
#    0.000    1.667    0.000    0.000    0.000    0.000 
#    0.000    0.667    0.000    7.000    0.000    3.833 
#
# Total GULP energy -595267.108866 kJ/mol
# GULP energy per Si atom -12401.398101 kJ/mol
# Density = 1.720704 g / cm^3
# Si number density = 17.246296 Si / 1000 Ang^3
#
#
#
# Elastic Constant Matrix: (Units=GPa)
#
#
# Indices 1 2 3 4 5 6 
#
# 1 102.7787 42.6701 45.2860 0.0000 0.0000 0.0000
# 2 42.6701 90.3937 36.9401 0.0000 0.0000 0.0000
# 3 45.2860 36.9401 93.2597 0.0000 0.0000 0.0000
# 4 0.0000 0.0000 0.0000 24.6939 0.0000 0.0000
# 5 0.0000 0.0000 0.0000 0.0000 29.3454 0.0000
# 6 0.0000 0.0000 0.0000 0.0000 0.0000 6.3454
#
#
#
# Elastic Compliance Matrix: (Units=1/GPa)
#
#
# Indices 1 2 3 4 5 6 
#
# 1 0.013752 -0.004489 -0.004900 0.000000 0.000000 0.000000
# 2 -0.004489 0.014665 -0.003629 0.000000 0.000000 0.000000
# 3 -0.004900 -0.003629 0.014539 0.000000 0.000000 0.000000
# 4 0.000000 0.000000 0.000000 0.040496 0.000000 0.000000
# 5 0.000000 0.000000 0.000000 0.000000 0.034077 0.000000
# 6 0.000000 0.000000 0.000000 0.000000 0.000000 0.157596
#
#
# Mechanical properties :
#
#
# Convention : Reuss Voigt Hill
#
# Bulk Modulus (GPa) = 59.09897 59.58048 59.33973
# Shear Modulus (GPa) = 16.29720 22.84599 19.57160
#
# Velocity S-wave (km/s) = 3.07737 3.64358 3.37238
# Velocity P-wave (km/s) = 6.85339 7.23344 7.04598
#
# Compressibility (1/GPa) = 0.01692077
#
# Stress axis : x y z
#
# Youngs Moduli (GPa) = 72.71443 68.19025 68.77884
#
# Poissons Ratio (x) = 0.30614 0.33700
# Poissons Ratio (y) = 0.32645 0.24958
# Poissons Ratio (z) = 0.35628 0.24744
#
# Static dielectric constant tensor:
#      x y z
#    x 3.217620 0.000000 0.000000 
#    y 0.000000 3.142280 0.000000 
#    z 0.000000 0.000000 3.225460 
# 
# 
# High freq. dielectric constant tensor:
#      x y z
#    x 1.653710 0.000000 0.000000 
#    y 0.000000 1.632500 0.000000 
#    z 0.000000 0.000000 1.676910 
# 
# From -- ./inp_files/8013.got.cif
#   From: 2010.03.12/outbox.cif.g09.slc.cpg/sg66_5_cif.got.tgz:8013.got - 2010.04.10 21:57:39.
