data_PCOD8276590
_publ_section_title
;
Structure prediction by ZEFSAII (Michael W. Deem and Ramdas Pophale) SiO2 
 PCOD8276590
Probable space group: C C C M
;
_chemical_formula_sum "Si O2"
_cell_formula_units_Z 72
_cell_length_a 13.989182
_cell_length_b 12.348155
_cell_length_c 22.321839
_cell_angle_alpha 90.000000
_cell_angle_beta 90.000000
_cell_angle_gamma 90.000000
_cell_volume 3855.887586
_symmetry_space_group_name_H-M "C C C M"
_symmetry_group_IT_number 66
_symmetry_cell_setting 'orthorhombic'
loop_
_space_group_symop_operation_xyz
x,y,z
-x,-y,z
x,-y,1/2-z
-x,y,1/2-z
-x,-y,-z
x,y,-z
-x,y,1/2+z
x,-y,1/2+z
1/2+x,1/2+y,z
1/2-x,1/2-y,z
1/2+x,1/2-y,1/2-z
1/2-x,1/2+y,1/2-z
1/2-x,1/2-y,-z
1/2+x,1/2+y,-z
1/2-x,1/2+y,1/2+z
1/2+x,1/2-y,1/2+z
loop_
_atom_site_type_symbol
_atom_site_label
_atom_site_fract_x
_atom_site_fract_y
_atom_site_fract_z
Si Si1 0.500000 0.799790 0.250000
Si Si2 0.791706 0.946121 0.658808
Si Si3 0.641224 0.288163 0.932881
Si Si4 0.325970 0.334428 0.782727
Si Si5 0.076960 0.411115 0.363848
O O1 0.571894 0.722040 0.215063
O O2 0.554236 0.876943 0.296140
O O3 0.861751 0.895220 0.608501
O O4 0.793211 0.867096 0.716014
O O5 0.683116 0.961664 0.635957
O O6 0.834124 0.062795 0.674081
O O7 0.750000 0.250000 0.931721
O O8 0.573125 0.193198 0.907405
O O9 0.607340 0.316924 0.000000
O O10 0.250000 0.250000 0.809268
O O11 0.000000 0.500000 0.386552
#
# Coordination Sequence:
#
# PCOD8276590 Si02
#       5
#     8  16  16  16  16
#     4  12  21  33  54  78 116 150 180 226 286 344
#     4  10  20  36  54  79 114 147 186 233 281 337
#     4   9  18  37  59  78 108 150 192 234 279 334
#     4  11  20  34  53  81 116 146 182 232 283 345
#     4  11  21  33  54  85 113 145 186 233 289 339
#
# _framework density 18.672743000000001
#
# number of rings (size 3 to 8) (size 9 to 14) (size 15 to 20)
#    0.000    1.556    4.444    2.333    3.111    2.222 
#    0.000    0.000    0.000    3.333    0.000    0.000 
#    0.000    0.000    0.000    0.000    0.000    0.000 
#
# Total GULP energy -446461.843764 kJ/mol
# GULP energy per Si atom -12401.717882 kJ/mol
# Density = 1.863024 g / cm^3
# Si number density = 18.672743 Si / 1000 Ang^3
#
#
#
# Elastic Constant Matrix: (Units=GPa)
#
#
# Indices 1 2 3 4 5 6 
#
# 1 78.5335 41.8578 13.1591 0.0000 0.0000 0.0000
# 2 41.8578 126.5578 56.4358 0.0000 0.0000 0.0000
# 3 13.1591 56.4358 111.0531 0.0000 0.0000 0.0000
# 4 0.0000 0.0000 0.0000 25.7197 0.0000 0.0000
# 5 0.0000 0.0000 0.0000 0.0000 14.3551 0.0000
# 6 0.0000 0.0000 0.0000 0.0000 0.0000 29.9325
#
#
#
# Elastic Compliance Matrix: (Units=1/GPa)
#
#
# Indices 1 2 3 4 5 6 
#
# 1 0.015543 -0.005585 0.000997 0.000000 0.000000 0.000000
# 2 -0.005585 0.012224 -0.005550 0.000000 0.000000 0.000000
# 3 0.000997 -0.005550 0.011707 0.000000 0.000000 0.000000
# 4 0.000000 0.000000 0.000000 0.038881 0.000000 0.000000
# 5 0.000000 0.000000 0.000000 0.000000 0.069662 0.000000
# 6 0.000000 0.000000 0.000000 0.000000 0.000000 0.033408
#
#
# Mechanical properties :
#
#
# Convention : Reuss Voigt Hill
#
# Bulk Modulus (GPa) = 52.09258 59.89443 55.99350
# Shear Modulus (GPa) = 24.02672 27.64757 25.83715
#
# Velocity S-wave (km/s) = 3.59099 3.85208 3.72382
# Velocity P-wave (km/s) = 6.71951 7.20626 6.96714
#
# Compressibility (1/GPa) = 0.01919659
#
# Stress axis : x y z
#
# Youngs Moduli (GPa) = 64.33640 81.80801 85.41800
#
# Poissons Ratio (x) = 0.45691 -0.08512
# Poissons Ratio (y) = 0.35933 0.47408
# Poissons Ratio (z) = -0.06411 0.45405
#
# Static dielectric constant tensor:
#      x y z
#    x 3.311970 0.000000 0.000000 
#    y 0.000000 3.491650 0.000000 
#    z 0.000000 0.000000 3.381750 
# 
# 
# High freq. dielectric constant tensor:
#      x y z
#    x 1.713400 0.000000 0.000000 
#    y 0.000000 1.730790 0.000000 
#    z 0.000000 0.000000 1.694500 
# 
# From -- ./inp_files/57810.got.cif
#   From: 2010.03.12/outbox.cif.g09.slc.cpg/sg66_29_cif.got.tgz:57810.got - 2010.04.10 21:57:39.
