data_PCOD8276177
_publ_section_title
;
Structure prediction by ZEFSAII (Michael W. Deem and Ramdas Pophale) SiO2 
 PCOD8276177
Probable space group: C C C M
;
_chemical_formula_sum "Si O2"
_cell_formula_units_Z 104
_cell_length_a 24.280792
_cell_length_b 9.362691
_cell_length_c 23.926583
_cell_angle_alpha 90.000000
_cell_angle_beta 90.000000
_cell_angle_gamma 90.000000
_cell_volume 5439.315118
_symmetry_space_group_name_H-M "C C C M"
_symmetry_group_IT_number 66
_symmetry_cell_setting 'orthorhombic'
loop_
_space_group_symop_operation_xyz
x,y,z
-x,-y,z
x,-y,1/2-z
-x,y,1/2-z
-x,-y,-z
x,y,-z
-x,y,1/2+z
x,-y,1/2+z
1/2+x,1/2+y,z
1/2-x,1/2-y,z
1/2+x,1/2-y,1/2-z
1/2-x,1/2+y,1/2-z
1/2-x,1/2-y,-z
1/2+x,1/2+y,-z
1/2-x,1/2+y,1/2+z
1/2+x,1/2-y,1/2+z
loop_
_atom_site_type_symbol
_atom_site_label
_atom_site_fract_x
_atom_site_fract_y
_atom_site_fract_z
Si Si1 0.476946 0.157475 0.000000
Si Si2 0.813546 0.707454 0.500000
Si Si3 0.397061 0.526327 0.884184
Si Si4 0.423201 0.375453 0.500000
Si Si5 0.574951 0.777535 0.883647
Si Si6 0.390732 0.955230 0.189096
Si Si7 0.812923 0.275161 0.880776
Si Si8 0.974084 0.795492 0.309746
O O1 0.437245 0.180330 0.947207
O O2 0.500000 0.000000 0.000000
O O3 0.532006 0.250980 0.000000
O O4 0.750000 0.750000 0.500000
O O5 0.859355 0.830411 0.500000
O O6 0.821209 0.633111 0.560761
O O7 0.382993 0.357666 0.878232
O O8 0.341482 0.619643 0.885998
O O9 0.433496 0.579711 0.831193
O O10 0.431649 0.536697 0.942603
O O11 0.519158 0.722023 0.856813
O O12 0.599342 0.910849 0.850713
O O13 0.339048 0.866757 0.167663
O O14 0.444642 0.857815 0.193852
O O15 0.372282 0.000000 0.250000
O O16 0.750000 0.250000 0.865444
O O17 0.000000 0.837566 0.250000
#
# Coordination Sequence:
#
# PCOD8276177 Si02
#       8
#     8   8  16   8  16  16  16  16
#     4  12  25  35  56  87 125 164 197 236 294 360
#     4   8  16  33  62  88 105 140 197 253 285 342
#     4  10  22  37  58  88 118 154 199 245 293 351
#     4  10  19  36  56  81 122 157 193 236 301 348
#     4  12  24  36  56  87 124 156 194 242 293 349
#     4  11  23  40  58  84 116 159 198 244 292 356
#     4   9  20  41  66  87 113 151 201 251 309 362
#     4  11  21  37  57  79 119 160 204 230 278 348
#
# _framework density 19.120055000000001
#
# number of rings (size 3 to 8) (size 9 to 14) (size 15 to 20)
#    0.000    1.538    3.077    2.308    4.308    1.846 
#    0.000    2.308    0.000    0.000    0.000    7.538 
#    0.000    0.000    0.000    0.000    0.000    0.000 
#
# Total GULP energy -644263.354099 kJ/mol
# GULP energy per Si atom -12389.679887 kJ/mol
# Density = 1.907654 g / cm^3
# Si number density = 19.120055 Si / 1000 Ang^3
#
#
#
# Elastic Constant Matrix: (Units=GPa)
#
#
# Indices 1 2 3 4 5 6 
#
# 1 85.8677 39.2502 42.5979 0.0000 0.0000 0.0000
# 2 39.2502 128.1137 52.2639 0.0000 0.0000 0.0000
# 3 42.5979 52.2639 152.6699 0.0000 0.0000 0.0000
# 4 0.0000 0.0000 0.0000 21.4268 0.0000 0.0000
# 5 0.0000 0.0000 0.0000 0.0000 29.4003 0.0000
# 6 0.0000 0.0000 0.0000 0.0000 0.0000 10.3565
#
#
#
# Elastic Compliance Matrix: (Units=1/GPa)
#
#
# Indices 1 2 3 4 5 6 
#
# 1 0.014607 -0.003269 -0.002956 0.000000 0.000000 0.000000
# 2 -0.003269 0.009804 -0.002444 0.000000 0.000000 0.000000
# 3 -0.002956 -0.002444 0.008212 0.000000 0.000000 0.000000
# 4 0.000000 0.000000 0.000000 0.046671 0.000000 0.000000
# 5 0.000000 0.000000 0.000000 0.000000 0.034013 0.000000
# 6 0.000000 0.000000 0.000000 0.000000 0.000000 0.096557
#
#
# Mechanical properties :
#
#
# Convention : Reuss Voigt Hill
#
# Bulk Modulus (GPa) = 65.43063 70.54168 67.98616
# Shear Modulus (GPa) = 21.52410 27.73933 24.63171
#
# Velocity S-wave (km/s) = 3.35884 3.81307 3.59314
# Velocity P-wave (km/s) = 7.02407 7.50734 7.26972
#
# Compressibility (1/GPa) = 0.01528336
#
# Stress axis : x y z
#
# Youngs Moduli (GPa) = 68.46146 101.99727 121.77711
#
# Poissons Ratio (x) = 0.33343 0.36003
# Poissons Ratio (y) = 0.22380 0.29765
# Poissons Ratio (z) = 0.20241 0.24930
#
# Static dielectric constant tensor:
#      x y z
#    x 3.338870 0.000000 0.000000 
#    y 0.000000 3.602940 0.000000 
#    z 0.000000 0.000000 3.910910 
# 
# 
# High freq. dielectric constant tensor:
#      x y z
#    x 1.720240 0.000000 0.000000 
#    y 0.000000 1.733540 0.000000 
#    z 0.000000 0.000000 1.770360 
# 
# From -- ./inp_files/60193.got.cif
#   From: 2010.03.12/outbox.cif.g09.slc.cpg/sg66_31_cif.got.tgz:60193.got - 2010.04.10 21:57:39.
