data_PCOD8276474
_publ_section_title
;
Structure prediction by ZEFSAII (Michael W. Deem and Ramdas Pophale) SiO2 
 PCOD8276474
Probable space group: C C C M
;
_chemical_formula_sum "Si O2"
_cell_formula_units_Z 112
_cell_length_a 15.621263
_cell_length_b 25.047013
_cell_length_c 14.272797
_cell_angle_alpha 90.000000
_cell_angle_beta 90.000000
_cell_angle_gamma 90.000000
_cell_volume 5584.459869
_symmetry_space_group_name_H-M "C C C M"
_symmetry_group_IT_number 66
_symmetry_cell_setting 'orthorhombic'
loop_
_space_group_symop_operation_xyz
x,y,z
-x,-y,z
x,-y,1/2-z
-x,y,1/2-z
-x,-y,-z
x,y,-z
-x,y,1/2+z
x,-y,1/2+z
1/2+x,1/2+y,z
1/2-x,1/2-y,z
1/2+x,1/2-y,1/2-z
1/2-x,1/2+y,1/2-z
1/2-x,1/2-y,-z
1/2+x,1/2+y,-z
1/2-x,1/2+y,1/2+z
1/2+x,1/2-y,1/2+z
loop_
_atom_site_type_symbol
_atom_site_label
_atom_site_fract_x
_atom_site_fract_y
_atom_site_fract_z
Si Si1 0.384475 0.959044 0.388773
Si Si2 0.166162 0.677849 0.109654
Si Si3 0.140857 0.204116 0.390273
Si Si4 0.908598 0.020437 0.895327
Si Si5 0.704568 0.583113 0.105989
Si Si6 0.568594 0.074794 0.111738
Si Si7 0.594458 0.614061 0.269108
O O1 0.384295 0.963516 0.500000
O O2 0.301112 0.926094 0.356203
O O3 0.469058 0.926752 0.355077
O O4 0.386080 0.020430 0.350389
O O5 0.130041 0.734982 0.144848
O O6 0.266542 0.678164 0.132057
O O7 0.116753 0.627003 0.155162
O O8 0.151580 0.675726 0.000000
O O9 0.119124 0.199282 0.500000
O O10 0.079251 0.168754 0.326418
O O11 0.866189 0.067057 0.833194
O O12 0.840775 0.973564 0.893768
O O13 0.920993 0.043385 0.000000
O O14 0.000000 0.000000 0.856953
O O15 0.653446 0.622378 0.176577
O O16 0.703661 0.607283 0.000000
O O17 0.573289 0.076779 0.000000
O O18 0.500000 0.593240 0.250000
#
# Coordination Sequence:
#
# PCOD8276474 Si02
#       7
#    16  16  16  16  16  16  16
#     4   8  15  27  46  80 115 142 177 210 253 327
#     4   8  15  31  56  84 109 133 172 226 284 331
#     4   9  19  34  55  84 109 135 179 231 278 325
#     4  10  20  35  52  74 105 140 178 220 269 329
#     4  10  21  34  50  75 111 149 182 217 260 323
#     4   8  13  25  50  81 111 140 171 214 265 323
#     4  12  23  34  53  76 107 141 181 224 271 321
#
# _framework density 20.055655000000002
#
# number of rings (size 3 to 8) (size 9 to 14) (size 15 to 20)
#    0.000    2.714    1.429    2.571    2.000    0.571 
#    0.000    0.000    6.286    0.000    0.000    2.000 
#    0.000    0.000    0.000    0.000    0.000    0.000 
#
# Total GULP energy -693926.816569 kJ/mol
# GULP energy per Si atom -12391.550296 kJ/mol
# Density = 2.001001 g / cm^3
# Si number density = 20.055655 Si / 1000 Ang^3
#
#
#
# Elastic Constant Matrix: (Units=GPa)
#
#
# Indices 1 2 3 4 5 6 
#
# 1 89.9995 27.9416 21.8792 0.0000 0.0000 0.0000
# 2 27.9416 101.2598 31.2122 0.0000 0.0000 0.0000
# 3 21.8792 31.2122 59.7513 0.0000 0.0000 0.0000
# 4 0.0000 0.0000 0.0000 10.7546 0.0000 0.0000
# 5 0.0000 0.0000 0.0000 0.0000 12.9511 0.0000
# 6 0.0000 0.0000 0.0000 0.0000 0.0000 26.9164
#
#
#
# Elastic Compliance Matrix: (Units=1/GPa)
#
#
# Indices 1 2 3 4 5 6 
#
# 1 0.012694 -0.002467 -0.003359 0.000000 0.000000 0.000000
# 2 -0.002467 0.012250 -0.005496 0.000000 0.000000 0.000000
# 3 -0.003359 -0.005496 0.020837 0.000000 0.000000 0.000000
# 4 0.000000 0.000000 0.000000 0.092984 0.000000 0.000000
# 5 0.000000 0.000000 0.000000 0.000000 0.077214 0.000000
# 6 0.000000 0.000000 0.000000 0.000000 0.000000 0.037152
#
#
# Mechanical properties :
#
#
# Convention : Reuss Voigt Hill
#
# Bulk Modulus (GPa) = 43.22178 45.89742 44.55960
# Shear Modulus (GPa) = 17.63746 21.45624 19.54685
#
# Velocity S-wave (km/s) = 2.96873 3.27438 3.12529
# Velocity P-wave (km/s) = 5.77485 6.10165 5.94050
#
# Compressibility (1/GPa) = 0.02313648
#
# Stress axis : x y z
#
# Youngs Moduli (GPa) = 78.77847 81.62979 47.99164
#
# Poissons Ratio (x) = 0.20140 0.16122
# Poissons Ratio (y) = 0.19437 0.26375
# Poissons Ratio (z) = 0.26464 0.44862
#
# Static dielectric constant tensor:
#      x y z
#    x 3.892700 0.000000 0.000000 
#    y 0.000000 3.670210 0.000000 
#    z 0.000000 0.000000 3.569760 
# 
# 
# High freq. dielectric constant tensor:
#      x y z
#    x 1.775710 0.000000 0.000000 
#    y 0.000000 1.757560 0.000000 
#    z 0.000000 0.000000 1.766290 
# 
# From -- ./inp_files/28878.got.cif
#   From: 2010.03.12/outbox.cif.g09.slc.cpg/sg66_15_cif.got.tgz:28878.got - 2010.04.10 21:57:39.
