data_PCOD8276348
_publ_section_title
;
Structure prediction by ZEFSAII (Michael W. Deem and Ramdas Pophale) SiO2 
 PCOD8276348
Probable space group: C C C M
;
_chemical_formula_sum "Si O2"
_cell_formula_units_Z 96
_cell_length_a 14.764923
_cell_length_b 17.042504
_cell_length_c 20.417493
_cell_angle_alpha 90.000000
_cell_angle_beta 90.000000
_cell_angle_gamma 90.000000
_cell_volume 5137.679475
_symmetry_space_group_name_H-M "C C C M"
_symmetry_group_IT_number 66
_symmetry_cell_setting 'orthorhombic'
loop_
_space_group_symop_operation_xyz
x,y,z
-x,-y,z
x,-y,1/2-z
-x,y,1/2-z
-x,-y,-z
x,y,-z
-x,y,1/2+z
x,-y,1/2+z
1/2+x,1/2+y,z
1/2-x,1/2-y,z
1/2+x,1/2-y,1/2-z
1/2-x,1/2+y,1/2-z
1/2-x,1/2-y,-z
1/2+x,1/2+y,-z
1/2-x,1/2+y,1/2+z
1/2+x,1/2-y,1/2+z
loop_
_atom_site_type_symbol
_atom_site_label
_atom_site_fract_x
_atom_site_fract_y
_atom_site_fract_z
Si Si1 0.749578 0.440055 0.574765
Si Si2 0.935368 0.851024 0.925718
Si Si3 0.253736 0.057186 0.310391
Si Si4 0.435449 0.356841 0.310046
Si Si5 0.155573 0.706930 0.770163
Si Si6 0.843976 0.294870 0.623969
O O1 0.753540 0.468618 0.500000
O O2 0.652733 0.402073 0.591936
O O3 0.765581 0.514654 0.620496
O O4 0.829581 0.377184 0.587000
O O5 0.914658 0.758734 0.915845
O O6 0.016177 0.877891 0.878306
O O7 0.967016 0.865667 0.000000
O O8 0.153617 0.091464 0.303020
O O9 0.329513 0.125702 0.308944
O O10 0.272505 0.000000 0.250000
O O11 0.500000 0.379754 0.250000
O O12 0.413112 0.263723 0.308782
O O13 0.250000 0.750000 0.761791
O O14 0.117686 0.690243 0.697087
O O15 0.750000 0.250000 0.627058
#
# Coordination Sequence:
#
# PCOD8276348 Si02
#       6
#    16  16  16  16  16  16
#     4  10  20  33  52  79 109 139 171 210 257 308
#     4  10  20  33  52  79 109 139 171 210 257 308
#     4  11  21  34  53  77 105 137 173 213 258 307
#     4  11  21  34  53  77 105 137 173 213 258 307
#     4   9  18  33  53  75  99 133 178 217 247 297
#     4   9  15  30  53  77 102 133 175 216 251 296
#
# _framework density 18.685479000000001
#
# number of rings (size 3 to 8) (size 9 to 14) (size 15 to 20)
#    0.000    2.000    3.333    1.500    0.000    5.000 
#    0.000    2.500    0.000    6.500    0.000    2.333 
#    0.000    0.000    0.000    0.000    0.000    0.000 
#
# Total GULP energy -595155.819516 kJ/mol
# GULP energy per Si atom -12399.079573 kJ/mol
# Density = 1.864295 g / cm^3
# Si number density = 18.685479 Si / 1000 Ang^3
#
#
#
# Elastic Constant Matrix: (Units=GPa)
#
#
# Indices 1 2 3 4 5 6 
#
# 1 1.4631 -6.8672 0.7985 0.0000 0.0000 0.0000
# 2 -6.8672 85.2883 31.8722 0.0000 0.0000 0.0000
# 3 0.7985 31.8722 110.7750 0.0000 0.0000 0.0000
# 4 0.0000 0.0000 0.0000 30.9106 0.0000 0.0000
# 5 0.0000 0.0000 0.0000 0.0000 19.2244 0.0000
# 6 0.0000 0.0000 0.0000 0.0000 0.0000 21.9809
#
#
#
# Elastic Compliance Matrix: (Units=1/GPa)
#
#
# Indices 1 2 3 4 5 6 
#
# 1 1.256863 0.117185 -0.042776 0.000000 0.000000 0.000000
# 2 0.117185 0.024063 -0.007768 0.000000 0.000000 0.000000
# 3 -0.042776 -0.007768 0.011571 0.000000 0.000000 0.000000
# 4 0.000000 0.000000 0.000000 0.032351 0.000000 0.000000
# 5 0.000000 0.000000 0.000000 0.000000 0.052017 0.000000
# 6 0.000000 0.000000 0.000000 0.000000 0.000000 0.045494
#
#
# Mechanical properties :
#
#
# Convention : Reuss Voigt Hill
#
# Bulk Modulus (GPa) = 0.70137 27.68150 14.19143
# Shear Modulus (GPa) = 2.83392 25.87137 14.35265
#
# Velocity S-wave (km/s) = 1.23286 3.72502 2.77450
# Velocity P-wave (km/s) = 1.55008 5.77474 4.22791
#
# Compressibility (1/GPa) = 1.42577776
#
# Stress axis : x y z
#
# Youngs Moduli (GPa) = 0.79563 41.55693 86.42498
#
# Poissons Ratio (x) = -4.86985 3.69695
# Poissons Ratio (y) = -0.09324 0.67137
# Poissons Ratio (z) = 0.03403 0.32282
#
# Static dielectric constant tensor:
#      x y z
#    x 3.206850 0.000000 0.000000 
#    y 0.000000 3.535760 0.000000 
#    z 0.000000 0.000000 3.390990 
# 
# 
# High freq. dielectric constant tensor:
#      x y z
#    x 1.692910 0.000000 0.000000 
#    y 0.000000 1.720700 0.000000 
#    z 0.000000 0.000000 1.724430 
# 
# From -- ./inp_files/41759.got.cif
#   From: 2010.03.12/outbox.cif.g09.slc.cpg/sg66_21_cif.got.tgz:41759.got - 2010.04.10 21:57:39.
