data_PCOD8276780
_publ_section_title
;
Structure prediction by ZEFSAII (Michael W. Deem and Ramdas Pophale) SiO2 
 PCOD8276780
Probable space group: C C C M
;
_chemical_formula_sum "Si O2"
_cell_formula_units_Z 88
_cell_length_a 25.298916
_cell_length_b 13.692426
_cell_length_c 13.229224
_cell_angle_alpha 90.000000
_cell_angle_beta 90.000000
_cell_angle_gamma 90.000000
_cell_volume 4582.649962
_symmetry_space_group_name_H-M "C C C M"
_symmetry_group_IT_number 66
_symmetry_cell_setting 'orthorhombic'
loop_
_space_group_symop_operation_xyz
x,y,z
-x,-y,z
x,-y,1/2-z
-x,y,1/2-z
-x,-y,-z
x,y,-z
-x,y,1/2+z
x,-y,1/2+z
1/2+x,1/2+y,z
1/2-x,1/2-y,z
1/2+x,1/2-y,1/2-z
1/2-x,1/2+y,1/2-z
1/2-x,1/2-y,-z
1/2+x,1/2+y,-z
1/2-x,1/2+y,1/2+z
1/2+x,1/2-y,1/2+z
loop_
_atom_site_type_symbol
_atom_site_label
_atom_site_fract_x
_atom_site_fract_y
_atom_site_fract_z
Si Si1 0.384847 0.097449 0.687286
Si Si2 0.843715 0.108543 0.289040
Si Si3 0.943583 0.772523 0.202635
Si Si4 0.438902 0.016054 0.500000
Si Si5 0.811242 0.750272 0.389149
Si Si6 0.415272 0.800196 0.500000
Si Si7 0.806162 0.808737 0.000000
O O1 0.414105 0.180465 0.749713
O O2 0.425334 0.075948 0.598818
O O3 0.330475 0.141897 0.643719
O O4 0.371367 0.000000 0.750000
O O5 0.906293 0.131490 0.298335
O O6 0.822963 0.174672 0.198891
O O7 0.812480 0.127265 0.396076
O O8 0.834722 0.000000 0.250000
O O9 0.000000 0.799165 0.250000
O O10 0.952065 0.739190 0.088893
O O11 0.500000 0.000000 0.500000
O O12 0.407160 0.915451 0.500000
O O13 0.836730 0.777447 0.500000
O O14 0.750000 0.750000 0.405219
O O15 0.354463 0.766555 0.500000
O O16 0.750000 0.750000 0.000000
#
# Coordination Sequence:
#
# PCOD8276780 Si02
#       7
#    16  16  16   8  16   8   8
#     4  11  22  36  58  89 122 157 203 251 303 381
#     4  10  23  41  64  91 121 159 211 261 301 374
#     4  10  21  38  59  85 122 161 198 252 312 363
#     4  12  22  34  56  84 123 159 197 244 304 373
#     4  10  22  42  61  86 124 160 201 259 314 364
#     4  10  20  38  57  87 121 155 206 249 295 379
#     4  10  22  44  68  91 125 164 211 264 319 367
#
# _framework density 19.202863000000001
#
# number of rings (size 3 to 8) (size 9 to 14) (size 15 to 20)
#    0.000    1.636    2.727    1.636    1.273    1.091 
#    4.909    0.000    0.000    3.273    0.000    0.000 
#    0.000    0.000    0.000    0.000    0.000    0.000 
#
# Total GULP energy -545188.269012 kJ/mol
# GULP energy per Si atom -12390.642478 kJ/mol
# Density = 1.915916 g / cm^3
# Si number density = 19.202863 Si / 1000 Ang^3
#
#
#
# Elastic Constant Matrix: (Units=GPa)
#
#
# Indices 1 2 3 4 5 6 
#
# 1 112.8604 37.9456 48.6254 0.0000 0.0000 0.0000
# 2 37.9456 108.1482 57.0586 0.0000 0.0000 0.0000
# 3 48.6254 57.0586 172.8334 0.0000 0.0000 0.0000
# 4 0.0000 0.0000 0.0000 -8.1610 0.0000 0.0000
# 5 0.0000 0.0000 0.0000 0.0000 43.0823 0.0000
# 6 0.0000 0.0000 0.0000 0.0000 0.0000 17.7771
#
#
#
# Elastic Compliance Matrix: (Units=1/GPa)
#
#
# Indices 1 2 3 4 5 6 
#
# 1 0.010659 -0.002613 -0.002136 0.000000 0.000000 0.000000
# 2 -0.002613 0.011837 -0.003173 0.000000 0.000000 0.000000
# 3 -0.002136 -0.003173 0.007434 0.000000 0.000000 0.000000
# 4 0.000000 0.000000 0.000000 -0.122534 0.000000 0.000000
# 5 0.000000 0.000000 0.000000 0.000000 0.023211 0.000000
# 6 0.000000 0.000000 0.000000 0.000000 0.000000 0.056252
#
#
# Mechanical properties :
#
#
# Convention : Reuss Voigt Hill
#
# Bulk Modulus (GPa) = 70.98713 75.67791 73.33252
# Shear Modulus (GPa) = 675.63511 27.22051 351.42781
#
# Velocity S-wave (km/s) = 18.77777 3.76909 13.54272
# Velocity P-wave (km/s) = 22.52081 7.64438 16.81700
#
# Compressibility (1/GPa) = 0.01408706
#
# Stress axis : x y z
#
# Youngs Moduli (GPa) = 93.81352 84.47865 134.50955
#
# Poissons Ratio (x) = 0.22074 0.28736
# Poissons Ratio (y) = 0.24513 0.42677
# Poissons Ratio (z) = 0.20042 0.26803
#
# Static dielectric constant tensor:
#      x y z
#    x 3.512040 0.000000 0.000000 
#    y 0.000000 3.746420 0.000000 
#    z 0.000000 0.000000 4.125610 
# 
# 
# High freq. dielectric constant tensor:
#      x y z
#    x 1.739950 0.000000 0.000000 
#    y 0.000000 1.735810 0.000000 
#    z 0.000000 0.000000 1.778640 
# 
# From -- ./inp_files/32241.got.cif
#   From: 2010.03.12/outbox.cif.g09.slc.cpg/sg66_17_cif.got.tgz:32241.got - 2010.04.10 21:57:39.
