data_PCOD8276745
_publ_section_title
;
Structure prediction by ZEFSAII (Michael W. Deem and Ramdas Pophale) SiO2 
 PCOD8276745
Probable space group: C C C M
;
_chemical_formula_sum "Si O2"
_cell_formula_units_Z 112
_cell_length_a 16.943306
_cell_length_b 14.619581
_cell_length_c 23.443802
_cell_angle_alpha 90.000000
_cell_angle_beta 90.000000
_cell_angle_gamma 90.000000
_cell_volume 5807.124339
_symmetry_space_group_name_H-M "C C C M"
_symmetry_group_IT_number 66
_symmetry_cell_setting 'orthorhombic'
loop_
_space_group_symop_operation_xyz
x,y,z
-x,-y,z
x,-y,1/2-z
-x,y,1/2-z
-x,-y,-z
x,y,-z
-x,y,1/2+z
x,-y,1/2+z
1/2+x,1/2+y,z
1/2-x,1/2-y,z
1/2+x,1/2-y,1/2-z
1/2-x,1/2+y,1/2-z
1/2-x,1/2-y,-z
1/2+x,1/2+y,-z
1/2-x,1/2+y,1/2+z
1/2+x,1/2-y,1/2+z
loop_
_atom_site_type_symbol
_atom_site_label
_atom_site_fract_x
_atom_site_fract_y
_atom_site_fract_z
Si Si1 0.417949 0.466346 0.565792
Si Si2 0.751477 0.028643 0.565140
Si Si3 0.051689 0.245670 0.803309
Si Si4 0.706151 0.159049 0.663907
Si Si5 0.397981 0.702843 0.861016
Si Si6 0.662692 0.607605 0.248054
Si Si7 0.313267 0.170953 0.562293
O O1 0.500000 0.500000 0.594758
O O2 0.433268 0.448682 0.500000
O O3 0.346121 0.537981 0.575369
O O4 0.390000 0.370082 0.589447
O O5 0.730459 0.057771 0.500000
O O6 0.706302 0.090523 0.610705
O O7 0.726323 0.925075 0.577530
O O8 0.114643 0.323627 0.820440
O O9 0.096701 0.150366 0.792668
O O10 0.000000 0.281662 0.750000
O O11 0.990301 0.220490 0.852014
O O12 0.750000 0.250000 0.642687
O O13 0.750270 0.121707 0.720890
O O14 0.346975 0.662899 0.807681
O O15 0.368371 0.800876 0.884522
O O16 0.644547 0.500000 0.250000
O O17 0.356244 0.163417 0.500000
O O18 0.250000 0.250000 0.557973
#
# Coordination Sequence:
#
# PCOD8276745 Si02
#       7
#    16  16  16  16  16  16  16
#     4  10  21  34  55  91 128 151 188 246 311 374
#     4  10  21  40  64  90 119 160 206 252 303 356
#     4   9  22  40  57  82 123 155 193 251 298 359
#     4  10  22  42  61  85 125 158 207 248 289 367
#     4  11  21  34  62  84 120 158 195 242 317 353
#     4  10  22  38  60  89 114 157 202 247 300 363
#     4  10  20  37  61  90 119 149 200 257 299 356
#
# _framework density 19.286653999999999
#
# number of rings (size 3 to 8) (size 9 to 14) (size 15 to 20)
#    0.000    2.000    1.429    1.286    6.000    5.143 
#    0.000    2.143    0.000    1.714    0.000    0.000 
#    0.000    0.000    0.000    0.000    0.000    0.000 
#
# Total GULP energy -693943.537280 kJ/mol
# GULP energy per Si atom -12391.848880 kJ/mol
# Density = 1.924276 g / cm^3
# Si number density = 19.286654 Si / 1000 Ang^3
#
#
#
# Elastic Constant Matrix: (Units=GPa)
#
#
# Indices 1 2 3 4 5 6 
#
# 1 107.0712 50.1319 64.0970 0.0000 0.0000 0.0000
# 2 50.1319 106.0144 59.6058 0.0000 0.0000 0.0000
# 3 64.0970 59.6058 91.3107 0.0000 0.0000 0.0000
# 4 0.0000 0.0000 0.0000 19.9675 0.0000 0.0000
# 5 0.0000 0.0000 0.0000 0.0000 37.3647 0.0000
# 6 0.0000 0.0000 0.0000 0.0000 0.0000 24.1093
#
#
#
# Elastic Compliance Matrix: (Units=1/GPa)
#
#
# Indices 1 2 3 4 5 6 
#
# 1 0.016379 -0.002024 -0.010177 0.000000 0.000000 0.000000
# 2 -0.002024 0.015152 -0.008470 0.000000 0.000000 0.000000
# 3 -0.010177 -0.008470 0.023625 0.000000 0.000000 0.000000
# 4 0.000000 0.000000 0.000000 0.050081 0.000000 0.000000
# 5 0.000000 0.000000 0.000000 0.000000 0.026763 0.000000
# 6 0.000000 0.000000 0.000000 0.000000 0.000000 0.041478
#
#
# Mechanical properties :
#
#
# Convention : Reuss Voigt Hill
#
# Bulk Modulus (GPa) = 72.38807 72.45173 72.41990
# Shear Modulus (GPa) = 22.78690 24.99243 23.88966
#
# Velocity S-wave (km/s) = 3.44100 3.60368 3.52328
# Velocity P-wave (km/s) = 7.30764 7.41368 7.36085
#
# Compressibility (1/GPa) = 0.01381443
#
# Stress axis : x y z
#
# Youngs Moduli (GPa) = 61.05307 65.99766 42.32871
#
# Poissons Ratio (x) = 0.13355 0.43076
# Poissons Ratio (y) = 0.12355 0.35854
# Poissons Ratio (z) = 0.62132 0.55903
#
# Static dielectric constant tensor:
#      x y z
#    x 3.790260 0.000000 0.000000 
#    y 0.000000 3.507490 0.000000 
#    z 0.000000 0.000000 3.729430 
# 
# 
# High freq. dielectric constant tensor:
#      x y z
#    x 1.743850 0.000000 0.000000 
#    y 0.000000 1.733760 0.000000 
#    z 0.000000 0.000000 1.757360 
# 
# From -- ./inp_files/58236.got.cif
#   From: 2010.03.12/outbox.cif.g09.slc.cpg/sg66_30_cif.got.tgz:58236.got - 2010.04.10 21:57:39.
