data_PCOD8276648
_publ_section_title
;
Structure prediction by ZEFSAII (Michael W. Deem and Ramdas Pophale) SiO2 
 PCOD8276648
Probable space group: C C C M
;
_chemical_formula_sum "Si O2"
_cell_formula_units_Z 64
_cell_length_a 20.758272
_cell_length_b 9.126253
_cell_length_c 15.594931
_cell_angle_alpha 90.000000
_cell_angle_beta 90.000000
_cell_angle_gamma 90.000000
_cell_volume 2954.385479
_symmetry_space_group_name_H-M "C C C M"
_symmetry_group_IT_number 66
_symmetry_cell_setting 'orthorhombic'
loop_
_space_group_symop_operation_xyz
x,y,z
-x,-y,z
x,-y,1/2-z
-x,y,1/2-z
-x,-y,-z
x,y,-z
-x,y,1/2+z
x,-y,1/2+z
1/2+x,1/2+y,z
1/2-x,1/2-y,z
1/2+x,1/2-y,1/2-z
1/2-x,1/2+y,1/2-z
1/2-x,1/2-y,-z
1/2+x,1/2+y,-z
1/2-x,1/2+y,1/2+z
1/2+x,1/2-y,1/2+z
loop_
_atom_site_type_symbol
_atom_site_label
_atom_site_fract_x
_atom_site_fract_y
_atom_site_fract_z
Si Si1 0.941360 0.909263 0.098272
Si Si2 0.682814 0.432133 0.843674
Si Si3 0.562373 0.084958 0.397831
Si Si4 0.320472 0.110414 0.400162
O O1 0.936537 0.748760 0.141645
O O2 0.874286 0.994608 0.102833
O O3 0.960043 0.884469 0.000000
O O4 0.000000 0.000000 0.142580
O O5 0.681003 0.500000 0.750000
O O6 0.673227 0.256833 0.843169
O O7 0.751372 0.467642 0.887548
O O8 0.562326 0.089338 0.500000
O O9 0.500000 0.000000 0.362552
O O10 0.625992 0.001334 0.365937
O O11 0.329731 0.152373 0.500000
#
# Coordination Sequence:
#
# PCOD8276648 Si02
#       4
#    16  16  16  16
#     4  10  20  36  60  86 114 151 197 246 294 352
#     4  11  23  37  57  84 117 153 193 246 302 354
#     4   9  18  33  57  87 113 143 189 243 291 340
#     4  10  21  40  63  85 117 161 204 243 295 368
#
# _framework density 21.662711999999999
#
# number of rings (size 3 to 8) (size 9 to 14) (size 15 to 20)
#    0.000    2.000    0.000    4.500    0.000    9.500 
#    0.000    3.750    0.000    5.250    0.000    0.000 
#    0.000    0.000    0.000    0.000    0.000    0.000 
#
# Total GULP energy -396795.840472 kJ/mol
# GULP energy per Si atom -12399.870015 kJ/mol
# Density = 2.161341 g / cm^3
# Si number density = 21.662712 Si / 1000 Ang^3
#
#
#
# Elastic Constant Matrix: (Units=GPa)
#
#
# Indices 1 2 3 4 5 6 
#
# 1 212.3921 115.1115 -0.1257 0.0000 0.0000 0.0000
# 2 115.1115 175.6134 23.9785 0.0000 0.0000 0.0000
# 3 -0.1257 23.9785 48.9234 0.0000 0.0000 0.0000
# 4 0.0000 0.0000 0.0000 107.0180 0.0000 0.0000
# 5 0.0000 0.0000 0.0000 0.0000 -7.2431 0.0000
# 6 0.0000 0.0000 0.0000 0.0000 0.0000 47.2347
#
#
#
# Elastic Compliance Matrix: (Units=1/GPa)
#
#
# Indices 1 2 3 4 5 6 
#
# 1 0.007608 -0.005347 0.002640 0.000000 0.000000 0.000000
# 2 -0.005347 0.009861 -0.004847 0.000000 0.000000 0.000000
# 3 0.002640 -0.004847 0.022822 0.000000 0.000000 0.000000
# 4 0.000000 0.000000 0.000000 0.009344 0.000000 0.000000
# 5 0.000000 0.000000 0.000000 0.000000 -0.138062 0.000000
# 6 0.000000 0.000000 0.000000 0.000000 0.000000 0.021171
#
#
# Mechanical properties :
#
#
# Convention : Reuss Voigt Hill
#
# Bulk Modulus (GPa) = 39.70799 79.42862 59.56831
# Shear Modulus (GPa) = -114.28052 49.26623 -32.50715
#
# Velocity S-wave (km/s) = -7.27111 4.77407 -3.87797
# Velocity P-wave (km/s) = 7.21956 8.19358 2.73976
#
# Compressibility (1/GPa) = 0.02518385
#
# Stress axis : x y z
#
# Youngs Moduli (GPa) = 131.44003 101.40645 43.81642
#
# Poissons Ratio (x) = 0.54227 -0.11570
# Poissons Ratio (y) = 0.70287 0.21238
# Poissons Ratio (z) = -0.34706 0.49152
#
# Static dielectric constant tensor:
#      x y z
#    x 4.185320 0.000000 0.000000 
#    y 0.000000 4.144840 0.000000 
#    z 0.000000 0.000000 3.391340 
# 
# 
# High freq. dielectric constant tensor:
#      x y z
#    x 1.869240 0.000000 0.000000 
#    y 0.000000 1.858810 0.000000 
#    z 0.000000 0.000000 1.812090 
# 
# From -- ./inp_files/31891.got.cif
#   From: 2010.03.12/outbox.cif.g09.slc.cpg/sg66_16_cif.got.tgz:31891.got - 2010.04.10 21:57:39.
