data_PCOD8276010
_publ_section_title
;
Structure prediction by ZEFSAII (Michael W. Deem and Ramdas Pophale) SiO2 
 PCOD8276010
Probable space group: C C C M
;
_chemical_formula_sum "Si O2"
_cell_formula_units_Z 80
_cell_length_a 25.733452
_cell_length_b 11.053884
_cell_length_c 14.098012
_cell_angle_alpha 90.000000
_cell_angle_beta 90.000000
_cell_angle_gamma 90.000000
_cell_volume 4010.244270
_symmetry_space_group_name_H-M "C C C M"
_symmetry_group_IT_number 66
_symmetry_cell_setting 'orthorhombic'
loop_
_space_group_symop_operation_xyz
x,y,z
-x,-y,z
x,-y,1/2-z
-x,y,1/2-z
-x,-y,-z
x,y,-z
-x,y,1/2+z
x,-y,1/2+z
1/2+x,1/2+y,z
1/2-x,1/2-y,z
1/2+x,1/2-y,1/2-z
1/2-x,1/2+y,1/2-z
1/2-x,1/2-y,-z
1/2+x,1/2+y,-z
1/2-x,1/2+y,1/2+z
1/2+x,1/2-y,1/2+z
loop_
_atom_site_type_symbol
_atom_site_label
_atom_site_fract_x
_atom_site_fract_y
_atom_site_fract_z
Si Si1 0.337175 0.181933 0.781401
Si Si2 0.579311 0.496977 0.896614
Si Si3 0.056861 0.197917 0.249872
Si Si4 0.700375 0.962387 0.608235
Si Si5 0.188062 0.938574 0.347540
O O1 0.398435 0.204070 0.767966
O O2 0.309107 0.149052 0.680828
O O3 0.306957 0.295065 0.827877
O O4 0.335012 0.072655 0.856172
O O5 0.552441 0.600181 0.834241
O O6 0.571350 0.366791 0.848458
O O7 0.639975 0.529325 0.914480
O O8 0.552922 0.493258 0.000000
O O9 0.000000 0.261578 0.250000
O O10 0.686018 0.925307 0.500000
O O11 0.759746 0.006650 0.609913
O O12 0.172071 0.000000 0.250000
#
# Coordination Sequence:
#
# PCOD8276010 Si02
#       5
#    16  16  16  16  16
#     4  10  22  40  60  80 119 152 193 242 279 343
#     4  10  19  33  56  89 122 148 181 230 290 356
#     4  10  21  37  57  82 113 152 193 240 292 335
#     4  11  24  39  60  86 116 158 196 234 280 332
#     4  11  19  37  60  88 122 151 182 227 285 352
#
# _framework density 19.948910999999999
#
# number of rings (size 3 to 8) (size 9 to 14) (size 15 to 20)
#    0.000    1.600    6.000    2.400    0.000    7.200 
#    0.000    3.000    0.000    1.200    0.000    0.000 
#    0.000    0.000    0.000    0.000    0.000    0.000 
#
# Total GULP energy -495819.965384 kJ/mol
# GULP energy per Si atom -12395.499135 kJ/mol
# Density = 1.990351 g / cm^3
# Si number density = 19.948911 Si / 1000 Ang^3
#
#
#
# Elastic Constant Matrix: (Units=GPa)
#
#
# Indices 1 2 3 4 5 6 
#
# 1 132.8221 18.2483 4.6164 0.0000 0.0000 0.0000
# 2 18.2483 45.7238 5.8821 0.0000 0.0000 0.0000
# 3 4.6164 5.8821 127.5098 0.0000 0.0000 0.0000
# 4 0.0000 0.0000 0.0000 10.5968 0.0000 0.0000
# 5 0.0000 0.0000 0.0000 0.0000 -345.4736 0.0000
# 6 0.0000 0.0000 0.0000 0.0000 0.0000 8.1697
#
#
#
# Elastic Compliance Matrix: (Units=1/GPa)
#
#
# Indices 1 2 3 4 5 6 
#
# 1 0.007968 -0.003162 -0.000143 0.000000 0.000000 0.000000
# 2 -0.003162 0.023256 -0.000958 0.000000 0.000000 0.000000
# 3 -0.000143 -0.000958 0.007892 0.000000 0.000000 0.000000
# 4 0.000000 0.000000 0.000000 0.094368 0.000000 0.000000
# 5 0.000000 0.000000 0.000000 0.000000 -0.002895 0.000000
# 6 0.000000 0.000000 0.000000 0.000000 0.000000 0.122403
#
#
# Mechanical properties :
#
#
# Convention : Reuss Voigt Hill
#
# Bulk Modulus (GPa) = 32.69009 40.39434 36.54222
# Shear Modulus (GPa) = 18.40169 -46.85414 -14.22623
#
# Velocity S-wave (km/s) = 3.04047 -4.85160 -2.67335
# Velocity P-wave (km/s) = 5.36175 3.33035 2.97129
#
# Compressibility (1/GPa) = 0.03059031
#
# Stress axis : x y z
#
# Youngs Moduli (GPa) = 125.49863 43.00043 126.71211
#
# Poissons Ratio (x) = 0.13596 0.01807
# Poissons Ratio (y) = 0.39680 0.12143
# Poissons Ratio (z) = 0.01790 0.04121
#
# Static dielectric constant tensor:
#      x y z
#    x 3.672090 0.000000 0.000000 
#    y 0.000000 3.495960 0.000000 
#    z 0.000000 0.000000 3.718820 
# 
# 
# High freq. dielectric constant tensor:
#      x y z
#    x 1.785000 0.000000 0.000000 
#    y 0.000000 1.749830 0.000000 
#    z 0.000000 0.000000 1.778480 
# 
# From -- ./inp_files/26696.got.cif
#   From: 2010.03.12/outbox.cif.g09.slc.cpg/sg66_14_cif.got.tgz:26696.got - 2010.04.10 21:57:39.
