data_PCOD8276892
_publ_section_title
;
Structure prediction by ZEFSAII (Michael W. Deem and Ramdas Pophale) SiO2 
 PCOD8276892
Probable space group: C C C M
;
_chemical_formula_sum "Si O2"
_cell_formula_units_Z 112
_cell_length_a 21.890904
_cell_length_b 16.725474
_cell_length_c 17.397825
_cell_angle_alpha 90.000000
_cell_angle_beta 90.000000
_cell_angle_gamma 90.000000
_cell_volume 6369.965630
_symmetry_space_group_name_H-M "C C C M"
_symmetry_group_IT_number 66
_symmetry_cell_setting 'orthorhombic'
loop_
_space_group_symop_operation_xyz
x,y,z
-x,-y,z
x,-y,1/2-z
-x,y,1/2-z
-x,-y,-z
x,y,-z
-x,y,1/2+z
x,-y,1/2+z
1/2+x,1/2+y,z
1/2-x,1/2-y,z
1/2+x,1/2-y,1/2-z
1/2-x,1/2+y,1/2-z
1/2-x,1/2-y,-z
1/2+x,1/2+y,-z
1/2-x,1/2+y,1/2+z
1/2+x,1/2-y,1/2+z
loop_
_atom_site_type_symbol
_atom_site_label
_atom_site_fract_x
_atom_site_fract_y
_atom_site_fract_z
Si Si1 0.032985 0.653030 0.668492
Si Si2 0.777939 0.507925 0.660337
Si Si3 0.667427 0.779223 0.162911
Si Si4 0.580283 0.826477 0.413655
Si Si5 0.798002 0.312309 0.166844
Si Si6 0.904176 0.486465 0.588848
Si Si7 0.726283 0.363546 0.411332
O O1 0.095620 0.703050 0.669438
O O2 0.044105 0.567396 0.628471
O O3 0.000000 0.638657 0.750000
O O4 0.984780 0.704505 0.618026
O O5 0.767742 0.500000 0.750000
O O6 0.775855 0.600948 0.637053
O O7 0.842922 0.470360 0.637011
O O8 0.726118 0.456478 0.616181
O O9 0.700220 0.805839 0.241485
O O10 0.677850 0.685710 0.141641
O O11 0.704714 0.828104 0.097773
O O12 0.589600 0.797509 0.500000
O O13 0.635322 0.790091 0.364619
O O14 0.577386 0.921818 0.405040
O O15 0.750000 0.250000 0.131881
O O16 0.895369 0.461100 0.500000
O O17 0.706472 0.359073 0.500000
#
# Coordination Sequence:
#
# PCOD8276892 Si02
#       7
#    16  16  16  16  16  16  16
#     4  12  22  33  53  78 108 151 189 228 280 340
#     4  11  19  33  55  83 114 151 189 230 281 345
#     4  11  20  36  54  81 112 145 191 232 285 340
#     4  10  23  36  47  72 109 147 192 230 268 332
#     4  11  20  37  59  79 111 150 191 237 284 342
#     4  10  21  34  49  72 109 150 188 231 271 323
#     4  11  22  36  58  86 115 146 188 242 296 340
#
# _framework density 17.582512000000001
#
# number of rings (size 3 to 8) (size 9 to 14) (size 15 to 20)
#    0.000    1.143    5.714    2.143    2.000    4.286 
#    0.000    0.000    0.000    0.000    0.000    1.000 
#    0.000    2.286    0.000    0.000    0.000    0.000 
#
# Total GULP energy -694172.249515 kJ/mol
# GULP energy per Si atom -12395.933027 kJ/mol
# Density = 1.754249 g / cm^3
# Si number density = 17.582512 Si / 1000 Ang^3
#
#
#
# Elastic Constant Matrix: (Units=GPa)
#
#
# Indices 1 2 3 4 5 6 
#
# 1 100.2444 45.3911 25.5811 0.0000 0.0000 0.0000
# 2 45.3911 66.8514 22.5038 0.0000 0.0000 0.0000
# 3 25.5811 22.5038 92.3004 0.0000 0.0000 0.0000
# 4 0.0000 0.0000 0.0000 16.7493 0.0000 0.0000
# 5 0.0000 0.0000 0.0000 0.0000 21.1322 0.0000
# 6 0.0000 0.0000 0.0000 0.0000 0.0000 27.1122
#
#
#
# Elastic Compliance Matrix: (Units=1/GPa)
#
#
# Indices 1 2 3 4 5 6 
#
# 1 0.014669 -0.009360 -0.001784 0.000000 0.000000 0.000000
# 2 -0.009360 0.022268 -0.002835 0.000000 0.000000 0.000000
# 3 -0.001784 -0.002835 0.012020 0.000000 0.000000 0.000000
# 4 0.000000 0.000000 0.000000 0.059704 0.000000 0.000000
# 5 0.000000 0.000000 0.000000 0.000000 0.047321 0.000000
# 6 0.000000 0.000000 0.000000 0.000000 0.000000 0.036884
#
#
# Mechanical properties :
#
#
# Convention : Reuss Voigt Hill
#
# Bulk Modulus (GPa) = 47.61891 49.59425 48.60658
# Shear Modulus (GPa) = 21.94701 24.06011 23.00356
#
# Velocity S-wave (km/s) = 3.53686 3.70322 3.62100
# Velocity P-wave (km/s) = 6.61975 6.82297 6.72213
#
# Compressibility (1/GPa) = 0.02100006
#
# Stress axis : x y z
#
# Youngs Moduli (GPa) = 68.17200 44.90766 83.19657
#
# Poissons Ratio (x) = 0.42031 0.14838
# Poissons Ratio (y) = 0.63806 0.23587
# Poissons Ratio (z) = 0.12159 0.12732
#
# Static dielectric constant tensor:
#      x y z
#    x 3.286840 0.000000 0.000000 
#    y 0.000000 3.231220 0.000000 
#    z 0.000000 0.000000 3.357560 
# 
# 
# High freq. dielectric constant tensor:
#      x y z
#    x 1.663410 0.000000 0.000000 
#    y 0.000000 1.647730 0.000000 
#    z 0.000000 0.000000 1.691880 
# 
# From -- ./inp_files/41983.got.cif
#   From: 2010.03.12/outbox.cif.g09.slc.cpg/sg66_21_cif.got.tgz:41983.got - 2010.04.10 21:57:39.
