data_PCOD8276265
_publ_section_title
;
Structure prediction by ZEFSAII (Michael W. Deem and Ramdas Pophale) SiO2 
 PCOD8276265
Probable space group: C C C M
;
_chemical_formula_sum "Si O2"
_cell_formula_units_Z 96
_cell_length_a 15.717824
_cell_length_b 26.150203
_cell_length_c 14.067101
_cell_angle_alpha 90.000000
_cell_angle_beta 90.000000
_cell_angle_gamma 90.000000
_cell_volume 5781.920177
_symmetry_space_group_name_H-M "C C C M"
_symmetry_group_IT_number 66
_symmetry_cell_setting 'orthorhombic'
loop_
_space_group_symop_operation_xyz
x,y,z
-x,-y,z
x,-y,1/2-z
-x,y,1/2-z
-x,-y,-z
x,y,-z
-x,y,1/2+z
x,-y,1/2+z
1/2+x,1/2+y,z
1/2-x,1/2-y,z
1/2+x,1/2-y,1/2-z
1/2-x,1/2+y,1/2-z
1/2-x,1/2-y,-z
1/2+x,1/2+y,-z
1/2-x,1/2+y,1/2+z
1/2+x,1/2-y,1/2+z
loop_
_atom_site_type_symbol
_atom_site_label
_atom_site_fract_x
_atom_site_fract_y
_atom_site_fract_z
Si Si1 0.836194 0.220215 0.604017
Si Si2 0.499463 0.599968 0.110514
Si Si3 0.235305 0.848341 0.241102
Si Si4 0.865836 0.941009 0.257274
Si Si5 0.908879 0.291836 0.246559
Si Si6 0.601886 0.699547 0.610471
O O1 0.874691 0.205023 0.500000
O O2 0.750000 0.250000 0.588317
O O3 0.814621 0.169914 0.664251
O O4 0.900993 0.257104 0.659090
O O5 0.581508 0.581664 0.168429
O O6 0.419298 0.566569 0.146095
O O7 0.477355 0.660214 0.129918
O O8 0.514312 0.588724 0.000000
O O9 0.223076 0.909650 0.237057
O O10 0.334465 0.833724 0.239762
O O11 0.190216 0.822729 0.150775
O O12 0.842200 0.000000 0.250000
O O13 0.912911 0.254678 0.156083
O O14 0.000000 0.320857 0.250000
O O15 0.615811 0.707612 0.500000
#
# Coordination Sequence:
#
# PCOD8276265 Si02
#       6
#    16  16  16  16  16  16
#     4   8  15  29  47  66  90 118 145 180 230 285
#     4   9  18  31  49  73  99 121 147 190 238 288
#     4   9  19  33  46  64  93 125 158 195 232 273
#     4  10  20  32  48  68  94 126 161 197 233 277
#     4  10  20  30  45  68  95 123 157 195 229 275
#     4   9  18  31  48  70  96 125 154 184 227 288
#
# _framework density 16.603480000000001
#
# number of rings (size 3 to 8) (size 9 to 14) (size 15 to 20)
#    0.000    2.833    0.000    2.500    7.000    4.000 
#    0.000    0.000    0.000    0.500    0.000    0.000 
#    0.000    0.000    0.000   19.667    0.000    0.000 
#
# Total GULP energy -594822.771291 kJ/mol
# GULP energy per Si atom -12392.141069 kJ/mol
# Density = 1.656569 g / cm^3
# Si number density = 16.603480 Si / 1000 Ang^3
#
#
#
# Elastic Constant Matrix: (Units=GPa)
#
#
# Indices 1 2 3 4 5 6 
#
# 1 110.8258 54.7345 29.4227 0.0000 0.0000 0.0000
# 2 54.7345 106.7206 26.6204 0.0000 0.0000 0.0000
# 3 29.4227 26.6204 118.5052 0.0000 0.0000 0.0000
# 4 0.0000 0.0000 0.0000 13.0461 0.0000 0.0000
# 5 0.0000 0.0000 0.0000 0.0000 9.9013 0.0000
# 6 0.0000 0.0000 0.0000 0.0000 0.0000 17.3181
#
#
#
# Elastic Compliance Matrix: (Units=1/GPa)
#
#
# Indices 1 2 3 4 5 6 
#
# 1 0.012418 -0.005932 -0.001751 0.000000 0.000000 0.000000
# 2 -0.005932 0.012760 -0.001394 0.000000 0.000000 0.000000
# 3 -0.001751 -0.001394 0.009186 0.000000 0.000000 0.000000
# 4 0.000000 0.000000 0.000000 0.076651 0.000000 0.000000
# 5 0.000000 0.000000 0.000000 0.000000 0.100997 0.000000
# 6 0.000000 0.000000 0.000000 0.000000 0.000000 0.057743
#
#
# Mechanical properties :
#
#
# Convention : Reuss Voigt Hill
#
# Bulk Modulus (GPa) = 61.68384 61.95632 61.82008
# Shear Modulus (GPa) = 17.04671 23.07136 20.05903
#
# Velocity S-wave (km/s) = 3.20768 3.73171 3.47958
# Velocity P-wave (km/s) = 7.13798 7.48090 7.31145
#
# Compressibility (1/GPa) = 0.01621170
#
# Stress axis : x y z
#
# Youngs Moduli (GPa) = 80.53063 78.36808 108.85991
#
# Poissons Ratio (x) = 0.46488 0.19056
# Poissons Ratio (y) = 0.47771 0.15171
# Poissons Ratio (z) = 0.14097 0.10921
#
# Static dielectric constant tensor:
#      x y z
#    x 2.977700 0.000000 0.000000 
#    y 0.000000 2.747170 0.000000 
#    z 0.000000 0.000000 3.520680 
# 
# 
# High freq. dielectric constant tensor:
#      x y z
#    x 1.620820 0.000000 0.000000 
#    y 0.000000 1.606330 0.000000 
#    z 0.000000 0.000000 1.649820 
# 
# From -- ./inp_files/28950.got.cif
#   From: 2010.03.12/outbox.cif.g09.slc.cpg/sg66_15_cif.got.tgz:28950.got - 2010.04.10 21:57:39.
