data_PCOD8276313
_publ_section_title
;
Structure prediction by ZEFSAII (Michael W. Deem and Ramdas Pophale) SiO2 
 PCOD8276313
Probable space group: C C C M
;
_chemical_formula_sum "Si O2"
_cell_formula_units_Z 84
_cell_length_a 13.805869
_cell_length_b 14.814295
_cell_length_c 21.556886
_cell_angle_alpha 90.000000
_cell_angle_beta 90.000000
_cell_angle_gamma 90.000000
_cell_volume 4408.905211
_symmetry_space_group_name_H-M "C C C M"
_symmetry_group_IT_number 66
_symmetry_cell_setting 'orthorhombic'
loop_
_space_group_symop_operation_xyz
x,y,z
-x,-y,z
x,-y,1/2-z
-x,y,1/2-z
-x,-y,-z
x,y,-z
-x,y,1/2+z
x,-y,1/2+z
1/2+x,1/2+y,z
1/2-x,1/2-y,z
1/2+x,1/2-y,1/2-z
1/2-x,1/2+y,1/2-z
1/2-x,1/2-y,-z
1/2+x,1/2+y,-z
1/2-x,1/2+y,1/2+z
1/2+x,1/2-y,1/2+z
loop_
_atom_site_type_symbol
_atom_site_label
_atom_site_fract_x
_atom_site_fract_y
_atom_site_fract_z
Si Si1 0.696850 0.163704 0.245408
Si Si2 0.586486 0.202058 0.638023
Si Si3 0.078238 0.427291 0.643827
Si Si4 0.208755 0.553806 0.427699
Si Si5 0.358879 0.603725 0.661463
Si Si6 0.000000 0.000000 0.250000
O O1 0.750000 0.250000 0.213543
O O2 0.605927 0.191436 0.288232
O O3 0.659939 0.093112 0.194757
O O4 0.772665 0.118792 0.290823
O O5 0.477800 0.164706 0.624234
O O6 0.662655 0.148621 0.595069
O O7 0.597753 0.308536 0.625741
O O8 0.134688 0.471420 0.585930
O O9 0.000000 0.500000 0.669852
O O10 0.229123 0.557223 0.500000
O O11 0.312126 0.540724 0.392526
O O12 0.441383 0.559959 0.702129
#
# Coordination Sequence:
#
# PCOD8276313 Si02
#       6
#    16  16  16  16  16   4
#     4   9  18  32  53  80 117 148 178 228 296 357
#     4   9  20  33  54  87 114 141 190 234 292 340
#     4  10  20  32  55  86 113 147 186 242 293 335
#     4  10  21  39  58  80 115 153 195 238 280 338
#     4  10  22  37  54  86 112 154 191 229 293 344
#     4  12  24  36  62  84 120 144 188 242 276 356
#
# _framework density 19.052349
#
# number of rings (size 3 to 8) (size 9 to 14) (size 15 to 20)
#    0.000    2.286    0.000    3.429    5.333   14.857 
#    0.000    0.476    0.000    0.571    0.000    0.000 
#    0.000    0.000    0.000    0.000    0.000    0.000 
#
# Total GULP energy -520462.949900 kJ/mol
# GULP energy per Si atom -12391.974998 kJ/mol
# Density = 1.900898 g / cm^3
# Si number density = 19.052349 Si / 1000 Ang^3
#
#
#
# Elastic Constant Matrix: (Units=GPa)
#
#
# Indices 1 2 3 4 5 6 
#
# 1 102.1181 58.1281 56.2923 0.0000 0.0000 0.0000
# 2 58.1281 69.8052 41.3193 0.0000 0.0000 0.0000
# 3 56.2923 41.3193 112.3980 0.0000 0.0000 0.0000
# 4 0.0000 0.0000 0.0000 41.6865 0.0000 0.0000
# 5 0.0000 0.0000 0.0000 0.0000 20.9360 0.0000
# 6 0.0000 0.0000 0.0000 0.0000 0.0000 35.6015
#
#
#
# Elastic Compliance Matrix: (Units=1/GPa)
#
#
# Indices 1 2 3 4 5 6 
#
# 1 0.020718 -0.014200 -0.005156 0.000000 0.000000 0.000000
# 2 -0.014200 0.028043 -0.003197 0.000000 0.000000 0.000000
# 3 -0.005156 -0.003197 0.012654 0.000000 0.000000 0.000000
# 4 0.000000 0.000000 0.000000 0.023989 0.000000 0.000000
# 5 0.000000 0.000000 0.000000 0.000000 0.047765 0.000000
# 6 0.000000 0.000000 0.000000 0.000000 0.000000 0.028089
#
#
# Mechanical properties :
#
#
# Convention : Reuss Voigt Hill
#
# Bulk Modulus (GPa) = 61.31687 66.20006 63.75846
# Shear Modulus (GPa) = 23.60721 28.21693 25.91207
#
# Velocity S-wave (km/s) = 3.52386 3.85258 3.69188
# Velocity P-wave (km/s) = 6.98642 7.38997 7.19103
#
# Compressibility (1/GPa) = 0.01630872
#
# Stress axis : x y z
#
# Youngs Moduli (GPa) = 48.26752 35.65974 79.02343
#
# Poissons Ratio (x) = 0.50638 0.40744
# Poissons Ratio (y) = 0.68541 0.25264
# Poissons Ratio (z) = 0.24886 0.11401
#
# Static dielectric constant tensor:
#      x y z
#    x 6.386470 0.000000 0.000000 
#    y 0.000000 1.417670 0.000000 
#    z 0.000000 0.000000 3.187880 
# 
# 
# High freq. dielectric constant tensor:
#      x y z
#    x 1.740680 0.000000 0.000000 
#    y 0.000000 1.731680 0.000000 
#    z 0.000000 0.000000 1.704710 
# 
# From -- ./inp_files/49859.got.cif
#   From: 2010.03.12/outbox.cif.g09.slc.cpg/sg66_25_cif.got.tgz:49859.got - 2010.04.10 21:57:39.
