data_PCOD8276668
_publ_section_title
;
Structure prediction by ZEFSAII (Michael W. Deem and Ramdas Pophale) SiO2 
 PCOD8276668
Probable space group: C C C M
;
_chemical_formula_sum "Si O2"
_cell_formula_units_Z 64
_cell_length_a 16.415516
_cell_length_b 11.858295
_cell_length_c 16.987340
_cell_angle_alpha 90.000000
_cell_angle_beta 90.000000
_cell_angle_gamma 90.000000
_cell_volume 3306.756136
_symmetry_space_group_name_H-M "C C C M"
_symmetry_group_IT_number 66
_symmetry_cell_setting 'orthorhombic'
loop_
_space_group_symop_operation_xyz
x,y,z
-x,-y,z
x,-y,1/2-z
-x,y,1/2-z
-x,-y,-z
x,y,-z
-x,y,1/2+z
x,-y,1/2+z
1/2+x,1/2+y,z
1/2-x,1/2-y,z
1/2+x,1/2-y,1/2-z
1/2-x,1/2+y,1/2-z
1/2-x,1/2-y,-z
1/2+x,1/2+y,-z
1/2-x,1/2+y,1/2+z
1/2+x,1/2-y,1/2+z
loop_
_atom_site_type_symbol
_atom_site_label
_atom_site_fract_x
_atom_site_fract_y
_atom_site_fract_z
Si Si1 0.921386 0.199254 0.799003
Si Si2 0.096243 0.993731 0.087072
Si Si3 0.156953 0.233921 0.856716
Si Si4 0.490777 0.870463 0.590232
O O1 0.854151 0.243441 0.737562
O O2 0.000000 0.153680 0.750000
O O3 0.947812 0.300584 0.855572
O O4 0.878963 0.101101 0.849848
O O5 0.130841 0.112265 0.113508
O O6 0.130220 0.963298 0.000000
O O7 0.000000 0.000000 0.083410
O O8 0.250000 0.250000 0.880717
O O9 0.102307 0.329816 0.898323
O O10 0.516803 0.852134 0.500000
O O11 0.500000 0.000000 0.615272
#
# Coordination Sequence:
#
# PCOD8276668 Si02
#       4
#    16  16  16  16
#     4  10  20  36  61  88 117 156 201 244 285 354
#     4  11  20  35  63  91 116 154 201 247 291 350
#     4  11  24  39  60  91 124 155 194 247 306 354
#     4  10  21  39  63  87 117 160 206 243 289 357
#
# _framework density 19.354315
#
# number of rings (size 3 to 8) (size 9 to 14) (size 15 to 20)
#    0.000    1.500    5.000    2.250    0.000    6.500 
#    9.000    0.000    0.000    1.500    0.000    0.000 
#    0.000    0.000    0.000    0.000    0.000    0.000 
#
# Total GULP energy -396814.926681 kJ/mol
# GULP energy per Si atom -12400.466459 kJ/mol
# Density = 1.931026 g / cm^3
# Si number density = 19.354315 Si / 1000 Ang^3
#
#
#
# Elastic Constant Matrix: (Units=GPa)
#
#
# Indices 1 2 3 4 5 6 
#
# 1 77.1270 52.3849 17.0326 0.0000 0.0000 0.0000
# 2 52.3849 157.3125 64.0083 0.0000 0.0000 0.0000
# 3 17.0326 64.0083 126.2749 0.0000 0.0000 0.0000
# 4 0.0000 0.0000 0.0000 33.7376 0.0000 0.0000
# 5 0.0000 0.0000 0.0000 0.0000 16.9357 0.0000
# 6 0.0000 0.0000 0.0000 0.0000 0.0000 20.2378
#
#
#
# Elastic Compliance Matrix: (Units=1/GPa)
#
#
# Indices 1 2 3 4 5 6 
#
# 1 0.016807 -0.005889 0.000718 0.000000 0.000000 0.000000
# 2 -0.005889 0.010072 -0.004311 0.000000 0.000000 0.000000
# 3 0.000718 -0.004311 0.010008 0.000000 0.000000 0.000000
# 4 0.000000 0.000000 0.000000 0.029640 0.000000 0.000000
# 5 0.000000 0.000000 0.000000 0.000000 0.059047 0.000000
# 6 0.000000 0.000000 0.000000 0.000000 0.000000 0.049412
#
#
# Mechanical properties :
#
#
# Convention : Reuss Voigt Hill
#
# Bulk Modulus (GPa) = 55.79558 69.72954 62.76256
# Shear Modulus (GPa) = 25.00955 29.33482 27.17219
#
# Velocity S-wave (km/s) = 3.59861 3.89739 3.75098
# Velocity P-wave (km/s) = 6.79395 7.50726 7.15949
#
# Compressibility (1/GPa) = 0.01792257
#
# Stress axis : x y z
#
# Youngs Moduli (GPa) = 59.49999 99.28673 99.92359
#
# Poissons Ratio (x) = 0.58468 -0.07175
# Poissons Ratio (y) = 0.35038 0.43078
# Poissons Ratio (z) = -0.04272 0.42803
#
# Static dielectric constant tensor:
#      x y z
#    x 3.025250 0.000000 0.000000 
#    y 0.000000 3.459570 0.000000 
#    z 0.000000 0.000000 4.116080 
# 
# 
# High freq. dielectric constant tensor:
#      x y z
#    x 1.708370 0.000000 0.000000 
#    y 0.000000 1.755710 0.000000 
#    z 0.000000 0.000000 1.781700 
# 
# From -- ./inp_files/25783.got.cif
#   From: 2010.03.12/outbox.cif.g09.slc.cpg/sg66_13_cif.got.tgz:25783.got - 2010.04.10 21:57:39.
