data_PCOD8276569
_publ_section_title
;
Structure prediction by ZEFSAII (Michael W. Deem and Ramdas Pophale) SiO2 
 PCOD8276569
Probable space group: C C C M
;
_chemical_formula_sum "Si O2"
_cell_formula_units_Z 112
_cell_length_a 25.958727
_cell_length_b 13.875091
_cell_length_c 14.970444
_cell_angle_alpha 90.000000
_cell_angle_beta 90.000000
_cell_angle_gamma 90.000000
_cell_volume 5392.050019
_symmetry_space_group_name_H-M "C C C M"
_symmetry_group_IT_number 66
_symmetry_cell_setting 'orthorhombic'
loop_
_space_group_symop_operation_xyz
x,y,z
-x,-y,z
x,-y,1/2-z
-x,y,1/2-z
-x,-y,-z
x,y,-z
-x,y,1/2+z
x,-y,1/2+z
1/2+x,1/2+y,z
1/2-x,1/2-y,z
1/2+x,1/2-y,1/2-z
1/2-x,1/2+y,1/2-z
1/2-x,1/2-y,-z
1/2+x,1/2+y,-z
1/2-x,1/2+y,1/2+z
1/2+x,1/2-y,1/2+z
loop_
_atom_site_type_symbol
_atom_site_label
_atom_site_fract_x
_atom_site_fract_y
_atom_site_fract_z
Si Si1 0.595365 0.238160 0.394491
Si Si2 0.263855 0.640350 0.750000
Si Si3 0.311175 0.894897 0.400629
Si Si4 0.500000 0.108338 0.605434
Si Si5 0.904635 0.261840 0.105509
Si Si6 0.688825 0.105103 0.900629
Si Si7 0.115468 0.889165 0.750000
O O1 0.591861 0.261563 0.500000
O O2 0.648426 0.185057 0.368026
O O3 0.549822 0.167697 0.362764
O O4 0.593165 0.337199 0.338709
O O5 0.250000 0.750000 0.750001
O O6 0.238729 0.597005 0.661112
O O7 0.238729 0.597005 0.838888
O O8 0.323115 0.613934 0.750000
O O9 0.291904 0.868754 0.500000
O O10 0.338748 1.000000 0.400548
O O11 0.499999 0.099045 0.500000
O O12 0.450178 0.167698 0.637238
O O13 0.500000 0.000000 0.647045
O O14 0.851574 0.314943 0.131974
O O15 0.906835 0.162801 0.161290
O O16 0.908140 0.238438 0.000000
O O17 0.708096 0.131246 0.000000
O O18 0.096566 0.000000 0.750000
#
# Coordination Sequence:
#
# PCOD8276569 Si02
#       7
#    16  16  16  16  16  16  16
#     4  10  21  39  62  89 121 153 190 239 295 353
#     4  12  22  39  59  80 115 157 200 247 292 340
#     4  10  20  35  59  89 118 149 186 234 297 362
#     4   9  18  37  67  98 125 151 182 232 302 368
#     4  10  21  39  62  89 121 153 190 239 295 353
#     4  10  20  35  59  89 118 149 186 234 297 362
#     4  12  26  42  58  81 116 162 210 249 286 333
#
# _framework density 20.771319999999999
#
# number of rings (size 3 to 8) (size 9 to 14) (size 15 to 20)
#    0.000    1.571    2.857    2.143    0.000    6.286 
#    0.000    4.286    0.000    2.571    0.000    0.000 
#    0.000    0.000    0.000    0.000    0.000    0.000 
#
# Total GULP energy -694259.063590 kJ/mol
# GULP energy per Si atom -12397.483278 kJ/mol
# Density = 2.072404 g / cm^3
# Si number density = 20.771320 Si / 1000 Ang^3
#
#
#
# Elastic Constant Matrix: (Units=GPa)
#
#
# Indices 1 2 3 4 5 6 
#
# 1 96.1128 39.8789 43.3527 0.0000 0.0000 0.0000
# 2 39.8789 170.9938 52.4283 0.0000 0.0000 0.0000
# 3 43.3527 52.4283 111.1041 0.0000 0.0000 0.0000
# 4 0.0000 0.0000 0.0000 40.4058 0.0000 0.0000
# 5 0.0000 0.0000 0.0000 0.0000 22.0264 0.0000
# 6 0.0000 0.0000 0.0000 0.0000 0.0000 28.3515
#
#
#
# Elastic Compliance Matrix: (Units=1/GPa)
#
#
# Indices 1 2 3 4 5 6 
#
# 1 0.013052 -0.001733 -0.004275 0.000000 0.000000 0.000000
# 2 -0.001733 0.007068 -0.002659 0.000000 0.000000 0.000000
# 3 -0.004275 -0.002659 0.011923 0.000000 0.000000 0.000000
# 4 0.000000 0.000000 0.000000 0.024749 0.000000 0.000000
# 5 0.000000 0.000000 0.000000 0.000000 0.045400 0.000000
# 6 0.000000 0.000000 0.000000 0.000000 0.000000 0.035272
#
#
# Mechanical properties :
#
#
# Convention : Reuss Voigt Hill
#
# Bulk Modulus (GPa) = 67.98627 72.17005 70.07816
# Shear Modulus (GPa) = 31.30868 34.32679 32.81773
#
# Velocity S-wave (km/s) = 3.88661 4.06963 3.97918
# Velocity P-wave (km/s) = 7.27619 7.54341 7.41100
#
# Compressibility (1/GPa) = 0.01470885
#
# Stress axis : x y z
#
# Youngs Moduli (GPa) = 76.61756 141.49090 83.86945
#
# Poissons Ratio (x) = 0.24523 0.35854
# Poissons Ratio (y) = 0.13279 0.22299
# Poissons Ratio (z) = 0.32754 0.37620
#
# Static dielectric constant tensor:
#      x y z
#    x 3.782320 0.000000 0.000000 
#    y 0.000000 3.777260 0.000000 
#    z 0.000000 0.000000 3.599490 
# 
# 
# High freq. dielectric constant tensor:
#      x y z
#    x 1.795510 0.000000 0.000000 
#    y 0.000000 1.816340 0.000000 
#    z 0.000000 0.000000 1.817670 
# 
# From -- ./inp_files/32423.got.cif
#   From: 2010.03.12/outbox.cif.g09.slc.cpg/sg66_17_cif.got.tgz:32423.got - 2010.04.10 21:57:39.
