data_PCOD8276321
_publ_section_title
;
Structure prediction by ZEFSAII (Michael W. Deem and Ramdas Pophale) SiO2 
 PCOD8276321
Probable space group: C C C M
;
_chemical_formula_sum "Si O2"
_cell_formula_units_Z 68
_cell_length_a 29.327259
_cell_length_b 14.763550
_cell_length_c 9.146379
_cell_angle_alpha 90.000000
_cell_angle_beta 90.000000
_cell_angle_gamma 90.000000
_cell_volume 3960.148459
_symmetry_space_group_name_H-M "C C C M"
_symmetry_group_IT_number 66
_symmetry_cell_setting 'orthorhombic'
loop_
_space_group_symop_operation_xyz
x,y,z
-x,-y,z
x,-y,1/2-z
-x,y,1/2-z
-x,-y,-z
x,y,-z
-x,y,1/2+z
x,-y,1/2+z
1/2+x,1/2+y,z
1/2-x,1/2-y,z
1/2+x,1/2-y,1/2-z
1/2-x,1/2+y,1/2-z
1/2-x,1/2-y,-z
1/2+x,1/2+y,-z
1/2-x,1/2+y,1/2+z
1/2+x,1/2-y,1/2+z
loop_
_atom_site_type_symbol
_atom_site_label
_atom_site_fract_x
_atom_site_fract_y
_atom_site_fract_z
Si Si1 0.500000 0.000000 0.750000
Si Si2 0.588139 0.080765 0.840472
Si Si3 0.653513 0.768841 0.673441
Si Si4 0.675273 0.408586 0.331181
Si Si5 0.782504 0.592337 0.830185
O O1 0.532847 0.068575 0.840428
O O2 0.605761 0.178971 0.788578
O O3 0.611771 0.000000 0.750000
O O4 0.607798 0.065598 0.000000
O O5 0.661807 0.757188 0.500000
O O6 0.648881 0.672084 0.749848
O O7 0.694720 0.824461 0.745372
O O8 0.660481 0.500000 0.250000
O O9 0.660062 0.413517 0.500000
O O10 0.728839 0.391467 0.317239
O O11 0.796788 0.500000 0.750000
O O12 0.797705 0.589722 0.000000
#
# Coordination Sequence:
#
# PCOD8276321 Si02
#       5
#     4  16  16  16  16
#     4   8  18  36  54  72 108 136 162 192 246 300
#     4   9  19  32  50  74 102 132 161 195 239 295
#     4  11  21  32  48  74 101 130 169 210 251 299
#     4  10  21  36  51  68  94 132 174 216 256 294
#     4  10  20  33  48  69  98 133 172 211 254 299
#
# _framework density 17.171073
#
# number of rings (size 3 to 8) (size 9 to 14) (size 15 to 20)
#    0.706    1.412    0.000    3.882    0.000    9.412 
#    0.000    0.000    0.000    0.000    0.000    0.824 
#    0.000    5.647    0.000    0.000    0.000    0.000 
#
# Total GULP energy -421289.753915 kJ/mol
# GULP energy per Si atom -12390.875115 kJ/mol
# Density = 1.713199 g / cm^3
# Si number density = 17.171073 Si / 1000 Ang^3
#
#
#
# Elastic Constant Matrix: (Units=GPa)
#
#
# Indices 1 2 3 4 5 6 
#
# 1 56.5793 47.6386 34.6456 0.0000 0.0000 0.0000
# 2 47.6386 158.7280 78.6262 0.0000 0.0000 0.0000
# 3 34.6456 78.6262 131.3315 0.0000 0.0000 0.0000
# 4 0.0000 0.0000 0.0000 36.2848 0.0000 0.0000
# 5 0.0000 0.0000 0.0000 0.0000 -9.0589 0.0000
# 6 0.0000 0.0000 0.0000 0.0000 0.0000 23.9568
#
#
#
# Elastic Compliance Matrix: (Units=1/GPa)
#
#
# Indices 1 2 3 4 5 6 
#
# 1 0.024414 -0.005881 -0.002920 0.000000 0.000000 0.000000
# 2 -0.005881 0.010373 -0.004659 0.000000 0.000000 0.000000
# 3 -0.002920 -0.004659 0.011174 0.000000 0.000000 0.000000
# 4 0.000000 0.000000 0.000000 0.027560 0.000000 0.000000
# 5 0.000000 0.000000 0.000000 0.000000 -0.110389 0.000000
# 6 0.000000 0.000000 0.000000 0.000000 0.000000 0.041742
#
#
# Mechanical properties :
#
#
# Convention : Reuss Voigt Hill
#
# Bulk Modulus (GPa) = 52.51618 74.27330 63.39474
# Shear Modulus (GPa) = 131.10021 22.61842 76.85932
#
# Velocity S-wave (km/s) = 8.74730 3.63332 6.69762
# Velocity P-wave (km/s) = 11.51828 7.80706 9.83923
#
# Compressibility (1/GPa) = 0.01904175
#
# Stress axis : x y z
#
# Youngs Moduli (GPa) = 40.96050 96.40607 89.49720
#
# Poissons Ratio (x) = 0.56697 0.26129
# Poissons Ratio (y) = 0.24089 0.41693
# Poissons Ratio (z) = 0.11959 0.44912
#
# Static dielectric constant tensor:
#      x y z
#    x 2.921250 0.000000 0.000000 
#    y 0.000000 3.265390 0.000000 
#    z 0.000000 0.000000 3.361570 
# 
# 
# High freq. dielectric constant tensor:
#      x y z
#    x 1.625350 0.000000 0.000000 
#    y 0.000000 1.659570 0.000000 
#    z 0.000000 0.000000 1.679940 
# 
# From -- ./inp_files/9937.got.cif
#   From: 2010.03.12/outbox.cif.g09.slc.cpg/sg66_5_cif.got.tgz:9937.got - 2010.04.10 21:57:39.
