data_PCOD8276833
_publ_section_title
;
Structure prediction by ZEFSAII (Michael W. Deem and Ramdas Pophale) SiO2 
 PCOD8276833
Probable space group: C C C M
;
_chemical_formula_sum "Si O2"
_cell_formula_units_Z 68
_cell_length_a 20.180994
_cell_length_b 20.206586
_cell_length_c 9.054677
_cell_angle_alpha 90.000000
_cell_angle_beta 90.000000
_cell_angle_gamma 90.000000
_cell_volume 3692.397596
_symmetry_space_group_name_H-M "C C C M"
_symmetry_group_IT_number 66
_symmetry_cell_setting 'orthorhombic'
loop_
_space_group_symop_operation_xyz
x,y,z
-x,-y,z
x,-y,1/2-z
-x,y,1/2-z
-x,-y,-z
x,y,-z
-x,y,1/2+z
x,-y,1/2+z
1/2+x,1/2+y,z
1/2-x,1/2-y,z
1/2+x,1/2-y,1/2-z
1/2-x,1/2+y,1/2-z
1/2-x,1/2-y,-z
1/2+x,1/2+y,-z
1/2-x,1/2+y,1/2+z
1/2+x,1/2-y,1/2+z
loop_
_atom_site_type_symbol
_atom_site_label
_atom_site_fract_x
_atom_site_fract_y
_atom_site_fract_z
Si Si1 0.689852 0.201465 0.328384
Si Si2 0.933825 0.762572 0.324778
Si Si3 0.000000 0.000000 0.250000
Si Si4 0.743355 0.565394 0.827938
Si Si5 0.099108 0.105816 0.164732
O O1 0.670908 0.209295 0.500000
O O2 0.750000 0.250000 0.288003
O O3 0.627793 0.218976 0.227289
O O4 0.709585 0.126734 0.288400
O O5 0.940604 0.759522 0.500000
O O6 0.926504 0.838626 0.275933
O O7 0.000000 0.732917 0.250000
O O8 0.046977 0.046073 0.150511
O O9 0.771730 0.500000 0.750000
O O10 0.669011 0.580282 0.771948
O O11 0.742333 0.551045 0.000000
O O12 0.108954 0.136254 0.000000
#
# Coordination Sequence:
#
# PCOD8276833 Si02
#       5
#    16  16   4  16  16
#     4  10  20  39  63  86 117 158 201 247 299 352
#     4  12  25  39  59  86 117 154 198 249 299 354
#     4  12  22  32  56  82 122 168 202 232 274 344
#     4  10  21  37  58  84 118 157 195 243 295 348
#     4  11  22  36  53  81 118 160 201 237 283 341
#
# _framework density 18.416219000000002
#
# number of rings (size 3 to 8) (size 9 to 14) (size 15 to 20)
#    0.000    1.176    4.706    2.471    0.000    3.294 
#    0.000    0.000    0.000    0.706    0.000    4.941 
#    0.000    0.000    0.000    0.000    0.000    0.000 
#
# Total GULP energy -421692.608769 kJ/mol
# GULP energy per Si atom -12402.723787 kJ/mol
# Density = 1.837430 g / cm^3
# Si number density = 18.416219 Si / 1000 Ang^3
#
#
#
# Elastic Constant Matrix: (Units=GPa)
#
#
# Indices 1 2 3 4 5 6 
#
# 1 120.1315 64.3772 61.0595 0.0000 0.0000 0.0000
# 2 64.3772 109.8581 48.2279 0.0000 0.0000 0.0000
# 3 61.0595 48.2279 108.5334 0.0000 0.0000 0.0000
# 4 0.0000 0.0000 0.0000 30.0130 0.0000 0.0000
# 5 0.0000 0.0000 0.0000 0.0000 27.6744 0.0000
# 6 0.0000 0.0000 0.0000 0.0000 0.0000 31.3724
#
#
#
# Elastic Compliance Matrix: (Units=1/GPa)
#
#
# Indices 1 2 3 4 5 6 
#
# 1 0.014267 -0.006009 -0.005356 0.000000 0.000000 0.000000
# 2 -0.006009 0.013840 -0.002769 0.000000 0.000000 0.000000
# 3 -0.005356 -0.002769 0.013458 0.000000 0.000000 0.000000
# 4 0.000000 0.000000 0.000000 0.033319 0.000000 0.000000
# 5 0.000000 0.000000 0.000000 0.000000 0.036135 0.000000
# 6 0.000000 0.000000 0.000000 0.000000 0.000000 0.031875
#
#
# Mechanical properties :
#
#
# Convention : Reuss Voigt Hill
#
# Bulk Modulus (GPa) = 75.21462 76.20581 75.71022
# Shear Modulus (GPa) = 28.47496 28.80251 28.63874
#
# Velocity S-wave (km/s) = 3.93643 3.95900 3.94773
# Velocity P-wave (km/s) = 7.84798 7.89733 7.87269
#
# Compressibility (1/GPa) = 0.01329529
#
# Stress axis : x y z
#
# Youngs Moduli (GPa) = 70.09305 72.25625 74.30770
#
# Poissons Ratio (x) = 0.43419 0.39800
# Poissons Ratio (y) = 0.42119 0.20577
# Poissons Ratio (z) = 0.37543 0.20009
#
# Static dielectric constant tensor:
#      x y z
#    x 3.593260 0.000000 0.000000 
#    y 0.000000 3.331840 0.000000 
#    z 0.000000 0.000000 3.213080 
# 
# 
# High freq. dielectric constant tensor:
#      x y z
#    x 1.712190 0.000000 0.000000 
#    y 0.000000 1.705260 0.000000 
#    z 0.000000 0.000000 1.708830 
# 
# From -- ./inp_files/6248.got.cif
#   From: 2010.03.12/outbox.cif.g09.slc.cpg/sg66_4_cif.got.tgz:6248.got - 2010.04.10 21:57:39.
