data_PCOD8276513
_publ_section_title
;
Structure prediction by ZEFSAII (Michael W. Deem and Ramdas Pophale) SiO2 
 PCOD8276513
Probable space group: C C C M
;
_chemical_formula_sum "Si O2"
_cell_formula_units_Z 80
_cell_length_a 9.062317
_cell_length_b 26.180283
_cell_length_c 16.415807
_cell_angle_alpha 90.000000
_cell_angle_beta 90.000000
_cell_angle_gamma 90.000000
_cell_volume 3894.716263
_symmetry_space_group_name_H-M "C C C M"
_symmetry_group_IT_number 66
_symmetry_cell_setting 'orthorhombic'
loop_
_space_group_symop_operation_xyz
x,y,z
-x,-y,z
x,-y,1/2-z
-x,y,1/2-z
-x,-y,-z
x,y,-z
-x,y,1/2+z
x,-y,1/2+z
1/2+x,1/2+y,z
1/2-x,1/2-y,z
1/2+x,1/2-y,1/2-z
1/2-x,1/2+y,1/2-z
1/2-x,1/2-y,-z
1/2+x,1/2+y,-z
1/2-x,1/2+y,1/2+z
1/2+x,1/2-y,1/2+z
loop_
_atom_site_type_symbol
_atom_site_label
_atom_site_fract_x
_atom_site_fract_y
_atom_site_fract_z
Si Si1 0.425793 0.753037 0.590007
Si Si2 0.613969 0.643362 0.097256
Si Si3 0.590483 0.047334 0.094039
Si Si4 0.917348 0.950304 0.596961
Si Si5 0.062136 0.642306 0.337891
O O1 0.486429 0.764718 0.500000
O O2 0.250000 0.750000 0.589426
O O3 0.473921 0.696192 0.618498
O O4 0.488479 0.799101 0.645026
O O5 0.505955 0.599107 0.126998
O O6 0.762110 0.638440 0.150809
O O7 0.652374 0.641420 0.000000
O O8 0.752812 0.050718 0.134442
O O9 0.508233 0.101333 0.101035
O O10 0.500000 0.000000 0.134598
O O11 0.612260 0.034162 0.000000
O O12 0.913273 0.950478 0.500000
O O13 0.000000 0.000000 0.631037
O O14 0.000000 0.626994 0.250000
#
# Coordination Sequence:
#
# PCOD8276513 Si02
#       5
#    16  16  16  16  16
#     4   8  15  31  55  77  99 136 185 226 261 311
#     4   9  17  34  59  81 105 142 187 227 265 321
#     4  10  20  35  56  80 106 138 178 226 276 323
#     4   9  17  31  54  82 105 131 175 226 272 318
#     4  11  21  33  51  79 111 142 176 220 273 327
#
# _framework density 20.540649999999999
#
# number of rings (size 3 to 8) (size 9 to 14) (size 15 to 20)
#    0.000    2.600    0.000    4.200    0.000    3.600 
#    0.000    8.000    0.000    6.000    0.000    0.000 
#    0.000    0.000    0.000    0.000    0.000    0.000 
#
# Total GULP energy -495710.531231 kJ/mol
# GULP energy per Si atom -12392.763281 kJ/mol
# Density = 2.049390 g / cm^3
# Si number density = 20.540650 Si / 1000 Ang^3
#
#
#
# Elastic Constant Matrix: (Units=GPa)
#
#
# Indices 1 2 3 4 5 6 
#
# 1 117.6936 78.4334 22.9690 0.0000 0.0000 0.0000
# 2 78.4334 198.8192 12.2921 0.0000 0.0000 0.0000
# 3 22.9690 12.2921 33.9925 0.0000 0.0000 0.0000
# 4 0.0000 0.0000 0.0000 8.7678 0.0000 0.0000
# 5 0.0000 0.0000 0.0000 0.0000 14.0564 0.0000
# 6 0.0000 0.0000 0.0000 0.0000 0.0000 37.4390
#
#
#
# Elastic Compliance Matrix: (Units=1/GPa)
#
#
# Indices 1 2 3 4 5 6 
#
# 1 0.013009 -0.004693 -0.007093 0.000000 0.000000 0.000000
# 2 -0.004693 0.006838 0.000699 0.000000 0.000000 0.000000
# 3 -0.007093 0.000699 0.033958 0.000000 0.000000 0.000000
# 4 0.000000 0.000000 0.000000 0.114053 0.000000 0.000000
# 5 0.000000 0.000000 0.000000 0.000000 0.071142 0.000000
# 6 0.000000 0.000000 0.000000 0.000000 0.000000 0.026710
#
#
# Mechanical properties :
#
#
# Convention : Reuss Voigt Hill
#
# Bulk Modulus (GPa) = 31.61578 64.21047 47.91313
# Shear Modulus (GPa) = 16.75443 27.84003 22.29723
#
# Velocity S-wave (km/s) = 2.85910 3.68552 3.29829
# Velocity P-wave (km/s) = 5.13074 7.03127 6.15481
#
# Compressibility (1/GPa) = 0.03162978
#
# Stress axis : x y z
#
# Youngs Moduli (GPa) = 76.87232 146.24158 29.44791
#
# Poissons Ratio (x) = 0.68636 0.20887
# Poissons Ratio (y) = 0.36079 -0.02057
# Poissons Ratio (z) = 0.54524 -0.10216
#
# Static dielectric constant tensor:
#      x y z
#    x 3.623740 0.000000 0.000000 
#    y 0.000000 4.254030 0.000000 
#    z 0.000000 0.000000 3.159610 
# 
# 
# High freq. dielectric constant tensor:
#      x y z
#    x 1.783290 0.000000 0.000000 
#    y 0.000000 1.829960 0.000000 
#    z 0.000000 0.000000 1.753850 
# 
# From -- ./inp_files/36970.got.cif
#   From: 2010.03.12/outbox.cif.g09.slc.cpg/sg66_19_cif.got.tgz:36970.got - 2010.04.10 21:57:39.
