data_PCOD8276069
_publ_section_title
;
Structure prediction by ZEFSAII (Michael W. Deem and Ramdas Pophale) SiO2 
 PCOD8276069
Probable space group: C C C M
;
_chemical_formula_sum "Si O2"
_cell_formula_units_Z 88
_cell_length_a 17.332900
_cell_length_b 12.070573
_cell_length_c 19.560753
_cell_angle_alpha 90.000000
_cell_angle_beta 90.000000
_cell_angle_gamma 90.000000
_cell_volume 4092.462301
_symmetry_space_group_name_H-M "C C C M"
_symmetry_group_IT_number 66
_symmetry_cell_setting 'orthorhombic'
loop_
_space_group_symop_operation_xyz
x,y,z
-x,-y,z
x,-y,1/2-z
-x,y,1/2-z
-x,-y,-z
x,y,-z
-x,y,1/2+z
x,-y,1/2+z
1/2+x,1/2+y,z
1/2-x,1/2-y,z
1/2+x,1/2-y,1/2-z
1/2-x,1/2+y,1/2-z
1/2-x,1/2-y,-z
1/2+x,1/2+y,-z
1/2-x,1/2+y,1/2+z
1/2+x,1/2-y,1/2+z
loop_
_atom_site_type_symbol
_atom_site_label
_atom_site_fract_x
_atom_site_fract_y
_atom_site_fract_z
Si Si1 0.750000 0.750000 0.384166
Si Si2 0.784598 0.586183 0.920021
Si Si3 0.982414 0.238782 0.826459
Si Si4 0.649069 0.306048 0.641183
Si Si5 0.885933 0.617858 0.423638
Si Si6 0.838201 0.120118 0.216844
O O1 0.822137 0.715244 0.430135
O O2 0.769915 0.856522 0.336504
O O3 0.697793 0.586482 0.886756
O O4 0.825164 0.701167 0.902363
O O5 0.842579 0.490632 0.893803
O O6 0.772724 0.570999 0.000000
O O7 0.952927 0.343522 0.871736
O O8 0.919447 0.141010 0.821607
O O9 0.000000 0.284222 0.750000
O O10 0.056304 0.182626 0.863912
O O11 0.669662 0.291205 0.721174
O O12 0.920215 0.597922 0.500000
O O13 0.835463 0.000000 0.250000
#
# Coordination Sequence:
#
# PCOD8276069 Si02
#       6
#     8  16  16  16  16  16
#     4  10  19  34  56  84 113 148 192 236 283 352
#     4  10  21  36  56  82 111 148 192 239 292 348
#     4   9  21  38  57  85 117 151 195 245 294 350
#     4  10  19  35  55  80 109 142 188 242 286 340
#     4  10  21  37  57  83 117 156 193 236 297 358
#     4  10  20  35  57  83 114 151 188 237 299 348
#
# _framework density 21.502946999999999
#
# number of rings (size 3 to 8) (size 9 to 14) (size 15 to 20)
#    0.000    2.182    0.000    3.545    0.000    5.455 
#    0.000   13.636    0.000    1.091    0.000   21.636 
#    0.000    0.000    0.000    0.000    0.000    0.000 
#
# Total GULP energy -545120.171095 kJ/mol
# GULP energy per Si atom -12389.094798 kJ/mol
# Density = 2.145400 g / cm^3
# Si number density = 21.502947 Si / 1000 Ang^3
#
#
#
# Elastic Constant Matrix: (Units=GPa)
#
#
# Indices 1 2 3 4 5 6 
#
# 1 114.8607 28.2486 45.3846 0.0000 0.0000 0.0000
# 2 28.2486 85.9344 21.8076 0.0000 0.0000 0.0000
# 3 45.3846 21.8076 74.3297 0.0000 0.0000 0.0000
# 4 0.0000 0.0000 0.0000 18.6457 0.0000 0.0000
# 5 0.0000 0.0000 0.0000 0.0000 33.9880 0.0000
# 6 0.0000 0.0000 0.0000 0.0000 0.0000 29.8289
#
#
#
# Elastic Compliance Matrix: (Units=1/GPa)
#
#
# Indices 1 2 3 4 5 6 
#
# 1 0.011856 -0.002226 -0.006586 0.000000 0.000000 0.000000
# 2 -0.002226 0.012991 -0.002452 0.000000 0.000000 0.000000
# 3 -0.006586 -0.002452 0.018194 0.000000 0.000000 0.000000
# 4 0.000000 0.000000 0.000000 0.053632 0.000000 0.000000
# 5 0.000000 0.000000 0.000000 0.000000 0.029422 0.000000
# 6 0.000000 0.000000 0.000000 0.000000 0.000000 0.033525
#
#
# Mechanical properties :
#
#
# Convention : Reuss Voigt Hill
#
# Bulk Modulus (GPa) = 48.75026 51.77848 50.26437
# Shear Modulus (GPa) = 26.45708 28.47146 27.46427
#
# Velocity S-wave (km/s) = 3.51150 3.64273 3.57772
# Velocity P-wave (km/s) = 6.25792 6.46720 6.36342
#
# Compressibility (1/GPa) = 0.02051271
#
# Stress axis : x y z
#
# Youngs Moduli (GPa) = 84.34589 76.97739 54.96217
#
# Poissons Ratio (x) = 0.17135 0.36198
# Poissons Ratio (y) = 0.18775 0.13478
# Poissons Ratio (z) = 0.55550 0.18877
#
# Static dielectric constant tensor:
#      x y z
#    x 4.147830 0.000000 0.000000 
#    y 0.000000 3.658650 0.000000 
#    z 0.000000 0.000000 3.945890 
# 
# 
# High freq. dielectric constant tensor:
#      x y z
#    x 1.848720 0.000000 0.000000 
#    y 0.000000 1.823000 0.000000 
#    z 0.000000 0.000000 1.842940 
# 
# From -- ./inp_files/50915.got.cif
#   From: 2010.03.12/outbox.cif.g09.slc.cpg/sg66_26_cif.got.tgz:50915.got - 2010.04.10 21:57:39.
