data_PCOD8276143
_publ_section_title
;
Structure prediction by ZEFSAII (Michael W. Deem and Ramdas Pophale) SiO2 
 PCOD8276143
Probable space group: C C C M
;
_chemical_formula_sum "Si O2"
_cell_formula_units_Z 96
_cell_length_a 26.895072
_cell_length_b 8.870687
_cell_length_c 20.192795
_cell_angle_alpha 90.000000
_cell_angle_beta 90.000000
_cell_angle_gamma 90.000000
_cell_volume 4817.551911
_symmetry_space_group_name_H-M "C C C M"
_symmetry_group_IT_number 66
_symmetry_cell_setting 'orthorhombic'
loop_
_space_group_symop_operation_xyz
x,y,z
-x,-y,z
x,-y,1/2-z
-x,y,1/2-z
-x,-y,-z
x,y,-z
-x,y,1/2+z
x,-y,1/2+z
1/2+x,1/2+y,z
1/2-x,1/2-y,z
1/2+x,1/2-y,1/2-z
1/2-x,1/2+y,1/2-z
1/2-x,1/2-y,-z
1/2+x,1/2+y,-z
1/2-x,1/2+y,1/2+z
1/2+x,1/2-y,1/2+z
loop_
_atom_site_type_symbol
_atom_site_label
_atom_site_fract_x
_atom_site_fract_y
_atom_site_fract_z
Si Si1 0.915039 0.643675 0.837112
Si Si2 0.791972 0.855068 0.702731
Si Si3 0.756012 0.994143 0.074033
Si Si4 0.395296 0.186326 0.315042
Si Si5 0.330750 0.779473 0.426831
Si Si6 0.507362 0.665609 0.328279
O O1 0.910683 0.659839 0.759624
O O2 0.902144 0.470221 0.855627
O O3 0.874058 0.744846 0.873690
O O4 0.969448 0.707594 0.858102
O O5 0.750000 0.750000 0.738955
O O6 0.841103 0.760489 0.685281
O O7 0.802703 0.000000 0.750000
O O8 0.768432 0.889732 0.631470
O O9 0.701023 0.929859 0.087703
O O10 0.795737 0.862643 0.078468
O O11 0.758333 0.067306 0.000000
O O12 0.435968 0.295875 0.347720
O O13 0.354441 0.790754 0.500000
O O14 0.500000 0.500000 0.359724
O O15 0.500000 0.658086 0.250000
#
# Coordination Sequence:
#
# PCOD8276143 Si02
#       6
#    16  16  16  16  16  16
#     4  10  19  35  59  79 117 145 188 241 283 353
#     4  12  27  37  57  88 125 157 196 250 307 357
#     4   9  20  38  58  81 116 158 205 244 287 361
#     4  10  22  35  54  85 116 154 186 232 304 346
#     4   9  18  34  60  85 107 153 200 238 290 347
#     4   9  19  33  56  84 111 145 191 231 286 353
#
# _framework density 19.927132
#
# number of rings (size 3 to 8) (size 9 to 14) (size 15 to 20)
#    0.000    2.167    0.000    3.500   14.000    2.333 
#    0.000    0.833    0.000    3.500    0.000    0.000 
#    0.000    0.000    0.000    0.000    0.000    0.000 
#
# Total GULP energy -594742.174732 kJ/mol
# GULP energy per Si atom -12390.461974 kJ/mol
# Density = 1.988178 g / cm^3
# Si number density = 19.927132 Si / 1000 Ang^3
#
#
#
# Elastic Constant Matrix: (Units=GPa)
#
#
# Indices 1 2 3 4 5 6 
#
# 1 145.1977 54.5817 11.8844 0.0000 0.0000 0.0000
# 2 54.5817 112.8992 16.2050 0.0000 0.0000 0.0000
# 3 11.8844 16.2050 36.9269 0.0000 0.0000 0.0000
# 4 0.0000 0.0000 0.0000 17.2102 0.0000 0.0000
# 5 0.0000 0.0000 0.0000 0.0000 38.0147 0.0000
# 6 0.0000 0.0000 0.0000 0.0000 0.0000 30.9194
#
#
#
# Elastic Compliance Matrix: (Units=1/GPa)
#
#
# Indices 1 2 3 4 5 6 
#
# 1 0.008451 -0.003943 -0.000989 0.000000 0.000000 0.000000
# 2 -0.003943 0.011293 -0.003687 0.000000 0.000000 0.000000
# 3 -0.000989 -0.003687 0.029017 0.000000 0.000000 0.000000
# 4 0.000000 0.000000 0.000000 0.058105 0.000000 0.000000
# 5 0.000000 0.000000 0.000000 0.000000 0.026306 0.000000
# 6 0.000000 0.000000 0.000000 0.000000 0.000000 0.032342
#
#
# Mechanical properties :
#
#
# Convention : Reuss Voigt Hill
#
# Bulk Modulus (GPa) = 31.72409 51.15177 41.43793
# Shear Modulus (GPa) = 25.87202 31.38572 28.62887
#
# Velocity S-wave (km/s) = 3.60715 3.97296 3.79447
# Velocity P-wave (km/s) = 5.77090 6.83894 6.32749
#
# Compressibility (1/GPa) = 0.03152178
#
# Stress axis : x y z
#
# Youngs Moduli (GPa) = 118.33585 88.54943 34.46282
#
# Poissons Ratio (x) = 0.34919 0.03409
# Poissons Ratio (y) = 0.46665 0.12705
# Poissons Ratio (z) = 0.11705 0.32646
#
# Static dielectric constant tensor:
#      x y z
#    x 3.785350 0.000000 0.000000 
#    y 0.000000 3.909370 0.000000 
#    z 0.000000 0.000000 3.541600 
# 
# 
# High freq. dielectric constant tensor:
#      x y z
#    x 1.783160 0.000000 0.000000 
#    y 0.000000 1.782120 0.000000 
#    z 0.000000 0.000000 1.736450 
# 
# From -- ./inp_files/47333.got.cif
#   From: 2010.03.12/outbox.cif.g09.slc.cpg/sg66_24_cif.got.tgz:47333.got - 2010.04.10 21:57:39.
