data_PCOD8276964
_publ_section_title
;
Structure prediction by ZEFSAII (Michael W. Deem and Ramdas Pophale) SiO2 
 PCOD8276964
Probable space group: C C C M
;
_chemical_formula_sum "Si O2"
_cell_formula_units_Z 104
_cell_length_a 21.292641
_cell_length_b 26.760653
_cell_length_c 9.091044
_cell_angle_alpha 90.000000
_cell_angle_beta 90.000000
_cell_angle_gamma 90.000000
_cell_volume 5180.122120
_symmetry_space_group_name_H-M "C C C M"
_symmetry_group_IT_number 66
_symmetry_cell_setting 'orthorhombic'
loop_
_space_group_symop_operation_xyz
x,y,z
-x,-y,z
x,-y,1/2-z
-x,y,1/2-z
-x,-y,-z
x,y,-z
-x,y,1/2+z
x,-y,1/2+z
1/2+x,1/2+y,z
1/2-x,1/2-y,z
1/2+x,1/2-y,1/2-z
1/2-x,1/2+y,1/2-z
1/2-x,1/2-y,-z
1/2+x,1/2+y,-z
1/2-x,1/2+y,1/2+z
1/2+x,1/2-y,1/2+z
loop_
_atom_site_type_symbol
_atom_site_label
_atom_site_fract_x
_atom_site_fract_y
_atom_site_fract_z
Si Si1 0.250000 0.250000 0.738280
Si Si2 0.383161 0.273135 0.662282
Si Si3 0.249131 0.050366 0.331943
Si Si4 0.438861 0.645464 0.674367
Si Si5 0.061856 0.681937 0.327460
Si Si6 0.100835 0.950792 0.169718
Si Si7 0.198729 0.645162 0.664267
O O1 0.311116 0.257350 0.638506
O O2 0.234319 0.300922 0.829038
O O3 0.411765 0.282395 0.500000
O O4 0.380592 0.322892 0.762313
O O5 0.426603 0.234578 0.748965
O O6 0.270694 0.045181 0.500000
O O7 0.174990 0.054971 0.317087
O O8 0.276256 0.102367 0.271568
O O9 0.273320 0.000000 0.250000
O O10 0.500000 0.670470 0.750000
O O11 0.441182 0.646504 0.500000
O O12 0.433867 0.590160 0.734561
O O13 0.049004 0.690158 0.500000
O O14 0.124163 0.649052 0.301881
O O15 0.000000 0.657337 0.250000
O O16 0.077216 0.000000 0.250000
O O17 0.078941 0.948926 0.000000
O O18 0.209111 0.625123 0.500000
#
# Coordination Sequence:
#
# PCOD8276964 Si02
#       7
#     8  16  16  16  16  16  16
#     4  10  22  36  58  88 120 154 188 228 282 342
#     4  11  22  37  56  80 111 146 184 227 273 328
#     4  10  21  37  60  87 117 151 189 233 284 338
#     4  12  25  40  57  78 106 144 187 232 279 329
#     4  10  21  37  56  80 110 147 186 226 272 328
#     4  10  21  38  58  82 109 140 180 227 277 330
#     4  10  21  36  57  85 118 152 189 232 282 337
#
# _framework density 20.076747000000001
#
# number of rings (size 3 to 8) (size 9 to 14) (size 15 to 20)
#    0.000    1.538    0.000    5.077    0.000   10.154 
#    0.000    1.538    0.000    0.462    0.000    3.231 
#    0.000    0.000    0.000    0.000    0.000    0.000 
#
# Total GULP energy -644496.682771 kJ/mol
# GULP energy per Si atom -12394.166976 kJ/mol
# Density = 2.003105 g / cm^3
# Si number density = 20.076747 Si / 1000 Ang^3
#
#
#
# Elastic Constant Matrix: (Units=GPa)
#
#
# Indices 1 2 3 4 5 6 
#
# 1 57.7170 22.4030 38.2383 0.0000 0.0000 0.0000
# 2 22.4030 108.2840 60.2802 0.0000 0.0000 0.0000
# 3 38.2383 60.2802 188.6454 0.0000 0.0000 0.0000
# 4 0.0000 0.0000 0.0000 33.5838 0.0000 0.0000
# 5 0.0000 0.0000 0.0000 0.0000 35.5039 0.0000
# 6 0.0000 0.0000 0.0000 0.0000 0.0000 22.7416
#
#
#
# Elastic Compliance Matrix: (Units=1/GPa)
#
#
# Indices 1 2 3 4 5 6 
#
# 1 0.020491 -0.002344 -0.003405 0.000000 0.000000 0.000000
# 2 -0.002344 0.011501 -0.003200 0.000000 0.000000 0.000000
# 3 -0.003405 -0.003200 0.007014 0.000000 0.000000 0.000000
# 4 0.000000 0.000000 0.000000 0.029776 0.000000 0.000000
# 5 0.000000 0.000000 0.000000 0.000000 0.028166 0.000000
# 6 0.000000 0.000000 0.000000 0.000000 0.000000 0.043972
#
#
# Mechanical properties :
#
#
# Convention : Reuss Voigt Hill
#
# Bulk Modulus (GPa) = 47.37353 66.27661 56.82507
# Shear Modulus (GPa) = 30.14690 33.94753 32.04721
#
# Velocity S-wave (km/s) = 3.87923 4.11650 3.99963
# Velocity P-wave (km/s) = 6.61151 7.46173 7.04945
#
# Compressibility (1/GPa) = 0.02110883
#
# Stress axis : x y z
#
# Youngs Moduli (GPa) = 48.80100 86.94619 142.58059
#
# Poissons Ratio (x) = 0.20382 0.48542
# Poissons Ratio (y) = 0.11440 0.45626
# Poissons Ratio (z) = 0.16614 0.27823
#
# Static dielectric constant tensor:
#      x y z
#    x 3.744900 0.000000 0.000000 
#    y 0.000000 3.313520 0.000000 
#    z 0.000000 0.000000 3.677960 
# 
# 
# High freq. dielectric constant tensor:
#      x y z
#    x 1.783510 0.000000 0.000000 
#    y 0.000000 1.771410 0.000000 
#    z 0.000000 0.000000 1.797760 
# 
# From -- ./inp_files/8151.got.cif
#   From: 2010.03.12/outbox.cif.g09.slc.cpg/sg66_5_cif.got.tgz:8151.got - 2010.04.10 21:57:39.
