data_PCOD8276515
_publ_section_title
;
Structure prediction by ZEFSAII (Michael W. Deem and Ramdas Pophale) SiO2 
 PCOD8276515
Probable space group: C C C M
;
_chemical_formula_sum "Si O2"
_cell_formula_units_Z 104
_cell_length_a 29.212219
_cell_length_b 18.864116
_cell_length_c 9.120088
_cell_angle_alpha 90.000000
_cell_angle_beta 90.000000
_cell_angle_gamma 90.000000
_cell_volume 5025.740207
_symmetry_space_group_name_H-M "C C C M"
_symmetry_group_IT_number 66
_symmetry_cell_setting 'orthorhombic'
loop_
_space_group_symop_operation_xyz
x,y,z
-x,-y,z
x,-y,1/2-z
-x,y,1/2-z
-x,-y,-z
x,y,-z
-x,y,1/2+z
x,-y,1/2+z
1/2+x,1/2+y,z
1/2-x,1/2-y,z
1/2+x,1/2-y,1/2-z
1/2-x,1/2+y,1/2-z
1/2-x,1/2-y,-z
1/2+x,1/2+y,-z
1/2-x,1/2+y,1/2+z
1/2+x,1/2-y,1/2+z
loop_
_atom_site_type_symbol
_atom_site_label
_atom_site_fract_x
_atom_site_fract_y
_atom_site_fract_z
Si Si1 0.142962 0.342136 0.676200
Si Si2 0.570214 0.931592 0.834750
Si Si3 0.578132 0.278694 0.163568
Si Si4 0.000000 0.319393 0.750000
Si Si5 0.261869 0.168817 0.834856
Si Si6 0.090434 0.931250 0.834224
Si Si7 0.300982 0.431313 0.332719
O O1 0.142805 0.347496 0.500000
O O2 0.114395 0.407244 0.742732
O O3 0.118799 0.269090 0.732591
O O4 0.193566 0.346474 0.738472
O O5 0.531931 0.869973 0.847969
O O6 0.549987 0.000000 0.750000
O O7 0.584484 0.951967 0.000000
O O8 0.531612 0.233100 0.155020
O O9 0.572485 0.356583 0.239140
O O10 0.593958 0.297641 0.000000
O O11 0.250000 0.250000 0.843266
O O12 0.218658 0.135465 0.753195
O O13 0.268440 0.138563 0.000000
O O14 0.144792 0.928502 0.823938
O O15 0.070834 0.000000 0.750000
O O16 0.072991 0.939880 0.000000
O O17 0.281500 0.500000 0.250000
O O18 0.283678 0.431802 0.500000
#
# Coordination Sequence:
#
# PCOD8276515 Si02
#       7
#    16  16  16   8  16  16  16
#     4  10  21  38  59  82 110 147 191 235 283 337
#     4  11  23  39  60  86 116 149 188 234 284 338
#     4   9  18  35  57  80 108 142 180 223 272 327
#     4  10  21  36  59  86 114 146 184 228 275 330
#     4  11  23  37  55  83 118 152 189 235 283 334
#     4   9  18  34  56  81 109 142 181 224 270 323
#     4  10  20  35  56  81 109 145 189 234 281 332
#
# _framework density 20.693470000000001
#
# number of rings (size 3 to 8) (size 9 to 14) (size 15 to 20)
#    0.000    2.000    0.000    3.462    0.000    6.154 
#    0.000    8.077    0.000    1.846    0.000    0.000 
#    0.000    0.000    0.000    0.000    0.000    0.000 
#
# Total GULP energy -644534.781111 kJ/mol
# GULP energy per Si atom -12394.899637 kJ/mol
# Density = 2.064637 g / cm^3
# Si number density = 20.693470 Si / 1000 Ang^3
#
#
#
# Elastic Constant Matrix: (Units=GPa)
#
#
# Indices 1 2 3 4 5 6 
#
# 1 46.9789 15.5949 23.3226 0.0000 0.0000 0.0000
# 2 15.5949 136.6198 51.5957 0.0000 0.0000 0.0000
# 3 23.3226 51.5957 129.4155 0.0000 0.0000 0.0000
# 4 0.0000 0.0000 0.0000 29.3360 0.0000 0.0000
# 5 0.0000 0.0000 0.0000 0.0000 25.5886 0.0000
# 6 0.0000 0.0000 0.0000 0.0000 0.0000 27.8048
#
#
#
# Elastic Compliance Matrix: (Units=1/GPa)
#
#
# Indices 1 2 3 4 5 6 
#
# 1 0.023566 -0.001279 -0.003737 0.000000 0.000000 0.000000
# 2 -0.001279 0.008686 -0.003233 0.000000 0.000000 0.000000
# 3 -0.003737 -0.003233 0.009689 0.000000 0.000000 0.000000
# 4 0.000000 0.000000 0.000000 0.034088 0.000000 0.000000
# 5 0.000000 0.000000 0.000000 0.000000 0.039080 0.000000
# 6 0.000000 0.000000 0.000000 0.000000 0.000000 0.035965
#
#
# Mechanical properties :
#
#
# Convention : Reuss Voigt Hill
#
# Bulk Modulus (GPa) = 39.30094 54.89340 47.09717
# Shear Modulus (GPa) = 28.40057 31.37928 29.88992
#
# Velocity S-wave (km/s) = 3.70867 3.89830 3.80467
# Velocity P-wave (km/s) = 6.11327 6.84448 6.48918
#
# Compressibility (1/GPa) = 0.02544468
#
# Stress axis : x y z
#
# Youngs Moduli (GPa) = 42.43423 115.12262 103.20609
#
# Poissons Ratio (x) = 0.14720 0.38570
# Poissons Ratio (y) = 0.05426 0.33363
# Poissons Ratio (z) = 0.15858 0.37215
#
# Static dielectric constant tensor:
#      x y z
#    x 3.521260 0.000000 0.000000 
#    y 0.000000 4.075000 0.000000 
#    z 0.000000 0.000000 3.725040 
# 
# 
# High freq. dielectric constant tensor:
#      x y z
#    x 1.794080 0.000000 0.000000 
#    y 0.000000 1.824690 0.000000 
#    z 0.000000 0.000000 1.800000 
# 
# From -- ./inp_files/11578.got.cif
#   From: 2010.03.12/outbox.cif.g09.slc.cpg/sg66_6_cif.got.tgz:11578.got - 2010.04.10 21:57:39.
