data_PCOD8276633
_publ_section_title
;
Structure prediction by ZEFSAII (Michael W. Deem and Ramdas Pophale) SiO2 
 PCOD8276633
Probable space group: C C C M
;
_chemical_formula_sum "Si O2"
_cell_formula_units_Z 96
_cell_length_a 20.315223
_cell_length_b 26.965325
_cell_length_c 8.718907
_cell_angle_alpha 90.000000
_cell_angle_beta 90.000000
_cell_angle_gamma 90.000000
_cell_volume 4776.274718
_symmetry_space_group_name_H-M "C C C M"
_symmetry_group_IT_number 66
_symmetry_cell_setting 'orthorhombic'
loop_
_space_group_symop_operation_xyz
x,y,z
-x,-y,z
x,-y,1/2-z
-x,y,1/2-z
-x,-y,-z
x,y,-z
-x,y,1/2+z
x,-y,1/2+z
1/2+x,1/2+y,z
1/2-x,1/2-y,z
1/2+x,1/2-y,1/2-z
1/2-x,1/2+y,1/2-z
1/2-x,1/2-y,-z
1/2+x,1/2+y,-z
1/2-x,1/2+y,1/2+z
1/2+x,1/2-y,1/2+z
loop_
_atom_site_type_symbol
_atom_site_label
_atom_site_fract_x
_atom_site_fract_y
_atom_site_fract_z
Si Si1 0.691607 0.215477 0.177051
Si Si2 0.807849 0.601821 0.678219
Si Si3 0.568112 0.374294 0.680967
Si Si4 0.430352 0.053310 0.817609
Si Si5 0.317730 0.447467 0.182355
Si Si6 0.932303 0.237844 0.680057
O O1 0.750000 0.250000 0.241625
O O2 0.712700 0.158798 0.202575
O O3 0.625828 0.226127 0.270285
O O4 0.677803 0.227553 0.000000
O O5 0.816538 0.588603 0.500000
O O6 0.876042 0.592858 0.766287
O O7 0.752613 0.567003 0.750032
O O8 0.500000 0.394842 0.750000
O O9 0.562075 0.376623 0.500000
O O10 0.628082 0.408012 0.739193
O O11 0.581378 0.318212 0.738913
O O12 0.500000 0.071137 0.750000
O O13 0.410552 0.000000 0.750000
O O14 0.434916 0.050110 0.000000
O O15 0.339571 0.500000 0.250000
O O16 0.312783 0.449961 0.000000
O O17 0.939317 0.239095 0.500000
O O18 0.000000 0.258442 0.750000
#
# Coordination Sequence:
#
# PCOD8276633 Si02
#       6
#    16  16  16  16  16  16
#     4  10  22  39  59  84 114 148 187 233 283 334
#     4  11  23  39  59  84 114 149 189 232 281 334
#     4   9  20  37  58  84 114 149 188 231 279 333
#     4  11  22  39  62  87 116 149 187 230 279 333
#     4  11  23  39  58  83 114 148 189 234 282 334
#     4  10  20  36  59  85 114 149 188 230 278 332
#
# _framework density 20.099347000000002
#
# number of rings (size 3 to 8) (size 9 to 14) (size 15 to 20)
#    0.000    1.667    0.000    5.000    0.000    4.667 
#    0.000    1.667    0.000    0.000    0.000    0.000 
#    0.000    0.000    0.000    0.000    0.000    0.000 
#
# Total GULP energy -595496.502454 kJ/mol
# GULP energy per Si atom -12406.177134 kJ/mol
# Density = 2.005360 g / cm^3
# Si number density = 20.099347 Si / 1000 Ang^3
#
#
#
# Elastic Constant Matrix: (Units=GPa)
#
#
# Indices 1 2 3 4 5 6 
#
# 1 101.0364 18.8762 31.0778 0.0000 0.0000 0.0000
# 2 18.8762 55.7095 23.6612 0.0000 0.0000 0.0000
# 3 31.0778 23.6612 93.9216 0.0000 0.0000 0.0000
# 4 0.0000 0.0000 0.0000 25.5247 0.0000 0.0000
# 5 0.0000 0.0000 0.0000 0.0000 37.1397 0.0000
# 6 0.0000 0.0000 0.0000 0.0000 0.0000 35.6090
#
#
#
# Elastic Compliance Matrix: (Units=1/GPa)
#
#
# Indices 1 2 3 4 5 6 
#
# 1 0.011325 -0.002515 -0.003114 0.000000 0.000000 0.000000
# 2 -0.002515 0.020659 -0.004373 0.000000 0.000000 0.000000
# 3 -0.003114 -0.004373 0.012779 0.000000 0.000000 0.000000
# 4 0.000000 0.000000 0.000000 0.039178 0.000000 0.000000
# 5 0.000000 0.000000 0.000000 0.000000 0.026925 0.000000
# 6 0.000000 0.000000 0.000000 0.000000 0.000000 0.028083
#
#
# Mechanical properties :
#
#
# Convention : Reuss Voigt Hill
#
# Bulk Modulus (GPa) = 40.38555 44.21089 42.29822
# Shear Modulus (GPa) = 29.90331 31.45814 30.68073
#
# Velocity S-wave (km/s) = 3.86135 3.96047 3.91122
# Velocity P-wave (km/s) = 6.32587 6.55421 6.44105
#
# Compressibility (1/GPa) = 0.02476133
#
# Stress axis : x y z
#
# Youngs Moduli (GPa) = 88.29993 48.40393 78.25302
#
# Poissons Ratio (x) = 0.12173 0.24367
# Poissons Ratio (y) = 0.22206 0.34216
# Poissons Ratio (z) = 0.27495 0.21165
#
# Static dielectric constant tensor:
#      x y z
#    x 3.723250 0.000000 0.000000 
#    y 0.000000 3.643250 0.000000 
#    z 0.000000 0.000000 3.635240 
# 
# 
# High freq. dielectric constant tensor:
#      x y z
#    x 1.794560 0.000000 0.000000 
#    y 0.000000 1.782760 0.000000 
#    z 0.000000 0.000000 1.789820 
# 
# From -- ./inp_files/8059.got.cif
#   From: 2010.03.12/outbox.cif.g09.slc.cpg/sg66_5_cif.got.tgz:8059.got - 2010.04.10 21:57:39.
