data_PCOD8276057
_publ_section_title
;
Structure prediction by ZEFSAII (Michael W. Deem and Ramdas Pophale) SiO2 
 PCOD8276057
Probable space group: C C C M
;
_chemical_formula_sum "Si O2"
_cell_formula_units_Z 72
_cell_length_a 18.110822
_cell_length_b 16.857893
_cell_length_c 13.103987
_cell_angle_alpha 90.000000
_cell_angle_beta 90.000000
_cell_angle_gamma 90.000000
_cell_volume 4000.782195
_symmetry_space_group_name_H-M "C C C M"
_symmetry_group_IT_number 66
_symmetry_cell_setting 'orthorhombic'
loop_
_space_group_symop_operation_xyz
x,y,z
-x,-y,z
x,-y,1/2-z
-x,y,1/2-z
-x,-y,-z
x,y,-z
-x,y,1/2+z
x,-y,1/2+z
1/2+x,1/2+y,z
1/2-x,1/2-y,z
1/2+x,1/2-y,1/2-z
1/2-x,1/2+y,1/2-z
1/2-x,1/2-y,-z
1/2+x,1/2+y,-z
1/2-x,1/2+y,1/2+z
1/2+x,1/2-y,1/2+z
loop_
_atom_site_type_symbol
_atom_site_label
_atom_site_fract_x
_atom_site_fract_y
_atom_site_fract_z
Si Si1 0.943462 0.065182 0.383659
Si Si2 0.500000 0.699636 0.750000
Si Si3 0.632146 0.252585 0.120232
Si Si4 0.751769 0.375443 0.183732
Si Si5 0.275403 0.454226 0.113480
O O1 0.963562 0.084744 0.500000
O O2 0.862082 0.030266 0.370855
O O3 0.949279 0.146626 0.322899
O O4 0.000000 0.000000 0.339742
O O5 0.445115 0.752407 0.818923
O O6 0.676589 0.332670 0.148001
O O7 0.678171 0.175921 0.152455
O O8 0.616196 0.251614 0.000000
O O9 0.761506 0.460200 0.129545
O O10 0.752638 0.388496 0.306279
O O11 0.257148 0.422364 0.000000
#
# Coordination Sequence:
#
# PCOD8276057 Si02
#       5
#    16   8  16  16  16
#     4  10  20  31  48  77 113 145 173 216 279 342
#     4  12  21  34  52  79 112 144 182 222 274 335
#     4  11  22  37  56  79 111 152 189 226 275 334
#     4  10  20  36  56  82 112 148 191 230 270 331
#     4  10  19  34  55  81 110 143 184 234 282 324
#
# _framework density 17.996480999999999
#
# number of rings (size 3 to 8) (size 9 to 14) (size 15 to 20)
#    0.000    1.556    2.222    5.000    3.111    1.778 
#    0.000    4.444    0.000    2.667    0.000    7.778 
#    0.000    0.000    0.000    0.000    0.000    0.000 
#
# Total GULP energy -446446.402231 kJ/mol
# GULP energy per Si atom -12401.288951 kJ/mol
# Density = 1.795552 g / cm^3
# Si number density = 17.996481 Si / 1000 Ang^3
#
#
#
# Elastic Constant Matrix: (Units=GPa)
#
#
# Indices 1 2 3 4 5 6 
#
# 1 82.6553 38.8972 54.1525 0.0000 0.0000 0.0000
# 2 38.8972 67.9726 44.8678 0.0000 0.0000 0.0000
# 3 54.1525 44.8678 156.7753 0.0000 0.0000 0.0000
# 4 0.0000 0.0000 0.0000 25.6432 0.0000 0.0000
# 5 0.0000 0.0000 0.0000 0.0000 29.8414 0.0000
# 6 0.0000 0.0000 0.0000 0.0000 0.0000 21.7707
#
#
#
# Elastic Compliance Matrix: (Units=1/GPa)
#
#
# Indices 1 2 3 4 5 6 
#
# 1 0.018512 -0.007857 -0.004146 0.000000 0.000000 0.000000
# 2 -0.007857 0.021473 -0.003431 0.000000 0.000000 0.000000
# 3 -0.004146 -0.003431 0.008793 0.000000 0.000000 0.000000
# 4 0.000000 0.000000 0.000000 0.038997 0.000000 0.000000
# 5 0.000000 0.000000 0.000000 0.000000 0.033510 0.000000
# 6 0.000000 0.000000 0.000000 0.000000 0.000000 0.045933
#
#
# Mechanical properties :
#
#
# Convention : Reuss Voigt Hill
#
# Bulk Modulus (GPa) = 55.83686 64.80425 60.32056
# Shear Modulus (GPa) = 24.50304 26.75010 25.62657
#
# Velocity S-wave (km/s) = 3.69392 3.85958 3.77766
# Velocity P-wave (km/s) = 7.02049 7.47993 7.25385
#
# Compressibility (1/GPa) = 0.01790932
#
# Stress axis : x y z
#
# Youngs Moduli (GPa) = 54.01899 46.57008 113.73174
#
# Poissons Ratio (x) = 0.36590 0.47150
# Poissons Ratio (y) = 0.42442 0.39027
# Poissons Ratio (z) = 0.22395 0.15981
#
# Static dielectric constant tensor:
#      x y z
#    x 3.114240 0.000000 0.000000 
#    y 0.000000 3.089420 0.000000 
#    z 0.000000 0.000000 3.671290 
# 
# 
# High freq. dielectric constant tensor:
#      x y z
#    x 1.669890 0.000000 0.000000 
#    y 0.000000 1.673260 0.000000 
#    z 0.000000 0.000000 1.725060 
# 
# From -- ./inp_files/27972.got.cif
#   From: 2010.03.12/outbox.cif.g09.slc.cpg/sg66_14_cif.got.tgz:27972.got - 2010.04.10 21:57:39.
