data_PCOD8276390
_publ_section_title
;
Structure prediction by ZEFSAII (Michael W. Deem and Ramdas Pophale) SiO2 
 PCOD8276390
Probable space group: C C C M
;
_chemical_formula_sum "Si O2"
_cell_formula_units_Z 72
_cell_length_a 22.175614
_cell_length_b 15.420218
_cell_length_c 9.534752
_cell_angle_alpha 90.000000
_cell_angle_beta 90.000000
_cell_angle_gamma 90.000000
_cell_volume 3260.435164
_symmetry_space_group_name_H-M "C C C M"
_symmetry_group_IT_number 66
_symmetry_cell_setting 'orthorhombic'
loop_
_space_group_symop_operation_xyz
x,y,z
-x,-y,z
x,-y,1/2-z
-x,y,1/2-z
-x,-y,-z
x,y,-z
-x,y,1/2+z
x,-y,1/2+z
1/2+x,1/2+y,z
1/2-x,1/2-y,z
1/2+x,1/2-y,1/2-z
1/2-x,1/2+y,1/2-z
1/2-x,1/2-y,-z
1/2+x,1/2+y,-z
1/2-x,1/2+y,1/2+z
1/2+x,1/2-y,1/2+z
loop_
_atom_site_type_symbol
_atom_site_label
_atom_site_fract_x
_atom_site_fract_y
_atom_site_fract_z
Si Si1 0.437666 0.918118 0.331724
Si Si2 0.250000 0.250000 0.776589
Si Si3 0.118599 0.236367 0.153133
Si Si4 0.748875 0.572589 0.349547
Si Si5 0.605837 0.420869 0.158205
O O1 0.500000 0.900988 0.250000
O O2 0.446597 0.935140 0.500000
O O3 0.396002 0.834772 0.304687
O O4 0.407148 0.000000 0.250000
O O5 0.191043 0.223877 0.864835
O O6 0.229026 0.330887 0.683079
O O7 0.090181 0.170427 0.266414
O O8 0.090951 0.214397 0.000000
O O9 0.777285 0.500000 0.250000
O O10 0.774881 0.547240 0.500000
O O11 0.677024 0.568197 0.349192
O O12 0.578120 0.500000 0.250000
O O13 0.578720 0.421216 0.000000
#
# Coordination Sequence:
#
# PCOD8276390 Si02
#       5
#    16   8  16  16  16
#     4  10  21  39  62  87 114 149 194 246 297 345
#     4  10  20  34  52  76 112 150 184 226 280 344
#     4  10  21  35  54  81 112 147 188 232 285 346
#     4   9  18  31  46  66  95 135 180 221 263 319
#     4   9  17  30  50  74 103 140 179 219 265 320
#
# _framework density 22.082941000000002
#
# number of rings (size 3 to 8) (size 9 to 14) (size 15 to 20)
#    0.000    2.444    0.000    2.667    0.000    9.778 
#    0.000    2.222    0.000    0.667    0.000    4.667 
#    0.000    0.000    0.000    0.000    0.000    0.000 
#
# Total GULP energy -446069.695399 kJ/mol
# GULP energy per Si atom -12390.824872 kJ/mol
# Density = 2.203268 g / cm^3
# Si number density = 22.082941 Si / 1000 Ang^3
#
#
#
# Elastic Constant Matrix: (Units=GPa)
#
#
# Indices 1 2 3 4 5 6 
#
# 1 26.5302 14.1914 14.7663 0.0000 0.0000 0.0000
# 2 14.1914 199.6459 108.6469 0.0000 0.0000 0.0000
# 3 14.7663 108.6469 205.9338 0.0000 0.0000 0.0000
# 4 0.0000 0.0000 0.0000 40.3570 0.0000 0.0000
# 5 0.0000 0.0000 0.0000 0.0000 8.5086 0.0000
# 6 0.0000 0.0000 0.0000 0.0000 0.0000 27.3144
#
#
#
# Elastic Compliance Matrix: (Units=1/GPa)
#
#
# Indices 1 2 3 4 5 6 
#
# 1 0.039708 -0.001786 -0.001905 0.000000 0.000000 0.000000
# 2 -0.001786 0.007106 -0.003621 0.000000 0.000000 0.000000
# 3 -0.001905 -0.003621 0.006903 0.000000 0.000000 0.000000
# 4 0.000000 0.000000 0.000000 0.024779 0.000000 0.000000
# 5 0.000000 0.000000 0.000000 0.000000 0.117528 0.000000
# 6 0.000000 0.000000 0.000000 0.000000 0.000000 0.036611
#
#
# Mechanical properties :
#
#
# Convention : Reuss Voigt Hill
#
# Bulk Modulus (GPa) = 25.57959 78.59104 52.08532
# Shear Modulus (GPa) = 19.20926 34.86969 27.03947
#
# Velocity S-wave (km/s) = 2.95255 3.97802 3.50301
# Velocity P-wave (km/s) = 4.81996 7.53431 6.32447
#
# Compressibility (1/GPa) = 0.03909367
#
# Stress axis : x y z
#
# Youngs Moduli (GPa) = 25.18356 140.71720 144.86447
#
# Poissons Ratio (x) = 0.25130 0.27598
# Poissons Ratio (y) = 0.04497 0.52458
# Poissons Ratio (z) = 0.04798 0.50956
#
# Static dielectric constant tensor:
#      x y z
#    x 3.363850 0.000000 0.000000 
#    y 0.000000 4.244230 0.000000 
#    z 0.000000 0.000000 4.263710 
# 
# 
# High freq. dielectric constant tensor:
#      x y z
#    x 1.818820 0.000000 0.000000 
#    y 0.000000 1.881000 0.000000 
#    z 0.000000 0.000000 1.878160 
# 
# From -- ./inp_files/11291.got.cif
#   From: 2010.03.12/outbox.cif.g09.slc.cpg/sg66_6_cif.got.tgz:11291.got - 2010.04.10 21:57:39.
