data_PCOD8276963
_publ_section_title
;
Structure prediction by ZEFSAII (Michael W. Deem and Ramdas Pophale) SiO2 
 PCOD8276963
Probable space group: C C C M
;
_chemical_formula_sum "Si O2"
_cell_formula_units_Z 128
_cell_length_a 16.587508
_cell_length_b 23.069099
_cell_length_c 17.592626
_cell_angle_alpha 90.000000
_cell_angle_beta 90.000000
_cell_angle_gamma 90.000000
_cell_volume 6731.974284
_symmetry_space_group_name_H-M "C C C M"
_symmetry_group_IT_number 66
_symmetry_cell_setting 'orthorhombic'
loop_
_space_group_symop_operation_xyz
x,y,z
-x,-y,z
x,-y,1/2-z
-x,y,1/2-z
-x,-y,-z
x,y,-z
-x,y,1/2+z
x,-y,1/2+z
1/2+x,1/2+y,z
1/2-x,1/2-y,z
1/2+x,1/2-y,1/2-z
1/2-x,1/2+y,1/2-z
1/2-x,1/2-y,-z
1/2+x,1/2+y,-z
1/2-x,1/2+y,1/2+z
1/2+x,1/2-y,1/2+z
loop_
_atom_site_type_symbol
_atom_site_label
_atom_site_fract_x
_atom_site_fract_y
_atom_site_fract_z
Si Si1 0.907877 0.826147 0.225185
Si Si2 0.723695 0.071327 0.914929
Si Si3 0.314682 0.797636 0.084325
Si Si4 0.406855 0.795902 0.227882
Si Si5 0.701569 0.308977 0.588174
Si Si6 0.090492 0.503427 0.340677
Si Si7 0.678043 0.560241 0.723882
Si Si8 0.186331 0.609741 0.325698
O O1 0.868678 0.767463 0.257253
O O2 0.881444 0.821129 0.136085
O O3 0.878476 0.884588 0.264723
O O4 0.000000 0.822448 0.250000
O O5 0.728232 0.140494 0.915760
O O6 0.799799 0.051205 0.864573
O O7 0.640173 0.048487 0.879138
O O8 0.733881 0.046311 0.000000
O O9 0.250000 0.750000 0.113103
O O10 0.393283 0.803356 0.137852
O O11 0.345540 0.781024 0.000000
O O12 0.500000 0.802336 0.250000
O O13 0.356644 0.842494 0.274452
O O14 0.676626 0.310702 0.500000
O O15 0.750000 0.250000 0.607831
O O16 0.762243 0.361037 0.607666
O O17 0.092525 0.500000 0.250000
O O18 0.123806 0.566454 0.365952
O O19 0.000000 0.500000 0.371908
O O20 0.635682 0.500000 0.750000
O O21 0.759432 0.569738 0.771277
#
# Coordination Sequence:
#
# PCOD8276963 Si02
#       8
#    16  16  16  16  16  16  16  16
#     4  10  23  41  62  91 118 152 198 245 296 354
#     4  11  21  36  54  81 117 151 196 245 290 345
#     4  10  21  36  57  83 113 150 190 243 296 341
#     4  11  22  35  59  90 116 154 197 239 291 353
#     4  10  21  39  63  92 122 155 196 248 302 350
#     4  11  22  36  56  80 118 162 197 239 287 351
#     4  11  20  38  61  85 111 152 200 245 290 350
#     4  11  20  35  60  87 114 157 205 238 283 351
#
# _framework density 19.013739000000001
#
# number of rings (size 3 to 8) (size 9 to 14) (size 15 to 20)
#    0.000    1.375    5.000    0.750    5.250    1.000 
#    0.000    3.750    0.000    0.000    0.000    2.625 
#    0.000    0.000    0.000    0.000    0.000    0.000 
#
# Total GULP energy -793072.064938 kJ/mol
# GULP energy per Si atom -12391.751015 kJ/mol
# Density = 1.897046 g / cm^3
# Si number density = 19.013739 Si / 1000 Ang^3
#
#
#
# Elastic Constant Matrix: (Units=GPa)
#
#
# Indices 1 2 3 4 5 6 
#
# 1 81.2243 35.1670 47.9862 0.0000 0.0000 0.0000
# 2 35.1670 120.9174 19.8022 0.0000 0.0000 0.0000
# 3 47.9862 19.8022 115.5509 0.0000 0.0000 0.0000
# 4 0.0000 0.0000 0.0000 20.3303 0.0000 0.0000
# 5 0.0000 0.0000 0.0000 0.0000 22.3788 0.0000
# 6 0.0000 0.0000 0.0000 0.0000 0.0000 28.4855
#
#
#
# Elastic Compliance Matrix: (Units=1/GPa)
#
#
# Indices 1 2 3 4 5 6 
#
# 1 0.018142 -0.004159 -0.006821 0.000000 0.000000 0.000000
# 2 -0.004159 0.009462 0.000106 0.000000 0.000000 0.000000
# 3 -0.006821 0.000106 0.011469 0.000000 0.000000 0.000000
# 4 0.000000 0.000000 0.000000 0.049188 0.000000 0.000000
# 5 0.000000 0.000000 0.000000 0.000000 0.044685 0.000000
# 6 0.000000 0.000000 0.000000 0.000000 0.000000 0.035106
#
#
# Mechanical properties :
#
#
# Convention : Reuss Voigt Hill
#
# Bulk Modulus (GPa) = 57.72451 58.17816 57.95134
# Shear Modulus (GPa) = 25.56538 28.55473 27.06005
#
# Velocity S-wave (km/s) = 3.67082 3.87950 3.77660
# Velocity P-wave (km/s) = 6.95643 7.12262 7.04002
#
# Compressibility (1/GPa) = 0.01732366
#
# Stress axis : x y z
#
# Youngs Moduli (GPa) = 55.11940 105.68056 87.19234
#
# Poissons Ratio (x) = 0.43956 0.59478
# Poissons Ratio (y) = 0.22926 -0.00922
# Poissons Ratio (z) = 0.37599 -0.01117
#
# Static dielectric constant tensor:
#      x y z
#    x 3.343560 0.000000 0.000000 
#    y 0.000000 3.906010 0.000000 
#    z 0.000000 0.000000 3.546570 
# 
# 
# High freq. dielectric constant tensor:
#      x y z
#    x 1.710820 0.000000 0.000000 
#    y 0.000000 1.761930 0.000000 
#    z 0.000000 0.000000 1.731530 
# 
# From -- ./inp_files/42180.got.cif
#   From: 2010.03.12/outbox.cif.g09.slc.cpg/sg66_22_cif.got.tgz:42180.got - 2010.04.10 21:57:39.
