data_PCOD8276133
_publ_section_title
;
Structure prediction by ZEFSAII (Michael W. Deem and Ramdas Pophale) SiO2 
 PCOD8276133
Probable space group: C C C M
;
_chemical_formula_sum "Si O2"
_cell_formula_units_Z 88
_cell_length_a 9.035187
_cell_length_b 21.554542
_cell_length_c 26.575078
_cell_angle_alpha 90.000000
_cell_angle_beta 90.000000
_cell_angle_gamma 90.000000
_cell_volume 5175.478308
_symmetry_space_group_name_H-M "C C C M"
_symmetry_group_IT_number 66
_symmetry_cell_setting 'orthorhombic'
loop_
_space_group_symop_operation_xyz
x,y,z
-x,-y,z
x,-y,1/2-z
-x,y,1/2-z
-x,-y,-z
x,y,-z
-x,y,1/2+z
x,-y,1/2+z
1/2+x,1/2+y,z
1/2-x,1/2-y,z
1/2+x,1/2-y,1/2-z
1/2-x,1/2+y,1/2-z
1/2-x,1/2-y,-z
1/2+x,1/2+y,-z
1/2-x,1/2+y,1/2+z
1/2+x,1/2-y,1/2+z
loop_
_atom_site_type_symbol
_atom_site_label
_atom_site_fract_x
_atom_site_fract_y
_atom_site_fract_z
Si Si1 0.096600 0.379627 0.940981
Si Si2 0.653453 0.691862 0.883778
Si Si3 0.516010 0.397629 0.693142
Si Si4 0.763308 0.008492 0.807488
Si Si5 0.000000 0.500000 0.117092
Si Si6 0.910517 0.738110 0.558078
O O1 0.242894 0.358033 0.911410
O O2 0.042850 0.444526 0.919555
O O3 0.962042 0.332078 0.931743
O O4 0.135024 0.385468 0.000000
O O5 0.750000 0.750000 0.863011
O O6 0.557071 0.662496 0.839048
O O7 0.534077 0.714629 0.923496
O O8 0.500000 0.374447 0.750000
O O9 0.359903 0.430213 0.681504
O O10 0.643863 0.446964 0.682077
O O11 0.706380 0.000000 0.750000
O O12 0.632472 0.017389 0.846272
O O13 0.895464 0.752984 0.500000
O O14 0.750000 0.750000 0.584041
#
# Coordination Sequence:
#
# PCOD8276133 Si02
#       6
#    16  16  16  16   8  16
#     4  10  21  35  52  79 112 145 176 215 269 319
#     4  10  19  35  58  76 106 142 181 210 264 320
#     4   9  18  36  56  77 104 139 175 220 268 314
#     4   9  19  34  56  79 103 138 181 220 264 318
#     4  12  20  32  56  82 110 138 174 230 268 310
#     4   9  19  35  55  77 102 137 182 221 255 311
#
# _framework density 17.003259
#
# number of rings (size 3 to 8) (size 9 to 14) (size 15 to 20)
#    0.000    2.364    1.818    2.182    2.545    2.182 
#    0.000    0.909    4.000    1.091    0.000    0.000 
#    0.000    0.000    0.000    0.000    0.000    0.000 
#
# Total GULP energy -545335.646016 kJ/mol
# GULP energy per Si atom -12393.991955 kJ/mol
# Density = 1.696456 g / cm^3
# Si number density = 17.003259 Si / 1000 Ang^3
#
#
#
# Elastic Constant Matrix: (Units=GPa)
#
#
# Indices 1 2 3 4 5 6 
#
# 1 99.8135 51.4618 45.7683 0.0000 0.0000 0.0000
# 2 51.4618 111.2311 57.3274 0.0000 0.0000 0.0000
# 3 45.7683 57.3274 78.6515 0.0000 0.0000 0.0000
# 4 0.0000 0.0000 0.0000 89.0062 0.0000 0.0000
# 5 0.0000 0.0000 0.0000 0.0000 30.2641 0.0000
# 6 0.0000 0.0000 0.0000 0.0000 0.0000 21.2316
#
#
#
# Elastic Compliance Matrix: (Units=1/GPa)
#
#
# Indices 1 2 3 4 5 6 
#
# 1 0.014607 -0.003807 -0.005725 0.000000 0.000000 0.000000
# 2 -0.003807 0.015392 -0.009003 0.000000 0.000000 0.000000
# 3 -0.005725 -0.009003 0.022608 0.000000 0.000000 0.000000
# 4 0.000000 0.000000 0.000000 0.011235 0.000000 0.000000
# 5 0.000000 0.000000 0.000000 0.000000 0.033042 0.000000
# 6 0.000000 0.000000 0.000000 0.000000 0.000000 0.047100
#
#
# Mechanical properties :
#
#
# Convention : Reuss Voigt Hill
#
# Bulk Modulus (GPa) = 64.36755 66.53457 65.45106
# Shear Modulus (GPa) = 26.84804 37.10963 31.97883
#
# Velocity S-wave (km/s) = 3.97797 4.67679 4.34146
# Velocity P-wave (km/s) = 7.68356 8.26914 7.98172
#
# Compressibility (1/GPa) = 0.01553578
#
# Stress axis : x y z
#
# Youngs Moduli (GPa) = 68.46169 64.96851 44.23224
#
# Poissons Ratio (x) = 0.24736 0.25321
# Poissons Ratio (y) = 0.26066 0.39824
# Poissons Ratio (z) = 0.39192 0.58494
#
# Static dielectric constant tensor:
#      x y z
#    x 2.266770 0.000000 0.000000 
#    y 0.000000 3.112570 0.000000 
#    z 0.000000 0.000000 3.116970 
# 
# 
# High freq. dielectric constant tensor:
#      x y z
#    x 1.665090 0.000000 0.000000 
#    y 0.000000 1.651160 0.000000 
#    z 0.000000 0.000000 1.651130 
# 
# From -- ./inp_files/55497.got.cif
#   From: 2010.03.12/outbox.cif.g09.slc.cpg/sg66_28_cif.got.tgz:55497.got - 2010.04.10 21:57:39.
