data_PCOD8276420
_publ_section_title
;
Structure prediction by ZEFSAII (Michael W. Deem and Ramdas Pophale) SiO2 
 PCOD8276420
Probable space group: C C C M
;
_chemical_formula_sum "Si O2"
_cell_formula_units_Z 96
_cell_length_a 27.483606
_cell_length_b 20.500165
_cell_length_c 8.686980
_cell_angle_alpha 90.000000
_cell_angle_beta 90.000000
_cell_angle_gamma 90.000000
_cell_volume 4894.404874
_symmetry_space_group_name_H-M "C C C M"
_symmetry_group_IT_number 66
_symmetry_cell_setting 'orthorhombic'
loop_
_space_group_symop_operation_xyz
x,y,z
-x,-y,z
x,-y,1/2-z
-x,y,1/2-z
-x,-y,-z
x,y,-z
-x,y,1/2+z
x,-y,1/2+z
1/2+x,1/2+y,z
1/2-x,1/2-y,z
1/2+x,1/2-y,1/2-z
1/2-x,1/2+y,1/2-z
1/2-x,1/2-y,-z
1/2+x,1/2+y,-z
1/2-x,1/2+y,1/2+z
1/2+x,1/2-y,1/2+z
loop_
_atom_site_type_symbol
_atom_site_label
_atom_site_fract_x
_atom_site_fract_y
_atom_site_fract_z
Si Si1 0.948405 0.304552 0.317997
Si Si2 0.901688 0.430852 0.182266
Si Si3 0.725295 0.685010 0.683090
Si Si4 0.790481 0.567940 0.318432
Si Si5 0.447705 0.432619 0.681155
Si Si6 0.614811 0.691697 0.681438
O O1 0.952094 0.307263 0.500000
O O2 0.935463 0.375615 0.254183
O O3 0.907744 0.252913 0.268738
O O4 0.000000 0.281712 0.250000
O O5 0.918926 0.500000 0.250000
O O6 0.845899 0.416892 0.231037
O O7 0.908296 0.431229 0.000000
O O8 0.728000 0.684362 0.500000
O O9 0.750000 0.750000 0.749656
O O10 0.755323 0.623699 0.749454
O O11 0.669846 0.682649 0.739052
O O12 0.772155 0.500000 0.250000
O O13 0.786402 0.563627 0.500000
O O14 0.426797 0.500000 0.750000
O O15 0.500000 0.415899 0.750000
O O16 0.452650 0.440497 0.500000
O O17 0.412079 0.374575 0.728151
O O18 0.611770 0.705860 0.500000
#
# Coordination Sequence:
#
# PCOD8276420 Si02
#       6
#    16  16  16  16  16  16
#     4  12  25  40  59  83 111 145 185 230 282 336
#     4  10  20  37  60  86 116 149 187 229 275 328
#     4   9  17  32  55  80 107 143 185 224 266 319
#     4   9  18  33  56  83 112 148 185 225 272 324
#     4  10  20  34  54  78 106 140 179 222 270 324
#     4  10  21  37  57  82 111 146 188 231 275 327
#
# _framework density 19.614232999999999
#
# number of rings (size 3 to 8) (size 9 to 14) (size 15 to 20)
#    0.000    2.000    0.000    4.500    0.000    7.000 
#    0.000    2.500    0.000    2.000    0.000    0.000 
#    0.000    0.000    0.000    0.000    0.000    0.000 
#
# Total GULP energy -595372.157426 kJ/mol
# GULP energy per Si atom -12403.586613 kJ/mol
# Density = 1.956959 g / cm^3
# Si number density = 19.614233 Si / 1000 Ang^3
#
#
#
# Elastic Constant Matrix: (Units=GPa)
#
#
# Indices 1 2 3 4 5 6 
#
# 1 86.9401 50.7975 19.1458 0.0000 0.0000 0.0000
# 2 50.7975 130.5206 32.7852 0.0000 0.0000 0.0000
# 3 19.1458 32.7852 65.0464 0.0000 0.0000 0.0000
# 4 0.0000 0.0000 0.0000 31.6762 0.0000 0.0000
# 5 0.0000 0.0000 0.0000 0.0000 19.2754 0.0000
# 6 0.0000 0.0000 0.0000 0.0000 0.0000 44.1469
#
#
#
# Elastic Compliance Matrix: (Units=1/GPa)
#
#
# Indices 1 2 3 4 5 6 
#
# 1 0.015048 -0.005432 -0.001692 0.000000 0.000000 0.000000
# 2 -0.005432 0.010733 -0.003811 0.000000 0.000000 0.000000
# 3 -0.001692 -0.003811 0.017792 0.000000 0.000000 0.000000
# 4 0.000000 0.000000 0.000000 0.031569 0.000000 0.000000
# 5 0.000000 0.000000 0.000000 0.000000 0.051880 0.000000
# 6 0.000000 0.000000 0.000000 0.000000 0.000000 0.022652
#
#
# Mechanical properties :
#
#
# Convention : Reuss Voigt Hill
#
# Bulk Modulus (GPa) = 46.07213 54.21824 50.14518
# Shear Modulus (GPa) = 27.96767 31.00493 29.48630
#
# Velocity S-wave (km/s) = 3.78019 3.98016 3.88146
# Velocity P-wave (km/s) = 6.52635 6.98746 6.76083
#
# Compressibility (1/GPa) = 0.02170510
#
# Stress axis : x y z
#
# Youngs Moduli (GPa) = 66.45227 93.17167 56.20405
#
# Poissons Ratio (x) = 0.50609 0.09507
# Poissons Ratio (y) = 0.36096 0.21419
# Poissons Ratio (z) = 0.11241 0.35506
#
# Static dielectric constant tensor:
#      x y z
#    x 3.713540 0.000000 0.000000 
#    y 0.000000 3.808180 0.000000 
#    z 0.000000 0.000000 3.392040 
# 
# 
# High freq. dielectric constant tensor:
#      x y z
#    x 1.766800 0.000000 0.000000 
#    y 0.000000 1.780560 0.000000 
#    z 0.000000 0.000000 1.748270 
# 
# From -- ./inp_files/8056.got.cif
#   From: 2010.03.12/outbox.cif.g09.slc.cpg/sg66_5_cif.got.tgz:8056.got - 2010.04.10 21:57:39.
