data_PCOD8276188
_publ_section_title
;
Structure prediction by ZEFSAII (Michael W. Deem and Ramdas Pophale) SiO2 
 PCOD8276188
Probable space group: C C C M
;
_chemical_formula_sum "Si O2"
_cell_formula_units_Z 96
_cell_length_a 27.990353
_cell_length_b 10.156261
_cell_length_c 18.157621
_cell_angle_alpha 90.000000
_cell_angle_beta 90.000000
_cell_angle_gamma 90.000000
_cell_volume 5161.800027
_symmetry_space_group_name_H-M "C C C M"
_symmetry_group_IT_number 66
_symmetry_cell_setting 'orthorhombic'
loop_
_space_group_symop_operation_xyz
x,y,z
-x,-y,z
x,-y,1/2-z
-x,y,1/2-z
-x,-y,-z
x,y,-z
-x,y,1/2+z
x,-y,1/2+z
1/2+x,1/2+y,z
1/2-x,1/2-y,z
1/2+x,1/2-y,1/2-z
1/2-x,1/2+y,1/2-z
1/2-x,1/2-y,-z
1/2+x,1/2+y,-z
1/2-x,1/2+y,1/2+z
1/2+x,1/2-y,1/2+z
loop_
_atom_site_type_symbol
_atom_site_label
_atom_site_fract_x
_atom_site_fract_y
_atom_site_fract_z
Si Si1 0.401471 0.244732 0.341883
Si Si2 0.894188 0.276569 0.331260
Si Si3 0.652632 0.012692 0.084112
Si Si4 0.152040 0.003502 0.164038
Si Si5 0.742619 0.396328 0.084342
Si Si6 0.002299 0.647200 0.663021
O O1 0.392961 0.209000 0.256667
O O2 0.369457 0.151490 0.392252
O O3 0.386747 0.394076 0.358523
O O4 0.456918 0.230352 0.365136
O O5 0.865308 0.398426 0.363130
O O6 0.948760 0.281042 0.360930
O O7 0.869852 0.143186 0.360014
O O8 0.709478 0.019488 0.092405
O O9 0.638016 0.983132 0.000000
O O10 0.202164 0.978811 0.125146
O O11 0.162457 0.000000 0.250000
O O12 0.750000 0.250000 0.118819
O O13 0.726611 0.379965 0.000000
O O14 0.000000 0.500000 0.628946
O O15 0.000000 0.636248 0.750000
#
# Coordination Sequence:
#
# PCOD8276188 Si02
#       6
#    16  16  16  16  16  16
#     4  10  19  36  59  81 112 150 184 223 272 338
#     4  10  21  36  55  85 117 143 179 232 282 324
#     4  11  22  36  57  83 107 144 191 229 276 329
#     4  10  22  37  56  87 116 143 183 234 286 325
#     4  10  21  39  60  79 106 150 194 226 271 341
#     4   9  16  30  56  84 109 147 186 218 270 335
#
# _framework density 18.598161999999999
#
# number of rings (size 3 to 8) (size 9 to 14) (size 15 to 20)
#    0.000    2.000    3.333    0.500    0.000    3.333 
#    0.000    6.667    0.000    0.000    0.000    3.500 
#    0.000    0.000    0.000    0.000    0.000    0.000 
#
# Total GULP energy -595256.462016 kJ/mol
# GULP energy per Si atom -12401.176292 kJ/mol
# Density = 1.855583 g / cm^3
# Si number density = 18.598162 Si / 1000 Ang^3
#
#
#
# Elastic Constant Matrix: (Units=GPa)
#
#
# Indices 1 2 3 4 5 6 
#
# 1 137.3449 51.3207 30.0750 0.0000 0.0000 0.0000
# 2 51.3207 100.5982 23.6816 0.0000 0.0000 0.0000
# 3 30.0750 23.6816 28.5733 0.0000 0.0000 0.0000
# 4 0.0000 0.0000 0.0000 17.9490 0.0000 0.0000
# 5 0.0000 0.0000 0.0000 0.0000 0.4806 0.0000
# 6 0.0000 0.0000 0.0000 0.0000 0.0000 38.6700
#
#
#
# Elastic Compliance Matrix: (Units=1/GPa)
#
#
# Indices 1 2 3 4 5 6 
#
# 1 0.010300 -0.003358 -0.008059 0.000000 0.000000 0.000000
# 2 -0.003358 0.013445 -0.007609 0.000000 0.000000 0.000000
# 3 -0.008059 -0.007609 0.049786 0.000000 0.000000 0.000000
# 4 0.000000 0.000000 0.000000 0.055713 0.000000 0.000000
# 5 0.000000 0.000000 0.000000 0.000000 2.080884 0.000000
# 6 0.000000 0.000000 0.000000 0.000000 0.000000 0.025860
#
#
# Mechanical properties :
#
#
# Convention : Reuss Voigt Hill
#
# Bulk Modulus (GPa) = 28.18443 52.96344 40.57393
# Shear Modulus (GPa) = 2.18735 22.18253 12.18494
#
# Velocity S-wave (km/s) = 1.08566 3.45733 2.56240
# Velocity P-wave (km/s) = 4.09376 6.66912 5.53335
#
# Compressibility (1/GPa) = 0.03548058
#
# Stress axis : x y z
#
# Youngs Moduli (GPa) = 97.08529 74.37918 20.08591
#
# Poissons Ratio (x) = 0.24974 0.16187
# Poissons Ratio (y) = 0.32598 0.15283
# Poissons Ratio (z) = 0.78239 0.56594
#
# Static dielectric constant tensor:
#      x y z
#    x 3.629730 0.000000 0.000000 
#    y 0.000000 3.497020 0.000000 
#    z 0.000000 0.000000 3.229320 
# 
# 
# High freq. dielectric constant tensor:
#      x y z
#    x 1.736110 0.000000 0.000000 
#    y 0.000000 1.722320 0.000000 
#    z 0.000000 0.000000 1.695240 
# 
# From -- ./inp_files/38983.got.cif
#   From: 2010.03.12/outbox.cif.g09.slc.cpg/sg66_20_cif.got.tgz:38983.got - 2010.04.10 21:57:39.
