data_PCOD8276371
_publ_section_title
;
Structure prediction by ZEFSAII (Michael W. Deem and Ramdas Pophale) SiO2 
 PCOD8276371
Probable space group: C C C M
;
_chemical_formula_sum "Si O2"
_cell_formula_units_Z 100
_cell_length_a 13.881316
_cell_length_b 23.213798
_cell_length_c 16.133368
_cell_angle_alpha 90.000000
_cell_angle_beta 90.000000
_cell_angle_gamma 90.000000
_cell_volume 5198.785296
_symmetry_space_group_name_H-M "C C C M"
_symmetry_group_IT_number 66
_symmetry_cell_setting 'orthorhombic'
loop_
_space_group_symop_operation_xyz
x,y,z
-x,-y,z
x,-y,1/2-z
-x,y,1/2-z
-x,-y,-z
x,y,-z
-x,y,1/2+z
x,-y,1/2+z
1/2+x,1/2+y,z
1/2-x,1/2-y,z
1/2+x,1/2-y,1/2-z
1/2-x,1/2+y,1/2-z
1/2-x,1/2-y,-z
1/2+x,1/2+y,-z
1/2-x,1/2+y,1/2+z
1/2+x,1/2-y,1/2+z
loop_
_atom_site_type_symbol
_atom_site_label
_atom_site_fract_x
_atom_site_fract_y
_atom_site_fract_z
Si Si1 0.303774 0.062425 0.905588
Si Si2 0.250000 0.250000 0.164087
Si Si3 0.157897 0.438555 0.354169
Si Si4 0.000000 0.500000 0.750000
Si Si5 0.500000 0.330648 0.250000
Si Si6 0.208174 0.129529 0.233096
Si Si7 0.990402 0.626358 0.091251
Si Si8 0.456238 0.251346 0.902798
O O1 0.222843 0.093639 0.851357
O O2 0.409982 0.082000 0.871272
O O3 0.294265 0.993496 0.897761
O O4 0.284214 0.079660 0.000000
O O5 0.250947 0.193935 0.223601
O O6 0.340999 0.253102 0.103563
O O7 0.240083 0.402810 0.308341
O O8 0.070082 0.456549 0.296446
O O9 0.099391 0.397562 0.416880
O O10 0.405411 0.370273 0.251530
O O11 0.503071 0.294896 0.163645
O O12 0.991222 0.689280 0.132607
O O13 0.950193 0.637885 0.000000
O O14 0.485604 0.264159 0.000000
#
# Coordination Sequence:
#
# PCOD8276371 Si02
#       8
#    16   8  16   4   8  16  16  16
#     4  11  21  37  60  91 122 154 196 250 312 371
#     4  10  21  36  60  90 119 158 205 260 306 358
#     4  12  21  36  57  88 127 159 193 241 305 386
#     4  12  20  30  58  94 120 158 182 244 302 378
#     4  10  26  43  61  84 119 171 214 270 306 354
#     4  11  23  40  59  87 119 162 211 256 306 359
#     4  10  20  33  56  91 128 156 185 236 306 380
#     4  10  21  38  61  91 123 160 207 256 306 366
#
# _framework density 19.235263
#
# number of rings (size 3 to 8) (size 9 to 14) (size 15 to 20)
#    0.000    1.280    4.800    0.720    4.480    3.840 
#    0.000    3.200    0.000    2.880    0.000    0.000 
#    0.000    0.000    0.000    0.000    0.000    0.000 
#
# Total GULP energy -619584.033322 kJ/mol
# GULP energy per Si atom -12391.680666 kJ/mol
# Density = 1.919148 g / cm^3
# Si number density = 19.235263 Si / 1000 Ang^3
#
#
#
# Elastic Constant Matrix: (Units=GPa)
#
#
# Indices 1 2 3 4 5 6 
#
# 1 119.8887 61.1109 46.5539 0.0000 0.0000 0.0000
# 2 61.1109 110.5070 34.8337 0.0000 0.0000 0.0000
# 3 46.5539 34.8337 88.3750 0.0000 0.0000 0.0000
# 4 0.0000 0.0000 0.0000 21.0776 0.0000 0.0000
# 5 0.0000 0.0000 0.0000 0.0000 18.6137 0.0000
# 6 0.0000 0.0000 0.0000 0.0000 0.0000 35.2066
#
#
#
# Elastic Compliance Matrix: (Units=1/GPa)
#
#
# Indices 1 2 3 4 5 6 
#
# 1 0.013077 -0.005778 -0.004611 0.000000 0.000000 0.000000
# 2 -0.005778 0.012886 -0.002035 0.000000 0.000000 0.000000
# 3 -0.004611 -0.002035 0.014547 0.000000 0.000000 0.000000
# 4 0.000000 0.000000 0.000000 0.047444 0.000000 0.000000
# 5 0.000000 0.000000 0.000000 0.000000 0.053724 0.000000
# 6 0.000000 0.000000 0.000000 0.000000 0.000000 0.028404
#
#
# Mechanical properties :
#
#
# Convention : Reuss Voigt Hill
#
# Bulk Modulus (GPa) = 63.85493 67.08530 65.47012
# Shear Modulus (GPa) = 24.98121 26.73105 25.85613
#
# Velocity S-wave (km/s) = 3.60768 3.73190 3.67032
# Velocity P-wave (km/s) = 7.11496 7.31583 7.21610
#
# Compressibility (1/GPa) = 0.01566050
#
# Stress axis : x y z
#
# Youngs Moduli (GPa) = 76.47095 77.60307 68.74400
#
# Poissons Ratio (x) = 0.44840 0.31699
# Poissons Ratio (y) = 0.44185 0.13992
# Poissons Ratio (z) = 0.35262 0.15795
#
# Static dielectric constant tensor:
#      x y z
#    x 3.333910 0.000000 0.000000 
#    y 0.000000 3.410180 0.000000 
#    z 0.000000 0.000000 3.693680 
# 
# 
# High freq. dielectric constant tensor:
#      x y z
#    x 1.722400 0.000000 0.000000 
#    y 0.000000 1.753500 0.000000 
#    z 0.000000 0.000000 1.746250 
# 
# From -- ./inp_files/40593.got.cif
#   From: 2010.03.12/outbox.cif.g09.slc.cpg/sg66_21_cif.got.tgz:40593.got - 2010.04.10 21:57:39.
