data_PCOD8276755
_publ_section_title
;
Structure prediction by ZEFSAII (Michael W. Deem and Ramdas Pophale) SiO2 
 PCOD8276755
Probable space group: C C C M
;
_chemical_formula_sum "Si O2"
_cell_formula_units_Z 96
_cell_length_a 11.207219
_cell_length_b 22.504992
_cell_length_c 18.546488
_cell_angle_alpha 90.000000
_cell_angle_beta 90.000000
_cell_angle_gamma 90.000000
_cell_volume 4677.765046
_symmetry_space_group_name_H-M "C C C M"
_symmetry_group_IT_number 66
_symmetry_cell_setting 'orthorhombic'
loop_
_space_group_symop_operation_xyz
x,y,z
-x,-y,z
x,-y,1/2-z
-x,y,1/2-z
-x,-y,-z
x,y,-z
-x,y,1/2+z
x,-y,1/2+z
1/2+x,1/2+y,z
1/2-x,1/2-y,z
1/2+x,1/2-y,1/2-z
1/2-x,1/2+y,1/2-z
1/2-x,1/2-y,-z
1/2+x,1/2+y,-z
1/2-x,1/2+y,1/2+z
1/2+x,1/2-y,1/2+z
loop_
_atom_site_type_symbol
_atom_site_label
_atom_site_fract_x
_atom_site_fract_y
_atom_site_fract_z
Si Si1 0.453062 0.308759 0.418782
Si Si2 0.598384 0.383087 0.690376
Si Si3 0.448657 0.815343 0.857317
Si Si4 0.760056 0.394665 0.916596
Si Si5 0.862627 0.014137 0.419266
Si Si6 0.185812 0.691818 0.285638
O O1 0.493415 0.326173 0.500000
O O2 0.549832 0.330789 0.361094
O O3 0.437632 0.237704 0.415291
O O4 0.329110 0.340604 0.400002
O O5 0.500000 0.403218 0.750000
O O6 0.648120 0.435595 0.640729
O O7 0.715754 0.358738 0.730771
O O8 0.387395 0.876731 0.882816
O O9 0.382631 0.790553 0.786815
O O10 0.587471 0.830832 0.843230
O O11 0.707512 0.456894 0.886904
O O12 0.780266 0.404134 0.000000
O O13 0.815389 0.032441 0.500000
O O14 0.000000 0.000000 0.428405
O O15 0.250000 0.750000 0.317192
#
# Coordination Sequence:
#
# PCOD8276755 Si02
#       6
#    16  16  16  16  16  16
#     4  11  21  37  63  93 124 159 208 262 316 373
#     4  12  23  39  63  95 126 160 206 263 322 376
#     4  11  22  39  60  86 127 166 209 255 315 385
#     4  10  20  37  62  90 120 159 206 257 318 374
#     4  10  21  40  63  90 125 157 199 264 317 361
#     4  11  23  39  58  87 126 167 204 256 320 381
#
# _framework density 20.522621000000001
#
# number of rings (size 3 to 8) (size 9 to 14) (size 15 to 20)
#    0.000    1.167    3.333    4.500    0.000    1.667 
#    0.000    5.000    0.000    4.000    0.000    0.000 
#    0.000    0.000    0.000    0.000    0.000    0.000 
#
# Total GULP energy -595095.969244 kJ/mol
# GULP energy per Si atom -12397.832693 kJ/mol
# Density = 2.047591 g / cm^3
# Si number density = 20.522621 Si / 1000 Ang^3
#
#
#
# Elastic Constant Matrix: (Units=GPa)
#
#
# Indices 1 2 3 4 5 6 
#
# 1 116.4671 50.7369 29.2082 0.0000 0.0000 0.0000
# 2 50.7369 113.3498 32.9927 0.0000 0.0000 0.0000
# 3 29.2082 32.9927 61.6781 0.0000 0.0000 0.0000
# 4 0.0000 0.0000 0.0000 32.5889 0.0000 0.0000
# 5 0.0000 0.0000 0.0000 0.0000 31.7714 0.0000
# 6 0.0000 0.0000 0.0000 0.0000 0.0000 39.1104
#
#
#
# Elastic Compliance Matrix: (Units=1/GPa)
#
#
# Indices 1 2 3 4 5 6 
#
# 1 0.011142 -0.004088 -0.003090 0.000000 0.000000 0.000000
# 2 -0.004088 0.011949 -0.004456 0.000000 0.000000 0.000000
# 3 -0.003090 -0.004456 0.020060 0.000000 0.000000 0.000000
# 4 0.000000 0.000000 0.000000 0.030685 0.000000 0.000000
# 5 0.000000 0.000000 0.000000 0.000000 0.031475 0.000000
# 6 0.000000 0.000000 0.000000 0.000000 0.000000 0.025569
#
#
# Mechanical properties :
#
#
# Convention : Reuss Voigt Hill
#
# Bulk Modulus (GPa) = 50.29200 57.48563 53.88881
# Shear Modulus (GPa) = 31.09954 32.59797 31.84875
#
# Velocity S-wave (km/s) = 3.89701 3.98979 3.94367
# Velocity P-wave (km/s) = 6.69386 7.02113 6.85944
#
# Compressibility (1/GPa) = 0.01988388
#
# Stress axis : x y z
#
# Youngs Moduli (GPa) = 89.75239 83.68875 49.85085
#
# Poissons Ratio (x) = 0.34211 0.15402
# Poissons Ratio (y) = 0.36690 0.22213
# Poissons Ratio (z) = 0.27730 0.37291
#
# Static dielectric constant tensor:
#      x y z
#    x 3.895140 0.000000 0.000000 
#    y 0.000000 3.816050 0.000000 
#    z 0.000000 0.000000 3.741410 
# 
# 
# High freq. dielectric constant tensor:
#      x y z
#    x 1.790090 0.000000 0.000000 
#    y 0.000000 1.786110 0.000000 
#    z 0.000000 0.000000 1.804640 
# 
# From -- ./inp_files/48788.got.cif
#   From: 2010.03.12/outbox.cif.g09.slc.cpg/sg66_25_cif.got.tgz:48788.got - 2010.04.10 21:57:39.
