data_PCOD8276271
_publ_section_title
;
Structure prediction by ZEFSAII (Michael W. Deem and Ramdas Pophale) SiO2 
 PCOD8276271
Probable space group: C C C M
;
_chemical_formula_sum "Si O2"
_cell_formula_units_Z 96
_cell_length_a 31.675555
_cell_length_b 28.424212
_cell_length_c 7.731332
_cell_angle_alpha 90.000000
_cell_angle_beta 90.000000
_cell_angle_gamma 90.000000
_cell_volume 6960.925568
_symmetry_space_group_name_H-M "C C C M"
_symmetry_group_IT_number 66
_symmetry_cell_setting 'orthorhombic'
loop_
_space_group_symop_operation_xyz
x,y,z
-x,-y,z
x,-y,1/2-z
-x,y,1/2-z
-x,-y,-z
x,y,-z
-x,y,1/2+z
x,-y,1/2+z
1/2+x,1/2+y,z
1/2-x,1/2-y,z
1/2+x,1/2-y,1/2-z
1/2-x,1/2+y,1/2-z
1/2-x,1/2-y,-z
1/2+x,1/2+y,-z
1/2-x,1/2+y,1/2+z
1/2+x,1/2-y,1/2+z
loop_
_atom_site_type_symbol
_atom_site_label
_atom_site_fract_x
_atom_site_fract_y
_atom_site_fract_z
Si Si1 0.044922 0.409474 0.796691
Si Si2 0.455178 0.195282 0.202097
Si Si3 0.867390 0.730957 0.802146
Si Si4 0.686699 0.862435 0.801759
Si Si5 0.762168 0.674623 0.500000
Si Si6 0.683347 0.731827 0.500000
Si Si7 0.130942 0.448241 0.202295
O O1 0.046144 0.356952 0.713801
O O2 0.084118 0.439133 0.717240
O O3 0.000000 0.433673 0.750000
O O4 0.050131 0.406595 0.000000
O O5 0.500000 0.219730 0.250000
O O6 0.415761 0.226665 0.265591
O O7 0.449889 0.189765 0.000000
O O8 0.847073 0.679383 0.788445
O O9 0.844725 0.767875 0.674574
O O10 0.864155 0.749706 0.000000
O O11 0.726317 0.853683 0.674992
O O12 0.664247 0.909681 0.730720
O O13 0.703040 0.867305 0.000000
O O14 0.712000 0.684863 0.500000
O O15 0.787187 0.723029 0.500000
O O16 0.147186 0.500000 0.250000
O O17 0.128069 0.441786 0.000000
#
# Coordination Sequence:
#
# PCOD8276271 Si02
#       7
#    16  16  16  16   8   8  16
#     4   9  17  30  40  52  70  91 127 166 204 248
#     4   9  16  25  38  55  73  99 133 163 196 239
#     4   9  16  28  43  57  80 105 124 155 199 237
#     4   9  17  31  45  56  77 102 123 156 201 245
#     4   9  18  30  44  64  80  94 125 152 194 254
#     4   9  18  28  42  66  82  93 124 159 187 246
#     4  10  20  31  42  55  73  96 129 166 205 251
#
# _framework density 13.791269
#
# number of rings (size 3 to 8) (size 9 to 14) (size 15 to 20)
#    0.000    2.833    1.667    0.000    2.333    1.667 
#    0.000    5.000    0.000    0.000    0.000    0.000 
#    0.000    0.000    0.000    0.000    0.000    0.000 
#
# Total GULP energy -594862.601393 kJ/mol
# GULP energy per Si atom -12392.970862 kJ/mol
# Density = 1.375988 g / cm^3
# Si number density = 13.791269 Si / 1000 Ang^3
#
#
#
# Elastic Constant Matrix: (Units=GPa)
#
#
# Indices 1 2 3 4 5 6 
#
# 1 88.3381 45.1709 36.8509 0.0000 0.0000 0.0000
# 2 45.1709 41.9704 23.1007 0.0000 0.0000 0.0000
# 3 36.8509 23.1007 57.6380 0.0000 0.0000 0.0000
# 4 0.0000 0.0000 0.0000 11.2857 0.0000 0.0000
# 5 0.0000 0.0000 0.0000 0.0000 19.9919 0.0000
# 6 0.0000 0.0000 0.0000 0.0000 0.0000 24.1434
#
#
#
# Elastic Compliance Matrix: (Units=1/GPa)
#
#
# Indices 1 2 3 4 5 6 
#
# 1 0.027380 -0.025446 -0.007307 0.000000 0.000000 0.000000
# 2 -0.025446 0.054219 -0.005461 0.000000 0.000000 0.000000
# 3 -0.007307 -0.005461 0.024210 0.000000 0.000000 0.000000
# 4 0.000000 0.000000 0.000000 0.088607 0.000000 0.000000
# 5 0.000000 0.000000 0.000000 0.000000 0.050020 0.000000
# 6 0.000000 0.000000 0.000000 0.000000 0.000000 0.041419
#
#
# Mechanical properties :
#
#
# Convention : Reuss Voigt Hill
#
# Bulk Modulus (GPa) = 34.03639 44.24350 39.13995
# Shear Modulus (GPa) = 13.43806 16.60581 15.02193
#
# Velocity S-wave (km/s) = 3.12491 3.47375 3.30394
# Velocity P-wave (km/s) = 6.14437 6.94548 6.55717
#
# Compressibility (1/GPa) = 0.02938032
#
# Stress axis : x y z
#
# Youngs Moduli (GPa) = 36.52318 18.44377 41.30502
#
# Poissons Ratio (x) = 0.46932 0.30181
# Poissons Ratio (y) = 0.92937 0.22558
# Poissons Ratio (z) = 0.26687 0.10073
#
# Static dielectric constant tensor:
#      x y z
#    x 2.886260 0.000000 0.000000 
#    y 0.000000 1.369920 0.000000 
#    z 0.000000 0.000000 2.768960 
# 
# 
# High freq. dielectric constant tensor:
#      x y z
#    x 1.509410 0.000000 0.000000 
#    y 0.000000 1.461540 0.000000 
#    z 0.000000 0.000000 1.535030 
# 
# From -- ./inp_files/9316.got.cif
#   From: 2010.03.12/outbox.cif.g09.slc.cpg/sg66_5_cif.got.tgz:9316.got - 2010.04.10 21:57:39.
