data_PCOD8276545
_publ_section_title
;
Structure prediction by ZEFSAII (Michael W. Deem and Ramdas Pophale) SiO2 
 PCOD8276545
Probable space group: C C C M
;
_chemical_formula_sum "Si O2"
_cell_formula_units_Z 120
_cell_length_a 11.843384
_cell_length_b 21.567193
_cell_length_c 22.538984
_cell_angle_alpha 90.000000
_cell_angle_beta 90.000000
_cell_angle_gamma 90.000000
_cell_volume 5757.099968
_symmetry_space_group_name_H-M "C C C M"
_symmetry_group_IT_number 66
_symmetry_cell_setting 'orthorhombic'
loop_
_space_group_symop_operation_xyz
x,y,z
-x,-y,z
x,-y,1/2-z
-x,y,1/2-z
-x,-y,-z
x,y,-z
-x,y,1/2+z
x,-y,1/2+z
1/2+x,1/2+y,z
1/2-x,1/2-y,z
1/2+x,1/2-y,1/2-z
1/2-x,1/2+y,1/2-z
1/2-x,1/2-y,-z
1/2+x,1/2+y,-z
1/2-x,1/2+y,1/2+z
1/2+x,1/2-y,1/2+z
loop_
_atom_site_type_symbol
_atom_site_label
_atom_site_fract_x
_atom_site_fract_y
_atom_site_fract_z
Si Si1 0.521645 0.652549 0.931387
Si Si2 0.348735 0.526614 0.433949
Si Si3 0.630444 0.583160 0.647525
Si Si4 0.933287 0.370034 0.673424
Si Si5 0.000000 0.858010 0.250000
Si Si6 0.345535 0.930703 0.776107
Si Si7 0.591575 0.950193 0.933343
Si Si8 0.118274 0.765531 0.334212
O O1 0.608251 0.595688 0.922081
O O2 0.399885 0.637227 0.900572
O O3 0.579931 0.710094 0.898585
O O4 0.502260 0.669394 0.000000
O O5 0.386654 0.504957 0.500000
O O6 0.401661 0.481041 0.385043
O O7 0.214366 0.519587 0.429439
O O8 0.553621 0.593966 0.704457
O O9 0.757936 0.583430 0.671159
O O10 0.828703 0.386892 0.717914
O O11 0.906493 0.388336 0.606034
O O12 0.954827 0.296752 0.677259
O O13 0.035879 0.413052 0.694569
O O14 0.908027 0.814578 0.217671
O O15 0.339461 0.000000 0.750000
O O16 0.500000 0.000000 0.910044
O O17 0.561404 0.929399 0.000000
O O18 0.250000 0.750000 0.335196
#
# Coordination Sequence:
#
# PCOD8276545 Si02
#       8
#    16  16  16  16   8  16  16  16
#     4  10  23  42  61  87 122 159 206 261 310 361
#     4  10  20  36  59  84 114 153 191 236 302 366
#     4  11  22  37  59  85 117 153 193 241 302 371
#     4  11  21  38  60  86 120 156 199 247 302 356
#     4  10  24  40  53  84 121 150 192 248 302 350
#     4  11  23  37  60  90 122 158 196 244 305 374
#     4  10  20  35  57  87 121 150 187 244 304 365
#     4  11  23  40  63  86 116 160 209 254 299 361
#
# _framework density 20.843827000000001
#
# number of rings (size 3 to 8) (size 9 to 14) (size 15 to 20)
#    0.000    1.467    0.000    6.400    0.000    6.133 
#    0.000    3.333    0.000    0.800    0.000    0.000 
#    0.000    0.000    0.000    0.000    0.000    0.000 
#
# Total GULP energy -743634.077838 kJ/mol
# GULP energy per Si atom -12393.901297 kJ/mol
# Density = 2.079639 g / cm^3
# Si number density = 20.843827 Si / 1000 Ang^3
#
#
#
# Elastic Constant Matrix: (Units=GPa)
#
#
# Indices 1 2 3 4 5 6 
#
# 1 99.0409 39.3099 39.6128 0.0000 0.0000 0.0000
# 2 39.3099 112.8511 72.1159 0.0000 0.0000 0.0000
# 3 39.6128 72.1159 164.6788 0.0000 0.0000 0.0000
# 4 0.0000 0.0000 0.0000 30.4614 0.0000 0.0000
# 5 0.0000 0.0000 0.0000 0.0000 21.6556 0.0000
# 6 0.0000 0.0000 0.0000 0.0000 0.0000 20.3410
#
#
#
# Elastic Compliance Matrix: (Units=1/GPa)
#
#
# Indices 1 2 3 4 5 6 
#
# 1 0.011965 -0.003233 -0.001462 0.000000 0.000000 0.000000
# 2 -0.003233 0.013178 -0.004993 0.000000 0.000000 0.000000
# 3 -0.001462 -0.004993 0.008611 0.000000 0.000000 0.000000
# 4 0.000000 0.000000 0.000000 0.032828 0.000000 0.000000
# 5 0.000000 0.000000 0.000000 0.000000 0.046177 0.000000
# 6 0.000000 0.000000 0.000000 0.000000 0.000000 0.049162
#
#
# Mechanical properties :
#
#
# Convention : Reuss Voigt Hill
#
# Bulk Modulus (GPa) = 69.55808 75.40531 72.48170
# Shear Modulus (GPa) = 26.86847 29.52709 28.19778
#
# Velocity S-wave (km/s) = 3.59421 3.76784 3.68205
# Velocity P-wave (km/s) = 7.11815 7.42857 7.27501
#
# Compressibility (1/GPa) = 0.01437647
#
# Stress axis : x y z
#
# Youngs Moduli (GPa) = 83.57699 75.88145 116.13330
#
# Poissons Ratio (x) = 0.24536 0.16980
# Poissons Ratio (y) = 0.27024 0.57989
# Poissons Ratio (z) = 0.12220 0.37890
#
# Static dielectric constant tensor:
#      x y z
#    x 3.833150 0.000000 0.000000 
#    y 0.000000 3.653030 0.000000 
#    z 0.000000 0.000000 4.316540 
# 
# 
# High freq. dielectric constant tensor:
#      x y z
#    x 1.812100 0.000000 0.000000 
#    y 0.000000 1.800430 0.000000 
#    z 0.000000 0.000000 1.838360 
# 
# From -- ./inp_files/57221.got.cif
#   From: 2010.03.12/outbox.cif.g09.slc.cpg/sg66_29_cif.got.tgz:57221.got - 2010.04.10 21:57:39.
