data_PCOD8276934
_publ_section_title
;
Structure prediction by ZEFSAII (Michael W. Deem and Ramdas Pophale) SiO2 
 PCOD8276934
Probable space group: C C C M
;
_chemical_formula_sum "Si O2"
_cell_formula_units_Z 64
_cell_length_a 4.981130
_cell_length_b 25.192214
_cell_length_c 26.469762
_cell_angle_alpha 90.000000
_cell_angle_beta 90.000000
_cell_angle_gamma 90.000000
_cell_volume 3321.576426
_symmetry_space_group_name_H-M "C C C M"
_symmetry_group_IT_number 66
_symmetry_cell_setting 'orthorhombic'
loop_
_space_group_symop_operation_xyz
x,y,z
-x,-y,z
x,-y,1/2-z
-x,y,1/2-z
-x,-y,-z
x,y,-z
-x,y,1/2+z
x,-y,1/2+z
1/2+x,1/2+y,z
1/2-x,1/2-y,z
1/2+x,1/2-y,1/2-z
1/2-x,1/2+y,1/2-z
1/2-x,1/2-y,-z
1/2+x,1/2+y,-z
1/2-x,1/2+y,1/2+z
1/2+x,1/2-y,1/2+z
loop_
_atom_site_type_symbol
_atom_site_label
_atom_site_fract_x
_atom_site_fract_y
_atom_site_fract_z
Si Si1 0.103587 0.895379 0.352160
Si Si2 0.584151 0.055860 0.807500
Si Si3 0.999922 0.213484 0.308045
Si Si4 0.254014 0.036218 0.055673
O O1 0.398545 0.896713 0.327690
O O2 0.998101 0.835345 0.347500
O O3 0.158679 0.914681 0.409243
O O4 0.895039 0.933086 0.321086
O O5 0.500000 0.051734 0.750000
O O6 0.500000 0.000000 0.833597
O O7 0.750000 0.250000 0.319040
O O8 0.000000 0.192071 0.250000
O O9 0.250000 0.250000 0.319921
O O10 0.500000 0.000000 0.077184
O O11 0.334506 0.058794 0.000000
O O12 0.000000 0.000000 0.049916
#
# Coordination Sequence:
#
# PCOD8276934 Si02
#       4
#    16  16  16  16
#     4  12  21  35  57  77 106 147 186 222 274 329
#     4  11  22  33  49  79 114 143 174 214 267 337
#     4  10  21  36  53  75 104 140 185 232 274 321
#     4  10  21  37  57  83 113 144 183 230 279 335
#
# _framework density 19.267959999999999
#
# number of rings (size 3 to 8) (size 9 to 14) (size 15 to 20)
#    0.000    1.250    0.000    8.250    0.000    4.000 
#    0.000    0.000    0.000    1.500    0.000    0.000 
#    0.000    0.000    0.000    0.000    0.000    0.000 
#
# Total GULP energy -396488.527226 kJ/mol
# GULP energy per Si atom -12390.266476 kJ/mol
# Density = 1.922411 g / cm^3
# Si number density = 19.267960 Si / 1000 Ang^3
#
#
#
# Elastic Constant Matrix: (Units=GPa)
#
#
# Indices 1 2 3 4 5 6 
#
# 1 112.2198 32.9722 31.7493 0.0000 0.0000 0.0000
# 2 32.9722 127.8084 57.2741 0.0000 0.0000 0.0000
# 3 31.7493 57.2741 122.1909 0.0000 0.0000 0.0000
# 4 0.0000 0.0000 0.0000 -19.6765 0.0000 0.0000
# 5 0.0000 0.0000 0.0000 0.0000 23.6645 0.0000
# 6 0.0000 0.0000 0.0000 0.0000 0.0000 -8.3379
#
#
#
# Elastic Compliance Matrix: (Units=1/GPa)
#
#
# Indices 1 2 3 4 5 6 
#
# 1 0.009928 -0.001779 -0.001746 0.000000 0.000000 0.000000
# 2 -0.001779 0.010223 -0.004330 0.000000 0.000000 0.000000
# 3 -0.001746 -0.004330 0.010667 0.000000 0.000000 0.000000
# 4 0.000000 0.000000 0.000000 -0.050822 0.000000 0.000000
# 5 0.000000 0.000000 0.000000 0.000000 0.042257 0.000000
# 6 0.000000 0.000000 0.000000 0.000000 0.000000 -0.119935
#
#
# Mechanical properties :
#
#
# Convention : Reuss Voigt Hill
#
# Bulk Modulus (GPa) = 66.18431 67.35672 66.77052
# Shear Modulus (GPa) = -64.98907 15.14492 -24.92208
#
# Velocity S-wave (km/s) = -5.81398 2.80664 -3.60035
# Velocity P-wave (km/s) = 3.26278 6.74809 4.17678
#
# Compressibility (1/GPa) = 0.01510932
#
# Stress axis : x y z
#
# Youngs Moduli (GPa) = 100.72876 97.81481 93.74710
#
# Poissons Ratio (x) = 0.17400 0.16366
# Poissons Ratio (y) = 0.17918 0.40590
# Poissons Ratio (z) = 0.17585 0.42352
#
# Static dielectric constant tensor:
#      x y z
#    x 3.755990 0.000000 0.000000 
#    y 0.000000 3.417020 0.000000 
#    z 0.000000 0.000000 3.875040 
# 
# 
# High freq. dielectric constant tensor:
#      x y z
#    x 1.776010 0.000000 0.000000 
#    y 0.000000 1.725670 0.000000 
#    z 0.000000 0.000000 1.732730 
# 
# From -- ./inp_files/61220.got.cif
#   From: 2010.03.12/outbox.cif.g09.slc.cpg/sg66_31_cif.got.tgz:61220.got - 2010.04.10 21:57:39.
