data_PCOD8276294
_publ_section_title
;
Structure prediction by ZEFSAII (Michael W. Deem and Ramdas Pophale) SiO2 
 PCOD8276294
Probable space group: C C C M
;
_chemical_formula_sum "Si O2"
_cell_formula_units_Z 96
_cell_length_a 19.935169
_cell_length_b 30.544067
_cell_length_c 8.994542
_cell_angle_alpha 90.000000
_cell_angle_beta 90.000000
_cell_angle_gamma 90.000000
_cell_volume 5476.786856
_symmetry_space_group_name_H-M "C C C M"
_symmetry_group_IT_number 66
_symmetry_cell_setting 'orthorhombic'
loop_
_space_group_symop_operation_xyz
x,y,z
-x,-y,z
x,-y,1/2-z
-x,y,1/2-z
-x,-y,-z
x,y,-z
-x,y,1/2+z
x,-y,1/2+z
1/2+x,1/2+y,z
1/2-x,1/2-y,z
1/2+x,1/2-y,1/2-z
1/2-x,1/2+y,1/2-z
1/2-x,1/2-y,-z
1/2+x,1/2+y,-z
1/2-x,1/2+y,1/2+z
1/2+x,1/2-y,1/2+z
loop_
_atom_site_type_symbol
_atom_site_label
_atom_site_fract_x
_atom_site_fract_y
_atom_site_fract_z
Si Si1 0.321250 0.540386 0.828512
Si Si2 0.567758 0.298541 0.826185
Si Si3 0.324909 0.862249 0.672581
Si Si4 0.068430 0.698056 0.174597
Si Si5 0.821781 0.540539 0.172510
Si Si6 0.682747 0.636710 0.326955
O O1 0.362090 0.500000 0.750000
O O2 0.248800 0.542503 0.754569
O O3 0.352430 0.588806 0.805427
O O4 0.314700 0.528471 0.000000
O O5 0.500000 0.315453 0.750000
O O6 0.582626 0.248400 0.783092
O O7 0.629982 0.327424 0.769500
O O8 0.557580 0.304659 0.000000
O O9 0.326368 0.849021 0.500000
O O10 0.369761 0.829566 0.766317
O O11 0.354785 0.911551 0.694449
O O12 0.249006 0.858206 0.729065
O O13 0.000000 0.681541 0.250000
O O14 0.061284 0.691159 0.000000
O O15 0.863071 0.500000 0.250000
O O16 0.812181 0.529904 0.000000
O O17 0.701895 0.643707 0.500000
#
# Coordination Sequence:
#
# PCOD8276294 Si02
#       6
#    16  16  16  16  16  16
#     4   9  15  24  41  64  92 124 156 191 232 279
#     4   9  19  35  53  72  94 124 163 201 240 289
#     4  10  20  32  48  74 103 128 159 198 238 281
#     4  10  20  35  54  72  94 126 161 198 240 288
#     4   9  16  26  42  65  94 125 156 191 230 275
#     4   9  18  32  49  71  99 129 160 197 242 286
#
# _framework density 17.528525999999999
#
# number of rings (size 3 to 8) (size 9 to 14) (size 15 to 20)
#    0.000    2.667    0.000    3.000    0.000    4.667 
#    0.000    3.333    0.000    1.000    0.000    7.000 
#    0.000    0.000    0.000    0.000    0.000    0.000 
#
# Total GULP energy -594809.723799 kJ/mol
# GULP energy per Si atom -12391.869246 kJ/mol
# Density = 1.748863 g / cm^3
# Si number density = 17.528526 Si / 1000 Ang^3
#
#
#
# Elastic Constant Matrix: (Units=GPa)
#
#
# Indices 1 2 3 4 5 6 
#
# 1 68.3420 54.7818 33.6054 0.0000 0.0000 0.0000
# 2 54.7818 112.1777 50.3551 0.0000 0.0000 0.0000
# 3 33.6054 50.3551 92.3863 0.0000 0.0000 0.0000
# 4 0.0000 0.0000 0.0000 39.4632 0.0000 0.0000
# 5 0.0000 0.0000 0.0000 0.0000 23.4389 0.0000
# 6 0.0000 0.0000 0.0000 0.0000 0.0000 1.0582
#
#
#
# Elastic Compliance Matrix: (Units=1/GPa)
#
#
# Indices 1 2 3 4 5 6 
#
# 1 0.024737 -0.010646 -0.003196 0.000000 0.000000 0.000000
# 2 -0.010646 0.016384 -0.005057 0.000000 0.000000 0.000000
# 3 -0.003196 -0.005057 0.014743 0.000000 0.000000 0.000000
# 4 0.000000 0.000000 0.000000 0.025340 0.000000 0.000000
# 5 0.000000 0.000000 0.000000 0.000000 0.042664 0.000000
# 6 0.000000 0.000000 0.000000 0.000000 0.000000 0.944957
#
#
# Mechanical properties :
#
#
# Convention : Reuss Voigt Hill
#
# Bulk Modulus (GPa) = 55.35261 61.15452 58.25357
# Shear Modulus (GPa) = 4.49380 21.73630 13.11505
#
# Velocity S-wave (km/s) = 1.60289 3.52526 2.73831
# Velocity P-wave (km/s) = 5.92223 7.17874 6.58054
#
# Compressibility (1/GPa) = 0.01806600
#
# Stress axis : x y z
#
# Youngs Moduli (GPa) = 40.42485 61.03674 67.82859
#
# Poissons Ratio (x) = 0.64979 0.21675
# Poissons Ratio (y) = 0.43036 0.34304
# Poissons Ratio (z) = 0.12918 0.30869
#
# Static dielectric constant tensor:
#      x y z
#    x 2.849690 0.000000 0.000000 
#    y 0.000000 4.258660 0.000000 
#    z 0.000000 0.000000 3.353200 
# 
# 
# High freq. dielectric constant tensor:
#      x y z
#    x 1.623760 0.000000 0.000000 
#    y 0.000000 1.698700 0.000000 
#    z 0.000000 0.000000 1.690800 
# 
# From -- ./inp_files/7954.got.cif
#   From: 2010.03.12/outbox.cif.g09.slc.cpg/sg66_4_cif.got.tgz:7954.got - 2010.04.10 21:57:39.
