data_PCOD8276036
_publ_section_title
;
Structure prediction by ZEFSAII (Michael W. Deem and Ramdas Pophale) SiO2 
 PCOD8276036
Probable space group: C C C M
;
_chemical_formula_sum "Si O2"
_cell_formula_units_Z 80
_cell_length_a 5.227220
_cell_length_b 24.948194
_cell_length_c 32.767047
_cell_angle_alpha 90.000000
_cell_angle_beta 90.000000
_cell_angle_gamma 90.000000
_cell_volume 4273.140725
_symmetry_space_group_name_H-M "C C C M"
_symmetry_group_IT_number 66
_symmetry_cell_setting 'orthorhombic'
loop_
_space_group_symop_operation_xyz
x,y,z
-x,-y,z
x,-y,1/2-z
-x,y,1/2-z
-x,-y,-z
x,y,-z
-x,y,1/2+z
x,-y,1/2+z
1/2+x,1/2+y,z
1/2-x,1/2-y,z
1/2+x,1/2-y,1/2-z
1/2-x,1/2+y,1/2-z
1/2-x,1/2-y,-z
1/2+x,1/2+y,-z
1/2-x,1/2+y,1/2+z
1/2+x,1/2-y,1/2+z
loop_
_atom_site_type_symbol
_atom_site_label
_atom_site_fract_x
_atom_site_fract_y
_atom_site_fract_z
Si Si1 0.505013 0.302084 0.296905
Si Si2 0.652056 0.693252 0.953179
Si Si3 0.245723 0.965729 0.046619
Si Si4 0.991044 0.315153 0.169171
Si Si5 0.138627 0.645683 0.080331
O O1 0.500000 0.283616 0.250000
O O2 0.255537 0.337727 0.306531
O O3 0.498681 0.249539 0.325899
O O4 0.751843 0.337514 0.309194
O O5 0.750000 0.750000 0.936027
O O6 0.392978 0.679855 0.928930
O O7 0.893572 0.652847 0.949523
O O8 0.568517 0.696597 0.000000
O O9 0.273163 0.915836 0.077235
O O10 0.500000 0.000000 0.050082
O O11 0.203944 0.945274 0.000000
O O12 0.000000 0.000000 0.060685
O O13 0.974938 0.336467 0.123524
#
# Coordination Sequence:
#
# PCOD8276036 Si02
#       5
#    16  16  16  16  16
#     4  10  19  34  52  75 111 151 186 209 247 322
#     4  11  24  37  51  73 109 156 192 221 268 332
#     4  10  21  38  59  78 100 139 191 247 301 335
#     4  10  20  30  50  78 104 142 179 216 272 307
#     4  12  23  36  57  80 111 140 191 244 283 336
#
# _framework density 18.721594
#
# number of rings (size 3 to 8) (size 9 to 14) (size 15 to 20)
#    0.000    1.400    0.000    7.800    8.400    3.200 
#    0.000    0.000    0.000    0.000    0.000    0.000 
#    0.000   19.200    0.000    0.000    0.000    0.000 
#
# Total GULP energy -495688.864738 kJ/mol
# GULP energy per Si atom -12392.221618 kJ/mol
# Density = 1.867898 g / cm^3
# Si number density = 18.721594 Si / 1000 Ang^3
#
#
#
# Elastic Constant Matrix: (Units=GPa)
#
#
# Indices 1 2 3 4 5 6 
#
# 1 191.8060 27.8839 44.7924 0.0000 0.0000 0.0000
# 2 27.8839 68.7756 48.2209 0.0000 0.0000 0.0000
# 3 44.7924 48.2209 100.6673 0.0000 0.0000 0.0000
# 4 0.0000 0.0000 0.0000 14.6925 0.0000 0.0000
# 5 0.0000 0.0000 0.0000 0.0000 30.3809 0.0000
# 6 0.0000 0.0000 0.0000 0.0000 0.0000 25.1601
#
#
#
# Elastic Compliance Matrix: (Units=1/GPa)
#
#
# Indices 1 2 3 4 5 6 
#
# 1 0.005849 -0.000823 -0.002208 0.000000 0.000000 0.000000
# 2 -0.000823 0.022009 -0.010176 0.000000 0.000000 0.000000
# 3 -0.002208 -0.010176 0.015791 0.000000 0.000000 0.000000
# 4 0.000000 0.000000 0.000000 0.068062 0.000000 0.000000
# 5 0.000000 0.000000 0.000000 0.000000 0.032915 0.000000
# 6 0.000000 0.000000 0.000000 0.000000 0.000000 0.039745
#
#
# Mechanical properties :
#
#
# Convention : Reuss Voigt Hill
#
# Bulk Modulus (GPa) = 58.02702 67.00482 62.51592
# Shear Modulus (GPa) = 23.09140 30.07013 26.58077
#
# Velocity S-wave (km/s) = 3.51580 4.01206 3.77210
# Velocity P-wave (km/s) = 6.89515 7.57166 7.24131
#
# Compressibility (1/GPa) = 0.01723335
#
# Stress axis : x y z
#
# Youngs Moduli (GPa) = 170.97082 45.43677 63.32793
#
# Poissons Ratio (x) = 0.03740 0.13984
# Poissons Ratio (y) = 0.14072 0.64444
# Poissons Ratio (z) = 0.37755 0.46237
#
# Static dielectric constant tensor:
#      x y z
#    x 5.094270 0.000000 0.000000 
#    y 0.000000 2.834020 0.000000 
#    z 0.000000 0.000000 3.260750 
# 
# 
# High freq. dielectric constant tensor:
#      x y z
#    x 1.776330 0.000000 0.000000 
#    y 0.000000 1.661980 0.000000 
#    z 0.000000 0.000000 1.710940 
# 
# From -- ./inp_files/67207.got.cif
#   From: 2010.03.12/outbox.cif.g09.slc.cpg/sg66_34_cif.got.tgz:67207.got - 2010.04.10 21:57:39.
