data_PCOD8276577
_publ_section_title
;
Structure prediction by ZEFSAII (Michael W. Deem and Ramdas Pophale) SiO2 
 PCOD8276577
Probable space group: C C C M
;
_chemical_formula_sum "Si O2"
_cell_formula_units_Z 116
_cell_length_a 9.043629
_cell_length_b 25.006459
_cell_length_c 23.808900
_cell_angle_alpha 90.000000
_cell_angle_beta 90.000000
_cell_angle_gamma 90.000000
_cell_volume 5384.362207
_symmetry_space_group_name_H-M "C C C M"
_symmetry_group_IT_number 66
_symmetry_cell_setting 'orthorhombic'
loop_
_space_group_symop_operation_xyz
x,y,z
-x,-y,z
x,-y,1/2-z
-x,y,1/2-z
-x,-y,-z
x,y,-z
-x,y,1/2+z
x,-y,1/2+z
1/2+x,1/2+y,z
1/2-x,1/2-y,z
1/2+x,1/2-y,1/2-z
1/2-x,1/2+y,1/2-z
1/2-x,1/2-y,-z
1/2+x,1/2+y,-z
1/2-x,1/2+y,1/2+z
1/2+x,1/2-y,1/2+z
loop_
_atom_site_type_symbol
_atom_site_label
_atom_site_fract_x
_atom_site_fract_y
_atom_site_fract_z
Si Si1 0.308710 0.101685 0.934265
Si Si2 0.000000 0.000000 0.250000
Si Si3 0.327578 0.579226 0.830263
Si Si4 0.968415 0.838800 0.116689
Si Si5 0.747063 0.312286 0.941274
Si Si6 0.582462 0.242703 0.695474
Si Si7 0.669837 0.512797 0.437520
Si Si8 0.552162 0.139031 0.851368
O O1 0.186182 0.140649 0.907729
O O2 0.452936 0.105411 0.894909
O O3 0.261964 0.040694 0.929044
O O4 0.338107 0.116861 0.000000
O O5 0.887014 0.965203 0.287334
O O6 0.461694 0.621631 0.836124
O O7 0.284465 0.556139 0.891686
O O8 0.165854 0.603662 0.812061
O O9 0.951763 0.779600 0.142065
O O10 0.080358 0.834305 0.064959
O O11 0.750000 0.250000 0.947396
O O12 0.839195 0.324974 0.887094
O O13 0.808291 0.337077 0.000000
O O14 0.500000 0.264428 0.750000
O O15 0.750000 0.250000 0.712158
O O16 0.545965 0.179930 0.685093
O O17 0.500000 0.500000 0.427683
O O18 0.697041 0.536301 0.500000
#
# Coordination Sequence:
#
# PCOD8276577 Si02
#       8
#    16   4  16  16  16  16  16  16
#     4  11  22  40  69 101 139 179 222 271 346 413
#     4  12  24  48  70 110 124 188 234 286 360 402
#     4  11  25  42  74  97 139 169 231 285 338 416
#     4  11  22  41  66  97 131 176 224 275 325 405
#     4  10  20  35  60  92 133 172 209 255 316 394
#     4  12  28  46  69  92 130 178 232 286 335 405
#     4  10  20  40  67  99 132 176 228 278 327 403
#     4  11  25  45  63 103 137 175 216 282 337 400
#
# _framework density 21.543869999999998
#
# number of rings (size 3 to 8) (size 9 to 14) (size 15 to 20)
#    0.000    1.103    4.828    0.828    4.828    3.310 
#    2.483    2.069    0.000    0.828    0.000    0.000 
#    0.000    0.000    0.000    0.000    0.000    0.000 
#
# Total GULP energy -718821.833203 kJ/mol
# GULP energy per Si atom -12393.479883 kJ/mol
# Density = 2.149484 g / cm^3
# Si number density = 21.543870 Si / 1000 Ang^3
#
#
#
# Elastic Constant Matrix: (Units=GPa)
#
#
# Indices 1 2 3 4 5 6 
#
# 1 131.1231 39.1937 38.3160 0.0000 0.0000 0.0000
# 2 39.1937 84.2977 27.0124 0.0000 0.0000 0.0000
# 3 38.3160 27.0124 77.3719 0.0000 0.0000 0.0000
# 4 0.0000 0.0000 0.0000 34.8615 0.0000 0.0000
# 5 0.0000 0.0000 0.0000 0.0000 40.1375 0.0000
# 6 0.0000 0.0000 0.0000 0.0000 0.0000 34.4027
#
#
#
# Elastic Compliance Matrix: (Units=1/GPa)
#
#
# Indices 1 2 3 4 5 6 
#
# 1 0.009686 -0.003340 -0.003630 0.000000 0.000000 0.000000
# 2 -0.003340 0.014509 -0.003411 0.000000 0.000000 0.000000
# 3 -0.003630 -0.003411 0.015913 0.000000 0.000000 0.000000
# 4 0.000000 0.000000 0.000000 0.028685 0.000000 0.000000
# 5 0.000000 0.000000 0.000000 0.000000 0.024914 0.000000
# 6 0.000000 0.000000 0.000000 0.000000 0.000000 0.029067
#
#
# Mechanical properties :
#
#
# Convention : Reuss Voigt Hill
#
# Bulk Modulus (GPa) = 51.69472 55.75964 53.72718
# Shear Modulus (GPa) = 33.33643 34.43173 33.88408
#
# Velocity S-wave (km/s) = 3.93794 4.00210 3.97015
# Velocity P-wave (km/s) = 6.68757 6.87705 6.78298
#
# Compressibility (1/GPa) = 0.01934434
#
# Stress axis : x y z
#
# Youngs Moduli (GPa) = 103.24591 68.92403 62.84004
#
# Poissons Ratio (x) = 0.23020 0.22814
# Poissons Ratio (y) = 0.34483 0.21437
# Poissons Ratio (z) = 0.37483 0.23512
#
# Static dielectric constant tensor:
#      x y z
#    x 3.415200 0.000000 0.000000 
#    y 0.000000 3.869290 0.000000 
#    z 0.000000 0.000000 4.044940 
# 
# 
# High freq. dielectric constant tensor:
#      x y z
#    x 1.849980 0.000000 0.000000 
#    y 0.000000 1.851400 0.000000 
#    z 0.000000 0.000000 1.841640 
# 
# From -- ./inp_files/62897.got.cif
#   From: 2010.03.12/outbox.cif.g09.slc.cpg/sg66_32_cif.got.tgz:62897.got - 2010.04.10 21:57:39.
