data_PCOD8276778
_publ_section_title
;
Structure prediction by ZEFSAII (Michael W. Deem and Ramdas Pophale) SiO2 
 PCOD8276778
Probable space group: C C C M
;
_chemical_formula_sum "Si O2"
_cell_formula_units_Z 112
_cell_length_a 14.931490
_cell_length_b 25.327527
_cell_length_c 15.458639
_cell_angle_alpha 90.000000
_cell_angle_beta 90.000000
_cell_angle_gamma 90.000000
_cell_volume 5846.112791
_symmetry_space_group_name_H-M "C C C M"
_symmetry_group_IT_number 66
_symmetry_cell_setting 'orthorhombic'
loop_
_space_group_symop_operation_xyz
x,y,z
-x,-y,z
x,-y,1/2-z
-x,y,1/2-z
-x,-y,-z
x,y,-z
-x,y,1/2+z
x,-y,1/2+z
1/2+x,1/2+y,z
1/2-x,1/2-y,z
1/2+x,1/2-y,1/2-z
1/2-x,1/2+y,1/2-z
1/2-x,1/2-y,-z
1/2+x,1/2+y,-z
1/2-x,1/2+y,1/2+z
1/2+x,1/2-y,1/2+z
loop_
_atom_site_type_symbol
_atom_site_label
_atom_site_fract_x
_atom_site_fract_y
_atom_site_fract_z
Si Si1 0.266365 0.331581 0.500000
Si Si2 0.536282 0.219684 0.654180
Si Si3 0.822773 0.361569 0.600828
Si Si4 0.402740 0.242809 0.500000
Si Si5 0.177807 0.118308 0.333491
Si Si6 0.759440 0.454409 0.694804
Si Si7 0.099587 0.983097 0.898345
Si Si8 0.683891 0.704814 0.205978
O O1 0.363190 0.302049 0.500000
O O2 0.181665 0.294764 0.500000
O O3 0.260361 0.367716 0.415176
O O4 0.500000 0.212286 0.750000
O O5 0.584642 0.164792 0.630584
O O6 0.458862 0.232395 0.586371
O O7 0.604793 0.268649 0.651163
O O8 0.813183 0.355744 0.500000
O O9 0.821826 0.424444 0.625020
O O10 0.736567 0.332625 0.640356
O O11 0.239327 0.091042 0.263060
O O12 0.102033 0.077623 0.365785
O O13 0.141752 0.172002 0.287166
O O14 0.810539 0.500000 0.750000
O O15 0.670545 0.479893 0.651491
O O16 0.119801 0.987180 0.000000
O O17 0.000000 0.000000 0.874631
O O18 0.750000 0.750000 0.244496
#
# Coordination Sequence:
#
# PCOD8276778 Si02
#       8
#     8  16  16   8  16  16  16  16
#     4  11  24  40  59  81 123 155 212 242 293 369
#     4  11  23  40  59  90 123 161 204 252 301 360
#     4  10  20  38  63  89 121 158 202 247 306 369
#     4  11  26  40  61  87 121 167 197 252 303 352
#     4  10  20  38  56  85 109 165 200 240 298 357
#     4   9  20  36  60  86 113 155 198 237 307 361
#     4  10  20  38  58  85 122 153 197 252 302 358
#     4   9  21  36  61  83 123 158 199 245 300 360
#
# _framework density 19.15803
#
# number of rings (size 3 to 8) (size 9 to 14) (size 15 to 20)
#    0.000    2.000    1.429    1.286    9.000    3.429 
#   12.857    0.000    0.000    0.429    0.000    5.000 
#    0.000    0.000    0.000    0.000    0.000    0.000 
#
# Total GULP energy -694079.245108 kJ/mol
# GULP energy per Si atom -12394.272234 kJ/mol
# Density = 1.911443 g / cm^3
# Si number density = 19.158030 Si / 1000 Ang^3
#
#
#
# Elastic Constant Matrix: (Units=GPa)
#
#
# Indices 1 2 3 4 5 6 
#
# 1 82.6393 46.3732 43.1622 0.0000 0.0000 0.0000
# 2 46.3732 120.4722 56.0812 0.0000 0.0000 0.0000
# 3 43.1622 56.0812 138.3148 0.0000 0.0000 0.0000
# 4 0.0000 0.0000 0.0000 39.7318 0.0000 0.0000
# 5 0.0000 0.0000 0.0000 0.0000 58.4590 0.0000
# 6 0.0000 0.0000 0.0000 0.0000 0.0000 25.2698
#
#
#
# Elastic Compliance Matrix: (Units=1/GPa)
#
#
# Indices 1 2 3 4 5 6 
#
# 1 0.016491 -0.004872 -0.003171 0.000000 0.000000 0.000000
# 2 -0.004872 0.011671 -0.003212 0.000000 0.000000 0.000000
# 3 -0.003171 -0.003212 0.009522 0.000000 0.000000 0.000000
# 4 0.000000 0.000000 0.000000 0.025169 0.000000 0.000000
# 5 0.000000 0.000000 0.000000 0.000000 0.017106 0.000000
# 6 0.000000 0.000000 0.000000 0.000000 0.000000 0.039573
#
#
# Mechanical properties :
#
#
# Convention : Reuss Voigt Hill
#
# Bulk Modulus (GPa) = 65.89938 70.29548 68.09743
# Shear Modulus (GPa) = 33.99094 37.74609 35.86851
#
# Velocity S-wave (km/s) = 4.21674 4.44356 4.33164
# Velocity P-wave (km/s) = 7.62760 7.94349 7.78715
#
# Compressibility (1/GPa) = 0.01517465
#
# Stress axis : x y z
#
# Youngs Moduli (GPa) = 60.64065 85.68168 105.02387
#
# Poissons Ratio (x) = 0.41741 0.33300
# Poissons Ratio (y) = 0.29542 0.33733
# Poissons Ratio (z) = 0.19228 0.27520
#
# Static dielectric constant tensor:
#      x y z
#    x 3.420790 0.000000 0.000000 
#    y 0.000000 3.999580 0.000000 
#    z 0.000000 0.000000 -1.069290 
# 
# 
# High freq. dielectric constant tensor:
#      x y z
#    x 1.708300 0.000000 0.000000 
#    y 0.000000 1.756210 0.000000 
#    z 0.000000 0.000000 1.768250 
# 
# From -- ./inp_files/28923.got.cif
#   From: 2010.03.12/outbox.cif.g09.slc.cpg/sg66_15_cif.got.tgz:28923.got - 2010.04.10 21:57:39.
