data_PCOD8276301
_publ_section_title
;
Structure prediction by ZEFSAII (Michael W. Deem and Ramdas Pophale) SiO2 
 PCOD8276301
Probable space group: C C C M
;
_chemical_formula_sum "Si O2"
_cell_formula_units_Z 88
_cell_length_a 16.292727
_cell_length_b 28.249976
_cell_length_c 9.195505
_cell_angle_alpha 90.000000
_cell_angle_beta 90.000000
_cell_angle_gamma 90.000000
_cell_volume 4232.407240
_symmetry_space_group_name_H-M "C C C M"
_symmetry_group_IT_number 66
_symmetry_cell_setting 'orthorhombic'
loop_
_space_group_symop_operation_xyz
x,y,z
-x,-y,z
x,-y,1/2-z
-x,y,1/2-z
-x,-y,-z
x,y,-z
-x,y,1/2+z
x,-y,1/2+z
1/2+x,1/2+y,z
1/2-x,1/2-y,z
1/2+x,1/2-y,1/2-z
1/2-x,1/2+y,1/2-z
1/2-x,1/2-y,-z
1/2+x,1/2+y,-z
1/2-x,1/2+y,1/2+z
1/2+x,1/2-y,1/2+z
loop_
_atom_site_type_symbol
_atom_site_label
_atom_site_fract_x
_atom_site_fract_y
_atom_site_fract_z
Si Si1 0.583194 0.764315 0.833201
Si Si2 0.000000 0.120699 0.750000
Si Si3 0.240950 0.597450 0.828556
Si Si4 0.145646 0.183293 0.339889
Si Si5 0.414620 0.127422 0.170304
Si Si6 0.621524 0.455647 0.663429
O O1 0.500000 0.753743 0.750000
O O2 0.649618 0.727062 0.772285
O O3 0.612074 0.817943 0.809312
O O4 0.567281 0.752820 0.000000
O O5 0.939712 0.153967 0.842349
O O6 0.944044 0.086883 0.649582
O O7 0.279582 0.648963 0.799792
O O8 0.152981 0.595351 0.749643
O O9 0.297491 0.558210 0.753783
O O10 0.232162 0.586751 0.000000
O O11 0.157654 0.204743 0.500000
O O12 0.500000 0.117239 0.250000
O O13 0.421888 0.114334 0.000000
O O14 0.582325 0.500000 0.750000
O O15 0.646158 0.470377 0.500000
#
# Coordination Sequence:
#
# PCOD8276301 Si02
#       6
#    16   8  16  16  16  16
#     4  10  20  32  50  76 109 149 193 238 282 331
#     4  10  21  34  56  84 116 158 202 238 277 328
#     4  10  22  39  58  83 112 145 187 236 290 345
#     4  10  20  33  51  77 112 152 194 237 281 329
#     4  10  21  38  59  83 110 145 188 235 289 346
#     4  11  23  39  60  86 118 154 193 238 288 343
#
# _framework density 20.791951999999998
#
# number of rings (size 3 to 8) (size 9 to 14) (size 15 to 20)
#    0.000    1.818    0.909    3.000    0.000    9.455 
#    0.000    3.636    0.000    0.545    0.000    3.818 
#    0.000    0.000    0.000    0.000    0.000    0.000 
#
# Total GULP energy -545568.020462 kJ/mol
# GULP energy per Si atom -12399.273192 kJ/mol
# Density = 2.074463 g / cm^3
# Si number density = 20.791952 Si / 1000 Ang^3
#
#
#
# Elastic Constant Matrix: (Units=GPa)
#
#
# Indices 1 2 3 4 5 6 
#
# 1 94.8340 11.8752 40.3572 0.0000 0.0000 0.0000
# 2 11.8752 37.8177 20.8013 0.0000 0.0000 0.0000
# 3 40.3572 20.8013 141.2005 0.0000 0.0000 0.0000
# 4 0.0000 0.0000 0.0000 29.4587 0.0000 0.0000
# 5 0.0000 0.0000 0.0000 0.0000 28.8623 0.0000
# 6 0.0000 0.0000 0.0000 0.0000 0.0000 16.8675
#
#
#
# Elastic Compliance Matrix: (Units=1/GPa)
#
#
# Indices 1 2 3 4 5 6 
#
# 1 0.012153 -0.002074 -0.003168 0.000000 0.000000 0.000000
# 2 -0.002074 0.029128 -0.003698 0.000000 0.000000 0.000000
# 3 -0.003168 -0.003698 0.008532 0.000000 0.000000 0.000000
# 4 0.000000 0.000000 0.000000 0.033946 0.000000 0.000000
# 5 0.000000 0.000000 0.000000 0.000000 0.034647 0.000000
# 6 0.000000 0.000000 0.000000 0.000000 0.000000 0.059286
#
#
# Mechanical properties :
#
#
# Convention : Reuss Voigt Hill
#
# Bulk Modulus (GPa) = 31.31537 46.65773 38.98655
# Shear Modulus (GPa) = 24.24645 28.42560 26.33602
#
# Velocity S-wave (km/s) = 3.41859 3.70150 3.56286
# Velocity P-wave (km/s) = 5.53862 6.38413 5.97635
#
# Compressibility (1/GPa) = 0.03193320
#
# Stress axis : x y z
#
# Youngs Moduli (GPa) = 82.28749 34.33119 117.20032
#
# Poissons Ratio (x) = 0.07119 0.37128
# Poissons Ratio (y) = 0.17063 0.43345
# Poissons Ratio (z) = 0.26068 0.12697
#
# Static dielectric constant tensor:
#      x y z
#    x 3.549410 0.000000 0.000000 
#    y 0.000000 3.569080 0.000000 
#    z 0.000000 0.000000 3.715260 
# 
# 
# High freq. dielectric constant tensor:
#      x y z
#    x 1.801370 0.000000 0.000000 
#    y 0.000000 1.794960 0.000000 
#    z 0.000000 0.000000 1.822390 
# 
# From -- ./inp_files/7035.got.cif
#   From: 2010.03.12/outbox.cif.g09.slc.cpg/sg66_4_cif.got.tgz:7035.got - 2010.04.10 21:57:39.
