data_PCOD8276066
_publ_section_title
;
Structure prediction by ZEFSAII (Michael W. Deem and Ramdas Pophale) SiO2 
 PCOD8276066
Probable space group: C C C M
;
_chemical_formula_sum "Si O2"
_cell_formula_units_Z 120
_cell_length_a 26.114124
_cell_length_b 27.850177
_cell_length_c 8.970488
_cell_angle_alpha 90.000000
_cell_angle_beta 90.000000
_cell_angle_gamma 90.000000
_cell_volume 6524.083205
_symmetry_space_group_name_H-M "C C C M"
_symmetry_group_IT_number 66
_symmetry_cell_setting 'orthorhombic'
loop_
_space_group_symop_operation_xyz
x,y,z
-x,-y,z
x,-y,1/2-z
-x,y,1/2-z
-x,-y,-z
x,y,-z
-x,y,1/2+z
x,-y,1/2+z
1/2+x,1/2+y,z
1/2-x,1/2-y,z
1/2+x,1/2-y,1/2-z
1/2-x,1/2+y,1/2-z
1/2-x,1/2-y,-z
1/2+x,1/2+y,-z
1/2-x,1/2+y,1/2+z
1/2+x,1/2-y,1/2+z
loop_
_atom_site_type_symbol
_atom_site_label
_atom_site_fract_x
_atom_site_fract_y
_atom_site_fract_z
Si Si1 0.500000 0.125207 0.250000
Si Si2 0.945542 0.880455 0.673535
Si Si3 0.364577 0.449071 0.820986
Si Si4 0.241976 0.950233 0.176495
Si Si5 0.097489 0.685207 0.331247
Si Si6 0.053490 0.770532 0.170741
Si Si7 0.931977 0.455285 0.160273
Si Si8 0.658351 0.893173 0.325303
O O1 0.542693 0.158104 0.327709
O O2 0.528213 0.088683 0.137328
O O3 0.947791 0.896313 0.500000
O O4 0.905356 0.910534 0.767514
O O5 0.928085 0.825232 0.687192
O O6 0.000000 0.888930 0.750000
O O7 0.380064 0.500000 0.750000
O O8 0.309684 0.432857 0.756928
O O9 0.363384 0.452322 0.000000
O O10 0.283650 0.908922 0.207178
O O11 0.260681 0.000000 0.250000
O O12 0.232748 0.957932 0.000000
O O13 0.112109 0.696369 0.500000
O O14 0.095260 0.735622 0.244072
O O15 0.144437 0.655481 0.260772
O O16 0.000000 0.762210 0.250000
O O17 0.046199 0.755651 0.000000
O O18 0.954871 0.500000 0.250000
O O19 0.879648 0.435084 0.233908
O O20 0.918972 0.476837 0.000000
O O21 0.648513 0.884506 0.500000
#
# Coordination Sequence:
#
# PCOD8276066 Si02
#       8
#     8  16  16  16  16  16  16  16
#     4  10  21  32  44  64  94 130 171 216 268 326
#     4  10  21  38  59  87 119 151 183 216 257 311
#     4  11  22  37  59  87 118 151 183 219 258 309
#     4  10  19  34  56  80 107 142 182 228 275 325
#     4  11  21  32  51  74 100 135 178 227 277 327
#     4  10  20  34  55  79 108 142 179 222 268 319
#     4  10  20  32  44  61  89 126 169 215 268 325
#     4   9  20  35  50  70 100 135 175 226 280 329
#
# _framework density 18.393388000000002
#
# number of rings (size 3 to 8) (size 9 to 14) (size 15 to 20)
#    0.000    1.867    0.667    4.600    0.000    7.200 
#    0.000    1.333    0.000    0.800    0.000    5.600 
#    0.000    0.000    0.000    0.000    0.000    0.000 
#
# Total GULP energy -743780.919447 kJ/mol
# GULP energy per Si atom -12396.348657 kJ/mol
# Density = 1.835152 g / cm^3
# Si number density = 18.393388 Si / 1000 Ang^3
#
#
#
# Elastic Constant Matrix: (Units=GPa)
#
#
# Indices 1 2 3 4 5 6 
#
# 1 94.9254 59.8423 54.4520 0.0000 0.0000 0.0000
# 2 59.8423 98.5811 60.5265 0.0000 0.0000 0.0000
# 3 54.4520 60.5265 145.6268 0.0000 0.0000 0.0000
# 4 0.0000 0.0000 0.0000 27.0355 0.0000 0.0000
# 5 0.0000 0.0000 0.0000 0.0000 25.9184 0.0000
# 6 0.0000 0.0000 0.0000 0.0000 0.0000 26.4486
#
#
#
# Elastic Compliance Matrix: (Units=1/GPa)
#
#
# Indices 1 2 3 4 5 6 
#
# 1 0.017951 -0.009097 -0.002931 0.000000 0.000000 0.000000
# 2 -0.009097 0.018230 -0.004175 0.000000 0.000000 0.000000
# 3 -0.002931 -0.004175 0.009698 0.000000 0.000000 0.000000
# 4 0.000000 0.000000 0.000000 0.036988 0.000000 0.000000
# 5 0.000000 0.000000 0.000000 0.000000 0.038583 0.000000
# 6 0.000000 0.000000 0.000000 0.000000 0.000000 0.037809
#
#
# Mechanical properties :
#
#
# Convention : Reuss Voigt Hill
#
# Bulk Modulus (GPa) = 74.22884 76.53055 75.37969
# Shear Modulus (GPa) = 25.48980 26.83467 26.16223
#
# Velocity S-wave (km/s) = 3.72669 3.82374 3.77553
# Velocity P-wave (km/s) = 7.67864 7.82257 7.75094
#
# Compressibility (1/GPa) = 0.01347185
#
# Stress axis : x y z
#
# Youngs Moduli (GPa) = 55.70718 54.85522 103.11241
#
# Poissons Ratio (x) = 0.49904 0.30223
# Poissons Ratio (y) = 0.50679 0.43051
# Poissons Ratio (z) = 0.16328 0.22903
#
# Static dielectric constant tensor:
#      x y z
#    x 3.247830 0.000000 0.000000 
#    y 0.000000 3.375720 0.000000 
#    z 0.000000 0.000000 3.471750 
# 
# 
# High freq. dielectric constant tensor:
#      x y z
#    x 1.693060 0.000000 0.000000 
#    y 0.000000 1.705460 0.000000 
#    z 0.000000 0.000000 1.725630 
# 
# From -- ./inp_files/10809.got.cif
#   From: 2010.03.12/outbox.cif.g09.slc.cpg/sg66_6_cif.got.tgz:10809.got - 2010.04.10 21:57:39.
