data_PCOD8276588
_publ_section_title
;
Structure prediction by ZEFSAII (Michael W. Deem and Ramdas Pophale) SiO2 
 PCOD8276588
Probable space group: C C C M
;
_chemical_formula_sum "Si O2"
_cell_formula_units_Z 116
_cell_length_a 26.675208
_cell_length_b 26.626684
_cell_length_c 9.343130
_cell_angle_alpha 90.000000
_cell_angle_beta 90.000000
_cell_angle_gamma 90.000000
_cell_volume 6636.166752
_symmetry_space_group_name_H-M "C C C M"
_symmetry_group_IT_number 66
_symmetry_cell_setting 'orthorhombic'
loop_
_space_group_symop_operation_xyz
x,y,z
-x,-y,z
x,-y,1/2-z
-x,y,1/2-z
-x,-y,-z
x,y,-z
-x,y,1/2+z
x,-y,1/2+z
1/2+x,1/2+y,z
1/2-x,1/2-y,z
1/2+x,1/2-y,1/2-z
1/2-x,1/2+y,1/2-z
1/2-x,1/2-y,-z
1/2+x,1/2+y,-z
1/2-x,1/2+y,1/2+z
1/2+x,1/2-y,1/2+z
loop_
_atom_site_type_symbol
_atom_site_label
_atom_site_fract_x
_atom_site_fract_y
_atom_site_fract_z
Si Si1 0.000000 0.500000 0.750000
Si Si2 0.257904 0.363848 0.667180
Si Si3 0.673465 0.207212 0.838244
Si Si4 0.573523 0.916867 0.340088
Si Si5 0.048860 0.212150 0.831730
Si Si6 0.315721 0.949672 0.169965
Si Si7 0.142979 0.819285 0.164930
Si Si8 0.918943 0.676059 0.833026
O O1 0.964209 0.535899 0.656875
O O2 0.263155 0.371536 0.500000
O O3 0.228999 0.311788 0.700834
O O4 0.225613 0.410051 0.728517
O O5 0.315598 0.359456 0.723509
O O6 0.671386 0.266491 0.823016
O O7 0.636446 0.178801 0.731158
O O8 0.659188 0.190250 0.000000
O O9 0.577226 0.895510 0.500000
O O10 0.628331 0.933348 0.284074
O O11 0.553003 0.871332 0.240329
O O12 0.095040 0.180292 0.767969
O O13 0.053409 0.271490 0.799421
O O14 0.000000 0.192205 0.750000
O O15 0.044952 0.201212 0.000000
O O16 0.300934 0.000000 0.250000
O O17 0.313018 0.957344 0.000000
O O18 0.126509 0.829296 0.000000
O O19 0.916032 0.665451 0.000000
#
# Coordination Sequence:
#
# PCOD8276588 Si02
#       8
#     4  16  16  16  16  16  16  16
#     4  12  26  40  52  74  90 120 172 238 280 308
#     4   9  16  29  50  75  99 128 164 204 250 304
#     4   9  15  28  49  73  99 129 162 199 245 301
#     4  11  23  39  55  69  91 125 167 219 273 317
#     4  10  21  36  51  72 102 136 169 203 243 290
#     4  10  20  36  54  72  96 128 168 212 259 311
#     4   9  17  29  50  76 101 129 164 203 245 298
#     4  10  21  34  50  72  96 125 165 210 253 302
#
# _framework density 17.479970999999999
#
# number of rings (size 3 to 8) (size 9 to 14) (size 15 to 20)
#    0.000    2.207    2.069    1.448    0.966    4.966 
#    0.000    1.379    0.000    3.310    0.000    0.000 
#    0.000    0.552    0.000    6.345    0.000    1.931 
#
# Total GULP energy -718850.581280 kJ/mol
# GULP energy per Si atom -12393.975539 kJ/mol
# Density = 1.744019 g / cm^3
# Si number density = 17.479971 Si / 1000 Ang^3
#
#
#
# Elastic Constant Matrix: (Units=GPa)
#
#
# Indices 1 2 3 4 5 6 
#
# 1 131.0707 43.7689 44.7905 0.0000 0.0000 0.0000
# 2 43.7689 46.9710 21.6911 0.0000 0.0000 0.0000
# 3 44.7905 21.6911 61.0493 0.0000 0.0000 0.0000
# 4 0.0000 0.0000 0.0000 17.7499 0.0000 0.0000
# 5 0.0000 0.0000 0.0000 0.0000 19.6443 0.0000
# 6 0.0000 0.0000 0.0000 0.0000 0.0000 25.3483
#
#
#
# Elastic Compliance Matrix: (Units=1/GPa)
#
#
# Indices 1 2 3 4 5 6 
#
# 1 0.012747 -0.009043 -0.006139 0.000000 0.000000 0.000000
# 2 -0.009043 0.031884 -0.004694 0.000000 0.000000 0.000000
# 3 -0.006139 -0.004694 0.022552 0.000000 0.000000 0.000000
# 4 0.000000 0.000000 0.000000 0.056338 0.000000 0.000000
# 5 0.000000 0.000000 0.000000 0.000000 0.050905 0.000000
# 6 0.000000 0.000000 0.000000 0.000000 0.000000 0.039450
#
#
# Mechanical properties :
#
#
# Convention : Reuss Voigt Hill
#
# Bulk Modulus (GPa) = 36.45516 51.06579 43.76047
# Shear Modulus (GPa) = 19.02778 21.13786 20.08282
#
# Velocity S-wave (km/s) = 3.30289 3.48122 3.39323
# Velocity P-wave (km/s) = 5.95367 6.74061 6.35932
#
# Compressibility (1/GPa) = 0.02743096
#
# Stress axis : x y z
#
# Youngs Moduli (GPa) = 78.44841 31.36374 44.34152
#
# Poissons Ratio (x) = 0.28363 0.27223
# Poissons Ratio (y) = 0.70942 0.20813
# Poissons Ratio (z) = 0.48162 0.14722
#
# Static dielectric constant tensor:
#      x y z
#    x 3.353270 0.000000 0.000000 
#    y 0.000000 3.154300 0.000000 
#    z 0.000000 0.000000 3.078700 
# 
# 
# High freq. dielectric constant tensor:
#      x y z
#    x 1.673860 0.000000 0.000000 
#    y 0.000000 1.641050 0.000000 
#    z 0.000000 0.000000 1.659970 
# 
# From -- ./inp_files/9661.got.cif
#   From: 2010.03.12/outbox.cif.g09.slc.cpg/sg66_5_cif.got.tgz:9661.got - 2010.04.10 21:57:39.
