data_PCOD8276973
_publ_section_title
;
Structure prediction by ZEFSAII (Michael W. Deem and Ramdas Pophale) SiO2 
 PCOD8276973
Probable space group: C C C M
;
_chemical_formula_sum "Si O2"
_cell_formula_units_Z 96
_cell_length_a 14.231340
_cell_length_b 23.703413
_cell_length_c 15.191374
_cell_angle_alpha 90.000000
_cell_angle_beta 90.000000
_cell_angle_gamma 90.000000
_cell_volume 5124.526389
_symmetry_space_group_name_H-M "C C C M"
_symmetry_group_IT_number 66
_symmetry_cell_setting 'orthorhombic'
loop_
_space_group_symop_operation_xyz
x,y,z
-x,-y,z
x,-y,1/2-z
-x,y,1/2-z
-x,-y,-z
x,y,-z
-x,y,1/2+z
x,-y,1/2+z
1/2+x,1/2+y,z
1/2-x,1/2-y,z
1/2+x,1/2-y,1/2-z
1/2-x,1/2+y,1/2-z
1/2-x,1/2-y,-z
1/2+x,1/2+y,-z
1/2-x,1/2+y,1/2+z
1/2+x,1/2-y,1/2+z
loop_
_atom_site_type_symbol
_atom_site_label
_atom_site_fract_x
_atom_site_fract_y
_atom_site_fract_z
Si Si1 0.895444 0.520269 0.655833
Si Si2 0.505470 0.677627 0.500000
Si Si3 0.201937 0.310582 0.842664
Si Si4 0.000497 0.731521 0.148565
Si Si5 0.700874 0.619315 0.500000
Si Si6 0.304056 0.372865 0.000000
Si Si7 0.735837 0.005190 0.500000
Si Si8 0.835782 0.354326 0.154694
O O1 0.858810 0.500000 0.750000
O O2 0.828801 0.491578 0.585403
O O3 0.893358 0.587675 0.651794
O O4 0.000000 0.500000 0.636543
O O5 0.506991 0.714158 0.411880
O O6 0.593003 0.635945 0.500000
O O7 0.413180 0.640278 0.500000
O O8 0.250000 0.250000 0.833228
O O9 0.254861 0.347657 0.914165
O O10 0.208555 0.343112 0.750175
O O11 0.093911 0.303454 0.872554
O O12 0.090573 0.693539 0.127448
O O13 0.000000 0.751374 0.250000
O O14 0.702520 0.551473 0.500000
O O15 0.750913 0.645022 0.414211
O O16 0.301526 0.440399 0.000000
#
# Coordination Sequence:
#
# PCOD8276973 Si02
#       8
#    16   8  16  16   8   8   8  16
#     4  10  21  36  59  89 119 154 193 232 292 356
#     4  12  24  41  58  87 111 155 204 251 290 344
#     4  11  22  39  60  90 124 156 193 238 291 361
#     4  10  23  37  59  90 123 149 192 233 297 359
#     4  10  25  42  62  83 118 152 206 247 292 348
#     4  12  24  38  63  83 118 160 197 249 294 334
#     4  10  23  42  56  86 112 157 202 242 290 344
#     4  10  23  39  60  90 121 157 189 240 296 355
#
# _framework density 18.733439000000001
#
# number of rings (size 3 to 8) (size 9 to 14) (size 15 to 20)
#    0.000    1.500    1.667    2.500   14.000    1.000 
#    0.000    0.000    0.000    0.000    0.000    4.667 
#    0.000    0.000    0.000    0.000    0.000    0.000 
#
# Total GULP energy -595422.519778 kJ/mol
# GULP energy per Si atom -12404.635829 kJ/mol
# Density = 1.869080 g / cm^3
# Si number density = 18.733439 Si / 1000 Ang^3
#
#
#
# Elastic Constant Matrix: (Units=GPa)
#
#
# Indices 1 2 3 4 5 6 
#
# 1 148.7042 72.1629 85.1678 0.0000 0.0000 0.0000
# 2 72.1629 124.1238 72.2193 0.0000 0.0000 0.0000
# 3 85.1678 72.2193 122.9301 0.0000 0.0000 0.0000
# 4 0.0000 0.0000 0.0000 33.7344 0.0000 0.0000
# 5 0.0000 0.0000 0.0000 0.0000 7.6774 0.0000
# 6 0.0000 0.0000 0.0000 0.0000 0.0000 29.5272
#
#
#
# Elastic Compliance Matrix: (Units=1/GPa)
#
#
# Indices 1 2 3 4 5 6 
#
# 1 0.011947 -0.003236 -0.006376 0.000000 0.000000 0.000000
# 2 -0.003236 0.013117 -0.005464 0.000000 0.000000 0.000000
# 3 -0.006376 -0.005464 0.015762 0.000000 0.000000 0.000000
# 4 0.000000 0.000000 0.000000 0.029643 0.000000 0.000000
# 5 0.000000 0.000000 0.000000 0.000000 0.130253 0.000000
# 6 0.000000 0.000000 0.000000 0.000000 0.000000 0.033867
#
#
# Mechanical properties :
#
#
# Convention : Reuss Voigt Hill
#
# Bulk Modulus (GPa) = 93.68519 94.98424 94.33472
# Shear Modulus (GPa) = 18.63597 25.26834 21.95215
#
# Velocity S-wave (km/s) = 3.15746 3.67663 3.42689
# Velocity P-wave (km/s) = 7.96310 8.29678 8.13165
#
# Compressibility (1/GPa) = 0.01067405
#
# Stress axis : x y z
#
# Youngs Moduli (GPa) = 83.70490 76.23730 63.44360
#
# Poissons Ratio (x) = 0.24670 0.40451
# Poissons Ratio (y) = 0.27086 0.34666
# Poissons Ratio (z) = 0.53369 0.41657
#
# Static dielectric constant tensor:
#      x y z
#    x 3.427090 0.000000 0.000000 
#    y 0.000000 3.435890 0.000000 
#    z 0.000000 0.000000 3.818810 
# 
# 
# High freq. dielectric constant tensor:
#      x y z
#    x 1.724370 0.000000 0.000000 
#    y 0.000000 1.728420 0.000000 
#    z 0.000000 0.000000 1.746030 
# 
# From -- ./inp_files/28475.got.cif
#   From: 2010.03.12/outbox.cif.g09.slc.cpg/sg66_15_cif.got.tgz:28475.got - 2010.04.10 21:57:39.
