data_PCOD8276184
_publ_section_title
;
Structure prediction by ZEFSAII (Michael W. Deem and Ramdas Pophale) SiO2 
 PCOD8276184
Probable space group: C C C M
;
_chemical_formula_sum "Si O2"
_cell_formula_units_Z 88
_cell_length_a 10.075656
_cell_length_b 22.464686
_cell_length_c 19.047879
_cell_angle_alpha 90.000000
_cell_angle_beta 90.000000
_cell_angle_gamma 90.000000
_cell_volume 4311.419759
_symmetry_space_group_name_H-M "C C C M"
_symmetry_group_IT_number 66
_symmetry_cell_setting 'orthorhombic'
loop_
_space_group_symop_operation_xyz
x,y,z
-x,-y,z
x,-y,1/2-z
-x,y,1/2-z
-x,-y,-z
x,y,-z
-x,y,1/2+z
x,-y,1/2+z
1/2+x,1/2+y,z
1/2-x,1/2-y,z
1/2+x,1/2-y,1/2-z
1/2-x,1/2+y,1/2-z
1/2-x,1/2-y,-z
1/2+x,1/2+y,-z
1/2-x,1/2+y,1/2+z
1/2+x,1/2-y,1/2+z
loop_
_atom_site_type_symbol
_atom_site_label
_atom_site_fract_x
_atom_site_fract_y
_atom_site_fract_z
Si Si1 0.032738 0.726753 0.000000
Si Si2 0.727872 0.903595 0.365405
Si Si3 0.357417 0.483866 0.169200
Si Si4 0.485789 0.176045 0.857447
Si Si5 0.286669 0.359670 0.787150
Si Si6 0.500000 0.732427 0.250000
Si Si7 0.188657 0.839270 0.000000
O O1 0.057148 0.797831 0.000000
O O2 0.177462 0.698287 0.000000
O O3 0.949918 0.705181 0.932314
O O4 0.742336 0.975694 0.367487
O O5 0.574111 0.883337 0.368938
O O6 0.790540 0.880108 0.293354
O O7 0.813991 0.878688 0.429853
O O8 0.500000 0.500000 0.134978
O O9 0.359720 0.500000 0.250000
O O10 0.328717 0.413685 0.161052
O O11 0.355924 0.161221 0.813150
O O12 0.565279 0.225257 0.810665
O O13 0.390032 0.305776 0.791129
#
# Coordination Sequence:
#
# PCOD8276184 Si02
#       7
#     8  16  16  16  16   8   8
#     4   9  20  36  54  85 128 159 201 245 313 387
#     4  10  19  36  58  86 119 152 209 252 300 362
#     4   9  19  36  57  82 113 157 202 252 307 364
#     4  11  22  36  58  91 120 160 199 256 314 366
#     4  11  21  36  58  87 120 156 199 253 311 367
#     4  12  22  36  59  87 122 154 204 246 304 376
#     4   9  18  34  60  85 117 171 203 250 308 370
#
# _framework density 20.410910000000001
#
# number of rings (size 3 to 8) (size 9 to 14) (size 15 to 20)
#    0.000    1.818    1.818    3.818    0.000    2.182 
#    0.000    5.909    0.000    5.455    0.000    0.000 
#    0.000    0.000    0.000    0.000    0.000    0.000 
#
# Total GULP energy -545353.888613 kJ/mol
# GULP energy per Si atom -12394.406559 kJ/mol
# Density = 2.036445 g / cm^3
# Si number density = 20.410910 Si / 1000 Ang^3
#
#
#
# Elastic Constant Matrix: (Units=GPa)
#
#
# Indices 1 2 3 4 5 6 
#
# 1 86.8726 58.3616 21.5713 0.0000 0.0000 0.0000
# 2 58.3616 138.6123 51.1707 0.0000 0.0000 0.0000
# 3 21.5713 51.1707 113.9631 0.0000 0.0000 0.0000
# 4 0.0000 0.0000 0.0000 24.2531 0.0000 0.0000
# 5 0.0000 0.0000 0.0000 0.0000 6.2507 0.0000
# 6 0.0000 0.0000 0.0000 0.0000 0.0000 31.4581
#
#
#
# Elastic Compliance Matrix: (Units=1/GPa)
#
#
# Indices 1 2 3 4 5 6 
#
# 1 0.016051 -0.006757 -0.000004 0.000000 0.000000 0.000000
# 2 -0.006757 0.011492 -0.003881 0.000000 0.000000 0.000000
# 3 -0.000004 -0.003881 0.010518 0.000000 0.000000 0.000000
# 4 0.000000 0.000000 0.000000 0.041232 0.000000 0.000000
# 5 0.000000 0.000000 0.000000 0.000000 0.159981 0.000000
# 6 0.000000 0.000000 0.000000 0.000000 0.000000 0.031788
#
#
# Mechanical properties :
#
#
# Convention : Reuss Voigt Hill
#
# Bulk Modulus (GPa) = 59.60464 66.85055 63.22759
# Shear Modulus (GPa) = 16.78190 26.28202 21.53196
#
# Velocity S-wave (km/s) = 2.87052 3.59227 3.25148
# Velocity P-wave (km/s) = 6.34446 7.07314 6.71869
#
# Compressibility (1/GPa) = 0.01677722
#
# Stress axis : x y z
#
# Youngs Moduli (GPa) = 62.29992 87.01727 95.07271
#
# Poissons Ratio (x) = 0.58795 0.00042
# Poissons Ratio (y) = 0.42094 0.36899
# Poissons Ratio (z) = 0.00028 0.33772
#
# Static dielectric constant tensor:
#      x y z
#    x 3.417020 0.000000 0.000000 
#    y 0.000000 4.170760 0.000000 
#    z 0.000000 0.000000 3.722890 
# 
# 
# High freq. dielectric constant tensor:
#      x y z
#    x 1.769610 0.000000 0.000000 
#    y 0.000000 1.805540 0.000000 
#    z 0.000000 0.000000 1.781710 
# 
# From -- ./inp_files/38715.got.cif
#   From: 2010.03.12/outbox.cif.g09.slc.cpg/sg66_20_cif.got.tgz:38715.got - 2010.04.10 21:57:39.
