data_PCOD8276086
_publ_section_title
;
Structure prediction by ZEFSAII (Michael W. Deem and Ramdas Pophale) SiO2 
 PCOD8276086
Probable space group: C C C M
;
_chemical_formula_sum "Si O2"
_cell_formula_units_Z 104
_cell_length_a 20.533006
_cell_length_b 28.221933
_cell_length_c 9.330303
_cell_angle_alpha 90.000000
_cell_angle_beta 90.000000
_cell_angle_gamma 90.000000
_cell_volume 5406.734429
_symmetry_space_group_name_H-M "C C C M"
_symmetry_group_IT_number 66
_symmetry_cell_setting 'orthorhombic'
loop_
_space_group_symop_operation_xyz
x,y,z
-x,-y,z
x,-y,1/2-z
-x,y,1/2-z
-x,-y,-z
x,y,-z
-x,y,1/2+z
x,-y,1/2+z
1/2+x,1/2+y,z
1/2-x,1/2-y,z
1/2+x,1/2-y,1/2-z
1/2-x,1/2+y,1/2-z
1/2-x,1/2-y,-z
1/2+x,1/2+y,-z
1/2-x,1/2+y,1/2+z
1/2+x,1/2-y,1/2+z
loop_
_atom_site_type_symbol
_atom_site_label
_atom_site_fract_x
_atom_site_fract_y
_atom_site_fract_z
Si Si1 0.394941 0.815558 0.160368
Si Si2 0.336230 0.368318 0.336097
Si Si3 0.934945 0.046972 0.168686
Si Si4 0.608120 0.046302 0.658529
Si Si5 0.063479 0.787997 0.167280
Si Si6 0.000000 0.386339 0.250000
Si Si7 0.204051 0.625904 0.329968
O O1 0.419957 0.765106 0.217411
O O2 0.454152 0.852992 0.153817
O O3 0.337105 0.830834 0.265213
O O4 0.366623 0.810504 0.000000
O O5 0.311547 0.365475 0.500000
O O6 0.380600 0.413774 0.312293
O O7 0.375850 0.321371 0.293895
O O8 0.276215 0.373065 0.229895
O O9 0.000000 0.064401 0.250000
O O10 0.909626 0.000000 0.250000
O O11 0.948989 0.037272 0.000000
O O12 0.622590 0.027879 0.500000
O O13 0.544831 0.080049 0.652292
O O14 0.669984 0.076290 0.715953
O O15 0.595121 0.000000 0.750000
O O16 0.000000 0.806375 0.250000
O O17 0.047187 0.790784 0.000000
O O18 0.204714 0.631790 0.500000
#
# Coordination Sequence:
#
# PCOD8276086 Si02
#       7
#    16  16  16  16  16   8  16
#     4  10  20  36  59  83 112 150 188 229 278 333
#     4  10  22  39  58  82 114 149 187 230 283 339
#     4  10  20  35  57  84 112 145 183 229 280 337
#     4  10  22  37  55  82 113 145 187 235 280 335
#     4  10  21  37  59  88 116 147 186 231 282 336
#     4  10  19  34  58  86 114 148 189 228 282 332
#     4  10  23  40  57  79 110 149 192 235 280 335
#
# _framework density 19.23527
#
# number of rings (size 3 to 8) (size 9 to 14) (size 15 to 20)
#    0.000    2.000    0.769    2.538    0.000    8.615 
#    0.000    6.154    0.000    0.000    0.000    0.000 
#    0.000    0.000    0.000    0.000    0.000    0.000 
#
# Total GULP energy -644806.865809 kJ/mol
# GULP energy per Si atom -12400.132035 kJ/mol
# Density = 1.919149 g / cm^3
# Si number density = 19.235270 Si / 1000 Ang^3
#
#
#
# Elastic Constant Matrix: (Units=GPa)
#
#
# Indices 1 2 3 4 5 6 
#
# 1 121.0267 64.7406 53.6058 0.0000 0.0000 0.0000
# 2 64.7406 108.1109 41.9307 0.0000 0.0000 0.0000
# 3 53.6058 41.9307 91.2030 0.0000 0.0000 0.0000
# 4 0.0000 0.0000 0.0000 24.1445 0.0000 0.0000
# 5 0.0000 0.0000 0.0000 0.0000 34.8041 0.0000
# 6 0.0000 0.0000 0.0000 0.0000 0.0000 21.3779
#
#
#
# Elastic Compliance Matrix: (Units=1/GPa)
#
#
# Indices 1 2 3 4 5 6 
#
# 1 0.014001 -0.006320 -0.005324 0.000000 0.000000 0.000000
# 2 -0.006320 0.014109 -0.002772 0.000000 0.000000 0.000000
# 3 -0.005324 -0.002772 0.015368 0.000000 0.000000 0.000000
# 4 0.000000 0.000000 0.000000 0.041417 0.000000 0.000000
# 5 0.000000 0.000000 0.000000 0.000000 0.028732 0.000000
# 6 0.000000 0.000000 0.000000 0.000000 0.000000 0.046777
#
#
# Mechanical properties :
#
#
# Convention : Reuss Voigt Hill
#
# Bulk Modulus (GPa) = 68.27264 71.21053 69.74159
# Shear Modulus (GPa) = 25.75720 26.73619 26.24670
#
# Velocity S-wave (km/s) = 3.66329 3.73226 3.69793
# Velocity P-wave (km/s) = 7.31187 7.46151 7.38707
#
# Compressibility (1/GPa) = 0.01464716
#
# Stress axis : x y z
#
# Youngs Moduli (GPa) = 71.42194 70.87468 65.06834
#
# Poissons Ratio (x) = 0.44790 0.34643
# Poissons Ratio (y) = 0.45135 0.18040
# Poissons Ratio (z) = 0.38025 0.19649
#
# Static dielectric constant tensor:
#      x y z
#    x 3.445700 0.000000 0.000000 
#    y 0.000000 3.641590 0.000000 
#    z 0.000000 0.000000 3.387720 
# 
# 
# High freq. dielectric constant tensor:
#      x y z
#    x 1.744940 0.000000 0.000000 
#    y 0.000000 1.756840 0.000000 
#    z 0.000000 0.000000 1.748910 
# 
# From -- ./inp_files/8321.got.cif
#   From: 2010.03.12/outbox.cif.g09.slc.cpg/sg66_5_cif.got.tgz:8321.got - 2010.04.10 21:57:39.
