data_PCOD8276555
_publ_section_title
;
Structure prediction by ZEFSAII (Michael W. Deem and Ramdas Pophale) SiO2 
 PCOD8276555
Probable space group: C C C M
;
_chemical_formula_sum "Si O2"
_cell_formula_units_Z 96
_cell_length_a 25.259547
_cell_length_b 23.418865
_cell_length_c 8.637857
_cell_angle_alpha 90.000000
_cell_angle_beta 90.000000
_cell_angle_gamma 90.000000
_cell_volume 5109.723627
_symmetry_space_group_name_H-M "C C C M"
_symmetry_group_IT_number 66
_symmetry_cell_setting 'orthorhombic'
loop_
_space_group_symop_operation_xyz
x,y,z
-x,-y,z
x,-y,1/2-z
-x,y,1/2-z
-x,-y,-z
x,y,-z
-x,y,1/2+z
x,-y,1/2+z
1/2+x,1/2+y,z
1/2-x,1/2-y,z
1/2+x,1/2-y,1/2-z
1/2-x,1/2+y,1/2-z
1/2-x,1/2-y,-z
1/2+x,1/2+y,-z
1/2-x,1/2+y,1/2+z
1/2+x,1/2-y,1/2+z
loop_
_atom_site_type_symbol
_atom_site_label
_atom_site_fract_x
_atom_site_fract_y
_atom_site_fract_z
Si Si1 0.057123 0.939902 0.817386
Si Si2 0.249501 0.562062 0.317635
Si Si3 0.056221 0.439359 0.818062
Si Si4 0.188856 0.245057 0.681219
Si Si5 0.851333 0.130328 0.682188
Si Si6 0.653160 0.860146 0.817757
O O1 0.096227 0.889148 0.770975
O O2 0.000000 0.924587 0.750000
O O3 0.078237 0.000000 0.750000
O O4 0.053042 0.945435 0.000000
O O5 0.243382 0.500000 0.250000
O O6 0.249109 0.557463 0.500000
O O7 0.303339 0.590882 0.258006
O O8 0.200604 0.599766 0.259388
O O9 0.074937 0.500000 0.750000
O O10 0.098257 0.390716 0.774521
O O11 0.000000 0.420008 0.750000
O O12 0.050991 0.447112 0.000000
O O13 0.184669 0.231916 0.500000
O O14 0.250000 0.250000 0.734058
O O15 0.160990 0.195317 0.777141
O O16 0.156647 0.301926 0.722327
O O17 0.860331 0.124256 0.500000
O O18 0.657686 0.847238 0.000000
#
# Coordination Sequence:
#
# PCOD8276555 Si02
#       6
#    16  16  16  16  16  16
#     4  11  22  39  62  89 121 155 196 240 289 347
#     4  10  21  34  53  81 113 146 183 229 285 343
#     4  10  20  35  58  84 115 150 190 233 284 339
#     4  11  23  38  58  85 114 151 194 241 291 345
#     4  11  22  38  60  84 115 155 194 238 290 346
#     4  10  21  38  57  81 111 151 193 234 285 347
#
# _framework density 18.787709
#
# number of rings (size 3 to 8) (size 9 to 14) (size 15 to 20)
#    0.000    1.500    1.667    5.000    0.000    5.333 
#    0.000    0.833    0.000    2.000    0.000    0.000 
#    0.000    0.000    0.000    0.000    0.000    0.000 
#
# Total GULP energy -595465.838515 kJ/mol
# GULP energy per Si atom -12405.538302 kJ/mol
# Density = 1.874495 g / cm^3
# Si number density = 18.787709 Si / 1000 Ang^3
#
#
#
# Elastic Constant Matrix: (Units=GPa)
#
#
# Indices 1 2 3 4 5 6 
#
# 1 112.7329 52.2768 43.5682 0.0000 0.0000 0.0000
# 2 52.2768 103.7890 30.4630 0.0000 0.0000 0.0000
# 3 43.5682 30.4630 84.0091 0.0000 0.0000 0.0000
# 4 0.0000 0.0000 0.0000 36.3505 0.0000 0.0000
# 5 0.0000 0.0000 0.0000 0.0000 25.7430 0.0000
# 6 0.0000 0.0000 0.0000 0.0000 0.0000 32.5764
#
#
#
# Elastic Compliance Matrix: (Units=1/GPa)
#
#
# Indices 1 2 3 4 5 6 
#
# 1 0.013194 -0.005190 -0.004961 0.000000 0.000000 0.000000
# 2 -0.005190 0.012824 -0.001959 0.000000 0.000000 0.000000
# 3 -0.004961 -0.001959 0.015187 0.000000 0.000000 0.000000
# 4 0.000000 0.000000 0.000000 0.027510 0.000000 0.000000
# 5 0.000000 0.000000 0.000000 0.000000 0.038846 0.000000
# 6 0.000000 0.000000 0.000000 0.000000 0.000000 0.030697
#
#
# Mechanical properties :
#
#
# Convention : Reuss Voigt Hill
#
# Bulk Modulus (GPa) = 58.87160 61.46078 60.16619
# Shear Modulus (GPa) = 29.73751 30.54883 30.14317
#
# Velocity S-wave (km/s) = 3.98278 4.03674 4.00985
# Velocity P-wave (km/s) = 7.24936 7.38318 7.31658
#
# Compressibility (1/GPa) = 0.01698612
#
# Stress axis : x y z
#
# Youngs Moduli (GPa) = 75.78991 77.98007 65.84794
#
# Poissons Ratio (x) = 0.40469 0.32667
# Poissons Ratio (y) = 0.39333 0.12897
# Poissons Ratio (z) = 0.37599 0.15274
#
# Static dielectric constant tensor:
#      x y z
#    x 3.588950 0.000000 0.000000 
#    y 0.000000 3.341850 0.000000 
#    z 0.000000 0.000000 3.445050 
# 
# 
# High freq. dielectric constant tensor:
#      x y z
#    x 1.733300 0.000000 0.000000 
#    y 0.000000 1.730500 0.000000 
#    z 0.000000 0.000000 1.736710 
# 
# From -- ./inp_files/10270.got.cif
#   From: 2010.03.12/outbox.cif.g09.slc.cpg/sg66_6_cif.got.tgz:10270.got - 2010.04.10 21:57:39.
