data_PCOD8276586
_publ_section_title
;
Structure prediction by ZEFSAII (Michael W. Deem and Ramdas Pophale) SiO2 
 PCOD8276586
Probable space group: C C C M
;
_chemical_formula_sum "Si O2"
_cell_formula_units_Z 116
_cell_length_a 24.948786
_cell_length_b 28.200452
_cell_length_c 8.764953
_cell_angle_alpha 90.000000
_cell_angle_beta 90.000000
_cell_angle_gamma 90.000000
_cell_volume 6166.732056
_symmetry_space_group_name_H-M "C C C M"
_symmetry_group_IT_number 66
_symmetry_cell_setting 'orthorhombic'
loop_
_space_group_symop_operation_xyz
x,y,z
-x,-y,z
x,-y,1/2-z
-x,y,1/2-z
-x,-y,-z
x,y,-z
-x,y,1/2+z
x,-y,1/2+z
1/2+x,1/2+y,z
1/2-x,1/2-y,z
1/2+x,1/2-y,1/2-z
1/2-x,1/2+y,1/2-z
1/2-x,1/2-y,-z
1/2+x,1/2+y,-z
1/2-x,1/2+y,1/2+z
1/2+x,1/2-y,1/2+z
loop_
_atom_site_type_symbol
_atom_site_label
_atom_site_fract_x
_atom_site_fract_y
_atom_site_fract_z
Si Si1 0.674499 0.878722 0.819219
Si Si2 0.281566 0.606498 0.182151
Si Si3 0.500000 0.000000 0.750000
Si Si4 0.154614 0.187980 0.179800
Si Si5 0.118447 0.952185 0.171463
Si Si6 0.604739 0.954038 0.330258
Si Si7 0.194760 0.724454 0.819175
Si Si8 0.556189 0.360894 0.175632
O O1 0.726067 0.908907 0.761860
O O2 0.620953 0.906131 0.761064
O O3 0.681812 0.826774 0.749262
O O4 0.672039 0.875408 0.000000
O O5 0.297348 0.659617 0.235360
O O6 0.327616 0.570877 0.242356
O O7 0.276102 0.607216 0.000000
O O8 0.460018 0.036082 0.659337
O O9 0.150250 0.240841 0.247833
O O10 0.098021 0.165228 0.217542
O O11 0.165543 0.187834 0.000000
O O12 0.068270 0.916861 0.183259
O O13 0.100531 0.000000 0.250000
O O14 0.132698 0.964948 0.000000
O O15 0.627649 0.948861 0.500000
O O16 0.632040 0.000000 0.250000
O O17 0.250000 0.750000 0.767127
O O18 0.190424 0.720453 0.000000
O O19 0.500000 0.349493 0.250000
O O20 0.559336 0.343278 0.000000
#
# Coordination Sequence:
#
# PCOD8276586 Si02
#       8
#    16  16   4  16  16  16  16  16
#     4  12  24  36  57  91 124 155 199 246 291 350
#     4  10  20  36  53  76 113 155 193 235 288 347
#     4   8  22  40  74  92 118 156 210 244 308 364
#     4  11  21  35  58  85 113 149 193 237 289 353
#     4   9  20  35  53  76 107 145 186 233 288 344
#     4  10  21  39  64  91 120 155 197 245 299 357
#     4  11  22  37  60  86 120 161 196 238 293 348
#     4  10  21  38  58  81 108 144 191 240 291 347
#
# _framework density 18.810611000000002
#
# number of rings (size 3 to 8) (size 9 to 14) (size 15 to 20)
#    0.414    1.241    1.379    5.172    0.000    4.690 
#    0.000    2.759    1.517    0.000    0.000    0.000 
#    0.000    0.000    0.000    0.000    0.000    0.000 
#
# Total GULP energy -718812.805246 kJ/mol
# GULP energy per Si atom -12393.324228 kJ/mol
# Density = 1.876780 g / cm^3
# Si number density = 18.810611 Si / 1000 Ang^3
#
#
#
# Elastic Constant Matrix: (Units=GPa)
#
#
# Indices 1 2 3 4 5 6 
#
# 1 78.8438 29.0124 27.2663 0.0000 0.0000 0.0000
# 2 29.0124 99.4048 45.5582 0.0000 0.0000 0.0000
# 3 27.2663 45.5582 125.3300 0.0000 0.0000 0.0000
# 4 0.0000 0.0000 0.0000 32.1601 0.0000 0.0000
# 5 0.0000 0.0000 0.0000 0.0000 2.1026 0.0000
# 6 0.0000 0.0000 0.0000 0.0000 0.0000 12.9194
#
#
#
# Elastic Compliance Matrix: (Units=1/GPa)
#
#
# Indices 1 2 3 4 5 6 
#
# 1 0.014597 -0.003366 -0.001952 0.000000 0.000000 0.000000
# 2 -0.003366 0.012847 -0.003938 0.000000 0.000000 0.000000
# 3 -0.001952 -0.003938 0.009835 0.000000 0.000000 0.000000
# 4 0.000000 0.000000 0.000000 0.031094 0.000000 0.000000
# 5 0.000000 0.000000 0.000000 0.000000 0.475610 0.000000
# 6 0.000000 0.000000 0.000000 0.000000 0.000000 0.077403
#
#
# Mechanical properties :
#
#
# Convention : Reuss Voigt Hill
#
# Bulk Modulus (GPa) = 53.28282 56.36137 54.82209
# Shear Modulus (GPa) = 7.73811 22.88585 15.31198
#
# Velocity S-wave (km/s) = 2.03042 3.49183 2.85618
# Velocity P-wave (km/s) = 5.82102 6.80329 6.33123
#
# Compressibility (1/GPa) = 0.01876778
#
# Stress axis : x y z
#
# Youngs Moduli (GPa) = 68.50789 77.84020 101.67722
#
# Poissons Ratio (x) = 0.26197 0.19850
# Poissons Ratio (y) = 0.23056 0.40038
# Poissons Ratio (z) = 0.13374 0.30651
#
# Static dielectric constant tensor:
#      x y z
#    x 3.365560 0.000000 0.000000 
#    y 0.000000 3.513820 0.000000 
#    z 0.000000 0.000000 3.433600 
# 
# 
# High freq. dielectric constant tensor:
#      x y z
#    x 1.714100 0.000000 0.000000 
#    y 0.000000 1.723760 0.000000 
#    z 0.000000 0.000000 1.741170 
# 
# From -- ./inp_files/10622.got.cif
#   From: 2010.03.12/outbox.cif.g09.slc.cpg/sg66_6_cif.got.tgz:10622.got - 2010.04.10 21:57:39.
