data_PCOD8276573
_publ_section_title
;
Structure prediction by ZEFSAII (Michael W. Deem and Ramdas Pophale) SiO2 
 PCOD8276573
Probable space group: C C C M
;
_chemical_formula_sum "Si O2"
_cell_formula_units_Z 116
_cell_length_a 22.450046
_cell_length_b 25.936584
_cell_length_c 9.502030
_cell_angle_alpha 90.000000
_cell_angle_beta 90.000000
_cell_angle_gamma 90.000000
_cell_volume 5532.818310
_symmetry_space_group_name_H-M "C C C M"
_symmetry_group_IT_number 66
_symmetry_cell_setting 'orthorhombic'
loop_
_space_group_symop_operation_xyz
x,y,z
-x,-y,z
x,-y,1/2-z
-x,y,1/2-z
-x,-y,-z
x,y,-z
-x,y,1/2+z
x,-y,1/2+z
1/2+x,1/2+y,z
1/2-x,1/2-y,z
1/2+x,1/2-y,1/2-z
1/2-x,1/2+y,1/2-z
1/2-x,1/2-y,-z
1/2+x,1/2+y,-z
1/2-x,1/2+y,1/2+z
1/2+x,1/2-y,1/2+z
loop_
_atom_site_type_symbol
_atom_site_label
_atom_site_fract_x
_atom_site_fract_y
_atom_site_fract_z
Si Si1 0.274607 0.911909 0.339676
Si Si2 0.000000 0.500000 0.250000
Si Si3 0.945990 0.882963 0.343706
Si Si4 0.165514 0.049049 0.333852
Si Si5 0.057391 0.682410 0.833510
Si Si6 0.909393 0.584283 0.157711
Si Si7 0.773690 0.803425 0.161528
Si Si8 0.119606 0.785581 0.842683
O O1 0.254423 0.924726 0.500000
O O2 0.230453 0.937743 0.228884
O O3 0.341337 0.933155 0.312274
O O4 0.273105 0.849848 0.316237
O O5 0.955516 0.536430 0.160777
O O6 0.962635 0.900876 0.500000
O O7 0.882319 0.906789 0.300785
O O8 0.939935 0.820743 0.333818
O O9 0.000000 0.903389 0.250000
O O10 0.172988 0.038500 0.500000
O O11 0.140858 0.000000 0.250000
O O12 0.075480 0.626711 0.774449
O O13 0.106712 0.726128 0.802737
O O14 0.000000 0.701742 0.750000
O O15 0.044628 0.677123 0.000000
O O16 0.913070 0.608078 0.000000
O O17 0.750000 0.750000 0.226689
O O18 0.834722 0.814240 0.240947
O O19 0.790222 0.795590 0.000000
O O20 0.146027 0.787950 0.000000
#
# Coordination Sequence:
#
# PCOD8276573 Si02
#       8
#    16   4  16  16  16  16  16  16
#     4  10  22  41  65  96 130 169 215 266 326 393
#     4  12  26  44  72 102 130 168 224 276 332 384
#     4  10  22  40  63  92 128 168 213 262 317 377
#     4  11  24  43  66  93 128 168 215 271 325 388
#     4  11  23  39  62  91 127 169 215 265 323 390
#     4  11  25  45  68  94 130 168 213 273 331 394
#     4  10  20  35  59  92 129 168 210 257 317 384
#     4  10  21  38  59  90 129 168 213 262 315 380
#
# _framework density 20.965806000000001
#
# number of rings (size 3 to 8) (size 9 to 14) (size 15 to 20)
#    0.000    1.517    2.069    2.276    0.966    5.517 
#    0.000    1.379    0.000    0.000    0.000    0.000 
#    0.000    0.000    0.000    0.000    0.000    0.000 
#
# Total GULP energy -718960.706343 kJ/mol
# GULP energy per Si atom -12395.874247 kJ/mol
# Density = 2.091809 g / cm^3
# Si number density = 20.965806 Si / 1000 Ang^3
#
#
#
# Elastic Constant Matrix: (Units=GPa)
#
#
# Indices 1 2 3 4 5 6 
#
# 1 127.3058 38.1735 59.4306 0.0000 0.0000 0.0000
# 2 38.1735 100.2678 44.9489 0.0000 0.0000 0.0000
# 3 59.4306 44.9489 109.5304 0.0000 0.0000 0.0000
# 4 0.0000 0.0000 0.0000 12.9177 0.0000 0.0000
# 5 0.0000 0.0000 0.0000 0.0000 35.6843 0.0000
# 6 0.0000 0.0000 0.0000 0.0000 0.0000 30.0915
#
#
#
# Elastic Compliance Matrix: (Units=1/GPa)
#
#
# Indices 1 2 3 4 5 6 
#
# 1 0.010783 -0.001817 -0.005105 0.000000 0.000000 0.000000
# 2 -0.001817 0.012528 -0.004155 0.000000 0.000000 0.000000
# 3 -0.005105 -0.004155 0.013605 0.000000 0.000000 0.000000
# 4 0.000000 0.000000 0.000000 0.077413 0.000000 0.000000
# 5 0.000000 0.000000 0.000000 0.000000 0.028024 0.000000
# 6 0.000000 0.000000 0.000000 0.000000 0.000000 0.033232
#
#
# Mechanical properties :
#
#
# Convention : Reuss Voigt Hill
#
# Bulk Modulus (GPa) = 67.74434 69.13443 68.43939
# Shear Modulus (GPa) = 24.67181 28.70876 26.69028
#
# Velocity S-wave (km/s) = 3.43412 3.70444 3.57184
# Velocity P-wave (km/s) = 6.93586 7.16544 7.05159
#
# Compressibility (1/GPa) = 0.01476138
#
# Stress axis : x y z
#
# Youngs Moduli (GPa) = 92.73681 79.82287 73.50057
#
# Poissons Ratio (x) = 0.14501 0.37525
# Poissons Ratio (y) = 0.16847 0.30542
# Poissons Ratio (z) = 0.47346 0.33170
#
# Static dielectric constant tensor:
#      x y z
#    x 3.677120 0.000000 0.000000 
#    y 0.000000 3.871340 0.000000 
#    z 0.000000 0.000000 3.734030 
# 
# 
# High freq. dielectric constant tensor:
#      x y z
#    x 1.815920 0.000000 0.000000 
#    y 0.000000 1.825320 0.000000 
#    z 0.000000 0.000000 1.822020 
# 
# From -- ./inp_files/9467.got.cif
#   From: 2010.03.12/outbox.cif.g09.slc.cpg/sg66_5_cif.got.tgz:9467.got - 2010.04.10 21:57:39.
