data_PCOD8276157
_publ_section_title
;
Structure prediction by ZEFSAII (Michael W. Deem and Ramdas Pophale) SiO2 
 PCOD8276157
Probable space group: C C C M
;
_chemical_formula_sum "Si O2"
_cell_formula_units_Z 112
_cell_length_a 13.965470
_cell_length_b 12.690330
_cell_length_c 31.101664
_cell_angle_alpha 90.000000
_cell_angle_beta 90.000000
_cell_angle_gamma 90.000000
_cell_volume 5512.036657
_symmetry_space_group_name_H-M "C C C M"
_symmetry_group_IT_number 66
_symmetry_cell_setting 'orthorhombic'
loop_
_space_group_symop_operation_xyz
x,y,z
-x,-y,z
x,-y,1/2-z
-x,y,1/2-z
-x,-y,-z
x,y,-z
-x,y,1/2+z
x,-y,1/2+z
1/2+x,1/2+y,z
1/2-x,1/2-y,z
1/2+x,1/2-y,1/2-z
1/2-x,1/2+y,1/2-z
1/2-x,1/2-y,-z
1/2+x,1/2+y,-z
1/2-x,1/2+y,1/2+z
1/2+x,1/2-y,1/2+z
loop_
_atom_site_type_symbol
_atom_site_label
_atom_site_fract_x
_atom_site_fract_y
_atom_site_fract_z
Si Si1 0.918882 0.579763 0.576946
Si Si2 0.070528 0.409850 0.678094
Si Si3 0.526203 0.324713 0.202209
Si Si4 0.932897 0.099064 0.619642
Si Si5 0.773138 0.134580 0.176384
Si Si6 0.209619 0.946663 0.912799
Si Si7 0.449399 0.691626 0.047862
O O1 0.939687 0.602288 0.627018
O O2 0.814427 0.527926 0.568120
O O3 0.914909 0.688337 0.550861
O O4 0.000000 0.500000 0.558930
O O5 0.043305 0.299777 0.699812
O O6 0.182104 0.438932 0.690083
O O7 0.000000 0.500000 0.696239
O O8 0.500000 0.358022 0.250000
O O9 0.442782 0.353204 0.167744
O O10 0.621393 0.396233 0.193306
O O11 0.966392 0.180913 0.583096
O O12 0.826485 0.057724 0.608424
O O13 0.000000 0.000000 0.614642
O O14 0.750000 0.250000 0.194007
O O15 0.779692 0.139353 0.124920
O O16 0.137067 0.892896 0.946418
O O17 0.490313 0.671466 0.000000
#
# Coordination Sequence:
#
# PCOD8276157 Si02
#       7
#    16  16  16  16  16  16  16
#     4  10  20  37  63  86 114 159 198 238 296 347
#     4   9  18  35  64  83 114 159 202 240 289 349
#     4  11  20  34  62  85 117 156 194 245 298 356
#     4  10  20  37  57  85 121 152 194 240 298 349
#     4   9  16  33  59  82 114 152 195 238 294 339
#     4  10  19  35  61  86 114 155 196 244 284 343
#     4  11  21  36  61  90 119 152 195 245 292 349
#
# _framework density 20.319168999999999
#
# number of rings (size 3 to 8) (size 9 to 14) (size 15 to 20)
#    0.000    2.000    4.286    2.143    0.000    4.571 
#    0.000    0.714   37.714    0.857    0.000    0.000 
#    0.000    0.000    0.000    0.000    0.000    0.000 
#
# Total GULP energy -693831.442586 kJ/mol
# GULP energy per Si atom -12389.847189 kJ/mol
# Density = 2.027292 g / cm^3
# Si number density = 20.319169 Si / 1000 Ang^3
#
#
#
# Elastic Constant Matrix: (Units=GPa)
#
#
# Indices 1 2 3 4 5 6 
#
# 1 114.8046 54.7111 34.3728 0.0000 0.0000 0.0000
# 2 54.7111 67.6753 26.8713 0.0000 0.0000 0.0000
# 3 34.3728 26.8713 105.5201 0.0000 0.0000 0.0000
# 4 0.0000 0.0000 0.0000 10.0054 0.0000 0.0000
# 5 0.0000 0.0000 0.0000 0.0000 13.3016 0.0000
# 6 0.0000 0.0000 0.0000 0.0000 0.0000 32.1752
#
#
#
# Elastic Compliance Matrix: (Units=1/GPa)
#
#
# Indices 1 2 3 4 5 6 
#
# 1 0.014516 -0.010967 -0.001936 0.000000 0.000000 0.000000
# 2 -0.010967 0.024724 -0.002724 0.000000 0.000000 0.000000
# 3 -0.001936 -0.002724 0.010801 0.000000 0.000000 0.000000
# 4 0.000000 0.000000 0.000000 0.099946 0.000000 0.000000
# 5 0.000000 0.000000 0.000000 0.000000 0.075179 0.000000
# 6 0.000000 0.000000 0.000000 0.000000 0.000000 0.031080
#
#
# Mechanical properties :
#
#
# Convention : Reuss Voigt Hill
#
# Bulk Modulus (GPa) = 53.22398 57.76781 55.49589
# Shear Modulus (GPa) = 17.02056 22.56608 19.79332
#
# Velocity S-wave (km/s) = 2.89738 3.33615 3.12448
# Velocity P-wave (km/s) = 6.11914 6.58269 6.35514
#
# Compressibility (1/GPa) = 0.01878852
#
# Stress axis : x y z
#
# Youngs Moduli (GPa) = 68.88725 40.44651 92.58340
#
# Poissons Ratio (x) = 0.44358 0.17923
# Poissons Ratio (y) = 0.75548 0.25216
# Poissons Ratio (z) = 0.13336 0.11016
#
# Static dielectric constant tensor:
#      x y z
#    x 4.225430 0.000000 0.000000 
#    y 0.000000 3.646090 0.000000 
#    z 0.000000 0.000000 3.446780 
# 
# 
# High freq. dielectric constant tensor:
#      x y z
#    x 1.788530 0.000000 0.000000 
#    y 0.000000 1.771740 0.000000 
#    z 0.000000 0.000000 1.771960 
# 
# From -- ./inp_files/69545.got.cif
#   From: 2010.03.12/outbox.cif.g09.slc.cpg/sg66_35_cif.got.tgz:69545.got - 2010.04.10 21:57:39.
