data_PCOD8276289
_publ_section_title
;
Structure prediction by ZEFSAII (Michael W. Deem and Ramdas Pophale) SiO2 
 PCOD8276289
Probable space group: C C C M
;
_chemical_formula_sum "Si O2"
_cell_formula_units_Z 80
_cell_length_a 17.801715
_cell_length_b 27.472519
_cell_length_c 9.105735
_cell_angle_alpha 90.000000
_cell_angle_beta 90.000000
_cell_angle_gamma 90.000000
_cell_volume 4453.232125
_symmetry_space_group_name_H-M "C C C M"
_symmetry_group_IT_number 66
_symmetry_cell_setting 'orthorhombic'
loop_
_space_group_symop_operation_xyz
x,y,z
-x,-y,z
x,-y,1/2-z
-x,y,1/2-z
-x,-y,-z
x,y,-z
-x,y,1/2+z
x,-y,1/2+z
1/2+x,1/2+y,z
1/2-x,1/2-y,z
1/2+x,1/2-y,1/2-z
1/2-x,1/2+y,1/2-z
1/2-x,1/2-y,-z
1/2+x,1/2+y,-z
1/2-x,1/2+y,1/2+z
1/2+x,1/2-y,1/2+z
loop_
_atom_site_type_symbol
_atom_site_label
_atom_site_fract_x
_atom_site_fract_y
_atom_site_fract_z
Si Si1 0.072549 0.591565 0.827994
Si Si2 0.629128 0.816612 0.169797
Si Si3 0.767942 0.450577 0.827529
Si Si4 0.711145 0.358934 0.669556
Si Si5 0.422549 0.710442 0.327114
O O1 0.082162 0.646112 0.768025
O O2 0.145124 0.559555 0.787794
O O3 0.000000 0.567437 0.750000
O O4 0.058336 0.593873 0.000000
O O5 0.717811 0.823718 0.195012
O O6 0.607338 0.762981 0.224133
O O7 0.607818 0.825258 0.000000
O O8 0.742345 0.500000 0.750000
O O9 0.716324 0.407159 0.767697
O O10 0.755233 0.455299 0.000000
O O11 0.706220 0.374840 0.500000
O O12 0.637848 0.329842 0.721093
O O13 0.500000 0.696997 0.250000
O O14 0.434726 0.709842 0.500000
#
# Coordination Sequence:
#
# PCOD8276289 Si02
#       5
#    16  16  16  16  16
#     4  10  20  32  47  71 103 136 169 204 243 288
#     4   9  17  31  51  73 100 136 174 206 238 283
#     4  10  21  36  54  75  97 125 164 208 254 301
#     4   9  18  34  54  74  99 132 169 207 246 291
#     4  10  20  32  49  75 105 136 168 203 245 292
#
# _framework density 17.964479999999998
#
# number of rings (size 3 to 8) (size 9 to 14) (size 15 to 20)
#    0.000    2.400    0.000    2.400    0.000    8.400 
#    0.000    2.000    0.000    6.600    0.000    4.200 
#    0.000    0.000    0.000    0.000    0.000    0.000 
#
# Total GULP energy -496130.188896 kJ/mol
# GULP energy per Si atom -12403.254722 kJ/mol
# Density = 1.792359 g / cm^3
# Si number density = 17.964480 Si / 1000 Ang^3
#
#
#
# Elastic Constant Matrix: (Units=GPa)
#
#
# Indices 1 2 3 4 5 6 
#
# 1 79.8693 31.4145 23.8506 0.0000 0.0000 0.0000
# 2 31.4145 94.3744 35.7995 0.0000 0.0000 0.0000
# 3 23.8506 35.7995 55.9001 0.0000 0.0000 0.0000
# 4 0.0000 0.0000 0.0000 26.5546 0.0000 0.0000
# 5 0.0000 0.0000 0.0000 0.0000 30.1968 0.0000
# 6 0.0000 0.0000 0.0000 0.0000 0.0000 12.9876
#
#
#
# Elastic Compliance Matrix: (Units=1/GPa)
#
#
# Indices 1 2 3 4 5 6 
#
# 1 0.015141 -0.003420 -0.004270 0.000000 0.000000 0.000000
# 2 -0.003420 0.014769 -0.007999 0.000000 0.000000 0.000000
# 3 -0.004270 -0.007999 0.024833 0.000000 0.000000 0.000000
# 4 0.000000 0.000000 0.000000 0.037658 0.000000 0.000000
# 5 0.000000 0.000000 0.000000 0.000000 0.033116 0.000000
# 6 0.000000 0.000000 0.000000 0.000000 0.000000 0.076997
#
#
# Mechanical properties :
#
#
# Convention : Reuss Voigt Hill
#
# Bulk Modulus (GPa) = 42.79844 45.80812 44.30328
# Shear Modulus (GPa) = 20.68849 23.21974 21.95411
#
# Velocity S-wave (km/s) = 3.39725 3.59909 3.49963
# Velocity P-wave (km/s) = 6.26611 6.54415 6.40663
#
# Compressibility (1/GPa) = 0.02336534
#
# Stress axis : x y z
#
# Youngs Moduli (GPa) = 66.04703 67.70984 40.26833
#
# Poissons Ratio (x) = 0.23159 0.17193
# Poissons Ratio (y) = 0.22590 0.32211
# Poissons Ratio (z) = 0.28199 0.54161
#
# Static dielectric constant tensor:
#      x y z
#    x 3.289580 0.000000 0.000000 
#    y 0.000000 3.219930 0.000000 
#    z 0.000000 0.000000 3.256870 
# 
# 
# High freq. dielectric constant tensor:
#      x y z
#    x 1.684400 0.000000 0.000000 
#    y 0.000000 1.687760 0.000000 
#    z 0.000000 0.000000 1.695280 
# 
# From -- ./inp_files/6639.got.cif
#   From: 2010.03.12/outbox.cif.g09.slc.cpg/sg66_4_cif.got.tgz:6639.got - 2010.04.10 21:57:39.
