data_PCOD8276006
_publ_section_title
;
Structure prediction by ZEFSAII (Michael W. Deem and Ramdas Pophale) SiO2 
 PCOD8276006
Probable space group: C C C M
;
_chemical_formula_sum "Si O2"
_cell_formula_units_Z 48
_cell_length_a 14.002712
_cell_length_b 7.439542
_cell_length_c 17.930081
_cell_angle_alpha 90.000000
_cell_angle_beta 90.000000
_cell_angle_gamma 90.000000
_cell_volume 1867.844027
_symmetry_space_group_name_H-M "C C C M"
_symmetry_group_IT_number 66
_symmetry_cell_setting 'orthorhombic'
loop_
_space_group_symop_operation_xyz
x,y,z
-x,-y,z
x,-y,1/2-z
-x,y,1/2-z
-x,-y,-z
x,y,-z
-x,y,1/2+z
x,-y,1/2+z
1/2+x,1/2+y,z
1/2-x,1/2-y,z
1/2+x,1/2-y,1/2-z
1/2-x,1/2+y,1/2-z
1/2-x,1/2-y,-z
1/2+x,1/2+y,-z
1/2-x,1/2+y,1/2+z
1/2+x,1/2-y,1/2+z
loop_
_atom_site_type_symbol
_atom_site_label
_atom_site_fract_x
_atom_site_fract_y
_atom_site_fract_z
Si Si1 0.135560 0.580959 0.912319
Si Si2 0.201178 0.940187 0.667197
Si Si3 0.978993 0.744248 0.835989
O O1 0.248388 0.579877 0.890576
O O2 0.082831 0.416620 0.871304
O O3 0.080845 0.758911 0.880121
O O4 0.123450 0.566746 0.000000
O O5 0.250000 0.750000 0.651737
O O6 0.085746 0.925435 0.656103
O O7 0.226480 0.000000 0.750000
O O8 0.000000 0.703510 0.750000
#
# Coordination Sequence:
#
# PCOD8276006 Si02
#       3
#    16  16  16
#     4  10  19  33  58  92 127 162 205 261 322 383
#     4  10  21  37  60  90 123 163 214 264 315 377
#     4  10  19  33  56  85 121 160 207 259 308 367
#
# _framework density 25.698077000000001
#
# number of rings (size 3 to 8) (size 9 to 14) (size 15 to 20)
#    0.000    2.000    0.000    8.000    0.000    8.000 
#    0.000    0.000    0.000   11.000    0.000   39.667 
#    0.000    0.000    0.000    0.000    0.000    0.000 
#
# Total GULP energy -297420.250432 kJ/mol
# GULP energy per Si atom -12392.510435 kJ/mol
# Density = 2.563959 g / cm^3
# Si number density = 25.698077 Si / 1000 Ang^3
#
#
#
# Elastic Constant Matrix: (Units=GPa)
#
#
# Indices 1 2 3 4 5 6 
#
# 1 230.6391 30.4301 106.9195 0.0000 0.0000 0.0000
# 2 30.4301 60.9398 39.7035 0.0000 0.0000 0.0000
# 3 106.9195 39.7035 232.4437 0.0000 0.0000 0.0000
# 4 0.0000 0.0000 0.0000 5.4788 0.0000 0.0000
# 5 0.0000 0.0000 0.0000 0.0000 12.7670 0.0000
# 6 0.0000 0.0000 0.0000 0.0000 0.0000 -26.1997
#
#
#
# Elastic Compliance Matrix: (Units=1/GPa)
#
#
# Indices 1 2 3 4 5 6 
#
# 1 0.005595 -0.001257 -0.002359 0.000000 0.000000 0.000000
# 2 -0.001257 0.018747 -0.002624 0.000000 0.000000 0.000000
# 3 -0.002359 -0.002624 0.005835 0.000000 0.000000 0.000000
# 4 0.000000 0.000000 0.000000 0.182521 0.000000 0.000000
# 5 0.000000 0.000000 0.000000 0.000000 0.078327 0.000000
# 6 0.000000 0.000000 0.000000 0.000000 0.000000 -0.038168
#
#
# Mechanical properties :
#
#
# Convention : Reuss Voigt Hill
#
# Bulk Modulus (GPa) = 56.50482 97.56989 77.03736
# Shear Modulus (GPa) = 18.43407 21.54050 19.98729
#
# Velocity S-wave (km/s) = 2.68121 2.89833 2.79189
# Velocity P-wave (km/s) = 5.62325 7.01788 6.35891
#
# Compressibility (1/GPa) = 0.01769760
#
# Stress axis : x y z
#
# Youngs Moduli (GPa) = 178.72473 53.34222 171.36818
#
# Poissons Ratio (x) = 0.06705 0.40425
# Poissons Ratio (y) = 0.22466 0.44966
# Poissons Ratio (z) = 0.42161 0.13997
#
# Static dielectric constant tensor:
#      x y z
#    x 7.183830 0.000000 0.000000 
#    y 0.000000 5.271840 0.000000 
#    z 0.000000 0.000000 4.186580 
# 
# 
# High freq. dielectric constant tensor:
#      x y z
#    x 2.070290 0.000000 0.000000 
#    y 0.000000 2.038570 0.000000 
#    z 0.000000 0.000000 1.994750 
# 
# From -- ./inp_files/23392.got.cif
#   From: 2010.03.12/outbox.cif.g09.slc.cpg/sg66_12_cif.got.tgz:23392.got - 2010.04.10 21:57:39.
