data_PCOD8276137
_publ_section_title
;
Structure prediction by ZEFSAII (Michael W. Deem and Ramdas Pophale) SiO2 
 PCOD8276137
Probable space group: C C C M
;
_chemical_formula_sum "Si O2"
_cell_formula_units_Z 96
_cell_length_a 11.632066
_cell_length_b 21.973169
_cell_length_c 19.264401
_cell_angle_alpha 90.000000
_cell_angle_beta 90.000000
_cell_angle_gamma 90.000000
_cell_volume 4923.852827
_symmetry_space_group_name_H-M "C C C M"
_symmetry_group_IT_number 66
_symmetry_cell_setting 'orthorhombic'
loop_
_space_group_symop_operation_xyz
x,y,z
-x,-y,z
x,-y,1/2-z
-x,y,1/2-z
-x,-y,-z
x,y,-z
-x,y,1/2+z
x,-y,1/2+z
1/2+x,1/2+y,z
1/2-x,1/2-y,z
1/2+x,1/2-y,1/2-z
1/2-x,1/2+y,1/2-z
1/2-x,1/2-y,-z
1/2+x,1/2+y,-z
1/2-x,1/2+y,1/2+z
1/2+x,1/2-y,1/2+z
loop_
_atom_site_type_symbol
_atom_site_label
_atom_site_fract_x
_atom_site_fract_y
_atom_site_fract_z
Si Si1 0.454689 0.644609 0.420070
Si Si2 0.242089 0.563158 0.420705
Si Si3 0.284884 0.154611 0.320727
Si Si4 0.172766 0.930838 0.921302
Si Si5 0.436448 0.264719 0.678820
Si Si6 0.371914 0.938048 0.720217
O O1 0.469760 0.662376 0.500000
O O2 0.326901 0.619650 0.405842
O O3 0.546427 0.592375 0.398433
O O4 0.476293 0.706757 0.377374
O O5 0.192792 0.566028 0.500000
O O6 0.319211 0.502941 0.410481
O O7 0.138361 0.563674 0.364213
O O8 0.272850 0.103169 0.379175
O O9 0.387509 0.199294 0.345605
O O10 0.167945 0.190045 0.308324
O O11 0.308382 0.121764 0.247693
O O12 0.196183 0.912499 0.000000
O O13 0.500000 0.253431 0.750000
O O14 0.500000 0.936098 0.750000
O O15 0.313475 0.000000 0.750000
#
# Coordination Sequence:
#
# PCOD8276137 Si02
#       6
#    16  16  16  16  16  16
#     4   9  18  32  55  84 116 148 183 234 293 349
#     4  10  19  35  58  83 114 149 186 238 295 349
#     4  10  20  35  54  77 111 151 188 236 289 340
#     4   9  17  31  52  83 115 148 186 227 288 354
#     4  10  20  34  54  80 109 147 194 235 282 347
#     4  11  22  37  55  78 108 147 191 238 286 335
#
# _framework density 19.496926999999999
#
# number of rings (size 3 to 8) (size 9 to 14) (size 15 to 20)
#    0.000    2.167    1.667    2.000    0.000    2.667 
#    0.000    5.833    0.000    3.000    0.000   11.667 
#    0.000    0.000    0.000    0.000    0.000    0.000 
#
# Total GULP energy -594976.906957 kJ/mol
# GULP energy per Si atom -12395.352228 kJ/mol
# Density = 1.945255 g / cm^3
# Si number density = 19.496927 Si / 1000 Ang^3
#
#
#
# Elastic Constant Matrix: (Units=GPa)
#
#
# Indices 1 2 3 4 5 6 
#
# 1 63.3472 25.7219 53.3895 0.0000 0.0000 0.0000
# 2 25.7219 83.5806 30.6339 0.0000 0.0000 0.0000
# 3 53.3895 30.6339 116.2017 0.0000 0.0000 0.0000
# 4 0.0000 0.0000 0.0000 17.5649 0.0000 0.0000
# 5 0.0000 0.0000 0.0000 0.0000 31.0074 0.0000
# 6 0.0000 0.0000 0.0000 0.0000 0.0000 17.3156
#
#
#
# Elastic Compliance Matrix: (Units=1/GPa)
#
#
# Indices 1 2 3 4 5 6 
#
# 1 0.027012 -0.004167 -0.011312 0.000000 0.000000 0.000000
# 2 -0.004167 0.013887 -0.001747 0.000000 0.000000 0.000000
# 3 -0.011312 -0.001747 0.014264 0.000000 0.000000 0.000000
# 4 0.000000 0.000000 0.000000 0.056932 0.000000 0.000000
# 5 0.000000 0.000000 0.000000 0.000000 0.032250 0.000000
# 6 0.000000 0.000000 0.000000 0.000000 0.000000 0.057751
#
#
# Mechanical properties :
#
#
# Convention : Reuss Voigt Hill
#
# Bulk Modulus (GPa) = 48.28260 53.62445 50.95353
# Shear Modulus (GPa) = 20.53797 23.40318 21.97058
#
# Velocity S-wave (km/s) = 3.24913 3.46837 3.36054
# Velocity P-wave (km/s) = 6.23648 6.60327 6.42250
#
# Compressibility (1/GPa) = 0.02071139
#
# Stress axis : x y z
#
# Youngs Moduli (GPa) = 37.02049 72.01002 70.10800
#
# Poissons Ratio (x) = 0.30005 0.79309
# Poissons Ratio (y) = 0.15425 0.12245
# Poissons Ratio (z) = 0.41879 0.12577
#
# Static dielectric constant tensor:
#      x y z
#    x 3.340540 0.000000 0.000000 
#    y 0.000000 3.798450 0.000000 
#    z 0.000000 0.000000 3.567540 
# 
# 
# High freq. dielectric constant tensor:
#      x y z
#    x 1.736980 0.000000 0.000000 
#    y 0.000000 1.763900 0.000000 
#    z 0.000000 0.000000 1.755890 
# 
# From -- ./inp_files/38892.got.cif
#   From: 2010.03.12/outbox.cif.g09.slc.cpg/sg66_20_cif.got.tgz:38892.got - 2010.04.10 21:57:39.
