data_PCOD8276275
_publ_section_title
;
Structure prediction by ZEFSAII (Michael W. Deem and Ramdas Pophale) SiO2 
 PCOD8276275
Probable space group: C C C M
;
_chemical_formula_sum "Si O2"
_cell_formula_units_Z 84
_cell_length_a 28.164774
_cell_length_b 19.241623
_cell_length_c 9.209346
_cell_angle_alpha 90.000000
_cell_angle_beta 90.000000
_cell_angle_gamma 90.000000
_cell_volume 4990.875795
_symmetry_space_group_name_H-M "C C C M"
_symmetry_group_IT_number 66
_symmetry_cell_setting 'orthorhombic'
loop_
_space_group_symop_operation_xyz
x,y,z
-x,-y,z
x,-y,1/2-z
-x,y,1/2-z
-x,-y,-z
x,y,-z
-x,y,1/2+z
x,-y,1/2+z
1/2+x,1/2+y,z
1/2-x,1/2-y,z
1/2+x,1/2-y,1/2-z
1/2-x,1/2+y,1/2-z
1/2-x,1/2-y,-z
1/2+x,1/2+y,-z
1/2-x,1/2+y,1/2+z
1/2+x,1/2-y,1/2+z
loop_
_atom_site_type_symbol
_atom_site_label
_atom_site_fract_x
_atom_site_fract_y
_atom_site_fract_z
Si Si1 0.638137 0.326699 0.666110
Si Si2 0.000000 0.000000 0.250000
Si Si3 0.203136 0.564280 0.160614
Si Si4 0.043686 0.135426 0.336597
Si Si5 0.705271 0.204659 0.665463
Si Si6 0.813347 0.062742 0.160647
O O1 0.631061 0.350939 0.500000
O O2 0.590652 0.341454 0.754071
O O3 0.655880 0.247433 0.672886
O O4 0.680298 0.368880 0.743148
O O5 0.965040 0.948713 0.341667
O O6 0.179862 0.500000 0.250000
O O7 0.195403 0.637133 0.239685
O O8 0.258286 0.548154 0.141457
O O9 0.179712 0.567859 0.000000
O O10 0.045909 0.164114 0.500000
O O11 0.000000 0.171215 0.250000
O O12 0.716632 0.182108 0.500000
O O13 0.750000 0.250000 0.724431
O O14 0.837919 0.000000 0.250000
O O15 0.837136 0.069611 0.000000
#
# Coordination Sequence:
#
# PCOD8276275 Si02
#       6
#    16   4  16  16  16  16
#     4  11  22  34  51  73 100 134 175 218 266 317
#     4   8  22  36  58  72  94 136 176 216 270 312
#     4  10  20  33  51  71  96 132 173 217 259 309
#     4  10  21  36  53  72  98 130 172 217 263 312
#     4  10  20  35  52  72 102 140 175 217 266 315
#     4  10  20  31  44  65  94 128 170 215 258 303
#
# _framework density 16.830714
#
# number of rings (size 3 to 8) (size 9 to 14) (size 15 to 20)
#    0.571    1.333    1.905    2.571    1.333    3.429 
#    0.000    0.000    0.000    0.000    0.000    0.000 
#    0.000    0.762    0.000    8.000    0.000    3.429 
#
# Total GULP energy -520464.791959 kJ/mol
# GULP energy per Si atom -12392.018856 kJ/mol
# Density = 1.679241 g / cm^3
# Si number density = 16.830714 Si / 1000 Ang^3
#
#
#
# Elastic Constant Matrix: (Units=GPa)
#
#
# Indices 1 2 3 4 5 6 
#
# 1 47.9288 15.9761 25.3010 0.0000 0.0000 0.0000
# 2 15.9761 98.3064 61.5077 0.0000 0.0000 0.0000
# 3 25.3010 61.5077 158.3097 0.0000 0.0000 0.0000
# 4 0.0000 0.0000 0.0000 22.9812 0.0000 0.0000
# 5 0.0000 0.0000 0.0000 0.0000 12.8746 0.0000
# 6 0.0000 0.0000 0.0000 0.0000 0.0000 19.8140
#
#
#
# Elastic Compliance Matrix: (Units=1/GPa)
#
#
# Indices 1 2 3 4 5 6 
#
# 1 0.023053 -0.001904 -0.002945 0.000000 0.000000 0.000000
# 2 -0.001904 0.013597 -0.004978 0.000000 0.000000 0.000000
# 3 -0.002945 -0.004978 0.008722 0.000000 0.000000 0.000000
# 4 0.000000 0.000000 0.000000 0.043514 0.000000 0.000000
# 5 0.000000 0.000000 0.000000 0.000000 0.077672 0.000000
# 6 0.000000 0.000000 0.000000 0.000000 0.000000 0.050469
#
#
# Mechanical properties :
#
#
# Convention : Reuss Voigt Hill
#
# Bulk Modulus (GPa) = 38.88416 56.67940 47.78178
# Shear Modulus (GPa) = 20.38707 24.58463 22.48585
#
# Velocity S-wave (km/s) = 3.48415 3.82606 3.65910
# Velocity P-wave (km/s) = 6.27208 7.29846 6.80465
#
# Compressibility (1/GPa) = 0.02571741
#
# Stress axis : x y z
#
# Youngs Moduli (GPa) = 43.37756 73.54819 114.65862
#
# Poissons Ratio (x) = 0.14005 0.33762
# Poissons Ratio (y) = 0.08260 0.57081
# Poissons Ratio (z) = 0.12773 0.36615
#
# Static dielectric constant tensor:
#      x y z
#    x 2.799930 0.000000 0.000000 
#    y 0.000000 2.973070 0.000000 
#    z 0.000000 0.000000 3.508610 
# 
# 
# High freq. dielectric constant tensor:
#      x y z
#    x 1.604180 0.000000 0.000000 
#    y 0.000000 1.626980 0.000000 
#    z 0.000000 0.000000 1.670000 
# 
# From -- ./inp_files/10197.got.cif
#   From: 2010.03.12/outbox.cif.g09.slc.cpg/sg66_6_cif.got.tgz:10197.got - 2010.04.10 21:57:39.
