data_PCOD8276893
_publ_section_title
;
Structure prediction by ZEFSAII (Michael W. Deem and Ramdas Pophale) SiO2 
 PCOD8276893
Probable space group: C C C M
;
_chemical_formula_sum "Si O2"
_cell_formula_units_Z 80
_cell_length_a 12.227364
_cell_length_b 22.952789
_cell_length_c 12.951541
_cell_angle_alpha 90.000000
_cell_angle_beta 90.000000
_cell_angle_gamma 90.000000
_cell_volume 3634.877257
_symmetry_space_group_name_H-M "C C C M"
_symmetry_group_IT_number 66
_symmetry_cell_setting 'orthorhombic'
loop_
_space_group_symop_operation_xyz
x,y,z
-x,-y,z
x,-y,1/2-z
-x,y,1/2-z
-x,-y,-z
x,y,-z
-x,y,1/2+z
x,-y,1/2+z
1/2+x,1/2+y,z
1/2-x,1/2-y,z
1/2+x,1/2-y,1/2-z
1/2-x,1/2+y,1/2-z
1/2-x,1/2-y,-z
1/2+x,1/2+y,-z
1/2-x,1/2+y,1/2+z
1/2+x,1/2-y,1/2+z
loop_
_atom_site_type_symbol
_atom_site_label
_atom_site_fract_x
_atom_site_fract_y
_atom_site_fract_z
Si Si1 0.571858 0.230142 0.615931
Si Si2 0.681856 0.599630 0.376754
Si Si3 0.450116 0.639357 0.622927
Si Si4 0.833384 0.300787 0.182377
Si Si5 0.625177 0.521120 0.114239
O O1 0.614153 0.219252 0.500000
O O2 0.592575 0.296893 0.652374
O O3 0.645803 0.193626 0.694587
O O4 0.445147 0.212746 0.622226
O O5 0.669524 0.593986 0.500000
O O6 0.573645 0.632534 0.331464
O O7 0.789512 0.636169 0.350521
O O8 0.689910 0.532759 0.330353
O O9 0.457147 0.632896 0.500000
O O10 0.371877 0.586293 0.666215
O O11 0.750000 0.250000 0.150655
O O12 0.500000 0.500000 0.110715
O O13 0.673876 0.528465 0.000000
#
# Coordination Sequence:
#
# PCOD8276893 Si02
#       5
#    16  16  16  16  16
#     4  10  21  34  49  73 108 151 194 242 293 343
#     4   9  15  25  46  75 107 142 182 229 281 341
#     4   8  13  25  46  71 102 139 177 222 285 347
#     4  11  21  32  49  74 107 151 200 240 282 351
#     4   7  11  20  39  71 103 132 170 217 273 339
#
# _framework density 22.008997000000001
#
# number of rings (size 3 to 8) (size 9 to 14) (size 15 to 20)
#    0.000    3.000    2.000    3.000    0.000    1.200 
#    0.000    0.000    0.000    1.200    0.000    0.000 
#    0.000   28.000    0.000   48.000    0.000    0.000 
#
# Total GULP energy -495631.290901 kJ/mol
# GULP energy per Si atom -12390.782273 kJ/mol
# Density = 2.195890 g / cm^3
# Si number density = 22.008997 Si / 1000 Ang^3
#
#
#
# Elastic Constant Matrix: (Units=GPa)
#
#
# Indices 1 2 3 4 5 6 
#
# 1 52.8676 45.9588 -9.6186 0.0000 0.0000 0.0000
# 2 45.9588 141.8184 16.3852 0.0000 0.0000 0.0000
# 3 -9.6186 16.3852 44.4612 0.0000 0.0000 0.0000
# 4 0.0000 0.0000 0.0000 -245.9440 0.0000 0.0000
# 5 0.0000 0.0000 0.0000 0.0000 -62.2536 0.0000
# 6 0.0000 0.0000 0.0000 0.0000 0.0000 33.1704
#
#
#
# Elastic Compliance Matrix: (Units=1/GPa)
#
#
# Indices 1 2 3 4 5 6 
#
# 1 0.030545 -0.011136 0.010712 0.000000 0.000000 0.000000
# 2 -0.011136 0.011425 -0.006620 0.000000 0.000000 0.000000
# 3 0.010712 -0.006620 0.027248 0.000000 0.000000 0.000000
# 4 0.000000 0.000000 0.000000 -0.004066 0.000000 0.000000
# 5 0.000000 0.000000 0.000000 0.000000 -0.016063 0.000000
# 6 0.000000 0.000000 0.000000 0.000000 0.000000 0.030147
#
#
# Mechanical properties :
#
#
# Convention : Reuss Voigt Hill
#
# Bulk Modulus (GPa) = 18.13866 38.28867 28.21366
# Shear Modulus (GPa) = 44.76219 -42.57732 1.09244
#
# Velocity S-wave (km/s) = 4.51467 -4.40311 0.70529
# Velocity P-wave (km/s) = 5.95279 2.90091 3.67563
#
# Compressibility (1/GPa) = 0.05513087
#
# Stress axis : x y z
#
# Youngs Moduli (GPa) = 32.73844 87.52720 36.69928
#
# Poissons Ratio (x) = 0.97473 -0.39313
# Poissons Ratio (y) = 0.36459 0.24294
# Poissons Ratio (z) = -0.35070 0.57940
#
# Static dielectric constant tensor:
#      x y z
#    x 3.444390 0.000000 0.000000 
#    y 0.000000 4.393300 0.000000 
#    z 0.000000 0.000000 4.118030 
# 
# 
# High freq. dielectric constant tensor:
#      x y z
#    x 1.795530 0.000000 0.000000 
#    y 0.000000 1.867690 0.000000 
#    z 0.000000 0.000000 1.898190 
# 
# From -- ./inp_files/26408.got.cif
#   From: 2010.03.12/outbox.cif.g09.slc.cpg/sg66_14_cif.got.tgz:26408.got - 2010.04.10 21:57:39.
