data_PCOD8276741
_publ_section_title
;
Structure prediction by ZEFSAII (Michael W. Deem and Ramdas Pophale) SiO2 
 PCOD8276741
Probable space group: C C C M
;
_chemical_formula_sum "Si O2"
_cell_formula_units_Z 120
_cell_length_a 21.198924
_cell_length_b 20.405672
_cell_length_c 13.030928
_cell_angle_alpha 90.000000
_cell_angle_beta 90.000000
_cell_angle_gamma 90.000000
_cell_volume 5636.896550
_symmetry_space_group_name_H-M "C C C M"
_symmetry_group_IT_number 66
_symmetry_cell_setting 'orthorhombic'
loop_
_space_group_symop_operation_xyz
x,y,z
-x,-y,z
x,-y,1/2-z
-x,y,1/2-z
-x,-y,-z
x,y,-z
-x,y,1/2+z
x,-y,1/2+z
1/2+x,1/2+y,z
1/2-x,1/2-y,z
1/2+x,1/2-y,1/2-z
1/2-x,1/2+y,1/2-z
1/2-x,1/2-y,-z
1/2+x,1/2+y,-z
1/2-x,1/2+y,1/2+z
1/2+x,1/2-y,1/2+z
loop_
_atom_site_type_symbol
_atom_site_label
_atom_site_fract_x
_atom_site_fract_y
_atom_site_fract_z
Si Si1 0.317014 0.768771 0.301739
Si Si2 0.500000 0.828193 0.250000
Si Si3 0.047036 0.556823 0.382096
Si Si4 0.827106 0.179205 0.882297
Si Si5 0.035388 0.214449 0.617338
Si Si6 0.809368 0.928478 0.771106
Si Si7 0.904447 0.836606 0.116745
Si Si8 0.317533 0.090807 0.880589
O O1 0.250000 0.750000 0.353557
O O2 0.312571 0.745198 0.182251
O O3 0.370885 0.732864 0.366172
O O4 0.329809 0.845464 0.310802
O O5 0.461065 0.874200 0.325904
O O6 0.546100 0.781180 0.316748
O O7 0.029452 0.567889 0.500000
O O8 0.122230 0.541001 0.368306
O O9 0.000000 0.500000 0.338240
O O10 0.902864 0.169067 0.875822
O O11 0.794114 0.115402 0.830400
O O12 0.804039 0.186887 0.000000
O O13 0.021915 0.235624 0.500000
O O14 0.975426 0.173015 0.660152
O O15 0.866191 0.893120 0.828030
O O16 0.746884 0.940983 0.839595
O O17 0.836400 0.000000 0.750000
O O18 0.906848 0.857362 0.000000
O O19 0.309321 0.109972 0.000000
#
# Coordination Sequence:
#
# PCOD8276741 Si02
#       8
#    16   8  16  16  16  16  16  16
#     4  11  20  34  59  97 122 151 196 249 305 372
#     4  12  19  34  62  86 121 152 190 252 306 342
#     4  10  23  40  59  85 117 160 208 248 294 352
#     4  10  22  41  59  83 127 165 191 237 295 366
#     4  10  21  37  61  91 118 153 195 236 302 374
#     4  11  24  39  58  86 116 154 205 245 290 359
#     4  10  20  37  61  89 119 148 188 246 303 356
#     4  11  22  40  63  87 119 154 198 259 311 350
#
# _framework density 21.288309999999999
#
# number of rings (size 3 to 8) (size 9 to 14) (size 15 to 20)
#    0.000    1.467    2.667    4.600    0.000    5.067 
#    0.000    1.333    0.000    3.200    0.000    0.000 
#    0.000    0.000    0.000    0.000    0.000    0.000 
#
# Total GULP energy -743629.423662 kJ/mol
# GULP energy per Si atom -12393.823728 kJ/mol
# Density = 2.123986 g / cm^3
# Si number density = 21.288310 Si / 1000 Ang^3
#
#
#
# Elastic Constant Matrix: (Units=GPa)
#
#
# Indices 1 2 3 4 5 6 
#
# 1 110.4883 29.8811 39.1324 0.0000 0.0000 0.0000
# 2 29.8811 97.1262 41.3218 0.0000 0.0000 0.0000
# 3 39.1324 41.3218 99.5707 0.0000 0.0000 0.0000
# 4 0.0000 0.0000 0.0000 12.9172 0.0000 0.0000
# 5 0.0000 0.0000 0.0000 0.0000 23.6818 0.0000
# 6 0.0000 0.0000 0.0000 0.0000 0.0000 25.0285
#
#
#
# Elastic Compliance Matrix: (Units=1/GPa)
#
#
# Indices 1 2 3 4 5 6 
#
# 1 0.010778 -0.001838 -0.003473 0.000000 0.000000 0.000000
# 2 -0.001838 0.012817 -0.004597 0.000000 0.000000 0.000000
# 3 -0.003473 -0.004597 0.013316 0.000000 0.000000 0.000000
# 4 0.000000 0.000000 0.000000 0.077416 0.000000 0.000000
# 5 0.000000 0.000000 0.000000 0.000000 0.042227 0.000000
# 6 0.000000 0.000000 0.000000 0.000000 0.000000 0.039954
#
#
# Mechanical properties :
#
#
# Convention : Reuss Voigt Hill
#
# Bulk Modulus (GPa) = 58.49704 58.65063 58.57383
# Shear Modulus (GPa) = 22.52030 25.44883 23.98456
#
# Velocity S-wave (km/s) = 3.25602 3.46126 3.36021
# Velocity P-wave (km/s) = 6.45552 6.60183 6.52909
#
# Compressibility (1/GPa) = 0.01709488
#
# Stress axis : x y z
#
# Youngs Moduli (GPa) = 92.78218 78.02121 75.09992
#
# Poissons Ratio (x) = 0.14343 0.26082
# Poissons Ratio (y) = 0.17056 0.34520
# Poissons Ratio (z) = 0.32223 0.35863
#
# Static dielectric constant tensor:
#      x y z
#    x 4.114790 0.000000 0.000000 
#    y 0.000000 3.579690 0.000000 
#    z 0.000000 0.000000 4.133480 
# 
# 
# High freq. dielectric constant tensor:
#      x y z
#    x 1.848330 0.000000 0.000000 
#    y 0.000000 1.796710 0.000000 
#    z 0.000000 0.000000 1.848910 
# 
# From -- ./inp_files/31580.got.cif
#   From: 2010.03.12/outbox.cif.g09.slc.cpg/sg66_16_cif.got.tgz:31580.got - 2010.04.10 21:57:39.
