data_PCOD8276300
_publ_section_title
;
Structure prediction by ZEFSAII (Michael W. Deem and Ramdas Pophale) SiO2 
 PCOD8276300
Probable space group: C C C M
;
_chemical_formula_sum "Si O2"
_cell_formula_units_Z 64
_cell_length_a 5.080312
_cell_length_b 24.551034
_cell_length_c 23.627365
_cell_angle_alpha 90.000000
_cell_angle_beta 90.000000
_cell_angle_gamma 90.000000
_cell_volume 2946.968290
_symmetry_space_group_name_H-M "C C C M"
_symmetry_group_IT_number 66
_symmetry_cell_setting 'orthorhombic'
loop_
_space_group_symop_operation_xyz
x,y,z
-x,-y,z
x,-y,1/2-z
-x,y,1/2-z
-x,-y,-z
x,y,-z
-x,y,1/2+z
x,-y,1/2+z
1/2+x,1/2+y,z
1/2-x,1/2-y,z
1/2+x,1/2-y,1/2-z
1/2-x,1/2+y,1/2-z
1/2-x,1/2-y,-z
1/2+x,1/2+y,-z
1/2-x,1/2+y,1/2+z
1/2+x,1/2-y,1/2+z
loop_
_atom_site_type_symbol
_atom_site_label
_atom_site_fract_x
_atom_site_fract_y
_atom_site_fract_z
Si Si1 0.365242 0.385085 0.103564
Si Si2 0.748260 0.312467 0.288185
Si Si3 0.361661 0.055424 0.433949
Si Si4 0.998636 0.224749 0.063699
O O1 0.290943 0.357913 0.163231
O O2 0.592362 0.432525 0.102456
O O3 0.504738 0.340097 0.064154
O O4 0.088578 0.400029 0.075051
O O5 0.500000 0.321170 0.250000
O O6 0.750000 0.250000 0.311060
O O7 0.000000 0.326597 0.250000
O O8 0.282230 0.051051 0.500000
O O9 0.500000 0.000000 0.411905
O O10 0.250000 0.250000 0.095502
O O11 0.750000 0.250000 0.097197
O O12 0.992304 0.247591 0.000000
#
# Coordination Sequence:
#
# PCOD8276300 Si02
#       4
#    16  16  16  16
#     4  12  22  38  64  87 119 165 208 249 307 365
#     4  10  22  40  62  91 125 160 203 253 305 368
#     4  11  24  41  62  91 125 162 209 259 306 364
#     4  10  20  32  49  81 122 156 190 235 293 367
#
# _framework density 21.717233
#
# number of rings (size 3 to 8) (size 9 to 14) (size 15 to 20)
#    0.000    1.250    0.000    6.750    0.000    7.000 
#    0.000    0.000    0.000   11.250    0.000    0.000 
#    0.000    0.000    0.000    0.000    0.000    0.000 
#
# Total GULP energy -396438.856799 kJ/mol
# GULP energy per Si atom -12388.714275 kJ/mol
# Density = 2.166780 g / cm^3
# Si number density = 21.717233 Si / 1000 Ang^3
#
#
#
# Elastic Constant Matrix: (Units=GPa)
#
#
# Indices 1 2 3 4 5 6 
#
# 1 176.4834 28.4180 49.7740 0.0000 0.0000 0.0000
# 2 28.4180 78.5092 36.8005 0.0000 0.0000 0.0000
# 3 49.7740 36.8005 95.2826 0.0000 0.0000 0.0000
# 4 0.0000 0.0000 0.0000 3.7185 0.0000 0.0000
# 5 0.0000 0.0000 0.0000 0.0000 21.1840 0.0000
# 6 0.0000 0.0000 0.0000 0.0000 0.0000 47.4928
#
#
#
# Elastic Compliance Matrix: (Units=1/GPa)
#
#
# Indices 1 2 3 4 5 6 
#
# 1 0.006704 -0.000959 -0.003132 0.000000 0.000000 0.000000
# 2 -0.000959 0.015690 -0.005559 0.000000 0.000000 0.000000
# 3 -0.003132 -0.005559 0.014278 0.000000 0.000000 0.000000
# 4 0.000000 0.000000 0.000000 0.268928 0.000000 0.000000
# 5 0.000000 0.000000 0.000000 0.000000 0.047205 0.000000
# 6 0.000000 0.000000 0.000000 0.000000 0.000000 0.021056
#
#
# Mechanical properties :
#
#
# Convention : Reuss Voigt Hill
#
# Bulk Modulus (GPa) = 57.56015 64.47334 61.01675
# Shear Modulus (GPa) = 12.53284 30.16458 21.34871
#
# Velocity S-wave (km/s) = 2.40488 3.73093 3.13873
# Velocity P-wave (km/s) = 5.85433 6.95068 6.42593
#
# Compressibility (1/GPa) = 0.01737313
#
# Stress axis : x y z
#
# Youngs Moduli (GPa) = 149.16764 63.73425 70.03711
#
# Poissons Ratio (x) = 0.06110 0.21934
# Poissons Ratio (y) = 0.14300 0.38935
# Poissons Ratio (z) = 0.46715 0.35431
#
# Static dielectric constant tensor:
#      x y z
#    x 4.148180 0.000000 0.000000 
#    y 0.000000 4.809370 0.000000 
#    z 0.000000 0.000000 3.553550 
# 
# 
# High freq. dielectric constant tensor:
#      x y z
#    x 1.887080 0.000000 0.000000 
#    y 0.000000 1.843440 0.000000 
#    z 0.000000 0.000000 1.830090 
# 
# From -- ./inp_files/53958.got.cif
#   From: 2010.03.12/outbox.cif.g09.slc.cpg/sg66_27_cif.got.tgz:53958.got - 2010.04.10 21:57:39.
