data_PCOD8276456
_publ_section_title
;
Structure prediction by ZEFSAII (Michael W. Deem and Ramdas Pophale) SiO2 
 PCOD8276456
Probable space group: C C C M
;
_chemical_formula_sum "Si O2"
_cell_formula_units_Z 116
_cell_length_a 26.290500
_cell_length_b 23.340904
_cell_length_c 9.091631
_cell_angle_alpha 90.000000
_cell_angle_beta 90.000000
_cell_angle_gamma 90.000000
_cell_volume 5579.025146
_symmetry_space_group_name_H-M "C C C M"
_symmetry_group_IT_number 66
_symmetry_cell_setting 'orthorhombic'
loop_
_space_group_symop_operation_xyz
x,y,z
-x,-y,z
x,-y,1/2-z
-x,y,1/2-z
-x,-y,-z
x,y,-z
-x,y,1/2+z
x,-y,1/2+z
1/2+x,1/2+y,z
1/2-x,1/2-y,z
1/2+x,1/2-y,1/2-z
1/2-x,1/2+y,1/2-z
1/2-x,1/2-y,-z
1/2+x,1/2+y,-z
1/2-x,1/2+y,1/2+z
1/2+x,1/2-y,1/2+z
loop_
_atom_site_type_symbol
_atom_site_label
_atom_site_fract_x
_atom_site_fract_y
_atom_site_fract_z
Si Si1 0.500000 0.500000 0.750000
Si Si2 0.435358 0.715346 0.333703
Si Si3 0.337986 0.720948 0.835664
Si Si4 0.922082 0.908807 0.161827
Si Si5 0.546848 0.824983 0.669550
Si Si6 0.223328 0.443536 0.173940
Si Si7 0.663080 0.152976 0.167702
Si Si8 0.680413 0.596083 0.332827
O O1 0.537239 0.540016 0.844454
O O2 0.444862 0.737443 0.500000
O O3 0.375420 0.713556 0.300828
O O4 0.453813 0.650005 0.308385
O O5 0.459761 0.758177 0.215130
O O6 0.311469 0.783325 0.816573
O O7 0.303268 0.663845 0.828740
O O8 0.364421 0.722458 0.000000
O O9 0.877337 0.916714 0.281487
O O10 0.896646 0.904854 0.000000
O O11 0.500000 0.858731 0.750000
O O12 0.536950 0.832527 0.500000
O O13 0.603186 0.846135 0.713188
O O14 0.199511 0.500000 0.250000
O O15 0.190396 0.388977 0.220502
O O16 0.281221 0.437746 0.228705
O O17 0.221826 0.450154 0.000000
O O18 0.669442 0.130986 0.000000
O O19 0.685381 0.573332 0.500000
#
# Coordination Sequence:
#
# PCOD8276456 Si02
#       8
#     4  16  16  16  16  16  16  16
#     4  12  26  40  56  78 114 160 212 262 314 352
#     4   9  17  31  52  79 112 150 194 246 294 348
#     4   8  16  33  58  88 120 156 191 233 297 362
#     4  10  23  41  57  79 111 152 204 257 307 357
#     4  10  20  34  57  89 123 159 193 232 286 352
#     4  12  26  43  64  89 118 156 202 248 299 355
#     4   9  19  38  61  89 126 160 197 242 291 353
#     4  10  21  40  66  91 118 155 198 250 306 362
#
# _framework density 20.792162999999999
#
# number of rings (size 3 to 8) (size 9 to 14) (size 15 to 20)
#    0.000    2.207    0.000    3.517    1.931    5.517 
#    0.000    2.759    0.000    0.414    0.000    2.897 
#    0.000    0.000    0.000    0.000    0.000    0.000 
#
# Total GULP energy -718509.267338 kJ/mol
# GULP energy per Si atom -12388.090816 kJ/mol
# Density = 2.074484 g / cm^3
# Si number density = 20.792163 Si / 1000 Ang^3
#
#
#
# Elastic Constant Matrix: (Units=GPa)
#
#
# Indices 1 2 3 4 5 6 
#
# 1 63.3255 33.7079 38.2918 0.0000 0.0000 0.0000
# 2 33.7079 100.5841 44.2246 0.0000 0.0000 0.0000
# 3 38.2918 44.2246 123.0147 0.0000 0.0000 0.0000
# 4 0.0000 0.0000 0.0000 25.5780 0.0000 0.0000
# 5 0.0000 0.0000 0.0000 0.0000 29.5048 0.0000
# 6 0.0000 0.0000 0.0000 0.0000 0.0000 23.0044
#
#
#
# Elastic Compliance Matrix: (Units=1/GPa)
#
#
# Indices 1 2 3 4 5 6 
#
# 1 0.021409 -0.005041 -0.004852 0.000000 0.000000 0.000000
# 2 -0.005041 0.012996 -0.003103 0.000000 0.000000 0.000000
# 3 -0.004852 -0.003103 0.010755 0.000000 0.000000 0.000000
# 4 0.000000 0.000000 0.000000 0.039096 0.000000 0.000000
# 5 0.000000 0.000000 0.000000 0.000000 0.033893 0.000000
# 6 0.000000 0.000000 0.000000 0.000000 0.000000 0.043470
#
#
# Mechanical properties :
#
#
# Convention : Reuss Voigt Hill
#
# Bulk Modulus (GPa) = 52.17153 57.70812 54.93982
# Shear Modulus (GPa) = 25.77339 26.99743 26.38541
#
# Velocity S-wave (km/s) = 3.52458 3.60730 3.56618
# Velocity P-wave (km/s) = 6.45832 6.72050 6.59072
#
# Compressibility (1/GPa) = 0.01916754
#
# Stress axis : x y z
#
# Youngs Moduli (GPa) = 46.71020 76.94911 92.98190
#
# Poissons Ratio (x) = 0.38793 0.45112
# Poissons Ratio (y) = 0.23548 0.28850
# Poissons Ratio (z) = 0.22662 0.23875
#
# Static dielectric constant tensor:
#      x y z
#    x 3.659600 0.000000 0.000000 
#    y 0.000000 3.807030 0.000000 
#    z 0.000000 0.000000 3.731280 
# 
# 
# High freq. dielectric constant tensor:
#      x y z
#    x 1.796250 0.000000 0.000000 
#    y 0.000000 1.799330 0.000000 
#    z 0.000000 0.000000 1.816900 
# 
# From -- ./inp_files/10585.got.cif
#   From: 2010.03.12/outbox.cif.g09.slc.cpg/sg66_6_cif.got.tgz:10585.got - 2010.04.10 21:57:39.
