data_PCOD8276441
_publ_section_title
;
Structure prediction by ZEFSAII (Michael W. Deem and Ramdas Pophale) SiO2 
 PCOD8276441
Probable space group: C C C M
;
_chemical_formula_sum "Si O2"
_cell_formula_units_Z 64
_cell_length_a 16.233904
_cell_length_b 8.423476
_cell_length_c 23.960337
_cell_angle_alpha 90.000000
_cell_angle_beta 90.000000
_cell_angle_gamma 90.000000
_cell_volume 3276.477865
_symmetry_space_group_name_H-M "C C C M"
_symmetry_group_IT_number 66
_symmetry_cell_setting 'orthorhombic'
loop_
_space_group_symop_operation_xyz
x,y,z
-x,-y,z
x,-y,1/2-z
-x,y,1/2-z
-x,-y,-z
x,y,-z
-x,y,1/2+z
x,-y,1/2+z
1/2+x,1/2+y,z
1/2-x,1/2-y,z
1/2+x,1/2-y,1/2-z
1/2-x,1/2+y,1/2-z
1/2-x,1/2-y,-z
1/2+x,1/2+y,-z
1/2-x,1/2+y,1/2+z
1/2+x,1/2-y,1/2+z
loop_
_atom_site_type_symbol
_atom_site_label
_atom_site_fract_x
_atom_site_fract_y
_atom_site_fract_z
Si Si1 0.987662 0.682951 0.814591
Si Si2 0.156598 0.800142 0.384029
Si Si3 0.844361 0.701810 0.500000
Si Si4 0.340663 0.825361 0.500000
Si Si5 0.423090 0.609562 0.099020
O O1 0.895533 0.729878 0.832970
O O2 0.000000 0.500000 0.828861
O O3 0.000000 0.720309 0.750000
O O4 0.053990 0.788877 0.846880
O O5 0.250000 0.750000 0.375190
O O6 0.117426 0.736396 0.442852
O O7 0.151871 0.991624 0.384910
O O8 0.750000 0.750000 0.500000
O O9 0.845453 0.513353 0.500000
O O10 0.892910 0.768278 0.447166
O O11 0.250000 0.750000 0.500000
O O12 0.500000 0.500000 0.079165
#
# Coordination Sequence:
#
# PCOD8276441 Si02
#       5
#    16  16   8   8  16
#     4  10  22  41  60  83 116 153 195 241 289 343
#     4  10  20  38  60  86 118 151 190 239 287 340
#     4  12  21  34  58  89 121 155 194 234 284 347
#     4  10  20  34  55  85 121 149 183 238 291 333
#     4  10  22  38  60  86 119 154 192 235 291 350
#
# _framework density 19.533170999999999
#
# number of rings (size 3 to 8) (size 9 to 14) (size 15 to 20)
#    0.000    1.750    0.000    5.625    0.000    7.500 
#    0.000   12.500    0.000    0.000    0.000    0.000 
#    0.000    0.000    0.000    0.000    0.000    0.000 
#
# Total GULP energy -396744.330057 kJ/mol
# GULP energy per Si atom -12398.260314 kJ/mol
# Density = 1.948871 g / cm^3
# Si number density = 19.533171 Si / 1000 Ang^3
#
#
#
# Elastic Constant Matrix: (Units=GPa)
#
#
# Indices 1 2 3 4 5 6 
#
# 1 96.3308 58.6989 67.4397 0.0000 0.0000 0.0000
# 2 58.6989 184.6673 83.2305 0.0000 0.0000 0.0000
# 3 67.4397 83.2305 141.6251 0.0000 0.0000 0.0000
# 4 0.0000 0.0000 0.0000 33.9383 0.0000 0.0000
# 5 0.0000 0.0000 0.0000 0.0000 26.0595 0.0000
# 6 0.0000 0.0000 0.0000 0.0000 0.0000 40.2662
#
#
#
# Elastic Compliance Matrix: (Units=1/GPa)
#
#
# Indices 1 2 3 4 5 6 
#
# 1 0.016250 -0.002282 -0.006397 0.000000 0.000000 0.000000
# 2 -0.002282 0.007687 -0.003431 0.000000 0.000000 0.000000
# 3 -0.006397 -0.003431 0.012123 0.000000 0.000000 0.000000
# 4 0.000000 0.000000 0.000000 0.029465 0.000000 0.000000
# 5 0.000000 0.000000 0.000000 0.000000 0.038374 0.000000
# 6 0.000000 0.000000 0.000000 0.000000 0.000000 0.024835
#
#
# Mechanical properties :
#
#
# Convention : Reuss Voigt Hill
#
# Bulk Modulus (GPa) = 84.45557 93.48459 88.97008
# Shear Modulus (GPa) = 31.86761 34.26973 33.06867
#
# Velocity S-wave (km/s) = 4.04352 4.19314 4.11901
# Velocity P-wave (km/s) = 8.07037 8.45024 8.26249
#
# Compressibility (1/GPa) = 0.01184054
#
# Stress axis : x y z
#
# Youngs Moduli (GPa) = 61.53937 130.09362 82.48768
#
# Poissons Ratio (x) = 0.29690 0.52765
# Poissons Ratio (y) = 0.14044 0.28299
# Poissons Ratio (z) = 0.39365 0.44630
#
# Static dielectric constant tensor:
#      x y z
#    x 3.492870 0.000000 0.000000 
#    y 0.000000 3.828010 0.000000 
#    z 0.000000 0.000000 3.677800 
# 
# 
# High freq. dielectric constant tensor:
#      x y z
#    x 1.753320 0.000000 0.000000 
#    y 0.000000 1.784730 0.000000 
#    z 0.000000 0.000000 1.757240 
# 
# From -- ./inp_files/46641.got.cif
#   From: 2010.03.12/outbox.cif.g09.slc.cpg/sg66_24_cif.got.tgz:46641.got - 2010.04.10 21:57:39.
