data_PCOD8276826
_publ_section_title
;
Structure prediction by ZEFSAII (Michael W. Deem and Ramdas Pophale) SiO2 
 PCOD8276826
Probable space group: C C C M
;
_chemical_formula_sum "Si O2"
_cell_formula_units_Z 112
_cell_length_a 23.569976
_cell_length_b 13.185559
_cell_length_c 18.358845
_cell_angle_alpha 90.000000
_cell_angle_beta 90.000000
_cell_angle_gamma 90.000000
_cell_volume 5705.622602
_symmetry_space_group_name_H-M "C C C M"
_symmetry_group_IT_number 66
_symmetry_cell_setting 'orthorhombic'
loop_
_space_group_symop_operation_xyz
x,y,z
-x,-y,z
x,-y,1/2-z
-x,y,1/2-z
-x,-y,-z
x,y,-z
-x,y,1/2+z
x,-y,1/2+z
1/2+x,1/2+y,z
1/2-x,1/2-y,z
1/2+x,1/2-y,1/2-z
1/2-x,1/2+y,1/2-z
1/2-x,1/2-y,-z
1/2+x,1/2+y,-z
1/2-x,1/2+y,1/2+z
1/2+x,1/2-y,1/2+z
loop_
_atom_site_type_symbol
_atom_site_label
_atom_site_fract_x
_atom_site_fract_y
_atom_site_fract_z
Si Si1 0.263911 0.364719 0.415277
Si Si2 0.189569 0.293809 0.083451
Si Si3 0.826949 0.498639 0.663542
Si Si4 0.893004 0.081904 0.914416
Si Si5 0.482961 0.712748 0.171889
Si Si6 0.587459 0.352170 0.416641
Si Si7 0.948180 0.443552 0.826997
O O1 0.251618 0.383963 0.500000
O O2 0.250000 0.250000 0.392804
O O3 0.224419 0.438873 0.369883
O O4 0.328613 0.389629 0.395731
O O5 0.250000 0.250000 0.104954
O O6 0.174612 0.383574 0.137518
O O7 0.146729 0.202254 0.096816
O O8 0.188246 0.332671 0.000000
O O9 0.821150 0.500000 0.750000
O O10 0.886904 0.545054 0.634724
O O11 0.933058 0.151021 0.865849
O O12 0.905847 0.967332 0.889765
O O13 0.905536 0.099109 0.000000
O O14 0.500000 0.665713 0.250000
O O15 0.539081 0.709968 0.123812
O O16 0.461707 0.826449 0.182910
O O17 0.569369 0.351805 0.500000
O O18 0.943166 0.500000 0.750000
O O19 0.000000 0.500000 0.870606
#
# Coordination Sequence:
#
# PCOD8276826 Si02
#       7
#    16  16  16  16  16  16  16
#     4  10  21  41  64  88 121 165 210 253 311 379
#     4  10  21  40  65  91 121 164 213 257 307 376
#     4  11  23  37  62  93 125 163 206 260 318 378
#     4  10  22  42  64  87 125 167 203 255 318 374
#     4  12  23  38  64  91 120 161 208 258 305 379
#     4  10  22  40  62  88 122 162 205 254 312 373
#     4  10  20  39  59  85 121 169 200 241 317 373
#
# _framework density 19.629760000000001
#
# number of rings (size 3 to 8) (size 9 to 14) (size 15 to 20)
#    0.000    1.571    1.429    3.857    2.000    5.143 
#    5.143    2.143    0.000    5.143    0.000    0.000 
#    0.000    0.000    0.000    0.000    0.000    0.000 
#
# Total GULP energy -694459.360009 kJ/mol
# GULP energy per Si atom -12401.060000 kJ/mol
# Density = 1.958508 g / cm^3
# Si number density = 19.629760 Si / 1000 Ang^3
#
#
#
# Elastic Constant Matrix: (Units=GPa)
#
#
# Indices 1 2 3 4 5 6 
#
# 1 152.7279 49.4294 54.4919 0.0000 0.0000 0.0000
# 2 49.4294 123.4594 53.8146 0.0000 0.0000 0.0000
# 3 54.4919 53.8146 72.2328 0.0000 0.0000 0.0000
# 4 0.0000 0.0000 0.0000 33.4889 0.0000 0.0000
# 5 0.0000 0.0000 0.0000 0.0000 10.5795 0.0000
# 6 0.0000 0.0000 0.0000 0.0000 0.0000 26.2635
#
#
#
# Elastic Compliance Matrix: (Units=1/GPa)
#
#
# Indices 1 2 3 4 5 6 
#
# 1 0.009035 -0.000957 -0.006103 0.000000 0.000000 0.000000
# 2 -0.000957 0.012097 -0.008290 0.000000 0.000000 0.000000
# 3 -0.006103 -0.008290 0.024624 0.000000 0.000000 0.000000
# 4 0.000000 0.000000 0.000000 0.029861 0.000000 0.000000
# 5 0.000000 0.000000 0.000000 0.000000 0.094523 0.000000
# 6 0.000000 0.000000 0.000000 0.000000 0.000000 0.038076
#
#
# Mechanical properties :
#
#
# Convention : Reuss Voigt Hill
#
# Bulk Modulus (GPa) = 66.41992 73.76579 70.09286
# Shear Modulus (GPa) = 20.49743 26.77865 23.63804
#
# Velocity S-wave (km/s) = 3.23492 3.69750 3.47391
# Velocity P-wave (km/s) = 6.91829 7.47588 7.20248
#
# Compressibility (1/GPa) = 0.01505572
#
# Stress axis : x y z
#
# Youngs Moduli (GPa) = 110.68387 82.66776 40.61045
#
# Poissons Ratio (x) = 0.07913 0.24783
# Poissons Ratio (y) = 0.10594 0.33666
# Poissons Ratio (z) = 0.67546 0.68532
#
# Static dielectric constant tensor:
#      x y z
#    x 4.332440 0.000000 0.000000 
#    y 0.000000 3.958260 0.000000 
#    z 0.000000 0.000000 3.478080 
# 
# 
# High freq. dielectric constant tensor:
#      x y z
#    x 1.790890 0.000000 0.000000 
#    y 0.000000 1.777590 0.000000 
#    z 0.000000 0.000000 1.746070 
# 
# From -- ./inp_files/52623.got.cif
#   From: 2010.03.12/outbox.cif.g09.slc.cpg/sg66_27_cif.got.tgz:52623.got - 2010.04.10 21:57:39.
