data_PCOD8276499
_publ_section_title
;
Structure prediction by ZEFSAII (Michael W. Deem and Ramdas Pophale) SiO2 
 PCOD8276499
Probable space group: C C C M
;
_chemical_formula_sum "Si O2"
_cell_formula_units_Z 120
_cell_length_a 25.959782
_cell_length_b 15.902894
_cell_length_c 14.140144
_cell_angle_alpha 90.000000
_cell_angle_beta 90.000000
_cell_angle_gamma 90.000000
_cell_volume 5837.555701
_symmetry_space_group_name_H-M "C C C M"
_symmetry_group_IT_number 66
_symmetry_cell_setting 'orthorhombic'
loop_
_space_group_symop_operation_xyz
x,y,z
-x,-y,z
x,-y,1/2-z
-x,y,1/2-z
-x,-y,-z
x,y,-z
-x,y,1/2+z
x,-y,1/2+z
1/2+x,1/2+y,z
1/2-x,1/2-y,z
1/2+x,1/2-y,1/2-z
1/2-x,1/2+y,1/2-z
1/2-x,1/2-y,-z
1/2+x,1/2+y,-z
1/2-x,1/2+y,1/2+z
1/2+x,1/2-y,1/2+z
loop_
_atom_site_type_symbol
_atom_site_label
_atom_site_fract_x
_atom_site_fract_y
_atom_site_fract_z
Si Si1 0.536096 0.165997 0.889865
Si Si2 0.873837 0.595855 0.273940
Si Si3 0.649303 0.616160 0.396745
Si Si4 0.036875 0.150124 0.608036
Si Si5 0.419122 0.811298 0.606321
Si Si6 0.196485 0.710544 0.108323
Si Si7 0.361918 0.500000 0.750000
Si Si8 0.572174 0.387447 0.608823
O O1 0.573183 0.101781 0.834225
O O2 0.546323 0.258817 0.844613
O O3 0.475615 0.148050 0.873766
O O4 0.551510 0.159273 0.000000
O O5 0.861507 0.500000 0.250000
O O6 0.878348 0.646784 0.176417
O O7 0.824499 0.632883 0.330895
O O8 0.670166 0.589567 0.500000
O O9 0.588206 0.593736 0.384702
O O10 0.654624 0.715338 0.383499
O O11 0.675290 0.558213 0.316146
O O12 0.022768 0.173302 0.500000
O O13 0.987109 0.098988 0.644563
O O14 0.402381 0.834612 0.500000
O O15 0.416988 0.711343 0.619306
O O16 0.250000 0.750000 0.147067
O O17 0.203968 0.680428 0.000000
O O18 0.393569 0.561927 0.682162
O O19 0.581507 0.417844 0.500000
#
# Coordination Sequence:
#
# PCOD8276499 Si02
#       8
#    16  16  16  16  16  16   8  16
#     4   9  17  33  56  81 118 164 204 237 276 334
#     4  12  23  35  58  96 124 148 189 253 303 351
#     4  10  20  35  55  79 104 140 189 233 285 346
#     4   8  15  30  50  69 100 147 194 231 262 317
#     4   9  20  37  55  79 122 176 207 224 272 357
#     4  10  22  44  70  88 108 146 196 249 307 366
#     4  12  22  31  48  82 116 150 180 242 293 330
#     4   9  19  33  47  70 109 156 198 230 266 327
#
# _framework density 20.556549
#
# number of rings (size 3 to 8) (size 9 to 14) (size 15 to 20)
#    0.000    2.267    1.333    3.600    0.000    3.733 
#    1.200    3.333    0.000    0.400    0.000    0.000 
#    0.000    0.000    0.000    0.000    0.000    0.000 
#
# Total GULP energy -743513.311084 kJ/mol
# GULP energy per Si atom -12391.888518 kJ/mol
# Density = 2.050976 g / cm^3
# Si number density = 20.556549 Si / 1000 Ang^3
#
#
#
# Elastic Constant Matrix: (Units=GPa)
#
#
# Indices 1 2 3 4 5 6 
#
# 1 57.0812 23.8335 33.8511 0.0000 0.0000 0.0000
# 2 23.8335 91.9365 60.1535 0.0000 0.0000 0.0000
# 3 33.8511 60.1535 118.2464 0.0000 0.0000 0.0000
# 4 0.0000 0.0000 0.0000 30.7615 0.0000 0.0000
# 5 0.0000 0.0000 0.0000 0.0000 19.5996 0.0000
# 6 0.0000 0.0000 0.0000 0.0000 0.0000 14.0371
#
#
#
# Elastic Compliance Matrix: (Units=1/GPa)
#
#
# Indices 1 2 3 4 5 6 
#
# 1 0.021424 -0.002310 -0.004958 0.000000 0.000000 0.000000
# 2 -0.002310 0.016553 -0.007759 0.000000 0.000000 0.000000
# 3 -0.004958 -0.007759 0.013824 0.000000 0.000000 0.000000
# 4 0.000000 0.000000 0.000000 0.032508 0.000000 0.000000
# 5 0.000000 0.000000 0.000000 0.000000 0.051022 0.000000
# 6 0.000000 0.000000 0.000000 0.000000 0.000000 0.071240
#
#
# Mechanical properties :
#
#
# Convention : Reuss Voigt Hill
#
# Bulk Modulus (GPa) = 45.98645 55.88225 50.93435
# Shear Modulus (GPa) = 20.50252 22.84136 21.67194
#
# Velocity S-wave (km/s) = 3.16155 3.33700 3.25046
# Velocity P-wave (km/s) = 5.97883 6.48777 6.23849
#
# Compressibility (1/GPa) = 0.02174554
#
# Stress axis : x y z
#
# Youngs Moduli (GPa) = 46.67742 60.41288 72.34024
#
# Poissons Ratio (x) = 0.13954 0.35867
# Poissons Ratio (y) = 0.10782 0.56131
# Poissons Ratio (z) = 0.23143 0.46876
#
# Static dielectric constant tensor:
#      x y z
#    x 3.324830 0.000000 0.000000 
#    y 0.000000 3.583130 0.000000 
#    z 0.000000 0.000000 4.030540 
# 
# 
# High freq. dielectric constant tensor:
#      x y z
#    x 1.754210 0.000000 0.000000 
#    y 0.000000 1.791150 0.000000 
#    z 0.000000 0.000000 1.816500 
# 
# From -- ./inp_files/34008.got.cif
#   From: 2010.03.12/outbox.cif.g09.slc.cpg/sg66_18_cif.got.tgz:34008.got - 2010.04.10 21:57:39.
