data_PCOD8276351
_publ_section_title
;
Structure prediction by ZEFSAII (Michael W. Deem and Ramdas Pophale) SiO2 
 PCOD8276351
Probable space group: C C C M
;
_chemical_formula_sum "Si O2"
_cell_formula_units_Z 80
_cell_length_a 11.478080
_cell_length_b 24.710503
_cell_length_c 14.761616
_cell_angle_alpha 90.000000
_cell_angle_beta 90.000000
_cell_angle_gamma 90.000000
_cell_volume 4186.824308
_symmetry_space_group_name_H-M "C C C M"
_symmetry_group_IT_number 66
_symmetry_cell_setting 'orthorhombic'
loop_
_space_group_symop_operation_xyz
x,y,z
-x,-y,z
x,-y,1/2-z
-x,y,1/2-z
-x,-y,-z
x,y,-z
-x,y,1/2+z
x,-y,1/2+z
1/2+x,1/2+y,z
1/2-x,1/2-y,z
1/2+x,1/2-y,1/2-z
1/2-x,1/2+y,1/2-z
1/2-x,1/2-y,-z
1/2+x,1/2+y,-z
1/2-x,1/2+y,1/2+z
1/2+x,1/2-y,1/2+z
loop_
_atom_site_type_symbol
_atom_site_label
_atom_site_fract_x
_atom_site_fract_y
_atom_site_fract_z
Si Si1 0.284845 0.904428 0.897601
Si Si2 0.251870 0.186931 0.106706
Si Si3 0.804665 0.521100 0.842793
Si Si4 0.366529 0.392341 0.769350
Si Si5 0.539562 0.115607 0.397620
O O1 0.191954 0.879612 0.828190
O O2 0.410978 0.887568 0.853695
O O3 0.272330 0.969639 0.904215
O O4 0.264884 0.882087 0.000000
O O5 0.250000 0.250000 0.127659
O O6 0.148413 0.159082 0.163837
O O7 0.374956 0.161820 0.142709
O O8 0.233715 0.174581 0.000000
O O9 0.862385 0.500000 0.750000
O O10 0.688492 0.555176 0.818074
O O11 0.898803 0.557411 0.893750
O O12 0.500000 0.404161 0.750000
O O13 0.514159 0.130880 0.500000
#
# Coordination Sequence:
#
# PCOD8276351 Si02
#       5
#    16  16  16  16  16
#     4  10  20  33  52  80 114 147 180 225 280 335
#     4   9  19  38  62  84 105 138 186 239 293 342
#     4   9  18  29  48  75 109 147 186 221 270 327
#     4  10  22  38  52  77 111 149 191 234 274 335
#     4   9  17  31  52  79 109 138 178 230 279 331
#
# _framework density 19.107561
#
# number of rings (size 3 to 8) (size 9 to 14) (size 15 to 20)
#    0.000    2.600    0.000    1.200    0.000   16.400 
#    3.600    1.000    0.000    0.600    0.000    0.000 
#    0.000    0.000    0.000    0.000    0.000    0.000 
#
# Total GULP energy -495739.304624 kJ/mol
# GULP energy per Si atom -12393.482616 kJ/mol
# Density = 1.906407 g / cm^3
# Si number density = 19.107561 Si / 1000 Ang^3
#
#
#
# Elastic Constant Matrix: (Units=GPa)
#
#
# Indices 1 2 3 4 5 6 
#
# 1 129.3098 22.0696 33.1876 0.0000 0.0000 0.0000
# 2 22.0696 86.7762 22.8281 0.0000 0.0000 0.0000
# 3 33.1876 22.8281 67.8500 0.0000 0.0000 0.0000
# 4 0.0000 0.0000 0.0000 27.8301 0.0000 0.0000
# 5 0.0000 0.0000 0.0000 0.0000 23.5356 0.0000
# 6 0.0000 0.0000 0.0000 0.0000 0.0000 13.1388
#
#
#
# Elastic Compliance Matrix: (Units=1/GPa)
#
#
# Indices 1 2 3 4 5 6 
#
# 1 0.008963 -0.001236 -0.003968 0.000000 0.000000 0.000000
# 2 -0.001236 0.012813 -0.003707 0.000000 0.000000 0.000000
# 3 -0.003968 -0.003707 0.017926 0.000000 0.000000 0.000000
# 4 0.000000 0.000000 0.000000 0.035932 0.000000 0.000000
# 5 0.000000 0.000000 0.000000 0.000000 0.042489 0.000000
# 6 0.000000 0.000000 0.000000 0.000000 0.000000 0.076110
#
#
# Mechanical properties :
#
#
# Convention : Reuss Voigt Hill
#
# Bulk Modulus (GPa) = 45.70066 48.90074 47.30070
# Shear Modulus (GPa) = 22.79476 26.62428 24.70952
#
# Velocity S-wave (km/s) = 3.45769 3.73686 3.59998
# Velocity P-wave (km/s) = 6.31746 6.65333 6.48757
#
# Compressibility (1/GPa) = 0.02188152
#
# Stress axis : x y z
#
# Youngs Moduli (GPa) = 111.57357 78.04427 55.78334
#
# Poissons Ratio (x) = 0.09643 0.22136
# Poissons Ratio (y) = 0.13785 0.20677
# Poissons Ratio (z) = 0.44275 0.28928
#
# Static dielectric constant tensor:
#      x y z
#    x 3.450420 0.000000 0.000000 
#    y 0.000000 3.382210 0.000000 
#    z 0.000000 0.000000 3.511120 
# 
# 
# High freq. dielectric constant tensor:
#      x y z
#    x 1.728380 0.000000 0.000000 
#    y 0.000000 1.718190 0.000000 
#    z 0.000000 0.000000 1.747320 
# 
# From -- ./inp_files/26356.got.cif
#   From: 2010.03.12/outbox.cif.g09.slc.cpg/sg66_14_cif.got.tgz:26356.got - 2010.04.10 21:57:39.
