data_PCOD8276753
_publ_section_title
;
Structure prediction by ZEFSAII (Michael W. Deem and Ramdas Pophale) SiO2 
 PCOD8276753
Probable space group: C C C M
;
_chemical_formula_sum "Si O2"
_cell_formula_units_Z 64
_cell_length_a 11.317495
_cell_length_b 10.133217
_cell_length_c 24.796128
_cell_angle_alpha 90.000000
_cell_angle_beta 90.000000
_cell_angle_gamma 90.000000
_cell_volume 2843.685241
_symmetry_space_group_name_H-M "C C C M"
_symmetry_group_IT_number 66
_symmetry_cell_setting 'orthorhombic'
loop_
_space_group_symop_operation_xyz
x,y,z
-x,-y,z
x,-y,1/2-z
-x,y,1/2-z
-x,-y,-z
x,y,-z
-x,y,1/2+z
x,-y,1/2+z
1/2+x,1/2+y,z
1/2-x,1/2-y,z
1/2+x,1/2-y,1/2-z
1/2-x,1/2+y,1/2-z
1/2-x,1/2-y,-z
1/2+x,1/2+y,-z
1/2-x,1/2+y,1/2+z
1/2+x,1/2-y,1/2+z
loop_
_atom_site_type_symbol
_atom_site_label
_atom_site_fract_x
_atom_site_fract_y
_atom_site_fract_z
Si Si1 0.834114 0.572972 0.061432
Si Si2 0.369860 0.460002 0.619168
Si Si3 0.695758 0.114356 0.791060
Si Si4 0.444010 0.179919 0.607077
O O1 0.697223 0.566050 0.080819
O O2 0.885589 0.426038 0.067265
O O3 0.913763 0.673786 0.097567
O O4 0.837183 0.621392 0.000000
O O5 0.500000 0.500000 0.635793
O O6 0.298674 0.450984 0.674155
O O7 0.383851 0.317694 0.590301
O O8 0.750000 0.250000 0.764685
O O9 0.584398 0.148599 0.829946
O O10 0.654853 0.000000 0.750000
#
# Coordination Sequence:
#
# PCOD8276753 Si02
#       4
#    16  16  16  16
#     4  10  20  37  62  88 116 159 210 248 299 366
#     4  10  22  39  58  84 128 159 194 254 312 362
#     4   9  19  40  65  89 118 159 204 247 307 374
#     4   9  19  38  61  85 120 153 204 253 303 359
#
# _framework density 22.506008000000001
#
# number of rings (size 3 to 8) (size 9 to 14) (size 15 to 20)
#    0.000    2.500    0.000    3.750    0.000    5.000 
#   13.500   11.250   16.500    0.000    0.000    0.000 
#    0.000    0.000    0.000    0.000    0.000    0.000 
#
# Total GULP energy -396448.723437 kJ/mol
# GULP energy per Si atom -12389.022607 kJ/mol
# Density = 2.245478 g / cm^3
# Si number density = 22.506008 Si / 1000 Ang^3
#
#
#
# Elastic Constant Matrix: (Units=GPa)
#
#
# Indices 1 2 3 4 5 6 
#
# 1 137.0676 37.3235 42.5932 0.0000 0.0000 0.0000
# 2 37.3235 54.8732 45.2960 0.0000 0.0000 0.0000
# 3 42.5932 45.2960 96.3473 0.0000 0.0000 0.0000
# 4 0.0000 0.0000 0.0000 7.6918 0.0000 0.0000
# 5 0.0000 0.0000 0.0000 0.0000 3.9240 0.0000
# 6 0.0000 0.0000 0.0000 0.0000 0.0000 27.5938
#
#
#
# Elastic Compliance Matrix: (Units=1/GPa)
#
#
# Indices 1 2 3 4 5 6 
#
# 1 0.009147 -0.004712 -0.001828 0.000000 0.000000 0.000000
# 2 -0.004712 0.032209 -0.013059 0.000000 0.000000 0.000000
# 3 -0.001828 -0.013059 0.017327 0.000000 0.000000 0.000000
# 4 0.000000 0.000000 0.000000 0.130008 0.000000 0.000000
# 5 0.000000 0.000000 0.000000 0.000000 0.254840 0.000000
# 6 0.000000 0.000000 0.000000 0.000000 0.000000 0.036240
#
#
# Mechanical properties :
#
#
# Convention : Reuss Voigt Hill
#
# Bulk Modulus (GPa) = 51.32642 59.85707 55.59174
# Shear Modulus (GPa) = 9.51537 18.71361 14.11449
#
# Velocity S-wave (km/s) = 2.05842 2.88669 2.50700
# Velocity P-wave (km/s) = 5.33897 6.14528 5.75626
#
# Compressibility (1/GPa) = 0.01948315
#
# Stress axis : x y z
#
# Youngs Moduli (GPa) = 109.32570 31.04714 57.71364
#
# Poissons Ratio (x) = 0.14631 0.10551
# Poissons Ratio (y) = 0.51519 0.75370
# Poissons Ratio (z) = 0.19987 0.40545
#
# Static dielectric constant tensor:
#      x y z
#    x 4.473640 0.000000 0.000000 
#    y 0.000000 4.271730 0.000000 
#    z 0.000000 0.000000 3.605650 
# 
# 
# High freq. dielectric constant tensor:
#      x y z
#    x 1.896100 0.000000 0.000000 
#    y 0.000000 1.889120 0.000000 
#    z 0.000000 0.000000 1.846880 
# 
# From -- ./inp_files/47993.got.cif
#   From: 2010.03.12/outbox.cif.g09.slc.cpg/sg66_24_cif.got.tgz:47993.got - 2010.04.10 21:57:39.
