data_PCOD8276623
_publ_section_title
;
Structure prediction by ZEFSAII (Michael W. Deem and Ramdas Pophale) SiO2 
 PCOD8276623
Probable space group: C C C M
;
_chemical_formula_sum "Si O2"
_cell_formula_units_Z 116
_cell_length_a 26.533385
_cell_length_b 24.398199
_cell_length_c 8.935736
_cell_angle_alpha 90.000000
_cell_angle_beta 90.000000
_cell_angle_gamma 90.000000
_cell_volume 5784.698886
_symmetry_space_group_name_H-M "C C C M"
_symmetry_group_IT_number 66
_symmetry_cell_setting 'orthorhombic'
loop_
_space_group_symop_operation_xyz
x,y,z
-x,-y,z
x,-y,1/2-z
-x,y,1/2-z
-x,-y,-z
x,y,-z
-x,y,1/2+z
x,-y,1/2+z
1/2+x,1/2+y,z
1/2-x,1/2-y,z
1/2+x,1/2-y,1/2-z
1/2-x,1/2+y,1/2-z
1/2-x,1/2-y,-z
1/2+x,1/2+y,-z
1/2-x,1/2+y,1/2+z
1/2+x,1/2-y,1/2+z
loop_
_atom_site_type_symbol
_atom_site_label
_atom_site_fract_x
_atom_site_fract_y
_atom_site_fract_z
Si Si1 0.500000 0.500000 0.250000
Si Si2 0.694209 0.746199 0.330596
Si Si3 0.180442 0.058070 0.324294
Si Si4 0.417413 0.414477 0.835930
Si Si5 0.223318 0.559531 0.678143
Si Si6 0.398808 0.705516 0.670737
Si Si7 0.645045 0.135642 0.171642
Si Si8 0.447322 0.817227 0.321838
O O1 0.535984 0.542560 0.161980
O O2 0.700006 0.724744 0.500000
O O3 0.750000 0.750000 0.255677
O O4 0.655764 0.703022 0.253077
O O5 0.670982 0.805794 0.320775
O O6 0.188683 0.056921 0.500000
O O7 0.123492 0.075767 0.291804
O O8 0.226667 0.091075 0.246473
O O9 0.187750 0.000000 0.250000
O O10 0.431844 0.350539 0.809905
O O11 0.392241 0.420676 0.000000
O O12 0.216709 0.500000 0.750000
O O13 0.227413 0.555834 0.500000
O O14 0.175086 0.593581 0.726510
O O15 0.384783 0.716402 0.500000
O O16 0.432859 0.755370 0.729998
O O17 0.590723 0.139482 0.248875
O O18 0.640699 0.115247 0.000000
O O19 0.500000 0.832198 0.250000
O O20 0.448723 0.823437 0.500000
#
# Coordination Sequence:
#
# PCOD8276623 Si02
#       8
#     4  16  16  16  16  16  16  16
#     4  12  26  40  68  82 118 160 210 268 334 376
#     4   9  19  35  55  84 119 153 192 239 295 364
#     4  11  22  38  59  82 111 149 193 242 296 356
#     4  11  24  42  59  83 114 150 201 257 316 373
#     4  11  22  38  61  90 124 160 200 242 290 349
#     4   9  21  38  56  81 114 151 196 248 302 365
#     4  10  20  36  58  87 123 158 198 243 294 356
#     4  10  20  37  60  86 117 154 197 246 300 355
#
# _framework density 20.052900999999999
#
# number of rings (size 3 to 8) (size 9 to 14) (size 15 to 20)
#    0.000    1.793    0.690    4.345    2.897    2.483 
#    0.000    0.000    0.000    0.414    0.000    2.897 
#    0.000    0.000    0.000    0.000    0.000    0.000 
#
# Total GULP energy -718666.515492 kJ/mol
# GULP energy per Si atom -12390.801991 kJ/mol
# Density = 2.000726 g / cm^3
# Si number density = 20.052901 Si / 1000 Ang^3
#
#
#
# Elastic Constant Matrix: (Units=GPa)
#
#
# Indices 1 2 3 4 5 6 
#
# 1 138.4290 36.6426 52.1437 0.0000 0.0000 0.0000
# 2 36.6426 58.1627 30.0475 0.0000 0.0000 0.0000
# 3 52.1437 30.0475 139.6409 0.0000 0.0000 0.0000
# 4 0.0000 0.0000 0.0000 23.0831 0.0000 0.0000
# 5 0.0000 0.0000 0.0000 0.0000 32.5387 0.0000
# 6 0.0000 0.0000 0.0000 0.0000 0.0000 25.8263
#
#
#
# Elastic Compliance Matrix: (Units=1/GPa)
#
#
# Indices 1 2 3 4 5 6 
#
# 1 0.009394 -0.004619 -0.002514 0.000000 0.000000 0.000000
# 2 -0.004619 0.021615 -0.002926 0.000000 0.000000 0.000000
# 3 -0.002514 -0.002926 0.008730 0.000000 0.000000 0.000000
# 4 0.000000 0.000000 0.000000 0.043322 0.000000 0.000000
# 5 0.000000 0.000000 0.000000 0.000000 0.030733 0.000000
# 6 0.000000 0.000000 0.000000 0.000000 0.000000 0.038720
#
#
# Mechanical properties :
#
#
# Convention : Reuss Voigt Hill
#
# Bulk Modulus (GPa) = 50.96910 63.76670 57.36790
# Shear Modulus (GPa) = 27.90632 30.78287 29.34460
#
# Velocity S-wave (km/s) = 3.73451 3.92226 3.82954
# Velocity P-wave (km/s) = 6.63837 7.23744 6.94436
#
# Compressibility (1/GPa) = 0.01961973
#
# Stress axis : x y z
#
# Youngs Moduli (GPa) = 106.45616 46.26411 114.55392
#
# Poissons Ratio (x) = 0.21371 0.28795
# Poissons Ratio (y) = 0.49176 0.33520
# Poissons Ratio (z) = 0.26760 0.13538
#
# Static dielectric constant tensor:
#      x y z
#    x 4.204070 0.000000 0.000000 
#    y 0.000000 3.607300 0.000000 
#    z 0.000000 0.000000 3.856280 
# 
# 
# High freq. dielectric constant tensor:
#      x y z
#    x 1.783710 0.000000 0.000000 
#    y 0.000000 1.766890 0.000000 
#    z 0.000000 0.000000 1.787300 
# 
# From -- ./inp_files/10593.got.cif
#   From: 2010.03.12/outbox.cif.g09.slc.cpg/sg66_6_cif.got.tgz:10593.got - 2010.04.10 21:57:39.
