data_PCOD8276501
_publ_section_title
;
Structure prediction by ZEFSAII (Michael W. Deem and Ramdas Pophale) SiO2 
 PCOD8276501
Probable space group: C C C M
;
_chemical_formula_sum "Si O2"
_cell_formula_units_Z 96
_cell_length_a 27.697834
_cell_length_b 20.612043
_cell_length_c 8.740461
_cell_angle_alpha 90.000000
_cell_angle_beta 90.000000
_cell_angle_gamma 90.000000
_cell_volume 4990.007372
_symmetry_space_group_name_H-M "C C C M"
_symmetry_group_IT_number 66
_symmetry_cell_setting 'orthorhombic'
loop_
_space_group_symop_operation_xyz
x,y,z
-x,-y,z
x,-y,1/2-z
-x,y,1/2-z
-x,-y,-z
x,y,-z
-x,y,1/2+z
x,-y,1/2+z
1/2+x,1/2+y,z
1/2-x,1/2-y,z
1/2+x,1/2-y,1/2-z
1/2-x,1/2+y,1/2-z
1/2-x,1/2-y,-z
1/2+x,1/2+y,-z
1/2-x,1/2+y,1/2+z
1/2+x,1/2-y,1/2+z
loop_
_atom_site_type_symbol
_atom_site_label
_atom_site_fract_x
_atom_site_fract_y
_atom_site_fract_z
Si Si1 0.947986 0.306213 0.680432
Si Si2 0.893548 0.432941 0.318986
Si Si3 0.723071 0.687207 0.818266
Si Si4 0.783588 0.566608 0.180979
Si Si5 0.448796 0.430927 0.681423
Si Si6 0.612719 0.681036 0.819417
O O1 0.952841 0.309813 0.500000
O O2 0.925392 0.373240 0.744026
O O3 0.913749 0.247070 0.729245
O O4 0.000000 0.293947 0.750000
O O5 0.914024 0.500000 0.250000
O O6 0.896669 0.437311 0.500000
O O7 0.838557 0.421257 0.264899
O O8 0.750000 0.750000 0.749850
O O9 0.750167 0.623873 0.753578
O O10 0.667811 0.687535 0.765438
O O11 0.726516 0.688340 0.000000
O O12 0.763328 0.500000 0.250000
O O13 0.780534 0.562653 0.000000
O O14 0.433033 0.500000 0.750000
O O15 0.500000 0.408513 0.750000
O O16 0.453291 0.436592 0.500000
O O17 0.409014 0.378740 0.726835
O O18 0.608093 0.667794 0.000000
#
# Coordination Sequence:
#
# PCOD8276501 Si02
#       6
#    16  16  16  16  16  16
#     4  10  21  35  52  74 102 135 172 214 259 309
#     4   9  18  33  52  75 102 134 171 212 258 307
#     4   9  17  31  54  80 104 136 179 221 258 303
#     4   9  17  31  52  76 102 132 167 207 251 300
#     4  11  22  38  59  82 109 141 178 219 266 320
#     4  10  20  35  55  80 109 141 178 220 265 315
#
# _framework density 19.238447000000001
#
# number of rings (size 3 to 8) (size 9 to 14) (size 15 to 20)
#    0.000    2.333    0.000    3.500    0.000    7.667 
#    0.000    4.167    0.000    4.000    0.000    0.000 
#    0.000    0.000    0.000    0.000    0.000    0.000 
#
# Total GULP energy -595297.351913 kJ/mol
# GULP energy per Si atom -12402.028165 kJ/mol
# Density = 1.919466 g / cm^3
# Si number density = 19.238447 Si / 1000 Ang^3
#
#
#
# Elastic Constant Matrix: (Units=GPa)
#
#
# Indices 1 2 3 4 5 6 
#
# 1 119.3338 75.6636 33.7093 0.0000 0.0000 0.0000
# 2 75.6636 150.5312 37.9812 0.0000 0.0000 0.0000
# 3 33.7093 37.9812 47.7562 0.0000 0.0000 0.0000
# 4 0.0000 0.0000 0.0000 29.6932 0.0000 0.0000
# 5 0.0000 0.0000 0.0000 0.0000 22.8916 0.0000
# 6 0.0000 0.0000 0.0000 0.0000 0.0000 43.6448
#
#
#
# Elastic Compliance Matrix: (Units=1/GPa)
#
#
# Indices 1 2 3 4 5 6 
#
# 1 0.013209 -0.005363 -0.005058 0.000000 0.000000 0.000000
# 2 -0.005363 0.010488 -0.004556 0.000000 0.000000 0.000000
# 3 -0.005058 -0.004556 0.028134 0.000000 0.000000 0.000000
# 4 0.000000 0.000000 0.000000 0.033678 0.000000 0.000000
# 5 0.000000 0.000000 0.000000 0.000000 0.043684 0.000000
# 6 0.000000 0.000000 0.000000 0.000000 0.000000 0.022912
#
#
# Mechanical properties :
#
#
# Convention : Reuss Voigt Hill
#
# Bulk Modulus (GPa) = 45.71190 68.03661 56.87425
# Shear Modulus (GPa) = 26.40572 30.59707 28.50139
#
# Velocity S-wave (km/s) = 3.70881 3.99232 3.85318
# Velocity P-wave (km/s) = 6.49251 7.52949 7.03015
#
# Compressibility (1/GPa) = 0.02187614
#
# Stress axis : x y z
#
# Youngs Moduli (GPa) = 75.70390 95.34272 35.54463
#
# Poissons Ratio (x) = 0.51135 0.17980
# Poissons Ratio (y) = 0.40602 0.16194
# Poissons Ratio (z) = 0.38295 0.43437
#
# Static dielectric constant tensor:
#      x y z
#    x 3.482330 0.000000 0.000000 
#    y 0.000000 3.775950 0.000000 
#    z 0.000000 0.000000 3.210960 
# 
# 
# High freq. dielectric constant tensor:
#      x y z
#    x 1.750120 0.000000 0.000000 
#    y 0.000000 1.766100 0.000000 
#    z 0.000000 0.000000 1.719690 
# 
# From -- ./inp_files/7999.got.cif
#   From: 2010.03.12/outbox.cif.g09.slc.cpg/sg66_4_cif.got.tgz:7999.got - 2010.04.10 21:57:39.
