data_PCOD8276395
_publ_section_title
;
Structure prediction by ZEFSAII (Michael W. Deem and Ramdas Pophale) SiO2 
 PCOD8276395
Probable space group: C C C M
;
_chemical_formula_sum "Si O2"
_cell_formula_units_Z 68
_cell_length_a 21.398194
_cell_length_b 16.269800
_cell_length_c 10.415582
_cell_angle_alpha 90.000000
_cell_angle_beta 90.000000
_cell_angle_gamma 90.000000
_cell_volume 3626.125887
_symmetry_space_group_name_H-M "C C C M"
_symmetry_group_IT_number 66
_symmetry_cell_setting 'orthorhombic'
loop_
_space_group_symop_operation_xyz
x,y,z
-x,-y,z
x,-y,1/2-z
-x,y,1/2-z
-x,-y,-z
x,y,-z
-x,y,1/2+z
x,-y,1/2+z
1/2+x,1/2+y,z
1/2-x,1/2-y,z
1/2+x,1/2-y,1/2-z
1/2-x,1/2+y,1/2-z
1/2-x,1/2-y,-z
1/2+x,1/2+y,-z
1/2-x,1/2+y,1/2+z
1/2+x,1/2-y,1/2+z
loop_
_atom_site_type_symbol
_atom_site_label
_atom_site_fract_x
_atom_site_fract_y
_atom_site_fract_z
Si Si1 0.589362 0.363163 0.648302
Si Si2 0.844310 0.435684 0.644740
Si Si3 0.000000 0.000000 0.750000
Si Si4 0.045877 0.311833 0.854659
Si Si5 0.225865 0.836612 0.348260
O O1 0.601807 0.353686 0.500000
O O2 0.546475 0.443011 0.668654
O O3 0.554582 0.281296 0.695306
O O4 0.658917 0.365612 0.712055
O O5 0.868851 0.500000 0.750000
O O6 0.845588 0.473548 0.500000
O O7 0.887633 0.355765 0.648500
O O8 0.774996 0.408054 0.685162
O O9 0.000000 0.354108 0.750000
O O10 0.017835 0.316166 0.000000
O O11 0.220762 0.825191 0.500000
O O12 0.250000 0.750000 0.288291
#
# Coordination Sequence:
#
# PCOD8276395 Si02
#       5
#    16  16   4  16  16
#     4  10  20  34  52  78 111 144 187 227 274 337
#     4  10  21  36  58  84 113 144 187 238 283 328
#     4  12  22  32  52  82 114 144 180 224 298 340
#     4  10  20  37  58  81 108 148 188 227 275 336
#     4   9  16  32  57  79 101 142 191 231 267 325
#
# _framework density 18.752796
#
# number of rings (size 3 to 8) (size 9 to 14) (size 15 to 20)
#    0.000    2.118    3.529    0.353    1.647    1.412 
#    0.000    2.353    0.000    2.118    0.000    0.000 
#    0.000    0.000    0.000    0.000    0.000    0.000 
#
# Total GULP energy -421313.314401 kJ/mol
# GULP energy per Si atom -12391.568071 kJ/mol
# Density = 1.871011 g / cm^3
# Si number density = 18.752796 Si / 1000 Ang^3
#
#
#
# Elastic Constant Matrix: (Units=GPa)
#
#
# Indices 1 2 3 4 5 6 
#
# 1 118.5897 27.6771 31.4392 0.0000 0.0000 0.0000
# 2 27.6771 88.1222 26.3347 0.0000 0.0000 0.0000
# 3 31.4392 26.3347 62.2832 0.0000 0.0000 0.0000
# 4 0.0000 0.0000 0.0000 21.6723 0.0000 0.0000
# 5 0.0000 0.0000 0.0000 0.0000 22.6946 0.0000
# 6 0.0000 0.0000 0.0000 0.0000 0.0000 -56.2842
#
#
#
# Elastic Compliance Matrix: (Units=1/GPa)
#
#
# Indices 1 2 3 4 5 6 
#
# 1 0.009997 -0.001868 -0.004256 0.000000 0.000000 0.000000
# 2 -0.001868 0.013338 -0.004697 0.000000 0.000000 0.000000
# 3 -0.004256 -0.004697 0.020190 0.000000 0.000000 0.000000
# 4 0.000000 0.000000 0.000000 0.046142 0.000000 0.000000
# 5 0.000000 0.000000 0.000000 0.000000 0.044063 0.000000
# 6 0.000000 0.000000 0.000000 0.000000 0.000000 -0.017767
#
#
# Mechanical properties :
#
#
# Convention : Reuss Voigt Hill
#
# Bulk Modulus (GPa) = 45.69754 48.87745 47.28749
# Shear Modulus (GPa) = 34.50664 9.85281 22.17972
#
# Velocity S-wave (km/s) = 4.29427 2.29466 3.44283
# Velocity P-wave (km/s) = 7.00064 5.75685 6.40899
#
# Compressibility (1/GPa) = 0.02188302
#
# Stress axis : x y z
#
# Youngs Moduli (GPa) = 100.03242 74.97318 49.52907
#
# Poissons Ratio (x) = 0.14003 0.21082
# Poissons Ratio (y) = 0.18684 0.23263
# Poissons Ratio (z) = 0.42578 0.35214
#
# Static dielectric constant tensor:
#      x y z
#    x 3.678830 0.000000 0.000000 
#    y 0.000000 3.383520 0.000000 
#    z 0.000000 0.000000 3.075040 
# 
# 
# High freq. dielectric constant tensor:
#      x y z
#    x 1.744620 0.000000 0.000000 
#    y 0.000000 1.721460 0.000000 
#    z 0.000000 0.000000 1.686540 
# 
# From -- ./inp_files/6266.got.cif
#   From: 2010.03.12/outbox.cif.g09.slc.cpg/sg66_4_cif.got.tgz:6266.got - 2010.04.10 21:57:39.
