data_PCOD8276352
_publ_section_title
;
Structure prediction by ZEFSAII (Michael W. Deem and Ramdas Pophale) SiO2 
 PCOD8276352
Probable space group: C C C M
;
_chemical_formula_sum "Si O2"
_cell_formula_units_Z 64
_cell_length_a 23.019092
_cell_length_b 8.924027
_cell_length_c 16.655820
_cell_angle_alpha 90.000000
_cell_angle_beta 90.000000
_cell_angle_gamma 90.000000
_cell_volume 3421.488487
_symmetry_space_group_name_H-M "C C C M"
_symmetry_group_IT_number 66
_symmetry_cell_setting 'orthorhombic'
loop_
_space_group_symop_operation_xyz
x,y,z
-x,-y,z
x,-y,1/2-z
-x,y,1/2-z
-x,-y,-z
x,y,-z
-x,y,1/2+z
x,-y,1/2+z
1/2+x,1/2+y,z
1/2-x,1/2-y,z
1/2+x,1/2-y,1/2-z
1/2-x,1/2+y,1/2-z
1/2-x,1/2-y,-z
1/2+x,1/2+y,-z
1/2-x,1/2+y,1/2+z
1/2+x,1/2-y,1/2+z
loop_
_atom_site_type_symbol
_atom_site_label
_atom_site_fract_x
_atom_site_fract_y
_atom_site_fract_z
Si Si1 0.919340 0.393231 0.175331
Si Si2 0.993833 0.170388 0.408097
Si Si3 0.624605 0.170087 0.589289
Si Si4 0.691553 0.172620 0.257061
O O1 0.938344 0.500000 0.250000
O O2 0.901041 0.503243 0.103204
O O3 0.864063 0.289939 0.200832
O O4 0.970595 0.283520 0.148762
O O5 0.016040 0.186149 0.500000
O O6 0.926465 0.209511 0.400841
O O7 0.000000 0.000000 0.377509
O O8 0.650934 0.176304 0.500000
O O9 0.675794 0.213751 0.650956
O O10 0.750000 0.250000 0.226897
O O11 0.705363 0.000000 0.250000
#
# Coordination Sequence:
#
# PCOD8276352 Si02
#       4
#    16  16  16  16
#     4   9  19  34  52  74 103 137 176 208 250 312
#     4  10  20  33  52  81 111 135 165 212 264 307
#     4   9  18  33  53  75 100 135 173 206 249 309
#     4   9  20  35  51  71  97 130 171 214 255 301
#
# _framework density 18.705309
#
# number of rings (size 3 to 8) (size 9 to 14) (size 15 to 20)
#    0.000    3.250    0.000    1.500    0.000   12.500 
#    0.000    8.750    0.000   18.750    0.000    0.000 
#    0.000    0.000    0.000    0.000    0.000    0.000 
#
# Total GULP energy -396603.021870 kJ/mol
# GULP energy per Si atom -12393.844433 kJ/mol
# Density = 1.866274 g / cm^3
# Si number density = 18.705309 Si / 1000 Ang^3
#
#
#
# Elastic Constant Matrix: (Units=GPa)
#
#
# Indices 1 2 3 4 5 6 
#
# 1 72.7648 26.1582 34.3734 0.0000 0.0000 0.0000
# 2 26.1582 57.4900 26.9269 0.0000 0.0000 0.0000
# 3 34.3734 26.9269 76.8924 0.0000 0.0000 0.0000
# 4 0.0000 0.0000 0.0000 21.0642 0.0000 0.0000
# 5 0.0000 0.0000 0.0000 0.0000 20.4558 0.0000
# 6 0.0000 0.0000 0.0000 0.0000 0.0000 36.0587
#
#
#
# Elastic Compliance Matrix: (Units=1/GPa)
#
#
# Indices 1 2 3 4 5 6 
#
# 1 0.018779 -0.005518 -0.006463 0.000000 0.000000 0.000000
# 2 -0.005518 0.022428 -0.005388 0.000000 0.000000 0.000000
# 3 -0.006463 -0.005388 0.017781 0.000000 0.000000 0.000000
# 4 0.000000 0.000000 0.000000 0.047474 0.000000 0.000000
# 5 0.000000 0.000000 0.000000 0.000000 0.048886 0.000000
# 6 0.000000 0.000000 0.000000 0.000000 0.000000 0.027733
#
#
# Mechanical properties :
#
#
# Convention : Reuss Voigt Hill
#
# Bulk Modulus (GPa) = 41.23274 42.45158 41.84216
# Shear Modulus (GPa) = 22.13357 23.49499 22.81428
#
# Velocity S-wave (km/s) = 3.44361 3.54794 3.49616
# Velocity P-wave (km/s) = 6.15650 6.28713 6.22216
#
# Compressibility (1/GPa) = 0.02425257
#
# Stress axis : x y z
#
# Youngs Moduli (GPa) = 53.24972 44.58647 56.24004
#
# Poissons Ratio (x) = 0.24602 0.36347
# Poissons Ratio (y) = 0.29382 0.30300
# Poissons Ratio (z) = 0.34414 0.24021
#
# Static dielectric constant tensor:
#      x y z
#    x 3.419660 0.000000 0.000000 
#    y 0.000000 3.313830 0.000000 
#    z 0.000000 0.000000 3.561980 
# 
# 
# High freq. dielectric constant tensor:
#      x y z
#    x 1.715040 0.000000 0.000000 
#    y 0.000000 1.711390 0.000000 
#    z 0.000000 0.000000 1.727110 
# 
# From -- ./inp_files/31908.got.cif
#   From: 2010.03.12/outbox.cif.g09.slc.cpg/sg66_16_cif.got.tgz:31908.got - 2010.04.10 21:57:39.
