data_PCOD8276563
_publ_section_title
;
Structure prediction by ZEFSAII (Michael W. Deem and Ramdas Pophale) SiO2 
 PCOD8276563
Probable space group: C C C M
;
_chemical_formula_sum "Si O2"
_cell_formula_units_Z 72
_cell_length_a 20.643485
_cell_length_b 12.013694
_cell_length_c 14.345639
_cell_angle_alpha 90.000000
_cell_angle_beta 90.000000
_cell_angle_gamma 90.000000
_cell_volume 3557.783198
_symmetry_space_group_name_H-M "C C C M"
_symmetry_group_IT_number 66
_symmetry_cell_setting 'orthorhombic'
loop_
_space_group_symop_operation_xyz
x,y,z
-x,-y,z
x,-y,1/2-z
-x,y,1/2-z
-x,-y,-z
x,y,-z
-x,y,1/2+z
x,-y,1/2+z
1/2+x,1/2+y,z
1/2-x,1/2-y,z
1/2+x,1/2-y,1/2-z
1/2-x,1/2+y,1/2-z
1/2-x,1/2-y,-z
1/2+x,1/2+y,-z
1/2-x,1/2+y,1/2+z
1/2+x,1/2-y,1/2+z
loop_
_atom_site_type_symbol
_atom_site_label
_atom_site_fract_x
_atom_site_fract_y
_atom_site_fract_z
Si Si1 0.531051 0.109946 0.603789
Si Si2 0.500000 0.288138 0.750000
Si Si3 0.800198 0.005611 0.390387
Si Si4 0.164658 0.405515 0.179093
Si Si5 0.356697 0.337503 0.246786
O O1 0.504303 0.123742 0.500000
O O2 0.506728 0.215996 0.658141
O O3 0.608860 0.104455 0.602197
O O4 0.500000 0.000000 0.649649
O O5 0.433351 0.355213 0.732394
O O6 0.811208 0.981781 0.500000
O O7 0.729269 0.056219 0.372810
O O8 0.848127 0.100563 0.352492
O O9 0.813446 0.893907 0.329217
O O10 0.142376 0.500000 0.250000
O O11 0.168776 0.288950 0.236320
#
# Coordination Sequence:
#
# PCOD8276563 Si02
#       5
#    16   8  16  16  16
#     4  10  20  35  58  92 124 159 206 254 313 376
#     4  10  21  39  62  84 120 168 205 257 314 364
#     4  11  24  41  63  92 125 167 213 260 310 371
#     4  11  21  39  66  90 129 165 200 256 315 379
#     4  10  23  42  63  90 124 163 211 260 311 375
#
# _framework density 20.237321000000001
#
# number of rings (size 3 to 8) (size 9 to 14) (size 15 to 20)
#    0.000    1.556    2.222    4.333    0.000    8.000 
#    0.000    4.444    0.000    0.000    0.000    0.000 
#    0.000    0.000    0.000    0.000    0.000    0.000 
#
# Total GULP energy -446143.461999 kJ/mol
# GULP energy per Si atom -12392.873944 kJ/mol
# Density = 2.019126 g / cm^3
# Si number density = 20.237321 Si / 1000 Ang^3
#
#
#
# Elastic Constant Matrix: (Units=GPa)
#
#
# Indices 1 2 3 4 5 6 
#
# 1 145.6128 34.2111 34.1638 0.0000 0.0000 0.0000
# 2 34.2111 124.6753 44.6122 0.0000 0.0000 0.0000
# 3 34.1638 44.6122 122.2336 0.0000 0.0000 0.0000
# 4 0.0000 0.0000 0.0000 17.5798 0.0000 0.0000
# 5 0.0000 0.0000 0.0000 0.0000 25.6294 0.0000
# 6 0.0000 0.0000 0.0000 0.0000 0.0000 32.1050
#
#
#
# Elastic Compliance Matrix: (Units=1/GPa)
#
#
# Indices 1 2 3 4 5 6 
#
# 1 0.007593 -0.001523 -0.001566 0.000000 0.000000 0.000000
# 2 -0.001523 0.009531 -0.003053 0.000000 0.000000 0.000000
# 3 -0.001566 -0.003053 0.009733 0.000000 0.000000 0.000000
# 4 0.000000 0.000000 0.000000 0.056884 0.000000 0.000000
# 5 0.000000 0.000000 0.000000 0.000000 0.039018 0.000000
# 6 0.000000 0.000000 0.000000 0.000000 0.000000 0.031148
#
#
# Mechanical properties :
#
#
# Convention : Reuss Voigt Hill
#
# Bulk Modulus (GPa) = 68.62225 68.72177 68.67201
# Shear Modulus (GPa) = 29.23153 33.69848 31.46501
#
# Velocity S-wave (km/s) = 3.80470 4.08507 3.94737
# Velocity P-wave (km/s) = 7.29954 7.50214 7.40153
#
# Compressibility (1/GPa) = 0.01457253
#
# Stress axis : x y z
#
# Youngs Moduli (GPa) = 131.70292 104.91870 102.74228
#
# Poissons Ratio (x) = 0.15979 0.16093
# Poissons Ratio (y) = 0.20059 0.31367
# Poissons Ratio (z) = 0.20629 0.32031
#
# Static dielectric constant tensor:
#      x y z
#    x 4.217680 0.000000 0.000000 
#    y 0.000000 3.747410 0.000000 
#    z 0.000000 0.000000 3.485690 
# 
# 
# High freq. dielectric constant tensor:
#      x y z
#    x 1.805100 0.000000 0.000000 
#    y 0.000000 1.790760 0.000000 
#    z 0.000000 0.000000 1.778260 
# 
# From -- ./inp_files/32024.got.cif
#   From: 2010.03.12/outbox.cif.g09.slc.cpg/sg66_17_cif.got.tgz:32024.got - 2010.04.10 21:57:39.
