data_PCOD8276408
_publ_section_title
;
Structure prediction by ZEFSAII (Michael W. Deem and Ramdas Pophale) SiO2 
 PCOD8276408
Probable space group: C C C M
;
_chemical_formula_sum "Si O2"
_cell_formula_units_Z 96
_cell_length_a 18.351544
_cell_length_b 28.515113
_cell_length_c 9.069556
_cell_angle_alpha 90.000000
_cell_angle_beta 90.000000
_cell_angle_gamma 90.000000
_cell_volume 4746.065559
_symmetry_space_group_name_H-M "C C C M"
_symmetry_group_IT_number 66
_symmetry_cell_setting 'orthorhombic'
loop_
_space_group_symop_operation_xyz
x,y,z
-x,-y,z
x,-y,1/2-z
-x,y,1/2-z
-x,-y,-z
x,y,-z
-x,y,1/2+z
x,-y,1/2+z
1/2+x,1/2+y,z
1/2-x,1/2-y,z
1/2+x,1/2-y,1/2-z
1/2-x,1/2+y,1/2-z
1/2-x,1/2-y,-z
1/2+x,1/2+y,-z
1/2-x,1/2+y,1/2+z
1/2+x,1/2-y,1/2+z
loop_
_atom_site_type_symbol
_atom_site_label
_atom_site_fract_x
_atom_site_fract_y
_atom_site_fract_z
Si Si1 0.927281 0.396068 0.324413
Si Si2 0.683566 0.719878 0.164068
Si Si3 0.137568 0.047478 0.329047
Si Si4 0.077533 0.851806 0.823800
Si Si5 0.940001 0.292078 0.656439
Si Si6 0.305609 0.952628 0.826302
O O1 0.927123 0.404961 0.500000
O O2 0.921768 0.342183 0.273515
O O3 0.853621 0.413616 0.250663
O O4 0.000000 0.418714 0.250000
O O5 0.750000 0.750000 0.238039
O O6 0.645903 0.679520 0.264030
O O7 0.629050 0.761324 0.137600
O O8 0.704633 0.699545 0.000000
O O9 0.127620 0.037325 0.500000
O O10 0.092665 0.093789 0.281728
O O11 0.221463 0.057702 0.289443
O O12 0.108906 0.000000 0.250000
O O13 0.000000 0.837608 0.750000
O O14 0.072891 0.844681 0.000000
O O15 0.977132 0.302316 0.500000
O O16 0.000000 0.264011 0.750000
O O17 0.331428 0.000000 0.750000
O O18 0.320359 0.954780 0.000000
#
# Coordination Sequence:
#
# PCOD8276408 Si02
#       6
#    16  16  16  16  16  16
#     4  10  20  34  53  79 109 146 190 237 289 344
#     4  10  22  39  60  89 122 158 200 244 293 352
#     4   9  21  40  62  89 121 156 199 246 301 363
#     4  11  24  42  63  92 126 162 203 250 303 359
#     4   9  19  35  54  78 109 147 189 233 281 336
#     4  10  20  36  56  80 110 146 187 237 292 351
#
# _framework density 20.227281000000001
#
# number of rings (size 3 to 8) (size 9 to 14) (size 15 to 20)
#    0.000    2.167    0.000    2.000    2.333    5.667 
#    0.000    3.333    0.000    0.000    0.000    0.000 
#    0.000    0.000    0.000    0.000    0.000    0.000 
#
# Total GULP energy -594635.789336 kJ/mol
# GULP energy per Si atom -12388.245611 kJ/mol
# Density = 2.018124 g / cm^3
# Si number density = 20.227281 Si / 1000 Ang^3
#
#
#
# Elastic Constant Matrix: (Units=GPa)
#
#
# Indices 1 2 3 4 5 6 
#
# 1 73.2823 44.6529 40.4409 0.0000 0.0000 0.0000
# 2 44.6529 97.3044 46.8022 0.0000 0.0000 0.0000
# 3 40.4409 46.8022 96.3041 0.0000 0.0000 0.0000
# 4 0.0000 0.0000 0.0000 38.9768 0.0000 0.0000
# 5 0.0000 0.0000 0.0000 0.0000 27.0066 0.0000
# 6 0.0000 0.0000 0.0000 0.0000 0.0000 27.8610
#
#
#
# Elastic Compliance Matrix: (Units=1/GPa)
#
#
# Indices 1 2 3 4 5 6 
#
# 1 0.020869 -0.006997 -0.005363 0.000000 0.000000 0.000000
# 2 -0.006997 0.015758 -0.004720 0.000000 0.000000 0.000000
# 3 -0.005363 -0.004720 0.014930 0.000000 0.000000 0.000000
# 4 0.000000 0.000000 0.000000 0.025656 0.000000 0.000000
# 5 0.000000 0.000000 0.000000 0.000000 0.037028 0.000000
# 6 0.000000 0.000000 0.000000 0.000000 0.000000 0.035892
#
#
# Mechanical properties :
#
#
# Convention : Reuss Voigt Hill
#
# Bulk Modulus (GPa) = 57.48222 58.96475 58.22349
# Shear Modulus (GPa) = 26.30294 27.76854 27.03574
#
# Velocity S-wave (km/s) = 3.60998 3.70919 3.65992
# Velocity P-wave (km/s) = 6.77169 6.89627 6.83426
#
# Compressibility (1/GPa) = 0.01739668
#
# Stress axis : x y z
#
# Youngs Moduli (GPa) = 47.91789 63.45867 66.98086
#
# Poissons Ratio (x) = 0.44404 0.35922
# Poissons Ratio (y) = 0.33529 0.31614
# Poissons Ratio (z) = 0.25698 0.29952
#
# Static dielectric constant tensor:
#      x y z
#    x 3.980170 0.000000 0.000000 
#    y 0.000000 3.805240 0.000000 
#    z 0.000000 0.000000 3.109160 
# 
# 
# High freq. dielectric constant tensor:
#      x y z
#    x 1.791190 0.000000 0.000000 
#    y 0.000000 1.791450 0.000000 
#    z 0.000000 0.000000 1.791890 
# 
# From -- ./inp_files/7988.got.cif
#   From: 2010.03.12/outbox.cif.g09.slc.cpg/sg66_4_cif.got.tgz:7988.got - 2010.04.10 21:57:39.
