data_PCOD8276332
_publ_section_title
;
Structure prediction by ZEFSAII (Michael W. Deem and Ramdas Pophale) SiO2 
 PCOD8276332
Probable space group: C C C M
;
_chemical_formula_sum "Si O2"
_cell_formula_units_Z 80
_cell_length_a 28.165736
_cell_length_b 17.504035
_cell_length_c 8.860592
_cell_angle_alpha 90.000000
_cell_angle_beta 90.000000
_cell_angle_gamma 90.000000
_cell_volume 4368.396159
_symmetry_space_group_name_H-M "C C C M"
_symmetry_group_IT_number 66
_symmetry_cell_setting 'orthorhombic'
loop_
_space_group_symop_operation_xyz
x,y,z
-x,-y,z
x,-y,1/2-z
-x,y,1/2-z
-x,-y,-z
x,y,-z
-x,y,1/2+z
x,-y,1/2+z
1/2+x,1/2+y,z
1/2-x,1/2-y,z
1/2+x,1/2-y,1/2-z
1/2-x,1/2+y,1/2-z
1/2-x,1/2-y,-z
1/2+x,1/2+y,-z
1/2-x,1/2+y,1/2+z
1/2+x,1/2-y,1/2+z
loop_
_atom_site_type_symbol
_atom_site_label
_atom_site_fract_x
_atom_site_fract_y
_atom_site_fract_z
Si Si1 0.784892 0.679096 0.834264
Si Si2 0.051342 0.258989 0.676159
Si Si3 0.449093 0.928816 0.173995
Si Si4 0.858555 0.202135 0.321097
Si Si5 0.711912 0.417659 0.821980
O O1 0.750000 0.750000 0.847812
O O2 0.834872 0.715370 0.780228
O O3 0.763882 0.617060 0.718413
O O4 0.789840 0.640419 0.000000
O O5 0.047096 0.239255 0.500000
O O6 0.072555 0.344740 0.700210
O O7 0.088078 0.201819 0.756606
O O8 0.000000 0.247869 0.750000
O O9 0.500000 0.926912 0.250000
O O10 0.419681 0.000000 0.250000
O O11 0.454358 0.947866 0.000000
O O12 0.858611 0.188412 0.500000
O O13 0.830241 0.133841 0.242950
O O14 0.706619 0.500000 0.750000
O O15 0.707077 0.423067 0.000000
#
# Coordination Sequence:
#
# PCOD8276332 Si02
#       5
#    16  16  16  16  16
#     4   8  16  32  52  75 103 133 165 204 254 309
#     4  10  20  33  50  74 103 139 183 226 267 312
#     4   9  16  26  42  63  88 119 158 203 250 298
#     4  10  20  35  55  78 106 139 175 217 264 313
#     4  11  21  34  55  81 109 139 173 213 259 314
#
# _framework density 18.313358000000001
#
# number of rings (size 3 to 8) (size 9 to 14) (size 15 to 20)
#    0.000    2.400    0.000    5.400    0.000    6.800 
#    0.000    1.000    0.000    3.000    0.000    4.200 
#    0.000    0.000    0.000    0.000    0.000    0.000 
#
# Total GULP energy -495641.484937 kJ/mol
# GULP energy per Si atom -12391.037123 kJ/mol
# Density = 1.827168 g / cm^3
# Si number density = 18.313358 Si / 1000 Ang^3
#
#
#
# Elastic Constant Matrix: (Units=GPa)
#
#
# Indices 1 2 3 4 5 6 
#
# 1 91.9251 42.4497 54.4626 0.0000 0.0000 0.0000
# 2 42.4497 95.1025 68.6525 0.0000 0.0000 0.0000
# 3 54.4626 68.6525 153.0176 0.0000 0.0000 0.0000
# 4 0.0000 0.0000 0.0000 30.9226 0.0000 0.0000
# 5 0.0000 0.0000 0.0000 0.0000 11.6888 0.0000
# 6 0.0000 0.0000 0.0000 0.0000 0.0000 21.4746
#
#
#
# Elastic Compliance Matrix: (Units=1/GPa)
#
#
# Indices 1 2 3 4 5 6 
#
# 1 0.014816 -0.004151 -0.003411 0.000000 0.000000 0.000000
# 2 -0.004151 0.016715 -0.006022 0.000000 0.000000 0.000000
# 3 -0.003411 -0.006022 0.010451 0.000000 0.000000 0.000000
# 4 0.000000 0.000000 0.000000 0.032339 0.000000 0.000000
# 5 0.000000 0.000000 0.000000 0.000000 0.085552 0.000000
# 6 0.000000 0.000000 0.000000 0.000000 0.000000 0.046567
#
#
# Mechanical properties :
#
#
# Convention : Reuss Voigt Hill
#
# Bulk Modulus (GPa) = 67.50206 74.57498 71.03852
# Shear Modulus (GPa) = 20.96041 24.44924 22.70483
#
# Velocity S-wave (km/s) = 3.38678 3.65780 3.52489
# Velocity P-wave (km/s) = 7.22725 7.65829 7.44589
#
# Compressibility (1/GPa) = 0.01481436
#
# Stress axis : x y z
#
# Youngs Moduli (GPa) = 67.49359 59.82730 95.68447
#
# Poissons Ratio (x) = 0.24834 0.32639
# Poissons Ratio (y) = 0.28016 0.57619
# Poissons Ratio (z) = 0.23023 0.36027
#
# Static dielectric constant tensor:
#      x y z
#    x 3.390650 0.000000 0.000000 
#    y 0.000000 3.747490 0.000000 
#    z 0.000000 0.000000 3.485400 
# 
# 
# High freq. dielectric constant tensor:
#      x y z
#    x 1.686160 0.000000 0.000000 
#    y 0.000000 1.692000 0.000000 
#    z 0.000000 0.000000 1.724880 
# 
# From -- ./inp_files/6721.got.cif
#   From: 2010.03.12/outbox.cif.g09.slc.cpg/sg66_4_cif.got.tgz:6721.got - 2010.04.10 21:57:39.
