data_PCOD8276765
_publ_section_title
;
Structure prediction by ZEFSAII (Michael W. Deem and Ramdas Pophale) SiO2 
 PCOD8276765
Probable space group: C C C M
;
_chemical_formula_sum "Si O2"
_cell_formula_units_Z 72
_cell_length_a 9.276524
_cell_length_b 12.359066
_cell_length_c 28.537494
_cell_angle_alpha 90.000000
_cell_angle_beta 90.000000
_cell_angle_gamma 90.000000
_cell_volume 3271.800069
_symmetry_space_group_name_H-M "C C C M"
_symmetry_group_IT_number 66
_symmetry_cell_setting 'orthorhombic'
loop_
_space_group_symop_operation_xyz
x,y,z
-x,-y,z
x,-y,1/2-z
-x,y,1/2-z
-x,-y,-z
x,y,-z
-x,y,1/2+z
x,-y,1/2+z
1/2+x,1/2+y,z
1/2-x,1/2-y,z
1/2+x,1/2-y,1/2-z
1/2-x,1/2+y,1/2-z
1/2-x,1/2-y,-z
1/2+x,1/2+y,-z
1/2-x,1/2+y,1/2+z
1/2+x,1/2-y,1/2+z
loop_
_atom_site_type_symbol
_atom_site_label
_atom_site_fract_x
_atom_site_fract_y
_atom_site_fract_z
Si Si1 0.428193 0.342611 0.447404
Si Si2 0.151587 0.340382 0.234279
Si Si3 0.706914 0.039657 0.823866
Si Si4 0.500000 0.500000 0.873921
Si Si5 0.606844 0.099053 0.077749
O O1 0.482848 0.365917 0.500000
O O2 0.526721 0.397681 0.408121
O O3 0.451131 0.215444 0.437829
O O4 0.269129 0.398258 0.443107
O O5 0.250000 0.250000 0.209818
O O6 0.122645 0.435366 0.196816
O O7 0.232950 0.377732 0.281514
O O8 0.000000 0.290641 0.250000
O O9 0.615050 0.091945 0.865892
O O10 0.863481 0.005705 0.840829
O O11 0.500000 0.000000 0.059889
#
# Coordination Sequence:
#
# PCOD8276765 Si02
#       5
#    16  16  16   8  16
#     4  10  22  39  61  94 128 165 216 277 337 390
#     4  11  25  40  64  92 129 168 205 273 318 382
#     4  10  23  40  60  89 128 162 224 255 326 383
#     4  10  23  39  66  90 124 178 208 279 323 400
#     4  10  20  37  64  90 120 170 218 268 324 401
#
# _framework density 22.006233999999999
#
# number of rings (size 3 to 8) (size 9 to 14) (size 15 to 20)
#    0.000    1.778    0.000    4.333    9.333    4.444 
#    0.000    3.333    0.000    6.667    0.000    0.000 
#    0.000    0.000    0.000    0.000    0.000    0.000 
#
# Total GULP energy -446032.468897 kJ/mol
# GULP energy per Si atom -12389.790803 kJ/mol
# Density = 2.195615 g / cm^3
# Si number density = 22.006234 Si / 1000 Ang^3
#
#
#
# Elastic Constant Matrix: (Units=GPa)
#
#
# Indices 1 2 3 4 5 6 
#
# 1 75.7766 39.1738 19.8956 0.0000 0.0000 0.0000
# 2 39.1738 109.5847 18.9207 0.0000 0.0000 0.0000
# 3 19.8956 18.9207 113.3845 0.0000 0.0000 0.0000
# 4 0.0000 0.0000 0.0000 20.6503 0.0000 0.0000
# 5 0.0000 0.0000 0.0000 0.0000 50.9791 0.0000
# 6 0.0000 0.0000 0.0000 0.0000 0.0000 43.7702
#
#
#
# Elastic Compliance Matrix: (Units=1/GPa)
#
#
# Indices 1 2 3 4 5 6 
#
# 1 0.016609 -0.005595 -0.001981 0.000000 0.000000 0.000000
# 2 -0.005595 0.011281 -0.000901 0.000000 0.000000 0.000000
# 3 -0.001981 -0.000901 0.009317 0.000000 0.000000 0.000000
# 4 0.000000 0.000000 0.000000 0.048425 0.000000 0.000000
# 5 0.000000 0.000000 0.000000 0.000000 0.019616 0.000000
# 6 0.000000 0.000000 0.000000 0.000000 0.000000 0.022847
#
#
# Mechanical properties :
#
#
# Convention : Reuss Voigt Hill
#
# Bulk Modulus (GPa) = 49.37248 50.52513 49.94880
# Shear Modulus (GPa) = 32.93787 37.79695 35.36741
#
# Velocity S-wave (km/s) = 3.87298 4.14884 4.01328
# Velocity P-wave (km/s) = 6.51801 6.77936 6.64997
#
# Compressibility (1/GPa) = 0.02025420
#
# Stress axis : x y z
#
# Youngs Moduli (GPa) = 60.20684 88.64380 107.32600
#
# Poissons Ratio (x) = 0.49600 0.21258
# Poissons Ratio (y) = 0.33689 0.09666
# Poissons Ratio (z) = 0.11925 0.07984
#
# Static dielectric constant tensor:
#      x y z
#    x 3.959560 0.000000 0.000000 
#    y 0.000000 4.236640 0.000000 
#    z 0.000000 0.000000 4.124900 
# 
# 
# High freq. dielectric constant tensor:
#      x y z
#    x 1.850520 0.000000 0.000000 
#    y 0.000000 1.863440 0.000000 
#    z 0.000000 0.000000 1.877170 
# 
# From -- ./inp_files/62160.got.cif
#   From: 2010.03.12/outbox.cif.g09.slc.cpg/sg66_32_cif.got.tgz:62160.got - 2010.04.10 21:57:39.
