data_PCOD8276937
_publ_section_title
;
Structure prediction by ZEFSAII (Michael W. Deem and Ramdas Pophale) SiO2 
 PCOD8276937
Probable space group: C C C M
;
_chemical_formula_sum "Si O2"
_cell_formula_units_Z 116
_cell_length_a 26.248162
_cell_length_b 26.850797
_cell_length_c 8.975285
_cell_angle_alpha 90.000000
_cell_angle_beta 90.000000
_cell_angle_gamma 90.000000
_cell_volume 6325.637887
_symmetry_space_group_name_H-M "C C C M"
_symmetry_group_IT_number 66
_symmetry_cell_setting 'orthorhombic'
loop_
_space_group_symop_operation_xyz
x,y,z
-x,-y,z
x,-y,1/2-z
-x,y,1/2-z
-x,-y,-z
x,y,-z
-x,y,1/2+z
x,-y,1/2+z
1/2+x,1/2+y,z
1/2-x,1/2-y,z
1/2+x,1/2-y,1/2-z
1/2-x,1/2+y,1/2-z
1/2-x,1/2-y,-z
1/2+x,1/2+y,-z
1/2-x,1/2+y,1/2+z
1/2+x,1/2-y,1/2+z
loop_
_atom_site_type_symbol
_atom_site_label
_atom_site_fract_x
_atom_site_fract_y
_atom_site_fract_z
Si Si1 0.076017 0.418436 0.834126
Si Si2 0.050760 0.219293 0.177306
Si Si3 0.760608 0.139149 0.326124
Si Si4 0.575012 0.821261 0.329256
Si Si5 0.149559 0.183286 0.328034
Si Si6 0.000000 0.500000 0.750000
Si Si7 0.812893 0.550655 0.175804
Si Si8 0.688124 0.207108 0.165880
O O1 0.053955 0.374043 0.730929
O O2 0.130247 0.436123 0.767253
O O3 0.036560 0.464293 0.846146
O O4 0.084333 0.397023 0.000000
O O5 0.053808 0.276597 0.229638
O O6 0.097365 0.185989 0.235999
O O7 0.000000 0.195855 0.250000
O O8 0.048718 0.217001 0.000000
O O9 0.772379 0.138405 0.500000
O O10 0.814484 0.139971 0.238835
O O11 0.727971 0.091805 0.273230
O O12 0.727960 0.188216 0.287472
O O13 0.557402 0.813119 0.500000
O O14 0.635815 0.822987 0.315845
O O15 0.136615 0.172535 0.500000
O O16 0.179563 0.234782 0.307976
O O17 0.794245 0.500000 0.250000
O O18 0.813335 0.544009 0.000000
O O19 0.710554 0.198011 0.000000
#
# Coordination Sequence:
#
# PCOD8276937 Si02
#       8
#    16  16  16  16  16   4  16  16
#     4  11  23  40  56  73  98 133 179 239 297 344
#     4  11  22  38  58  80 110 146 182 220 263 313
#     4  11  21  33  52  79 106 138 178 222 277 334
#     4  10  21  36  55  77 102 137 180 225 275 333
#     4  10  21  36  53  79 112 143 180 219 263 323
#     4  12  26  40  56  74  98 132 192 250 304 344
#     4  10  22  39  57  77 102 137 181 230 286 344
#     4   9  18  32  50  74 104 138 174 214 265 327
#
# _framework density 18.338072
#
# number of rings (size 3 to 8) (size 9 to 14) (size 15 to 20)
#    0.000    1.655    2.069    3.931    0.966    7.172 
#    0.000    0.000    0.000    0.000    0.000    0.000 
#    0.000    0.552    0.000    5.793    0.000    3.172 
#
# Total GULP energy -719248.032765 kJ/mol
# GULP energy per Si atom -12400.828151 kJ/mol
# Density = 1.829633 g / cm^3
# Si number density = 18.338072 Si / 1000 Ang^3
#
#
#
# Elastic Constant Matrix: (Units=GPa)
#
#
# Indices 1 2 3 4 5 6 
#
# 1 117.3115 51.9787 54.5994 0.0000 0.0000 0.0000
# 2 51.9787 54.8858 26.7575 0.0000 0.0000 0.0000
# 3 54.5994 26.7575 107.8286 0.0000 0.0000 0.0000
# 4 0.0000 0.0000 0.0000 23.2559 0.0000 0.0000
# 5 0.0000 0.0000 0.0000 0.0000 29.7357 0.0000
# 6 0.0000 0.0000 0.0000 0.0000 0.0000 24.8312
#
#
#
# Elastic Compliance Matrix: (Units=1/GPa)
#
#
# Indices 1 2 3 4 5 6 
#
# 1 0.016934 -0.013488 -0.005227 0.000000 0.000000 0.000000
# 2 -0.013488 0.031471 -0.000980 0.000000 0.000000 0.000000
# 3 -0.005227 -0.000980 0.012164 0.000000 0.000000 0.000000
# 4 0.000000 0.000000 0.000000 0.043000 0.000000 0.000000
# 5 0.000000 0.000000 0.000000 0.000000 0.033630 0.000000
# 6 0.000000 0.000000 0.000000 0.000000 0.000000 0.040272
#
#
# Mechanical properties :
#
#
# Convention : Reuss Voigt Hill
#
# Bulk Modulus (GPa) = 47.21848 60.74413 53.98131
# Shear Modulus (GPa) = 22.32937 25.34391 23.83664
#
# Velocity S-wave (km/s) = 3.49327 3.72161 3.60925
# Velocity P-wave (km/s) = 6.48655 7.18775 6.84613
#
# Compressibility (1/GPa) = 0.02117815
#
# Stress axis : x y z
#
# Youngs Moduli (GPa) = 59.05376 31.77505 82.21021
#
# Poissons Ratio (x) = 0.42860 0.42974
# Poissons Ratio (y) = 0.79654 0.08054
# Poissons Ratio (z) = 0.30869 0.03113
#
# Static dielectric constant tensor:
#      x y z
#    x 3.522730 0.000000 0.000000 
#    y 0.000000 3.114350 0.000000 
#    z 0.000000 0.000000 3.334940 
# 
# 
# High freq. dielectric constant tensor:
#      x y z
#    x 1.712990 0.000000 0.000000 
#    y 0.000000 1.668570 0.000000 
#    z 0.000000 0.000000 1.717530 
# 
# From -- ./inp_files/10605.got.cif
#   From: 2010.03.12/outbox.cif.g09.slc.cpg/sg66_6_cif.got.tgz:10605.got - 2010.04.10 21:57:39.
