data_PCOD8276469
_publ_section_title
;
Structure prediction by ZEFSAII (Michael W. Deem and Ramdas Pophale) SiO2 
 PCOD8276469
Probable space group: C C C M
;
_chemical_formula_sum "Si O2"
_cell_formula_units_Z 76
_cell_length_a 27.281681
_cell_length_b 8.568663
_cell_length_c 17.012713
_cell_angle_alpha 90.000000
_cell_angle_beta 90.000000
_cell_angle_gamma 90.000000
_cell_volume 3977.019906
_symmetry_space_group_name_H-M "C C C M"
_symmetry_group_IT_number 66
_symmetry_cell_setting 'orthorhombic'
loop_
_space_group_symop_operation_xyz
x,y,z
-x,-y,z
x,-y,1/2-z
-x,y,1/2-z
-x,-y,-z
x,y,-z
-x,y,1/2+z
x,-y,1/2+z
1/2+x,1/2+y,z
1/2-x,1/2-y,z
1/2+x,1/2-y,1/2-z
1/2-x,1/2+y,1/2-z
1/2-x,1/2-y,-z
1/2+x,1/2+y,-z
1/2-x,1/2+y,1/2+z
1/2+x,1/2-y,1/2+z
loop_
_atom_site_type_symbol
_atom_site_label
_atom_site_fract_x
_atom_site_fract_y
_atom_site_fract_z
Si Si1 0.157250 0.000000 0.250000
Si Si2 0.554561 0.570685 0.000000
Si Si3 0.293601 0.373261 0.500000
Si Si4 0.200924 0.154325 0.887912
Si Si5 0.108294 0.676099 0.000000
Si Si6 0.500000 0.500000 0.250000
Si Si7 0.126701 0.314413 0.000000
Si Si8 0.078750 0.870372 0.138303
O O1 0.190334 0.876000 0.296586
O O2 0.125829 0.887515 0.193223
O O3 0.500000 0.500000 0.000000
O O4 0.569222 0.754180 0.000000
O O5 0.581151 0.514641 0.921404
O O6 0.250000 0.250000 0.500000
O O7 0.291307 0.483401 0.575670
O O8 0.344243 0.282553 0.500000
O O9 0.250000 0.250000 0.900156
O O10 0.156057 0.252438 0.924268
O O11 0.078240 0.716078 0.081340
O O12 0.124051 0.498791 0.000000
O O13 0.531032 0.382860 0.194348
#
# Coordination Sequence:
#
# PCOD8276469 Si02
#       8
#     8   8   8  16   8   4   8  16
#     4  11  20  39  60  86 130 156 210 251 322 371
#     4  11  19  38  68  91 112 159 226 251 304 387
#     4  11  20  38  63  88 116 161 218 252 293 364
#     4  11  22  39  61  88 122 168 212 256 307 380
#     4  11  21  39  64  88 125 164 209 259 313 360
#     4  10  20  34  72  90 116 158 214 252 324 380
#     4  11  22  42  62  93 124 164 212 262 312 369
#     4  10  20  38  64  91 116 161 205 260 308 374
#
# _framework density 19.109787000000001
#
# number of rings (size 3 to 8) (size 9 to 14) (size 15 to 20)
#    0.000    1.263    5.263    3.789    0.000    0.842 
#    3.789    2.105    0.000    1.263    0.000    0.000 
#    0.000    0.000    0.000    0.000    0.000    0.000 
#
# Total GULP energy -470776.691849 kJ/mol
# GULP energy per Si atom -12388.860312 kJ/mol
# Density = 1.906629 g / cm^3
# Si number density = 19.109787 Si / 1000 Ang^3
#
#
#
# Elastic Constant Matrix: (Units=GPa)
#
#
# Indices 1 2 3 4 5 6 
#
# 1 114.6966 61.3961 45.1050 0.0000 0.0000 0.0000
# 2 61.3961 142.5446 51.7850 0.0000 0.0000 0.0000
# 3 45.1050 51.7850 137.5893 0.0000 0.0000 0.0000
# 4 0.0000 0.0000 0.0000 11.1726 0.0000 0.0000
# 5 0.0000 0.0000 0.0000 0.0000 15.3031 0.0000
# 6 0.0000 0.0000 0.0000 0.0000 0.0000 32.3929
#
#
#
# Elastic Compliance Matrix: (Units=1/GPa)
#
#
# Indices 1 2 3 4 5 6 
#
# 1 0.011922 -0.004304 -0.002289 0.000000 0.000000 0.000000
# 2 -0.004304 0.009680 -0.002232 0.000000 0.000000 0.000000
# 3 -0.002289 -0.002232 0.008859 0.000000 0.000000 0.000000
# 4 0.000000 0.000000 0.000000 0.089505 0.000000 0.000000
# 5 0.000000 0.000000 0.000000 0.000000 0.065346 0.000000
# 6 0.000000 0.000000 0.000000 0.000000 0.000000 0.030871
#
#
# Mechanical properties :
#
#
# Convention : Reuss Voigt Hill
#
# Bulk Modulus (GPa) = 78.05583 79.04476 78.55030
# Shear Modulus (GPa) = 20.99928 27.54332 24.27130
#
# Velocity S-wave (km/s) = 3.31853 3.80059 3.56771
# Velocity P-wave (km/s) = 7.45776 7.79183 7.62662
#
# Compressibility (1/GPa) = 0.01281134
#
# Stress axis : x y z
#
# Youngs Moduli (GPa) = 83.87561 103.30514 112.88568
#
# Poissons Ratio (x) = 0.44460 0.25835
# Poissons Ratio (y) = 0.36098 0.25201
# Poissons Ratio (z) = 0.19196 0.23062
#
# Static dielectric constant tensor:
#      x y z
#    x 3.665360 0.000000 0.000000 
#    y 0.000000 3.310230 0.000000 
#    z 0.000000 0.000000 3.916610 
# 
# 
# High freq. dielectric constant tensor:
#      x y z
#    x 1.749900 0.000000 0.000000 
#    y 0.000000 1.711710 0.000000 
#    z 0.000000 0.000000 1.758430 
# 
# From -- ./inp_files/44187.got.cif
#   From: 2010.03.12/outbox.cif.g09.slc.cpg/sg66_23_cif.got.tgz:44187.got - 2010.04.10 21:57:39.
