data_PCOD8276512
_publ_section_title
;
Structure prediction by ZEFSAII (Michael W. Deem and Ramdas Pophale) SiO2 
 PCOD8276512
Probable space group: C C C M
;
_chemical_formula_sum "Si O2"
_cell_formula_units_Z 96
_cell_length_a 25.308632
_cell_length_b 23.395421
_cell_length_c 8.867664
_cell_angle_alpha 90.000000
_cell_angle_beta 90.000000
_cell_angle_gamma 90.000000
_cell_volume 5250.597952
_symmetry_space_group_name_H-M "C C C M"
_symmetry_group_IT_number 66
_symmetry_cell_setting 'orthorhombic'
loop_
_space_group_symop_operation_xyz
x,y,z
-x,-y,z
x,-y,1/2-z
-x,y,1/2-z
-x,-y,-z
x,y,-z
-x,y,1/2+z
x,-y,1/2+z
1/2+x,1/2+y,z
1/2-x,1/2-y,z
1/2+x,1/2-y,1/2-z
1/2-x,1/2+y,1/2-z
1/2-x,1/2-y,-z
1/2+x,1/2+y,-z
1/2-x,1/2+y,1/2+z
1/2+x,1/2-y,1/2+z
loop_
_atom_site_type_symbol
_atom_site_label
_atom_site_fract_x
_atom_site_fract_y
_atom_site_fract_z
Si Si1 0.690103 0.250996 0.822751
Si Si2 0.347678 0.860339 0.677272
Si Si3 0.446379 0.559640 0.824332
Si Si4 0.252534 0.939537 0.322205
Si Si5 0.555433 0.939412 0.179530
Si Si6 0.341354 0.623503 0.174329
O O1 0.750000 0.250000 0.759386
O O2 0.653962 0.201998 0.750834
O O3 0.664376 0.311007 0.775740
O O4 0.690267 0.241084 0.000000
O O5 0.345213 0.852481 0.500000
O O6 0.297314 0.896013 0.735509
O O7 0.401195 0.892471 0.725656
O O8 0.429093 0.500000 0.750000
O O9 0.500000 0.583303 0.750000
O O10 0.401576 0.606440 0.794650
O O11 0.455945 0.548950 0.000000
O O12 0.253789 0.946866 0.500000
O O13 0.195579 0.917050 0.272868
O O14 0.265266 0.000000 0.250000
O O15 0.500000 0.919027 0.250000
O O16 0.572596 0.000000 0.250000
O O17 0.550351 0.946158 0.000000
O O18 0.325430 0.615137 0.000000
#
# Coordination Sequence:
#
# PCOD8276512 Si02
#       6
#    16  16  16  16  16  16
#     4  10  20  36  58  80 107 147 186 222 268 320
#     4  10  22  37  54  80 111 143 182 225 271 323
#     4  10  20  35  56  79 108 139 176 219 265 319
#     4  11  22  34  52  79 110 142 175 219 271 324
#     4  10  20  36  57  82 111 144 183 226 276 329
#     4  10  21  37  55  80 109 140 180 223 267 321
#
# _framework density 18.283632000000001
#
# number of rings (size 3 to 8) (size 9 to 14) (size 15 to 20)
#    0.000    1.833    1.667    3.500    0.000    5.667 
#    0.000    0.833    0.000    4.000    0.000    0.000 
#    0.000    0.000    0.000    0.000    0.000    0.000 
#
# Total GULP energy -595385.671046 kJ/mol
# GULP energy per Si atom -12403.868147 kJ/mol
# Density = 1.824202 g / cm^3
# Si number density = 18.283632 Si / 1000 Ang^3
#
#
#
# Elastic Constant Matrix: (Units=GPa)
#
#
# Indices 1 2 3 4 5 6 
#
# 1 116.6338 61.3719 39.4391 0.0000 0.0000 0.0000
# 2 61.3719 115.6264 36.9993 0.0000 0.0000 0.0000
# 3 39.4391 36.9993 66.5540 0.0000 0.0000 0.0000
# 4 0.0000 0.0000 0.0000 31.1225 0.0000 0.0000
# 5 0.0000 0.0000 0.0000 0.0000 22.5438 0.0000
# 6 0.0000 0.0000 0.0000 0.0000 0.0000 35.2153
#
#
#
# Elastic Compliance Matrix: (Units=1/GPa)
#
#
# Indices 1 2 3 4 5 6 
#
# 1 0.013005 -0.005397 -0.004706 0.000000 0.000000 0.000000
# 2 -0.005397 0.012760 -0.003895 0.000000 0.000000 0.000000
# 3 -0.004706 -0.003895 0.019980 0.000000 0.000000 0.000000
# 4 0.000000 0.000000 0.000000 0.032131 0.000000 0.000000
# 5 0.000000 0.000000 0.000000 0.000000 0.044358 0.000000
# 6 0.000000 0.000000 0.000000 0.000000 0.000000 0.028397
#
#
# Mechanical properties :
#
#
# Convention : Reuss Voigt Hill
#
# Bulk Modulus (GPa) = 56.34624 63.82610 60.08617
# Shear Modulus (GPa) = 27.09392 28.50989 27.80190
#
# Velocity S-wave (km/s) = 3.85368 3.95310 3.90370
# Velocity P-wave (km/s) = 7.11940 7.47132 7.29748
#
# Compressibility (1/GPa) = 0.01774741
#
# Stress axis : x y z
#
# Youngs Moduli (GPa) = 76.89319 78.37291 50.05037
#
# Poissons Ratio (x) = 0.42296 0.23556
# Poissons Ratio (y) = 0.41498 0.19496
# Poissons Ratio (z) = 0.36189 0.30529
#
# Static dielectric constant tensor:
#      x y z
#    x 3.432440 0.000000 0.000000 
#    y 0.000000 3.396760 0.000000 
#    z 0.000000 0.000000 3.369430 
# 
# 
# High freq. dielectric constant tensor:
#      x y z
#    x 1.711100 0.000000 0.000000 
#    y 0.000000 1.708070 0.000000 
#    z 0.000000 0.000000 1.712500 
# 
# From -- ./inp_files/9132.got.cif
#   From: 2010.03.12/outbox.cif.g09.slc.cpg/sg66_5_cif.got.tgz:9132.got - 2010.04.10 21:57:39.
