data_PCOD8276468
_publ_section_title
;
Structure prediction by ZEFSAII (Michael W. Deem and Ramdas Pophale) SiO2 
 PCOD8276468
Probable space group: C C C M
;
_chemical_formula_sum "Si O2"
_cell_formula_units_Z 104
_cell_length_a 9.319005
_cell_length_b 30.736301
_cell_length_c 18.613099
_cell_angle_alpha 90.000000
_cell_angle_beta 90.000000
_cell_angle_gamma 90.000000
_cell_volume 5331.382384
_symmetry_space_group_name_H-M "C C C M"
_symmetry_group_IT_number 66
_symmetry_cell_setting 'orthorhombic'
loop_
_space_group_symop_operation_xyz
x,y,z
-x,-y,z
x,-y,1/2-z
-x,y,1/2-z
-x,-y,-z
x,y,-z
-x,y,1/2+z
x,-y,1/2+z
1/2+x,1/2+y,z
1/2-x,1/2-y,z
1/2+x,1/2-y,1/2-z
1/2-x,1/2+y,1/2-z
1/2-x,1/2-y,-z
1/2+x,1/2+y,-z
1/2-x,1/2+y,1/2+z
1/2+x,1/2-y,1/2+z
loop_
_atom_site_type_symbol
_atom_site_label
_atom_site_fract_x
_atom_site_fract_y
_atom_site_fract_z
Si Si1 0.214536 0.404342 0.864504
Si Si2 0.088781 0.758503 0.677978
Si Si3 0.000000 0.596647 0.250000
Si Si4 0.798862 0.376188 0.122802
Si Si5 0.459968 0.177952 0.919981
Si Si6 0.680958 0.041007 0.500000
Si Si7 0.983786 0.851889 0.832165
Si Si8 0.654562 0.056586 0.000000
O O1 0.136382 0.359561 0.884470
O O2 0.372787 0.391663 0.838442
O O3 0.111804 0.428353 0.803963
O O4 0.244872 0.436871 0.929276
O O5 0.250000 0.750000 0.701874
O O6 0.041768 0.722885 0.621008
O O7 0.000000 0.752773 0.750000
O O8 0.071091 0.805289 0.637393
O O9 0.113483 0.622364 0.198813
O O10 0.633146 0.365350 0.132676
O O11 0.874808 0.338124 0.077493
O O12 0.803692 0.419858 0.074427
O O13 0.402435 0.185752 0.000000
O O14 0.513801 0.049919 0.500000
O O15 0.728232 0.990783 0.500000
O O16 0.000000 0.841084 0.750000
#
# Coordination Sequence:
#
# PCOD8276468 Si02
#       8
#    16  16   8  16  16   8  16   8
#     4  11  20  40  63  94 118 171 201 256 312 374
#     4  11  26  39  60  92 125 167 212 264 306 356
#     4  10  20  34  67  88 122 156 210 250 300 368
#     4  11  22  41  63  93 123 166 204 258 317 367
#     4  11  22  41  60  86 129 165 209 256 306 362
#     4  11  22  41  71  96 124 157 210 253 318 376
#     4  11  24  40  62  92 129 163 213 257 311 371
#     4  11  22  43  67  98 127 154 204 267 305 383
#
# _framework density 19.507135999999999
#
# number of rings (size 3 to 8) (size 9 to 14) (size 15 to 20)
#    0.000    1.077    7.692    0.000    8.615    0.923 
#    2.769    3.846    0.000    0.923    0.000    0.000 
#    0.000    0.000    0.000    0.000    0.000    0.000 
#
# Total GULP energy -644246.014769 kJ/mol
# GULP energy per Si atom -12389.346438 kJ/mol
# Density = 1.946274 g / cm^3
# Si number density = 19.507136 Si / 1000 Ang^3
#
#
#
# Elastic Constant Matrix: (Units=GPa)
#
#
# Indices 1 2 3 4 5 6 
#
# 1 132.3340 37.7789 28.1867 0.0000 0.0000 0.0000
# 2 37.7789 110.9305 42.0789 0.0000 0.0000 0.0000
# 3 28.1867 42.0789 101.9953 0.0000 0.0000 0.0000
# 4 0.0000 0.0000 0.0000 24.7749 0.0000 0.0000
# 5 0.0000 0.0000 0.0000 0.0000 20.7200 0.0000
# 6 0.0000 0.0000 0.0000 0.0000 0.0000 -121.3044
#
#
#
# Elastic Compliance Matrix: (Units=1/GPa)
#
#
# Indices 1 2 3 4 5 6 
#
# 1 0.008530 -0.002384 -0.001374 0.000000 0.000000 0.000000
# 2 -0.002384 0.011353 -0.004025 0.000000 0.000000 0.000000
# 3 -0.001374 -0.004025 0.011845 0.000000 0.000000 0.000000
# 4 0.000000 0.000000 0.000000 0.040363 0.000000 0.000000
# 5 0.000000 0.000000 0.000000 0.000000 0.048262 0.000000
# 6 0.000000 0.000000 0.000000 0.000000 0.000000 -0.008244
#
#
# Mechanical properties :
#
#
# Convention : Reuss Voigt Hill
#
# Bulk Modulus (GPa) = 61.87240 62.37209 62.12224
# Shear Modulus (GPa) = 37.57627 0.65247 19.11437
#
# Velocity S-wave (km/s) = 4.39371 0.57897 3.13368
# Velocity P-wave (km/s) = 7.58460 5.70003 6.70882
#
# Compressibility (1/GPa) = 0.01616230
#
# Stress axis : x y z
#
# Youngs Moduli (GPa) = 117.23624 88.07987 84.42656
#
# Poissons Ratio (x) = 0.20997 0.11598
# Poissons Ratio (y) = 0.27947 0.33983
# Poissons Ratio (z) = 0.16105 0.35453
#
# Static dielectric constant tensor:
#      x y z
#    x 3.665960 0.000000 0.000000 
#    y 0.000000 3.592540 0.000000 
#    z 0.000000 0.000000 3.481190 
# 
# 
# High freq. dielectric constant tensor:
#      x y z
#    x 1.762450 0.000000 0.000000 
#    y 0.000000 1.735490 0.000000 
#    z 0.000000 0.000000 1.768580 
# 
# From -- ./inp_files/47580.got.cif
#   From: 2010.03.12/outbox.cif.g09.slc.cpg/sg66_24_cif.got.tgz:47580.got - 2010.04.10 21:57:39.
