data_PCOD8276737
_publ_section_title
;
Structure prediction by ZEFSAII (Michael W. Deem and Ramdas Pophale) SiO2 
 PCOD8276737
Probable space group: C C C M
;
_chemical_formula_sum "Si O2"
_cell_formula_units_Z 104
_cell_length_a 8.532496
_cell_length_b 19.856244
_cell_length_c 31.413817
_cell_angle_alpha 90.000000
_cell_angle_beta 90.000000
_cell_angle_gamma 90.000000
_cell_volume 5322.233249
_symmetry_space_group_name_H-M "C C C M"
_symmetry_group_IT_number 66
_symmetry_cell_setting 'orthorhombic'
loop_
_space_group_symop_operation_xyz
x,y,z
-x,-y,z
x,-y,1/2-z
-x,y,1/2-z
-x,-y,-z
x,y,-z
-x,y,1/2+z
x,-y,1/2+z
1/2+x,1/2+y,z
1/2-x,1/2-y,z
1/2+x,1/2-y,1/2-z
1/2-x,1/2+y,1/2-z
1/2-x,1/2-y,-z
1/2+x,1/2+y,-z
1/2-x,1/2+y,1/2+z
1/2+x,1/2-y,1/2+z
loop_
_atom_site_type_symbol
_atom_site_label
_atom_site_fract_x
_atom_site_fract_y
_atom_site_fract_z
Si Si1 0.242885 0.045529 0.422605
Si Si2 0.739389 0.330786 0.500000
Si Si3 0.500000 0.000000 0.857999
Si Si4 0.931233 0.387138 0.704059
Si Si5 0.446744 0.077020 0.500000
Si Si6 0.328313 0.679146 0.339074
Si Si7 0.399773 0.401751 0.078698
Si Si8 0.571756 0.756483 0.703485
O O1 0.365717 0.038915 0.384095
O O2 0.335680 0.086019 0.459084
O O3 0.085548 0.087979 0.412712
O O4 0.188232 0.970310 0.435200
O O5 0.750000 0.250000 0.500000
O O6 0.635069 0.350142 0.459193
O O7 0.910199 0.368741 0.500000
O O8 0.413637 0.051013 0.827132
O O9 0.756859 0.353735 0.702556
O O10 0.000000 0.408973 0.750000
O O11 0.040239 0.329711 0.682547
O O12 0.500000 0.000000 0.500000
O O13 0.250000 0.750000 0.352451
O O14 0.325042 0.627740 0.378340
O O15 0.505359 0.695208 0.324633
O O16 0.500000 0.759094 0.750000
O O17 0.750000 0.750000 0.708757
#
# Coordination Sequence:
#
# PCOD8276737 Si02
#       8
#    16   8   8  16   8  16  16  16
#     4  11  23  39  68  91 123 167 216 262 289 388
#     4  12  25  43  71  98 136 170 199 266 335 379
#     4  12  21  37  60  90 124 158 206 257 317 358
#     4  10  21  37  58  85 120 163 205 257 317 372
#     4  12  21  43  69  95 119 167 225 243 302 380
#     4  10  21  39  61  88 127 163 205 260 318 380
#     4  11  22  42  62  96 128 164 210 257 325 366
#     4  10  20  37  61  87 115 162 217 257 312 384
#
# _framework density 19.540669000000001
#
# number of rings (size 3 to 8) (size 9 to 14) (size 15 to 20)
#    0.000    1.231    3.846    3.462    2.154    1.231 
#    0.000    1.538    0.000    0.000    0.000    0.000 
#    0.000    0.000    0.000    0.000    0.000    0.000 
#
# Total GULP energy -644228.084517 kJ/mol
# GULP energy per Si atom -12389.001625 kJ/mol
# Density = 1.949619 g / cm^3
# Si number density = 19.540669 Si / 1000 Ang^3
#
#
#
# Elastic Constant Matrix: (Units=GPa)
#
#
# Indices 1 2 3 4 5 6 
#
# 1 143.4002 44.2863 49.4167 0.0000 0.0000 0.0000
# 2 44.2863 93.1626 38.7780 0.0000 0.0000 0.0000
# 3 49.4167 38.7780 110.0800 0.0000 0.0000 0.0000
# 4 0.0000 0.0000 0.0000 27.4043 0.0000 0.0000
# 5 0.0000 0.0000 0.0000 0.0000 28.8281 0.0000
# 6 0.0000 0.0000 0.0000 0.0000 0.0000 25.6492
#
#
#
# Elastic Compliance Matrix: (Units=1/GPa)
#
#
# Indices 1 2 3 4 5 6 
#
# 1 0.008918 -0.003015 -0.002941 0.000000 0.000000 0.000000
# 2 -0.003015 0.013598 -0.003437 0.000000 0.000000 0.000000
# 3 -0.002941 -0.003437 0.011615 0.000000 0.000000 0.000000
# 4 0.000000 0.000000 0.000000 0.036491 0.000000 0.000000
# 5 0.000000 0.000000 0.000000 0.000000 0.034688 0.000000
# 6 0.000000 0.000000 0.000000 0.000000 0.000000 0.038988
#
#
# Mechanical properties :
#
#
# Convention : Reuss Voigt Hill
#
# Bulk Modulus (GPa) = 65.16720 67.95608 66.56164
# Shear Modulus (GPa) = 29.72673 30.65380 30.19027
#
# Velocity S-wave (km/s) = 3.90458 3.96500 3.93491
# Velocity P-wave (km/s) = 7.33141 7.47087 7.40147
#
# Compressibility (1/GPa) = 0.01534514
#
# Stress axis : x y z
#
# Youngs Moduli (GPa) = 112.12930 73.54237 86.09306
#
# Poissons Ratio (x) = 0.22174 0.25324
# Poissons Ratio (y) = 0.33808 0.29586
# Poissons Ratio (z) = 0.32982 0.25273
#
# Static dielectric constant tensor:
#      x y z
#    x 3.791240 0.000000 0.000000 
#    y 0.000000 3.899590 0.000000 
#    z 0.000000 0.000000 3.513350 
# 
# 
# High freq. dielectric constant tensor:
#      x y z
#    x 1.769760 0.000000 0.000000 
#    y 0.000000 1.756130 0.000000 
#    z 0.000000 0.000000 1.755350 
# 
# From -- ./inp_files/68288.got.cif
#   From: 2010.03.12/outbox.cif.g09.slc.cpg/sg66_35_cif.got.tgz:68288.got - 2010.04.10 21:57:39.
