data_PCOD8276217
_publ_section_title
;
Structure prediction by ZEFSAII (Michael W. Deem and Ramdas Pophale) SiO2 
 PCOD8276217
Probable space group: C C C M
;
_chemical_formula_sum "Si O2"
_cell_formula_units_Z 56
_cell_length_a 17.162780
_cell_length_b 16.961097
_cell_length_c 9.543012
_cell_angle_alpha 90.000000
_cell_angle_beta 90.000000
_cell_angle_gamma 90.000000
_cell_volume 2777.966750
_symmetry_space_group_name_H-M "C C C M"
_symmetry_group_IT_number 66
_symmetry_cell_setting 'orthorhombic'
loop_
_space_group_symop_operation_xyz
x,y,z
-x,-y,z
x,-y,1/2-z
-x,y,1/2-z
-x,-y,-z
x,y,-z
-x,y,1/2+z
x,-y,1/2+z
1/2+x,1/2+y,z
1/2-x,1/2-y,z
1/2+x,1/2-y,1/2-z
1/2-x,1/2+y,1/2-z
1/2-x,1/2-y,-z
1/2+x,1/2+y,-z
1/2-x,1/2+y,1/2+z
1/2+x,1/2-y,1/2+z
loop_
_atom_site_type_symbol
_atom_site_label
_atom_site_fract_x
_atom_site_fract_y
_atom_site_fract_z
Si Si1 0.842492 0.429739 0.658728
Si Si2 0.807068 0.000000 0.750000
Si Si3 0.928040 0.877900 0.656061
Si Si4 0.662978 0.776865 0.336722
O O1 0.882878 0.500000 0.750000
O O2 0.875474 0.426606 0.500000
O O3 0.749070 0.446553 0.651389
O O4 0.861246 0.348733 0.737787
O O5 0.859921 0.942549 0.657555
O O6 0.960796 0.872422 0.500000
O O7 0.895066 0.793575 0.703634
O O8 0.000000 0.904786 0.750000
O O9 0.656165 0.801599 0.500000
O O10 0.750000 0.750000 0.302343
#
# Coordination Sequence:
#
# PCOD8276217 Si02
#       4
#    16   8  16  16
#     4  10  20  33  56  88 115 143 188 238 286 335
#     4  10  21  36  58  84 115 158 192 226 285 338
#     4  11  24  40  57  82 119 159 192 233 286 343
#     4  10  19  37  59  79 112 152 193 239 289 336
#
# _framework density 20.158629000000001
#
# number of rings (size 3 to 8) (size 9 to 14) (size 15 to 20)
#    0.857    0.857    2.857    2.143    0.000    5.143 
#    0.000    0.000    0.000    0.857    0.000    6.000 
#    0.000    0.000    0.000    0.000    0.000    0.000 
#
# Total GULP energy -347078.903546 kJ/mol
# GULP energy per Si atom -12395.675127 kJ/mol
# Density = 2.011275 g / cm^3
# Si number density = 20.158629 Si / 1000 Ang^3
#
#
#
# Elastic Constant Matrix: (Units=GPa)
#
#
# Indices 1 2 3 4 5 6 
#
# 1 26.1692 1.0324 0.4613 0.0000 0.0000 0.0000
# 2 1.0324 121.2326 46.2387 0.0000 0.0000 0.0000
# 3 0.4613 46.2387 103.2197 0.0000 0.0000 0.0000
# 4 0.0000 0.0000 0.0000 33.3216 0.0000 0.0000
# 5 0.0000 0.0000 0.0000 0.0000 14.9870 0.0000
# 6 0.0000 0.0000 0.0000 0.0000 0.0000 18.6734
#
#
#
# Elastic Compliance Matrix: (Units=1/GPa)
#
#
# Indices 1 2 3 4 5 6 
#
# 1 0.038226 -0.000314 -0.000030 0.000000 0.000000 0.000000
# 2 -0.000314 0.009951 -0.004456 0.000000 0.000000 0.000000
# 3 -0.000030 -0.004456 0.011684 0.000000 0.000000 0.000000
# 4 0.000000 0.000000 0.000000 0.030011 0.000000 0.000000
# 5 0.000000 0.000000 0.000000 0.000000 0.066725 0.000000
# 6 0.000000 0.000000 0.000000 0.000000 0.000000 0.053552
#
#
# Mechanical properties :
#
#
# Convention : Reuss Voigt Hill
#
# Bulk Modulus (GPa) = 19.89642 38.45402 29.17522
# Shear Modulus (GPa) = 21.14140 26.92234 24.03187
#
# Velocity S-wave (km/s) = 3.24196 3.65845 3.45648
# Velocity P-wave (km/s) = 4.88928 6.07970 5.51669
#
# Compressibility (1/GPa) = 0.05026030
#
# Stress axis : x y z
#
# Youngs Moduli (GPa) = 26.16034 100.49328 85.58390
#
# Poissons Ratio (x) = 0.03156 0.00258
# Poissons Ratio (y) = 0.00822 0.38138
# Poissons Ratio (z) = 0.00079 0.44782
#
# Static dielectric constant tensor:
#      x y z
#    x 3.242420 0.000000 0.000000 
#    y 0.000000 3.741300 0.000000 
#    z 0.000000 0.000000 3.428430 
# 
# 
# High freq. dielectric constant tensor:
#      x y z
#    x 1.751140 0.000000 0.000000 
#    y 0.000000 1.799720 0.000000 
#    z 0.000000 0.000000 1.780370 
# 
# From -- ./inp_files/4837.got.cif
#   From: 2010.03.12/outbox.cif.g09.slc.cpg/sg66_3_cif.got.tgz:4837.got - 2010.04.10 21:57:39.
