data_PCOD8276058
_publ_section_title
;
Structure prediction by ZEFSAII (Michael W. Deem and Ramdas Pophale) SiO2 
 PCOD8276058
Probable space group: C C C M
;
_chemical_formula_sum "Si O2"
_cell_formula_units_Z 96
_cell_length_a 29.454238
_cell_length_b 18.875548
_cell_length_c 8.942260
_cell_angle_alpha 90.000000
_cell_angle_beta 90.000000
_cell_angle_gamma 90.000000
_cell_volume 4971.582536
_symmetry_space_group_name_H-M "C C C M"
_symmetry_group_IT_number 66
_symmetry_cell_setting 'orthorhombic'
loop_
_space_group_symop_operation_xyz
x,y,z
-x,-y,z
x,-y,1/2-z
-x,y,1/2-z
-x,-y,-z
x,y,-z
-x,y,1/2+z
x,-y,1/2+z
1/2+x,1/2+y,z
1/2-x,1/2-y,z
1/2+x,1/2-y,1/2-z
1/2-x,1/2+y,1/2-z
1/2-x,1/2-y,-z
1/2+x,1/2+y,-z
1/2-x,1/2+y,1/2+z
1/2+x,1/2-y,1/2+z
loop_
_atom_site_type_symbol
_atom_site_label
_atom_site_fract_x
_atom_site_fract_y
_atom_site_fract_z
Si Si1 0.927528 0.069515 0.673314
Si Si2 0.200804 0.781295 0.175355
Si Si3 0.822388 0.072810 0.675969
Si Si4 0.118885 0.309112 0.664716
Si Si5 0.951595 0.423973 0.818114
Si Si6 0.039462 0.797447 0.164924
O O1 0.935029 0.061771 0.500000
O O2 0.875033 0.080066 0.715176
O O3 0.956073 0.133779 0.734592
O O4 0.947216 0.000000 0.750000
O O5 0.250000 0.750000 0.203714
O O6 0.200729 0.857139 0.256305
O O7 0.164353 0.723100 0.243366
O O8 0.190020 0.792800 0.000000
O O9 0.812464 0.069521 0.500000
O O10 0.803029 0.000000 0.750000
O O11 0.132980 0.335781 0.500000
O O12 0.090006 0.373374 0.739566
O O13 0.086091 0.242797 0.656043
O O14 0.939506 0.500000 0.750000
O O15 0.000000 0.398612 0.750000
O O16 0.955058 0.424314 0.000000
O O17 0.000000 0.752185 0.250000
O O18 0.022927 0.817814 0.000000
#
# Coordination Sequence:
#
# PCOD8276058 Si02
#       6
#    16  16  16  16  16  16
#     4  10  20  34  52  76 104 141 182 223 268 315
#     4  10  20  37  61  86 113 148 188 233 287 343
#     4  10  20  35  58  84 112 146 187 232 276 333
#     4   9  19  35  55  79 109 144 181 225 274 329
#     4  10  19  34  55  81 112 145 184 225 273 335
#     4  11  21  34  52  75 107 142 181 225 268 323
#
# _framework density 19.309747000000002
#
# number of rings (size 3 to 8) (size 9 to 14) (size 15 to 20)
#    0.000    2.000    1.667    3.000    0.000    2.000 
#    0.000    6.667    0.000    2.000    0.000    0.000 
#    0.000    0.000    0.000    0.000    0.000    0.000 
#
# Total GULP energy -594701.962040 kJ/mol
# GULP energy per Si atom -12389.624209 kJ/mol
# Density = 1.926580 g / cm^3
# Si number density = 19.309747 Si / 1000 Ang^3
#
#
#
# Elastic Constant Matrix: (Units=GPa)
#
#
# Indices 1 2 3 4 5 6 
#
# 1 107.4833 54.8185 35.4809 0.0000 0.0000 0.0000
# 2 54.8185 130.9171 37.4368 0.0000 0.0000 0.0000
# 3 35.4809 37.4368 67.5495 0.0000 0.0000 0.0000
# 4 0.0000 0.0000 0.0000 26.4720 0.0000 0.0000
# 5 0.0000 0.0000 0.0000 0.0000 21.8431 0.0000
# 6 0.0000 0.0000 0.0000 0.0000 0.0000 13.5517
#
#
#
# Elastic Compliance Matrix: (Units=1/GPa)
#
#
# Indices 1 2 3 4 5 6 
#
# 1 0.012882 -0.004111 -0.004488 0.000000 0.000000 0.000000
# 2 -0.004111 0.010389 -0.003598 0.000000 0.000000 0.000000
# 3 -0.004488 -0.003598 0.019156 0.000000 0.000000 0.000000
# 4 0.000000 0.000000 0.000000 0.037776 0.000000 0.000000
# 5 0.000000 0.000000 0.000000 0.000000 0.045781 0.000000
# 6 0.000000 0.000000 0.000000 0.000000 0.000000 0.073792
#
#
# Mechanical properties :
#
#
# Convention : Reuss Voigt Hill
#
# Bulk Modulus (GPa) = 55.45730 62.38025 58.91877
# Shear Modulus (GPa) = 21.72221 24.25428 22.98825
#
# Velocity S-wave (km/s) = 3.35764 3.54794 3.45410
# Velocity P-wave (km/s) = 6.61921 7.01135 6.81810
#
# Compressibility (1/GPa) = 0.01803189
#
# Stress axis : x y z
#
# Youngs Moduli (GPa) = 77.62901 96.25931 52.20379
#
# Poissons Ratio (x) = 0.39568 0.23430
# Poissons Ratio (y) = 0.31910 0.18785
# Poissons Ratio (z) = 0.34841 0.34638
#
# Static dielectric constant tensor:
#      x y z
#    x 3.678290 0.000000 0.000000 
#    y 0.000000 3.483120 0.000000 
#    z 0.000000 0.000000 3.552140 
# 
# 
# High freq. dielectric constant tensor:
#      x y z
#    x 1.741780 0.000000 0.000000 
#    y 0.000000 1.755420 0.000000 
#    z 0.000000 0.000000 1.741250 
# 
# From -- ./inp_files/10234.got.cif
#   From: 2010.03.12/outbox.cif.g09.slc.cpg/sg66_6_cif.got.tgz:10234.got - 2010.04.10 21:57:39.
