data_PCOD8276877
_publ_section_title
;
Structure prediction by ZEFSAII (Michael W. Deem and Ramdas Pophale) SiO2 
 PCOD8276877
Probable space group: C C C M
;
_chemical_formula_sum "Si O2"
_cell_formula_units_Z 88
_cell_length_a 15.524683
_cell_length_b 10.183404
_cell_length_c 26.571927
_cell_angle_alpha 90.000000
_cell_angle_beta 90.000000
_cell_angle_gamma 90.000000
_cell_volume 4200.865388
_symmetry_space_group_name_H-M "C C C M"
_symmetry_group_IT_number 66
_symmetry_cell_setting 'orthorhombic'
loop_
_space_group_symop_operation_xyz
x,y,z
-x,-y,z
x,-y,1/2-z
-x,y,1/2-z
-x,-y,-z
x,y,-z
-x,y,1/2+z
x,-y,1/2+z
1/2+x,1/2+y,z
1/2-x,1/2-y,z
1/2+x,1/2-y,1/2-z
1/2-x,1/2+y,1/2-z
1/2-x,1/2-y,-z
1/2+x,1/2+y,-z
1/2-x,1/2+y,1/2+z
1/2+x,1/2-y,1/2+z
loop_
_atom_site_type_symbol
_atom_site_label
_atom_site_fract_x
_atom_site_fract_y
_atom_site_fract_z
Si Si1 0.950471 0.131407 0.557393
Si Si2 0.095188 0.650939 0.263597
Si Si3 0.338525 0.801264 0.630995
Si Si4 0.239385 0.569406 0.110850
Si Si5 0.250000 0.250000 0.298715
Si Si6 0.131589 0.215379 0.443543
O O1 0.915406 0.111823 0.500000
O O2 0.876801 0.190913 0.593332
O O3 0.029164 0.234910 0.558296
O O4 0.000000 0.000000 0.576291
O O5 0.111342 0.500000 0.250000
O O6 0.097339 0.668402 0.323768
O O7 0.164723 0.742198 0.235692
O O8 0.000000 0.699183 0.250000
O O9 0.250000 0.750000 0.655318
O O10 0.310064 0.933425 0.602382
O O11 0.256894 0.614907 0.168547
O O12 0.172026 0.673575 0.090113
O O13 0.330217 0.575781 0.079341
O O14 0.165743 0.225311 0.500000
#
# Coordination Sequence:
#
# PCOD8276877 Si02
#       6
#    16  16  16  16   8  16
#     4  10  23  42  63  90 131 170 207 267 328 386
#     4  11  24  41  66  94 130 171 213 267 328 390
#     4  12  25  40  63  93 122 169 219 262 319 405
#     4  10  21  35  63  89 123 164 203 265 314 378
#     4  10  20  42  61  92 127 166 208 270 330 384
#     4   9  19  37  61  90 123 163 209 256 317 379
#
# _framework density 20.948063999999999
#
# number of rings (size 3 to 8) (size 9 to 14) (size 15 to 20)
#    0.000    1.818    2.727    2.182    5.091    2.545 
#    0.000    1.818    0.000    0.000    0.000    0.000 
#    0.000    0.000    0.000    0.000    0.000    0.000 
#
# Total GULP energy -545216.544173 kJ/mol
# GULP energy per Si atom -12391.285095 kJ/mol
# Density = 2.090039 g / cm^3
# Si number density = 20.948064 Si / 1000 Ang^3
#
#
#
# Elastic Constant Matrix: (Units=GPa)
#
#
# Indices 1 2 3 4 5 6 
#
# 1 121.6557 23.5499 44.2922 0.0000 0.0000 0.0000
# 2 23.5499 98.4833 34.3036 0.0000 0.0000 0.0000
# 3 44.2922 34.3036 105.1513 0.0000 0.0000 0.0000
# 4 0.0000 0.0000 0.0000 -146.1906 0.0000 0.0000
# 5 0.0000 0.0000 0.0000 0.0000 40.2708 0.0000
# 6 0.0000 0.0000 0.0000 0.0000 0.0000 28.9737
#
#
#
# Elastic Compliance Matrix: (Units=1/GPa)
#
#
# Indices 1 2 3 4 5 6 
#
# 1 0.009799 -0.001022 -0.003794 0.000000 0.000000 0.000000
# 2 -0.001022 0.011562 -0.003342 0.000000 0.000000 0.000000
# 3 -0.003794 -0.003342 0.012199 0.000000 0.000000 0.000000
# 4 0.000000 0.000000 0.000000 -0.006840 0.000000 0.000000
# 5 0.000000 0.000000 0.000000 0.000000 0.024832 0.000000
# 6 0.000000 0.000000 0.000000 0.000000 0.000000 0.034514
#
#
# Mechanical properties :
#
#
# Convention : Reuss Voigt Hill
#
# Bulk Modulus (GPa) = 57.98872 58.84243 58.41557
# Shear Modulus (GPa) = 46.24112 -0.51291 22.86411
#
# Velocity S-wave (km/s) = 4.70341 -0.49536 3.30732
# Velocity P-wave (km/s) = 7.56560 5.27480 6.52157
#
# Compressibility (1/GPa) = 0.01724473
#
# Stress axis : x y z
#
# Youngs Moduli (GPa) = 102.05010 86.48833 81.97714
#
# Poissons Ratio (x) = 0.08835 0.31105
# Poissons Ratio (y) = 0.10425 0.27394
# Poissons Ratio (z) = 0.38721 0.28901
#
# Static dielectric constant tensor:
#      x y z
#    x 4.076930 0.000000 0.000000 
#    y 0.000000 4.049710 0.000000 
#    z 0.000000 0.000000 3.771860 
# 
# 
# High freq. dielectric constant tensor:
#      x y z
#    x 1.833630 0.000000 0.000000 
#    y 0.000000 1.809150 0.000000 
#    z 0.000000 0.000000 1.819240 
# 
# From -- ./inp_files/64549.got.cif
#   From: 2010.03.12/outbox.cif.g09.slc.cpg/sg66_33_cif.got.tgz:64549.got - 2010.04.10 21:57:39.
