data_PCOD8276974
_publ_section_title
;
Structure prediction by ZEFSAII (Michael W. Deem and Ramdas Pophale) SiO2 
 PCOD8276974
Probable space group: C C C M
;
_chemical_formula_sum "Si O2"
_cell_formula_units_Z 88
_cell_length_a 26.111405
_cell_length_b 5.171809
_cell_length_c 31.546918
_cell_angle_alpha 90.000000
_cell_angle_beta 90.000000
_cell_angle_gamma 90.000000
_cell_volume 4260.196737
_symmetry_space_group_name_H-M "C C C M"
_symmetry_group_IT_number 66
_symmetry_cell_setting 'orthorhombic'
loop_
_space_group_symop_operation_xyz
x,y,z
-x,-y,z
x,-y,1/2-z
-x,y,1/2-z
-x,-y,-z
x,y,-z
-x,y,1/2+z
x,-y,1/2+z
1/2+x,1/2+y,z
1/2-x,1/2-y,z
1/2+x,1/2-y,1/2-z
1/2-x,1/2+y,1/2-z
1/2-x,1/2-y,-z
1/2+x,1/2+y,-z
1/2-x,1/2+y,1/2+z
1/2+x,1/2-y,1/2+z
loop_
_atom_site_type_symbol
_atom_site_label
_atom_site_fract_x
_atom_site_fract_y
_atom_site_fract_z
Si Si1 0.875778 0.297898 0.912013
Si Si2 0.164619 0.170732 0.048799
Si Si3 0.695059 0.139055 0.838793
Si Si4 0.466682 0.751105 0.147596
Si Si5 0.608697 0.240881 0.776670
Si Si6 0.750000 0.250000 0.392578
O O1 0.859190 0.563114 0.934039
O O2 0.837564 0.205970 0.873951
O O3 0.932559 0.327274 0.893046
O O4 0.875723 0.063754 0.945794
O O5 0.215878 0.081037 0.074626
O O6 0.178807 0.207307 0.000000
O O7 0.750000 0.250000 0.826929
O O8 0.661520 0.126084 0.796321
O O9 0.707382 0.869224 0.861468
O O10 0.500000 0.500000 0.136496
O O11 0.432305 0.679763 0.188116
O O12 0.500000 0.000000 0.159139
O O13 0.620322 0.500000 0.750000
O O14 0.586237 0.000000 0.750000
#
# Coordination Sequence:
#
# PCOD8276974 Si02
#       6
#    16  16  16  16  16   8
#     4  10  22  39  60  91 123 158 206 248 296 371
#     4  11  21  36  60  91 129 162 197 253 308 347
#     4  10  21  38  61  82 122 167 206 242 292 349
#     4  11  23  42  70  91 114 157 206 254 309 364
#     4  11  26  41  60  92 126 156 199 255 311 367
#     4  10  21  36  60  90 122 168 220 248 278 362
#
# _framework density 20.656324000000001
#
# number of rings (size 3 to 8) (size 9 to 14) (size 15 to 20)
#    0.000    1.455    1.818    3.000    2.545    5.818 
#    0.000    2.727    0.000   10.909    0.000    0.000 
#    0.000    0.000    0.000    0.000    0.000    0.000 
#
# Total GULP energy -545148.036952 kJ/mol
# GULP energy per Si atom -12389.728113 kJ/mol
# Density = 2.060931 g / cm^3
# Si number density = 20.656324 Si / 1000 Ang^3
#
#
#
# Elastic Constant Matrix: (Units=GPa)
#
#
# Indices 1 2 3 4 5 6 
#
# 1 101.5827 27.8986 37.1154 0.0000 0.0000 0.0000
# 2 27.8986 121.5852 40.9766 0.0000 0.0000 0.0000
# 3 37.1154 40.9766 84.9790 0.0000 0.0000 0.0000
# 4 0.0000 0.0000 0.0000 32.7549 0.0000 0.0000
# 5 0.0000 0.0000 0.0000 0.0000 44.6518 0.0000
# 6 0.0000 0.0000 0.0000 0.0000 0.0000 29.6534
#
#
#
# Elastic Compliance Matrix: (Units=1/GPa)
#
#
# Indices 1 2 3 4 5 6 
#
# 1 0.011850 -0.001164 -0.004614 0.000000 0.000000 0.000000
# 2 -0.001164 0.009935 -0.004282 0.000000 0.000000 0.000000
# 3 -0.004614 -0.004282 0.015848 0.000000 0.000000 0.000000
# 4 0.000000 0.000000 0.000000 0.030530 0.000000 0.000000
# 5 0.000000 0.000000 0.000000 0.000000 0.022396 0.000000
# 6 0.000000 0.000000 0.000000 0.000000 0.000000 0.033723
#
#
# Mechanical properties :
#
#
# Convention : Reuss Voigt Hill
#
# Bulk Modulus (GPa) = 57.10472 57.79201 57.44837
# Shear Modulus (GPa) = 33.28031 34.88909 34.08470
#
# Velocity S-wave (km/s) = 4.01826 4.11424 4.06653
# Velocity P-wave (km/s) = 7.01667 7.11392 7.06546
#
# Compressibility (1/GPa) = 0.01751169
#
# Stress axis : x y z
#
# Youngs Moduli (GPa) = 84.38984 100.65472 63.10011
#
# Poissons Ratio (x) = 0.11715 0.29116
# Poissons Ratio (y) = 0.09822 0.27021
# Poissons Ratio (z) = 0.38940 0.43103
#
# Static dielectric constant tensor:
#      x y z
#    x 3.852120 0.000000 0.000000 
#    y 0.000000 3.710910 0.000000 
#    z 0.000000 0.000000 3.725750 
# 
# 
# High freq. dielectric constant tensor:
#      x y z
#    x 1.805070 0.000000 0.000000 
#    y 0.000000 1.806990 0.000000 
#    z 0.000000 0.000000 1.804950 
# 
# From -- ./inp_files/70391.got.cif
#   From: 2010.03.12/outbox.cif.g09.slc.cpg/sg66_36_cif.got.tgz:70391.got - 2010.04.10 21:57:39.
