data_PCOD8276551
_publ_section_title
;
Structure prediction by ZEFSAII (Michael W. Deem and Ramdas Pophale) SiO2 
 PCOD8276551
Probable space group: C C C M
;
_chemical_formula_sum "Si O2"
_cell_formula_units_Z 72
_cell_length_a 17.661240
_cell_length_b 14.005948
_cell_length_c 14.240252
_cell_angle_alpha 90.000000
_cell_angle_beta 90.000000
_cell_angle_gamma 90.000000
_cell_volume 3522.503040
_symmetry_space_group_name_H-M "C C C M"
_symmetry_group_IT_number 66
_symmetry_cell_setting 'orthorhombic'
loop_
_space_group_symop_operation_xyz
x,y,z
-x,-y,z
x,-y,1/2-z
-x,y,1/2-z
-x,-y,-z
x,y,-z
-x,y,1/2+z
x,-y,1/2+z
1/2+x,1/2+y,z
1/2-x,1/2-y,z
1/2+x,1/2-y,1/2-z
1/2-x,1/2+y,1/2-z
1/2-x,1/2-y,-z
1/2+x,1/2+y,-z
1/2-x,1/2+y,1/2+z
1/2+x,1/2-y,1/2+z
loop_
_atom_site_type_symbol
_atom_site_label
_atom_site_fract_x
_atom_site_fract_y
_atom_site_fract_z
Si Si1 0.309099 0.091019 0.500000
Si Si2 0.551346 0.203918 0.000000
Si Si3 0.907052 0.585982 0.000000
Si Si4 0.772336 0.855993 0.323732
Si Si5 0.068678 0.785271 0.192219
Si Si6 0.362009 0.897375 0.708779
O O1 0.357190 0.188747 0.500000
O O2 0.256478 0.076208 0.408804
O O3 0.382971 0.023600 0.500000
O O4 0.534084 0.268854 0.089567
O O5 0.496563 0.109554 0.000000
O O6 0.872184 0.624882 0.901725
O O7 0.750000 0.750000 0.355148
O O8 0.862295 0.861478 0.307014
O O9 0.728091 0.887246 0.229532
O O10 0.092843 0.682250 0.232916
O O11 0.000000 0.831590 0.250000
O O12 0.391057 0.000000 0.750000
#
# Coordination Sequence:
#
# PCOD8276551 Si02
#       6
#     8   8   8  16  16  16
#     4  12  19  34  57  84 116 154 195 235 275 350
#     4  12  20  34  53  87 122 151 188 228 280 358
#     4  12  23  33  54  91 118 149 182 234 302 342
#     4  10  20  35  58  79 109 156 203 233 275 342
#     4  11  22  37  56  83 119 155 194 238 288 340
#     4  11  21  37  55  82 116 151 192 231 290 352
#
# _framework density 20.440009
#
# number of rings (size 3 to 8) (size 9 to 14) (size 15 to 20)
#    0.000    0.889    8.889    1.333    0.000    0.444 
#    0.000    6.111    0.000    0.667    0.000    1.556 
#    0.000    0.000    0.000    0.000    0.000    0.000 
#
# Total GULP energy -446026.305870 kJ/mol
# GULP energy per Si atom -12389.619608 kJ/mol
# Density = 2.039349 g / cm^3
# Si number density = 20.440009 Si / 1000 Ang^3
#
#
#
# Elastic Constant Matrix: (Units=GPa)
#
#
# Indices 1 2 3 4 5 6 
#
# 1 170.5137 18.1793 68.9266 0.0000 0.0000 0.0000
# 2 18.1793 19.3291 14.6196 0.0000 0.0000 0.0000
# 3 68.9266 14.6196 179.0288 0.0000 0.0000 0.0000
# 4 0.0000 0.0000 0.0000 10.4871 0.0000 0.0000
# 5 0.0000 0.0000 0.0000 0.0000 28.4485 0.0000
# 6 0.0000 0.0000 0.0000 0.0000 0.0000 30.1031
#
#
#
# Elastic Compliance Matrix: (Units=1/GPa)
#
#
# Indices 1 2 3 4 5 6 
#
# 1 0.007391 -0.005115 -0.002428 0.000000 0.000000 0.000000
# 2 -0.005115 0.058681 -0.002823 0.000000 0.000000 0.000000
# 3 -0.002428 -0.002823 0.006751 0.000000 0.000000 0.000000
# 4 0.000000 0.000000 0.000000 0.095356 0.000000 0.000000
# 5 0.000000 0.000000 0.000000 0.000000 0.035151 0.000000
# 6 0.000000 0.000000 0.000000 0.000000 0.000000 0.033219
#
#
# Mechanical properties :
#
#
# Convention : Reuss Voigt Hill
#
# Bulk Modulus (GPa) = 19.19681 63.59138 41.39410
# Shear Modulus (GPa) = 18.20529 31.61749 24.91139
#
# Velocity S-wave (km/s) = 2.98765 3.93726 3.49486
# Velocity P-wave (km/s) = 4.61666 7.20056 6.04821
#
# Compressibility (1/GPa) = 0.05209198
#
# Stress axis : x y z
#
# Youngs Moduli (GPa) = 135.29097 17.04121 148.12677
#
# Poissons Ratio (x) = 0.08717 0.35965
# Poissons Ratio (y) = 0.69206 0.41809
# Poissons Ratio (z) = 0.32849 0.04810
#
# Static dielectric constant tensor:
#      x y z
#    x 3.910350 0.000000 0.000000 
#    y 0.000000 3.325070 0.000000 
#    z 0.000000 0.000000 3.923120 
# 
# 
# High freq. dielectric constant tensor:
#      x y z
#    x 1.797410 0.000000 0.000000 
#    y 0.000000 1.740950 0.000000 
#    z 0.000000 0.000000 1.813510 
# 
# From -- ./inp_files/27992.got.cif
#   From: 2010.03.12/outbox.cif.g09.slc.cpg/sg66_14_cif.got.tgz:27992.got - 2010.04.10 21:57:39.
