data_PCOD8276205
_publ_section_title
;
Structure prediction by ZEFSAII (Michael W. Deem and Ramdas Pophale) SiO2 
 PCOD8276205
Probable space group: C C C M
;
_chemical_formula_sum "Si O2"
_cell_formula_units_Z 96
_cell_length_a 27.972551
_cell_length_b 9.963794
_cell_length_c 18.392313
_cell_angle_alpha 90.000000
_cell_angle_beta 90.000000
_cell_angle_gamma 90.000000
_cell_volume 5126.171874
_symmetry_space_group_name_H-M "C C C M"
_symmetry_group_IT_number 66
_symmetry_cell_setting 'orthorhombic'
loop_
_space_group_symop_operation_xyz
x,y,z
-x,-y,z
x,-y,1/2-z
-x,y,1/2-z
-x,-y,-z
x,y,-z
-x,y,1/2+z
x,-y,1/2+z
1/2+x,1/2+y,z
1/2-x,1/2-y,z
1/2+x,1/2-y,1/2-z
1/2-x,1/2+y,1/2-z
1/2-x,1/2-y,-z
1/2+x,1/2+y,-z
1/2-x,1/2+y,1/2+z
1/2+x,1/2-y,1/2+z
loop_
_atom_site_type_symbol
_atom_site_label
_atom_site_fract_x
_atom_site_fract_y
_atom_site_fract_z
Si Si1 0.837854 0.509588 0.167718
Si Si2 0.396492 0.730502 0.671020
Si Si3 0.250271 0.598914 0.914710
Si Si4 0.503088 0.149105 0.335975
Si Si5 0.144974 0.015996 0.584726
Si Si6 0.902499 0.255997 0.160699
O O1 0.819433 0.500000 0.250000
O O2 0.858300 0.656007 0.150352
O O3 0.792753 0.487514 0.116718
O O4 0.880062 0.403646 0.154289
O O5 0.448424 0.775387 0.641501
O O6 0.381621 0.595363 0.631334
O O7 0.397226 0.701739 0.757123
O O8 0.250000 0.750000 0.881567
O O9 0.299072 0.522016 0.894913
O O10 0.242557 0.608604 0.000000
O O11 0.500000 0.133683 0.250000
O O12 0.457935 0.235960 0.362911
O O13 0.500000 0.000000 0.370713
O O14 0.137435 0.986081 0.500000
O O15 0.123051 0.160115 0.603550
#
# Coordination Sequence:
#
# PCOD8276205 Si02
#       6
#    16  16  16  16  16  16
#     4  10  20  35  59  90 114 139 184 239 288 329
#     4  10  21  36  58  90 118 142 181 239 288 329
#     4  10  21  39  60  79 106 153 201 229 270 345
#     4   9  16  32  60  88 114 145 185 228 274 339
#     4  11  24  40  56  79 115 154 191 234 280 333
#     4  10  19  36  62  86 112 150 187 225 283 340
#
# _framework density 18.727426999999999
#
# number of rings (size 3 to 8) (size 9 to 14) (size 15 to 20)
#    0.000    2.000    3.333    0.500    0.000    3.333 
#    0.000    5.833    0.000    1.000    0.000    0.000 
#    0.000    0.000    0.000    0.000    0.000    0.000 
#
# Total GULP energy -595299.274980 kJ/mol
# GULP energy per Si atom -12402.068229 kJ/mol
# Density = 1.868480 g / cm^3
# Si number density = 18.727427 Si / 1000 Ang^3
#
#
#
# Elastic Constant Matrix: (Units=GPa)
#
#
# Indices 1 2 3 4 5 6 
#
# 1 130.4941 20.6748 35.7972 0.0000 0.0000 0.0000
# 2 20.6748 63.7110 19.1754 0.0000 0.0000 0.0000
# 3 35.7972 19.1754 28.2845 0.0000 0.0000 0.0000
# 4 0.0000 0.0000 0.0000 22.5414 0.0000 0.0000
# 5 0.0000 0.0000 0.0000 0.0000 6.2162 0.0000
# 6 0.0000 0.0000 0.0000 0.0000 0.0000 20.3078
#
#
#
# Elastic Compliance Matrix: (Units=1/GPa)
#
#
# Indices 1 2 3 4 5 6 
#
# 1 0.011774 0.000834 -0.015467 0.000000 0.000000 0.000000
# 2 0.000834 0.019779 -0.014465 0.000000 0.000000 0.000000
# 3 -0.015467 -0.014465 0.064737 0.000000 0.000000 0.000000
# 4 0.000000 0.000000 0.000000 0.044363 0.000000 0.000000
# 5 0.000000 0.000000 0.000000 0.000000 0.160870 0.000000
# 6 0.000000 0.000000 0.000000 0.000000 0.000000 0.049242
#
#
# Mechanical properties :
#
#
# Convention : Reuss Voigt Hill
#
# Bulk Modulus (GPa) = 26.25062 41.53160 33.89111
# Shear Modulus (GPa) = 11.85797 19.60255 15.73026
#
# Velocity S-wave (km/s) = 2.51905 3.23883 2.90135
# Velocity P-wave (km/s) = 4.74431 6.01762 5.41850
#
# Compressibility (1/GPa) = 0.03809434
#
# Stress axis : x y z
#
# Youngs Moduli (GPa) = 84.93398 50.55939 15.44721
#
# Poissons Ratio (x) = -0.04219 0.23892
# Poissons Ratio (y) = -0.07087 0.22344
# Poissons Ratio (z) = 1.31366 0.73134
#
# Static dielectric constant tensor:
#      x y z
#    x 3.628930 0.000000 0.000000 
#    y 0.000000 3.362220 0.000000 
#    z 0.000000 0.000000 3.168010 
# 
# 
# High freq. dielectric constant tensor:
#      x y z
#    x 1.742050 0.000000 0.000000 
#    y 0.000000 1.727780 0.000000 
#    z 0.000000 0.000000 1.698340 
# 
# From -- ./inp_files/47291.got.cif
#   From: 2010.03.12/outbox.cif.g09.slc.cpg/sg66_24_cif.got.tgz:47291.got - 2010.04.10 21:57:39.
