data_PCOD8276540
_publ_section_title
;
Structure prediction by ZEFSAII (Michael W. Deem and Ramdas Pophale) SiO2 
 PCOD8276540
Probable space group: C C C M
;
_chemical_formula_sum "Si O2"
_cell_formula_units_Z 96
_cell_length_a 12.871511
_cell_length_b 19.614185
_cell_length_c 21.318007
_cell_angle_alpha 90.000000
_cell_angle_beta 90.000000
_cell_angle_gamma 90.000000
_cell_volume 5382.033540
_symmetry_space_group_name_H-M "C C C M"
_symmetry_group_IT_number 66
_symmetry_cell_setting 'orthorhombic'
loop_
_space_group_symop_operation_xyz
x,y,z
-x,-y,z
x,-y,1/2-z
-x,y,1/2-z
-x,-y,-z
x,y,-z
-x,y,1/2+z
x,-y,1/2+z
1/2+x,1/2+y,z
1/2-x,1/2-y,z
1/2+x,1/2-y,1/2-z
1/2-x,1/2+y,1/2-z
1/2-x,1/2-y,-z
1/2+x,1/2+y,-z
1/2-x,1/2+y,1/2+z
1/2+x,1/2-y,1/2+z
loop_
_atom_site_type_symbol
_atom_site_label
_atom_site_fract_x
_atom_site_fract_y
_atom_site_fract_z
Si Si1 0.849906 0.677982 0.428118
Si Si2 0.875997 0.815650 0.622658
Si Si3 0.296246 0.531185 0.655202
Si Si4 0.384617 0.974284 0.072297
Si Si5 0.118940 0.091213 0.726663
Si Si6 0.962020 0.077442 0.430437
O O1 0.874540 0.695686 0.500000
O O2 0.905933 0.735735 0.384865
O O3 0.726495 0.674799 0.418662
O O4 0.893332 0.604719 0.409114
O O5 0.859587 0.834027 0.696675
O O6 0.962454 0.867579 0.599738
O O7 0.185816 0.513181 0.623780
O O8 0.362331 0.462811 0.670101
O O9 0.294430 0.575543 0.719834
O O10 0.354268 0.579782 0.606385
O O11 0.500000 0.000000 0.078591
O O12 0.342611 0.983009 0.000000
O O13 0.000000 0.083084 0.750000
O O14 0.940045 0.103068 0.500000
O O15 0.000000 0.000000 0.430203
#
# Coordination Sequence:
#
# PCOD8276540 Si02
#       6
#    16  16  16  16  16  16
#     4  10  20  35  57  85 116 146 183 239 295 338
#     4  11  19  32  53  82 115 148 182 224 284 355
#     4  11  19  33  53  79 110 146 184 229 281 338
#     4  10  21  39  63  84 106 143 196 251 296 338
#     4  11  20  32  53  79 117 155 177 216 282 349
#     4  11  18  26  46  80 113 137 171 223 278 339
#
# _framework density 17.837125
#
# number of rings (size 3 to 8) (size 9 to 14) (size 15 to 20)
#    0.000    1.333    5.000    3.500    0.000    2.667 
#    0.000    1.667    7.333    1.000    0.000    4.667 
#    0.000    0.000    0.000    0.000    0.000    0.000 
#
# Total GULP energy -594715.200482 kJ/mol
# GULP energy per Si atom -12389.900010 kJ/mol
# Density = 1.779653 g / cm^3
# Si number density = 17.837125 Si / 1000 Ang^3
#
#
#
# Elastic Constant Matrix: (Units=GPa)
#
#
# Indices 1 2 3 4 5 6 
#
# 1 70.1508 50.1435 36.5220 0.0000 0.0000 0.0000
# 2 50.1435 115.2499 53.3703 0.0000 0.0000 0.0000
# 3 36.5220 53.3703 107.3557 0.0000 0.0000 0.0000
# 4 0.0000 0.0000 0.0000 38.2398 0.0000 0.0000
# 5 0.0000 0.0000 0.0000 0.0000 -14.1211 0.0000
# 6 0.0000 0.0000 0.0000 0.0000 0.0000 21.6074
#
#
#
# Elastic Compliance Matrix: (Units=1/GPa)
#
#
# Indices 1 2 3 4 5 6 
#
# 1 0.021648 -0.007805 -0.003484 0.000000 0.000000 0.000000
# 2 -0.007805 0.014086 -0.004347 0.000000 0.000000 0.000000
# 3 -0.003484 -0.004347 0.012661 0.000000 0.000000 0.000000
# 4 0.000000 0.000000 0.000000 0.026151 0.000000 0.000000
# 5 0.000000 0.000000 0.000000 0.000000 -0.070816 0.000000
# 6 0.000000 0.000000 0.000000 0.000000 0.000000 0.046281
#
#
# Mechanical properties :
#
#
# Convention : Reuss Voigt Hill
#
# Bulk Modulus (GPa) = 58.40548 63.64756 61.02652
# Shear Modulus (GPa) = 57.47680 19.32659 38.40170
#
# Velocity S-wave (km/s) = 5.68270 3.29523 4.64498
# Velocity P-wave (km/s) = 8.71047 7.08789 7.94073
#
# Compressibility (1/GPa) = 0.01712168
#
# Stress axis : x y z
#
# Youngs Moduli (GPa) = 46.19321 70.99300 78.98028
#
# Poissons Ratio (x) = 0.55412 0.27520
# Poissons Ratio (y) = 0.36055 0.34335
# Poissons Ratio (z) = 0.16095 0.30863
#
# Static dielectric constant tensor:
#      x y z
#    x 2.833010 0.000000 0.000000 
#    y 0.000000 3.702500 0.000000 
#    z 0.000000 0.000000 3.680570 
# 
# 
# High freq. dielectric constant tensor:
#      x y z
#    x 1.655940 0.000000 0.000000 
#    y 0.000000 1.677970 0.000000 
#    z 0.000000 0.000000 1.701080 
# 
# From -- ./inp_files/48818.got.cif
#   From: 2010.03.12/outbox.cif.g09.slc.cpg/sg66_25_cif.got.tgz:48818.got - 2010.04.10 21:57:39.
