data_PCOD8276996
_publ_section_title
;
Structure prediction by ZEFSAII (Michael W. Deem and Ramdas Pophale) SiO2 
 PCOD8276996
Probable space group: C C C M
;
_chemical_formula_sum "Si O2"
_cell_formula_units_Z 112
_cell_length_a 16.191401
_cell_length_b 23.856742
_cell_length_c 14.973245
_cell_angle_alpha 90.000000
_cell_angle_beta 90.000000
_cell_angle_gamma 90.000000
_cell_volume 5783.776381
_symmetry_space_group_name_H-M "C C C M"
_symmetry_group_IT_number 66
_symmetry_cell_setting 'orthorhombic'
loop_
_space_group_symop_operation_xyz
x,y,z
-x,-y,z
x,-y,1/2-z
-x,y,1/2-z
-x,-y,-z
x,y,-z
-x,y,1/2+z
x,-y,1/2+z
1/2+x,1/2+y,z
1/2-x,1/2-y,z
1/2+x,1/2-y,1/2-z
1/2-x,1/2+y,1/2-z
1/2-x,1/2-y,-z
1/2+x,1/2+y,-z
1/2-x,1/2+y,1/2+z
1/2+x,1/2-y,1/2+z
loop_
_atom_site_type_symbol
_atom_site_label
_atom_site_fract_x
_atom_site_fract_y
_atom_site_fract_z
Si Si1 0.295190 0.696635 0.600331
Si Si2 0.005458 0.433934 0.851351
Si Si3 0.715251 0.438675 0.235689
Si Si4 0.153808 0.258339 0.601439
Si Si5 0.903907 0.165142 0.758434
Si Si6 0.686577 0.090120 0.402766
Si Si7 0.660052 0.115809 0.900186
O O1 0.329073 0.705751 0.500000
O O2 0.250000 0.750000 0.640778
O O3 0.373789 0.685056 0.661704
O O4 0.222289 0.652100 0.603422
O O5 0.929219 0.411610 0.907909
O O6 0.000000 0.500000 0.857995
O O7 0.000000 0.412863 0.750000
O O8 0.088378 0.408809 0.892807
O O9 0.673797 0.500000 0.250000
O O10 0.643268 0.393213 0.223251
O O11 0.769315 0.443509 0.325409
O O12 0.780048 0.424610 0.156965
O O13 0.117454 0.252619 0.500000
O O14 0.250000 0.250000 0.599398
O O15 0.111374 0.211938 0.665262
O O16 0.144546 0.321702 0.640058
O O17 0.000000 0.151973 0.750000
O O18 0.708473 0.063852 0.500000
O O19 0.698111 0.120925 0.000000
#
# Coordination Sequence:
#
# PCOD8276996 Si02
#       7
#    16  16  16  16  16  16  16
#     4   9  20  38  61  86 115 153 196 237 287 356
#     4  11  22  35  53  84 124 159 194 242 294 356
#     4  11  23  40  61  84 115 158 210 255 297 359
#     4  10  21  40  64  91 120 153 200 250 299 365
#     4  11  24  39  62  91 122 160 197 253 314 354
#     4  10  21  37  56  80 115 154 192 240 293 347
#     4  11  23  38  62  91 121 162 204 246 304 363
#
# _framework density 19.364511
#
# number of rings (size 3 to 8) (size 9 to 14) (size 15 to 20)
#    0.000    1.571    2.857    1.714    2.000    5.429 
#    0.000    2.857    0.000    0.000    0.000    6.000 
#    0.000    0.000    0.000    0.000    0.000    0.000 
#
# Total GULP energy -693851.906545 kJ/mol
# GULP energy per Si atom -12390.212617 kJ/mol
# Density = 1.932044 g / cm^3
# Si number density = 19.364511 Si / 1000 Ang^3
#
#
#
# Elastic Constant Matrix: (Units=GPa)
#
#
# Indices 1 2 3 4 5 6 
#
# 1 120.0206 33.8672 38.6588 0.0000 0.0000 0.0000
# 2 33.8672 104.8610 40.1271 0.0000 0.0000 0.0000
# 3 38.6588 40.1271 106.9285 0.0000 0.0000 0.0000
# 4 0.0000 0.0000 0.0000 22.3886 0.0000 0.0000
# 5 0.0000 0.0000 0.0000 0.0000 15.5028 0.0000
# 6 0.0000 0.0000 0.0000 0.0000 0.0000 14.2937
#
#
#
# Elastic Compliance Matrix: (Units=1/GPa)
#
#
# Indices 1 2 3 4 5 6 
#
# 1 0.009816 -0.002116 -0.002755 0.000000 0.000000 0.000000
# 2 -0.002116 0.011592 -0.003585 0.000000 0.000000 0.000000
# 3 -0.002755 -0.003585 0.011693 0.000000 0.000000 0.000000
# 4 0.000000 0.000000 0.000000 0.044666 0.000000 0.000000
# 5 0.000000 0.000000 0.000000 0.000000 0.064505 0.000000
# 6 0.000000 0.000000 0.000000 0.000000 0.000000 0.069961
#
#
# Mechanical properties :
#
#
# Convention : Reuss Voigt Hill
#
# Bulk Modulus (GPa) = 61.76857 61.90182 61.83519
# Shear Modulus (GPa) = 21.31820 25.04747 23.18283
#
# Velocity S-wave (km/s) = 3.32157 3.60039 3.46378
# Velocity P-wave (km/s) = 6.83209 7.02280 6.92810
#
# Compressibility (1/GPa) = 0.01618946
#
# Stress axis : x y z
#
# Youngs Moduli (GPa) = 101.87037 86.26811 85.51864
#
# Poissons Ratio (x) = 0.18256 0.23559
# Poissons Ratio (y) = 0.21558 0.30658
# Poissons Ratio (z) = 0.28064 0.30927
#
# Static dielectric constant tensor:
#      x y z
#    x 3.259710 0.000000 0.000000 
#    y 0.000000 3.403170 0.000000 
#    z 0.000000 0.000000 4.317000 
# 
# 
# High freq. dielectric constant tensor:
#      x y z
#    x 1.733890 0.000000 0.000000 
#    y 0.000000 1.761090 0.000000 
#    z 0.000000 0.000000 1.768710 
# 
# From -- ./inp_files/28690.got.cif
#   From: 2010.03.12/outbox.cif.g09.slc.cpg/sg66_15_cif.got.tgz:28690.got - 2010.04.10 21:57:39.
