data_PCOD8276308
_publ_section_title
;
Structure prediction by ZEFSAII (Michael W. Deem and Ramdas Pophale) SiO2 
 PCOD8276308
Probable space group: C C C M
;
_chemical_formula_sum "Si O2"
_cell_formula_units_Z 96
_cell_length_a 16.584250
_cell_length_b 11.632896
_cell_length_c 26.289026
_cell_angle_alpha 90.000000
_cell_angle_beta 90.000000
_cell_angle_gamma 90.000000
_cell_volume 5071.753964
_symmetry_space_group_name_H-M "C C C M"
_symmetry_group_IT_number 66
_symmetry_cell_setting 'orthorhombic'
loop_
_space_group_symop_operation_xyz
x,y,z
-x,-y,z
x,-y,1/2-z
-x,y,1/2-z
-x,-y,-z
x,y,-z
-x,y,1/2+z
x,-y,1/2+z
1/2+x,1/2+y,z
1/2-x,1/2-y,z
1/2+x,1/2-y,1/2-z
1/2-x,1/2+y,1/2-z
1/2-x,1/2-y,-z
1/2+x,1/2+y,-z
1/2-x,1/2+y,1/2+z
1/2+x,1/2-y,1/2+z
loop_
_atom_site_type_symbol
_atom_site_label
_atom_site_fract_x
_atom_site_fract_y
_atom_site_fract_z
Si Si1 0.983238 0.365178 0.693106
Si Si2 0.833522 0.497201 0.941314
Si Si3 0.836813 0.291435 0.633006
Si Si4 0.155641 0.914763 0.942795
Si Si5 0.924080 0.854391 0.943210
Si Si6 0.426460 0.219595 0.402107
O O1 0.891095 0.328804 0.681141
O O2 0.000000 0.500000 0.687615
O O3 0.000000 0.322345 0.750000
O O4 0.042450 0.298665 0.654870
O O5 0.849037 0.607221 0.907257
O O6 0.742005 0.466112 0.929434
O O7 0.898984 0.400145 0.926774
O O8 0.846769 0.529734 0.000000
O O9 0.750000 0.250000 0.653519
O O10 0.865392 0.181156 0.602133
O O11 0.147093 0.809760 0.902740
O O12 0.081271 0.006212 0.938221
O O13 0.157415 0.864017 0.000000
O O14 0.008911 0.789210 0.936677
O O15 0.891694 0.823718 0.000000
#
# Coordination Sequence:
#
# PCOD8276308 Si02
#       6
#    16  16  16  16  16  16
#     4  10  22  43  66  83 107 144 194 255 310 346
#     4  11  21  33  53  86 124 159 189 231 283 341
#     4  11  21  37  59  86 117 149 192 240 288 346
#     4  10  20  34  52  80 123 165 191 223 279 349
#     4  10  20  32  53  82 117 162 195 227 275 340
#     4  11  21  35  56  82 111 151 200 243 283 343
#
# _framework density 18.928362
#
# number of rings (size 3 to 8) (size 9 to 14) (size 15 to 20)
#    0.000    1.500    3.333    3.000    0.000    3.333 
#    0.000    4.167    0.000    8.000    0.000    0.000 
#    0.000    0.000    0.000    0.000    0.000    0.000 
#
# Total GULP energy -594740.479898 kJ/mol
# GULP energy per Si atom -12390.426665 kJ/mol
# Density = 1.888528 g / cm^3
# Si number density = 18.928362 Si / 1000 Ang^3
#
#
#
# Elastic Constant Matrix: (Units=GPa)
#
#
# Indices 1 2 3 4 5 6 
#
# 1 61.5300 21.6859 39.0430 0.0000 0.0000 0.0000
# 2 21.6859 85.8356 39.9258 0.0000 0.0000 0.0000
# 3 39.0430 39.9258 116.5515 0.0000 0.0000 0.0000
# 4 0.0000 0.0000 0.0000 25.3299 0.0000 0.0000
# 5 0.0000 0.0000 0.0000 0.0000 26.3670 0.0000
# 6 0.0000 0.0000 0.0000 0.0000 0.0000 33.9449
#
#
#
# Elastic Compliance Matrix: (Units=1/GPa)
#
#
# Indices 1 2 3 4 5 6 
#
# 1 0.021055 -0.002425 -0.006222 0.000000 0.000000 0.000000
# 2 -0.002425 0.014138 -0.004031 0.000000 0.000000 0.000000
# 3 -0.006222 -0.004031 0.012045 0.000000 0.000000 0.000000
# 4 0.000000 0.000000 0.000000 0.039479 0.000000 0.000000
# 5 0.000000 0.000000 0.000000 0.000000 0.037926 0.000000
# 6 0.000000 0.000000 0.000000 0.000000 0.000000 0.029460
#
#
# Mechanical properties :
#
#
# Convention : Reuss Voigt Hill
#
# Bulk Modulus (GPa) = 45.70046 51.69183 48.69614
# Shear Modulus (GPa) = 26.77330 28.01252 27.39291
#
# Velocity S-wave (km/s) = 3.76500 3.85115 3.80832
# Velocity P-wave (km/s) = 6.56480 6.86612 6.71715
#
# Compressibility (1/GPa) = 0.02188162
#
# Stress axis : x y z
#
# Youngs Moduli (GPa) = 47.49381 70.73291 83.02168
#
# Poissons Ratio (x) = 0.17154 0.51660
# Poissons Ratio (y) = 0.11518 0.33463
# Poissons Ratio (z) = 0.29553 0.28510
#
# Static dielectric constant tensor:
#      x y z
#    x 3.720920 0.000000 0.000000 
#    y 0.000000 3.619440 0.000000 
#    z 0.000000 0.000000 3.261650 
# 
# 
# High freq. dielectric constant tensor:
#      x y z
#    x 1.744970 0.000000 0.000000 
#    y 0.000000 1.748500 0.000000 
#    z 0.000000 0.000000 1.701300 
# 
# From -- ./inp_files/56911.got.cif
#   From: 2010.03.12/outbox.cif.g09.slc.cpg/sg66_29_cif.got.tgz:56911.got - 2010.04.10 21:57:39.
