data_PCOD8276535
_publ_section_title
;
Structure prediction by ZEFSAII (Michael W. Deem and Ramdas Pophale) SiO2 
 PCOD8276535
Probable space group: C C C M
;
_chemical_formula_sum "Si O2"
_cell_formula_units_Z 96
_cell_length_a 18.805874
_cell_length_b 28.105735
_cell_length_c 8.582923
_cell_angle_alpha 90.000000
_cell_angle_beta 90.000000
_cell_angle_gamma 90.000000
_cell_volume 4536.528937
_symmetry_space_group_name_H-M "C C C M"
_symmetry_group_IT_number 66
_symmetry_cell_setting 'orthorhombic'
loop_
_space_group_symop_operation_xyz
x,y,z
-x,-y,z
x,-y,1/2-z
-x,y,1/2-z
-x,-y,-z
x,y,-z
-x,y,1/2+z
x,-y,1/2+z
1/2+x,1/2+y,z
1/2-x,1/2-y,z
1/2+x,1/2-y,1/2-z
1/2-x,1/2+y,1/2-z
1/2-x,1/2-y,-z
1/2+x,1/2+y,-z
1/2-x,1/2+y,1/2+z
1/2+x,1/2-y,1/2+z
loop_
_atom_site_type_symbol
_atom_site_label
_atom_site_fract_x
_atom_site_fract_y
_atom_site_fract_z
Si Si1 0.423849 0.353662 0.815193
Si Si2 0.064761 0.298431 0.329552
Si Si3 0.317380 0.277897 0.326759
Si Si4 0.927153 0.396896 0.679754
Si Si5 0.788912 0.448663 0.314148
Si Si6 0.638716 0.552887 0.685019
O O1 0.500000 0.334596 0.750000
O O2 0.355866 0.320437 0.767552
O O3 0.414907 0.407395 0.750993
O O4 0.427339 0.354218 0.000000
O O5 0.043670 0.319013 0.500000
O O6 0.129546 0.264706 0.347433
O O7 0.079585 0.341256 0.211982
O O8 0.000000 0.269156 0.250000
O O9 0.296355 0.297228 0.500000
O O10 0.250000 0.250000 0.246609
O O11 0.928410 0.408903 0.500000
O O12 0.855276 0.418729 0.750627
O O13 0.000000 0.418668 0.750000
O O14 0.804808 0.500000 0.250000
O O15 0.779966 0.447791 0.500000
O O16 0.716549 0.429387 0.237879
O O17 0.620932 0.500000 0.750000
O O18 0.633012 0.550879 0.500000
#
# Coordination Sequence:
#
# PCOD8276535 Si02
#       6
#    16  16  16  16  16  16
#     4  12  26  45  69  99 133 172 216 263 319 378
#     4  10  20  35  57  82 114 156 200 248 301 361
#     4  10  23  42  63  94 129 166 211 257 312 373
#     4  10  21  35  54  81 115 153 204 255 307 369
#     4  10  21  37  57  85 118 158 203 256 312 377
#     4  11  23  42  68  97 130 168 211 262 319 383
#
# _framework density 21.161553999999999
#
# number of rings (size 3 to 8) (size 9 to 14) (size 15 to 20)
#    0.000    1.500    0.000    7.000    2.333    6.333 
#    0.000    3.333    0.000    0.000    0.000    0.000 
#    0.000    0.000    0.000    0.000    0.000    0.000 
#
# Total GULP energy -594756.874526 kJ/mol
# GULP energy per Si atom -12390.768219 kJ/mol
# Density = 2.111339 g / cm^3
# Si number density = 21.161554 Si / 1000 Ang^3
#
#
#
# Elastic Constant Matrix: (Units=GPa)
#
#
# Indices 1 2 3 4 5 6 
#
# 1 99.0623 59.1041 44.3676 0.0000 0.0000 0.0000
# 2 59.1041 68.9529 35.9133 0.0000 0.0000 0.0000
# 3 44.3676 35.9133 130.0430 0.0000 0.0000 0.0000
# 4 0.0000 0.0000 0.0000 29.3913 0.0000 0.0000
# 5 0.0000 0.0000 0.0000 0.0000 31.3337 0.0000
# 6 0.0000 0.0000 0.0000 0.0000 0.0000 30.9482
#
#
#
# Elastic Compliance Matrix: (Units=1/GPa)
#
#
# Indices 1 2 3 4 5 6 
#
# 1 0.021394 -0.016978 -0.002610 0.000000 0.000000 0.000000
# 2 -0.016978 0.030414 -0.002607 0.000000 0.000000 0.000000
# 3 -0.002610 -0.002607 0.009300 0.000000 0.000000 0.000000
# 4 0.000000 0.000000 0.000000 0.034024 0.000000 0.000000
# 5 0.000000 0.000000 0.000000 0.000000 0.031914 0.000000
# 6 0.000000 0.000000 0.000000 0.000000 0.000000 0.032312
#
#
# Mechanical properties :
#
#
# Convention : Reuss Voigt Hill
#
# Bulk Modulus (GPa) = 59.81898 64.09203 61.95550
# Shear Modulus (GPa) = 23.88688 28.91287 26.39987
#
# Velocity S-wave (km/s) = 3.36339 3.70035 3.53588
# Velocity P-wave (km/s) = 6.58880 6.97205 6.78313
#
# Compressibility (1/GPa) = 0.01671710
#
# Stress axis : x y z
#
# Youngs Moduli (GPa) = 46.74296 32.88011 107.52559
#
# Poissons Ratio (x) = 0.55825 0.28066
# Poissons Ratio (y) = 0.79362 0.28027
# Poissons Ratio (z) = 0.12201 0.08570
#
# Static dielectric constant tensor:
#      x y z
#    x 4.229410 0.000000 0.000000 
#    y 0.000000 3.753840 0.000000 
#    z 0.000000 0.000000 4.110630 
# 
# 
# High freq. dielectric constant tensor:
#      x y z
#    x 1.844260 0.000000 0.000000 
#    y 0.000000 1.822800 0.000000 
#    z 0.000000 0.000000 1.835310 
# 
# From -- ./inp_files/8044.got.cif
#   From: 2010.03.12/outbox.cif.g09.slc.cpg/sg66_5_cif.got.tgz:8044.got - 2010.04.10 21:57:39.
