data_PCOD8276909
_publ_section_title
;
Structure prediction by ZEFSAII (Michael W. Deem and Ramdas Pophale) SiO2 
 PCOD8276909
Probable space group: C C C M
;
_chemical_formula_sum "Si O2"
_cell_formula_units_Z 104
_cell_length_a 9.434981
_cell_length_b 25.482100
_cell_length_c 20.367904
_cell_angle_alpha 90.000000
_cell_angle_beta 90.000000
_cell_angle_gamma 90.000000
_cell_volume 4896.915218
_symmetry_space_group_name_H-M "C C C M"
_symmetry_group_IT_number 66
_symmetry_cell_setting 'orthorhombic'
loop_
_space_group_symop_operation_xyz
x,y,z
-x,-y,z
x,-y,1/2-z
-x,y,1/2-z
-x,-y,-z
x,y,-z
-x,y,1/2+z
x,-y,1/2+z
1/2+x,1/2+y,z
1/2-x,1/2-y,z
1/2+x,1/2-y,1/2-z
1/2-x,1/2+y,1/2-z
1/2-x,1/2-y,-z
1/2+x,1/2+y,-z
1/2-x,1/2+y,1/2+z
1/2+x,1/2-y,1/2+z
loop_
_atom_site_type_symbol
_atom_site_label
_atom_site_fract_x
_atom_site_fract_y
_atom_site_fract_z
Si Si1 0.851294 0.383794 0.000000
Si Si2 0.719470 0.491011 0.000000
Si Si3 0.707884 0.126598 0.142268
Si Si4 0.668774 0.696928 0.246411
Si Si5 0.928392 0.047115 0.870856
Si Si6 0.302179 0.386406 0.866746
Si Si7 0.537929 0.056078 0.325194
Si Si8 0.678520 0.110882 0.500000
O O1 0.841119 0.446922 0.000000
O O2 0.771568 0.359906 0.064663
O O3 0.016211 0.371859 0.000000
O O4 0.620353 0.482340 0.062988
O O5 0.792476 0.548072 0.000000
O O6 0.758850 0.175092 0.186501
O O7 0.797704 0.075193 0.165187
O O8 0.545332 0.107472 0.148059
O O9 0.500000 0.706315 0.250000
O O10 0.750000 0.750000 0.229952
O O11 0.699594 0.658351 0.187206
O O12 0.040829 0.093483 0.881687
O O13 0.000000 0.000000 0.827712
O O14 0.202683 0.433802 0.840360
O O15 0.245759 0.363173 0.935326
O O16 0.500000 0.051448 0.250000
O O17 0.500000 0.000000 0.359544
#
# Coordination Sequence:
#
# PCOD8276909 Si02
#       8
#     8   8  16  16  16  16  16   8
#     4  10  23  35  65 101 146 186 228 269 325 398
#     4  10  21  34  57  95 145 200 223 255 316 398
#     4  11  23  44  65  99 139 180 230 278 334 408
#     4  12  29  52  77  99 123 171 233 299 364 415
#     4  11  20  36  60  95 140 182 221 260 325 397
#     4  12  24  41  66 101 137 181 230 282 328 405
#     4  11  23  37  60  97 145 191 227 270 325 392
#     4  12  22  36  65 101 150 184 232 265 322 402
#
# _framework density 21.237860000000001
#
# number of rings (size 3 to 8) (size 9 to 14) (size 15 to 20)
#    0.000    0.769    6.154    1.846    4.308    0.000 
#    0.000    1.538    0.000    0.000    0.000    0.000 
#    0.000    0.000    0.000    0.000    0.000    0.000 
#
# Total GULP energy -644452.013762 kJ/mol
# GULP energy per Si atom -12393.307957 kJ/mol
# Density = 2.118952 g / cm^3
# Si number density = 21.237860 Si / 1000 Ang^3
#
#
#
# Elastic Constant Matrix: (Units=GPa)
#
#
# Indices 1 2 3 4 5 6 
#
# 1 86.1650 25.2974 19.4280 0.0000 0.0000 0.0000
# 2 25.2974 78.8389 27.0732 0.0000 0.0000 0.0000
# 3 19.4280 27.0732 115.0345 0.0000 0.0000 0.0000
# 4 0.0000 0.0000 0.0000 11.6344 0.0000 0.0000
# 5 0.0000 0.0000 0.0000 0.0000 15.0339 0.0000
# 6 0.0000 0.0000 0.0000 0.0000 0.0000 30.8458
#
#
#
# Elastic Compliance Matrix: (Units=1/GPa)
#
#
# Indices 1 2 3 4 5 6 
#
# 1 0.012994 -0.003716 -0.001320 0.000000 0.000000 0.000000
# 2 -0.003716 0.014862 -0.002870 0.000000 0.000000 0.000000
# 3 -0.001320 -0.002870 0.009591 0.000000 0.000000 0.000000
# 4 0.000000 0.000000 0.000000 0.085952 0.000000 0.000000
# 5 0.000000 0.000000 0.000000 0.000000 0.066516 0.000000
# 6 0.000000 0.000000 0.000000 0.000000 0.000000 0.032419
#
#
# Mechanical properties :
#
#
# Convention : Reuss Voigt Hill
#
# Bulk Modulus (GPa) = 46.22110 47.07064 46.64587
# Shear Modulus (GPa) = 20.37825 25.38548 22.88187
#
# Velocity S-wave (km/s) = 3.10098 3.46105 3.28595
# Velocity P-wave (km/s) = 5.88491 6.17928 6.03389
#
# Compressibility (1/GPa) = 0.02163514
#
# Stress axis : x y z
#
# Youngs Moduli (GPa) = 76.95667 67.28496 104.25936
#
# Poissons Ratio (x) = 0.25005 0.13762
# Poissons Ratio (y) = 0.28599 0.29924
# Poissons Ratio (z) = 0.10158 0.19312
#
# Static dielectric constant tensor:
#      x y z
#    x 4.060090 0.000000 0.000000 
#    y 0.000000 3.562580 0.000000 
#    z 0.000000 0.000000 4.146570 
# 
# 
# High freq. dielectric constant tensor:
#      x y z
#    x 1.857430 0.000000 0.000000 
#    y 0.000000 1.785070 0.000000 
#    z 0.000000 0.000000 1.836690 
# 
# From -- ./inp_files/47464.got.cif
#   From: 2010.03.12/outbox.cif.g09.slc.cpg/sg66_24_cif.got.tgz:47464.got - 2010.04.10 21:57:39.
