data_PCOD8276248
_publ_section_title
;
Structure prediction by ZEFSAII (Michael W. Deem and Ramdas Pophale) SiO2 
 PCOD8276248
Probable space group: C C C M
;
_chemical_formula_sum "Si O2"
_cell_formula_units_Z 64
_cell_length_a 15.899467
_cell_length_b 14.048666
_cell_length_c 13.639604
_cell_angle_alpha 90.000000
_cell_angle_beta 90.000000
_cell_angle_gamma 90.000000
_cell_volume 3046.627899
_symmetry_space_group_name_H-M "C C C M"
_symmetry_group_IT_number 66
_symmetry_cell_setting 'orthorhombic'
loop_
_space_group_symop_operation_xyz
x,y,z
-x,-y,z
x,-y,1/2-z
-x,y,1/2-z
-x,-y,-z
x,y,-z
-x,y,1/2+z
x,-y,1/2+z
1/2+x,1/2+y,z
1/2-x,1/2-y,z
1/2+x,1/2-y,1/2-z
1/2-x,1/2+y,1/2-z
1/2-x,1/2-y,-z
1/2+x,1/2+y,-z
1/2-x,1/2+y,1/2+z
1/2+x,1/2-y,1/2+z
loop_
_atom_site_type_symbol
_atom_site_label
_atom_site_fract_x
_atom_site_fract_y
_atom_site_fract_z
Si Si1 0.271630 0.860485 0.612015
Si Si2 0.957255 0.404928 0.384911
Si Si3 0.966876 0.206281 0.113389
Si Si4 0.111019 0.897814 0.720198
O O1 0.263761 0.895823 0.500000
O O2 0.250000 0.750000 0.619235
O O3 0.363570 0.884495 0.656347
O O4 0.204404 0.914032 0.679634
O O5 0.947188 0.416420 0.500000
O O6 0.018157 0.316878 0.360311
O O7 0.000000 0.500000 0.339390
O O8 0.051945 0.147461 0.136170
O O9 0.891415 0.169398 0.182687
O O10 0.942561 0.192066 0.000000
O O11 0.074655 0.000000 0.750000
#
# Coordination Sequence:
#
# PCOD8276248 Si02
#       4
#    16  16  16  16
#     4  10  19  38  66  88 118 163 207 257 313 382
#     4   9  18  36  63  92 117 152 207 259 313 375
#     4  10  20  38  62  86 120 160 198 254 315 368
#     4  11  23  37  56  91 120 154 207 257 302 378
#
# _framework density 21.006831999999999
#
# number of rings (size 3 to 8) (size 9 to 14) (size 15 to 20)
#    0.000    2.000    2.500    2.250    0.000    3.000 
#    4.500    2.500    0.000    0.750    0.000    0.000 
#    0.000    1.000    0.000    0.000    0.000    0.000 
#
# Total GULP energy -396675.310187 kJ/mol
# GULP energy per Si atom -12396.103443 kJ/mol
# Density = 2.095902 g / cm^3
# Si number density = 21.006832 Si / 1000 Ang^3
#
#
#
# Elastic Constant Matrix: (Units=GPa)
#
#
# Indices 1 2 3 4 5 6 
#
# 1 120.8205 48.6553 43.6114 0.0000 0.0000 0.0000
# 2 48.6553 142.6113 29.0361 0.0000 0.0000 0.0000
# 3 43.6114 29.0361 102.2871 0.0000 0.0000 0.0000
# 4 0.0000 0.0000 0.0000 30.7099 0.0000 0.0000
# 5 0.0000 0.0000 0.0000 0.0000 30.8438 0.0000
# 6 0.0000 0.0000 0.0000 0.0000 0.0000 29.1596
#
#
#
# Elastic Compliance Matrix: (Units=1/GPa)
#
#
# Indices 1 2 3 4 5 6 
#
# 1 0.010819 -0.002921 -0.003784 0.000000 0.000000 0.000000
# 2 -0.002921 0.008231 -0.001091 0.000000 0.000000 0.000000
# 3 -0.003784 -0.001091 0.011699 0.000000 0.000000 0.000000
# 4 0.000000 0.000000 0.000000 0.032563 0.000000 0.000000
# 5 0.000000 0.000000 0.000000 0.000000 0.032421 0.000000
# 6 0.000000 0.000000 0.000000 0.000000 0.000000 0.034294
#
#
# Mechanical properties :
#
#
# Convention : Reuss Voigt Hill
#
# Bulk Modulus (GPa) = 65.97258 67.59159 66.78209
# Shear Modulus (GPa) = 33.18502 34.43706 33.81104
#
# Velocity S-wave (km/s) = 3.97889 4.05325 4.01624
# Velocity P-wave (km/s) = 7.25136 7.35874 7.30524
#
# Compressibility (1/GPa) = 0.01515781
#
# Stress axis : x y z
#
# Youngs Moduli (GPa) = 92.43302 121.49640 85.47504
#
# Poissons Ratio (x) = 0.35485 0.32340
# Poissons Ratio (y) = 0.26997 0.09327
# Poissons Ratio (z) = 0.34973 0.13257
#
# Static dielectric constant tensor:
#      x y z
#    x 3.777590 0.000000 0.000000 
#    y 0.000000 3.976320 0.000000 
#    z 0.000000 0.000000 3.716800 
# 
# 
# High freq. dielectric constant tensor:
#      x y z
#    x 1.805500 0.000000 0.000000 
#    y 0.000000 1.824480 0.000000 
#    z 0.000000 0.000000 1.819810 
# 
# From -- ./inp_files/27726.got.cif
#   From: 2010.03.12/outbox.cif.g09.slc.cpg/sg66_14_cif.got.tgz:27726.got - 2010.04.10 21:57:39.
