data_PCOD8276651
_publ_section_title
;
Structure prediction by ZEFSAII (Michael W. Deem and Ramdas Pophale) SiO2 
 PCOD8276651
Probable space group: C C C M
;
_chemical_formula_sum "Si O2"
_cell_formula_units_Z 96
_cell_length_a 19.058632
_cell_length_b 17.601753
_cell_length_c 14.819598
_cell_angle_alpha 90.000000
_cell_angle_beta 90.000000
_cell_angle_gamma 90.000000
_cell_volume 4971.461378
_symmetry_space_group_name_H-M "C C C M"
_symmetry_group_IT_number 66
_symmetry_cell_setting 'orthorhombic'
loop_
_space_group_symop_operation_xyz
x,y,z
-x,-y,z
x,-y,1/2-z
-x,y,1/2-z
-x,-y,-z
x,y,-z
-x,y,1/2+z
x,-y,1/2+z
1/2+x,1/2+y,z
1/2-x,1/2-y,z
1/2+x,1/2-y,1/2-z
1/2-x,1/2+y,1/2-z
1/2-x,1/2-y,-z
1/2+x,1/2+y,-z
1/2-x,1/2+y,1/2+z
1/2+x,1/2-y,1/2+z
loop_
_atom_site_type_symbol
_atom_site_label
_atom_site_fract_x
_atom_site_fract_y
_atom_site_fract_z
Si Si1 0.654470 0.076044 0.601609
Si Si2 0.852563 0.598633 0.399279
Si Si3 0.758419 0.337674 0.252771
Si Si4 0.497020 0.910828 0.647207
Si Si5 0.503453 0.589983 0.102099
Si Si6 0.108901 0.910057 0.246965
O O1 0.682370 0.079498 0.500000
O O2 0.709100 0.121456 0.661088
O O3 0.577444 0.115769 0.606370
O O4 0.651886 0.988571 0.635573
O O5 0.822227 0.606966 0.500000
O O6 0.807664 0.651900 0.334271
O O7 0.934415 0.625108 0.400322
O O8 0.750000 0.250000 0.275495
O O9 0.683175 0.372150 0.233036
O O10 0.500000 0.885428 0.750000
O O11 0.500000 0.000000 0.632843
O O12 0.500000 0.500000 0.095051
O O13 0.436334 0.616912 0.160191
O O14 0.572492 0.615733 0.158551
O O15 0.504111 0.624908 0.000000
O O16 0.117624 0.000000 0.250000
#
# Coordination Sequence:
#
# PCOD8276651 Si02
#       6
#    16  16  16  16  16  16
#     4  10  20  36  60  87 112 143 187 234 279 328
#     4  10  20  36  60  87 112 143 187 234 279 328
#     4  12  25  38  52  76 118 160 187 224 270 330
#     4   9  15  29  57  87 113 137 175 234 284 325
#     4   8  15  31  58  86 103 122 164 228 289 327
#     4   9  18  34  56  81 106 132 176 227 268 324
#
# _framework density 19.310217000000002
#
# number of rings (size 3 to 8) (size 9 to 14) (size 15 to 20)
#    0.000    2.333    1.667    3.000    0.000    4.000 
#    0.000    6.667    0.000    0.000    0.000    0.000 
#    0.000    0.000    0.000    0.000    0.000    0.000 
#
# Total GULP energy -594974.009334 kJ/mol
# GULP energy per Si atom -12395.291861 kJ/mol
# Density = 1.926627 g / cm^3
# Si number density = 19.310217 Si / 1000 Ang^3
#
#
#
# Elastic Constant Matrix: (Units=GPa)
#
#
# Indices 1 2 3 4 5 6 
#
# 1 108.7296 0.6504 10.6484 0.0000 0.0000 0.0000
# 2 0.6504 44.8996 23.2853 0.0000 0.0000 0.0000
# 3 10.6484 23.2853 134.2021 0.0000 0.0000 0.0000
# 4 0.0000 0.0000 0.0000 20.8483 0.0000 0.0000
# 5 0.0000 0.0000 0.0000 0.0000 6.7530 0.0000
# 6 0.0000 0.0000 0.0000 0.0000 0.0000 -6.7729
#
#
#
# Elastic Compliance Matrix: (Units=1/GPa)
#
#
# Indices 1 2 3 4 5 6 
#
# 1 0.009272 0.000272 -0.000783 0.000000 0.000000 0.000000
# 2 0.000272 0.024482 -0.004269 0.000000 0.000000 0.000000
# 3 -0.000783 -0.004269 0.008254 0.000000 0.000000 0.000000
# 4 0.000000 0.000000 0.000000 0.047965 0.000000 0.000000
# 5 0.000000 0.000000 0.000000 0.000000 0.148083 0.000000
# 6 0.000000 0.000000 0.000000 0.000000 0.000000 -0.147647
#
#
# Mechanical properties :
#
#
# Convention : Reuss Voigt Hill
#
# Bulk Modulus (GPa) = 30.81904 39.66660 35.24282
# Shear Modulus (GPa) = 45.13133 21.04882 33.09008
#
# Velocity S-wave (km/s) = 4.83968 3.30515 4.14406
# Velocity P-wave (km/s) = 6.87201 5.92889 6.41780
#
# Compressibility (1/GPa) = 0.03244747
#
# Stress axis : x y z
#
# Youngs Moduli (GPa) = 107.84966 40.84607 121.14825
#
# Poissons Ratio (x) = -0.01110 0.09484
# Poissons Ratio (y) = -0.02930 0.51723
# Poissons Ratio (z) = 0.08443 0.17439
#
# Static dielectric constant tensor:
#      x y z
#    x 4.834510 0.000000 0.000000 
#    y 0.000000 3.001700 0.000000 
#    z 0.000000 0.000000 3.748240 
# 
# 
# High freq. dielectric constant tensor:
#      x y z
#    x 1.759860 0.000000 0.000000 
#    y 0.000000 1.693350 0.000000 
#    z 0.000000 0.000000 1.762890 
# 
# From -- ./inp_files/31172.got.cif
#   From: 2010.03.12/outbox.cif.g09.slc.cpg/sg66_16_cif.got.tgz:31172.got - 2010.04.10 21:57:39.
