data_PCOD8276874
_publ_section_title
;
Structure prediction by ZEFSAII (Michael W. Deem and Ramdas Pophale) SiO2 
 PCOD8276874
Probable space group: C C C M
;
_chemical_formula_sum "Si O2"
_cell_formula_units_Z 64
_cell_length_a 14.897955
_cell_length_b 9.232331
_cell_length_c 20.730740
_cell_angle_alpha 90.000000
_cell_angle_beta 90.000000
_cell_angle_gamma 90.000000
_cell_volume 2851.365099
_symmetry_space_group_name_H-M "C C C M"
_symmetry_group_IT_number 66
_symmetry_cell_setting 'orthorhombic'
loop_
_space_group_symop_operation_xyz
x,y,z
-x,-y,z
x,-y,1/2-z
-x,y,1/2-z
-x,-y,-z
x,y,-z
-x,y,1/2+z
x,-y,1/2+z
1/2+x,1/2+y,z
1/2-x,1/2-y,z
1/2+x,1/2-y,1/2-z
1/2-x,1/2+y,1/2-z
1/2-x,1/2-y,-z
1/2+x,1/2+y,-z
1/2-x,1/2+y,1/2+z
1/2+x,1/2-y,1/2+z
loop_
_atom_site_type_symbol
_atom_site_label
_atom_site_fract_x
_atom_site_fract_y
_atom_site_fract_z
Si Si1 0.383864 0.867309 0.000000
Si Si2 0.324818 0.559123 0.000000
Si Si3 0.364866 0.185117 0.182607
Si Si4 0.500000 0.000000 0.387304
Si Si5 0.802487 0.035594 0.633793
Si Si6 0.250000 0.250000 0.297876
O O1 0.393009 0.694198 0.000000
O O2 0.279436 0.899791 0.000000
O O3 0.426887 0.927150 0.933975
O O4 0.344012 0.462840 0.937477
O O5 0.295672 0.108550 0.133425
O O6 0.368420 0.360169 0.174663
O O7 0.325973 0.163929 0.255528
O O8 0.460272 0.117392 0.163679
O O9 0.799158 0.870233 0.658900
#
# Coordination Sequence:
#
# PCOD8276874 Si02
#       6
#     8   8  16   8  16   8
#     4  10  22  36  61  95 135 161 209 263 315 387
#     4  11  20  39  68  92 119 171 217 264 307 384
#     4  10  21  38  63  97 127 167 204 264 319 385
#     4  11  22  40  59  96 136 166 198 264 336 383
#     4  10  21  38  68  98 120 162 228 258 311 378
#     4  10  20  41  68  95 122 164 230 276 294 382
#
# _framework density 22.445391000000001
#
# number of rings (size 3 to 8) (size 9 to 14) (size 15 to 20)
#    0.000    2.000    2.500    4.500    0.000    4.000 
#    0.000    5.000    0.000    0.000   26.000    0.000 
#    0.000    0.000    0.000    0.000    0.000    0.000 
#
# Total GULP energy -396502.556445 kJ/mol
# GULP energy per Si atom -12390.704889 kJ/mol
# Density = 2.239430 g / cm^3
# Si number density = 22.445391 Si / 1000 Ang^3
#
#
#
# Elastic Constant Matrix: (Units=GPa)
#
#
# Indices 1 2 3 4 5 6 
#
# 1 61.7740 30.3024 13.7778 0.0000 0.0000 0.0000
# 2 30.3024 121.4528 26.8565 0.0000 0.0000 0.0000
# 3 13.7778 26.8565 112.1456 0.0000 0.0000 0.0000
# 4 0.0000 0.0000 0.0000 27.8031 0.0000 0.0000
# 5 0.0000 0.0000 0.0000 0.0000 4.0939 0.0000
# 6 0.0000 0.0000 0.0000 0.0000 0.0000 43.1597
#
#
#
# Elastic Compliance Matrix: (Units=1/GPa)
#
#
# Indices 1 2 3 4 5 6 
#
# 1 0.018607 -0.004368 -0.001240 0.000000 0.000000 0.000000
# 2 -0.004368 0.009720 -0.001791 0.000000 0.000000 0.000000
# 3 -0.001240 -0.001791 0.009498 0.000000 0.000000 0.000000
# 4 0.000000 0.000000 0.000000 0.035967 0.000000 0.000000
# 5 0.000000 0.000000 0.000000 0.000000 0.244264 0.000000
# 6 0.000000 0.000000 0.000000 0.000000 0.000000 0.023170
#
#
# Mechanical properties :
#
#
# Convention : Reuss Voigt Hill
#
# Bulk Modulus (GPa) = 43.42772 48.58284 46.00528
# Shear Modulus (GPa) = 13.74760 29.97374 21.86067
#
# Velocity S-wave (km/s) = 2.47754 3.65829 3.12420
# Velocity P-wave (km/s) = 5.25114 6.28776 5.79269
#
# Compressibility (1/GPa) = 0.02302677
#
# Stress axis : x y z
#
# Youngs Moduli (GPa) = 53.74205 102.88510 105.28305
#
# Poissons Ratio (x) = 0.44944 0.13054
# Poissons Ratio (y) = 0.23476 0.18856
# Poissons Ratio (z) = 0.06664 0.18426
#
# Static dielectric constant tensor:
#      x y z
#    x 3.694670 0.000000 0.000000 
#    y 0.000000 4.223100 0.000000 
#    z 0.000000 0.000000 4.163680 
# 
# 
# High freq. dielectric constant tensor:
#      x y z
#    x 1.840280 0.000000 0.000000 
#    y 0.000000 1.894350 0.000000 
#    z 0.000000 0.000000 1.890890 
# 
# From -- ./inp_files/58601.got.cif
#   From: 2010.03.12/outbox.cif.g09.slc.cpg/sg66_30_cif.got.tgz:58601.got - 2010.04.10 21:57:39.
