data_PCOD8276683
_publ_section_title
;
Structure prediction by ZEFSAII (Michael W. Deem and Ramdas Pophale) SiO2 
 PCOD8276683
Probable space group: C C C M
;
_chemical_formula_sum "Si O2"
_cell_formula_units_Z 48
_cell_length_a 6.805649
_cell_length_b 13.847709
_cell_length_c 21.956842
_cell_angle_alpha 90.000000
_cell_angle_beta 90.000000
_cell_angle_gamma 90.000000
_cell_volume 2069.270908
_symmetry_space_group_name_H-M "C C C M"
_symmetry_group_IT_number 66
_symmetry_cell_setting 'orthorhombic'
loop_
_space_group_symop_operation_xyz
x,y,z
-x,-y,z
x,-y,1/2-z
-x,y,1/2-z
-x,-y,-z
x,y,-z
-x,y,1/2+z
x,-y,1/2+z
1/2+x,1/2+y,z
1/2-x,1/2-y,z
1/2+x,1/2-y,1/2-z
1/2-x,1/2+y,1/2-z
1/2-x,1/2-y,-z
1/2+x,1/2+y,-z
1/2-x,1/2+y,1/2+z
1/2+x,1/2-y,1/2+z
loop_
_atom_site_type_symbol
_atom_site_label
_atom_site_fract_x
_atom_site_fract_y
_atom_site_fract_z
Si Si1 0.613155 0.410783 0.812612
Si Si2 0.377226 0.158173 0.932240
Si Si3 0.000000 0.500000 0.342717
Si Si4 0.250000 0.250000 0.604562
O O1 0.500000 0.500000 0.844842
O O2 0.500000 0.387342 0.750000
O O3 0.843892 0.440079 0.801727
O O4 0.607427 0.316695 0.854248
O O5 0.250000 0.250000 0.910151
O O6 0.364468 0.070524 0.884521
O O7 0.607228 0.186887 0.936962
O O8 0.309424 0.125052 0.000000
#
# Coordination Sequence:
#
# PCOD8276683 Si02
#       4
#    16  16   8   8
#     4  10  22  41  58  85 118 162 207 250 306 361
#     4  10  20  36  62  91 120 157 199 248 307 367
#     4  10  21  39  62  84 126 160 200 256 304 364
#     4  10  21  40  58  86 122 156 201 254 302 366
#
# _framework density 23.196576
#
# number of rings (size 3 to 8) (size 9 to 14) (size 15 to 20)
#    0.000    2.000    0.000    3.000    0.000    2.667 
#   27.000    0.000    0.000   16.000    0.000    0.000 
#    0.000    0.000    0.000    0.000    0.000    0.000 
#
# Total GULP energy -297415.100333 kJ/mol
# GULP energy per Si atom -12392.295847 kJ/mol
# Density = 2.314378 g / cm^3
# Si number density = 23.196576 Si / 1000 Ang^3
#
#
#
# Elastic Constant Matrix: (Units=GPa)
#
#
# Indices 1 2 3 4 5 6 
#
# 1 93.0283 7.7489 32.6006 0.0000 0.0000 0.0000
# 2 7.7489 92.5541 26.6867 0.0000 0.0000 0.0000
# 3 32.6006 26.6867 81.9349 0.0000 0.0000 0.0000
# 4 0.0000 0.0000 0.0000 16.8272 0.0000 0.0000
# 5 0.0000 0.0000 0.0000 0.0000 119.9556 0.0000
# 6 0.0000 0.0000 0.0000 0.0000 0.0000 56.0878
#
#
#
# Elastic Compliance Matrix: (Units=1/GPa)
#
#
# Indices 1 2 3 4 5 6 
#
# 1 0.012506 0.000428 -0.005115 0.000000 0.000000 0.000000
# 2 0.000428 0.011939 -0.004059 0.000000 0.000000 0.000000
# 3 -0.005115 -0.004059 0.015562 0.000000 0.000000 0.000000
# 4 0.000000 0.000000 0.000000 0.059428 0.000000 0.000000
# 5 0.000000 0.000000 0.000000 0.000000 0.008336 0.000000
# 6 0.000000 0.000000 0.000000 0.000000 0.000000 0.017829
#
#
# Mechanical properties :
#
#
# Convention : Reuss Voigt Hill
#
# Bulk Modulus (GPa) = 44.41538 44.62107 44.51822
# Shear Modulus (GPa) = 33.20083 51.93952 42.57017
#
# Velocity S-wave (km/s) = 3.78733 4.73705 4.28856
# Velocity P-wave (km/s) = 6.18984 7.01408 6.61481
#
# Compressibility (1/GPa) = 0.02251472
#
# Stress axis : x y z
#
# Youngs Moduli (GPa) = 79.95888 83.75920 64.25842
#
# Poissons Ratio (x) = -0.03584 0.32871
# Poissons Ratio (y) = -0.03421 0.26082
# Poissons Ratio (z) = 0.40903 0.33997
#
# Static dielectric constant tensor:
#      x y z
#    x 4.072110 0.000000 0.000000 
#    y 0.000000 4.222770 0.000000 
#    z 0.000000 0.000000 3.708750 
# 
# 
# High freq. dielectric constant tensor:
#      x y z
#    x 1.931050 0.000000 0.000000 
#    y 0.000000 1.913420 0.000000 
#    z 0.000000 0.000000 1.890000 
# 
# From -- ./inp_files/60907.got.cif
#   From: 2010.03.12/outbox.cif.g09.slc.cpg/sg66_31_cif.got.tgz:60907.got - 2010.04.10 21:57:39.
