data_PCOD8276948
_publ_section_title
;
Structure prediction by ZEFSAII (Michael W. Deem and Ramdas Pophale) SiO2 
 PCOD8276948
Probable space group: C C C M
;
_chemical_formula_sum "Si O2"
_cell_formula_units_Z 80
_cell_length_a 13.081621
_cell_length_b 32.562595
_cell_length_c 9.896773
_cell_angle_alpha 90.000000
_cell_angle_beta 90.000000
_cell_angle_gamma 90.000000
_cell_volume 4215.743503
_symmetry_space_group_name_H-M "C C C M"
_symmetry_group_IT_number 66
_symmetry_cell_setting 'orthorhombic'
loop_
_space_group_symop_operation_xyz
x,y,z
-x,-y,z
x,-y,1/2-z
-x,y,1/2-z
-x,-y,-z
x,y,-z
-x,y,1/2+z
x,-y,1/2+z
1/2+x,1/2+y,z
1/2-x,1/2-y,z
1/2+x,1/2-y,1/2-z
1/2-x,1/2+y,1/2-z
1/2-x,1/2-y,-z
1/2+x,1/2+y,-z
1/2-x,1/2+y,1/2+z
1/2+x,1/2-y,1/2+z
loop_
_atom_site_type_symbol
_atom_site_label
_atom_site_fract_x
_atom_site_fract_y
_atom_site_fract_z
Si Si1 0.701657 0.185194 0.845371
Si Si2 0.701720 0.034093 0.653415
Si Si3 0.909680 0.768882 0.652331
Si Si4 0.065068 0.957486 0.643678
Si Si5 0.899192 0.621757 0.159820
O O1 0.816828 0.200066 0.825392
O O2 0.624309 0.222429 0.817195
O O3 0.683703 0.151162 0.730192
O O4 0.686360 0.168816 0.000000
O O5 0.693698 0.018403 0.500000
O O6 0.820117 0.037744 0.696850
O O7 0.641817 0.075953 0.673900
O O8 0.650239 0.000000 0.750000
O O9 0.950532 0.771985 0.500000
O O10 0.000000 0.782422 0.750000
O O11 0.068167 0.934650 0.500000
O O12 0.000000 0.929905 0.750000
O O13 0.000000 0.000000 0.630325
O O14 0.000000 0.626668 0.250000
O O15 0.916496 0.632812 0.000000
#
# Coordination Sequence:
#
# PCOD8276948 Si02
#       5
#    16  16  16  16  16
#     4   9  19  37  58  83 115 151 190 229 275 330
#     4  10  21  36  55  80 107 137 179 229 276 327
#     4   9  18  33  57  87 118 150 187 231 274 326
#     4   9  15  27  50  76  99 125 161 208 259 314
#     4  11  24  40  57  79 110 145 185 232 281 337
#
# _framework density 18.976486999999999
#
# number of rings (size 3 to 8) (size 9 to 14) (size 15 to 20)
#    0.000    2.400    2.000    2.400    0.000    5.200 
#    0.000    5.000    0.000    4.800    0.000    0.000 
#    0.000    0.000    0.000    0.000    0.000    0.000 
#
# Total GULP energy -495576.849802 kJ/mol
# GULP energy per Si atom -12389.421245 kJ/mol
# Density = 1.893330 g / cm^3
# Si number density = 18.976487 Si / 1000 Ang^3
#
#
#
# Elastic Constant Matrix: (Units=GPa)
#
#
# Indices 1 2 3 4 5 6 
#
# 1 73.9469 20.8680 52.7196 0.0000 0.0000 0.0000
# 2 20.8680 65.7977 58.7060 0.0000 0.0000 0.0000
# 3 52.7196 58.7060 155.3589 0.0000 0.0000 0.0000
# 4 0.0000 0.0000 0.0000 25.7686 0.0000 0.0000
# 5 0.0000 0.0000 0.0000 0.0000 34.7645 0.0000
# 6 0.0000 0.0000 0.0000 0.0000 0.0000 17.7405
#
#
#
# Elastic Compliance Matrix: (Units=1/GPa)
#
#
# Indices 1 2 3 4 5 6 
#
# 1 0.017846 -0.000387 -0.005909 0.000000 0.000000 0.000000
# 2 -0.000387 0.022937 -0.008536 0.000000 0.000000 0.000000
# 3 -0.005909 -0.008536 0.011667 0.000000 0.000000 0.000000
# 4 0.000000 0.000000 0.000000 0.038807 0.000000 0.000000
# 5 0.000000 0.000000 0.000000 0.000000 0.028765 0.000000
# 6 0.000000 0.000000 0.000000 0.000000 0.000000 0.056368
#
#
# Mechanical properties :
#
#
# Convention : Reuss Voigt Hill
#
# Bulk Modulus (GPa) = 43.88890 62.18786 53.03838
# Shear Modulus (GPa) = 23.40281 26.50871 24.95576
#
# Velocity S-wave (km/s) = 3.51558 3.74160 3.63035
# Velocity P-wave (km/s) = 6.29741 7.17692 6.75150
#
# Compressibility (1/GPa) = 0.02278480
#
# Stress axis : x y z
#
# Youngs Moduli (GPa) = 56.03641 43.59824 85.70879
#
# Poissons Ratio (x) = 0.01689 0.50648
# Poissons Ratio (y) = 0.02171 0.73159
# Poissons Ratio (z) = 0.33114 0.37214
#
# Static dielectric constant tensor:
#      x y z
#    x 3.440170 0.000000 0.000000 
#    y 0.000000 3.178780 0.000000 
#    z 0.000000 0.000000 5.244310 
# 
# 
# High freq. dielectric constant tensor:
#      x y z
#    x 1.739950 0.000000 0.000000 
#    y 0.000000 1.700510 0.000000 
#    z 0.000000 0.000000 1.757890 
# 
# From -- ./inp_files/14989.got.cif
#   From: 2010.03.12/outbox.cif.g09.slc.cpg/sg66_8_cif.got.tgz:14989.got - 2010.04.10 21:57:39.
