data_PCOD8276676
_publ_section_title
;
Structure prediction by ZEFSAII (Michael W. Deem and Ramdas Pophale) SiO2 
 PCOD8276676
Probable space group: C C C M
;
_chemical_formula_sum "Si O2"
_cell_formula_units_Z 88
_cell_length_a 23.493243
_cell_length_b 12.213721
_cell_length_c 14.601441
_cell_angle_alpha 90.000000
_cell_angle_beta 90.000000
_cell_angle_gamma 90.000000
_cell_volume 4189.736245
_symmetry_space_group_name_H-M "C C C M"
_symmetry_group_IT_number 66
_symmetry_cell_setting 'orthorhombic'
loop_
_space_group_symop_operation_xyz
x,y,z
-x,-y,z
x,-y,1/2-z
-x,y,1/2-z
-x,-y,-z
x,y,-z
-x,y,1/2+z
x,-y,1/2+z
1/2+x,1/2+y,z
1/2-x,1/2-y,z
1/2+x,1/2-y,1/2-z
1/2-x,1/2+y,1/2-z
1/2-x,1/2-y,-z
1/2+x,1/2+y,-z
1/2-x,1/2+y,1/2+z
1/2+x,1/2-y,1/2+z
loop_
_atom_site_type_symbol
_atom_site_label
_atom_site_fract_x
_atom_site_fract_y
_atom_site_fract_z
Si Si1 0.635877 0.000000 0.250000
Si Si2 0.119854 0.113780 0.895258
Si Si3 0.052442 0.576669 0.600376
Si Si4 0.997743 0.796710 0.104897
Si Si5 0.620354 0.367472 0.891569
Si Si6 0.184181 0.263511 0.751744
O O1 0.597813 0.988427 0.159974
O O2 0.674319 0.892659 0.256864
O O3 0.051010 0.111546 0.886008
O O4 0.148621 0.206958 0.833421
O O5 0.137468 0.991660 0.865342
O O6 0.137698 0.138253 0.000000
O O7 0.079525 0.604674 0.500000
O O8 0.029185 0.686890 0.650385
O O9 0.000000 0.500000 0.584550
O O10 0.057378 0.836716 0.149086
O O11 0.011403 0.768166 0.000000
O O12 0.667052 0.290723 0.844644
O O13 0.622791 0.350414 0.000000
O O14 0.250000 0.250000 0.773127
#
# Coordination Sequence:
#
# PCOD8276676 Si02
#       6
#     8  16  16  16  16  16
#     4  12  25  42  64  90 124 175 214 264 312 370
#     4  10  21  42  69  97 128 163 208 262 322 385
#     4  10  20  36  61  93 131 167 202 248 310 387
#     4   9  17  35  63  98 130 157 198 252 316 390
#     4  10  22  41  68  99 132 165 202 259 325 385
#     4  12  28  44  65  89 126 170 226 272 314 365
#
# _framework density 21.003709000000001
#
# number of rings (size 3 to 8) (size 9 to 14) (size 15 to 20)
#    0.000    1.636    1.818    2.455    2.545    5.818 
#    0.000    1.818    0.000    0.000    0.000    0.000 
#    0.000    0.000    0.000    0.000    0.000    0.000 
#
# Total GULP energy -545454.607330 kJ/mol
# GULP energy per Si atom -12396.695621 kJ/mol
# Density = 2.095590 g / cm^3
# Si number density = 21.003709 Si / 1000 Ang^3
#
#
#
# Elastic Constant Matrix: (Units=GPa)
#
#
# Indices 1 2 3 4 5 6 
#
# 1 68.3377 26.6366 14.7699 0.0000 0.0000 0.0000
# 2 26.6366 148.2286 38.2082 0.0000 0.0000 0.0000
# 3 14.7699 38.2082 70.5075 0.0000 0.0000 0.0000
# 4 0.0000 0.0000 0.0000 31.4851 0.0000 0.0000
# 5 0.0000 0.0000 0.0000 0.0000 20.6569 0.0000
# 6 0.0000 0.0000 0.0000 0.0000 0.0000 23.5886
#
#
#
# Elastic Compliance Matrix: (Units=1/GPa)
#
#
# Indices 1 2 3 4 5 6 
#
# 1 0.015995 -0.002337 -0.002084 0.000000 0.000000 0.000000
# 2 -0.002337 0.008183 -0.003945 0.000000 0.000000 0.000000
# 3 -0.002084 -0.003945 0.016757 0.000000 0.000000 0.000000
# 4 0.000000 0.000000 0.000000 0.031761 0.000000 0.000000
# 5 0.000000 0.000000 0.000000 0.000000 0.048410 0.000000
# 6 0.000000 0.000000 0.000000 0.000000 0.000000 0.042393
#
#
# Mechanical properties :
#
#
# Convention : Reuss Voigt Hill
#
# Bulk Modulus (GPa) = 41.31741 49.58926 45.45333
# Shear Modulus (GPa) = 26.55349 28.97672 27.76510
#
# Velocity S-wave (km/s) = 3.55946 3.71833 3.63976
# Velocity P-wave (km/s) = 6.05039 6.48811 6.27307
#
# Compressibility (1/GPa) = 0.02420287
#
# Stress axis : x y z
#
# Youngs Moduli (GPa) = 62.52125 122.20214 59.67574
#
# Poissons Ratio (x) = 0.28559 0.12437
# Poissons Ratio (y) = 0.14611 0.23542
# Poissons Ratio (z) = 0.13030 0.48208
#
# Static dielectric constant tensor:
#      x y z
#    x 3.559040 0.000000 0.000000 
#    y 0.000000 4.001830 0.000000 
#    z 0.000000 0.000000 3.872480 
# 
# 
# High freq. dielectric constant tensor:
#      x y z
#    x 1.795410 0.000000 0.000000 
#    y 0.000000 1.840350 0.000000 
#    z 0.000000 0.000000 1.820390 
# 
# From -- ./inp_files/32190.got.cif
#   From: 2010.03.12/outbox.cif.g09.slc.cpg/sg66_17_cif.got.tgz:32190.got - 2010.04.10 21:57:39.
