data_PCOD8276011
_publ_section_title
;
Structure prediction by ZEFSAII (Michael W. Deem and Ramdas Pophale) SiO2 
 PCOD8276011
Probable space group: C C C M
;
_chemical_formula_sum "Si O2"
_cell_formula_units_Z 116
_cell_length_a 21.092878
_cell_length_b 29.684980
_cell_length_c 9.554783
_cell_angle_alpha 90.000000
_cell_angle_beta 90.000000
_cell_angle_gamma 90.000000
_cell_volume 5982.647704
_symmetry_space_group_name_H-M "C C C M"
_symmetry_group_IT_number 66
_symmetry_cell_setting 'orthorhombic'
loop_
_space_group_symop_operation_xyz
x,y,z
-x,-y,z
x,-y,1/2-z
-x,y,1/2-z
-x,-y,-z
x,y,-z
-x,y,1/2+z
x,-y,1/2+z
1/2+x,1/2+y,z
1/2-x,1/2-y,z
1/2+x,1/2-y,1/2-z
1/2-x,1/2+y,1/2-z
1/2-x,1/2-y,-z
1/2+x,1/2+y,-z
1/2-x,1/2+y,1/2+z
1/2+x,1/2-y,1/2+z
loop_
_atom_site_type_symbol
_atom_site_label
_atom_site_fract_x
_atom_site_fract_y
_atom_site_fract_z
Si Si1 0.390706 0.228531 0.655790
Si Si2 0.220979 0.701939 0.651328
Si Si3 0.609575 0.934267 0.844291
Si Si4 0.064499 0.826848 0.830413
Si Si5 0.000000 0.500000 0.750000
Si Si6 0.252058 0.459732 0.841147
Si Si7 0.942518 0.365454 0.157581
Si Si8 0.823656 0.131369 0.334330
O O1 0.364631 0.237186 0.500000
O O2 0.336017 0.205680 0.743351
O O3 0.417983 0.275377 0.713951
O O4 0.442630 0.188890 0.657269
O O5 0.197040 0.683347 0.500000
O O6 0.250000 0.750000 0.627656
O O7 0.274726 0.669839 0.712848
O O8 0.676463 0.958563 0.818423
O O9 0.613914 0.892750 0.733213
O O10 0.549037 0.968139 0.835285
O O11 0.608671 0.913391 0.000000
O O12 0.115370 0.861389 0.765090
O O13 0.000000 0.838642 0.750000
O O14 0.058512 0.832165 0.000000
O O15 0.280711 0.500000 0.750000
O O16 0.289713 0.415050 0.795730
O O17 0.268559 0.470702 0.000000
O O18 0.000000 0.383084 0.250000
O O19 0.948433 0.383677 0.000000
O O20 0.841292 0.135216 0.500000
#
# Coordination Sequence:
#
# PCOD8276011 Si02
#       8
#    16  16  16  16   4  16  16  16
#     4  10  22  37  54  81 117 155 195 241 292 344
#     4  10  19  33  57  85 114 153 195 235 282 340
#     4  11  23  39  59  84 115 154 200 250 300 350
#     4  11  23  39  61  88 120 157 198 242 296 360
#     4  12  22  36  64  86 118 152 208 256 298 348
#     4  10  22  40  62  88 119 154 194 245 300 357
#     4  11  23  37  53  76 108 148 194 242 291 343
#     4  10  21  39  61  88 122 158 200 247 300 356
#
# _framework density 19.389408
#
# number of rings (size 3 to 8) (size 9 to 14) (size 15 to 20)
#    0.000    1.517    2.759    2.276    0.000    5.241 
#    0.000    0.000    0.000    0.414    0.000    2.897 
#    0.000    0.000    0.000    0.000    0.000    0.000 
#
# Total GULP energy -718666.917756 kJ/mol
# GULP energy per Si atom -12390.808927 kJ/mol
# Density = 1.934528 g / cm^3
# Si number density = 19.389408 Si / 1000 Ang^3
#
#
#
# Elastic Constant Matrix: (Units=GPa)
#
#
# Indices 1 2 3 4 5 6 
#
# 1 107.0903 45.2929 56.7325 0.0000 0.0000 0.0000
# 2 45.2929 115.6771 46.8953 0.0000 0.0000 0.0000
# 3 56.7325 46.8953 113.6635 0.0000 0.0000 0.0000
# 4 0.0000 0.0000 0.0000 31.6713 0.0000 0.0000
# 5 0.0000 0.0000 0.0000 0.0000 29.3138 0.0000
# 6 0.0000 0.0000 0.0000 0.0000 0.0000 24.1151
#
#
#
# Elastic Compliance Matrix: (Units=1/GPa)
#
#
# Indices 1 2 3 4 5 6 
#
# 1 0.013550 -0.003079 -0.005493 0.000000 0.000000 0.000000
# 2 -0.003079 0.011081 -0.003035 0.000000 0.000000 0.000000
# 3 -0.005493 -0.003035 0.012792 0.000000 0.000000 0.000000
# 4 0.000000 0.000000 0.000000 0.031574 0.000000 0.000000
# 5 0.000000 0.000000 0.000000 0.000000 0.034114 0.000000
# 6 0.000000 0.000000 0.000000 0.000000 0.000000 0.041468
#
#
# Mechanical properties :
#
#
# Convention : Reuss Voigt Hill
#
# Bulk Modulus (GPa) = 70.37729 70.47469 70.42599
# Shear Modulus (GPa) = 28.98088 29.52072 29.25080
#
# Velocity S-wave (km/s) = 3.87030 3.90618 3.88828
# Velocity P-wave (km/s) = 7.50652 7.53460 7.52057
#
# Compressibility (1/GPa) = 0.01420913
#
# Stress axis : x y z
#
# Youngs Moduli (GPa) = 73.80091 90.24822 78.17521
#
# Poissons Ratio (x) = 0.27784 0.42942
# Poissons Ratio (y) = 0.22720 0.23726
# Poissons Ratio (z) = 0.40539 0.27390
#
# Static dielectric constant tensor:
#      x y z
#    x 3.329650 0.000000 0.000000 
#    y 0.000000 3.507120 0.000000 
#    z 0.000000 0.000000 3.843640 
# 
# 
# High freq. dielectric constant tensor:
#      x y z
#    x 1.735710 0.000000 0.000000 
#    y 0.000000 1.752530 0.000000 
#    z 0.000000 0.000000 1.760160 
# 
# From -- ./inp_files/9599.got.cif
#   From: 2010.03.12/outbox.cif.g09.slc.cpg/sg66_5_cif.got.tgz:9599.got - 2010.04.10 21:57:39.
