data_PCOD8276673
_publ_section_title
;
Structure prediction by ZEFSAII (Michael W. Deem and Ramdas Pophale) SiO2 
 PCOD8276673
Probable space group: C C C M
;
_chemical_formula_sum "Si O2"
_cell_formula_units_Z 112
_cell_length_a 24.114628
_cell_length_b 14.746455
_cell_length_c 14.604639
_cell_angle_alpha 90.000000
_cell_angle_beta 90.000000
_cell_angle_gamma 90.000000
_cell_volume 5193.486692
_symmetry_space_group_name_H-M "C C C M"
_symmetry_group_IT_number 66
_symmetry_cell_setting 'orthorhombic'
loop_
_space_group_symop_operation_xyz
x,y,z
-x,-y,z
x,-y,1/2-z
-x,y,1/2-z
-x,-y,-z
x,y,-z
-x,y,1/2+z
x,-y,1/2+z
1/2+x,1/2+y,z
1/2-x,1/2-y,z
1/2+x,1/2-y,1/2-z
1/2-x,1/2+y,1/2-z
1/2-x,1/2-y,-z
1/2+x,1/2+y,-z
1/2-x,1/2+y,1/2+z
1/2+x,1/2-y,1/2+z
loop_
_atom_site_type_symbol
_atom_site_label
_atom_site_fract_x
_atom_site_fract_y
_atom_site_fract_z
Si Si1 0.549586 0.440258 0.606469
Si Si2 0.783723 0.574855 0.101640
Si Si3 0.944321 0.736665 0.101617
Si Si4 0.841316 0.280457 0.277991
Si Si5 0.329732 0.428259 0.822969
Si Si6 0.523104 0.910351 0.647671
Si Si7 0.350208 0.894956 0.892437
O O1 0.500000 0.500000 0.651796
O O2 0.551903 0.462131 0.500000
O O3 0.535472 0.336543 0.628933
O O4 0.610295 0.463590 0.644957
O O5 0.797382 0.659516 0.166539
O O6 0.716841 0.566148 0.098187
O O7 0.812137 0.480893 0.134096
O O8 0.805266 0.597098 0.000000
O O9 0.901555 0.697972 0.177048
O O10 0.999951 0.677654 0.096107
O O11 0.916229 0.739141 0.000000
O O12 0.830818 0.173632 0.283707
O O13 0.835125 0.308598 0.171279
O O14 0.307653 0.500000 0.750000
O O15 0.500000 0.906261 0.750000
O O16 0.588222 0.919383 0.637633
O O17 0.500000 0.000000 0.598283
O O18 0.344820 0.869017 0.000000
#
# Coordination Sequence:
#
# PCOD8276673 Si02
#       7
#    16  16  16  16  16  16  16
#     4   9  20  40  64  90 122 161 208 267 324 378
#     4  11  24  42  68  97 126 163 211 269 326 384
#     4  10  20  36  61  92 123 161 213 265 314 375
#     4  11  22  40  65  92 129 165 211 265 322 384
#     4  11  24  41  63  94 127 166 213 267 318 382
#     4  11  22  36  57  87 130 174 209 255 308 379
#     4  11  24  41  63  94 133 175 217 262 322 391
#
# _framework density 21.565474999999999
#
# number of rings (size 3 to 8) (size 9 to 14) (size 15 to 20)
#    0.000    1.429    1.429    3.857    2.000    6.000 
#    0.000    2.857    0.000    3.429    0.000    0.000 
#    0.000    0.857    0.000    0.000    0.000    0.000 
#
# Total GULP energy -694142.999632 kJ/mol
# GULP energy per Si atom -12395.410708 kJ/mol
# Density = 2.151639 g / cm^3
# Si number density = 21.565475 Si / 1000 Ang^3
#
#
#
# Elastic Constant Matrix: (Units=GPa)
#
#
# Indices 1 2 3 4 5 6 
#
# 1 146.7853 57.3252 31.5179 0.0000 0.0000 0.0000
# 2 57.3252 109.7872 45.7123 0.0000 0.0000 0.0000
# 3 31.5179 45.7123 100.8370 0.0000 0.0000 0.0000
# 4 0.0000 0.0000 0.0000 22.1813 0.0000 0.0000
# 5 0.0000 0.0000 0.0000 0.0000 23.8671 0.0000
# 6 0.0000 0.0000 0.0000 0.0000 0.0000 27.9107
#
#
#
# Elastic Compliance Matrix: (Units=1/GPa)
#
#
# Indices 1 2 3 4 5 6 
#
# 1 0.008610 -0.004161 -0.000805 0.000000 0.000000 0.000000
# 2 -0.004161 0.013238 -0.004701 0.000000 0.000000 0.000000
# 3 -0.000805 -0.004701 0.012300 0.000000 0.000000 0.000000
# 4 0.000000 0.000000 0.000000 0.045083 0.000000 0.000000
# 5 0.000000 0.000000 0.000000 0.000000 0.041899 0.000000
# 6 0.000000 0.000000 0.000000 0.000000 0.000000 0.035829
#
#
# Mechanical properties :
#
#
# Convention : Reuss Voigt Hill
#
# Bulk Modulus (GPa) = 67.49866 69.61336 68.55601
# Shear Modulus (GPa) = 27.58919 29.64877 28.61898
#
# Velocity S-wave (km/s) = 3.58064 3.71189 3.64685
# Velocity P-wave (km/s) = 6.96147 7.12186 7.04212
#
# Compressibility (1/GPa) = 0.01481511
#
# Stress axis : x y z
#
# Youngs Moduli (GPa) = 116.13783 75.53827 81.30292
#
# Poissons Ratio (x) = 0.31429 0.06546
# Poissons Ratio (y) = 0.48321 0.38219
# Poissons Ratio (z) = 0.09351 0.35509
#
# Static dielectric constant tensor:
#      x y z
#    x 3.959430 0.000000 0.000000 
#    y 0.000000 4.031860 0.000000 
#    z 0.000000 0.000000 3.858050 
# 
# 
# High freq. dielectric constant tensor:
#      x y z
#    x 1.850400 0.000000 0.000000 
#    y 0.000000 1.847680 0.000000 
#    z 0.000000 0.000000 1.844500 
# 
# From -- ./inp_files/32512.got.cif
#   From: 2010.03.12/outbox.cif.g09.slc.cpg/sg66_17_cif.got.tgz:32512.got - 2010.04.10 21:57:39.
