data_PCOD8276080
_publ_section_title
;
Structure prediction by ZEFSAII (Michael W. Deem and Ramdas Pophale) SiO2 
 PCOD8276080
Probable space group: C C C M
;
_chemical_formula_sum "Si O2"
_cell_formula_units_Z 80
_cell_length_a 11.725759
_cell_length_b 22.151727
_cell_length_c 15.164201
_cell_angle_alpha 90.000000
_cell_angle_beta 90.000000
_cell_angle_gamma 90.000000
_cell_volume 3938.837706
_symmetry_space_group_name_H-M "C C C M"
_symmetry_group_IT_number 66
_symmetry_cell_setting 'orthorhombic'
loop_
_space_group_symop_operation_xyz
x,y,z
-x,-y,z
x,-y,1/2-z
-x,y,1/2-z
-x,-y,-z
x,y,-z
-x,y,1/2+z
x,-y,1/2+z
1/2+x,1/2+y,z
1/2-x,1/2-y,z
1/2+x,1/2-y,1/2-z
1/2-x,1/2+y,1/2-z
1/2-x,1/2-y,-z
1/2+x,1/2+y,-z
1/2-x,1/2+y,1/2+z
1/2+x,1/2-y,1/2+z
loop_
_atom_site_type_symbol
_atom_site_label
_atom_site_fract_x
_atom_site_fract_y
_atom_site_fract_z
Si Si1 0.167154 0.359941 0.000000
Si Si2 0.372279 0.519498 0.653913
Si Si3 0.808586 0.154554 0.329660
Si Si4 0.288564 0.999140 0.000000
Si Si5 0.904455 0.621228 0.500000
Si Si6 0.679458 0.808528 0.340362
Si Si7 0.000000 0.762013 0.750000
O O1 0.228632 0.329950 0.085584
O O2 0.030778 0.349742 0.000000
O O3 0.170309 0.432373 0.000000
O O4 0.500000 0.500000 0.631529
O O5 0.332167 0.500000 0.750000
O O6 0.367594 0.591448 0.649188
O O7 0.288354 0.487238 0.585864
O O8 0.730504 0.155465 0.243082
O O9 0.911350 0.200626 0.310368
O O10 0.395246 0.952209 0.000000
O O11 0.831918 0.643125 0.416770
O O12 0.750000 0.750000 0.370614
O O13 0.556407 0.782314 0.319476
#
# Coordination Sequence:
#
# PCOD8276080 Si02
#       7
#     8  16  16   8   8  16   8
#     4  10  23  39  60  87 114 150 195 236 292 350
#     4  10  19  34  57  86 114 147 187 234 295 350
#     4  10  21  39  59  85 119 148 186 243 290 343
#     4  10  22  37  55  84 117 149 193 239 284 351
#     4  12  22  38  59  79 114 161 195 239 287 337
#     4  10  22  38  56  84 115 150 196 239 283 341
#     4  10  20  38  61  82 113 150 188 238 294 346
#
# _framework density 20.310559000000001
#
# number of rings (size 3 to 8) (size 9 to 14) (size 15 to 20)
#    0.000    1.800    0.000    4.500    0.000    2.400 
#    0.000    6.500    0.000    3.600    0.000    0.000 
#    0.000    0.000    0.000    0.000    0.000    0.000 
#
# Total GULP energy -495768.655205 kJ/mol
# GULP energy per Si atom -12394.216380 kJ/mol
# Density = 2.026433 g / cm^3
# Si number density = 20.310559 Si / 1000 Ang^3
#
#
#
# Elastic Constant Matrix: (Units=GPa)
#
#
# Indices 1 2 3 4 5 6 
#
# 1 105.4922 25.9014 50.5623 0.0000 0.0000 0.0000
# 2 25.9014 73.5199 22.8121 0.0000 0.0000 0.0000
# 3 50.5623 22.8121 121.6562 0.0000 0.0000 0.0000
# 4 0.0000 0.0000 0.0000 24.4729 0.0000 0.0000
# 5 0.0000 0.0000 0.0000 0.0000 28.2241 0.0000
# 6 0.0000 0.0000 0.0000 0.0000 0.0000 20.8302
#
#
#
# Elastic Compliance Matrix: (Units=1/GPa)
#
#
# Indices 1 2 3 4 5 6 
#
# 1 0.012409 -0.002943 -0.004606 0.000000 0.000000 0.000000
# 2 -0.002943 0.015140 -0.001616 0.000000 0.000000 0.000000
# 3 -0.004606 -0.001616 0.010437 0.000000 0.000000 0.000000
# 4 0.000000 0.000000 0.000000 0.040862 0.000000 0.000000
# 5 0.000000 0.000000 0.000000 0.000000 0.035431 0.000000
# 6 0.000000 0.000000 0.000000 0.000000 0.000000 0.048007
#
#
# Mechanical properties :
#
#
# Convention : Reuss Voigt Hill
#
# Bulk Modulus (GPa) = 50.87084 55.46889 53.16987
# Shear Modulus (GPa) = 26.71409 28.13162 27.42285
#
# Velocity S-wave (km/s) = 3.63061 3.72570 3.67846
# Velocity P-wave (km/s) = 6.53269 6.77329 6.65407
#
# Compressibility (1/GPa) = 0.01965763
#
# Stress axis : x y z
#
# Youngs Moduli (GPa) = 80.58376 66.05067 95.81203
#
# Poissons Ratio (x) = 0.19437 0.44129
# Poissons Ratio (y) = 0.23714 0.15482
# Poissons Ratio (z) = 0.37115 0.10673
#
# Static dielectric constant tensor:
#      x y z
#    x 3.715730 0.000000 0.000000 
#    y 0.000000 3.595650 0.000000 
#    z 0.000000 0.000000 3.773700 
# 
# 
# High freq. dielectric constant tensor:
#      x y z
#    x 1.799200 0.000000 0.000000 
#    y 0.000000 1.794340 0.000000 
#    z 0.000000 0.000000 1.799370 
# 
# From -- ./inp_files/26492.got.cif
#   From: 2010.03.12/outbox.cif.g09.slc.cpg/sg66_14_cif.got.tgz:26492.got - 2010.04.10 21:57:39.
