data_PCOD8276436
_publ_section_title
;
Structure prediction by ZEFSAII (Michael W. Deem and Ramdas Pophale) SiO2 
 PCOD8276436
Probable space group: C C C M
;
_chemical_formula_sum "Si O2"
_cell_formula_units_Z 96
_cell_length_a 8.741858
_cell_length_b 23.319578
_cell_length_c 23.476277
_cell_angle_alpha 90.000000
_cell_angle_beta 90.000000
_cell_angle_gamma 90.000000
_cell_volume 4785.790242
_symmetry_space_group_name_H-M "C C C M"
_symmetry_group_IT_number 66
_symmetry_cell_setting 'orthorhombic'
loop_
_space_group_symop_operation_xyz
x,y,z
-x,-y,z
x,-y,1/2-z
-x,y,1/2-z
-x,-y,-z
x,y,-z
-x,y,1/2+z
x,-y,1/2+z
1/2+x,1/2+y,z
1/2-x,1/2-y,z
1/2+x,1/2-y,1/2-z
1/2-x,1/2+y,1/2-z
1/2-x,1/2-y,-z
1/2+x,1/2+y,-z
1/2-x,1/2+y,1/2+z
1/2+x,1/2-y,1/2+z
loop_
_atom_site_type_symbol
_atom_site_label
_atom_site_fract_x
_atom_site_fract_y
_atom_site_fract_z
Si Si1 0.249688 0.000000 0.250000
Si Si2 0.321815 0.542523 0.365729
Si Si3 0.750000 0.750000 0.094732
Si Si4 0.148475 0.080228 0.604776
Si Si5 0.321934 0.116443 0.292517
Si Si6 0.000883 0.253847 0.500000
Si Si7 0.747899 0.344585 0.000000
Si Si8 0.350942 0.145877 0.170562
O O1 0.140068 0.024733 0.199831
O O2 0.359298 0.050416 0.274764
O O3 0.275689 0.483531 0.397945
O O4 0.465793 0.572411 0.396815
O O5 0.183692 0.587634 0.364817
O O6 0.723987 0.803584 0.135288
O O7 0.900092 0.756217 0.056117
O O8 0.184251 0.115947 0.662437
O O9 0.220622 0.115738 0.554036
O O10 0.275141 0.148674 0.233897
O O11 0.466357 0.147679 0.321925
O O12 0.080561 0.317143 0.500000
O O13 0.129426 0.206524 0.500000
#
# Coordination Sequence:
#
# PCOD8276436 Si02
#       8
#     8  16   8  16  16   8   8  16
#     4   8  16  30  52  80 120 158 180 204 272 358
#     4   9  19  32  52  83 115 148 181 222 274 334
#     4  11  22  42  62  80 106 145 192 238 278 329
#     4  10  20  34  55  82 114 146 183 227 276 330
#     4   9  19  34  55  85 116 147 179 221 275 335
#     4  10  24  42  63  77 102 151 193 226 279 343
#     4  11  22  41  61  81 106 144 193 238 279 331
#     4  10  20  35  56  82 112 144 183 225 276 332
#
# _framework density 20.059383
#
# number of rings (size 3 to 8) (size 9 to 14) (size 15 to 20)
#    0.000    2.333    0.000    2.000    0.000   21.333 
#    0.000   10.000    0.000    2.000    0.000    0.000 
#    0.000    0.000    0.000    0.000    0.000    0.000 
#
# Total GULP energy -594659.138360 kJ/mol
# GULP energy per Si atom -12388.732049 kJ/mol
# Density = 2.001373 g / cm^3
# Si number density = 20.059383 Si / 1000 Ang^3
#
#
#
# Elastic Constant Matrix: (Units=GPa)
#
#
# Indices 1 2 3 4 5 6 
#
# 1 73.7670 43.6378 43.2772 0.0000 0.0000 0.0000
# 2 43.6378 109.6835 67.4493 0.0000 0.0000 0.0000
# 3 43.2772 67.4493 115.7562 0.0000 0.0000 0.0000
# 4 0.0000 0.0000 0.0000 35.7744 0.0000 0.0000
# 5 0.0000 0.0000 0.0000 0.0000 37.3078 0.0000
# 6 0.0000 0.0000 0.0000 0.0000 0.0000 29.5961
#
#
#
# Elastic Compliance Matrix: (Units=1/GPa)
#
#
# Indices 1 2 3 4 5 6 
#
# 1 0.018952 -0.004960 -0.004195 0.000000 0.000000 0.000000
# 2 -0.004960 0.015506 -0.007181 0.000000 0.000000 0.000000
# 3 -0.004195 -0.007181 0.014391 0.000000 0.000000 0.000000
# 4 0.000000 0.000000 0.000000 0.027953 0.000000 0.000000
# 5 0.000000 0.000000 0.000000 0.000000 0.026804 0.000000
# 6 0.000000 0.000000 0.000000 0.000000 0.000000 0.033788
#
#
# Mechanical properties :
#
#
# Convention : Reuss Voigt Hill
#
# Bulk Modulus (GPa) = 61.81584 67.54835 64.68210
# Shear Modulus (GPa) = 28.49660 30.19183 29.34422
#
# Velocity S-wave (km/s) = 3.77319 3.88380 3.82889
# Velocity P-wave (km/s) = 7.06158 7.33888 7.20157
#
# Compressibility (1/GPa) = 0.01617708
#
# Stress axis : x y z
#
# Youngs Moduli (GPa) = 52.76592 64.48942 69.48566
#
# Poissons Ratio (x) = 0.31988 0.29150
# Poissons Ratio (y) = 0.26173 0.49897
# Poissons Ratio (z) = 0.22136 0.46309
#
# Static dielectric constant tensor:
#      x y z
#    x 3.422160 0.000000 0.000000 
#    y 0.000000 3.707320 0.000000 
#    z 0.000000 0.000000 3.727460 
# 
# 
# High freq. dielectric constant tensor:
#      x y z
#    x 1.765650 0.000000 0.000000 
#    y 0.000000 1.776010 0.000000 
#    z 0.000000 0.000000 1.778930 
# 
# From -- ./inp_files/55725.got.cif
#   From: 2010.03.12/outbox.cif.g09.slc.cpg/sg66_28_cif.got.tgz:55725.got - 2010.04.10 21:57:39.
