data_PCOD8276354
_publ_section_title
;
Structure prediction by ZEFSAII (Michael W. Deem and Ramdas Pophale) SiO2 
 PCOD8276354
Probable space group: C C C M
;
_chemical_formula_sum "Si O2"
_cell_formula_units_Z 80
_cell_length_a 26.407237
_cell_length_b 16.856781
_cell_length_c 10.025747
_cell_angle_alpha 90.000000
_cell_angle_beta 90.000000
_cell_angle_gamma 90.000000
_cell_volume 4462.871155
_symmetry_space_group_name_H-M "C C C M"
_symmetry_group_IT_number 66
_symmetry_cell_setting 'orthorhombic'
loop_
_space_group_symop_operation_xyz
x,y,z
-x,-y,z
x,-y,1/2-z
-x,y,1/2-z
-x,-y,-z
x,y,-z
-x,y,1/2+z
x,-y,1/2+z
1/2+x,1/2+y,z
1/2-x,1/2-y,z
1/2+x,1/2-y,1/2-z
1/2-x,1/2+y,1/2-z
1/2-x,1/2-y,-z
1/2+x,1/2+y,-z
1/2-x,1/2+y,1/2+z
1/2+x,1/2-y,1/2+z
loop_
_atom_site_type_symbol
_atom_site_label
_atom_site_fract_x
_atom_site_fract_y
_atom_site_fract_z
Si Si1 0.044038 0.342355 0.151424
Si Si2 0.693054 0.764874 0.155884
Si Si3 0.596236 0.318221 0.266620
Si Si4 0.554524 0.606411 0.500000
Si Si5 0.563974 0.422254 0.500000
Si Si6 0.853581 0.569470 0.150875
O O1 0.062199 0.253857 0.181670
O O2 0.088603 0.405089 0.172753
O O3 0.000000 0.369163 0.250000
O O4 0.023784 0.344800 0.000000
O O5 0.750000 0.750000 0.203905
O O6 0.654887 0.709425 0.240502
O O7 0.682585 0.856868 0.183200
O O8 0.684695 0.744778 0.000000
O O9 0.576335 0.346301 0.124895
O O10 0.591390 0.390876 0.368246
O O11 0.572584 0.516074 0.500000
O O12 0.494012 0.606287 0.500000
O O13 0.838045 0.500000 0.250000
O O14 0.845234 0.539586 0.000000
#
# Coordination Sequence:
#
# PCOD8276354 Si02
#       6
#    16  16  16   8   8  16
#     4  10  20  33  53  78 107 145 186 221 262 323
#     4   9  18  38  66  82 102 147 192 227 275 336
#     4  11  20  36  55  81 109 145 192 232 271 335
#     4  11  24  32  53  82 117 153 184 229 294 324
#     4  11  20  38  53  76 115 159 190 227 272 344
#     4   9  19  36  55  81 110 139 178 220 270 325
#
# _framework density 17.925681000000001
#
# number of rings (size 3 to 8) (size 9 to 14) (size 15 to 20)
#    0.000    2.000    2.000    3.600    1.400    2.800 
#    5.400    4.500    0.000    0.000    0.000    0.000 
#    0.000    0.000    0.000    0.000    0.000    0.000 
#
# Total GULP energy -496081.776843 kJ/mol
# GULP energy per Si atom -12402.044421 kJ/mol
# Density = 1.788488 g / cm^3
# Si number density = 17.925681 Si / 1000 Ang^3
#
#
#
# Elastic Constant Matrix: (Units=GPa)
#
#
# Indices 1 2 3 4 5 6 
#
# 1 112.5649 41.4789 46.7265 0.0000 0.0000 0.0000
# 2 41.4789 86.9566 46.4043 0.0000 0.0000 0.0000
# 3 46.7265 46.4043 110.4612 0.0000 0.0000 0.0000
# 4 0.0000 0.0000 0.0000 45.5645 0.0000 0.0000
# 5 0.0000 0.0000 0.0000 0.0000 16.1118 0.0000
# 6 0.0000 0.0000 0.0000 0.0000 0.0000 16.5406
#
#
#
# Elastic Compliance Matrix: (Units=1/GPa)
#
#
# Indices 1 2 3 4 5 6 
#
# 1 0.011666 -0.003778 -0.003347 0.000000 0.000000 0.000000
# 2 -0.003778 0.016047 -0.005143 0.000000 0.000000 0.000000
# 3 -0.003347 -0.005143 0.012630 0.000000 0.000000 0.000000
# 4 0.000000 0.000000 0.000000 0.021947 0.000000 0.000000
# 5 0.000000 0.000000 0.000000 0.000000 0.062066 0.000000
# 6 0.000000 0.000000 0.000000 0.000000 0.000000 0.060457
#
#
# Mechanical properties :
#
#
# Convention : Reuss Voigt Hill
#
# Bulk Modulus (GPa) = 63.27276 64.35577 63.81427
# Shear Modulus (GPa) = 23.29725 27.33492 25.31609
#
# Velocity S-wave (km/s) = 3.60899 3.90924 3.76211
# Velocity P-wave (km/s) = 7.26225 7.50703 7.38566
#
# Compressibility (1/GPa) = 0.01580459
#
# Stress axis : x y z
#
# Youngs Moduli (GPa) = 85.72266 62.31795 79.17960
#
# Poissons Ratio (x) = 0.23545 0.26505
# Poissons Ratio (y) = 0.32387 0.40722
# Poissons Ratio (z) = 0.28695 0.32050
#
# Static dielectric constant tensor:
#      x y z
#    x 3.297310 0.000000 0.000000 
#    y 0.000000 3.269890 0.000000 
#    z 0.000000 0.000000 3.668650 
# 
# 
# High freq. dielectric constant tensor:
#      x y z
#    x 1.682810 0.000000 0.000000 
#    y 0.000000 1.695880 0.000000 
#    z 0.000000 0.000000 1.690490 
# 
# From -- ./inp_files/6766.got.cif
#   From: 2010.03.12/outbox.cif.g09.slc.cpg/sg66_4_cif.got.tgz:6766.got - 2010.04.10 21:57:39.
