data_PCOD8276901
_publ_section_title
;
Structure prediction by ZEFSAII (Michael W. Deem and Ramdas Pophale) SiO2 
 PCOD8276901
Probable space group: C C C M
;
_chemical_formula_sum "Si O2"
_cell_formula_units_Z 88
_cell_length_a 13.936793
_cell_length_b 12.620609
_cell_length_c 24.953449
_cell_angle_alpha 90.000000
_cell_angle_beta 90.000000
_cell_angle_gamma 90.000000
_cell_volume 4389.082486
_symmetry_space_group_name_H-M "C C C M"
_symmetry_group_IT_number 66
_symmetry_cell_setting 'orthorhombic'
loop_
_space_group_symop_operation_xyz
x,y,z
-x,-y,z
x,-y,1/2-z
-x,y,1/2-z
-x,-y,-z
x,y,-z
-x,y,1/2+z
x,-y,1/2+z
1/2+x,1/2+y,z
1/2-x,1/2-y,z
1/2+x,1/2-y,1/2-z
1/2-x,1/2+y,1/2-z
1/2-x,1/2-y,-z
1/2+x,1/2+y,-z
1/2-x,1/2+y,1/2+z
1/2+x,1/2-y,1/2+z
loop_
_atom_site_type_symbol
_atom_site_label
_atom_site_fract_x
_atom_site_fract_y
_atom_site_fract_z
Si Si1 0.441039 0.241800 0.631397
Si Si2 0.611463 0.300744 0.244515
Si Si3 0.151147 0.697845 0.652914
Si Si4 0.326685 0.037121 0.361954
Si Si5 0.310945 0.643893 0.940360
Si Si6 0.734554 0.500000 0.250000
O O1 0.373244 0.276277 0.681885
O O2 0.554845 0.260999 0.636160
O O3 0.413534 0.117622 0.623992
O O4 0.413738 0.319065 0.582525
O O5 0.500000 0.323028 0.250000
O O6 0.647882 0.201241 0.281401
O O7 0.667381 0.402362 0.267535
O O8 0.250000 0.750000 0.631156
O O9 0.138584 0.582236 0.627725
O O10 0.237174 0.057870 0.401426
O O11 0.297399 0.040686 0.299697
O O12 0.250000 0.750000 0.941608
O O13 0.322969 0.595762 0.000000
#
# Coordination Sequence:
#
# PCOD8276901 Si02
#       6
#    16  16  16  16  16   8
#     4  10  21  37  58  84 116 151 196 238 288 342
#     4  10  21  34  52  83 118 157 191 228 283 352
#     4  11  22  37  54  84 119 154 189 234 292 353
#     4  11  21  33  60  87 118 149 187 242 293 347
#     4   9  19  38  63  89 114 150 199 247 290 342
#     4  12  19  32  57  88 118 154 188 235 289 352
#
# _framework density 20.049748000000001
#
# number of rings (size 3 to 8) (size 9 to 14) (size 15 to 20)
#    0.000    1.636    3.636    1.909    0.000    0.000 
#    0.000    5.455    0.000    7.636    0.000    0.000 
#    0.000    0.000    0.000    0.000    0.000    0.000 
#
# Total GULP energy -545260.687859 kJ/mol
# GULP energy per Si atom -12392.288360 kJ/mol
# Density = 2.000411 g / cm^3
# Si number density = 20.049748 Si / 1000 Ang^3
#
#
#
# Elastic Constant Matrix: (Units=GPa)
#
#
# Indices 1 2 3 4 5 6 
#
# 1 113.8978 24.2042 33.1244 0.0000 0.0000 0.0000
# 2 24.2042 58.8418 22.4698 0.0000 0.0000 0.0000
# 3 33.1244 22.4698 112.9454 0.0000 0.0000 0.0000
# 4 0.0000 0.0000 0.0000 20.4886 0.0000 0.0000
# 5 0.0000 0.0000 0.0000 0.0000 15.3985 0.0000
# 6 0.0000 0.0000 0.0000 0.0000 0.0000 23.9260
#
#
#
# Elastic Compliance Matrix: (Units=1/GPa)
#
#
# Indices 1 2 3 4 5 6 
#
# 1 0.010155 -0.003290 -0.002324 0.000000 0.000000 0.000000
# 2 -0.003290 0.019458 -0.002906 0.000000 0.000000 0.000000
# 3 -0.002324 -0.002906 0.010113 0.000000 0.000000 0.000000
# 4 0.000000 0.000000 0.000000 0.048808 0.000000 0.000000
# 5 0.000000 0.000000 0.000000 0.000000 0.064941 0.000000
# 6 0.000000 0.000000 0.000000 0.000000 0.000000 0.041795
#
#
# Mechanical properties :
#
#
# Convention : Reuss Voigt Hill
#
# Bulk Modulus (GPa) = 44.07868 49.47573 46.77721
# Shear Modulus (GPa) = 22.74057 25.68843 24.21450
#
# Velocity S-wave (km/s) = 3.37145 3.58332 3.47900
# Velocity P-wave (km/s) = 6.09819 6.46918 6.28642
#
# Compressibility (1/GPa) = 0.02268671
#
# Stress axis : x y z
#
# Youngs Moduli (GPa) = 98.47685 51.39356 98.87788
#
# Poissons Ratio (x) = 0.16907 0.22976
# Poissons Ratio (y) = 0.32396 0.28736
# Poissons Ratio (z) = 0.22883 0.14936
#
# Static dielectric constant tensor:
#      x y z
#    x 3.625480 0.000000 0.000000 
#    y 0.000000 3.591180 0.000000 
#    z 0.000000 0.000000 3.731660 
# 
# 
# High freq. dielectric constant tensor:
#      x y z
#    x 1.786940 0.000000 0.000000 
#    y 0.000000 1.772080 0.000000 
#    z 0.000000 0.000000 1.749980 
# 
# From -- ./inp_files/58121.got.cif
#   From: 2010.03.12/outbox.cif.g09.slc.cpg/sg66_30_cif.got.tgz:58121.got - 2010.04.10 21:57:39.
