data_PCOD8276681
_publ_section_title
;
Structure prediction by ZEFSAII (Michael W. Deem and Ramdas Pophale) SiO2 
 PCOD8276681
Probable space group: C C C M
;
_chemical_formula_sum "Si O2"
_cell_formula_units_Z 116
_cell_length_a 12.320655
_cell_length_b 24.666125
_cell_length_c 17.574655
_cell_angle_alpha 90.000000
_cell_angle_beta 90.000000
_cell_angle_gamma 90.000000
_cell_volume 5340.987150
_symmetry_space_group_name_H-M "C C C M"
_symmetry_group_IT_number 66
_symmetry_cell_setting 'orthorhombic'
loop_
_space_group_symop_operation_xyz
x,y,z
-x,-y,z
x,-y,1/2-z
-x,y,1/2-z
-x,-y,-z
x,y,-z
-x,y,1/2+z
x,-y,1/2+z
1/2+x,1/2+y,z
1/2-x,1/2-y,z
1/2+x,1/2-y,1/2-z
1/2-x,1/2+y,1/2-z
1/2-x,1/2-y,-z
1/2+x,1/2+y,-z
1/2-x,1/2+y,1/2+z
1/2+x,1/2-y,1/2+z
loop_
_atom_site_type_symbol
_atom_site_label
_atom_site_fract_x
_atom_site_fract_y
_atom_site_fract_z
Si Si1 0.552411 0.945340 0.414992
Si Si2 0.233043 0.619584 0.171927
Si Si3 0.447908 0.690276 0.675623
Si Si4 0.159872 0.207523 0.412129
Si Si5 0.000000 0.000000 0.250000
Si Si6 0.618945 0.197132 0.282391
Si Si7 0.336595 0.117904 0.914657
Si Si8 0.657353 0.417720 0.682742
O O1 0.600515 0.956835 0.500000
O O2 0.643211 0.921643 0.359122
O O3 0.458437 0.902011 0.421591
O O4 0.500000 0.000000 0.380103
O O5 0.302506 0.645453 0.103051
O O6 0.194375 0.672806 0.217252
O O7 0.307818 0.586137 0.229111
O O8 0.500000 0.662982 0.750000
O O9 0.541086 0.717651 0.624064
O O10 0.366824 0.738169 0.703806
O O11 0.385291 0.638424 0.641973
O O12 0.141709 0.217109 0.500000
O O13 0.250000 0.250000 0.381570
O O14 0.930621 0.034681 0.311864
O O15 0.500000 0.183624 0.250000
O O16 0.653506 0.171017 0.362655
O O17 0.260875 0.071674 0.872878
O O18 0.292789 0.131192 0.000000
#
# Coordination Sequence:
#
# PCOD8276681 Si02
#       8
#    16  16  16  16   4  16  16  16
#     4  10  22  40  62  89 132 171 202 255 320 382
#     4  11  21  39  62  96 125 168 211 265 314 387
#     4  11  21  42  59  89 128 171 212 261 314 385
#     4  11  23  36  60  96 127 163 210 262 319 381
#     4  12  24  48  62  94 120 164 220 290 326 362
#     4  10  20  36  62  90 124 168 204 245 315 378
#     4  10  23  42  62  96 132 166 209 260 319 389
#     4  11  25  41  69  90 124 167 221 271 320 377
#
# _framework density 21.718831000000002
#
# number of rings (size 3 to 8) (size 9 to 14) (size 15 to 20)
#    0.000    1.379    3.448    2.069    1.931    2.759 
#    0.000    3.793    0.000    0.000    0.000    0.000 
#    0.000    0.000    0.000    0.000    0.000    0.000 
#
# Total GULP energy -718659.566653 kJ/mol
# GULP energy per Si atom -12390.682184 kJ/mol
# Density = 2.166940 g / cm^3
# Si number density = 21.718831 Si / 1000 Ang^3
#
#
#
# Elastic Constant Matrix: (Units=GPa)
#
#
# Indices 1 2 3 4 5 6 
#
# 1 75.4961 36.1814 26.8763 0.0000 0.0000 0.0000
# 2 36.1814 101.3304 33.6305 0.0000 0.0000 0.0000
# 3 26.8763 33.6305 95.0872 0.0000 0.0000 0.0000
# 4 0.0000 0.0000 0.0000 9.4197 0.0000 0.0000
# 5 0.0000 0.0000 0.0000 0.0000 26.8544 0.0000
# 6 0.0000 0.0000 0.0000 0.0000 0.0000 25.6033
#
#
#
# Elastic Compliance Matrix: (Units=1/GPa)
#
#
# Indices 1 2 3 4 5 6 
#
# 1 0.016683 -0.004976 -0.002955 0.000000 0.000000 0.000000
# 2 -0.004976 0.012665 -0.003073 0.000000 0.000000 0.000000
# 3 -0.002955 -0.003073 0.012439 0.000000 0.000000 0.000000
# 4 0.000000 0.000000 0.000000 0.106161 0.000000 0.000000
# 5 0.000000 0.000000 0.000000 0.000000 0.037238 0.000000
# 6 0.000000 0.000000 0.000000 0.000000 0.000000 0.039057
#
#
# Mechanical properties :
#
#
# Convention : Reuss Voigt Hill
#
# Bulk Modulus (GPa) = 50.56110 51.69889 51.13000
# Shear Modulus (GPa) = 19.77502 24.05717 21.91610
#
# Velocity S-wave (km/s) = 3.02072 3.33177 3.18005
# Velocity P-wave (km/s) = 5.95792 6.21742 6.08905
#
# Compressibility (1/GPa) = 0.01977805
#
# Stress axis : x y z
#
# Youngs Moduli (GPa) = 59.94302 78.95585 80.39294
#
# Poissons Ratio (x) = 0.39287 0.23760
# Poissons Ratio (y) = 0.29827 0.24705
# Poissons Ratio (z) = 0.17716 0.24264
#
# Static dielectric constant tensor:
#      x y z
#    x 4.123340 0.000000 0.000000 
#    y 0.000000 3.742660 0.000000 
#    z 0.000000 0.000000 4.129960 
# 
# 
# High freq. dielectric constant tensor:
#      x y z
#    x 1.863050 0.000000 0.000000 
#    y 0.000000 1.841940 0.000000 
#    z 0.000000 0.000000 1.840890 
# 
# From -- ./inp_files/39132.got.cif
#   From: 2010.03.12/outbox.cif.g09.slc.cpg/sg66_20_cif.got.tgz:39132.got - 2010.04.10 21:57:39.
