data_PCOD8276595
_publ_section_title
;
Structure prediction by ZEFSAII (Michael W. Deem and Ramdas Pophale) SiO2 
 PCOD8276595
Probable space group: C C C M
;
_chemical_formula_sum "Si O2"
_cell_formula_units_Z 64
_cell_length_a 27.756505
_cell_length_b 14.366412
_cell_length_c 8.642589
_cell_angle_alpha 90.000000
_cell_angle_beta 90.000000
_cell_angle_gamma 90.000000
_cell_volume 3446.330773
_symmetry_space_group_name_H-M "C C C M"
_symmetry_group_IT_number 66
_symmetry_cell_setting 'orthorhombic'
loop_
_space_group_symop_operation_xyz
x,y,z
-x,-y,z
x,-y,1/2-z
-x,y,1/2-z
-x,-y,-z
x,y,-z
-x,y,1/2+z
x,-y,1/2+z
1/2+x,1/2+y,z
1/2-x,1/2-y,z
1/2+x,1/2-y,1/2-z
1/2-x,1/2+y,1/2-z
1/2-x,1/2-y,-z
1/2+x,1/2+y,-z
1/2-x,1/2+y,1/2+z
1/2+x,1/2-y,1/2+z
loop_
_atom_site_type_symbol
_atom_site_label
_atom_site_fract_x
_atom_site_fract_y
_atom_site_fract_z
Si Si1 0.364689 0.714528 0.317127
Si Si2 0.051690 0.098500 0.317460
Si Si3 0.264884 0.644310 0.330595
Si Si4 0.328614 0.904762 0.180301
O O1 0.373288 0.713472 0.500000
O O2 0.411479 0.679217 0.228427
O O3 0.320301 0.645273 0.272113
O O4 0.354474 0.819802 0.265653
O O5 0.047750 0.089849 0.500000
O O6 0.000000 0.126385 0.250000
O O7 0.069492 0.000000 0.250000
O O8 0.260228 0.595575 0.500000
O O9 0.250000 0.750000 0.351295
O O10 0.229356 0.594969 0.209319
O O11 0.350366 0.000000 0.250000
O O12 0.339367 0.898470 0.000000
#
# Coordination Sequence:
#
# PCOD8276595 Si02
#       4
#    16  16  16  16
#     4  10  20  36  56  79 108 141 179 223 269 318
#     4  11  22  38  59  83 109 138 173 216 268 321
#     4   8  16  31  49  70 100 136 173 215 260 305
#     4  11  21  33  51  76 108 146 185 223 264 313
#
# _framework density 18.570474999999998
#
# number of rings (size 3 to 8) (size 9 to 14) (size 15 to 20)
#    0.000    2.000    0.000    7.500    0.000    6.500 
#    0.000    0.000    0.000    0.750    0.000    5.250 
#    0.000    0.000    0.000    0.000    0.000    0.000 
#
# Total GULP energy -396721.290655 kJ/mol
# GULP energy per Si atom -12397.540333 kJ/mol
# Density = 1.852821 g / cm^3
# Si number density = 18.570475 Si / 1000 Ang^3
#
#
#
# Elastic Constant Matrix: (Units=GPa)
#
#
# Indices 1 2 3 4 5 6 
#
# 1 97.4504 45.3389 39.6823 0.0000 0.0000 0.0000
# 2 45.3389 80.9824 32.6515 0.0000 0.0000 0.0000
# 3 39.6823 32.6515 125.4551 0.0000 0.0000 0.0000
# 4 0.0000 0.0000 0.0000 27.4600 0.0000 0.0000
# 5 0.0000 0.0000 0.0000 0.0000 21.2240 0.0000
# 6 0.0000 0.0000 0.0000 0.0000 0.0000 19.2596
#
#
#
# Elastic Compliance Matrix: (Units=1/GPa)
#
#
# Indices 1 2 3 4 5 6 
#
# 1 0.014709 -0.007104 -0.002803 0.000000 0.000000 0.000000
# 2 -0.007104 0.017228 -0.002237 0.000000 0.000000 0.000000
# 3 -0.002803 -0.002237 0.009440 0.000000 0.000000 0.000000
# 4 0.000000 0.000000 0.000000 0.036417 0.000000 0.000000
# 5 0.000000 0.000000 0.000000 0.000000 0.047117 0.000000
# 6 0.000000 0.000000 0.000000 0.000000 0.000000 0.051922
#
#
# Mechanical properties :
#
#
# Convention : Reuss Voigt Hill
#
# Bulk Modulus (GPa) = 58.52327 59.91481 59.21904
# Shear Modulus (GPa) = 24.17613 26.00307 25.08960
#
# Velocity S-wave (km/s) = 3.61204 3.74603 3.67965
# Velocity P-wave (km/s) = 6.99845 7.14450 7.07185
#
# Compressibility (1/GPa) = 0.01708722
#
# Stress axis : x y z
#
# Youngs Moduli (GPa) = 67.98787 58.04637 105.93444
#
# Poissons Ratio (x) = 0.41239 0.29697
# Poissons Ratio (y) = 0.48301 0.23693
# Poissons Ratio (z) = 0.19059 0.12982
#
# Static dielectric constant tensor:
#      x y z
#    x 3.507060 0.000000 0.000000 
#    y 0.000000 3.365160 0.000000 
#    z 0.000000 0.000000 3.445950 
# 
# 
# High freq. dielectric constant tensor:
#      x y z
#    x 1.700850 0.000000 0.000000 
#    y 0.000000 1.712600 0.000000 
#    z 0.000000 0.000000 1.733120 
# 
# From -- ./inp_files/5069.got.cif
#   From: 2010.03.12/outbox.cif.g09.slc.cpg/sg66_3_cif.got.tgz:5069.got - 2010.04.10 21:57:39.
