data_PCOD8276554
_publ_section_title
;
Structure prediction by ZEFSAII (Michael W. Deem and Ramdas Pophale) SiO2 
 PCOD8276554
Probable space group: C C C M
;
_chemical_formula_sum "Si O2"
_cell_formula_units_Z 52
_cell_length_a 15.711616
_cell_length_b 19.162958
_cell_length_c 9.215262
_cell_angle_alpha 90.000000
_cell_angle_beta 90.000000
_cell_angle_gamma 90.000000
_cell_volume 2774.540644
_symmetry_space_group_name_H-M "C C C M"
_symmetry_group_IT_number 66
_symmetry_cell_setting 'orthorhombic'
loop_
_space_group_symop_operation_xyz
x,y,z
-x,-y,z
x,-y,1/2-z
-x,y,1/2-z
-x,-y,-z
x,y,-z
-x,y,1/2+z
x,-y,1/2+z
1/2+x,1/2+y,z
1/2-x,1/2-y,z
1/2+x,1/2-y,1/2-z
1/2-x,1/2+y,1/2-z
1/2-x,1/2-y,-z
1/2+x,1/2+y,-z
1/2-x,1/2+y,1/2+z
1/2+x,1/2-y,1/2+z
loop_
_atom_site_type_symbol
_atom_site_label
_atom_site_fract_x
_atom_site_fract_y
_atom_site_fract_z
Si Si1 0.662283 0.562771 0.660074
Si Si2 0.412648 0.928104 0.326953
Si Si3 0.745353 0.169718 0.332516
Si Si4 0.500000 0.500000 0.750000
O O1 0.707488 0.500000 0.750000
O O2 0.701891 0.563988 0.500000
O O3 0.679598 0.635013 0.740121
O O4 0.560379 0.549457 0.651699
O O5 0.500000 0.903708 0.250000
O O6 0.425535 0.939521 0.500000
O O7 0.344740 0.866652 0.296060
O O8 0.382512 0.000000 0.250000
O O9 0.768420 0.159969 0.500000
O O10 0.750000 0.250000 0.286726
#
# Coordination Sequence:
#
# PCOD8276554 Si02
#       4
#    16  16  16   4
#     4  10  20  35  58  84 113 147 187 231 275 333
#     4  10  20  36  59  83 108 142 185 234 278 325
#     4  10  22  39  57  81 117 154 186 227 284 337
#     4   8  22  36  58  88 116 140 184 232 286 332
#
# _framework density 18.741841000000001
#
# number of rings (size 3 to 8) (size 9 to 14) (size 15 to 20)
#    0.923    1.231    0.000    4.154    0.000    5.538 
#    2.769    0.000    0.000    0.000    0.000    0.000 
#    0.000    0.000    0.000    0.000    0.000    0.000 
#
# Total GULP energy -322183.775991 kJ/mol
# GULP energy per Si atom -12391.683692 kJ/mol
# Density = 1.869918 g / cm^3
# Si number density = 18.741841 Si / 1000 Ang^3
#
#
#
# Elastic Constant Matrix: (Units=GPa)
#
#
# Indices 1 2 3 4 5 6 
#
# 1 101.0466 70.3959 44.8792 0.0000 0.0000 0.0000
# 2 70.3959 164.3551 80.4905 0.0000 0.0000 0.0000
# 3 44.8792 80.4905 120.4521 0.0000 0.0000 0.0000
# 4 0.0000 0.0000 0.0000 28.5759 0.0000 0.0000
# 5 0.0000 0.0000 0.0000 0.0000 30.0500 0.0000
# 6 0.0000 0.0000 0.0000 0.0000 0.0000 24.3553
#
#
#
# Elastic Compliance Matrix: (Units=1/GPa)
#
#
# Indices 1 2 3 4 5 6 
#
# 1 0.014376 -0.005254 -0.001846 0.000000 0.000000 0.000000
# 2 -0.005254 0.010964 -0.005369 0.000000 0.000000 0.000000
# 3 -0.001846 -0.005369 0.012578 0.000000 0.000000 0.000000
# 4 0.000000 0.000000 0.000000 0.034995 0.000000 0.000000
# 5 0.000000 0.000000 0.000000 0.000000 0.033278 0.000000
# 6 0.000000 0.000000 0.000000 0.000000 0.000000 0.041059
#
#
# Mechanical properties :
#
#
# Convention : Reuss Voigt Hill
#
# Bulk Modulus (GPa) = 77.03656 86.37612 81.70634
# Shear Modulus (GPa) = 28.32648 29.26877 28.79763
#
# Velocity S-wave (km/s) = 3.89189 3.95610 3.92413
# Velocity P-wave (km/s) = 7.83512 8.18871 8.01387
#
# Compressibility (1/GPa) = 0.01298085
#
# Stress axis : x y z
#
# Youngs Moduli (GPa) = 69.55911 91.20700 79.50623
#
# Poissons Ratio (x) = 0.47917 0.14675
# Poissons Ratio (y) = 0.36544 0.42688
# Poissons Ratio (z) = 0.12839 0.48970
#
# Static dielectric constant tensor:
#      x y z
#    x 3.314020 0.000000 0.000000 
#    y 0.000000 3.359220 0.000000 
#    z 0.000000 0.000000 3.450620 
# 
# 
# High freq. dielectric constant tensor:
#      x y z
#    x 1.723490 0.000000 0.000000 
#    y 0.000000 1.711580 0.000000 
#    z 0.000000 0.000000 1.735900 
# 
# From -- ./inp_files/4931.got.cif
#   From: 2010.03.12/outbox.cif.g09.slc.cpg/sg66_3_cif.got.tgz:4931.got - 2010.04.10 21:57:39.
