data_PCOD8276742
_publ_section_title
;
Structure prediction by ZEFSAII (Michael W. Deem and Ramdas Pophale) SiO2 
 PCOD8276742
Probable space group: C C C M
;
_chemical_formula_sum "Si O2"
_cell_formula_units_Z 88
_cell_length_a 21.044328
_cell_length_b 11.613261
_cell_length_c 17.189705
_cell_angle_alpha 90.000000
_cell_angle_beta 90.000000
_cell_angle_gamma 90.000000
_cell_volume 4201.048278
_symmetry_space_group_name_H-M "C C C M"
_symmetry_group_IT_number 66
_symmetry_cell_setting 'orthorhombic'
loop_
_space_group_symop_operation_xyz
x,y,z
-x,-y,z
x,-y,1/2-z
-x,y,1/2-z
-x,-y,-z
x,y,-z
-x,y,1/2+z
x,-y,1/2+z
1/2+x,1/2+y,z
1/2-x,1/2-y,z
1/2+x,1/2-y,1/2-z
1/2-x,1/2+y,1/2-z
1/2-x,1/2-y,-z
1/2+x,1/2+y,-z
1/2-x,1/2+y,1/2+z
1/2+x,1/2-y,1/2+z
loop_
_atom_site_type_symbol
_atom_site_label
_atom_site_fract_x
_atom_site_fract_y
_atom_site_fract_z
Si Si1 0.750000 0.250000 0.806355
Si Si2 0.669361 0.514118 0.910744
Si Si3 0.623893 0.237042 0.408572
Si Si4 0.007059 0.629563 0.907912
Si Si5 0.782080 0.421873 0.311830
Si Si6 0.368914 0.735697 0.909129
O O1 0.734917 0.353154 0.746354
O O2 0.690252 0.217574 0.860188
O O3 0.632116 0.629482 0.885981
O O4 0.736517 0.501481 0.866644
O O5 0.624947 0.402469 0.895541
O O6 0.688695 0.521932 0.000000
O O7 0.634449 0.214677 0.500000
O O8 0.553740 0.202586 0.381396
O O9 0.674155 0.159126 0.363437
O O10 0.069257 0.696853 0.876938
O O11 0.000000 0.500000 0.873783
O O12 0.011493 0.623068 0.000000
O O13 0.822597 0.500000 0.250000
O O14 0.357516 0.763138 0.000000
#
# Coordination Sequence:
#
# PCOD8276742 Si02
#       6
#     8  16  16  16  16  16
#     4  12  23  38  61  86 124 162 196 250 307 366
#     4  10  20  37  61  89 121 156 202 255 302 364
#     4  10  21  39  63  88 118 161 205 250 305 363
#     4   9  20  38  60  86 118 154 198 248 296 358
#     4  12  23  37  58  89 126 160 201 250 312 367
#     4  10  22  39  60  90 120 156 204 251 305 364
#
# _framework density 20.947153
#
# number of rings (size 3 to 8) (size 9 to 14) (size 15 to 20)
#    0.000    1.636    3.636    0.818    2.545    2.182 
#    0.000    4.545    0.000    0.000    0.000    0.000 
#    0.000    0.000    0.000    0.000    0.000    0.000 
#
# Total GULP energy -545229.642528 kJ/mol
# GULP energy per Si atom -12391.582785 kJ/mol
# Density = 2.089948 g / cm^3
# Si number density = 20.947153 Si / 1000 Ang^3
#
#
#
# Elastic Constant Matrix: (Units=GPa)
#
#
# Indices 1 2 3 4 5 6 
#
# 1 150.8252 67.2867 49.9984 0.0000 0.0000 0.0000
# 2 67.2867 130.9658 39.9591 0.0000 0.0000 0.0000
# 3 49.9984 39.9591 61.5585 0.0000 0.0000 0.0000
# 4 0.0000 0.0000 0.0000 32.8202 0.0000 0.0000
# 5 0.0000 0.0000 0.0000 0.0000 2.9753 0.0000
# 6 0.0000 0.0000 0.0000 0.0000 0.0000 39.0096
#
#
#
# Elastic Compliance Matrix: (Units=1/GPa)
#
#
# Indices 1 2 3 4 5 6 
#
# 1 0.010135 -0.003361 -0.006050 0.000000 0.000000 0.000000
# 2 -0.003361 0.010636 -0.004174 0.000000 0.000000 0.000000
# 3 -0.006050 -0.004174 0.023868 0.000000 0.000000 0.000000
# 4 0.000000 0.000000 0.000000 0.030469 0.000000 0.000000
# 5 0.000000 0.000000 0.000000 0.000000 0.336105 0.000000
# 6 0.000000 0.000000 0.000000 0.000000 0.000000 0.025635
#
#
# Mechanical properties :
#
#
# Convention : Reuss Voigt Hill
#
# Bulk Modulus (GPa) = 57.24547 73.09309 65.16928
# Shear Modulus (GPa) = 10.64187 27.36801 19.00494
#
# Velocity S-wave (km/s) = 2.25641 3.61851 3.01538
# Velocity P-wave (km/s) = 5.84605 7.24072 6.58044
#
# Compressibility (1/GPa) = 0.01746863
#
# Stress axis : x y z
#
# Youngs Moduli (GPa) = 98.66445 94.01954 41.89677
#
# Poissons Ratio (x) = 0.31603 0.25348
# Poissons Ratio (y) = 0.33164 0.17488
# Poissons Ratio (z) = 0.59693 0.39244
#
# Static dielectric constant tensor:
#      x y z
#    x 3.627360 0.000000 0.000000 
#    y 0.000000 4.322980 0.000000 
#    z 0.000000 0.000000 3.824800 
# 
# 
# High freq. dielectric constant tensor:
#      x y z
#    x 1.792510 0.000000 0.000000 
#    y 0.000000 1.843290 0.000000 
#    z 0.000000 0.000000 1.816450 
# 
# From -- ./inp_files/42798.got.cif
#   From: 2010.03.12/outbox.cif.g09.slc.cpg/sg66_22_cif.got.tgz:42798.got - 2010.04.10 21:57:39.
