data_PCOD8276206
_publ_section_title
;
Structure prediction by ZEFSAII (Michael W. Deem and Ramdas Pophale) SiO2 
 PCOD8276206
Probable space group: C C C M
;
_chemical_formula_sum "Si O2"
_cell_formula_units_Z 96
_cell_length_a 9.907912
_cell_length_b 27.527025
_cell_length_c 18.616333
_cell_angle_alpha 90.000000
_cell_angle_beta 90.000000
_cell_angle_gamma 90.000000
_cell_volume 5077.331935
_symmetry_space_group_name_H-M "C C C M"
_symmetry_group_IT_number 66
_symmetry_cell_setting 'orthorhombic'
loop_
_space_group_symop_operation_xyz
x,y,z
-x,-y,z
x,-y,1/2-z
-x,y,1/2-z
-x,-y,-z
x,y,-z
-x,y,1/2+z
x,-y,1/2+z
1/2+x,1/2+y,z
1/2-x,1/2-y,z
1/2+x,1/2-y,1/2-z
1/2-x,1/2+y,1/2-z
1/2-x,1/2-y,-z
1/2+x,1/2+y,-z
1/2-x,1/2+y,1/2+z
1/2+x,1/2-y,1/2+z
loop_
_atom_site_type_symbol
_atom_site_label
_atom_site_fract_x
_atom_site_fract_y
_atom_site_fract_z
Si Si1 0.227798 0.589178 0.583502
Si Si2 0.903506 0.748607 0.815648
Si Si3 0.543181 0.336807 0.417142
Si Si4 0.003647 0.357296 0.834138
Si Si5 0.759636 0.115285 0.915845
Si Si6 0.853873 0.988387 0.416042
O O1 0.196786 0.597833 0.500000
O O2 0.357747 0.620066 0.608381
O O3 0.097306 0.602997 0.628620
O O4 0.253541 0.532650 0.599473
O O5 0.750000 0.750000 0.787522
O O6 0.922796 0.787394 0.877646
O O7 0.938217 0.696235 0.848808
O O8 0.000000 0.761958 0.750000
O O9 0.567015 0.325920 0.500000
O O10 0.390968 0.352419 0.401713
O O11 0.000000 0.368600 0.750000
O O12 0.855973 0.360443 0.868315
O O13 0.787815 0.060943 0.885762
O O14 0.719122 0.115075 0.000000
O O15 0.878473 0.979430 0.500000
O O16 0.000000 0.000000 0.380680
#
# Coordination Sequence:
#
# PCOD8276206 Si02
#       6
#    16  16  16  16  16  16
#     4  10  19  36  62  90 117 150 193 238 290 347
#     4  11  25  42  62  84 115 158 203 241 287 355
#     4  10  21  36  62  92 117 147 189 245 297 342
#     4  11  25  41  57  82 119 159 196 240 293 344
#     4  10  21  38  61  91 121 150 190 244 294 343
#     4   9  16  32  61  91 117 149 192 237 286 349
#
# _framework density 18.907568999999999
#
# number of rings (size 3 to 8) (size 9 to 14) (size 15 to 20)
#    0.000    1.833    3.333    0.500    4.667    2.333 
#    0.000    5.833    0.000    1.000    0.000    0.000 
#    0.000    0.000    0.000    0.000    0.000    0.000 
#
# Total GULP energy -595329.626639 kJ/mol
# GULP energy per Si atom -12402.700555 kJ/mol
# Density = 1.886453 g / cm^3
# Si number density = 18.907569 Si / 1000 Ang^3
#
#
#
# Elastic Constant Matrix: (Units=GPa)
#
#
# Indices 1 2 3 4 5 6 
#
# 1 126.3559 42.0231 43.7951 0.0000 0.0000 0.0000
# 2 42.0231 99.6897 35.8793 0.0000 0.0000 0.0000
# 3 43.7951 35.8793 54.7877 0.0000 0.0000 0.0000
# 4 0.0000 0.0000 0.0000 114.5710 0.0000 0.0000
# 5 0.0000 0.0000 0.0000 0.0000 30.0041 0.0000
# 6 0.0000 0.0000 0.0000 0.0000 0.0000 29.6108
#
#
#
# Elastic Compliance Matrix: (Units=1/GPa)
#
#
# Indices 1 2 3 4 5 6 
#
# 1 0.011235 -0.001967 -0.007692 0.000000 0.000000 0.000000
# 2 -0.001967 0.013469 -0.007248 0.000000 0.000000 0.000000
# 3 -0.007692 -0.007248 0.029148 0.000000 0.000000 0.000000
# 4 0.000000 0.000000 0.000000 0.008728 0.000000 0.000000
# 5 0.000000 0.000000 0.000000 0.000000 0.033329 0.000000
# 6 0.000000 0.000000 0.000000 0.000000 0.000000 0.033771
#
#
# Mechanical properties :
#
#
# Convention : Reuss Voigt Hill
#
# Bulk Modulus (GPa) = 49.90928 58.24761 54.07845
# Shear Modulus (GPa) = 29.38186 45.44624 37.41405
#
# Velocity S-wave (km/s) = 3.94632 4.90797 4.45318
# Velocity P-wave (km/s) = 6.87156 7.93668 7.42325
#
# Compressibility (1/GPa) = 0.02003635
#
# Stress axis : x y z
#
# Youngs Moduli (GPa) = 89.01139 74.24424 34.30822
#
# Poissons Ratio (x) = 0.14606 0.26390
# Poissons Ratio (y) = 0.17512 0.24867
# Poissons Ratio (z) = 0.68468 0.53812
#
# Static dielectric constant tensor:
#      x y z
#    x 3.553760 0.000000 0.000000 
#    y 0.000000 3.556030 0.000000 
#    z 0.000000 0.000000 3.190200 
# 
# 
# High freq. dielectric constant tensor:
#      x y z
#    x 1.747170 0.000000 0.000000 
#    y 0.000000 1.746020 0.000000 
#    z 0.000000 0.000000 1.706890 
# 
# From -- ./inp_files/47343.got.cif
#   From: 2010.03.12/outbox.cif.g09.slc.cpg/sg66_24_cif.got.tgz:47343.got - 2010.04.10 21:57:39.
