data_PCOD8276090
_publ_section_title
;
Structure prediction by ZEFSAII (Michael W. Deem and Ramdas Pophale) SiO2 
 PCOD8276090
Probable space group: C C C M
;
_chemical_formula_sum "Si O2"
_cell_formula_units_Z 96
_cell_length_a 27.811104
_cell_length_b 7.868130
_cell_length_c 22.664760
_cell_angle_alpha 90.000000
_cell_angle_beta 90.000000
_cell_angle_gamma 90.000000
_cell_volume 4959.534099
_symmetry_space_group_name_H-M "C C C M"
_symmetry_group_IT_number 66
_symmetry_cell_setting 'orthorhombic'
loop_
_space_group_symop_operation_xyz
x,y,z
-x,-y,z
x,-y,1/2-z
-x,y,1/2-z
-x,-y,-z
x,y,-z
-x,y,1/2+z
x,-y,1/2+z
1/2+x,1/2+y,z
1/2-x,1/2-y,z
1/2+x,1/2-y,1/2-z
1/2-x,1/2+y,1/2-z
1/2-x,1/2-y,-z
1/2+x,1/2+y,-z
1/2-x,1/2+y,1/2+z
1/2+x,1/2-y,1/2+z
loop_
_atom_site_type_symbol
_atom_site_label
_atom_site_fract_x
_atom_site_fract_y
_atom_site_fract_z
Si Si1 0.945240 0.950684 0.568913
Si Si2 0.799831 0.815469 0.768408
Si Si3 0.645526 0.596018 0.878629
Si Si4 0.350418 0.938254 0.566620
Si Si5 0.805844 0.258417 0.138863
Si Si6 0.951711 0.425349 0.068247
O O1 0.930758 0.971997 0.500000
O O2 0.937757 0.759579 0.593393
O O3 0.911012 0.069869 0.608669
O O4 0.000000 0.000000 0.579733
O O5 0.750000 0.750000 0.797963
O O6 0.844699 0.826484 0.813382
O O7 0.816084 0.717042 0.708970
O O8 0.783276 0.000000 0.750000
O O9 0.665846 0.743724 0.921829
O O10 0.671719 0.415100 0.887987
O O11 0.337305 0.989117 0.500000
O O12 0.325496 0.072758 0.608966
O O13 0.407888 0.945447 0.577674
O O14 0.750000 0.250000 0.125435
O O15 0.000000 0.500000 0.098914
O O16 0.963827 0.393692 0.000000
#
# Coordination Sequence:
#
# PCOD8276090 Si02
#       6
#    16  16  16  16  16  16
#     4  10  19  34  58  87 124 165 200 243 296 358
#     4   9  21  38  63  88 111 150 211 258 301 353
#     4  11  22  36  61  91 121 152 205 255 307 353
#     4  11  23  36  57  88 122 161 196 240 306 372
#     4  10  23  42  61  84 118 158 203 254 302 359
#     4   9  17  32  53  80 114 153 200 242 280 343
#
# _framework density 19.356655
#
# number of rings (size 3 to 8) (size 9 to 14) (size 15 to 20)
#    0.000    2.000    1.667    1.500    7.000    3.667 
#    0.000    0.833    0.000    4.500    0.000    1.167 
#    0.000    0.000    0.000    0.000    0.000    0.000 
#
# Total GULP energy -594865.164943 kJ/mol
# GULP energy per Si atom -12393.024270 kJ/mol
# Density = 1.931260 g / cm^3
# Si number density = 19.356655 Si / 1000 Ang^3
#
#
#
# Elastic Constant Matrix: (Units=GPa)
#
#
# Indices 1 2 3 4 5 6 
#
# 1 111.1167 43.3190 64.8116 0.0000 0.0000 0.0000
# 2 43.3190 109.7523 41.5572 0.0000 0.0000 0.0000
# 3 64.8116 41.5572 82.8990 0.0000 0.0000 0.0000
# 4 0.0000 0.0000 0.0000 28.9537 0.0000 0.0000
# 5 0.0000 0.0000 0.0000 0.0000 -21.4791 0.0000
# 6 0.0000 0.0000 0.0000 0.0000 0.0000 31.6888
#
#
#
# Elastic Compliance Matrix: (Units=1/GPa)
#
#
# Indices 1 2 3 4 5 6 
#
# 1 0.016913 -0.002060 -0.012190 0.000000 0.000000 0.000000
# 2 -0.002060 0.011497 -0.004153 0.000000 0.000000 0.000000
# 3 -0.012190 -0.004153 0.023675 0.000000 0.000000 0.000000
# 4 0.000000 0.000000 0.000000 0.034538 0.000000 0.000000
# 5 0.000000 0.000000 0.000000 0.000000 -0.046557 0.000000
# 6 0.000000 0.000000 0.000000 0.000000 0.000000 0.031557
#
#
# Mechanical properties :
#
#
# Convention : Reuss Voigt Hill
#
# Bulk Modulus (GPa) = 65.44892 67.01596 66.23244
# Shear Modulus (GPa) = 44.04457 18.10471 31.07464
#
# Velocity S-wave (km/s) = 4.77531 3.06162 4.01106
# Velocity P-wave (km/s) = 8.01813 6.86985 7.46610
#
# Compressibility (1/GPa) = 0.01527909
#
# Stress axis : x y z
#
# Youngs Moduli (GPa) = 59.12725 86.97966 42.23831
#
# Poissons Ratio (x) = 0.17915 0.51489
# Poissons Ratio (y) = 0.12178 0.17542
# Poissons Ratio (z) = 0.72076 0.36124
#
# Static dielectric constant tensor:
#      x y z
#    x 3.492230 0.000000 0.000000 
#    y 0.000000 3.807500 0.000000 
#    z 0.000000 0.000000 3.678210 
# 
# 
# High freq. dielectric constant tensor:
#      x y z
#    x 1.748290 0.000000 0.000000 
#    y 0.000000 1.776040 0.000000 
#    z 0.000000 0.000000 1.716050 
# 
# From -- ./inp_files/52982.got.cif
#   From: 2010.03.12/outbox.cif.g09.slc.cpg/sg66_27_cif.got.tgz:52982.got - 2010.04.10 21:57:39.
