data_PCOD8276559
_publ_section_title
;
Structure prediction by ZEFSAII (Michael W. Deem and Ramdas Pophale) SiO2 
 PCOD8276559
Probable space group: C C C M
;
_chemical_formula_sum "Si O2"
_cell_formula_units_Z 116
_cell_length_a 26.057064
_cell_length_b 24.250848
_cell_length_c 9.138619
_cell_angle_alpha 90.000000
_cell_angle_beta 90.000000
_cell_angle_gamma 90.000000
_cell_volume 5774.747249
_symmetry_space_group_name_H-M "C C C M"
_symmetry_group_IT_number 66
_symmetry_cell_setting 'orthorhombic'
loop_
_space_group_symop_operation_xyz
x,y,z
-x,-y,z
x,-y,1/2-z
-x,y,1/2-z
-x,-y,-z
x,y,-z
-x,y,1/2+z
x,-y,1/2+z
1/2+x,1/2+y,z
1/2-x,1/2-y,z
1/2+x,1/2-y,1/2-z
1/2-x,1/2+y,1/2-z
1/2-x,1/2-y,-z
1/2+x,1/2+y,-z
1/2-x,1/2+y,1/2+z
1/2+x,1/2-y,1/2+z
loop_
_atom_site_type_symbol
_atom_site_label
_atom_site_fract_x
_atom_site_fract_y
_atom_site_fract_z
Si Si1 0.307281 0.759102 0.165188
Si Si2 0.857853 0.140532 0.164830
Si Si3 0.172661 0.444277 0.834221
Si Si4 0.000000 0.500000 0.750000
Si Si5 0.923669 0.595932 0.666392
Si Si6 0.713908 0.557599 0.167493
Si Si7 0.899597 0.305354 0.666794
Si Si8 0.447567 0.685372 0.666264
O O1 0.250000 0.750000 0.232135
O O2 0.334026 0.700524 0.162024
O O3 0.342547 0.800997 0.260287
O O4 0.302911 0.783225 0.000000
O O5 0.821213 0.100246 0.250729
O O6 0.911020 0.142127 0.252165
O O7 0.866961 0.118862 0.000000
O O8 0.179039 0.500000 0.750000
O O9 0.129639 0.410690 0.751019
O O10 0.228625 0.416223 0.829642
O O11 0.154047 0.455338 0.000000
O O12 0.962302 0.542910 0.666609
O O13 0.912528 0.610105 0.500000
O O14 0.939767 0.652572 0.748978
O O15 0.710641 0.500000 0.250000
O O16 0.696092 0.549234 0.000000
O O17 0.891983 0.326137 0.500000
O O18 0.926081 0.246760 0.671911
O O19 0.500000 0.683902 0.750000
O O20 0.454845 0.665763 0.500000
#
# Coordination Sequence:
#
# PCOD8276559 Si02
#       8
#    16  16  16   4  16  16  16  16
#     4   9  19  36  57  87 122 159 200 243 300 368
#     4  10  20  35  58  88 123 160 200 245 296 358
#     4  10  21  38  59  84 114 150 195 243 296 358
#     4  12  30  48  64  90 114 156 214 276 334 384
#     4  12  26  43  64  84 113 153 200 259 319 375
#     4  10  21  37  59  89 124 161 201 245 293 353
#     4  10  23  40  59  87 119 154 200 250 304 369
#     4  10  21  39  62  88 119 156 198 247 299 357
#
# _framework density 20.08746
#
# number of rings (size 3 to 8) (size 9 to 14) (size 15 to 20)
#    0.000    1.793    0.690    2.690    2.897    5.793 
#    0.000    0.000    0.000    0.414    0.000    2.897 
#    0.000    0.000    0.000    0.000    0.000    0.000 
#
# Total GULP energy -718679.180169 kJ/mol
# GULP energy per Si atom -12391.020348 kJ/mol
# Density = 2.004174 g / cm^3
# Si number density = 20.087460 Si / 1000 Ang^3
#
#
#
# Elastic Constant Matrix: (Units=GPa)
#
#
# Indices 1 2 3 4 5 6 
#
# 1 97.8563 17.5100 67.7541 0.0000 0.0000 0.0000
# 2 17.5100 48.2550 44.4038 0.0000 0.0000 0.0000
# 3 67.7541 44.4038 191.6622 0.0000 0.0000 0.0000
# 4 0.0000 0.0000 0.0000 10.8621 0.0000 0.0000
# 5 0.0000 0.0000 0.0000 0.0000 26.1467 0.0000
# 6 0.0000 0.0000 0.0000 0.0000 0.0000 0.3771
#
#
#
# Elastic Compliance Matrix: (Units=1/GPa)
#
#
# Indices 1 2 3 4 5 6 
#
# 1 0.013547 -0.000647 -0.004639 0.000000 0.000000 0.000000
# 2 -0.000647 0.026369 -0.005880 0.000000 0.000000 0.000000
# 3 -0.004639 -0.005880 0.008220 0.000000 0.000000 0.000000
# 4 0.000000 0.000000 0.000000 0.092063 0.000000 0.000000
# 5 0.000000 0.000000 0.000000 0.000000 0.038246 0.000000
# 6 0.000000 0.000000 0.000000 0.000000 0.000000 2.651823
#
#
# Mechanical properties :
#
#
# Convention : Reuss Voigt Hill
#
# Bulk Modulus (GPa) = 38.75513 66.34547 52.55030
# Shear Modulus (GPa) = 1.74752 21.35088 11.54920
#
# Velocity S-wave (km/s) = 0.93373 3.26375 2.40040
# Velocity P-wave (km/s) = 4.52742 6.87770 5.82238
#
# Compressibility (1/GPa) = 0.02580303
#
# Stress axis : x y z
#
# Youngs Moduli (GPa) = 73.81808 37.92319 121.65710
#
# Poissons Ratio (x) = 0.02453 0.56437
# Poissons Ratio (y) = 0.04775 0.71540
# Poissons Ratio (z) = 0.34245 0.22301
#
# Static dielectric constant tensor:
#      x y z
#    x 3.836200 0.000000 0.000000 
#    y 0.000000 2.891630 0.000000 
#    z 0.000000 0.000000 3.925060 
# 
# 
# High freq. dielectric constant tensor:
#      x y z
#    x 1.782660 0.000000 0.000000 
#    y 0.000000 1.769630 0.000000 
#    z 0.000000 0.000000 1.798680 
# 
# From -- ./inp_files/10618.got.cif
#   From: 2010.03.12/outbox.cif.g09.slc.cpg/sg66_6_cif.got.tgz:10618.got - 2010.04.10 21:57:39.
