data_PCOD8276992
_publ_section_title
;
Structure prediction by ZEFSAII (Michael W. Deem and Ramdas Pophale) SiO2 
 PCOD8276992
Probable space group: C C C M
;
_chemical_formula_sum "Si O2"
_cell_formula_units_Z 80
_cell_length_a 14.325061
_cell_length_b 11.196928
_cell_length_c 23.375148
_cell_angle_alpha 90.000000
_cell_angle_beta 90.000000
_cell_angle_gamma 90.000000
_cell_volume 3749.296055
_symmetry_space_group_name_H-M "C C C M"
_symmetry_group_IT_number 66
_symmetry_cell_setting 'orthorhombic'
loop_
_space_group_symop_operation_xyz
x,y,z
-x,-y,z
x,-y,1/2-z
-x,y,1/2-z
-x,-y,-z
x,y,-z
-x,y,1/2+z
x,-y,1/2+z
1/2+x,1/2+y,z
1/2-x,1/2-y,z
1/2+x,1/2-y,1/2-z
1/2-x,1/2+y,1/2-z
1/2-x,1/2-y,-z
1/2+x,1/2+y,-z
1/2-x,1/2+y,1/2+z
1/2+x,1/2-y,1/2+z
loop_
_atom_site_type_symbol
_atom_site_label
_atom_site_fract_x
_atom_site_fract_y
_atom_site_fract_z
Si Si1 0.393544 0.874120 0.266939
Si Si2 0.610927 0.180548 0.500000
Si Si3 0.296504 0.438660 0.000000
Si Si4 0.104754 0.980171 0.610673
Si Si5 0.349814 0.712907 0.832217
Si Si6 0.952555 0.721032 0.878660
O O1 0.500000 0.877892 0.250000
O O2 0.347695 0.761318 0.233448
O O3 0.392935 0.862616 0.335740
O O4 0.343784 0.000000 0.250000
O O5 0.658064 0.308826 0.500000
O O6 0.685214 0.073390 0.500000
O O7 0.549655 0.168871 0.557319
O O8 0.327981 0.508235 0.942999
O O9 0.105972 0.843517 0.630770
O O10 0.134949 0.069206 0.662540
O O11 0.000000 0.000000 0.588446
O O12 0.250000 0.750000 0.860176
O O13 0.437411 0.772983 0.864678
#
# Coordination Sequence:
#
# PCOD8276992 Si02
#       6
#    16   8   8  16  16  16
#     4   9  19  38  60  78 110 157 191 234 295 355
#     4   9  18  34  58  91 113 153 204 244 288 347
#     4   9  17  32  54  87 120 149 200 243 282 344
#     4   9  18  34  58  84 119 156 188 239 298 352
#     4  10  21  37  55  87 119 152 195 239 297 366
#     4   9  19  38  63  84 116 154 197 247 299 349
#
# _framework density 21.337337000000002
#
# number of rings (size 3 to 8) (size 9 to 14) (size 15 to 20)
#    0.000    2.800    0.000    0.300    0.000    4.800 
#   10.800    6.000    0.000   12.000    0.000    0.000 
#    0.000    0.000    0.000    0.000    0.000    0.000 
#
# Total GULP energy -495525.179535 kJ/mol
# GULP energy per Si atom -12388.129488 kJ/mol
# Density = 2.128877 g / cm^3
# Si number density = 21.337337 Si / 1000 Ang^3
#
#
#
# Elastic Constant Matrix: (Units=GPa)
#
#
# Indices 1 2 3 4 5 6 
#
# 1 94.6975 27.4882 45.9801 0.0000 0.0000 0.0000
# 2 27.4882 92.3315 59.4585 0.0000 0.0000 0.0000
# 3 45.9801 59.4585 169.1605 0.0000 0.0000 0.0000
# 4 0.0000 0.0000 0.0000 23.7849 0.0000 0.0000
# 5 0.0000 0.0000 0.0000 0.0000 16.2120 0.0000
# 6 0.0000 0.0000 0.0000 0.0000 0.0000 16.8967
#
#
#
# Elastic Compliance Matrix: (Units=1/GPa)
#
#
# Indices 1 2 3 4 5 6 
#
# 1 0.012437 -0.001972 -0.002687 0.000000 0.000000 0.000000
# 2 -0.001972 0.014312 -0.004494 0.000000 0.000000 0.000000
# 3 -0.002687 -0.004494 0.008222 0.000000 0.000000 0.000000
# 4 0.000000 0.000000 0.000000 0.042043 0.000000 0.000000
# 5 0.000000 0.000000 0.000000 0.000000 0.061683 0.000000
# 6 0.000000 0.000000 0.000000 0.000000 0.000000 0.059183
#
#
# Mechanical properties :
#
#
# Convention : Reuss Voigt Hill
#
# Bulk Modulus (GPa) = 60.01332 69.11590 64.56461
# Shear Modulus (GPa) = 22.54867 26.26291 24.40579
#
# Velocity S-wave (km/s) = 3.25433 3.51214 3.38569
# Velocity P-wave (km/s) = 6.50445 6.99351 6.75341
#
# Compressibility (1/GPa) = 0.01666297
#
# Stress axis : x y z
#
# Youngs Moduli (GPa) = 80.40351 69.87158 121.62779
#
# Poissons Ratio (x) = 0.13779 0.32687
# Poissons Ratio (y) = 0.15856 0.54666
# Poissons Ratio (z) = 0.21608 0.31404
#
# Static dielectric constant tensor:
#      x y z
#    x 3.786980 0.000000 0.000000 
#    y 0.000000 4.443940 0.000000 
#    z 0.000000 0.000000 3.956190 
# 
# 
# High freq. dielectric constant tensor:
#      x y z
#    x 1.826680 0.000000 0.000000 
#    y 0.000000 1.819240 0.000000 
#    z 0.000000 0.000000 1.825080 
# 
# From -- ./inp_files/57952.got.cif
#   From: 2010.03.12/outbox.cif.g09.slc.cpg/sg66_29_cif.got.tgz:57952.got - 2010.04.10 21:57:39.
