data_PCOD8276672
_publ_section_title
;
Structure prediction by ZEFSAII (Michael W. Deem and Ramdas Pophale) SiO2 
 PCOD8276672
Probable space group: C C C M
;
_chemical_formula_sum "Si O2"
_cell_formula_units_Z 88
_cell_length_a 21.831684
_cell_length_b 12.312769
_cell_length_c 14.494414
_cell_angle_alpha 90.000000
_cell_angle_beta 90.000000
_cell_angle_gamma 90.000000
_cell_volume 3896.221424
_symmetry_space_group_name_H-M "C C C M"
_symmetry_group_IT_number 66
_symmetry_cell_setting 'orthorhombic'
loop_
_space_group_symop_operation_xyz
x,y,z
-x,-y,z
x,-y,1/2-z
-x,y,1/2-z
-x,-y,-z
x,y,-z
-x,y,1/2+z
x,-y,1/2+z
1/2+x,1/2+y,z
1/2-x,1/2-y,z
1/2+x,1/2-y,1/2-z
1/2-x,1/2+y,1/2-z
1/2-x,1/2-y,-z
1/2+x,1/2+y,-z
1/2-x,1/2+y,1/2+z
1/2+x,1/2-y,1/2+z
loop_
_atom_site_type_symbol
_atom_site_label
_atom_site_fract_x
_atom_site_fract_y
_atom_site_fract_z
Si Si1 0.679787 0.383472 0.606683
Si Si2 0.273541 0.924427 0.899420
Si Si3 0.250000 0.750000 0.253408
Si Si4 0.959044 0.096866 0.391379
Si Si5 0.901189 0.512663 0.648519
Si Si6 0.994378 0.668786 0.105373
O O1 0.683063 0.342069 0.500000
O O2 0.727365 0.479284 0.625560
O O3 0.695255 0.287096 0.678420
O O4 0.611972 0.425987 0.630919
O O5 0.274272 0.842181 0.814743
O O6 0.342590 0.966634 0.914997
O O7 0.254026 0.874788 0.000000
O O8 0.969643 0.100909 0.500000
O O9 0.980556 0.213172 0.350435
O O10 0.000000 0.000000 0.347569
O O11 0.874379 0.500000 0.750000
O O12 0.948694 0.613303 0.656686
O O13 0.934067 0.405388 0.610663
O O14 0.014570 0.679872 0.000000
#
# Coordination Sequence:
#
# PCOD8276672 Si02
#       6
#    16  16   8  16  16  16
#     4  10  23  42  67 101 135 176 223 273 338 405
#     4  11  25  44  67  93 130 178 227 283 343 407
#     4  12  24  42  66  98 134 170 224 286 342 404
#     4   9  20  39  65  95 130 176 222 265 317 393
#     4  11  22  38  61  94 130 166 213 275 339 394
#     4  10  20  36  61  91 129 169 216 264 323 403
#
# _framework density 22.585985999999998
#
# number of rings (size 3 to 8) (size 9 to 14) (size 15 to 20)
#    0.000    1.636    0.000    5.455    5.091    1.455 
#    0.000    3.636    0.000    0.000    0.000    0.000 
#    0.000    0.727    0.000    0.000    0.000    0.000 
#
# Total GULP energy -545493.979795 kJ/mol
# GULP energy per Si atom -12397.590450 kJ/mol
# Density = 2.253458 g / cm^3
# Si number density = 22.585986 Si / 1000 Ang^3
#
#
#
# Elastic Constant Matrix: (Units=GPa)
#
#
# Indices 1 2 3 4 5 6 
#
# 1 144.6706 70.6043 24.5535 0.0000 0.0000 0.0000
# 2 70.6043 150.7725 33.4758 0.0000 0.0000 0.0000
# 3 24.5535 33.4758 116.5444 0.0000 0.0000 0.0000
# 4 0.0000 0.0000 0.0000 48.5463 0.0000 0.0000
# 5 0.0000 0.0000 0.0000 0.0000 25.3602 0.0000
# 6 0.0000 0.0000 0.0000 0.0000 0.0000 28.5561
#
#
#
# Elastic Compliance Matrix: (Units=1/GPa)
#
#
# Indices 1 2 3 4 5 6 
#
# 1 0.009018 -0.004060 -0.000734 0.000000 0.000000 0.000000
# 2 -0.004060 0.008912 -0.001705 0.000000 0.000000 0.000000
# 3 -0.000734 -0.001705 0.009225 0.000000 0.000000 0.000000
# 4 0.000000 0.000000 0.000000 0.020599 0.000000 0.000000
# 5 0.000000 0.000000 0.000000 0.000000 0.039432 0.000000
# 6 0.000000 0.000000 0.000000 0.000000 0.000000 0.035019
#
#
# Mechanical properties :
#
#
# Convention : Reuss Voigt Hill
#
# Bulk Modulus (GPa) = 70.63018 74.36163 72.49590
# Shear Modulus (GPa) = 35.73440 39.38276 37.55858
#
# Velocity S-wave (km/s) = 3.98194 4.18027 4.08231
# Velocity P-wave (km/s) = 7.24436 7.50299 7.37481
#
# Compressibility (1/GPa) = 0.01415825
#
# Stress axis : x y z
#
# Youngs Moduli (GPa) = 110.88551 112.20452 108.40564
#
# Poissons Ratio (x) = 0.45557 0.07954
# Poissons Ratio (y) = 0.45022 0.18478
# Poissons Ratio (z) = 0.08136 0.19126
#
# Static dielectric constant tensor:
#      x y z
#    x 3.946970 0.000000 0.000000 
#    y 0.000000 4.210710 0.000000 
#    z 0.000000 0.000000 4.047300 
# 
# 
# High freq. dielectric constant tensor:
#      x y z
#    x 1.889810 0.000000 0.000000 
#    y 0.000000 1.880480 0.000000 
#    z 0.000000 0.000000 1.900900 
# 
# From -- ./inp_files/32230.got.cif
#   From: 2010.03.12/outbox.cif.g09.slc.cpg/sg66_17_cif.got.tgz:32230.got - 2010.04.10 21:57:39.
