data_PCOD8276151
_publ_section_title
;
Structure prediction by ZEFSAII (Michael W. Deem and Ramdas Pophale) SiO2 
 PCOD8276151
Probable space group: C C C M
;
_chemical_formula_sum "Si O2"
_cell_formula_units_Z 88
_cell_length_a 21.579424
_cell_length_b 12.861086
_cell_length_c 15.552447
_cell_angle_alpha 90.000000
_cell_angle_beta 90.000000
_cell_angle_gamma 90.000000
_cell_volume 4316.345701
_symmetry_space_group_name_H-M "C C C M"
_symmetry_group_IT_number 66
_symmetry_cell_setting 'orthorhombic'
loop_
_space_group_symop_operation_xyz
x,y,z
-x,-y,z
x,-y,1/2-z
-x,y,1/2-z
-x,-y,-z
x,y,-z
-x,y,1/2+z
x,-y,1/2+z
1/2+x,1/2+y,z
1/2-x,1/2-y,z
1/2+x,1/2-y,1/2-z
1/2-x,1/2+y,1/2-z
1/2-x,1/2-y,-z
1/2+x,1/2+y,-z
1/2-x,1/2+y,1/2+z
1/2+x,1/2-y,1/2+z
loop_
_atom_site_type_symbol
_atom_site_label
_atom_site_fract_x
_atom_site_fract_y
_atom_site_fract_z
Si Si1 0.065061 0.462312 0.846938
Si Si2 0.857611 0.115603 0.741049
Si Si3 0.074175 0.813482 0.905129
Si Si4 0.568393 0.273053 0.598886
Si Si5 0.658182 0.121734 0.094922
Si Si6 0.250000 0.250000 0.704322
O O1 0.061777 0.500000 0.750000
O O2 0.073004 0.338699 0.855087
O O3 0.128589 0.509424 0.885288
O O4 0.000000 0.500000 0.892122
O O5 0.899347 0.120538 0.826861
O O6 0.894658 0.140869 0.653825
O O7 0.800624 0.194853 0.737161
O O8 0.831057 0.000000 0.750000
O O9 0.099705 0.697478 0.894439
O O10 0.001103 0.812611 0.898772
O O11 0.093962 0.857678 0.000000
O O12 0.592544 0.267677 0.500000
O O13 0.716806 0.158644 0.150286
O O14 0.685828 0.119793 0.000000
#
# Coordination Sequence:
#
# PCOD8276151 Si02
#       6
#    16  16  16  16  16   8
#     4  11  21  32  59  96 134 172 208 254 329 397
#     4  11  25  43  64  86 120 167 215 268 328 389
#     4   9  19  36  62  92 124 156 203 260 317 386
#     4  11  23  39  61  96 136 168 206 265 333 399
#     4  10  19  35  59  89 122 160 206 263 320 379
#     4  10  23  42  63  86 116 162 226 274 310 382
#
# _framework density 20.387616000000001
#
# number of rings (size 3 to 8) (size 9 to 14) (size 15 to 20)
#    0.000    1.636    1.818    3.545    2.545    5.818 
#    0.000    2.273    0.000    0.000    0.000    0.000 
#    0.000    0.000    0.000    0.000    0.000    0.000 
#
# Total GULP energy -545318.367892 kJ/mol
# GULP energy per Si atom -12393.599270 kJ/mol
# Density = 2.034121 g / cm^3
# Si number density = 20.387616 Si / 1000 Ang^3
#
#
#
# Elastic Constant Matrix: (Units=GPa)
#
#
# Indices 1 2 3 4 5 6 
#
# 1 87.4563 13.8326 33.2080 0.0000 0.0000 0.0000
# 2 13.8326 78.6025 26.5262 0.0000 0.0000 0.0000
# 3 33.2080 26.5262 122.1414 0.0000 0.0000 0.0000
# 4 0.0000 0.0000 0.0000 22.2701 0.0000 0.0000
# 5 0.0000 0.0000 0.0000 0.0000 66.0580 0.0000
# 6 0.0000 0.0000 0.0000 0.0000 0.0000 24.6566
#
#
#
# Elastic Compliance Matrix: (Units=1/GPa)
#
#
# Indices 1 2 3 4 5 6 
#
# 1 0.012849 -0.001168 -0.003240 0.000000 0.000000 0.000000
# 2 -0.001168 0.013835 -0.002687 0.000000 0.000000 0.000000
# 3 -0.003240 -0.002687 0.009652 0.000000 0.000000 0.000000
# 4 0.000000 0.000000 0.000000 0.044903 0.000000 0.000000
# 5 0.000000 0.000000 0.000000 0.000000 0.015138 0.000000
# 6 0.000000 0.000000 0.000000 0.000000 0.000000 0.040557
#
#
# Mechanical properties :
#
#
# Convention : Reuss Voigt Hill
#
# Bulk Modulus (GPa) = 45.15494 48.37041 46.76267
# Shear Modulus (GPa) = 31.54465 36.90581 34.22523
#
# Velocity S-wave (km/s) = 3.93777 4.25927 4.10167
# Velocity P-wave (km/s) = 6.54760 6.92570 6.73930
#
# Compressibility (1/GPa) = 0.02214597
#
# Stress axis : x y z
#
# Youngs Moduli (GPa) = 77.82589 72.28278 103.60944
#
# Poissons Ratio (x) = 0.08442 0.33568
# Poissons Ratio (y) = 0.09089 0.27840
# Poissons Ratio (z) = 0.25214 0.19422
#
# Static dielectric constant tensor:
#      x y z
#    x 3.713900 0.000000 0.000000 
#    y 0.000000 3.558110 0.000000 
#    z 0.000000 0.000000 3.931820 
# 
# 
# High freq. dielectric constant tensor:
#      x y z
#    x 1.789610 0.000000 0.000000 
#    y 0.000000 1.783320 0.000000 
#    z 0.000000 0.000000 1.801160 
# 
# From -- ./inp_files/32216.got.cif
#   From: 2010.03.12/outbox.cif.g09.slc.cpg/sg66_17_cif.got.tgz:32216.got - 2010.04.10 21:57:39.
