data_PCOD8276335
_publ_section_title
;
Structure prediction by ZEFSAII (Michael W. Deem and Ramdas Pophale) SiO2 
 PCOD8276335
Probable space group: C C C M
;
_chemical_formula_sum "Si O2"
_cell_formula_units_Z 80
_cell_length_a 33.706228
_cell_length_b 13.272955
_cell_length_c 10.147676
_cell_angle_alpha 90.000000
_cell_angle_beta 90.000000
_cell_angle_gamma 90.000000
_cell_volume 4539.879948
_symmetry_space_group_name_H-M "C C C M"
_symmetry_group_IT_number 66
_symmetry_cell_setting 'orthorhombic'
loop_
_space_group_symop_operation_xyz
x,y,z
-x,-y,z
x,-y,1/2-z
-x,y,1/2-z
-x,-y,-z
x,y,-z
-x,y,1/2+z
x,-y,1/2+z
1/2+x,1/2+y,z
1/2-x,1/2-y,z
1/2+x,1/2-y,1/2-z
1/2-x,1/2+y,1/2-z
1/2-x,1/2-y,-z
1/2+x,1/2+y,-z
1/2-x,1/2+y,1/2+z
1/2+x,1/2-y,1/2+z
loop_
_atom_site_type_symbol
_atom_site_label
_atom_site_fract_x
_atom_site_fract_y
_atom_site_fract_z
Si Si1 0.771522 0.407414 0.657350
Si Si2 0.113119 0.093535 0.846506
Si Si3 0.692480 0.299638 0.654658
Si Si4 0.958600 0.439737 0.359890
Si Si5 0.031947 0.791381 0.649754
O O1 0.784311 0.500000 0.750000
O O2 0.774009 0.433168 0.500000
O O3 0.727326 0.374183 0.702534
O O4 0.800881 0.315917 0.698329
O O5 0.150079 0.160328 0.796224
O O6 0.074232 0.159527 0.826664
O O7 0.109692 0.000000 0.750000
O O8 0.117946 0.060217 0.000000
O O9 0.694752 0.300067 0.500000
O O10 0.932761 0.500000 0.250000
O O11 0.935992 0.442351 0.500000
O O12 0.964904 0.325924 0.315601
O O13 0.000000 0.500000 0.372467
O O14 0.017120 0.808246 0.500000
O O15 0.000000 0.840362 0.750000
#
# Coordination Sequence:
#
# PCOD8276335 Si02
#       5
#    16  16  16  16  16
#     4   9  16  29  52  78 104 135 168 203 244 292
#     4  10  21  37  54  72  97 130 168 208 251 297
#     4   8  16  32  52  73 101 138 171 199 243 302
#     4   9  15  26  46  69  90 114 148 190 233 282
#     4  10  20  33  51  73  97 126 162 207 252 294
#
# _framework density 17.621611000000001
#
# number of rings (size 3 to 8) (size 9 to 14) (size 15 to 20)
#    0.000    2.800    2.000    1.800    0.000    1.200 
#    0.000    6.000    0.000    0.000    0.000    0.000 
#    0.000    0.000    0.000    0.000    0.000    0.000 
#
# Total GULP energy -495528.451377 kJ/mol
# GULP energy per Si atom -12388.211284 kJ/mol
# Density = 1.758150 g / cm^3
# Si number density = 17.621611 Si / 1000 Ang^3
#
#
#
# Elastic Constant Matrix: (Units=GPa)
#
#
# Indices 1 2 3 4 5 6 
#
# 1 88.5440 48.2617 40.3857 0.0000 0.0000 0.0000
# 2 48.2617 118.4542 52.5908 0.0000 0.0000 0.0000
# 3 40.3857 52.5908 94.0643 0.0000 0.0000 0.0000
# 4 0.0000 0.0000 0.0000-5331.7456 0.0000 0.0000
# 5 0.0000 0.0000 0.0000 0.0000 -5.2456 0.0000
# 6 0.0000 0.0000 0.0000 0.0000 0.0000 20.5889
#
#
#
# Elastic Compliance Matrix: (Units=1/GPa)
#
#
# Indices 1 2 3 4 5 6 
#
# 1 0.015674 -0.004521 -0.004202 0.000000 0.000000 0.000000
# 2 -0.004521 0.012533 -0.005066 0.000000 0.000000 0.000000
# 3 -0.004202 -0.005066 0.015268 0.000000 0.000000 0.000000
# 4 0.000000 0.000000 0.000000 -0.000188 0.000000 0.000000
# 5 0.000000 0.000000 0.000000 0.000000 -0.190637 0.000000
# 6 0.000000 0.000000 0.000000 0.000000 0.000000 0.048570
#
#
# Mechanical properties :
#
#
# Convention : Reuss Voigt Hill
#
# Bulk Modulus (GPa) = 62.90458 64.83765 63.87112
# Shear Modulus (GPa) = -75.87060 -1052.62550 -564.24805
#
# Velocity S-wave (km/s) = -6.56878 -24.46724 -17.91361
# Velocity P-wave (km/s) = 4.66444 27.59203 19.78734
#
# Compressibility (1/GPa) = 0.01589709
#
# Stress axis : x y z
#
# Youngs Moduli (GPa) = 63.79803 79.78782 65.49705
#
# Poissons Ratio (x) = 0.36068 0.27524
# Poissons Ratio (y) = 0.28840 0.33184
# Poissons Ratio (z) = 0.26810 0.40424
#
# Static dielectric constant tensor:
#      x y z
#    x 4.271650 0.000000 0.000000 
#    y 0.000000 3.545570 0.000000 
#    z 0.000000 0.000000 4.691060 
# 
# 
# High freq. dielectric constant tensor:
#      x y z
#    x 1.655630 0.000000 0.000000 
#    y 0.000000 1.683870 0.000000 
#    z 0.000000 0.000000 1.676320 
# 
# From -- ./inp_files/21247.got.cif
#   From: 2010.03.12/outbox.cif.g09.slc.cpg/sg66_11_cif.got.tgz:21247.got - 2010.04.10 21:57:39.
