data_PCOD8276888
_publ_section_title
;
Structure prediction by ZEFSAII (Michael W. Deem and Ramdas Pophale) SiO2 
 PCOD8276888
Probable space group: C C C M
;
_chemical_formula_sum "Si O2"
_cell_formula_units_Z 112
_cell_length_a 21.397243
_cell_length_b 13.646306
_cell_length_c 20.452025
_cell_angle_alpha 90.000000
_cell_angle_beta 90.000000
_cell_angle_gamma 90.000000
_cell_volume 5971.854794
_symmetry_space_group_name_H-M "C C C M"
_symmetry_group_IT_number 66
_symmetry_cell_setting 'orthorhombic'
loop_
_space_group_symop_operation_xyz
x,y,z
-x,-y,z
x,-y,1/2-z
-x,y,1/2-z
-x,-y,-z
x,y,-z
-x,y,1/2+z
x,-y,1/2+z
1/2+x,1/2+y,z
1/2-x,1/2-y,z
1/2+x,1/2-y,1/2-z
1/2-x,1/2+y,1/2-z
1/2-x,1/2-y,-z
1/2+x,1/2+y,-z
1/2-x,1/2+y,1/2+z
1/2+x,1/2-y,1/2+z
loop_
_atom_site_type_symbol
_atom_site_label
_atom_site_fract_x
_atom_site_fract_y
_atom_site_fract_z
Si Si1 0.948053 0.423482 0.348809
Si Si2 0.640472 0.943369 0.428975
Si Si3 0.106964 0.298773 0.732171
Si Si4 0.361673 0.415098 0.297761
Si Si5 0.554918 0.424151 0.925904
Si Si6 0.958779 0.705003 0.598982
Si Si7 0.729520 0.858875 0.335414
O O1 0.890207 0.481279 0.378819
O O2 0.921657 0.349619 0.295048
O O3 0.000000 0.500000 0.320747
O O4 0.978186 0.359422 0.408060
O O5 0.650037 0.991923 0.500000
O O6 0.598710 0.845007 0.438757
O O7 0.708067 0.913312 0.401400
O O8 0.120395 0.183568 0.740989
O O9 0.055316 0.303046 0.676045
O O10 0.171001 0.355471 0.714351
O O11 0.385222 0.500000 0.250000
O O12 0.391521 0.427756 0.370310
O O13 0.286834 0.419052 0.305064
O O14 0.500000 0.500000 0.907499
O O15 0.527901 0.313814 0.926511
O O16 0.580052 0.447233 0.000000
O O17 0.750000 0.750000 0.355295
#
# Coordination Sequence:
#
# PCOD8276888 Si02
#       7
#    16  16  16  16  16  16  16
#     4  10  21  33  54  84 117 152 182 226 287 346
#     4  10  21  34  53  83 113 148 189 230 282 341
#     4   9  19  35  53  81 113 141 186 235 285 340
#     4  10  22  37  59  85 109 147 195 242 286 328
#     4  10  22  39  58  82 113 151 189 232 286 340
#     4   9  19  33  54  80 111 147 186 229 281 338
#     4   9  20  36  54  80 108 140 184 237 290 335
#
# _framework density 18.754642
#
# number of rings (size 3 to 8) (size 9 to 14) (size 15 to 20)
#    0.000    2.429    0.000    1.714    4.000   11.714 
#    0.000    0.000    0.000    0.000    0.000    1.000 
#    0.000    0.000    0.000    0.000    0.000    0.000 
#
# Total GULP energy -693992.451457 kJ/mol
# GULP energy per Si atom -12392.722347 kJ/mol
# Density = 1.871196 g / cm^3
# Si number density = 18.754642 Si / 1000 Ang^3
#
#
#
# Elastic Constant Matrix: (Units=GPa)
#
#
# Indices 1 2 3 4 5 6 
#
# 1 79.9846 36.7309 32.3679 0.0000 0.0000 0.0000
# 2 36.7309 95.9250 43.3032 0.0000 0.0000 0.0000
# 3 32.3679 43.3032 104.9269 0.0000 0.0000 0.0000
# 4 0.0000 0.0000 0.0000 -5.0191 0.0000 0.0000
# 5 0.0000 0.0000 0.0000 0.0000 -5.0435 0.0000
# 6 0.0000 0.0000 0.0000 0.0000 0.0000 27.9923
#
#
#
# Elastic Compliance Matrix: (Units=1/GPa)
#
#
# Indices 1 2 3 4 5 6 
#
# 1 0.015873 -0.004753 -0.002935 0.000000 0.000000 0.000000
# 2 -0.004753 0.014235 -0.004409 0.000000 0.000000 0.000000
# 3 -0.002935 -0.004409 0.012255 0.000000 0.000000 0.000000
# 4 0.000000 0.000000 0.000000 -0.199240 0.000000 0.000000
# 5 0.000000 0.000000 0.000000 0.000000 -0.198276 0.000000
# 6 0.000000 0.000000 0.000000 0.000000 0.000000 0.035724
#
#
# Mechanical properties :
#
#
# Convention : Reuss Voigt Hill
#
# Bulk Modulus (GPa) = 55.03556 56.18228 55.60892
# Shear Modulus (GPa) = -17.29032 14.81491 -1.23771
#
# Velocity S-wave (km/s) = -3.03961 2.81362 -0.81325
# Velocity P-wave (km/s) = 4.13398 6.36999 5.36966
#
# Compressibility (1/GPa) = 0.01817007
#
# Stress axis : x y z
#
# Youngs Moduli (GPa) = 63.00086 70.24977 81.59804
#
# Poissons Ratio (x) = 0.33390 0.23948
# Poissons Ratio (y) = 0.29944 0.35973
# Poissons Ratio (z) = 0.18490 0.30970
#
# Static dielectric constant tensor:
#      x y z
#    x 3.462570 0.000000 0.000000 
#    y 0.000000 3.557290 0.000000 
#    z 0.000000 0.000000 3.283440 
# 
# 
# High freq. dielectric constant tensor:
#      x y z
#    x 1.718710 0.000000 0.000000 
#    y 0.000000 1.730540 0.000000 
#    z 0.000000 0.000000 1.717270 
# 
# From -- ./inp_files/52588.got.cif
#   From: 2010.03.12/outbox.cif.g09.slc.cpg/sg66_27_cif.got.tgz:52588.got - 2010.04.10 21:57:39.
