data_PCOD8276046
_publ_section_title
;
Structure prediction by ZEFSAII (Michael W. Deem and Ramdas Pophale) SiO2 
 PCOD8276046
Probable space group: C C C M
;
_chemical_formula_sum "Si O2"
_cell_formula_units_Z 96
_cell_length_a 20.546480
_cell_length_b 27.688618
_cell_length_c 8.688342
_cell_angle_alpha 90.000000
_cell_angle_beta 90.000000
_cell_angle_gamma 90.000000
_cell_volume 4942.829354
_symmetry_space_group_name_H-M "C C C M"
_symmetry_group_IT_number 66
_symmetry_cell_setting 'orthorhombic'
loop_
_space_group_symop_operation_xyz
x,y,z
-x,-y,z
x,-y,1/2-z
-x,y,1/2-z
-x,-y,-z
x,y,-z
-x,y,1/2+z
x,-y,1/2+z
1/2+x,1/2+y,z
1/2-x,1/2-y,z
1/2+x,1/2-y,1/2-z
1/2-x,1/2+y,1/2-z
1/2-x,1/2-y,-z
1/2+x,1/2+y,-z
1/2-x,1/2+y,1/2+z
1/2+x,1/2-y,1/2+z
loop_
_atom_site_type_symbol
_atom_site_label
_atom_site_fract_x
_atom_site_fract_y
_atom_site_fract_z
Si Si1 0.811393 0.115212 0.682432
Si Si2 0.808961 0.552155 0.817050
Si Si3 0.568913 0.104655 0.818117
Si Si4 0.431615 0.215034 0.680860
Si Si5 0.432110 0.447712 0.816975
Si Si6 0.684387 0.275921 0.682382
O O1 0.809598 0.115861 0.500000
O O2 0.747195 0.088161 0.744027
O O3 0.875922 0.088138 0.740657
O O4 0.812746 0.169576 0.746601
O O5 0.792754 0.500000 0.750000
O O6 0.877712 0.570298 0.755847
O O7 0.810600 0.549482 0.000000
O O8 0.500000 0.088133 0.750000
O O9 0.583687 0.159939 0.770271
O O10 0.568251 0.097690 0.000000
O O11 0.500000 0.232239 0.750000
O O12 0.435910 0.220329 0.500000
O O13 0.376358 0.249363 0.744570
O O14 0.415836 0.500000 0.750000
O O15 0.500000 0.427863 0.750000
O O16 0.436444 0.451030 0.000000
O O17 0.676690 0.274306 0.500000
O O18 0.750000 0.250000 0.737118
#
# Coordination Sequence:
#
# PCOD8276046 Si02
#       6
#    16  16  16  16  16  16
#     4   9  20  36  55  80 110 145 184 225 269 324
#     4  11  22  38  59  83 112 146 185 229 278 329
#     4  10  21  38  59  84 113 146 184 226 274 328
#     4  10  21  37  58  84 114 147 185 230 278 330
#     4  10  19  34  54  77 106 138 177 220 266 319
#     4  10  20  36  58  82 111 148 187 226 273 328
#
# _framework density 19.422073000000001
#
# number of rings (size 3 to 8) (size 9 to 14) (size 15 to 20)
#    0.000    2.000    0.000    4.000    0.000    4.667 
#    0.000    9.167    0.000    0.000    0.000    0.000 
#    0.000    0.000    0.000    0.000    0.000    0.000 
#
# Total GULP energy -595377.360805 kJ/mol
# GULP energy per Si atom -12403.695017 kJ/mol
# Density = 1.937787 g / cm^3
# Si number density = 19.422073 Si / 1000 Ang^3
#
#
#
# Elastic Constant Matrix: (Units=GPa)
#
#
# Indices 1 2 3 4 5 6 
#
# 1 143.4808 69.7329 37.7438 0.0000 0.0000 0.0000
# 2 69.7329 109.8847 31.2863 0.0000 0.0000 0.0000
# 3 37.7438 31.2863 62.7460 0.0000 0.0000 0.0000
# 4 0.0000 0.0000 0.0000 33.8201 0.0000 0.0000
# 5 0.0000 0.0000 0.0000 0.0000 26.3836 0.0000
# 6 0.0000 0.0000 0.0000 0.0000 0.0000 45.6404
#
#
#
# Elastic Compliance Matrix: (Units=1/GPa)
#
#
# Indices 1 2 3 4 5 6 
#
# 1 0.010720 -0.005789 -0.003562 0.000000 0.000000 0.000000
# 2 -0.005789 0.013732 -0.003365 0.000000 0.000000 0.000000
# 3 -0.003562 -0.003365 0.019758 0.000000 0.000000 0.000000
# 4 0.000000 0.000000 0.000000 0.029568 0.000000 0.000000
# 5 0.000000 0.000000 0.000000 0.000000 0.037902 0.000000
# 6 0.000000 0.000000 0.000000 0.000000 0.000000 0.021910
#
#
# Mechanical properties :
#
#
# Convention : Reuss Voigt Hill
#
# Bulk Modulus (GPa) = 53.25277 65.95970 59.60623
# Shear Modulus (GPa) = 30.25142 32.99207 31.62174
#
# Velocity S-wave (km/s) = 3.95090 4.12599 4.03939
# Velocity P-wave (km/s) = 6.94917 7.53215 7.24653
#
# Compressibility (1/GPa) = 0.01877837
#
# Stress axis : x y z
#
# Youngs Moduli (GPa) = 93.28393 72.82248 50.61298
#
# Poissons Ratio (x) = 0.42155 0.18029
# Poissons Ratio (y) = 0.53999 0.17031
# Poissons Ratio (z) = 0.33228 0.24504
#
# Static dielectric constant tensor:
#      x y z
#    x 3.626540 0.000000 0.000000 
#    y 0.000000 3.742830 0.000000 
#    z 0.000000 0.000000 3.431460 
# 
# 
# High freq. dielectric constant tensor:
#      x y z
#    x 1.772670 0.000000 0.000000 
#    y 0.000000 1.760180 0.000000 
#    z 0.000000 0.000000 1.748390 
# 
# From -- ./inp_files/8026.got.cif
#   From: 2010.03.12/outbox.cif.g09.slc.cpg/sg66_5_cif.got.tgz:8026.got - 2010.04.10 21:57:39.
