data_PCOD8276232
_publ_section_title
;
Structure prediction by ZEFSAII (Michael W. Deem and Ramdas Pophale) SiO2 
 PCOD8276232
Probable space group: C C C M
;
_chemical_formula_sum "Si O2"
_cell_formula_units_Z 80
_cell_length_a 10.078662
_cell_length_b 23.827442
_cell_length_c 17.285868
_cell_angle_alpha 90.000000
_cell_angle_beta 90.000000
_cell_angle_gamma 90.000000
_cell_volume 4151.179320
_symmetry_space_group_name_H-M "C C C M"
_symmetry_group_IT_number 66
_symmetry_cell_setting 'orthorhombic'
loop_
_space_group_symop_operation_xyz
x,y,z
-x,-y,z
x,-y,1/2-z
-x,y,1/2-z
-x,-y,-z
x,y,-z
-x,y,1/2+z
x,-y,1/2+z
1/2+x,1/2+y,z
1/2-x,1/2-y,z
1/2+x,1/2-y,1/2-z
1/2-x,1/2+y,1/2-z
1/2-x,1/2-y,-z
1/2+x,1/2+y,-z
1/2-x,1/2+y,1/2+z
1/2+x,1/2-y,1/2+z
loop_
_atom_site_type_symbol
_atom_site_label
_atom_site_fract_x
_atom_site_fract_y
_atom_site_fract_z
Si Si1 0.098532 0.759115 0.411413
Si Si2 0.985007 0.344589 0.340719
Si Si3 0.201769 0.126887 0.090249
Si Si4 0.648277 0.510670 0.160121
Si Si5 0.395655 0.953458 0.909269
O O1 0.080170 0.740981 0.500000
O O2 0.250000 0.750000 0.384845
O O3 0.990396 0.721567 0.363245
O O4 0.083347 0.826701 0.400514
O O5 0.840762 0.352152 0.376834
O O6 0.000000 0.351923 0.250000
O O7 0.082533 0.390941 0.376580
O O8 0.168492 0.075411 0.143935
O O9 0.218819 0.110053 0.000000
O O10 0.500000 0.500000 0.132051
O O11 0.671374 0.500000 0.250000
O O12 0.747391 0.471701 0.111860
O O13 0.500000 0.000000 0.875563
O O14 0.413051 0.950227 0.000000
#
# Coordination Sequence:
#
# PCOD8276232 Si02
#       5
#    16  16  16  16  16
#     4   8  16  32  56  82 107 144 194 245 282 334
#     4  11  20  32  55  90 122 149 187 248 311 354
#     4  10  19  37  63  85 113 156 209 250 286 357
#     4  11  24  40  57  88 121 158 197 246 307 371
#     4  11  22  35  58  87 118 156 196 247 298 355
#
# _framework density 19.271632
#
# number of rings (size 3 to 8) (size 9 to 14) (size 15 to 20)
#    0.000    1.800    2.000    4.800    0.000    1.600 
#    3.600    0.000    0.000    0.000    0.000    4.200 
#    0.000    0.000    0.000    0.000    0.000    0.000 
#
# Total GULP energy -495543.305435 kJ/mol
# GULP energy per Si atom -12388.582636 kJ/mol
# Density = 1.922777 g / cm^3
# Si number density = 19.271632 Si / 1000 Ang^3
#
#
#
# Elastic Constant Matrix: (Units=GPa)
#
#
# Indices 1 2 3 4 5 6 
#
# 1 64.8294 38.0688 25.9427 0.0000 0.0000 0.0000
# 2 38.0688 146.5144 53.1421 0.0000 0.0000 0.0000
# 3 25.9427 53.1421 94.3981 0.0000 0.0000 0.0000
# 4 0.0000 0.0000 0.0000 33.5711 0.0000 0.0000
# 5 0.0000 0.0000 0.0000 0.0000 18.0158 0.0000
# 6 0.0000 0.0000 0.0000 0.0000 0.0000 73.8606
#
#
#
# Elastic Compliance Matrix: (Units=1/GPa)
#
#
# Indices 1 2 3 4 5 6 
#
# 1 0.018876 -0.003799 -0.003049 0.000000 0.000000 0.000000
# 2 -0.003799 0.009341 -0.004215 0.000000 0.000000 0.000000
# 3 -0.003049 -0.004215 0.013804 0.000000 0.000000 0.000000
# 4 0.000000 0.000000 0.000000 0.029788 0.000000 0.000000
# 5 0.000000 0.000000 0.000000 0.000000 0.055507 0.000000
# 6 0.000000 0.000000 0.000000 0.000000 0.000000 0.013539
#
#
# Mechanical properties :
#
#
# Convention : Reuss Voigt Hill
#
# Bulk Modulus (GPa) = 50.26066 60.00544 55.13305
# Shear Modulus (GPa) = 29.47929 37.66206 33.57068
#
# Velocity S-wave (km/s) = 3.91535 4.42551 4.17822
# Velocity P-wave (km/s) = 6.82471 7.57085 7.20744
#
# Compressibility (1/GPa) = 0.01989628
#
# Stress axis : x y z
#
# Youngs Moduli (GPa) = 52.97789 107.05578 72.44267
#
# Poissons Ratio (x) = 0.40666 0.22088
# Poissons Ratio (y) = 0.20124 0.30532
# Poissons Ratio (z) = 0.16153 0.45120
#
# Static dielectric constant tensor:
#      x y z
#    x 3.303560 0.000000 0.000000 
#    y 0.000000 4.096020 0.000000 
#    z 0.000000 0.000000 3.391700 
# 
# 
# High freq. dielectric constant tensor:
#      x y z
#    x 1.709290 0.000000 0.000000 
#    y 0.000000 1.774450 0.000000 
#    z 0.000000 0.000000 1.750760 
# 
# From -- ./inp_files/26342.got.cif
#   From: 2010.03.12/outbox.cif.g09.slc.cpg/sg66_14_cif.got.tgz:26342.got - 2010.04.10 21:57:39.
