data_PCOD8276007
_publ_section_title
;
Structure prediction by ZEFSAII (Michael W. Deem and Ramdas Pophale) SiO2 
 PCOD8276007
Probable space group: C C C M
;
_chemical_formula_sum "Si O2"
_cell_formula_units_Z 64
_cell_length_a 10.610818
_cell_length_b 16.981160
_cell_length_c 16.326794
_cell_angle_alpha 90.000000
_cell_angle_beta 90.000000
_cell_angle_gamma 90.000000
_cell_volume 2941.827021
_symmetry_space_group_name_H-M "C C C M"
_symmetry_group_IT_number 66
_symmetry_cell_setting 'orthorhombic'
loop_
_space_group_symop_operation_xyz
x,y,z
-x,-y,z
x,-y,1/2-z
-x,y,1/2-z
-x,-y,-z
x,y,-z
-x,y,1/2+z
x,-y,1/2+z
1/2+x,1/2+y,z
1/2-x,1/2-y,z
1/2+x,1/2-y,1/2-z
1/2-x,1/2+y,1/2-z
1/2-x,1/2-y,-z
1/2+x,1/2+y,-z
1/2-x,1/2+y,1/2+z
1/2+x,1/2-y,1/2+z
loop_
_atom_site_type_symbol
_atom_site_label
_atom_site_fract_x
_atom_site_fract_y
_atom_site_fract_z
Si Si1 0.123561 0.279269 0.339753
Si Si2 0.127598 0.956488 0.405909
Si Si3 0.127323 0.787083 0.343248
Si Si4 0.369361 0.965638 0.839510
O O1 0.250000 0.250000 0.386850
O O2 0.125927 0.239230 0.250792
O O3 0.117517 0.372463 0.333787
O O4 0.999728 0.246220 0.386660
O O5 0.119497 0.929608 0.500000
O O6 0.137736 0.880843 0.347928
O O7 0.249757 0.011888 0.394972
O O8 0.000000 0.000000 0.379159
O O9 0.250000 0.750000 0.387619
O O10 0.500000 0.000000 0.876958
O O11 0.346588 0.000000 0.750000
#
# Coordination Sequence:
#
# PCOD8276007 Si02
#       4
#    16  16  16  16
#     4  10  19  33  56  86 114 144 191 246 300 351
#     4  11  25  42  59  86 125 166 205 243 292 359
#     4  10  19  36  57  84 117 149 194 246 298 350
#     4  11  21  38  63  90 120 152 197 253 304 360
#
# _framework density 21.755186999999999
#
# number of rings (size 3 to 8) (size 9 to 14) (size 15 to 20)
#    0.000    1.500    0.000    9.000    0.000    3.500 
#    0.000    1.250    0.000    4.500    0.000    0.000 
#    0.000    0.000    0.000    0.000    0.000    0.000 
#
# Total GULP energy -396712.025096 kJ/mol
# GULP energy per Si atom -12397.250784 kJ/mol
# Density = 2.170567 g / cm^3
# Si number density = 21.755187 Si / 1000 Ang^3
#
#
#
# Elastic Constant Matrix: (Units=GPa)
#
#
# Indices 1 2 3 4 5 6 
#
# 1 238.9178 55.2187 22.2678 0.0000 0.0000 0.0000
# 2 55.2187 151.3550 35.7548 0.0000 0.0000 0.0000
# 3 22.2678 35.7548 27.2287 0.0000 0.0000 0.0000
# 4 0.0000 0.0000 0.0000 4.4169 0.0000 0.0000
# 5 0.0000 0.0000 0.0000 0.0000 11.4823 0.0000
# 6 0.0000 0.0000 0.0000 0.0000 0.0000 57.0540
#
#
#
# Elastic Compliance Matrix: (Units=1/GPa)
#
#
# Indices 1 2 3 4 5 6 
#
# 1 0.004668 -0.001161 -0.002292 0.000000 0.000000 0.000000
# 2 -0.001161 0.009867 -0.012007 0.000000 0.000000 0.000000
# 3 -0.002292 -0.012007 0.054367 0.000000 0.000000 0.000000
# 4 0.000000 0.000000 0.000000 0.226404 0.000000 0.000000
# 5 0.000000 0.000000 0.000000 0.000000 0.087090 0.000000
# 6 0.000000 0.000000 0.000000 0.000000 0.000000 0.017527
#
#
# Mechanical properties :
#
#
# Convention : Reuss Voigt Hill
#
# Bulk Modulus (GPa) = 26.32901 71.55378 48.94140
# Shear Modulus (GPa) = 11.27384 34.87465 23.07425
#
# Velocity S-wave (km/s) = 2.27890 4.00815 3.26027
# Velocity P-wave (km/s) = 4.36500 7.37443 6.05952
#
# Compressibility (1/GPa) = 0.03798092
#
# Stress axis : x y z
#
# Youngs Moduli (GPa) = 214.24306 101.34646 18.39341
#
# Poissons Ratio (x) = 0.11770 0.04216
# Poissons Ratio (y) = 0.24882 0.22085
# Poissons Ratio (z) = 0.49107 1.21687
#
# Static dielectric constant tensor:
#      x y z
#    x 8.360930 0.000000 0.000000 
#    y 0.000000 3.888960 0.000000 
#    z 0.000000 0.000000 3.272270 
# 
# 
# High freq. dielectric constant tensor:
#      x y z
#    x 1.899050 0.000000 0.000000 
#    y 0.000000 1.867440 0.000000 
#    z 0.000000 0.000000 1.792390 
# 
# From -- ./inp_files/37976.got.cif
#   From: 2010.03.12/outbox.cif.g09.slc.cpg/sg66_19_cif.got.tgz:37976.got - 2010.04.10 21:57:39.
