data_PCOD8276479
_publ_section_title
;
Structure prediction by ZEFSAII (Michael W. Deem and Ramdas Pophale) SiO2 
 PCOD8276479
Probable space group: C C C M
;
_chemical_formula_sum "Si O2"
_cell_formula_units_Z 64
_cell_length_a 9.955265
_cell_length_b 41.222468
_cell_length_c 8.788265
_cell_angle_alpha 90.000000
_cell_angle_beta 90.000000
_cell_angle_gamma 90.000000
_cell_volume 3606.533401
_symmetry_space_group_name_H-M "C C C M"
_symmetry_group_IT_number 66
_symmetry_cell_setting 'orthorhombic'
loop_
_space_group_symop_operation_xyz
x,y,z
-x,-y,z
x,-y,1/2-z
-x,y,1/2-z
-x,-y,-z
x,y,-z
-x,y,1/2+z
x,-y,1/2+z
1/2+x,1/2+y,z
1/2-x,1/2-y,z
1/2+x,1/2-y,1/2-z
1/2-x,1/2+y,1/2-z
1/2-x,1/2-y,-z
1/2+x,1/2+y,-z
1/2-x,1/2+y,1/2+z
1/2+x,1/2-y,1/2+z
loop_
_atom_site_type_symbol
_atom_site_label
_atom_site_fract_x
_atom_site_fract_y
_atom_site_fract_z
Si Si1 0.644897 0.897763 0.178051
Si Si2 0.857022 0.845121 0.818698
Si Si3 0.859349 0.223046 0.179113
Si Si4 0.354031 0.030927 0.177587
O O1 0.500000 0.891881 0.250000
O O2 0.749232 0.871303 0.240243
O O3 0.707650 0.933565 0.214849
O O4 0.623739 0.893725 0.000000
O O5 0.810943 0.810270 0.756099
O O6 0.000000 0.855157 0.750000
O O7 0.867098 0.844068 0.000000
O O8 0.750000 0.250000 0.217560
O O9 0.000000 0.234663 0.250000
O O10 0.877437 0.217533 0.000000
O O11 0.500000 0.031223 0.250000
O O12 0.272930 0.000000 0.250000
O O13 0.364209 0.024880 0.000000
#
# Coordination Sequence:
#
# PCOD8276479 Si02
#       4
#    16  16  16  16
#     4   9  19  32  48  72 100 127 160 202 243 285
#     4  10  20  35  53  73  98 130 164 198 239 287
#     4  10  21  36  54  76 100 128 162 198 239 287
#     4   9  15  25  41  64  93 123 155 193 238 284
#
# _framework density 17.745573
#
# number of rings (size 3 to 8) (size 9 to 14) (size 15 to 20)
#    0.000    2.500    0.000    4.500    0.000    6.000 
#    0.000    5.000    0.000    0.750    0.000    5.250 
#    0.000    0.000    0.000    0.000    0.000    0.000 
#
# Total GULP energy -396576.015082 kJ/mol
# GULP energy per Si atom -12393.000471 kJ/mol
# Density = 1.770518 g / cm^3
# Si number density = 17.745573 Si / 1000 Ang^3
#
#
#
# Elastic Constant Matrix: (Units=GPa)
#
#
# Indices 1 2 3 4 5 6 
#
# 1 89.0152 95.4747 41.9958 0.0000 0.0000 0.0000
# 2 95.4747 170.7676 62.9754 0.0000 0.0000 0.0000
# 3 41.9958 62.9754 85.9403 0.0000 0.0000 0.0000
# 4 0.0000 0.0000 0.0000 48.0585 0.0000 0.0000
# 5 0.0000 0.0000 0.0000 0.0000 16.4449 0.0000
# 6 0.0000 0.0000 0.0000 0.0000 0.0000 23.8304
#
#
#
# Elastic Compliance Matrix: (Units=1/GPa)
#
#
# Indices 1 2 3 4 5 6 
#
# 1 0.028652 -0.014876 -0.003101 0.000000 0.000000 0.000000
# 2 -0.014876 0.015748 -0.004270 0.000000 0.000000 0.000000
# 3 -0.003101 -0.004270 0.016280 0.000000 0.000000 0.000000
# 4 0.000000 0.000000 0.000000 0.020808 0.000000 0.000000
# 5 0.000000 0.000000 0.000000 0.000000 0.060809 0.000000
# 6 0.000000 0.000000 0.000000 0.000000 0.000000 0.041963
#
#
# Mechanical properties :
#
#
# Convention : Reuss Voigt Hill
#
# Bulk Modulus (GPa) = 61.77881 82.95723 72.36802
# Shear Modulus (GPa) = 21.35394 27.35191 24.35293
#
# Velocity S-wave (km/s) = 3.47268 3.93025 3.70853
# Velocity P-wave (km/s) = 7.13923 8.21251 7.69461
#
# Compressibility (1/GPa) = 0.01618678
#
# Stress axis : x y z
#
# Youngs Moduli (GPa) = 34.90168 63.50183 61.42375
#
# Poissons Ratio (x) = 0.94463 0.19045
# Poissons Ratio (y) = 0.51918 0.26230
# Poissons Ratio (z) = 0.10821 0.27118
#
# Static dielectric constant tensor:
#      x y z
#    x 3.039720 0.000000 0.000000 
#    y 0.000000 4.304020 0.000000 
#    z 0.000000 0.000000 3.394600 
# 
# 
# High freq. dielectric constant tensor:
#      x y z
#    x 1.646980 0.000000 0.000000 
#    y 0.000000 1.708500 0.000000 
#    z 0.000000 0.000000 1.699820 
# 
# From -- ./inp_files/3981.got.cif
#   From: 2010.03.12/outbox.cif.g09.slc.cpg/sg66_2_cif.got.tgz:3981.got - 2010.04.10 21:57:39.
