data_PCOD8276345
_publ_section_title
;
Structure prediction by ZEFSAII (Michael W. Deem and Ramdas Pophale) SiO2 
 PCOD8276345
Probable space group: C C C M
;
_chemical_formula_sum "Si O2"
_cell_formula_units_Z 72
_cell_length_a 12.429948
_cell_length_b 15.816741
_cell_length_c 19.339751
_cell_angle_alpha 90.000000
_cell_angle_beta 90.000000
_cell_angle_gamma 90.000000
_cell_volume 3802.219572
_symmetry_space_group_name_H-M "C C C M"
_symmetry_group_IT_number 66
_symmetry_cell_setting 'orthorhombic'
loop_
_space_group_symop_operation_xyz
x,y,z
-x,-y,z
x,-y,1/2-z
-x,y,1/2-z
-x,-y,-z
x,y,-z
-x,y,1/2+z
x,-y,1/2+z
1/2+x,1/2+y,z
1/2-x,1/2-y,z
1/2+x,1/2-y,1/2-z
1/2-x,1/2+y,1/2-z
1/2-x,1/2-y,-z
1/2+x,1/2+y,-z
1/2-x,1/2+y,1/2+z
1/2+x,1/2-y,1/2+z
loop_
_atom_site_type_symbol
_atom_site_label
_atom_site_fract_x
_atom_site_fract_y
_atom_site_fract_z
Si Si1 0.343946 0.304967 0.821274
Si Si2 0.290873 0.343592 0.578355
Si Si3 0.023711 0.906573 0.421850
Si Si4 0.000000 0.314933 0.250000
Si Si5 0.211338 0.409078 0.285693
O O1 0.250000 0.250000 0.856575
O O2 0.378303 0.374903 0.875710
O O3 0.446083 0.245610 0.806703
O O4 0.296763 0.347115 0.751492
O O5 0.254963 0.368201 0.500000
O O6 0.250000 0.250000 0.597724
O O7 0.419910 0.346315 0.583950
O O8 0.241858 0.411007 0.632883
O O9 0.066411 0.910993 0.500000
O O10 0.000000 0.000000 0.393902
O O11 0.909793 0.374619 0.216875
O O12 0.217809 0.500000 0.250000
#
# Coordination Sequence:
#
# PCOD8276345 Si02
#       5
#    16  16  16   8  16
#     4  10  20  33  52  76 103 138 177 216 262 321
#     4  10  20  35  57  82 108 142 184 226 266 315
#     4  10  20  34  52  77 109 140 174 221 270 312
#     4  10  21  36  53  76 108 138 174 222 269 314
#     4  11  21  35  56  81 108 139 177 221 270 318
#
# _framework density 18.936306999999999
#
# number of rings (size 3 to 8) (size 9 to 14) (size 15 to 20)
#    0.000    1.778    0.000    6.333    0.000    0.444 
#    0.000    2.222    0.000    5.333    0.000    0.000 
#    0.000    0.000    0.000    0.000    0.000    0.000 
#
# Total GULP energy -446377.318453 kJ/mol
# GULP energy per Si atom -12399.369957 kJ/mol
# Density = 1.889321 g / cm^3
# Si number density = 18.936307 Si / 1000 Ang^3
#
#
#
# Elastic Constant Matrix: (Units=GPa)
#
#
# Indices 1 2 3 4 5 6 
#
# 1 95.7751 46.4343 54.8035 0.0000 0.0000 0.0000
# 2 46.4343 112.1406 56.2092 0.0000 0.0000 0.0000
# 3 54.8035 56.2092 123.5068 0.0000 0.0000 0.0000
# 4 0.0000 0.0000 0.0000 29.2147 0.0000 0.0000
# 5 0.0000 0.0000 0.0000 0.0000 15.9095 0.0000
# 6 0.0000 0.0000 0.0000 0.0000 0.0000 26.6714
#
#
#
# Elastic Compliance Matrix: (Units=1/GPa)
#
#
# Indices 1 2 3 4 5 6 
#
# 1 0.015124 -0.003755 -0.005002 0.000000 0.000000 0.000000
# 2 -0.003755 0.012485 -0.004016 0.000000 0.000000 0.000000
# 3 -0.005002 -0.004016 0.012144 0.000000 0.000000 0.000000
# 4 0.000000 0.000000 0.000000 0.034229 0.000000 0.000000
# 5 0.000000 0.000000 0.000000 0.000000 0.062856 0.000000
# 6 0.000000 0.000000 0.000000 0.000000 0.000000 0.037493
#
#
# Mechanical properties :
#
#
# Convention : Reuss Voigt Hill
#
# Bulk Modulus (GPa) = 70.38757 71.81295 71.10026
# Shear Modulus (GPa) = 24.43641 25.95750 25.19695
#
# Velocity S-wave (km/s) = 3.59618 3.70642 3.65172
# Velocity P-wave (km/s) = 7.38206 7.50483 7.44370
#
# Compressibility (1/GPa) = 0.01420705
#
# Stress axis : x y z
#
# Youngs Moduli (GPa) = 66.12064 80.09473 82.34643
#
# Poissons Ratio (x) = 0.30078 0.41188
# Poissons Ratio (y) = 0.24830 0.33069
# Poissons Ratio (z) = 0.33072 0.32165
#
# Static dielectric constant tensor:
#      x y z
#    x 3.643280 0.000000 0.000000 
#    y 0.000000 3.514550 0.000000 
#    z 0.000000 0.000000 3.403420 
# 
# 
# High freq. dielectric constant tensor:
#      x y z
#    x 1.738600 0.000000 0.000000 
#    y 0.000000 1.736740 0.000000 
#    z 0.000000 0.000000 1.729520 
# 
# From -- ./inp_files/48370.got.cif
#   From: 2010.03.12/outbox.cif.g09.slc.cpg/sg66_25_cif.got.tgz:48370.got - 2010.04.10 21:57:39.
