data_PCOD8276506
_publ_section_title
;
Structure prediction by ZEFSAII (Michael W. Deem and Ramdas Pophale) SiO2 
 PCOD8276506
Probable space group: C C C M
;
_chemical_formula_sum "Si O2"
_cell_formula_units_Z 116
_cell_length_a 27.542617
_cell_length_b 24.646298
_cell_length_c 9.173066
_cell_angle_alpha 90.000000
_cell_angle_beta 90.000000
_cell_angle_gamma 90.000000
_cell_volume 6226.893192
_symmetry_space_group_name_H-M "C C C M"
_symmetry_group_IT_number 66
_symmetry_cell_setting 'orthorhombic'
loop_
_space_group_symop_operation_xyz
x,y,z
-x,-y,z
x,-y,1/2-z
-x,y,1/2-z
-x,-y,-z
x,y,-z
-x,y,1/2+z
x,-y,1/2+z
1/2+x,1/2+y,z
1/2-x,1/2-y,z
1/2+x,1/2-y,1/2-z
1/2-x,1/2+y,1/2-z
1/2-x,1/2-y,-z
1/2+x,1/2+y,-z
1/2-x,1/2+y,1/2+z
1/2+x,1/2-y,1/2+z
loop_
_atom_site_type_symbol
_atom_site_label
_atom_site_fract_x
_atom_site_fract_y
_atom_site_fract_z
Si Si1 0.000000 0.000000 0.250000
Si Si2 0.188663 0.655191 0.332577
Si Si3 0.699928 0.669620 0.157118
Si Si4 0.069956 0.908643 0.154316
Si Si5 0.137428 0.750983 0.173624
Si Si6 0.323199 0.437105 0.716190
Si Si7 0.049350 0.194750 0.826201
Si Si8 0.217249 0.554512 0.159176
O O1 0.963757 0.961951 0.341538
O O2 0.170645 0.649702 0.500000
O O3 0.242901 0.678357 0.328070
O O4 0.154445 0.694267 0.239680
O O5 0.186813 0.597416 0.253003
O O6 0.675461 0.701123 0.290637
O O7 0.683668 0.606071 0.151862
O O8 0.683042 0.693914 0.000000
O O9 0.126433 0.924145 0.137574
O O10 0.060434 0.868501 0.288932
O O11 0.056960 0.879197 0.000000
O O12 0.087949 0.765389 0.254545
O O13 0.130988 0.746857 0.000000
O O14 0.326143 0.500000 0.750000
O O15 0.273266 0.427754 0.626985
O O16 0.000000 0.212691 0.750000
O O17 0.047931 0.201320 0.000000
O O18 0.215603 0.500000 0.250000
O O19 0.192765 0.547449 0.000000
#
# Coordination Sequence:
#
# PCOD8276506 Si02
#       8
#     4  16  16  16  16  16  16  16
#     4  12  26  40  56  78 106 136 190 248 312 352
#     4  10  21  37  57  83 116 151 189 232 277 336
#     4  10  21  36  55  79 110 147 186 232 289 346
#     4  12  24  39  56  77 103 137 182 238 299 355
#     4  12  24  38  59  85 112 145 185 231 285 347
#     4  10  21  35  53  77 105 141 192 237 291 347
#     4  12  26  44  63  81 106 141 183 236 294 349
#     4  10  20  35  55  82 116 154 191 232 278 332
#
# _framework density 18.628872999999999
#
# number of rings (size 3 to 8) (size 9 to 14) (size 15 to 20)
#    0.000    1.103    2.759    4.345    0.000    8.828 
#    0.000    0.000    0.000    0.000    0.000    0.000 
#    0.000    0.552    0.000    5.517    0.000    3.448 
#
# Total GULP energy -718557.297376 kJ/mol
# GULP energy per Si atom -12388.918920 kJ/mol
# Density = 1.858647 g / cm^3
# Si number density = 18.628873 Si / 1000 Ang^3
#
#
#
# Elastic Constant Matrix: (Units=GPa)
#
#
# Indices 1 2 3 4 5 6 
#
# 1 77.6771 53.0607 47.8063 0.0000 0.0000 0.0000
# 2 53.0607 106.1490 58.8527 0.0000 0.0000 0.0000
# 3 47.8063 58.8527 181.5456 0.0000 0.0000 0.0000
# 4 0.0000 0.0000 0.0000 20.2153 0.0000 0.0000
# 5 0.0000 0.0000 0.0000 0.0000 4.0184 0.0000
# 6 0.0000 0.0000 0.0000 0.0000 0.0000 14.4467
#
#
#
# Elastic Compliance Matrix: (Units=1/GPa)
#
#
# Indices 1 2 3 4 5 6 
#
# 1 0.020457 -0.008825 -0.002526 0.000000 0.000000 0.000000
# 2 -0.008825 0.015292 -0.002633 0.000000 0.000000 0.000000
# 3 -0.002526 -0.002633 0.007027 0.000000 0.000000 0.000000
# 4 0.000000 0.000000 0.000000 0.049468 0.000000 0.000000
# 5 0.000000 0.000000 0.000000 0.000000 0.248854 0.000000
# 6 0.000000 0.000000 0.000000 0.000000 0.000000 0.069220
#
#
# Mechanical properties :
#
#
# Convention : Reuss Voigt Hill
#
# Bulk Modulus (GPa) = 67.53596 76.09011 71.81303
# Shear Modulus (GPa) = 11.28099 21.44620 16.36360
#
# Velocity S-wave (km/s) = 2.46349 3.39667 2.96700
# Velocity P-wave (km/s) = 6.66512 7.50447 7.09721
#
# Compressibility (1/GPa) = 0.01480693
#
# Stress axis : x y z
#
# Youngs Moduli (GPa) = 48.88321 65.39242 142.30607
#
# Poissons Ratio (x) = 0.57711 0.35946
# Poissons Ratio (y) = 0.43141 0.37475
# Poissons Ratio (z) = 0.12348 0.17221
#
# Static dielectric constant tensor:
#      x y z
#    x 3.457010 0.000000 0.000000 
#    y 0.000000 3.384040 0.000000 
#    z 0.000000 0.000000 3.530220 
# 
# 
# High freq. dielectric constant tensor:
#      x y z
#    x 1.698110 0.000000 0.000000 
#    y 0.000000 1.710560 0.000000 
#    z 0.000000 0.000000 1.736480 
# 
# From -- ./inp_files/9405.got.cif
#   From: 2010.03.12/outbox.cif.g09.slc.cpg/sg66_5_cif.got.tgz:9405.got - 2010.04.10 21:57:39.
