data_PCOD8276594
_publ_section_title
;
Structure prediction by ZEFSAII (Michael W. Deem and Ramdas Pophale) SiO2 
 PCOD8276594
Probable space group: C C C M
;
_chemical_formula_sum "Si O2"
_cell_formula_units_Z 52
_cell_length_a 29.317701
_cell_length_b 9.917099
_cell_length_c 10.084284
_cell_angle_alpha 90.000000
_cell_angle_beta 90.000000
_cell_angle_gamma 90.000000
_cell_volume 2931.970714
_symmetry_space_group_name_H-M "C C C M"
_symmetry_group_IT_number 66
_symmetry_cell_setting 'orthorhombic'
loop_
_space_group_symop_operation_xyz
x,y,z
-x,-y,z
x,-y,1/2-z
-x,y,1/2-z
-x,-y,-z
x,y,-z
-x,y,1/2+z
x,-y,1/2+z
1/2+x,1/2+y,z
1/2-x,1/2-y,z
1/2+x,1/2-y,1/2-z
1/2-x,1/2+y,1/2-z
1/2-x,1/2-y,-z
1/2+x,1/2+y,-z
1/2-x,1/2+y,1/2+z
1/2+x,1/2-y,1/2+z
loop_
_atom_site_type_symbol
_atom_site_label
_atom_site_fract_x
_atom_site_fract_y
_atom_site_fract_z
Si Si1 0.587366 0.612960 0.846825
Si Si2 0.208617 0.351181 0.000000
Si Si3 0.000000 0.000000 0.750000
Si Si4 0.295149 0.161255 0.500000
Si Si5 0.645458 0.153915 0.745418
O O1 0.610459 0.500000 0.750000
O O2 0.532282 0.595801 0.840770
O O3 0.600879 0.756084 0.782410
O O4 0.603639 0.598898 0.000000
O O5 0.250000 0.250000 0.000000
O O6 0.223139 0.507788 0.000000
O O7 0.180094 0.317510 0.128539
O O8 0.250000 0.250000 0.500000
O O9 0.327513 0.194907 0.623236
O O10 0.628365 0.000000 0.750000
#
# Coordination Sequence:
#
# PCOD8276594 Si02
#       5
#    16   8   4   8  16
#     4  10  21  38  61  88 119 152 195 246 301 352
#     4  10  20  36  56  78 115 155 191 241 296 342
#     4   8  22  36  64  88 126 148 200 252 306 348
#     4  10  22  36  54  84 117 149 201 241 286 350
#     4  10  21  37  58  83 117 157 191 242 295 353
#
# _framework density 17.735510999999999
#
# number of rings (size 3 to 8) (size 9 to 14) (size 15 to 20)
#    0.923    1.231    1.538    1.385    2.154    2.462 
#    0.000    0.769    0.000    1.846    0.000    0.000 
#    0.000    0.000    0.000    0.000    0.000    0.000 
#
# Total GULP energy -322186.467335 kJ/mol
# GULP energy per Si atom -12391.787205 kJ/mol
# Density = 1.769514 g / cm^3
# Si number density = 17.735511 Si / 1000 Ang^3
#
#
#
# Elastic Constant Matrix: (Units=GPa)
#
#
# Indices 1 2 3 4 5 6 
#
# 1 99.7661 78.3039 46.3103 0.0000 0.0000 0.0000
# 2 78.3039 120.2251 56.8253 0.0000 0.0000 0.0000
# 3 46.3103 56.8253 156.2046 0.0000 0.0000 0.0000
# 4 0.0000 0.0000 0.0000 31.5481 0.0000 0.0000
# 5 0.0000 0.0000 0.0000 0.0000 1124.3846 0.0000
# 6 0.0000 0.0000 0.0000 0.0000 0.0000 44.3309
#
#
#
# Elastic Compliance Matrix: (Units=1/GPa)
#
#
# Indices 1 2 3 4 5 6 
#
# 1 0.020791 -0.012835 -0.001495 0.000000 0.000000 0.000000
# 2 -0.012835 0.017968 -0.002731 0.000000 0.000000 0.000000
# 3 -0.001495 -0.002731 0.007839 0.000000 0.000000 0.000000
# 4 0.000000 0.000000 0.000000 0.031698 0.000000 0.000000
# 5 0.000000 0.000000 0.000000 0.000000 0.000889 0.000000
# 6 0.000000 0.000000 0.000000 0.000000 0.000000 0.022558
#
#
# Mechanical properties :
#
#
# Convention : Reuss Voigt Hill
#
# Bulk Modulus (GPa) = 80.15550 82.11941 81.13746
# Shear Modulus (GPa) = 35.70821 253.03649 144.37235
#
# Velocity S-wave (km/s) = 4.49193 11.95751 9.03215
# Velocity P-wave (km/s) = 8.49684 15.39628 12.43466
#
# Compressibility (1/GPa) = 0.01247575
#
# Stress axis : x y z
#
# Youngs Moduli (GPa) = 48.09734 55.65346 127.57239
#
# Poissons Ratio (x) = 0.71431 0.19069
# Poissons Ratio (y) = 0.61733 0.34846
# Poissons Ratio (z) = 0.07190 0.15201
#
# Static dielectric constant tensor:
#      x y z
#    x 3.002090 0.000000 0.000000 
#    y 0.000000 3.365440 0.000000 
#    z 0.000000 0.000000 3.415990 
# 
# 
# High freq. dielectric constant tensor:
#      x y z
#    x 1.662960 0.000000 0.000000 
#    y 0.000000 1.683660 0.000000 
#    z 0.000000 0.000000 1.707500 
# 
# From -- ./inp_files/13341.got.cif
#   From: 2010.03.12/outbox.cif.g09.slc.cpg/sg66_7_cif.got.tgz:13341.got - 2010.04.10 21:57:39.
