data_PCOD8276867
_publ_section_title
;
Structure prediction by ZEFSAII (Michael W. Deem and Ramdas Pophale) SiO2 
 PCOD8276867
Probable space group: C C C M
;
_chemical_formula_sum "Si O2"
_cell_formula_units_Z 112
_cell_length_a 21.101510
_cell_length_b 14.211317
_cell_length_c 16.204897
_cell_angle_alpha 90.000000
_cell_angle_beta 90.000000
_cell_angle_gamma 90.000000
_cell_volume 4859.528528
_symmetry_space_group_name_H-M "C C C M"
_symmetry_group_IT_number 66
_symmetry_cell_setting 'orthorhombic'
loop_
_space_group_symop_operation_xyz
x,y,z
-x,-y,z
x,-y,1/2-z
-x,y,1/2-z
-x,-y,-z
x,y,-z
-x,y,1/2+z
x,-y,1/2+z
1/2+x,1/2+y,z
1/2-x,1/2-y,z
1/2+x,1/2-y,1/2-z
1/2-x,1/2+y,1/2-z
1/2-x,1/2-y,-z
1/2+x,1/2+y,-z
1/2-x,1/2+y,1/2+z
1/2+x,1/2-y,1/2+z
loop_
_atom_site_type_symbol
_atom_site_label
_atom_site_fract_x
_atom_site_fract_y
_atom_site_fract_z
Si Si1 0.939997 0.625995 0.199428
Si Si2 0.123948 0.940358 0.402961
Si Si3 0.826382 0.325367 0.813338
Si Si4 0.988622 0.184651 0.653450
Si Si5 0.747390 0.647265 0.843782
Si Si6 0.625809 0.344669 0.094529
Si Si7 0.850500 0.508347 0.906396
O O1 0.890883 0.670109 0.262928
O O2 0.957562 0.712411 0.138744
O O3 0.910143 0.538416 0.149949
O O4 0.000000 0.587728 0.250000
O O5 0.138290 0.929665 0.500000
O O6 0.055049 0.898081 0.383063
O O7 0.175225 0.886090 0.347867
O O8 0.128662 0.048242 0.373935
O O9 0.767516 0.344373 0.752302
O O10 0.824971 0.221851 0.855104
O O11 0.825814 0.405293 0.883163
O O12 0.000000 0.165941 0.750000
O O13 0.053733 0.188910 0.603549
O O14 0.750000 0.750000 0.885346
O O15 0.792594 0.579657 0.895524
O O16 0.646690 0.338118 0.000000
O O17 0.873698 0.507922 0.000000
#
# Coordination Sequence:
#
# PCOD8276867 Si02
#       7
#    16  16  16  16  16  16  16
#     4  10  20  41  64  94 136 177 228 290 340 400
#     4  11  25  44  71 106 142 184 229 284 350 410
#     4  11  23  45  66  96 139 180 234 285 339 409
#     4  11  22  43  67 106 143 186 232 283 341 406
#     4  11  25  45  73 101 133 177 228 290 344 413
#     4  11  24  43  69 102 145 187 228 281 347 416
#     4  11  25  43  68 100 136 184 230 286 355 411
#
# _framework density 23.047502999999999
#
# number of rings (size 3 to 8) (size 9 to 14) (size 15 to 20)
#    0.000    1.143    2.857    5.143    0.000    9.143 
#    0.000    0.714    0.000    3.429    0.000    0.000 
#    0.000    0.000    0.000    0.000    0.000    0.000 
#
# Total GULP energy -694584.704415 kJ/mol
# GULP energy per Si atom -12403.298293 kJ/mol
# Density = 2.299505 g / cm^3
# Si number density = 23.047503 Si / 1000 Ang^3
#
#
#
# Elastic Constant Matrix: (Units=GPa)
#
#
# Indices 1 2 3 4 5 6 
#
# 1 65.3609 21.1604 22.1574 0.0000 0.0000 0.0000
# 2 21.1604 157.2428 29.4734 0.0000 0.0000 0.0000
# 3 22.1574 29.4734 81.2373 0.0000 0.0000 0.0000
# 4 0.0000 0.0000 0.0000 25.7248 0.0000 0.0000
# 5 0.0000 0.0000 0.0000 0.0000 28.1222 0.0000
# 6 0.0000 0.0000 0.0000 0.0000 0.0000 28.9321
#
#
#
# Elastic Compliance Matrix: (Units=1/GPa)
#
#
# Indices 1 2 3 4 5 6 
#
# 1 0.017199 -0.001540 -0.004132 0.000000 0.000000 0.000000
# 2 -0.001540 0.006962 -0.002106 0.000000 0.000000 0.000000
# 3 -0.004132 -0.002106 0.014201 0.000000 0.000000 0.000000
# 4 0.000000 0.000000 0.000000 0.038873 0.000000 0.000000
# 5 0.000000 0.000000 0.000000 0.000000 0.035559 0.000000
# 6 0.000000 0.000000 0.000000 0.000000 0.000000 0.034564
#
#
# Mechanical properties :
#
#
# Convention : Reuss Voigt Hill
#
# Bulk Modulus (GPa) = 43.84932 49.93592 46.89262
# Shear Modulus (GPa) = 29.32298 31.95914 30.64106
#
# Velocity S-wave (km/s) = 3.57078 3.72783 3.65015
# Velocity P-wave (km/s) = 6.00563 6.34370 6.17698
#
# Compressibility (1/GPa) = 0.02280537
#
# Stress axis : x y z
#
# Youngs Moduli (GPa) = 58.14267 143.64711 70.41933
#
# Poissons Ratio (x) = 0.22121 0.29100
# Poissons Ratio (y) = 0.08954 0.14828
# Poissons Ratio (z) = 0.24026 0.30247
#
# Static dielectric constant tensor:
#      x y z
#    x 4.269550 0.000000 0.000000 
#    y 0.000000 4.393710 0.000000 
#    z 0.000000 0.000000 3.957460 
# 
# 
# High freq. dielectric constant tensor:
#      x y z
#    x 1.916720 0.000000 0.000000 
#    y 0.000000 1.929380 0.000000 
#    z 0.000000 0.000000 1.897650 
# 
# From -- ./inp_files/32481.got.cif
#   From: 2010.03.12/outbox.cif.g09.slc.cpg/sg66_17_cif.got.tgz:32481.got - 2010.04.10 21:57:39.
