data_PCOD8276189
_publ_section_title
;
Structure prediction by ZEFSAII (Michael W. Deem and Ramdas Pophale) SiO2 
 PCOD8276189
Probable space group: C C C M
;
_chemical_formula_sum "Si O2"
_cell_formula_units_Z 104
_cell_length_a 33.033411
_cell_length_b 22.147769
_cell_length_c 7.511974
_cell_angle_alpha 90.000000
_cell_angle_beta 90.000000
_cell_angle_gamma 90.000000
_cell_volume 5495.883045
_symmetry_space_group_name_H-M "C C C M"
_symmetry_group_IT_number 66
_symmetry_cell_setting 'orthorhombic'
loop_
_space_group_symop_operation_xyz
x,y,z
-x,-y,z
x,-y,1/2-z
-x,y,1/2-z
-x,-y,-z
x,y,-z
-x,y,1/2+z
x,-y,1/2+z
1/2+x,1/2+y,z
1/2-x,1/2-y,z
1/2+x,1/2-y,1/2-z
1/2-x,1/2+y,1/2-z
1/2-x,1/2-y,-z
1/2+x,1/2+y,-z
1/2-x,1/2+y,1/2+z
1/2+x,1/2-y,1/2+z
loop_
_atom_site_type_symbol
_atom_site_label
_atom_site_fract_x
_atom_site_fract_y
_atom_site_fract_z
Si Si1 0.456076 0.873487 0.707300
Si Si2 0.624253 0.317875 0.293907
Si Si3 0.456576 0.739561 0.706875
Si Si4 0.680000 0.267704 0.000000
Si Si5 0.328998 0.433755 0.797168
Si Si6 0.681716 0.871819 0.500000
Si Si7 0.727295 0.614523 0.500000
Si Si8 0.373510 0.069502 0.209365
O O1 0.500000 0.903186 0.750000
O O2 0.450644 0.867249 0.500000
O O3 0.453729 0.806468 0.796293
O O4 0.419068 0.914519 0.777558
O O5 0.630175 0.299486 0.500000
O O6 0.578876 0.304223 0.223171
O O7 0.654578 0.277892 0.179182
O O8 0.633358 0.388615 0.262968
O O9 0.500000 0.709687 0.750000
O O10 0.451045 0.747683 0.500000
O O11 0.692730 0.198618 0.000000
O O12 0.718324 0.313340 0.000000
O O13 0.345320 0.500000 0.750000
O O14 0.291179 0.416115 0.675518
O O15 0.313825 0.430012 0.000000
O O16 0.725628 0.902795 0.500000
O O17 0.657738 0.890255 0.321748
O O18 0.365156 0.000000 0.250000
O O19 0.367218 0.083285 0.000000
#
# Coordination Sequence:
#
# PCOD8276189 Si02
#       8
#    16  16  16   8  16   8   8  16
#     4   9  19  33  55  79 106 141 185 237 279 322
#     4   9  19  34  55  82 117 149 183 232 280 326
#     4   9  17  30  47  77 111 142 182 227 278 333
#     4  10  21  38  62  86 110 145 189 228 283 342
#     4  10  19  36  59  85 112 146 188 233 276 324
#     4  12  25  40  64  83 114 153 178 231 291 342
#     4  10  23  40  58  90 116 140 187 233 278 341
#     4  11  24  43  58  81 114 148 195 233 276 342
#
# _framework density 18.923254
#
# number of rings (size 3 to 8) (size 9 to 14) (size 15 to 20)
#    0.000    2.154    1.538    1.154    2.154    3.385 
#    0.000    1.538    0.000    5.077    0.000    3.231 
#    0.000    0.000    0.000    0.000    0.000    0.000 
#
# Total GULP energy -644592.488075 kJ/mol
# GULP energy per Si atom -12396.009386 kJ/mol
# Density = 1.888018 g / cm^3
# Si number density = 18.923254 Si / 1000 Ang^3
#
#
#
# Elastic Constant Matrix: (Units=GPa)
#
#
# Indices 1 2 3 4 5 6 
#
# 1 112.5421 28.2898 31.0867 0.0000 0.0000 0.0000
# 2 28.2898 88.9530 22.9591 0.0000 0.0000 0.0000
# 3 31.0867 22.9591 87.4909 0.0000 0.0000 0.0000
# 4 0.0000 0.0000 0.0000 21.0294 0.0000 0.0000
# 5 0.0000 0.0000 0.0000 0.0000 23.8518 0.0000
# 6 0.0000 0.0000 0.0000 0.0000 0.0000 34.9515
#
#
#
# Elastic Compliance Matrix: (Units=1/GPa)
#
#
# Indices 1 2 3 4 5 6 
#
# 1 0.010351 -0.002513 -0.003018 0.000000 0.000000 0.000000
# 2 -0.002513 0.012669 -0.002432 0.000000 0.000000 0.000000
# 3 -0.003018 -0.002432 0.013140 0.000000 0.000000 0.000000
# 4 0.000000 0.000000 0.000000 0.047553 0.000000 0.000000
# 5 0.000000 0.000000 0.000000 0.000000 0.041926 0.000000
# 6 0.000000 0.000000 0.000000 0.000000 0.000000 0.028611
#
#
# Mechanical properties :
#
#
# Convention : Reuss Voigt Hill
#
# Bulk Modulus (GPa) = 49.42135 50.40637 49.91386
# Shear Modulus (GPa) = 28.26140 29.74323 29.00231
#
# Velocity S-wave (km/s) = 3.86874 3.96887 3.91913
# Velocity P-wave (km/s) = 6.79188 6.90635 6.84935
#
# Compressibility (1/GPa) = 0.02023417
#
# Stress axis : x y z
#
# Youngs Moduli (GPa) = 96.60922 78.93490 76.10148
#
# Poissons Ratio (x) = 0.19835 0.22971
# Poissons Ratio (y) = 0.24277 0.18505
# Poissons Ratio (z) = 0.29161 0.19194
#
# Static dielectric constant tensor:
#      x y z
#    x 3.572030 0.000000 0.000000 
#    y 0.000000 3.575900 0.000000 
#    z 0.000000 0.000000 3.577340 
# 
# 
# High freq. dielectric constant tensor:
#      x y z
#    x 1.726470 0.000000 0.000000 
#    y 0.000000 1.722990 0.000000 
#    z 0.000000 0.000000 1.745630 
# 
# From -- ./inp_files/10398.got.cif
#   From: 2010.03.12/outbox.cif.g09.slc.cpg/sg66_6_cif.got.tgz:10398.got - 2010.04.10 21:57:39.
