data_PCOD8276268
_publ_section_title
;
Structure prediction by ZEFSAII (Michael W. Deem and Ramdas Pophale) SiO2 
 PCOD8276268
Probable space group: C C C M
;
_chemical_formula_sum "Si O2"
_cell_formula_units_Z 52
_cell_length_a 20.887901
_cell_length_b 9.650883
_cell_length_c 14.256029
_cell_angle_alpha 90.000000
_cell_angle_beta 90.000000
_cell_angle_gamma 90.000000
_cell_volume 2873.825680
_symmetry_space_group_name_H-M "C C C M"
_symmetry_group_IT_number 66
_symmetry_cell_setting 'orthorhombic'
loop_
_space_group_symop_operation_xyz
x,y,z
-x,-y,z
x,-y,1/2-z
-x,y,1/2-z
-x,-y,-z
x,y,-z
-x,y,1/2+z
x,-y,1/2+z
1/2+x,1/2+y,z
1/2-x,1/2-y,z
1/2+x,1/2-y,1/2-z
1/2-x,1/2+y,1/2-z
1/2-x,1/2-y,-z
1/2+x,1/2+y,-z
1/2-x,1/2+y,1/2+z
1/2+x,1/2-y,1/2+z
loop_
_atom_site_type_symbol
_atom_site_label
_atom_site_fract_x
_atom_site_fract_y
_atom_site_fract_z
Si Si1 0.788790 0.886348 0.000000
Si Si2 0.500000 0.000000 0.250000
Si Si3 0.121801 0.370538 0.692730
Si Si4 0.689733 0.646090 0.797769
Si Si5 0.804458 0.364120 0.000000
O O1 0.750000 0.750000 0.000000
O O2 0.830732 0.891040 0.094990
O O3 0.731771 0.993877 0.000000
O O4 0.454520 0.097611 0.314985
O O5 0.154210 0.500000 0.750000
O O6 0.131038 0.226013 0.748707
O O7 0.150987 0.352306 0.590416
O O8 0.705924 0.500000 0.750000
O O9 0.750000 0.750000 0.789473
O O10 0.750000 0.250000 0.000000
#
# Coordination Sequence:
#
# PCOD8276268 Si02
#       5
#     8   4  16  16   8
#     4  10  20  30  48  87 113 151 179 224 315 355
#     4   8  24  42  62  76 114 172 210 236 292 328
#     4  10  21  40  57  83 116 160 208 242 289 352
#     4  11  20  33  55  84 122 151 186 248 307 362
#     4  12  22  33  60  92 122 149 192 252 311 361
#
# _framework density 18.094348
#
# number of rings (size 3 to 8) (size 9 to 14) (size 15 to 20)
#    0.923    0.615    0.000    9.231    0.000    0.615 
#    0.000    0.769    0.000    0.000    0.000    6.462 
#    0.000    0.000    0.000    0.000    0.000    0.000 
#
# Total GULP energy -322090.705285 kJ/mol
# GULP energy per Si atom -12388.104049 kJ/mol
# Density = 1.805316 g / cm^3
# Si number density = 18.094348 Si / 1000 Ang^3
#
#
#
# Elastic Constant Matrix: (Units=GPa)
#
#
# Indices 1 2 3 4 5 6 
#
# 1 113.4969 46.6110 61.6866 0.0000 0.0000 0.0000
# 2 46.6110 126.1505 58.4746 0.0000 0.0000 0.0000
# 3 61.6866 58.4746 191.8278 0.0000 0.0000 0.0000
# 4 0.0000 0.0000 0.0000 29.9520 0.0000 0.0000
# 5 0.0000 0.0000 0.0000 0.0000 41.4552 0.0000
# 6 0.0000 0.0000 0.0000 0.0000 0.0000 34.2392
#
#
#
# Elastic Compliance Matrix: (Units=1/GPa)
#
#
# Indices 1 2 3 4 5 6 
#
# 1 0.011558 -0.002967 -0.002812 0.000000 0.000000 0.000000
# 2 -0.002967 0.009993 -0.002092 0.000000 0.000000 0.000000
# 3 -0.002812 -0.002092 0.006755 0.000000 0.000000 0.000000
# 4 0.000000 0.000000 0.000000 0.033387 0.000000 0.000000
# 5 0.000000 0.000000 0.000000 0.000000 0.024122 0.000000
# 6 0.000000 0.000000 0.000000 0.000000 0.000000 0.029206
#
#
# Mechanical properties :
#
#
# Convention : Reuss Voigt Hill
#
# Bulk Modulus (GPa) = 79.59637 85.00216 82.29927
# Shear Modulus (GPa) = 37.05034 38.77615 37.91324
#
# Velocity S-wave (km/s) = 4.52997 4.63427 4.58242
# Velocity P-wave (km/s) = 8.45257 8.70141 8.57789
#
# Compressibility (1/GPa) = 0.01256339
#
# Stress axis : x y z
#
# Youngs Moduli (GPa) = 86.52207 100.07005 148.03659
#
# Poissons Ratio (x) = 0.29689 0.41632
# Poissons Ratio (y) = 0.25670 0.30971
# Poissons Ratio (z) = 0.24332 0.20936
#
# Static dielectric constant tensor:
#      x y z
#    x 2.969120 0.000000 0.000000 
#    y 0.000000 3.578410 0.000000 
#    z 0.000000 0.000000 3.217690 
# 
# 
# High freq. dielectric constant tensor:
#      x y z
#    x 1.653060 0.000000 0.000000 
#    y 0.000000 1.717000 0.000000 
#    z 0.000000 0.000000 1.713710 
# 
# From -- ./inp_files/23801.got.cif
#   From: 2010.03.12/outbox.cif.g09.slc.cpg/sg66_12_cif.got.tgz:23801.got - 2010.04.10 21:57:39.
