data_PCOD8276576
_publ_section_title
;
Structure prediction by ZEFSAII (Michael W. Deem and Ramdas Pophale) SiO2 
 PCOD8276576
Probable space group: C C C M
;
_chemical_formula_sum "Si O2"
_cell_formula_units_Z 116
_cell_length_a 27.806520
_cell_length_b 8.440711
_cell_length_c 23.046806
_cell_angle_alpha 90.000000
_cell_angle_beta 90.000000
_cell_angle_gamma 90.000000
_cell_volume 5409.242069
_symmetry_space_group_name_H-M "C C C M"
_symmetry_group_IT_number 66
_symmetry_cell_setting 'orthorhombic'
loop_
_space_group_symop_operation_xyz
x,y,z
-x,-y,z
x,-y,1/2-z
-x,y,1/2-z
-x,-y,-z
x,y,-z
-x,y,1/2+z
x,-y,1/2+z
1/2+x,1/2+y,z
1/2-x,1/2-y,z
1/2+x,1/2-y,1/2-z
1/2-x,1/2+y,1/2-z
1/2-x,1/2-y,-z
1/2+x,1/2+y,-z
1/2-x,1/2+y,1/2+z
1/2+x,1/2-y,1/2+z
loop_
_atom_site_type_symbol
_atom_site_label
_atom_site_fract_x
_atom_site_fract_y
_atom_site_fract_z
Si Si1 0.386236 0.027674 0.815295
Si Si2 0.000000 0.000000 0.750000
Si Si3 0.297632 0.808989 0.635548
Si Si4 0.451474 0.692269 0.648896
Si Si5 0.518391 0.826464 0.437111
Si Si6 0.367436 0.573652 0.430171
Si Si7 0.624691 0.215859 0.910445
Si Si8 0.276410 0.901657 0.063716
O O1 0.335279 0.118592 0.819221
O O2 0.428753 0.134753 0.841042
O O3 0.400143 0.000000 0.750000
O O4 0.383263 0.855892 0.845829
O O5 0.964310 0.104255 0.709329
O O6 0.250000 0.750000 0.670489
O O7 0.324807 0.685555 0.593034
O O8 0.268619 0.938632 0.598201
O O9 0.501257 0.708992 0.613611
O O10 0.416361 0.600073 0.605552
O O11 0.496253 0.780043 0.500000
O O12 0.575480 0.810873 0.444551
O O13 0.500000 0.000000 0.420529
O O14 0.374196 0.595894 0.500000
O O15 0.355091 0.393919 0.413007
O O16 0.665909 0.114926 0.941353
O O17 0.250000 0.750000 0.093868
O O18 0.253324 0.922147 0.000000
#
# Coordination Sequence:
#
# PCOD8276576 Si02
#       8
#    16   4  16  16  16  16  16  16
#     4  10  24  44  66  86 124 169 221 276 323 381
#     4  12  28  40  68  92 132 164 230 274 332 376
#     4  10  22  41  62  94 130 166 218 268 337 405
#     4  11  25  43  62  95 127 173 215 273 320 394
#     4  11  22  38  63  94 129 168 214 265 328 398
#     4  11  23  40  65  96 137 176 210 264 336 407
#     4  11  22  39  60  93 124 167 218 265 324 387
#     4  10  20  35  60  92 127 167 213 265 325 395
#
# _framework density 21.444779
#
# number of rings (size 3 to 8) (size 9 to 14) (size 15 to 20)
#    0.000    1.379    1.379    3.724    3.862    2.207 
#    0.000    6.207    0.000    0.000    0.000    0.000 
#    0.000    0.000    0.000    0.000    0.000    0.000 
#
# Total GULP energy -718648.904481 kJ/mol
# GULP energy per Si atom -12390.498353 kJ/mol
# Density = 2.139597 g / cm^3
# Si number density = 21.444779 Si / 1000 Ang^3
#
#
#
# Elastic Constant Matrix: (Units=GPa)
#
#
# Indices 1 2 3 4 5 6 
#
# 1 105.2942 8.5041 11.6864 0.0000 0.0000 0.0000
# 2 8.5041 80.2154 18.6784 0.0000 0.0000 0.0000
# 3 11.6864 18.6784 103.1502 0.0000 0.0000 0.0000
# 4 0.0000 0.0000 0.0000 42.4058 0.0000 0.0000
# 5 0.0000 0.0000 0.0000 0.0000 18.1134 0.0000
# 6 0.0000 0.0000 0.0000 0.0000 0.0000 32.5192
#
#
#
# Elastic Compliance Matrix: (Units=1/GPa)
#
#
# Indices 1 2 3 4 5 6 
#
# 1 0.009668 -0.000804 -0.000950 0.000000 0.000000 0.000000
# 2 -0.000804 0.013082 -0.002278 0.000000 0.000000 0.000000
# 3 -0.000950 -0.002278 0.010215 0.000000 0.000000 0.000000
# 4 0.000000 0.000000 0.000000 0.023582 0.000000 0.000000
# 5 0.000000 0.000000 0.000000 0.000000 0.055208 0.000000
# 6 0.000000 0.000000 0.000000 0.000000 0.000000 0.030751
#
#
# Mechanical properties :
#
#
# Convention : Reuss Voigt Hill
#
# Bulk Modulus (GPa) = 40.15810 40.71085 40.43447
# Shear Modulus (GPa) = 31.47271 35.26042 33.36657
#
# Velocity S-wave (km/s) = 3.83510 4.05933 3.94881
# Velocity P-wave (km/s) = 6.19497 6.40282 6.29975
#
# Compressibility (1/GPa) = 0.02490158
#
# Stress axis : x y z
#
# Youngs Moduli (GPa) = 103.43907 76.44068 97.89845
#
# Poissons Ratio (x) = 0.06144 0.09298
# Poissons Ratio (y) = 0.08314 0.22300
# Poissons Ratio (z) = 0.09824 0.17412
#
# Static dielectric constant tensor:
#      x y z
#    x 3.938130 0.000000 0.000000 
#    y 0.000000 4.107550 0.000000 
#    z 0.000000 0.000000 3.634260 
# 
# 
# High freq. dielectric constant tensor:
#      x y z
#    x 1.858540 0.000000 0.000000 
#    y 0.000000 1.848650 0.000000 
#    z 0.000000 0.000000 1.820600 
# 
# From -- ./inp_files/60217.got.cif
#   From: 2010.03.12/outbox.cif.g09.slc.cpg/sg66_31_cif.got.tgz:60217.got - 2010.04.10 21:57:39.
