data_PCOD8276179
_publ_section_title
;
Structure prediction by ZEFSAII (Michael W. Deem and Ramdas Pophale) SiO2 
 PCOD8276179
Probable space group: C C C M
;
_chemical_formula_sum "Si O2"
_cell_formula_units_Z 104
_cell_length_a 20.779373
_cell_length_b 27.880945
_cell_length_c 9.285488
_cell_angle_alpha 90.000000
_cell_angle_beta 90.000000
_cell_angle_gamma 90.000000
_cell_volume 5379.534062
_symmetry_space_group_name_H-M "C C C M"
_symmetry_group_IT_number 66
_symmetry_cell_setting 'orthorhombic'
loop_
_space_group_symop_operation_xyz
x,y,z
-x,-y,z
x,-y,1/2-z
-x,y,1/2-z
-x,-y,-z
x,y,-z
-x,y,1/2+z
x,-y,1/2+z
1/2+x,1/2+y,z
1/2-x,1/2-y,z
1/2+x,1/2-y,1/2-z
1/2-x,1/2+y,1/2-z
1/2-x,1/2-y,-z
1/2+x,1/2+y,-z
1/2-x,1/2+y,1/2+z
1/2+x,1/2-y,1/2+z
loop_
_atom_site_type_symbol
_atom_site_label
_atom_site_fract_x
_atom_site_fract_y
_atom_site_fract_z
Si Si1 0.397655 0.812552 0.159778
Si Si2 0.346150 0.362882 0.166251
Si Si3 0.063888 0.048199 0.169219
Si Si4 0.607634 0.952850 0.840506
Si Si5 0.064074 0.793250 0.170502
Si Si6 0.000000 0.385551 0.250000
Si Si7 0.198851 0.628474 0.330569
O O1 0.425331 0.761944 0.213468
O O2 0.454578 0.851697 0.154063
O O3 0.338648 0.826899 0.261566
O O4 0.369409 0.806967 0.000000
O O5 0.380170 0.413574 0.189406
O O6 0.375786 0.323072 0.270115
O O7 0.272763 0.369956 0.215142
O O8 0.351334 0.346145 0.000000
O O9 0.000000 0.067429 0.250000
O O10 0.086695 0.000000 0.250000
O O11 0.049798 0.038594 0.000000
O O12 0.544230 0.919550 0.848387
O O13 0.667313 0.921774 0.776985
O O14 0.594787 0.000000 0.750000
O O15 0.624134 0.970537 0.000000
O O16 0.000000 0.811996 0.250000
O O17 0.056527 0.801250 0.000000
O O18 0.188995 0.633055 0.500000
#
# Coordination Sequence:
#
# PCOD8276179 Si02
#       7
#    16  16  16  16  16   8  16
#     4  10  21  37  58  84 112 146 191 237 280 333
#     4  10  22  40  59  82 114 151 190 232 281 339
#     4  10  20  35  57  83 111 142 182 228 278 336
#     4  10  21  35  55  82 112 148 190 237 285 338
#     4  11  23  38  59  88 117 147 187 235 287 339
#     4  10  19  36  58  80 114 152 191 232 286 340
#     4   9  21  40  58  78 110 153 193 230 281 343
#
# _framework density 19.332529000000001
#
# number of rings (size 3 to 8) (size 9 to 14) (size 15 to 20)
#    0.000    2.000    0.769    2.538    0.000    9.846 
#    0.000    3.077    0.000    0.000    0.000    0.000 
#    0.000    0.000    0.000    0.000    0.000    0.000 
#
# Total GULP energy -644802.053143 kJ/mol
# GULP energy per Si atom -12400.039484 kJ/mol
# Density = 1.928853 g / cm^3
# Si number density = 19.332529 Si / 1000 Ang^3
#
#
#
# Elastic Constant Matrix: (Units=GPa)
#
#
# Indices 1 2 3 4 5 6 
#
# 1 148.8170 63.9579 48.1955 0.0000 0.0000 0.0000
# 2 63.9579 102.7104 47.1547 0.0000 0.0000 0.0000
# 3 48.1955 47.1547 86.5312 0.0000 0.0000 0.0000
# 4 0.0000 0.0000 0.0000 27.7093 0.0000 0.0000
# 5 0.0000 0.0000 0.0000 0.0000 28.5200 0.0000
# 6 0.0000 0.0000 0.0000 0.0000 0.0000 23.7635
#
#
#
# Elastic Compliance Matrix: (Units=1/GPa)
#
#
# Indices 1 2 3 4 5 6 
#
# 1 0.009660 -0.004728 -0.002804 0.000000 0.000000 0.000000
# 2 -0.004728 0.015299 -0.005704 0.000000 0.000000 0.000000
# 3 -0.002804 -0.005704 0.016226 0.000000 0.000000 0.000000
# 4 0.000000 0.000000 0.000000 0.036089 0.000000 0.000000
# 5 0.000000 0.000000 0.000000 0.000000 0.035063 0.000000
# 6 0.000000 0.000000 0.000000 0.000000 0.000000 0.042081
#
#
# Mechanical properties :
#
#
# Convention : Reuss Voigt Hill
#
# Bulk Modulus (GPa) = 67.96180 72.96386 70.46283
# Shear Modulus (GPa) = 26.91165 27.91527 27.41346
#
# Velocity S-wave (km/s) = 3.73505 3.80406 3.76971
# Velocity P-wave (km/s) = 7.33698 7.55764 7.44813
#
# Compressibility (1/GPa) = 0.01471415
#
# Stress axis : x y z
#
# Youngs Moduli (GPa) = 103.52419 65.36489 61.62838
#
# Poissons Ratio (x) = 0.30904 0.17279
# Poissons Ratio (y) = 0.48945 0.35151
# Poissons Ratio (z) = 0.29025 0.37282
#
# Static dielectric constant tensor:
#      x y z
#    x 3.561580 0.000000 0.000000 
#    y 0.000000 3.536000 0.000000 
#    z 0.000000 0.000000 3.460750 
# 
# 
# High freq. dielectric constant tensor:
#      x y z
#    x 1.751080 0.000000 0.000000 
#    y 0.000000 1.756910 0.000000 
#    z 0.000000 0.000000 1.751230 
# 
# From -- ./inp_files/8319.got.cif
#   From: 2010.03.12/outbox.cif.g09.slc.cpg/sg66_5_cif.got.tgz:8319.got - 2010.04.10 21:57:39.
