data_PCOD8276718
_publ_section_title
;
Structure prediction by ZEFSAII (Michael W. Deem and Ramdas Pophale) SiO2 
 PCOD8276718
Probable space group: C C C M
;
_chemical_formula_sum "Si O2"
_cell_formula_units_Z 96
_cell_length_a 15.143528
_cell_length_b 25.841383
_cell_length_c 13.271704
_cell_angle_alpha 90.000000
_cell_angle_beta 90.000000
_cell_angle_gamma 90.000000
_cell_volume 5193.612038
_symmetry_space_group_name_H-M "C C C M"
_symmetry_group_IT_number 66
_symmetry_cell_setting 'orthorhombic'
loop_
_space_group_symop_operation_xyz
x,y,z
-x,-y,z
x,-y,1/2-z
-x,y,1/2-z
-x,-y,-z
x,y,-z
-x,y,1/2+z
x,-y,1/2+z
1/2+x,1/2+y,z
1/2-x,1/2-y,z
1/2+x,1/2-y,1/2-z
1/2-x,1/2+y,1/2-z
1/2-x,1/2-y,-z
1/2+x,1/2+y,-z
1/2-x,1/2+y,1/2+z
1/2+x,1/2-y,1/2+z
loop_
_atom_site_type_symbol
_atom_site_label
_atom_site_fract_x
_atom_site_fract_y
_atom_site_fract_z
Si Si1 0.984352 0.940687 0.885814
Si Si2 0.078766 0.361564 0.689118
Si Si3 0.857951 0.899348 0.715493
Si Si4 0.458333 0.927240 0.000000
Si Si5 0.249257 0.809992 0.118282
Si Si6 0.352628 0.976579 0.500000
Si Si7 0.814445 0.447030 0.288461
O O1 0.917238 0.906813 0.816864
O O2 0.081416 0.914915 0.879003
O O3 0.949592 0.938257 0.000000
O O4 0.000000 0.000000 0.849707
O O5 0.037172 0.392745 0.598235
O O6 0.150342 0.323282 0.644339
O O7 0.119763 0.400147 0.771448
O O8 0.000000 0.332035 0.750000
O O9 0.819524 0.841661 0.690336
O O10 0.776111 0.938250 0.727296
O O11 0.546501 0.959947 0.000000
O O12 0.366114 0.960774 0.000000
O O13 0.250000 0.750000 0.144991
O O14 0.228986 0.820900 0.000000
O O15 0.296729 0.954384 0.406894
O O16 0.859292 0.500000 0.250000
#
# Coordination Sequence:
#
# PCOD8276718 Si02
#       7
#    16  16  16   8  16   8  16
#     4  10  20  37  59  87 120 157 191 232 290 360
#     4  11  21  36  55  80 113 149 187 231 278 332
#     4  10  21  37  57  82 116 148 190 243 292 341
#     4  11  20  34  51  78 115 156 192 222 263 321
#     4  10  22  41  64  86 108 142 193 251 299 349
#     4  11  22  30  50  78 120 163 192 217 259 331
#     4  11  21  32  49  80 115 154 194 225 268 330
#
# _framework density 18.484247
#
# number of rings (size 3 to 8) (size 9 to 14) (size 15 to 20)
#    0.000    1.500    4.167    2.500    1.167    0.333 
#    4.500    0.000    0.000    0.500    0.000    0.000 
#    0.000    0.000    0.000    0.000    0.000    0.000 
#
# Total GULP energy -594706.612818 kJ/mol
# GULP energy per Si atom -12389.721100 kJ/mol
# Density = 1.844218 g / cm^3
# Si number density = 18.484247 Si / 1000 Ang^3
#
#
#
# Elastic Constant Matrix: (Units=GPa)
#
#
# Indices 1 2 3 4 5 6 
#
# 1 82.1815 33.2837 18.3890 0.0000 0.0000 0.0000
# 2 33.2837 98.4540 33.8943 0.0000 0.0000 0.0000
# 3 18.3890 33.8943 109.1376 0.0000 0.0000 0.0000
# 4 0.0000 0.0000 0.0000 24.4419 0.0000 0.0000
# 5 0.0000 0.0000 0.0000 0.0000 36.8313 0.0000
# 6 0.0000 0.0000 0.0000 0.0000 0.0000 15.3862
#
#
#
# Elastic Compliance Matrix: (Units=1/GPa)
#
#
# Indices 1 2 3 4 5 6 
#
# 1 0.014197 -0.004452 -0.001009 0.000000 0.000000 0.000000
# 2 -0.004452 0.012769 -0.003215 0.000000 0.000000 0.000000
# 3 -0.001009 -0.003215 0.010331 0.000000 0.000000 0.000000
# 4 0.000000 0.000000 0.000000 0.040913 0.000000 0.000000
# 5 0.000000 0.000000 0.000000 0.000000 0.027151 0.000000
# 6 0.000000 0.000000 0.000000 0.000000 0.000000 0.064993
#
#
# Mechanical properties :
#
#
# Convention : Reuss Voigt Hill
#
# Bulk Modulus (GPa) = 50.14116 51.21190 50.67653
# Shear Modulus (GPa) = 25.72584 28.94562 27.33573
#
# Velocity S-wave (km/s) = 3.73469 3.96152 3.84977
# Velocity P-wave (km/s) = 6.76628 6.97787 6.87289
#
# Compressibility (1/GPa) = 0.01994370
#
# Stress axis : x y z
#
# Youngs Moduli (GPa) = 70.43671 78.31420 96.79180
#
# Poissons Ratio (x) = 0.34866 0.09771
# Poissons Ratio (y) = 0.31358 0.31123
# Poissons Ratio (z) = 0.07111 0.25182
#
# Static dielectric constant tensor:
#      x y z
#    x 3.513740 0.000000 0.000000 
#    y 0.000000 3.181970 0.000000 
#    z 0.000000 0.000000 3.495990 
# 
# 
# High freq. dielectric constant tensor:
#      x y z
#    x 1.722360 0.000000 0.000000 
#    y 0.000000 1.684190 0.000000 
#    z 0.000000 0.000000 1.727000 
# 
# From -- ./inp_files/28453.got.cif
#   From: 2010.03.12/outbox.cif.g09.slc.cpg/sg66_15_cif.got.tgz:28453.got - 2010.04.10 21:57:39.
