data_PCOD8276637
_publ_section_title
;
Structure prediction by ZEFSAII (Michael W. Deem and Ramdas Pophale) SiO2 
 PCOD8276637
Probable space group: C C C M
;
_chemical_formula_sum "Si O2"
_cell_formula_units_Z 96
_cell_length_a 15.503973
_cell_length_b 19.827946
_cell_length_c 14.151728
_cell_angle_alpha 90.000000
_cell_angle_beta 90.000000
_cell_angle_gamma 90.000000
_cell_volume 4350.410151
_symmetry_space_group_name_H-M "C C C M"
_symmetry_group_IT_number 66
_symmetry_cell_setting 'orthorhombic'
loop_
_space_group_symop_operation_xyz
x,y,z
-x,-y,z
x,-y,1/2-z
-x,y,1/2-z
-x,-y,-z
x,y,-z
-x,y,1/2+z
x,-y,1/2+z
1/2+x,1/2+y,z
1/2-x,1/2-y,z
1/2+x,1/2-y,1/2-z
1/2-x,1/2+y,1/2-z
1/2-x,1/2-y,-z
1/2+x,1/2+y,-z
1/2-x,1/2+y,1/2+z
1/2+x,1/2-y,1/2+z
loop_
_atom_site_type_symbol
_atom_site_label
_atom_site_fract_x
_atom_site_fract_y
_atom_site_fract_z
Si Si1 0.072150 0.091648 0.887890
Si Si2 0.151728 0.769333 0.389860
Si Si3 0.092037 0.525671 0.606491
Si Si4 0.704791 0.894060 0.607475
Si Si5 0.097032 0.649317 0.728127
Si Si6 0.885826 0.945408 0.612194
O O1 0.127430 0.155855 0.852413
O O2 0.971895 0.094029 0.853129
O O3 0.114713 0.022613 0.847855
O O4 0.073143 0.090542 0.000000
O O5 0.129316 0.761831 0.500000
O O6 0.250000 0.750000 0.368982
O O7 0.094243 0.717735 0.331067
O O8 0.079633 0.552487 0.500000
O O9 0.160644 0.466544 0.611580
O O10 0.132440 0.586672 0.666697
O O11 0.000000 0.500000 0.646055
O O12 0.701472 0.865313 0.500000
O O13 0.654902 0.842750 0.677080
O O14 0.802546 0.903191 0.645014
O O15 0.000000 0.630557 0.750000
O O16 0.884648 0.951232 0.500000
#
# Coordination Sequence:
#
# PCOD8276637 Si02
#       6
#    16  16  16  16  16  16
#     4   8  15  33  61  92 124 154 196 252 317 378
#     4  10  23  42  64  92 125 166 210 256 315 386
#     4  10  20  36  59  87 121 158 202 258 318 375
#     4  10  21  35  59  93 125 160 206 257 313 373
#     4  12  24  39  59  87 124 165 207 255 307 377
#     4   8  15  31  61  96 122 153 197 255 317 376
#
# _framework density 22.066884999999999
#
# number of rings (size 3 to 8) (size 9 to 14) (size 15 to 20)
#    0.000    2.333    1.667    2.000    2.333    0.667 
#    3.000    0.000    0.000    0.500    0.000    0.000 
#    0.000    0.000    0.000    1.833    0.000    0.167 
#
# Total GULP energy -595084.592417 kJ/mol
# GULP energy per Si atom -12397.595675 kJ/mol
# Density = 2.201666 g / cm^3
# Si number density = 22.066885 Si / 1000 Ang^3
#
#
#
# Elastic Constant Matrix: (Units=GPa)
#
#
# Indices 1 2 3 4 5 6 
#
# 1 126.8857 36.9643 32.2501 0.0000 0.0000 0.0000
# 2 36.9643 101.2215 37.4409 0.0000 0.0000 0.0000
# 3 32.2501 37.4409 71.7068 0.0000 0.0000 0.0000
# 4 0.0000 0.0000 0.0000 13.4516 0.0000 0.0000
# 5 0.0000 0.0000 0.0000 0.0000 10.2270 0.0000
# 6 0.0000 0.0000 0.0000 0.0000 0.0000 25.9619
#
#
#
# Elastic Compliance Matrix: (Units=1/GPa)
#
#
# Indices 1 2 3 4 5 6 
#
# 1 0.009309 -0.002294 -0.002989 0.000000 0.000000 0.000000
# 2 -0.002294 0.012809 -0.005657 0.000000 0.000000 0.000000
# 3 -0.002989 -0.005657 0.018243 0.000000 0.000000 0.000000
# 4 0.000000 0.000000 0.000000 0.074340 0.000000 0.000000
# 5 0.000000 0.000000 0.000000 0.000000 0.097780 0.000000
# 6 0.000000 0.000000 0.000000 0.000000 0.000000 0.038518
#
#
# Mechanical properties :
#
#
# Convention : Reuss Voigt Hill
#
# Bulk Modulus (GPa) = 54.10394 57.01382 55.55888
# Shear Modulus (GPa) = 17.91855 22.80537 20.36196
#
# Velocity S-wave (km/s) = 2.85267 3.21824 3.04096
# Velocity P-wave (km/s) = 5.95161 6.30098 6.12879
#
# Compressibility (1/GPa) = 0.01848294
#
# Stress axis : x y z
#
# Youngs Moduli (GPa) = 107.42210 78.06809 54.81405
#
# Poissons Ratio (x) = 0.17908 0.16384
# Poissons Ratio (y) = 0.24642 0.31006
# Poissons Ratio (z) = 0.32109 0.44160
#
# Static dielectric constant tensor:
#      x y z
#    x 4.172660 0.000000 0.000000 
#    y 0.000000 3.830810 0.000000 
#    z 0.000000 0.000000 4.023310 
# 
# 
# High freq. dielectric constant tensor:
#      x y z
#    x 1.870130 0.000000 0.000000 
#    y 0.000000 1.840370 0.000000 
#    z 0.000000 0.000000 1.867830 
# 
# From -- ./inp_files/28308.got.cif
#   From: 2010.03.12/outbox.cif.g09.slc.cpg/sg66_15_cif.got.tgz:28308.got - 2010.04.10 21:57:39.
