data_PCOD8276102
_publ_section_title
;
Structure prediction by ZEFSAII (Michael W. Deem and Ramdas Pophale) SiO2 
 PCOD8276102
Probable space group: C C C M
;
_chemical_formula_sum "Si O2"
_cell_formula_units_Z 96
_cell_length_a 16.606101
_cell_length_b 10.612726
_cell_length_c 26.639789
_cell_angle_alpha 90.000000
_cell_angle_beta 90.000000
_cell_angle_gamma 90.000000
_cell_volume 4694.889850
_symmetry_space_group_name_H-M "C C C M"
_symmetry_group_IT_number 66
_symmetry_cell_setting 'orthorhombic'
loop_
_space_group_symop_operation_xyz
x,y,z
-x,-y,z
x,-y,1/2-z
-x,y,1/2-z
-x,-y,-z
x,y,-z
-x,y,1/2+z
x,-y,1/2+z
1/2+x,1/2+y,z
1/2-x,1/2-y,z
1/2+x,1/2-y,1/2-z
1/2-x,1/2+y,1/2-z
1/2-x,1/2-y,-z
1/2+x,1/2+y,-z
1/2-x,1/2+y,1/2+z
1/2+x,1/2-y,1/2+z
loop_
_atom_site_type_symbol
_atom_site_label
_atom_site_fract_x
_atom_site_fract_y
_atom_site_fract_z
Si Si1 0.064154 0.716736 0.056768
Si Si2 0.155911 0.282776 0.830307
Si Si3 0.693033 0.868403 0.270278
Si Si4 0.938272 0.894082 0.104723
Si Si5 0.153266 0.459554 0.623099
Si Si6 0.189902 0.934859 0.056882
O O1 0.079183 0.594054 0.090833
O O2 0.142805 0.804058 0.062419
O O3 0.983886 0.787736 0.073394
O O4 0.052387 0.671824 0.000000
O O5 0.250000 0.250000 0.828931
O O6 0.130696 0.327782 0.774121
O O7 0.103317 0.162442 0.845640
O O8 0.140569 0.391317 0.871390
O O9 0.750000 0.750000 0.280025
O O10 0.648851 0.893493 0.322532
O O11 0.735422 0.000000 0.250000
O O12 0.870734 0.950602 0.068113
O O13 0.000000 0.000000 0.124022
O O14 0.237904 0.433329 0.596128
O O15 0.222647 0.950939 0.000000
#
# Coordination Sequence:
#
# PCOD8276102 Si02
#       6
#    16  16  16  16  16  16
#     4  10  21  36  56  85 122 160 199 245 306 364
#     4  10  20  39  61  86 117 156 201 252 301 359
#     4   9  19  34  58  89 120 157 198 250 309 360
#     4  10  21  39  61  85 120 163 200 244 305 360
#     4  11  20  35  60  88 120 156 200 250 302 361
#     4  10  19  34  59  88 121 161 205 248 296 360
#
# _framework density 20.447762999999998
#
# number of rings (size 3 to 8) (size 9 to 14) (size 15 to 20)
#    0.000    2.000    1.667    2.500    0.000    4.000 
#    0.000    5.833    0.000   10.000    0.000    0.000 
#    0.000    0.000    0.000    0.000    0.000    0.000 
#
# Total GULP energy -595037.383614 kJ/mol
# GULP energy per Si atom -12396.612159 kJ/mol
# Density = 2.040122 g / cm^3
# Si number density = 20.447763 Si / 1000 Ang^3
#
#
#
# Elastic Constant Matrix: (Units=GPa)
#
#
# Indices 1 2 3 4 5 6 
#
# 1 54.4622 26.2939 45.7713 0.0000 0.0000 0.0000
# 2 26.2939 91.9681 50.7548 0.0000 0.0000 0.0000
# 3 45.7713 50.7548 149.5246 0.0000 0.0000 0.0000
# 4 0.0000 0.0000 0.0000 33.7431 0.0000 0.0000
# 5 0.0000 0.0000 0.0000 0.0000 8.3269 0.0000
# 6 0.0000 0.0000 0.0000 0.0000 0.0000 35.5174
#
#
#
# Elastic Compliance Matrix: (Units=1/GPa)
#
#
# Indices 1 2 3 4 5 6 
#
# 1 0.025705 -0.003700 -0.006613 0.000000 0.000000 0.000000
# 2 -0.003700 0.013912 -0.003590 0.000000 0.000000 0.000000
# 3 -0.006613 -0.003590 0.009931 0.000000 0.000000 0.000000
# 4 0.000000 0.000000 0.000000 0.029636 0.000000 0.000000
# 5 0.000000 0.000000 0.000000 0.000000 0.120093 0.000000
# 6 0.000000 0.000000 0.000000 0.000000 0.000000 0.028155
#
#
# Mechanical properties :
#
#
# Convention : Reuss Voigt Hill
#
# Bulk Modulus (GPa) = 45.99128 60.17722 53.08425
# Shear Modulus (GPa) = 19.04876 27.05980 23.05428
#
# Velocity S-wave (km/s) = 3.05549 3.64175 3.36143
# Velocity P-wave (km/s) = 5.91515 6.86853 6.40959
#
# Compressibility (1/GPa) = 0.02174325
#
# Stress axis : x y z
#
# Youngs Moduli (GPa) = 38.90272 71.87912 100.69809
#
# Poissons Ratio (x) = 0.26593 0.66590
# Poissons Ratio (y) = 0.14393 0.36149
# Poissons Ratio (z) = 0.25726 0.25804
#
# Static dielectric constant tensor:
#      x y z
#    x 3.398350 0.000000 0.000000 
#    y 0.000000 3.949180 0.000000 
#    z 0.000000 0.000000 3.929090 
# 
# 
# High freq. dielectric constant tensor:
#      x y z
#    x 1.768050 0.000000 0.000000 
#    y 0.000000 1.812390 0.000000 
#    z 0.000000 0.000000 1.806760 
# 
# From -- ./inp_files/58768.got.cif
#   From: 2010.03.12/outbox.cif.g09.slc.cpg/sg66_30_cif.got.tgz:58768.got - 2010.04.10 21:57:39.
