data_PCOD8276758
_publ_section_title
;
Structure prediction by ZEFSAII (Michael W. Deem and Ramdas Pophale) SiO2 
 PCOD8276758
Probable space group: C C C M
;
_chemical_formula_sum "Si O2"
_cell_formula_units_Z 56
_cell_length_a 8.936139
_cell_length_b 30.094342
_cell_length_c 10.485017
_cell_angle_alpha 90.000000
_cell_angle_beta 90.000000
_cell_angle_gamma 90.000000
_cell_volume 2819.706507
_symmetry_space_group_name_H-M "C C C M"
_symmetry_group_IT_number 66
_symmetry_cell_setting 'orthorhombic'
loop_
_space_group_symop_operation_xyz
x,y,z
-x,-y,z
x,-y,1/2-z
-x,y,1/2-z
-x,-y,-z
x,y,-z
-x,y,1/2+z
x,-y,1/2+z
1/2+x,1/2+y,z
1/2-x,1/2-y,z
1/2+x,1/2-y,1/2-z
1/2-x,1/2+y,1/2-z
1/2-x,1/2-y,-z
1/2+x,1/2+y,-z
1/2-x,1/2+y,1/2+z
1/2+x,1/2-y,1/2+z
loop_
_atom_site_type_symbol
_atom_site_label
_atom_site_fract_x
_atom_site_fract_y
_atom_site_fract_z
Si Si1 0.500000 0.500000 0.250000
Si Si2 0.322792 0.350062 0.248711
Si Si3 0.500000 0.000000 0.750000
Si Si4 0.820641 0.201647 0.000000
Si Si5 0.250184 0.059861 0.856906
Si Si6 0.825344 0.202795 0.500000
O O1 0.397234 0.469810 0.160191
O O2 0.500000 0.356058 0.250000
O O3 0.265776 0.325567 0.376050
O O4 0.248974 0.398912 0.241690
O O5 0.269961 0.322234 0.126403
O O6 0.601914 0.969376 0.839352
O O7 0.750000 0.250000 0.000000
O O8 0.997215 0.208012 0.000000
O O9 0.246570 0.078994 0.000000
O O10 0.750000 0.250000 0.500000
#
# Coordination Sequence:
#
# PCOD8276758 Si02
#       6
#     4  16   4   8  16   8
#     4  10  22  34  68  96 114 156 204 254 306 368
#     4  10  20  37  63  88 119 156 203 253 298 363
#     4  10  26  42  56  88 130 168 196 258 314 380
#     4  10  22  40  58  89 122 154 196 251 306 362
#     4  11  21  42  62  91 124 160 207 252 312 362
#     4  10  20  38  62  85 114 156 200 247 308 364
#
# _framework density 19.860223000000001
#
# number of rings (size 3 to 8) (size 9 to 14) (size 15 to 20)
#    0.000    1.714    2.857    1.714    0.000    0.000 
#   18.000    0.000    0.000    0.000    0.000    0.000 
#    0.000    0.000    0.000    0.000    0.000    0.000 
#
# Total GULP energy -347285.402046 kJ/mol
# GULP energy per Si atom -12403.050073 kJ/mol
# Density = 1.981502 g / cm^3
# Si number density = 19.860223 Si / 1000 Ang^3
#
#
#
# Elastic Constant Matrix: (Units=GPa)
#
#
# Indices 1 2 3 4 5 6 
#
# 1 69.7606 49.2495 32.6485 0.0000 0.0000 0.0000
# 2 49.2495 173.5107 78.9035 0.0000 0.0000 0.0000
# 3 32.6485 78.9035 163.7823 0.0000 0.0000 0.0000
# 4 0.0000 0.0000 0.0000 38.7640 0.0000 0.0000
# 5 0.0000 0.0000 0.0000 0.0000 10.0537 0.0000
# 6 0.0000 0.0000 0.0000 0.0000 0.0000 15.5376
#
#
#
# Elastic Compliance Matrix: (Units=1/GPa)
#
#
# Indices 1 2 3 4 5 6 
#
# 1 0.018195 -0.004501 -0.001458 0.000000 0.000000 0.000000
# 2 -0.004501 0.008494 -0.003195 0.000000 0.000000 0.000000
# 3 -0.001458 -0.003195 0.007935 0.000000 0.000000 0.000000
# 4 0.000000 0.000000 0.000000 0.025797 0.000000 0.000000
# 5 0.000000 0.000000 0.000000 0.000000 0.099466 0.000000
# 6 0.000000 0.000000 0.000000 0.000000 0.000000 0.064360
#
#
# Mechanical properties :
#
#
# Convention : Reuss Voigt Hill
#
# Bulk Modulus (GPa) = 61.29148 80.96184 71.12666
# Shear Modulus (GPa) = 20.16175 29.28789 24.72482
#
# Velocity S-wave (km/s) = 3.18965 3.84435 3.53220
# Velocity P-wave (km/s) = 6.67035 7.78201 7.24753
#
# Compressibility (1/GPa) = 0.01631548
#
# Stress axis : x y z
#
# Youngs Moduli (GPa) = 54.95972 117.73385 126.01689
#
# Poissons Ratio (x) = 0.52995 0.18380
# Poissons Ratio (y) = 0.24739 0.40258
# Poissons Ratio (z) = 0.08016 0.37612
#
# Static dielectric constant tensor:
#      x y z
#    x 3.462210 0.000000 0.000000 
#    y 0.000000 3.672800 0.000000 
#    z 0.000000 0.000000 3.622920 
# 
# 
# High freq. dielectric constant tensor:
#      x y z
#    x 1.754940 0.000000 0.000000 
#    y 0.000000 1.790400 0.000000 
#    z 0.000000 0.000000 1.779610 
# 
# From -- ./inp_files/13435.got.cif
#   From: 2010.03.12/outbox.cif.g09.slc.cpg/sg66_7_cif.got.tgz:13435.got - 2010.04.10 21:57:39.
