data_PCOD8276912
_publ_section_title
;
Structure prediction by ZEFSAII (Michael W. Deem and Ramdas Pophale) SiO2 
 PCOD8276912
Probable space group: C C C M
;
_chemical_formula_sum "Si O2"
_cell_formula_units_Z 80
_cell_length_a 9.081145
_cell_length_b 17.185854
_cell_length_c 22.274067
_cell_angle_alpha 90.000000
_cell_angle_beta 90.000000
_cell_angle_gamma 90.000000
_cell_volume 3476.251985
_symmetry_space_group_name_H-M "C C C M"
_symmetry_group_IT_number 66
_symmetry_cell_setting 'orthorhombic'
loop_
_space_group_symop_operation_xyz
x,y,z
-x,-y,z
x,-y,1/2-z
-x,y,1/2-z
-x,-y,-z
x,y,-z
-x,y,1/2+z
x,-y,1/2+z
1/2+x,1/2+y,z
1/2-x,1/2-y,z
1/2+x,1/2-y,1/2-z
1/2-x,1/2+y,1/2-z
1/2-x,1/2-y,-z
1/2+x,1/2+y,-z
1/2-x,1/2+y,1/2+z
1/2+x,1/2-y,1/2+z
loop_
_atom_site_type_symbol
_atom_site_label
_atom_site_fract_x
_atom_site_fract_y
_atom_site_fract_z
Si Si1 0.928375 0.818697 0.000000
Si Si2 0.888678 0.397791 0.372429
Si Si3 0.750000 0.750000 0.097988
Si Si4 0.744880 0.124365 0.000000
Si Si5 0.161964 0.982380 0.180195
Si Si6 0.322565 0.056502 0.000000
Si Si7 0.802690 0.335855 0.132318
O O1 0.896538 0.764292 0.942267
O O2 0.085284 0.855144 0.000000
O O3 0.822028 0.892329 0.000000
O O4 0.777342 0.325874 0.362489
O O5 0.804293 0.470885 0.344138
O O6 0.920107 0.421650 0.441882
O O7 0.040560 0.368471 0.341876
O O8 0.680520 0.162811 0.939900
O O9 0.725194 0.032374 0.000000
O O10 0.182126 0.892839 0.161338
O O11 0.156561 0.000000 0.250000
O O12 0.000000 0.000000 0.152035
O O13 0.750000 0.250000 0.153257
#
# Coordination Sequence:
#
# PCOD8276912 Si02
#       7
#     8  16   8   8  16   8  16
#     4   9  19  33  53  94 141 187 224 272 333 402
#     4  11  23  42  71  99 142 185 224 286 348 419
#     4   9  20  36  60  96 136 178 230 275 334 412
#     4  12  22  35  63  99 153 185 224 284 342 424
#     4  11  28  52  73  99 134 178 238 302 357 418
#     4  10  21  34  63 102 136 184 233 270 342 423
#     4  12  27  43  70 109 146 185 234 283 350 424
#
# _framework density 23.013290999999999
#
# number of rings (size 3 to 8) (size 9 to 14) (size 15 to 20)
#    0.000    1.200    2.000    3.600    8.400    2.400 
#    1.800    0.000    0.000    0.000    0.000    0.000 
#    0.000    0.000    0.000    0.000    0.000    0.000 
#
# Total GULP energy -495663.794930 kJ/mol
# GULP energy per Si atom -12391.594873 kJ/mol
# Density = 2.296091 g / cm^3
# Si number density = 23.013291 Si / 1000 Ang^3
#
#
#
# Elastic Constant Matrix: (Units=GPa)
#
#
# Indices 1 2 3 4 5 6 
#
# 1 147.4168 54.8591 11.9935 0.0000 0.0000 0.0000
# 2 54.8591 183.7236 21.4886 0.0000 0.0000 0.0000
# 3 11.9935 21.4886 55.9166 0.0000 0.0000 0.0000
# 4 0.0000 0.0000 0.0000 6.6654 0.0000 0.0000
# 5 0.0000 0.0000 0.0000 0.0000 73.2082 0.0000
# 6 0.0000 0.0000 0.0000 0.0000 0.0000 31.8215
#
#
#
# Elastic Compliance Matrix: (Units=1/GPa)
#
#
# Indices 1 2 3 4 5 6 
#
# 1 0.007666 -0.002195 -0.000801 0.000000 0.000000 0.000000
# 2 -0.002195 0.006328 -0.001961 0.000000 0.000000 0.000000
# 3 -0.000801 -0.001961 0.018809 0.000000 0.000000 0.000000
# 4 0.000000 0.000000 0.000000 0.150028 0.000000 0.000000
# 5 0.000000 0.000000 0.000000 0.000000 0.013660 0.000000
# 6 0.000000 0.000000 0.000000 0.000000 0.000000 0.031425
#
#
# Mechanical properties :
#
#
# Convention : Reuss Voigt Hill
#
# Bulk Modulus (GPa) = 43.68913 62.63773 53.16343
# Shear Modulus (GPa) = 20.37005 42.25342 31.31173
#
# Velocity S-wave (km/s) = 2.97836 4.28956 3.69262
# Velocity P-wave (km/s) = 5.55455 7.19798 6.42899
#
# Compressibility (1/GPa) = 0.02288899
#
# Stress axis : x y z
#
# Youngs Moduli (GPa) = 130.45364 158.03254 53.16590
#
# Poissons Ratio (x) = 0.34692 0.04256
# Poissons Ratio (y) = 0.28638 0.10425
# Poissons Ratio (z) = 0.10443 0.30989
#
# Static dielectric constant tensor:
#      x y z
#    x 4.274540 0.000000 0.000000 
#    y 0.000000 4.459590 0.000000 
#    z 0.000000 0.000000 3.643910 
# 
# 
# High freq. dielectric constant tensor:
#      x y z
#    x 1.924170 0.000000 0.000000 
#    y 0.000000 1.936170 0.000000 
#    z 0.000000 0.000000 1.858580 
# 
# From -- ./inp_files/62488.got.cif
#   From: 2010.03.12/outbox.cif.g09.slc.cpg/sg66_32_cif.got.tgz:62488.got - 2010.04.10 21:57:39.
