data_PCOD8276857
_publ_section_title
;
Structure prediction by ZEFSAII (Michael W. Deem and Ramdas Pophale) SiO2 
 PCOD8276857
Probable space group: C C C M
;
_chemical_formula_sum "Si O2"
_cell_formula_units_Z 92
_cell_length_a 7.688058
_cell_length_b 19.359044
_cell_length_c 28.595016
_cell_angle_alpha 90.000000
_cell_angle_beta 90.000000
_cell_angle_gamma 90.000000
_cell_volume 4255.894973
_symmetry_space_group_name_H-M "C C C M"
_symmetry_group_IT_number 66
_symmetry_cell_setting 'orthorhombic'
loop_
_space_group_symop_operation_xyz
x,y,z
-x,-y,z
x,-y,1/2-z
-x,y,1/2-z
-x,-y,-z
x,y,-z
-x,y,1/2+z
x,-y,1/2+z
1/2+x,1/2+y,z
1/2-x,1/2-y,z
1/2+x,1/2-y,1/2-z
1/2-x,1/2+y,1/2-z
1/2-x,1/2-y,-z
1/2+x,1/2+y,-z
1/2-x,1/2+y,1/2+z
1/2+x,1/2-y,1/2+z
loop_
_atom_site_type_symbol
_atom_site_label
_atom_site_fract_x
_atom_site_fract_y
_atom_site_fract_z
Si Si1 0.334775 0.321962 0.446294
Si Si2 0.410835 0.358114 0.133162
Si Si3 0.500000 0.500000 0.879152
Si Si4 0.651674 0.953497 0.413170
Si Si5 0.000000 0.500000 0.250000
Si Si6 0.940891 0.401711 0.328968
Si Si7 0.950123 0.254594 0.800582
O O1 0.390587 0.315314 0.500000
O O2 0.250000 0.250000 0.428367
O O3 0.511793 0.339280 0.417934
O O4 0.189994 0.382206 0.440447
O O5 0.507901 0.428716 0.150749
O O6 0.209083 0.379581 0.134368
O O7 0.438195 0.292789 0.165437
O O8 0.673608 0.500215 0.911410
O O9 0.592411 0.936560 0.359857
O O10 0.500000 0.000000 0.437717
O O11 0.115218 0.547710 0.285633
O O12 0.004600 0.333835 0.303613
O O13 0.750000 0.250000 0.813221
O O14 0.000000 0.225800 0.750000
#
# Coordination Sequence:
#
# PCOD8276857 Si02
#       7
#    16  16   8  16   4  16  16
#     4  10  23  45  73 103 138 182 235 296 364 432
#     4  11  22  42  67  98 134 183 226 287 348 422
#     4  10  20  40  64  96 130 176 232 270 346 410
#     4  11  21  40  70 101 137 184 229 288 355 425
#     4  12  24  40  68  98 138 186 226 300 328 414
#     4  12  23  42  67  97 141 184 228 289 350 414
#     4  12  25  41  63  95 133 179 236 283 344 418
#
# _framework density 21.617075
#
# number of rings (size 3 to 8) (size 9 to 14) (size 15 to 20)
#    0.000    0.870    3.478    5.217    0.000    0.348 
#    0.000    7.826    0.000    4.174    0.000    0.000 
#    0.000    0.000    0.000    0.000    0.000    0.000 
#
# Total GULP energy -569883.576656 kJ/mol
# GULP energy per Si atom -12388.773406 kJ/mol
# Density = 2.156787 g / cm^3
# Si number density = 21.617075 Si / 1000 Ang^3
#
#
#
# Elastic Constant Matrix: (Units=GPa)
#
#
# Indices 1 2 3 4 5 6 
#
# 1 138.6951 40.8700 33.9712 0.0000 0.0000 0.0000
# 2 40.8700 144.5947 37.3614 0.0000 0.0000 0.0000
# 3 33.9712 37.3614 99.6085 0.0000 0.0000 0.0000
# 4 0.0000 0.0000 0.0000 37.6406 0.0000 0.0000
# 5 0.0000 0.0000 0.0000 0.0000 27.8254 0.0000
# 6 0.0000 0.0000 0.0000 0.0000 0.0000 36.0454
#
#
#
# Elastic Compliance Matrix: (Units=1/GPa)
#
#
# Indices 1 2 3 4 5 6 
#
# 1 0.008261 -0.001779 -0.002150 0.000000 0.000000 0.000000
# 2 -0.001779 0.008041 -0.002409 0.000000 0.000000 0.000000
# 3 -0.002150 -0.002409 0.011676 0.000000 0.000000 0.000000
# 4 0.000000 0.000000 0.000000 0.026567 0.000000 0.000000
# 5 0.000000 0.000000 0.000000 0.000000 0.035938 0.000000
# 6 0.000000 0.000000 0.000000 0.000000 0.000000 0.027743
#
#
# Mechanical properties :
#
#
# Convention : Reuss Voigt Hill
#
# Bulk Modulus (GPa) = 65.35439 67.47816 66.41627
# Shear Modulus (GPa) = 36.76345 38.34868 37.55606
#
# Velocity S-wave (km/s) = 4.12839 4.21646 4.17265
# Velocity P-wave (km/s) = 7.28170 7.41537 7.34884
#
# Compressibility (1/GPa) = 0.01530119
#
# Stress axis : x y z
#
# Youngs Moduli (GPa) = 121.05043 124.35672 85.64412
#
# Poissons Ratio (x) = 0.22129 0.18413
# Poissons Ratio (y) = 0.21541 0.20634
# Poissons Ratio (z) = 0.26025 0.29961
#
# Static dielectric constant tensor:
#      x y z
#    x 3.976630 0.000000 0.000000 
#    y 0.000000 4.430930 0.000000 
#    z 0.000000 0.000000 3.578100 
# 
# 
# High freq. dielectric constant tensor:
#      x y z
#    x 1.840710 0.000000 0.000000 
#    y 0.000000 1.887110 0.000000 
#    z 0.000000 0.000000 1.814280 
# 
# From -- ./inp_files/62635.got.cif
#   From: 2010.03.12/outbox.cif.g09.slc.cpg/sg66_32_cif.got.tgz:62635.got - 2010.04.10 21:57:39.
