data_PCOD8276611
_publ_section_title
;
Structure prediction by ZEFSAII (Michael W. Deem and Ramdas Pophale) SiO2 
 PCOD8276611
Probable space group: C C C M
;
_chemical_formula_sum "Si O2"
_cell_formula_units_Z 96
_cell_length_a 20.538991
_cell_length_b 27.398932
_cell_length_c 8.796184
_cell_angle_alpha 90.000000
_cell_angle_beta 90.000000
_cell_angle_gamma 90.000000
_cell_volume 4950.021036
_symmetry_space_group_name_H-M "C C C M"
_symmetry_group_IT_number 66
_symmetry_cell_setting 'orthorhombic'
loop_
_space_group_symop_operation_xyz
x,y,z
-x,-y,z
x,-y,1/2-z
-x,y,1/2-z
-x,-y,-z
x,y,-z
-x,y,1/2+z
x,-y,1/2+z
1/2+x,1/2+y,z
1/2-x,1/2-y,z
1/2+x,1/2-y,1/2-z
1/2-x,1/2+y,1/2-z
1/2-x,1/2-y,-z
1/2+x,1/2+y,-z
1/2-x,1/2+y,1/2+z
1/2+x,1/2-y,1/2+z
loop_
_atom_site_type_symbol
_atom_site_label
_atom_site_fract_x
_atom_site_fract_y
_atom_site_fract_z
Si Si1 0.931684 0.100867 0.320121
Si Si2 0.312291 0.119194 0.677176
Si Si3 0.432874 0.287427 0.178990
Si Si4 0.813935 0.276088 0.319865
Si Si5 0.807760 0.948583 0.320317
Si Si6 0.066943 0.447900 0.679359
O O1 0.933517 0.093686 0.500000
O O2 0.917882 0.156886 0.273498
O O3 0.875979 0.067560 0.249853
O O4 0.000000 0.083399 0.250000
O O5 0.311975 0.131786 0.500000
O O6 0.315369 0.168300 0.771561
O O7 0.247653 0.090105 0.724681
O O8 0.375442 0.088425 0.723160
O O9 0.500000 0.268784 0.250000
O O10 0.376121 0.253076 0.245153
O O11 0.439044 0.282738 0.000000
O O12 0.813699 0.273168 0.500000
O O13 0.750000 0.250000 0.252532
O O14 0.814615 0.953908 0.500000
O O15 0.786549 0.000000 0.250000
O O16 0.084260 0.500000 0.750000
O O17 0.058822 0.453824 0.500000
O O18 0.000000 0.427115 0.750000
#
# Coordination Sequence:
#
# PCOD8276611 Si02
#       6
#    16  16  16  16  16  16
#     4  10  20  37  60  85 114 147 183 225 273 324
#     4  10  23  39  56  81 112 145 183 228 276 327
#     4   9  19  35  56  82 111 144 181 222 269 322
#     4  10  21  37  57  81 109 143 184 227 271 322
#     4  11  23  39  58  82 111 144 184 228 276 328
#     4  10  20  36  57  82 111 144 183 225 273 327
#
# _framework density 19.393858000000002
#
# number of rings (size 3 to 8) (size 9 to 14) (size 15 to 20)
#    0.000    2.000    0.000    3.500    0.000    6.667 
#    0.000    5.000    0.000    0.000    0.000    0.000 
#    0.000    0.000    0.000    0.000    0.000    0.000 
#
# Total GULP energy -595396.409568 kJ/mol
# GULP energy per Si atom -12404.091866 kJ/mol
# Density = 1.934972 g / cm^3
# Si number density = 19.393858 Si / 1000 Ang^3
#
#
#
# Elastic Constant Matrix: (Units=GPa)
#
#
# Indices 1 2 3 4 5 6 
#
# 1 131.4313 47.6704 34.5387 0.0000 0.0000 0.0000
# 2 47.6704 81.1158 26.2115 0.0000 0.0000 0.0000
# 3 34.5387 26.2115 57.1781 0.0000 0.0000 0.0000
# 4 0.0000 0.0000 0.0000 33.4510 0.0000 0.0000
# 5 0.0000 0.0000 0.0000 0.0000 2.3990 0.0000
# 6 0.0000 0.0000 0.0000 0.0000 0.0000 39.8575
#
#
#
# Elastic Compliance Matrix: (Units=1/GPa)
#
#
# Indices 1 2 3 4 5 6 
#
# 1 0.010428 -0.004804 -0.004096 0.000000 0.000000 0.000000
# 2 -0.004804 0.016685 -0.004747 0.000000 0.000000 0.000000
# 3 -0.004096 -0.004747 0.022140 0.000000 0.000000 0.000000
# 4 0.000000 0.000000 0.000000 0.029894 0.000000 0.000000
# 5 0.000000 0.000000 0.000000 0.000000 0.416841 0.000000
# 6 0.000000 0.000000 0.000000 0.000000 0.000000 0.025089
#
#
# Mechanical properties :
#
#
# Convention : Reuss Voigt Hill
#
# Bulk Modulus (GPa) = 45.54253 54.06294 49.80274
# Shear Modulus (GPa) = 8.99780 25.89514 17.44647
#
# Velocity S-wave (km/s) = 2.15629 3.65804 3.00257
# Velocity P-wave (km/s) = 5.45283 6.76598 6.14459
#
# Compressibility (1/GPa) = 0.02195750
#
# Stress axis : x y z
#
# Youngs Moduli (GPa) = 95.89921 59.93269 45.16776
#
# Poissons Ratio (x) = 0.28794 0.18503
# Poissons Ratio (y) = 0.46074 0.21440
# Poissons Ratio (z) = 0.39284 0.28448
#
# Static dielectric constant tensor:
#      x y z
#    x 3.876100 0.000000 0.000000 
#    y 0.000000 3.506150 0.000000 
#    z 0.000000 0.000000 3.488380 
# 
# 
# High freq. dielectric constant tensor:
#      x y z
#    x 1.772950 0.000000 0.000000 
#    y 0.000000 1.755270 0.000000 
#    z 0.000000 0.000000 1.754170 
# 
# From -- ./inp_files/8027.got.cif
#   From: 2010.03.12/outbox.cif.g09.slc.cpg/sg66_5_cif.got.tgz:8027.got - 2010.04.10 21:57:39.
