data_PCOD8276811
_publ_section_title
;
Structure prediction by ZEFSAII (Michael W. Deem and Ramdas Pophale) SiO2 
 PCOD8276811
Probable space group: C C C M
;
_chemical_formula_sum "Si O2"
_cell_formula_units_Z 80
_cell_length_a 17.930668
_cell_length_b 8.737968
_cell_length_c 24.958873
_cell_angle_alpha 90.000000
_cell_angle_beta 90.000000
_cell_angle_gamma 90.000000
_cell_volume 3910.496400
_symmetry_space_group_name_H-M "C C C M"
_symmetry_group_IT_number 66
_symmetry_cell_setting 'orthorhombic'
loop_
_space_group_symop_operation_xyz
x,y,z
-x,-y,z
x,-y,1/2-z
-x,y,1/2-z
-x,-y,-z
x,y,-z
-x,y,1/2+z
x,-y,1/2+z
1/2+x,1/2+y,z
1/2-x,1/2-y,z
1/2+x,1/2-y,1/2-z
1/2-x,1/2+y,1/2-z
1/2-x,1/2-y,-z
1/2+x,1/2+y,-z
1/2-x,1/2+y,1/2+z
1/2+x,1/2-y,1/2+z
loop_
_atom_site_type_symbol
_atom_site_label
_atom_site_fract_x
_atom_site_fract_y
_atom_site_fract_z
Si Si1 0.333993 0.791546 0.560942
Si Si2 0.923564 0.413984 0.938882
Si Si3 0.074039 0.803578 0.157809
Si Si4 0.903007 0.148947 0.658875
Si Si5 0.673458 0.177743 0.754067
O O1 0.349379 0.740953 0.500000
O O2 0.250000 0.750000 0.577956
O O3 0.389368 0.694782 0.597580
O O4 0.353013 0.971591 0.568239
O O5 0.912201 0.267687 0.900925
O O6 0.000000 0.500000 0.922850
O O7 0.928349 0.354502 0.000000
O O8 0.109182 0.695351 0.202256
O O9 0.987793 0.814817 0.172993
O O10 0.113213 0.968529 0.162874
O O11 0.849165 0.243826 0.697908
O O12 0.750000 0.250000 0.774985
O O13 0.687861 0.000000 0.750000
#
# Coordination Sequence:
#
# PCOD8276811 Si02
#       5
#    16  16  16  16  16
#     4  10  21  38  62  91 125 166 213 262 317 381
#     4  10  20  38  63  92 126 165 215 263 315 382
#     4  11  24  39  63  93 126 162 213 264 314 381
#     4  11  23  41  62  92 128 165 209 265 319 379
#     4  12  26  43  65  89 123 166 211 262 323 386
#
# _framework density 20.457761000000001
#
# number of rings (size 3 to 8) (size 9 to 14) (size 15 to 20)
#    0.000    1.200    2.000    4.200    0.000    4.800 
#    0.000    2.000    0.000    4.200    0.000    0.000 
#    0.000    0.000    0.000    0.000    0.000    0.000 
#
# Total GULP energy -496157.489681 kJ/mol
# GULP energy per Si atom -12403.937242 kJ/mol
# Density = 2.041120 g / cm^3
# Si number density = 20.457761 Si / 1000 Ang^3
#
#
#
# Elastic Constant Matrix: (Units=GPa)
#
#
# Indices 1 2 3 4 5 6 
#
# 1 94.1634 49.7419 33.7576 0.0000 0.0000 0.0000
# 2 49.7419 131.9534 46.2645 0.0000 0.0000 0.0000
# 3 33.7576 46.2645 102.5910 0.0000 0.0000 0.0000
# 4 0.0000 0.0000 0.0000 34.9906 0.0000 0.0000
# 5 0.0000 0.0000 0.0000 0.0000 29.4690 0.0000
# 6 0.0000 0.0000 0.0000 0.0000 0.0000 33.9389
#
#
#
# Elastic Compliance Matrix: (Units=1/GPa)
#
#
# Indices 1 2 3 4 5 6 
#
# 1 0.013826 -0.004296 -0.002612 0.000000 0.000000 0.000000
# 2 -0.004296 0.010337 -0.003248 0.000000 0.000000 0.000000
# 3 -0.002612 -0.003248 0.012072 0.000000 0.000000 0.000000
# 4 0.000000 0.000000 0.000000 0.028579 0.000000 0.000000
# 5 0.000000 0.000000 0.000000 0.000000 0.033934 0.000000
# 6 0.000000 0.000000 0.000000 0.000000 0.000000 0.029465
#
#
# Mechanical properties :
#
#
# Convention : Reuss Voigt Hill
#
# Bulk Modulus (GPa) = 62.80547 65.35953 64.08250
# Shear Modulus (GPa) = 32.50329 32.94259 32.72294
#
# Velocity S-wave (km/s) = 3.99030 4.01717 4.00376
# Velocity P-wave (km/s) = 7.21087 7.31675 7.26400
#
# Compressibility (1/GPa) = 0.01592218
#
# Stress axis : x y z
#
# Youngs Moduli (GPa) = 72.32960 96.74371 82.83933
#
# Poissons Ratio (x) = 0.41561 0.21638
# Poissons Ratio (y) = 0.31073 0.26905
# Poissons Ratio (z) = 0.18893 0.31420
#
# Static dielectric constant tensor:
#      x y z
#    x 3.738940 0.000000 0.000000 
#    y 0.000000 3.713650 0.000000 
#    z 0.000000 0.000000 3.741990 
# 
# 
# High freq. dielectric constant tensor:
#      x y z
#    x 1.802960 0.000000 0.000000 
#    y 0.000000 1.797230 0.000000 
#    z 0.000000 0.000000 1.809560 
# 
# From -- ./inp_files/65065.got.cif
#   From: 2010.03.12/outbox.cif.g09.slc.cpg/sg66_33_cif.got.tgz:65065.got - 2010.04.10 21:57:39.
