data_PCOD8276712
_publ_section_title
;
Structure prediction by ZEFSAII (Michael W. Deem and Ramdas Pophale) SiO2 
 PCOD8276712
Probable space group: C C C M
;
_chemical_formula_sum "Si O2"
_cell_formula_units_Z 80
_cell_length_a 12.140858
_cell_length_b 12.136957
_cell_length_c 26.212921
_cell_angle_alpha 90.000000
_cell_angle_beta 90.000000
_cell_angle_gamma 90.000000
_cell_volume 3862.554422
_symmetry_space_group_name_H-M "C C C M"
_symmetry_group_IT_number 66
_symmetry_cell_setting 'orthorhombic'
loop_
_space_group_symop_operation_xyz
x,y,z
-x,-y,z
x,-y,1/2-z
-x,y,1/2-z
-x,-y,-z
x,y,-z
-x,y,1/2+z
x,-y,1/2+z
1/2+x,1/2+y,z
1/2-x,1/2-y,z
1/2+x,1/2-y,1/2-z
1/2-x,1/2+y,1/2-z
1/2-x,1/2-y,-z
1/2+x,1/2+y,-z
1/2-x,1/2+y,1/2+z
1/2+x,1/2-y,1/2+z
loop_
_atom_site_type_symbol
_atom_site_label
_atom_site_fract_x
_atom_site_fract_y
_atom_site_fract_z
Si Si1 0.429255 0.679215 0.876683
Si Si2 0.248605 0.072149 0.441652
Si Si3 0.829650 0.147548 0.396995
Si Si4 0.399467 0.918610 0.148581
Si Si5 0.822278 0.992654 0.691545
O O1 0.331214 0.667205 0.918310
O O2 0.543782 0.677411 0.907125
O O3 0.430058 0.791472 0.844203
O O4 0.415787 0.581130 0.835787
O O5 0.273414 0.100118 0.500000
O O6 0.362769 0.066787 0.410402
O O7 0.194538 0.951675 0.435960
O O8 0.750000 0.250000 0.408474
O O9 0.816196 0.110024 0.337703
O O10 0.500000 0.000000 0.161455
O O11 0.299031 0.939715 0.187228
O O12 0.856765 0.000000 0.750000
#
# Coordination Sequence:
#
# PCOD8276712 Si02
#       5
#    16  16  16  16  16
#     4  10  20  37  59  81 111 149 186 231 283 337
#     4  10  21  37  57  81 110 147 190 233 281 341
#     4  10  21  37  56  81 113 148 186 233 286 336
#     4  10  21  39  58  81 115 147 183 233 286 339
#     4  10  21  37  57  83 112 146 190 231 276 339
#
# _framework density 20.711680999999999
#
# number of rings (size 3 to 8) (size 9 to 14) (size 15 to 20)
#    0.000    2.400    0.000    7.200    0.000    7.600 
#    0.000    4.000    0.000    0.000    0.000    0.000 
#    0.000    0.000    0.000    0.000    0.000    0.000 
#
# Total GULP energy -495866.491648 kJ/mol
# GULP energy per Si atom -12396.662291 kJ/mol
# Density = 2.066454 g / cm^3
# Si number density = 20.711681 Si / 1000 Ang^3
#
#
#
# Elastic Constant Matrix: (Units=GPa)
#
#
# Indices 1 2 3 4 5 6 
#
# 1 97.6190 23.2590 -15.1541 0.0000 0.0000 0.0000
# 2 23.2590 94.2294 -19.1310 0.0000 0.0000 0.0000
# 3 -15.1541 -19.1310 97.3971 0.0000 0.0000 0.0000
# 4 0.0000 0.0000 0.0000 12.5421 0.0000 0.0000
# 5 0.0000 0.0000 0.0000 0.0000 11.8591 0.0000
# 6 0.0000 0.0000 0.0000 0.0000 0.0000 40.0599
#
#
#
# Elastic Compliance Matrix: (Units=1/GPa)
#
#
# Indices 1 2 3 4 5 6 
#
# 1 0.011024 -0.002471 0.001230 0.000000 0.000000 0.000000
# 2 -0.002471 0.011607 0.001895 0.000000 0.000000 0.000000
# 3 0.001230 0.001895 0.010831 0.000000 0.000000 0.000000
# 4 0.000000 0.000000 0.000000 0.079732 0.000000 0.000000
# 5 0.000000 0.000000 0.000000 0.000000 0.084323 0.000000
# 6 0.000000 0.000000 0.000000 0.000000 0.000000 0.024963
#
#
# Mechanical properties :
#
#
# Convention : Reuss Voigt Hill
#
# Bulk Modulus (GPa) = 28.76094 29.68815 29.22454
# Shear Modulus (GPa) = 21.48124 32.91034 27.19579
#
# Velocity S-wave (km/s) = 3.22398 3.99052 3.62756
# Velocity P-wave (km/s) = 5.27022 5.96636 5.62906
#
# Compressibility (1/GPa) = 0.03476938
#
# Stress axis : x y z
#
# Youngs Moduli (GPa) = 90.71420 86.15329 92.32859
#
# Poissons Ratio (x) = 0.21291 -0.11354
# Poissons Ratio (y) = 0.22418 -0.17500
# Poissons Ratio (z) = -0.11156 -0.16330
#
# Static dielectric constant tensor:
#      x y z
#    x 3.748330 0.000000 0.000000 
#    y 0.000000 3.855620 0.000000 
#    z 0.000000 0.000000 3.396690 
# 
# 
# High freq. dielectric constant tensor:
#      x y z
#    x 1.817960 0.000000 0.000000 
#    y 0.000000 1.819190 0.000000 
#    z 0.000000 0.000000 1.773380 
# 
# From -- ./inp_files/68744.got.cif
#   From: 2010.03.12/outbox.cif.g09.slc.cpg/sg66_35_cif.got.tgz:68744.got - 2010.04.10 21:57:39.
