data_PCOD8276241
_publ_section_title
;
Structure prediction by ZEFSAII (Michael W. Deem and Ramdas Pophale) SiO2 
 PCOD8276241
Probable space group: C C C M
;
_chemical_formula_sum "Si O2"
_cell_formula_units_Z 64
_cell_length_a 16.909157
_cell_length_b 7.403716
_cell_length_c 26.352233
_cell_angle_alpha 90.000000
_cell_angle_beta 90.000000
_cell_angle_gamma 90.000000
_cell_volume 3299.051761
_symmetry_space_group_name_H-M "C C C M"
_symmetry_group_IT_number 66
_symmetry_cell_setting 'orthorhombic'
loop_
_space_group_symop_operation_xyz
x,y,z
-x,-y,z
x,-y,1/2-z
-x,y,1/2-z
-x,-y,-z
x,y,-z
-x,y,1/2+z
x,-y,1/2+z
1/2+x,1/2+y,z
1/2-x,1/2-y,z
1/2+x,1/2-y,1/2-z
1/2-x,1/2+y,1/2-z
1/2-x,1/2-y,-z
1/2+x,1/2+y,-z
1/2-x,1/2+y,1/2+z
1/2+x,1/2-y,1/2+z
loop_
_atom_site_type_symbol
_atom_site_label
_atom_site_fract_x
_atom_site_fract_y
_atom_site_fract_z
Si Si1 0.410607 0.514140 0.867907
Si Si2 0.238950 0.957460 0.307751
Si Si3 0.158816 0.723305 0.441766
Si Si4 0.326040 0.851833 0.102973
O O1 0.500000 0.500000 0.848206
O O2 0.352167 0.504022 0.819841
O O3 0.394426 0.355167 0.908139
O O4 0.397675 0.710018 0.893364
O O5 0.250000 0.750000 0.320843
O O6 0.259427 0.000000 0.250000
O O7 0.298878 0.073988 0.341923
O O8 0.141611 0.770425 0.500000
O O9 0.250000 0.750000 0.426869
O O10 0.140224 0.512885 0.431585
O O11 0.250000 0.750000 0.077748
#
# Coordination Sequence:
#
# PCOD8276241 Si02
#       4
#    16  16  16  16
#     4  11  23  39  58  87 127 156 190 248 302 352
#     4  11  20  39  64  87 115 153 202 245 290 352
#     4  11  21  38  63  89 118 157 205 251 288 348
#     4  10  19  38  60  88 114 153 200 241 292 344
#
# _framework density 19.399512999999999
#
# number of rings (size 3 to 8) (size 9 to 14) (size 15 to 20)
#    0.000    1.250    7.500    2.250    0.000    3.500 
#    0.000    1.250    0.000    0.000    0.000    0.000 
#    0.000    0.000    0.000    0.000    0.000    0.000 
#
# Total GULP energy -396812.958216 kJ/mol
# GULP energy per Si atom -12400.404944 kJ/mol
# Density = 1.935536 g / cm^3
# Si number density = 19.399513 Si / 1000 Ang^3
#
#
#
# Elastic Constant Matrix: (Units=GPa)
#
#
# Indices 1 2 3 4 5 6 
#
# 1 76.7550 20.6270 2.7292 0.0000 0.0000 0.0000
# 2 20.6270 138.5332 7.5013 0.0000 0.0000 0.0000
# 3 2.7292 7.5013 66.1427 0.0000 0.0000 0.0000
# 4 0.0000 0.0000 0.0000 19.5260 0.0000 0.0000
# 5 0.0000 0.0000 0.0000 0.0000 15.3680 0.0000
# 6 0.0000 0.0000 0.0000 0.0000 0.0000 21.4690
#
#
#
# Elastic Compliance Matrix: (Units=1/GPa)
#
#
# Indices 1 2 3 4 5 6 
#
# 1 0.013579 -0.002004 -0.000333 0.000000 0.000000 0.000000
# 2 -0.002004 0.007559 -0.000775 0.000000 0.000000 0.000000
# 3 -0.000333 -0.000775 0.015220 0.000000 0.000000 0.000000
# 4 0.000000 0.000000 0.000000 0.051214 0.000000 0.000000
# 5 0.000000 0.000000 0.000000 0.000000 0.065070 0.000000
# 6 0.000000 0.000000 0.000000 0.000000 0.000000 0.046579
#
#
# Mechanical properties :
#
#
# Convention : Reuss Voigt Hill
#
# Bulk Modulus (GPa) = 33.18378 38.12732 35.65555
# Shear Modulus (GPa) = 23.20307 27.97750 25.59028
#
# Velocity S-wave (km/s) = 3.46217 3.80172 3.63591
# Velocity P-wave (km/s) = 5.75541 6.24237 6.00383
#
# Compressibility (1/GPa) = 0.03013520
#
# Stress axis : x y z
#
# Youngs Moduli (GPa) = 73.64424 132.29646 65.70125
#
# Poissons Ratio (x) = 0.26509 0.02188
# Poissons Ratio (y) = 0.14757 0.05089
# Poissons Ratio (z) = 0.02453 0.10247
#
# Static dielectric constant tensor:
#      x y z
#    x 3.228160 0.000000 0.000000 
#    y 0.000000 4.048540 0.000000 
#    z 0.000000 0.000000 3.349070 
# 
# 
# High freq. dielectric constant tensor:
#      x y z
#    x 1.718190 0.000000 0.000000 
#    y 0.000000 1.786190 0.000000 
#    z 0.000000 0.000000 1.741320 
# 
# From -- ./inp_files/69765.got.cif
#   From: 2010.03.12/outbox.cif.g09.slc.cpg/sg66_35_cif.got.tgz:69765.got - 2010.04.10 21:57:39.
