data_PCOD8276158
_publ_section_title
;
Structure prediction by ZEFSAII (Michael W. Deem and Ramdas Pophale) SiO2 
 PCOD8276158
Probable space group: C C C M
;
_chemical_formula_sum "Si O2"
_cell_formula_units_Z 64
_cell_length_a 21.138993
_cell_length_b 8.728691
_cell_length_c 15.938124
_cell_angle_alpha 90.000000
_cell_angle_beta 90.000000
_cell_angle_gamma 90.000000
_cell_volume 2940.834711
_symmetry_space_group_name_H-M "C C C M"
_symmetry_group_IT_number 66
_symmetry_cell_setting 'orthorhombic'
loop_
_space_group_symop_operation_xyz
x,y,z
-x,-y,z
x,-y,1/2-z
-x,y,1/2-z
-x,-y,-z
x,y,-z
-x,y,1/2+z
x,-y,1/2+z
1/2+x,1/2+y,z
1/2-x,1/2-y,z
1/2+x,1/2-y,1/2-z
1/2-x,1/2+y,1/2-z
1/2-x,1/2-y,-z
1/2+x,1/2+y,-z
1/2-x,1/2+y,1/2+z
1/2+x,1/2-y,1/2+z
loop_
_atom_site_type_symbol
_atom_site_label
_atom_site_fract_x
_atom_site_fract_y
_atom_site_fract_z
Si Si1 0.684987 0.927823 0.340903
Si Si2 0.440948 0.399268 0.904280
Si Si3 0.062763 0.568335 0.343877
Si Si4 0.823689 0.071785 0.841320
O O1 0.753917 0.953417 0.383468
O O2 0.664894 0.751939 0.333394
O O3 0.692435 0.000000 0.250000
O O4 0.627617 0.013171 0.390337
O O5 0.500000 0.500000 0.873163
O O6 0.438769 0.251856 0.844030
O O7 0.376539 0.496700 0.899994
O O8 0.450857 0.345369 0.000000
O O9 0.065123 0.500000 0.250000
O O10 0.000000 0.500000 0.389078
O O11 0.829415 0.000000 0.750000
#
# Coordination Sequence:
#
# PCOD8276158 Si02
#       4
#    16  16  16  16
#     4   9  18  33  56  90 121 148 190 248 301 337
#     4  11  25  42  59  84 121 159 194 241 300 351
#     4  10  20  37  61  88 116 149 197 243 284 347
#     4  10  19  35  61  86 117 156 197 244 290 348
#
# _framework density 21.762528
#
# number of rings (size 3 to 8) (size 9 to 14) (size 15 to 20)
#    0.000    2.000    0.000    4.500    0.000    6.000 
#    0.000    6.250    0.000    0.000    0.000    0.000 
#    0.000    0.000    0.000    0.000    0.000    0.000 
#
# Total GULP energy -396557.796909 kJ/mol
# GULP energy per Si atom -12392.431153 kJ/mol
# Density = 2.171300 g / cm^3
# Si number density = 21.762528 Si / 1000 Ang^3
#
#
#
# Elastic Constant Matrix: (Units=GPa)
#
#
# Indices 1 2 3 4 5 6 
#
# 1 217.7165 94.5915 13.8245 0.0000 0.0000 0.0000
# 2 94.5915 185.5693 27.5834 0.0000 0.0000 0.0000
# 3 13.8245 27.5834 40.1595 0.0000 0.0000 0.0000
# 4 0.0000 0.0000 0.0000 16.2228 0.0000 0.0000
# 5 0.0000 0.0000 0.0000 0.0000 10.3156 0.0000
# 6 0.0000 0.0000 0.0000 0.0000 0.0000 48.6748
#
#
#
# Elastic Compliance Matrix: (Units=1/GPa)
#
#
# Indices 1 2 3 4 5 6 
#
# 1 0.005900 -0.003013 0.000039 0.000000 0.000000 0.000000
# 2 -0.003013 0.007540 -0.004142 0.000000 0.000000 0.000000
# 3 0.000039 -0.004142 0.027732 0.000000 0.000000 0.000000
# 4 0.000000 0.000000 0.000000 0.061642 0.000000 0.000000
# 5 0.000000 0.000000 0.000000 0.000000 0.096940 0.000000
# 6 0.000000 0.000000 0.000000 0.000000 0.000000 0.020545
#
#
# Mechanical properties :
#
#
# Convention : Reuss Voigt Hill
#
# Bulk Modulus (GPa) = 37.11996 79.49380 58.30688
# Shear Modulus (GPa) = 20.53292 35.53904 28.03598
#
# Velocity S-wave (km/s) = 3.07497 4.04547 3.59314
# Velocity P-wave (km/s) = 5.44988 7.64384 6.63812
#
# Compressibility (1/GPa) = 0.02693969
#
# Stress axis : x y z
#
# Youngs Moduli (GPa) = 169.49819 132.62004 36.05913
#
# Poissons Ratio (x) = 0.39959 -0.00139
# Poissons Ratio (y) = 0.51071 0.14935
# Poissons Ratio (z) = -0.00654 0.54929
#
# Static dielectric constant tensor:
#      x y z
#    x 5.654730 0.000000 0.000000 
#    y 0.000000 3.944090 0.000000 
#    z 0.000000 0.000000 3.321590 
# 
# 
# High freq. dielectric constant tensor:
#      x y z
#    x 1.895740 0.000000 0.000000 
#    y 0.000000 1.866170 0.000000 
#    z 0.000000 0.000000 1.790880 
# 
# From -- ./inp_files/42364.got.cif
#   From: 2010.03.12/outbox.cif.g09.slc.cpg/sg66_22_cif.got.tgz:42364.got - 2010.04.10 21:57:39.
