data_PCOD8276124
_publ_section_title
;
Structure prediction by ZEFSAII (Michael W. Deem and Ramdas Pophale) SiO2 
 PCOD8276124
Probable space group: C C C M
;
_chemical_formula_sum "Si O2"
_cell_formula_units_Z 96
_cell_length_a 10.013414
_cell_length_b 26.638931
_cell_length_c 19.558383
_cell_angle_alpha 90.000000
_cell_angle_beta 90.000000
_cell_angle_gamma 90.000000
_cell_volume 5217.133039
_symmetry_space_group_name_H-M "C C C M"
_symmetry_group_IT_number 66
_symmetry_cell_setting 'orthorhombic'
loop_
_space_group_symop_operation_xyz
x,y,z
-x,-y,z
x,-y,1/2-z
-x,y,1/2-z
-x,-y,-z
x,y,-z
-x,y,1/2+z
x,-y,1/2+z
1/2+x,1/2+y,z
1/2-x,1/2-y,z
1/2+x,1/2-y,1/2-z
1/2-x,1/2+y,1/2-z
1/2-x,1/2-y,-z
1/2+x,1/2+y,-z
1/2-x,1/2+y,1/2+z
1/2+x,1/2-y,1/2+z
loop_
_atom_site_type_symbol
_atom_site_label
_atom_site_fract_x
_atom_site_fract_y
_atom_site_fract_z
Si Si1 0.626145 0.968110 0.078957
Si Si2 0.437725 0.799022 0.822751
Si Si3 0.355405 0.315222 0.312110
Si Si4 0.862057 0.352643 0.420703
Si Si5 0.613170 0.360684 0.332450
Si Si6 0.859180 0.976579 0.179010
O O1 0.593234 0.909857 0.092940
O O2 0.752981 0.988310 0.120326
O O3 0.500000 0.000000 0.103548
O O4 0.659806 0.977447 0.000000
O O5 0.500000 0.815201 0.750000
O O6 0.407620 0.740455 0.826545
O O7 0.295476 0.826273 0.836409
O O8 0.538831 0.815161 0.882060
O O9 0.457302 0.352035 0.352752
O O10 0.356776 0.323826 0.230621
O O11 0.865207 0.338359 0.500000
O O12 0.710179 0.345937 0.394575
O O13 0.629160 0.417513 0.308657
O O14 0.808843 0.000000 0.250000
O O15 0.000000 0.000000 0.156071
#
# Coordination Sequence:
#
# PCOD8276124 Si02
#       6
#    16  16  16  16  16  16
#     4   9  20  39  58  78 111 150 185 225 278 341
#     4  11  20  35  58  84 111 142 191 233 274 334
#     4  10  20  33  57  81 110 144 190 230 273 333
#     4  10  22  39  58  83 115 150 188 231 285 339
#     4  10  19  35  56  79 113 150 184 232 282 338
#     4  10  20  33  52  83 115 141 182 235 282 325
#
# _framework density 18.400911000000001
#
# number of rings (size 3 to 8) (size 9 to 14) (size 15 to 20)
#    0.000    2.000    3.333    2.000    0.000    4.000 
#    0.000    4.167    0.000    0.000    0.000    1.167 
#    0.000    0.000    0.000    0.000    0.000    0.000 
#
# Total GULP energy -595114.251306 kJ/mol
# GULP energy per Si atom -12398.213569 kJ/mol
# Density = 1.835903 g / cm^3
# Si number density = 18.400911 Si / 1000 Ang^3
#
#
#
# Elastic Constant Matrix: (Units=GPa)
#
#
# Indices 1 2 3 4 5 6 
#
# 1 152.9739 54.4139 73.0096 0.0000 0.0000 0.0000
# 2 54.4139 71.5538 47.4628 0.0000 0.0000 0.0000
# 3 73.0096 47.4628 106.3460 0.0000 0.0000 0.0000
# 4 0.0000 0.0000 0.0000 17.6771 0.0000 0.0000
# 5 0.0000 0.0000 0.0000 0.0000 35.1962 0.0000
# 6 0.0000 0.0000 0.0000 0.0000 0.0000 35.4388
#
#
#
# Elastic Compliance Matrix: (Units=1/GPa)
#
#
# Indices 1 2 3 4 5 6 
#
# 1 0.010708 -0.004640 -0.005280 0.000000 0.000000 0.000000
# 2 -0.004640 0.021864 -0.006572 0.000000 0.000000 0.000000
# 3 -0.005280 -0.006572 0.015961 0.000000 0.000000 0.000000
# 4 0.000000 0.000000 0.000000 0.056570 0.000000 0.000000
# 5 0.000000 0.000000 0.000000 0.000000 0.028412 0.000000
# 6 0.000000 0.000000 0.000000 0.000000 0.000000 0.028218
#
#
# Mechanical properties :
#
#
# Convention : Reuss Voigt Hill
#
# Bulk Modulus (GPa) = 64.31885 75.62737 69.97311
# Shear Modulus (GPa) = 25.01240 28.06158 26.53699
#
# Velocity S-wave (km/s) = 3.69087 3.90937 3.80169
# Velocity P-wave (km/s) = 7.29338 7.84644 7.57496
#
# Compressibility (1/GPa) = 0.01554754
#
# Stress axis : x y z
#
# Youngs Moduli (GPa) = 93.39043 45.73780 62.65118
#
# Poissons Ratio (x) = 0.21224 0.33081
# Poissons Ratio (y) = 0.43337 0.41175
# Poissons Ratio (z) = 0.49311 0.30059
#
# Static dielectric constant tensor:
#      x y z
#    x 3.871920 0.000000 0.000000 
#    y 0.000000 3.389350 0.000000 
#    z 0.000000 0.000000 3.174160 
# 
# 
# High freq. dielectric constant tensor:
#      x y z
#    x 1.729700 0.000000 0.000000 
#    y 0.000000 1.715680 0.000000 
#    z 0.000000 0.000000 1.689130 
# 
# From -- ./inp_files/47331.got.cif
#   From: 2010.03.12/outbox.cif.g09.slc.cpg/sg66_24_cif.got.tgz:47331.got - 2010.04.10 21:57:39.
