data_PCOD8276796
_publ_section_title
;
Structure prediction by ZEFSAII (Michael W. Deem and Ramdas Pophale) SiO2 
 PCOD8276796
Probable space group: C C C M
;
_chemical_formula_sum "Si O2"
_cell_formula_units_Z 112
_cell_length_a 13.896497
_cell_length_b 14.751137
_cell_length_c 28.206551
_cell_angle_alpha 90.000000
_cell_angle_beta 90.000000
_cell_angle_gamma 90.000000
_cell_volume 5782.036380
_symmetry_space_group_name_H-M "C C C M"
_symmetry_group_IT_number 66
_symmetry_cell_setting 'orthorhombic'
loop_
_space_group_symop_operation_xyz
x,y,z
-x,-y,z
x,-y,1/2-z
-x,y,1/2-z
-x,-y,-z
x,y,-z
-x,y,1/2+z
x,-y,1/2+z
1/2+x,1/2+y,z
1/2-x,1/2-y,z
1/2+x,1/2-y,1/2-z
1/2-x,1/2+y,1/2-z
1/2-x,1/2-y,-z
1/2+x,1/2+y,-z
1/2-x,1/2+y,1/2+z
1/2+x,1/2-y,1/2+z
loop_
_atom_site_type_symbol
_atom_site_label
_atom_site_fract_x
_atom_site_fract_y
_atom_site_fract_z
Si Si1 0.792318 0.491572 0.194464
Si Si2 0.998544 0.773923 0.365752
Si Si3 0.763723 0.352691 0.054322
Si Si4 0.051957 0.907879 0.945669
Si Si5 0.679989 0.332327 0.689534
Si Si6 0.168371 0.825533 0.205096
Si Si7 0.067973 0.423051 0.619007
O O1 0.818056 0.500000 0.250000
O O2 0.744674 0.582507 0.174018
O O3 0.712980 0.415970 0.183431
O O4 0.890486 0.464976 0.167859
O O5 0.981402 0.821067 0.416067
O O6 0.920883 0.799378 0.326628
O O7 0.996833 0.665673 0.371478
O O8 0.101021 0.810786 0.349461
O O9 0.750000 0.250000 0.074447
O O10 0.667568 0.413380 0.059318
O O11 0.845970 0.402384 0.083345
O O12 0.797472 0.345968 0.000000
O O13 0.022021 0.889719 0.000000
O O14 0.000000 0.000000 0.927371
O O15 0.750000 0.250000 0.694152
O O16 0.632021 0.345711 0.741435
O O17 0.250000 0.750000 0.203177
O O18 0.000000 0.500000 0.596049
#
# Coordination Sequence:
#
# PCOD8276796 Si02
#       7
#    16  16  16  16  16  16  16
#     4  10  22  40  60  84 123 166 208 260 310 368
#     4  12  23  37  64  91 120 164 207 261 306 374
#     4  10  21  42  69  93 123 159 204 262 316 370
#     4  10  23  41  65  96 123 157 204 259 322 380
#     4  10  23  40  56  83 125 165 202 253 311 367
#     4  10  20  38  61  87 118 158 211 259 303 361
#     4  12  25  39  61  95 128 165 213 252 312 380
#
# _framework density 19.370338
#
# number of rings (size 3 to 8) (size 9 to 14) (size 15 to 20)
#    0.000    1.429    2.857    2.143    4.000    0.571 
#    2.571    2.143    0.000    0.429    0.000    0.000 
#    0.000    0.000    0.000    0.000    0.000    0.000 
#
# Total GULP energy -694478.259259 kJ/mol
# GULP energy per Si atom -12401.397487 kJ/mol
# Density = 1.932625 g / cm^3
# Si number density = 19.370338 Si / 1000 Ang^3
#
#
#
# Elastic Constant Matrix: (Units=GPa)
#
#
# Indices 1 2 3 4 5 6 
#
# 1 85.1296 49.7328 38.0412 0.0000 0.0000 0.0000
# 2 49.7328 153.2178 35.8629 0.0000 0.0000 0.0000
# 3 38.0412 35.8629 71.1450 0.0000 0.0000 0.0000
# 4 0.0000 0.0000 0.0000 30.5433 0.0000 0.0000
# 5 0.0000 0.0000 0.0000 0.0000 30.2306 0.0000
# 6 0.0000 0.0000 0.0000 0.0000 0.0000 32.9155
#
#
#
# Elastic Compliance Matrix: (Units=1/GPa)
#
#
# Indices 1 2 3 4 5 6 
#
# 1 0.017277 -0.003907 -0.007269 0.000000 0.000000 0.000000
# 2 -0.003907 0.008283 -0.002086 0.000000 0.000000 0.000000
# 3 -0.007269 -0.002086 0.018994 0.000000 0.000000 0.000000
# 4 0.000000 0.000000 0.000000 0.032740 0.000000 0.000000
# 5 0.000000 0.000000 0.000000 0.000000 0.033079 0.000000
# 6 0.000000 0.000000 0.000000 0.000000 0.000000 0.030381
#
#
# Mechanical properties :
#
#
# Convention : Reuss Voigt Hill
#
# Bulk Modulus (GPa) = 55.46129 61.86291 58.66210
# Shear Modulus (GPa) = 28.85356 31.12827 29.99092
#
# Velocity S-wave (km/s) = 3.86369 4.01310 3.93910
# Velocity P-wave (km/s) = 6.97125 7.31297 7.14415
#
# Compressibility (1/GPa) = 0.01803059
#
# Stress axis : x y z
#
# Youngs Moduli (GPa) = 57.87970 120.72820 52.64758
#
# Poissons Ratio (x) = 0.47164 0.38269
# Poissons Ratio (y) = 0.22611 0.10985
# Poissons Ratio (z) = 0.42072 0.25190
#
# Static dielectric constant tensor:
#      x y z
#    x 3.296330 0.000000 0.000000 
#    y 0.000000 3.747340 0.000000 
#    z 0.000000 0.000000 3.670850 
# 
# 
# High freq. dielectric constant tensor:
#      x y z
#    x 1.747310 0.000000 0.000000 
#    y 0.000000 1.764240 0.000000 
#    z 0.000000 0.000000 1.752380 
# 
# From -- ./inp_files/69084.got.cif
#   From: 2010.03.12/outbox.cif.g09.slc.cpg/sg66_35_cif.got.tgz:69084.got - 2010.04.10 21:57:39.
