data_PCOD8276377
_publ_section_title
;
Structure prediction by ZEFSAII (Michael W. Deem and Ramdas Pophale) SiO2 
 PCOD8276377
Probable space group: C C C M
;
_chemical_formula_sum "Si O2"
_cell_formula_units_Z 116
_cell_length_a 26.613276
_cell_length_b 26.703929
_cell_length_c 9.239294
_cell_angle_alpha 90.000000
_cell_angle_beta 90.000000
_cell_angle_gamma 90.000000
_cell_volume 6566.172523
_symmetry_space_group_name_H-M "C C C M"
_symmetry_group_IT_number 66
_symmetry_cell_setting 'orthorhombic'
loop_
_space_group_symop_operation_xyz
x,y,z
-x,-y,z
x,-y,1/2-z
-x,y,1/2-z
-x,-y,-z
x,y,-z
-x,y,1/2+z
x,-y,1/2+z
1/2+x,1/2+y,z
1/2-x,1/2-y,z
1/2+x,1/2-y,1/2-z
1/2-x,1/2+y,1/2-z
1/2-x,1/2-y,-z
1/2+x,1/2+y,-z
1/2-x,1/2+y,1/2+z
1/2+x,1/2-y,1/2+z
loop_
_atom_site_type_symbol
_atom_site_label
_atom_site_fract_x
_atom_site_fract_y
_atom_site_fract_z
Si Si1 0.076552 0.080068 0.339641
Si Si2 0.293811 0.950911 0.171964
Si Si3 0.500000 0.500000 0.750000
Si Si4 0.712058 0.676173 0.164778
Si Si5 0.135373 0.254771 0.830456
Si Si6 0.176475 0.645076 0.331505
Si Si7 0.813404 0.083505 0.165549
Si Si8 0.949131 0.821134 0.173398
O O1 0.076046 0.104678 0.500000
O O2 0.132556 0.056617 0.310271
O O3 0.064138 0.122369 0.222093
O O4 0.036291 0.035306 0.343851
O O5 0.326087 0.903843 0.230797
O O6 0.235281 0.946741 0.223964
O O7 0.315839 0.000000 0.250000
O O8 0.300509 0.955267 0.000000
O O9 0.689648 0.730315 0.207038
O O10 0.770984 0.673553 0.192004
O O11 0.681272 0.636350 0.257046
O O12 0.698511 0.663491 0.000000
O O13 0.135782 0.313095 0.777229
O O14 0.090982 0.219894 0.768425
O O15 0.127933 0.257603 0.000000
O O16 0.169129 0.629770 0.500000
O O17 0.801507 0.094427 0.000000
O O18 0.000000 0.803955 0.250000
O O19 0.954289 0.821659 0.000000
#
# Coordination Sequence:
#
# PCOD8276377 Si02
#       8
#    16  16   4  16  16  16  16  16
#     4  11  23  39  53  69  93 123 167 221 272 312
#     4  10  20  34  50  71 101 135 170 204 245 293
#     4  12  26  36  56  70  90 124 174 228 280 304
#     4   9  15  27  48  73  97 125 160 199 241 297
#     4   9  17  30  50  76 100 129 163 202 248 302
#     4   9  17  30  50  74 102 130 164 203 244 294
#     4   9  19  33  48  67  94 126 162 208 255 303
#     4  11  22  37  56  75  99 129 167 209 257 310
#
# _framework density 17.666304
#
# number of rings (size 3 to 8) (size 9 to 14) (size 15 to 20)
#    0.000    2.207    2.069    1.448    0.966    2.759 
#    0.000    2.069    0.000    3.310    0.000    0.000 
#    0.000    0.552    0.000    6.345    0.000    1.931 
#
# Total GULP energy -718570.280355 kJ/mol
# GULP energy per Si atom -12389.142765 kJ/mol
# Density = 1.762609 g / cm^3
# Si number density = 17.666304 Si / 1000 Ang^3
#
#
#
# Elastic Constant Matrix: (Units=GPa)
#
#
# Indices 1 2 3 4 5 6 
#
# 1 42.3642 37.8126 17.6535 0.0000 0.0000 0.0000
# 2 37.8126 126.5275 37.4598 0.0000 0.0000 0.0000
# 3 17.6535 37.4598 55.2355 0.0000 0.0000 0.0000
# 4 0.0000 0.0000 0.0000 20.5335 0.0000 0.0000
# 5 0.0000 0.0000 0.0000 0.0000 9.5382 0.0000
# 6 0.0000 0.0000 0.0000 0.0000 0.0000 23.5808
#
#
#
# Elastic Compliance Matrix: (Units=1/GPa)
#
#
# Indices 1 2 3 4 5 6 
#
# 1 0.033202 -0.008484 -0.004858 0.000000 0.000000 0.000000
# 2 -0.008484 0.012057 -0.005465 0.000000 0.000000 0.000000
# 3 -0.004858 -0.005465 0.023363 0.000000 0.000000 0.000000
# 4 0.000000 0.000000 0.000000 0.048701 0.000000 0.000000
# 5 0.000000 0.000000 0.000000 0.000000 0.104842 0.000000
# 6 0.000000 0.000000 0.000000 0.000000 0.000000 0.042407
#
#
# Mechanical properties :
#
#
# Convention : Reuss Voigt Hill
#
# Bulk Modulus (GPa) = 32.24988 45.55323 38.90156
# Shear Modulus (GPa) = 15.99888 19.47725 17.73806
#
# Velocity S-wave (km/s) = 3.01261 3.32401 3.17213
# Velocity P-wave (km/s) = 5.51323 6.36972 5.95689
#
# Compressibility (1/GPa) = 0.03100787
#
# Stress axis : x y z
#
# Youngs Moduli (GPa) = 30.11905 82.93976 42.80226
#
# Poissons Ratio (x) = 0.70367 0.20791
# Poissons Ratio (y) = 0.25553 0.23393
# Poissons Ratio (z) = 0.14631 0.45329
#
# Static dielectric constant tensor:
#      x y z
#    x 3.397240 0.000000 0.000000 
#    y 0.000000 3.379260 0.000000 
#    z 0.000000 0.000000 3.145310 
# 
# 
# High freq. dielectric constant tensor:
#      x y z
#    x 1.652720 0.000000 0.000000 
#    y 0.000000 1.674430 0.000000 
#    z 0.000000 0.000000 1.672020 
# 
# From -- ./inp_files/11811.got.cif
#   From: 2010.03.12/outbox.cif.g09.slc.cpg/sg66_6_cif.got.tgz:11811.got - 2010.04.10 21:57:39.
