data_PCOD8276128
_publ_section_title
;
Structure prediction by ZEFSAII (Michael W. Deem and Ramdas Pophale) SiO2 
 PCOD8276128
Probable space group: C C C M
;
_chemical_formula_sum "Si O2"
_cell_formula_units_Z 84
_cell_length_a 8.728097
_cell_length_b 25.873035
_cell_length_c 18.690175
_cell_angle_alpha 90.000000
_cell_angle_beta 90.000000
_cell_angle_gamma 90.000000
_cell_volume 4220.659412
_symmetry_space_group_name_H-M "C C C M"
_symmetry_group_IT_number 66
_symmetry_cell_setting 'orthorhombic'
loop_
_space_group_symop_operation_xyz
x,y,z
-x,-y,z
x,-y,1/2-z
-x,y,1/2-z
-x,-y,-z
x,y,-z
-x,y,1/2+z
x,-y,1/2+z
1/2+x,1/2+y,z
1/2-x,1/2-y,z
1/2+x,1/2-y,1/2-z
1/2-x,1/2+y,1/2-z
1/2-x,1/2-y,-z
1/2+x,1/2+y,-z
1/2-x,1/2+y,1/2+z
1/2+x,1/2-y,1/2+z
loop_
_atom_site_type_symbol
_atom_site_label
_atom_site_fract_x
_atom_site_fract_y
_atom_site_fract_z
Si Si1 0.500000 0.500000 0.250000
Si Si2 0.561269 0.113007 0.917676
Si Si3 0.139809 0.366121 0.796933
Si Si4 0.912253 0.734729 0.417865
Si Si5 0.938562 0.814944 0.824996
Si Si6 0.837282 0.089211 0.826122
O O1 0.592890 0.466204 0.192051
O O2 0.425282 0.097538 0.862378
O O3 0.562160 0.174520 0.905898
O O4 0.723614 0.087846 0.894850
O O5 0.525976 0.097561 0.000000
O O6 0.254716 0.322611 0.826886
O O7 0.241321 0.400661 0.745188
O O8 0.000000 0.341744 0.750000
O O9 0.913070 0.750256 0.500000
O O10 0.750000 0.750000 0.382648
O O11 0.040754 0.770044 0.382469
O O12 0.000000 0.793221 0.750000
O O13 0.030832 0.868327 0.841715
#
# Coordination Sequence:
#
# PCOD8276128 Si02
#       6
#     4  16  16  16  16  16
#     4  12  20  40  72  92 108 140 206 270 312 378
#     4  10  21  38  58  85 127 166 197 241 301 367
#     4   9  19  36  56  82 124 160 199 250 303 355
#     4  10  20  34  56  85 120 167 206 236 291 356
#     4  10  19  35  56  86 119 155 206 255 295 347
#     4  10  20  37  64  89 113 148 204 253 313 357
#
# _framework density 19.902103
#
# number of rings (size 3 to 8) (size 9 to 14) (size 15 to 20)
#    0.000    2.095    4.762    0.000    0.000    3.810 
#    0.000    6.667    0.000    2.286    0.000    0.000 
#    0.000    0.000    0.000    0.000    0.000    0.000 
#
# Total GULP energy -520414.987410 kJ/mol
# GULP energy per Si atom -12390.833034 kJ/mol
# Density = 1.985680 g / cm^3
# Si number density = 19.902103 Si / 1000 Ang^3
#
#
#
# Elastic Constant Matrix: (Units=GPa)
#
#
# Indices 1 2 3 4 5 6 
#
# 1 122.7158 27.4763 40.1484 0.0000 0.0000 0.0000
# 2 27.4763 77.8081 19.4046 0.0000 0.0000 0.0000
# 3 40.1484 19.4046 96.2359 0.0000 0.0000 0.0000
# 4 0.0000 0.0000 0.0000 8.0496 0.0000 0.0000
# 5 0.0000 0.0000 0.0000 0.0000 27.0529 0.0000
# 6 0.0000 0.0000 0.0000 0.0000 0.0000 23.2672
#
#
#
# Elastic Compliance Matrix: (Units=1/GPa)
#
#
# Indices 1 2 3 4 5 6 
#
# 1 0.009912 -0.002600 -0.003611 0.000000 0.000000 0.000000
# 2 -0.002600 0.014214 -0.001782 0.000000 0.000000 0.000000
# 3 -0.003611 -0.001782 0.012257 0.000000 0.000000 0.000000
# 4 0.000000 0.000000 0.000000 0.124230 0.000000 0.000000
# 5 0.000000 0.000000 0.000000 0.000000 0.036965 0.000000
# 6 0.000000 0.000000 0.000000 0.000000 0.000000 0.042979
#
#
# Mechanical properties :
#
#
# Convention : Reuss Voigt Hill
#
# Bulk Modulus (GPa) = 49.02236 52.31317 50.66776
# Shear Modulus (GPa) = 18.98675 25.65598 22.32136
#
# Velocity S-wave (km/s) = 3.09205 3.59431 3.35260
# Velocity P-wave (km/s) = 6.11825 6.60059 6.36399
#
# Compressibility (1/GPa) = 0.02039886
#
# Stress axis : x y z
#
# Youngs Moduli (GPa) = 100.88322 70.35074 81.58681
#
# Poissons Ratio (x) = 0.18290 0.29462
# Poissons Ratio (y) = 0.26227 0.14535
# Poissons Ratio (z) = 0.36430 0.12533
#
# Static dielectric constant tensor:
#      x y z
#    x 4.240760 0.000000 0.000000 
#    y 0.000000 3.191240 0.000000 
#    z 0.000000 0.000000 3.716070 
# 
# 
# High freq. dielectric constant tensor:
#      x y z
#    x 1.789700 0.000000 0.000000 
#    y 0.000000 1.734130 0.000000 
#    z 0.000000 0.000000 1.774210 
# 
# From -- ./inp_files/47247.got.cif
#   From: 2010.03.12/outbox.cif.g09.slc.cpg/sg66_24_cif.got.tgz:47247.got - 2010.04.10 21:57:39.
