data_PCOD8276042
_publ_section_title
;
Structure prediction by ZEFSAII (Michael W. Deem and Ramdas Pophale) SiO2 
 PCOD8276042
Probable space group: C C C M
;
_chemical_formula_sum "Si O2"
_cell_formula_units_Z 96
_cell_length_a 19.443548
_cell_length_b 27.826771
_cell_length_c 8.672765
_cell_angle_alpha 90.000000
_cell_angle_beta 90.000000
_cell_angle_gamma 90.000000
_cell_volume 4692.409543
_symmetry_space_group_name_H-M "C C C M"
_symmetry_group_IT_number 66
_symmetry_cell_setting 'orthorhombic'
loop_
_space_group_symop_operation_xyz
x,y,z
-x,-y,z
x,-y,1/2-z
-x,y,1/2-z
-x,-y,-z
x,y,-z
-x,y,1/2+z
x,-y,1/2+z
1/2+x,1/2+y,z
1/2-x,1/2-y,z
1/2+x,1/2-y,1/2-z
1/2-x,1/2+y,1/2-z
1/2-x,1/2-y,-z
1/2+x,1/2+y,-z
1/2-x,1/2+y,1/2+z
1/2+x,1/2-y,1/2+z
loop_
_atom_site_type_symbol
_atom_site_label
_atom_site_fract_x
_atom_site_fract_y
_atom_site_fract_z
Si Si1 0.718125 0.800593 0.317333
Si Si2 0.565702 0.803010 0.666616
Si Si3 0.690377 0.950449 0.180405
Si Si4 0.935270 0.412765 0.831601
Si Si5 0.694556 0.608194 0.318250
Si Si6 0.575029 0.551255 0.183667
O O1 0.712228 0.808395 0.500000
O O2 0.750000 0.750000 0.269657
O O3 0.640285 0.800382 0.247341
O O4 0.767930 0.843248 0.253676
O O5 0.500000 0.777786 0.750000
O O6 0.572635 0.777148 0.500000
O O7 0.545244 0.857887 0.640765
O O8 0.629991 0.913164 0.218367
O O9 0.757893 0.936775 0.275270
O O10 0.662851 0.000000 0.250000
O O11 0.706760 0.952267 0.000000
O O12 0.000000 0.439105 0.750000
O O13 0.920203 0.436587 0.000000
O O14 0.682247 0.611557 0.500000
O O15 0.622333 0.596442 0.235606
O O16 0.602141 0.500000 0.250000
O O17 0.500000 0.562235 0.250000
O O18 0.572777 0.547950 0.000000
#
# Coordination Sequence:
#
# PCOD8276042 Si02
#       6
#    16  16  16  16  16  16
#     4   9  18  35  60  87 115 151 195 241 295 355
#     4   9  17  32  55  82 109 145 188 232 279 337
#     4  12  24  37  54  79 111 150 192 236 282 336
#     4  10  19  34  53  78 108 145 187 232 279 330
#     4  11  21  38  60  85 117 153 192 240 291 348
#     4  11  22  39  62  91 122 158 199 241 294 358
#
# _framework density 20.458573000000001
#
# number of rings (size 3 to 8) (size 9 to 14) (size 15 to 20)
#    0.000    1.667    1.667    5.000    0.000    1.000 
#    0.000    2.500    0.000    6.500    0.000    0.000 
#    0.000    0.000    0.000    0.000    0.000    0.000 
#
# Total GULP energy -594836.028945 kJ/mol
# GULP energy per Si atom -12392.417270 kJ/mol
# Density = 2.041201 g / cm^3
# Si number density = 20.458573 Si / 1000 Ang^3
#
#
#
# Elastic Constant Matrix: (Units=GPa)
#
#
# Indices 1 2 3 4 5 6 
#
# 1 161.4602 50.4784 44.9154 0.0000 0.0000 0.0000
# 2 50.4784 61.5325 32.8705 0.0000 0.0000 0.0000
# 3 44.9154 32.8705 97.5376 0.0000 0.0000 0.0000
# 4 0.0000 0.0000 0.0000 12.0966 0.0000 0.0000
# 5 0.0000 0.0000 0.0000 0.0000 33.8510 0.0000
# 6 0.0000 0.0000 0.0000 0.0000 0.0000 19.3950
#
#
#
# Elastic Compliance Matrix: (Units=1/GPa)
#
#
# Indices 1 2 3 4 5 6 
#
# 1 0.008619 -0.006037 -0.001934 0.000000 0.000000 0.000000
# 2 -0.006037 0.024049 -0.005324 0.000000 0.000000 0.000000
# 3 -0.001934 -0.005324 0.012938 0.000000 0.000000 0.000000
# 4 0.000000 0.000000 0.000000 0.082668 0.000000 0.000000
# 5 0.000000 0.000000 0.000000 0.000000 0.029541 0.000000
# 6 0.000000 0.000000 0.000000 0.000000 0.000000 0.051560
#
#
# Mechanical properties :
#
#
# Convention : Reuss Voigt Hill
#
# Bulk Modulus (GPa) = 52.59538 64.11767 58.35653
# Shear Modulus (GPa) = 20.63524 25.88624 23.26074
#
# Velocity S-wave (km/s) = 3.17935 3.56097 3.37555
# Velocity P-wave (km/s) = 6.26432 6.95094 6.61654
#
# Compressibility (1/GPa) = 0.01901308
#
# Stress axis : x y z
#
# Youngs Moduli (GPa) = 116.02146 41.58251 77.29436
#
# Poissons Ratio (x) = 0.25105 0.14952
# Poissons Ratio (y) = 0.70046 0.41154
# Poissons Ratio (z) = 0.22444 0.22140
#
# Static dielectric constant tensor:
#      x y z
#    x 3.857450 0.000000 0.000000 
#    y 0.000000 3.397550 0.000000 
#    z 0.000000 0.000000 3.814640 
# 
# 
# High freq. dielectric constant tensor:
#      x y z
#    x 1.814950 0.000000 0.000000 
#    y 0.000000 1.761350 0.000000 
#    z 0.000000 0.000000 1.787240 
# 
# From -- ./inp_files/7981.got.cif
#   From: 2010.03.12/outbox.cif.g09.slc.cpg/sg66_4_cif.got.tgz:7981.got - 2010.04.10 21:57:39.
