data_PCOD8276121
_publ_section_title
;
Structure prediction by ZEFSAII (Michael W. Deem and Ramdas Pophale) SiO2 
 PCOD8276121
Probable space group: C C C M
;
_chemical_formula_sum "Si O2"
_cell_formula_units_Z 104
_cell_length_a 9.259565
_cell_length_b 21.738636
_cell_length_c 26.377930
_cell_angle_alpha 90.000000
_cell_angle_beta 90.000000
_cell_angle_gamma 90.000000
_cell_volume 5309.621787
_symmetry_space_group_name_H-M "C C C M"
_symmetry_group_IT_number 66
_symmetry_cell_setting 'orthorhombic'
loop_
_space_group_symop_operation_xyz
x,y,z
-x,-y,z
x,-y,1/2-z
-x,y,1/2-z
-x,-y,-z
x,y,-z
-x,y,1/2+z
x,-y,1/2+z
1/2+x,1/2+y,z
1/2-x,1/2-y,z
1/2+x,1/2-y,1/2-z
1/2-x,1/2+y,1/2-z
1/2-x,1/2-y,-z
1/2+x,1/2+y,-z
1/2-x,1/2+y,1/2+z
1/2+x,1/2-y,1/2+z
loop_
_atom_site_type_symbol
_atom_site_label
_atom_site_fract_x
_atom_site_fract_y
_atom_site_fract_z
Si Si1 0.449564 0.633813 0.055800
Si Si2 0.080050 0.261937 0.405806
Si Si3 0.478062 0.592789 0.837143
Si Si4 0.500000 0.000000 0.873074
Si Si5 0.270797 0.485959 0.192625
Si Si6 0.090767 0.225935 0.299233
Si Si7 0.611658 0.108338 0.056686
O O1 0.483022 0.706772 0.059858
O O2 0.524100 0.599843 0.103342
O O3 0.281294 0.618847 0.061237
O O4 0.505795 0.611646 0.000000
O O5 0.250000 0.250000 0.402086
O O6 0.020984 0.260268 0.347961
O O7 0.035217 0.326923 0.429663
O O8 0.623598 0.573409 0.807643
O O9 0.354351 0.541945 0.833500
O O10 0.410904 0.653495 0.812214
O O11 0.625894 0.972163 0.838184
O O12 0.440778 0.944798 0.906661
O O13 0.227703 0.500000 0.250000
O O14 0.250000 0.250000 0.287701
O O15 0.000000 0.242371 0.250000
O O16 0.566341 0.089763 0.000000
#
# Coordination Sequence:
#
# PCOD8276121 Si02
#       7
#    16  16  16   8  16  16  16
#     4   9  16  31  60  89 113 149 199 247 289 349
#     4   8  16  31  54  82 114 150 196 240 281 350
#     4  10  20  41  62  85 120 156 200 246 294 360
#     4  12  24  38  56  92 116 150 206 254 292 356
#     4  11  23  41  62  83 114 163 203 243 299 352
#     4  10  20  36  58  90 121 156 196 245 303 350
#     4  10  19  35  55  83 123 158 189 241 308 354
#
# _framework density 19.587083
#
# number of rings (size 3 to 8) (size 9 to 14) (size 15 to 20)
#    0.000    2.154    1.538    3.692    0.000    1.846 
#    5.538    3.077    0.000    0.000    0.000    3.231 
#    0.000    0.000    0.000    0.000    0.000    0.000 
#
# Total GULP energy -644558.459237 kJ/mol
# GULP energy per Si atom -12395.354985 kJ/mol
# Density = 1.954250 g / cm^3
# Si number density = 19.587083 Si / 1000 Ang^3
#
#
#
# Elastic Constant Matrix: (Units=GPa)
#
#
# Indices 1 2 3 4 5 6 
#
# 1 64.7655 29.0992 34.1851 0.0000 0.0000 0.0000
# 2 29.0992 94.2390 36.7664 0.0000 0.0000 0.0000
# 3 34.1851 36.7664 148.7080 0.0000 0.0000 0.0000
# 4 0.0000 0.0000 0.0000 26.8356 0.0000 0.0000
# 5 0.0000 0.0000 0.0000 0.0000 21.3492 0.0000
# 6 0.0000 0.0000 0.0000 0.0000 0.0000 20.6091
#
#
#
# Elastic Compliance Matrix: (Units=1/GPa)
#
#
# Indices 1 2 3 4 5 6 
#
# 1 0.019268 -0.004672 -0.003274 0.000000 0.000000 0.000000
# 2 -0.004672 0.012877 -0.002110 0.000000 0.000000 0.000000
# 3 -0.003274 -0.002110 0.007999 0.000000 0.000000 0.000000
# 4 0.000000 0.000000 0.000000 0.037264 0.000000 0.000000
# 5 0.000000 0.000000 0.000000 0.000000 0.046840 0.000000
# 6 0.000000 0.000000 0.000000 0.000000 0.000000 0.048522
#
#
# Mechanical properties :
#
#
# Convention : Reuss Voigt Hill
#
# Bulk Modulus (GPa) = 49.92085 56.42376 53.17231
# Shear Modulus (GPa) = 25.05526 27.60291 26.32908
#
# Velocity S-wave (km/s) = 3.58043 3.75806 3.67032
# Velocity P-wave (km/s) = 6.52952 6.90651 6.72066
#
# Compressibility (1/GPa) = 0.02003171
#
# Stress axis : x y z
#
# Youngs Moduli (GPa) = 51.90040 77.65759 125.01803
#
# Poissons Ratio (x) = 0.36282 0.40933
# Poissons Ratio (y) = 0.24248 0.26375
# Poissons Ratio (z) = 0.16993 0.16383
#
# Static dielectric constant tensor:
#      x y z
#    x 3.211220 0.000000 0.000000 
#    y 0.000000 3.623230 0.000000 
#    z 0.000000 0.000000 3.925040 
# 
# 
# High freq. dielectric constant tensor:
#      x y z
#    x 1.715950 0.000000 0.000000 
#    y 0.000000 1.762290 0.000000 
#    z 0.000000 0.000000 1.787000 
# 
# From -- ./inp_files/62689.got.cif
#   From: 2010.03.12/outbox.cif.g09.slc.cpg/sg66_32_cif.got.tgz:62689.got - 2010.04.10 21:57:39.
