data_PCOD8276442
_publ_section_title
;
Structure prediction by ZEFSAII (Michael W. Deem and Ramdas Pophale) SiO2 
 PCOD8276442
Probable space group: C C C M
;
_chemical_formula_sum "Si O2"
_cell_formula_units_Z 84
_cell_length_a 23.611752
_cell_length_b 9.266398
_cell_length_c 20.533304
_cell_angle_alpha 90.000000
_cell_angle_beta 90.000000
_cell_angle_gamma 90.000000
_cell_volume 4492.602554
_symmetry_space_group_name_H-M "C C C M"
_symmetry_group_IT_number 66
_symmetry_cell_setting 'orthorhombic'
loop_
_space_group_symop_operation_xyz
x,y,z
-x,-y,z
x,-y,1/2-z
-x,y,1/2-z
-x,-y,-z
x,y,-z
-x,y,1/2+z
x,-y,1/2+z
1/2+x,1/2+y,z
1/2-x,1/2-y,z
1/2+x,1/2-y,1/2-z
1/2-x,1/2+y,1/2-z
1/2-x,1/2-y,-z
1/2+x,1/2+y,-z
1/2-x,1/2+y,1/2+z
1/2+x,1/2-y,1/2+z
loop_
_atom_site_type_symbol
_atom_site_label
_atom_site_fract_x
_atom_site_fract_y
_atom_site_fract_z
Si Si1 0.486353 0.837669 0.076165
Si Si2 0.500000 0.500000 0.250000
Si Si3 0.915388 0.872110 0.925908
Si Si4 0.083972 0.852510 0.159077
Si Si5 0.287985 0.606363 0.188833
Si Si6 0.212396 0.884887 0.575265
O O1 0.541703 0.749129 0.099495
O O2 0.432068 0.792404 0.119478
O O3 0.500000 0.000000 0.093527
O O4 0.472152 0.817640 0.000000
O O5 0.539975 0.384169 0.215503
O O6 0.850815 0.823948 0.914385
O O7 0.926334 0.020339 0.891100
O O8 0.928583 0.904263 0.000000
O O9 0.147015 0.841069 0.187780
O O10 0.277378 0.500000 0.250000
O O11 0.250000 0.750000 0.194604
O O12 0.274009 0.521068 0.121796
O O13 0.222860 0.932601 0.500000
O O14 0.250000 0.750000 0.595998
#
# Coordination Sequence:
#
# PCOD8276442 Si02
#       6
#    16   4  16  16  16  16
#     4  10  20  34  55  87 121 149 183 239 307 360
#     4  12  20  36  60  84 104 148 198 244 268 328
#     4   9  17  32  56  81 108 147 191 233 281 344
#     4  11  21  37  60  82 111 149 197 237 282 346
#     4  11  24  41  60  87 117 157 200 247 300 359
#     4   9  19  36  59  85 114 153 198 244 295 349
#
# _framework density 18.697403000000001
#
# number of rings (size 3 to 8) (size 9 to 14) (size 15 to 20)
#    0.000    1.905    2.857    1.143    0.000    4.190 
#    0.000    4.286    0.000    0.000    0.000    0.000 
#    0.000    0.000    0.000    0.000    0.000    0.000 
#
# Total GULP energy -520644.286019 kJ/mol
# GULP energy per Si atom -12396.292524 kJ/mol
# Density = 1.865485 g / cm^3
# Si number density = 18.697403 Si / 1000 Ang^3
#
#
#
# Elastic Constant Matrix: (Units=GPa)
#
#
# Indices 1 2 3 4 5 6 
#
# 1 114.4388 69.7230 54.2243 0.0000 0.0000 0.0000
# 2 69.7230 114.0183 48.8197 0.0000 0.0000 0.0000
# 3 54.2243 48.8197 76.3323 0.0000 0.0000 0.0000
# 4 0.0000 0.0000 0.0000 37.9877 0.0000 0.0000
# 5 0.0000 0.0000 0.0000 0.0000 20.9015 0.0000
# 6 0.0000 0.0000 0.0000 0.0000 0.0000 24.1970
#
#
#
# Elastic Compliance Matrix: (Units=1/GPa)
#
#
# Indices 1 2 3 4 5 6 
#
# 1 0.016370 -0.006929 -0.007197 0.000000 0.000000 0.000000
# 2 -0.006929 0.015011 -0.004678 0.000000 0.000000 0.000000
# 3 -0.007197 -0.004678 0.021206 0.000000 0.000000 0.000000
# 4 0.000000 0.000000 0.000000 0.026324 0.000000 0.000000
# 5 0.000000 0.000000 0.000000 0.000000 0.047844 0.000000
# 6 0.000000 0.000000 0.000000 0.000000 0.000000 0.041327
#
#
# Mechanical properties :
#
#
# Convention : Reuss Voigt Hill
#
# Bulk Modulus (GPa) = 66.76781 72.25816 69.51298
# Shear Modulus (GPa) = 23.73236 25.41872 24.57554
#
# Velocity S-wave (km/s) = 3.56657 3.69111 3.62937
# Velocity P-wave (km/s) = 7.26276 7.54293 7.40417
#
# Compressibility (1/GPa) = 0.01497728
#
# Stress axis : x y z
#
# Youngs Moduli (GPa) = 61.08752 66.61963 47.15727
#
# Poissons Ratio (x) = 0.46158 0.33941
# Poissons Ratio (y) = 0.42325 0.22062
# Poissons Ratio (z) = 0.43967 0.31167
#
# Static dielectric constant tensor:
#      x y z
#    x 3.664970 0.000000 0.000000 
#    y 0.000000 3.279380 0.000000 
#    z 0.000000 0.000000 3.632650 
# 
# 
# High freq. dielectric constant tensor:
#      x y z
#    x 1.733420 0.000000 0.000000 
#    y 0.000000 1.712020 0.000000 
#    z 0.000000 0.000000 1.732580 
# 
# From -- ./inp_files/52331.got.cif
#   From: 2010.03.12/outbox.cif.g09.slc.cpg/sg66_27_cif.got.tgz:52331.got - 2010.04.10 21:57:39.
