data_PCOD8276136
_publ_section_title
;
Structure prediction by ZEFSAII (Michael W. Deem and Ramdas Pophale) SiO2 
 PCOD8276136
Probable space group: C C C M
;
_chemical_formula_sum "Si O2"
_cell_formula_units_Z 112
_cell_length_a 24.484537
_cell_length_b 14.592732
_cell_length_c 17.101968
_cell_angle_alpha 90.000000
_cell_angle_beta 90.000000
_cell_angle_gamma 90.000000
_cell_volume 6110.469660
_symmetry_space_group_name_H-M "C C C M"
_symmetry_group_IT_number 66
_symmetry_cell_setting 'orthorhombic'
loop_
_space_group_symop_operation_xyz
x,y,z
-x,-y,z
x,-y,1/2-z
-x,y,1/2-z
-x,-y,-z
x,y,-z
-x,y,1/2+z
x,-y,1/2+z
1/2+x,1/2+y,z
1/2-x,1/2-y,z
1/2+x,1/2-y,1/2-z
1/2-x,1/2+y,1/2-z
1/2-x,1/2-y,-z
1/2+x,1/2+y,-z
1/2-x,1/2+y,1/2+z
1/2+x,1/2-y,1/2+z
loop_
_atom_site_type_symbol
_atom_site_label
_atom_site_fract_x
_atom_site_fract_y
_atom_site_fract_z
Si Si1 0.337809 0.999648 0.162932
Si Si2 0.616991 0.171331 0.908466
Si Si3 0.003731 0.605906 0.842298
Si Si4 0.693735 0.295388 0.336811
Si Si5 0.697925 0.692217 0.349842
Si Si6 0.712746 0.490454 0.336501
Si Si7 0.105702 0.334578 0.909311
O O1 0.338470 0.898847 0.126488
O O2 0.364531 0.000000 0.250000
O O3 0.276554 0.035143 0.168912
O O4 0.372650 0.063540 0.106224
O O5 0.559661 0.153075 0.867629
O O6 0.641616 0.270553 0.887122
O O7 0.609704 0.159295 0.000000
O O8 0.956774 0.667779 0.881451
O O9 0.000000 0.500000 0.870870
O O10 0.000000 0.611518 0.750000
O O11 0.750000 0.250000 0.368221
O O12 0.696089 0.302528 0.243474
O O13 0.686749 0.398165 0.374208
O O14 0.641133 0.237729 0.360796
O O15 0.750000 0.750000 0.381139
O O16 0.702271 0.586504 0.380801
O O17 0.688159 0.500000 0.250000
O O18 0.109851 0.310069 0.000000
#
# Coordination Sequence:
#
# PCOD8276136 Si02
#       7
#    16  16  16  16  16  16  16
#     4  11  19  34  56  81 112 152 194 229 268 330
#     4  12  24  36  53  84 120 150 182 231 290 338
#     4  11  23  39  61  82 106 149 194 228 273 339
#     4  10  19  35  58  82 112 152 196 233 271 328
#     4  10  19  35  58  82 112 152 196 233 271 328
#     4   9  18  33  56  83 110 149 197 237 267 314
#     4  12  24  36  53  84 120 150 182 231 290 338
#
# _framework density 18.329197000000001
#
# number of rings (size 3 to 8) (size 9 to 14) (size 15 to 20)
#    0.000    1.286    4.286    3.429    0.000    1.143 
#    0.000    0.714    0.000    0.857    0.000    6.000 
#    0.000    0.000    0.000    0.000    0.000    0.000 
#
# Total GULP energy -694298.086513 kJ/mol
# GULP energy per Si atom -12398.180116 kJ/mol
# Density = 1.828748 g / cm^3
# Si number density = 18.329197 Si / 1000 Ang^3
#
#
#
# Elastic Constant Matrix: (Units=GPa)
#
#
# Indices 1 2 3 4 5 6 
#
# 1 94.8610 49.3869 18.2547 0.0000 0.0000 0.0000
# 2 49.3869 123.3083 22.1080 0.0000 0.0000 0.0000
# 3 18.2547 22.1080 58.3284 0.0000 0.0000 0.0000
# 4 0.0000 0.0000 0.0000 16.6549 0.0000 0.0000
# 5 0.0000 0.0000 0.0000 0.0000 -1.0679 0.0000
# 6 0.0000 0.0000 0.0000 0.0000 0.0000 24.6478
#
#
#
# Elastic Compliance Matrix: (Units=1/GPa)
#
#
# Indices 1 2 3 4 5 6 
#
# 1 0.013614 -0.005030 -0.002354 0.000000 0.000000 0.000000
# 2 -0.005030 0.010560 -0.002428 0.000000 0.000000 0.000000
# 3 -0.002354 -0.002428 0.018801 0.000000 0.000000 0.000000
# 4 0.000000 0.000000 0.000000 0.060042 0.000000 0.000000
# 5 0.000000 0.000000 0.000000 0.000000 -0.936433 0.000000
# 6 0.000000 0.000000 0.000000 0.000000 0.000000 0.040572
#
#
# Mechanical properties :
#
#
# Convention : Reuss Voigt Hill
#
# Bulk Modulus (GPa) = 42.82676 50.66632 46.74654
# Shear Modulus (GPa) = -6.53222 20.49683 6.98230
#
# Velocity S-wave (km/s) = -1.88986 3.34767 1.95388
# Velocity P-wave (km/s) = 4.31902 6.53031 5.53619
#
# Compressibility (1/GPa) = 0.02334989
#
# Stress axis : x y z
#
# Youngs Moduli (GPa) = 73.45539 94.69812 53.18776
#
# Poissons Ratio (x) = 0.47638 0.12520
# Poissons Ratio (y) = 0.36951 0.12915
# Poissons Ratio (z) = 0.17291 0.22994
#
# Static dielectric constant tensor:
#      x y z
#    x 3.281120 0.000000 0.000000 
#    y 0.000000 3.657400 0.000000 
#    z 0.000000 0.000000 3.187730 
# 
# 
# High freq. dielectric constant tensor:
#      x y z
#    x 1.697540 0.000000 0.000000 
#    y 0.000000 1.708160 0.000000 
#    z 0.000000 0.000000 1.694750 
# 
# From -- ./inp_files/33324.got.cif
#   From: 2010.03.12/outbox.cif.g09.slc.cpg/sg66_17_cif.got.tgz:33324.got - 2010.04.10 21:57:39.
