data_PCOD8276397
_publ_section_title
;
Structure prediction by ZEFSAII (Michael W. Deem and Ramdas Pophale) SiO2 
 PCOD8276397
Probable space group: C C C M
;
_chemical_formula_sum "Si O2"
_cell_formula_units_Z 112
_cell_length_a 14.885786
_cell_length_b 24.235672
_cell_length_c 14.482060
_cell_angle_alpha 90.000000
_cell_angle_beta 90.000000
_cell_angle_gamma 90.000000
_cell_volume 5224.649730
_symmetry_space_group_name_H-M "C C C M"
_symmetry_group_IT_number 66
_symmetry_cell_setting 'orthorhombic'
loop_
_space_group_symop_operation_xyz
x,y,z
-x,-y,z
x,-y,1/2-z
-x,y,1/2-z
-x,-y,-z
x,y,-z
-x,y,1/2+z
x,-y,1/2+z
1/2+x,1/2+y,z
1/2-x,1/2-y,z
1/2+x,1/2-y,1/2-z
1/2-x,1/2+y,1/2-z
1/2-x,1/2-y,-z
1/2+x,1/2+y,-z
1/2-x,1/2+y,1/2+z
1/2+x,1/2-y,1/2+z
loop_
_atom_site_type_symbol
_atom_site_label
_atom_site_fract_x
_atom_site_fract_y
_atom_site_fract_z
Si Si1 0.061579 0.547497 0.897193
Si Si2 0.128263 0.153740 0.107488
Si Si3 0.948326 0.216256 0.895618
Si Si4 0.243570 0.031054 0.342620
Si Si5 0.708796 0.345271 0.207666
Si Si6 0.389717 0.834897 0.108060
Si Si7 0.577196 0.535185 0.896814
O O1 0.165811 0.530731 0.901893
O O2 0.059516 0.609673 0.852838
O O3 0.000000 0.500000 0.846151
O O4 0.021986 0.552485 0.000000
O O5 0.208965 0.165406 0.180473
O O6 0.089441 0.095553 0.145530
O O7 0.050294 0.198147 0.120818
O O8 0.162635 0.151696 0.000000
O O9 0.879381 0.184813 0.830416
O O10 0.952244 0.281936 0.877271
O O11 0.917465 0.203481 0.000000
O O12 0.204188 0.090861 0.320163
O O13 0.268807 0.000000 0.250000
O O14 0.169677 0.998001 0.399272
O O15 0.799387 0.320564 0.164727
O O16 0.364873 0.844254 0.000000
O O17 0.500000 0.500000 0.843187
O O18 0.542578 0.545721 0.000000
#
# Coordination Sequence:
#
# PCOD8276397 Si02
#       7
#    16  16  16  16  16  16  16
#     4   9  19  37  63  90 116 149 191 243 304 364
#     4  10  21  36  54  81 116 159 201 238 289 354
#     4  10  20  35  59  89 120 151 191 249 306 357
#     4  11  21  34  54  84 117 157 195 244 294 350
#     4  11  20  34  57  85 120 154 196 243 300 359
#     4   9  19  36  63  95 119 144 190 251 311 364
#     4  10  20  34  52  79 116 158 201 241 287 350
#
# _framework density 21.436844000000001
#
# number of rings (size 3 to 8) (size 9 to 14) (size 15 to 20)
#    0.000    2.000    1.429    2.571    0.000    4.571 
#    0.000    0.000   15.714    1.714    0.000    0.000 
#    0.000    5.143    0.000    0.000    0.000    0.000 
#
# Total GULP energy -693927.980110 kJ/mol
# GULP energy per Si atom -12391.571073 kJ/mol
# Density = 2.138805 g / cm^3
# Si number density = 21.436844 Si / 1000 Ang^3
#
#
#
# Elastic Constant Matrix: (Units=GPa)
#
#
# Indices 1 2 3 4 5 6 
#
# 1 84.9339 59.4330 26.8617 0.0000 0.0000 0.0000
# 2 59.4330 133.0441 24.2948 0.0000 0.0000 0.0000
# 3 26.8617 24.2948 85.1677 0.0000 0.0000 0.0000
# 4 0.0000 0.0000 0.0000 12.1626 0.0000 0.0000
# 5 0.0000 0.0000 0.0000 0.0000 14.3911 0.0000
# 6 0.0000 0.0000 0.0000 0.0000 0.0000 11.3849
#
#
#
# Elastic Compliance Matrix: (Units=1/GPa)
#
#
# Indices 1 2 3 4 5 6 
#
# 1 0.018113 -0.007435 -0.003592 0.000000 0.000000 0.000000
# 2 -0.007435 0.010982 -0.000787 0.000000 0.000000 0.000000
# 3 -0.003592 -0.000787 0.013099 0.000000 0.000000 0.000000
# 4 0.000000 0.000000 0.000000 0.082219 0.000000 0.000000
# 5 0.000000 0.000000 0.000000 0.000000 0.069487 0.000000
# 6 0.000000 0.000000 0.000000 0.000000 0.000000 0.087835
#
#
# Mechanical properties :
#
#
# Convention : Reuss Voigt Hill
#
# Bulk Modulus (GPa) = 53.86722 58.25832 56.06277
# Shear Modulus (GPa) = 16.04866 20.42481 18.23674
#
# Velocity S-wave (km/s) = 2.73911 3.09008 2.91987
# Velocity P-wave (km/s) = 5.93182 6.32196 6.13000
#
# Compressibility (1/GPa) = 0.01856417
#
# Stress axis : x y z
#
# Youngs Moduli (GPa) = 55.20969 91.06126 76.34173
#
# Poissons Ratio (x) = 0.67708 0.27420
# Poissons Ratio (y) = 0.41051 0.06012
# Poissons Ratio (z) = 0.19830 0.07171
#
# Static dielectric constant tensor:
#      x y z
#    x 3.646320 0.000000 0.000000 
#    y 0.000000 4.256740 0.000000 
#    z 0.000000 0.000000 3.823760 
# 
# 
# High freq. dielectric constant tensor:
#      x y z
#    x 1.813380 0.000000 0.000000 
#    y 0.000000 1.855830 0.000000 
#    z 0.000000 0.000000 1.835110 
# 
# From -- ./inp_files/28668.got.cif
#   From: 2010.03.12/outbox.cif.g09.slc.cpg/sg66_15_cif.got.tgz:28668.got - 2010.04.10 21:57:39.
