data_PCOD8276440
_publ_section_title
;
Structure prediction by ZEFSAII (Michael W. Deem and Ramdas Pophale) SiO2 
 PCOD8276440
Probable space group: C C C M
;
_chemical_formula_sum "Si O2"
_cell_formula_units_Z 88
_cell_length_a 30.705147
_cell_length_b 14.738930
_cell_length_c 9.318469
_cell_angle_alpha 90.000000
_cell_angle_beta 90.000000
_cell_angle_gamma 90.000000
_cell_volume 4217.175763
_symmetry_space_group_name_H-M "C C C M"
_symmetry_group_IT_number 66
_symmetry_cell_setting 'orthorhombic'
loop_
_space_group_symop_operation_xyz
x,y,z
-x,-y,z
x,-y,1/2-z
-x,y,1/2-z
-x,-y,-z
x,y,-z
-x,y,1/2+z
x,-y,1/2+z
1/2+x,1/2+y,z
1/2-x,1/2-y,z
1/2+x,1/2-y,1/2-z
1/2-x,1/2+y,1/2-z
1/2-x,1/2-y,-z
1/2+x,1/2+y,-z
1/2-x,1/2+y,1/2+z
1/2+x,1/2-y,1/2+z
loop_
_atom_site_type_symbol
_atom_site_label
_atom_site_fract_x
_atom_site_fract_y
_atom_site_fract_z
Si Si1 0.750000 0.750000 0.264874
Si Si2 0.402857 0.415914 0.336448
Si Si3 0.802623 0.579705 0.338709
Si Si4 0.454892 0.768816 0.832330
Si Si5 0.166618 0.836366 0.346735
Si Si6 0.118678 0.648591 0.661248
O O1 0.776934 0.675238 0.354789
O O2 0.783089 0.809866 0.172410
O O3 0.423877 0.500000 0.250000
O O4 0.398234 0.444611 0.500000
O O5 0.433680 0.329993 0.316382
O O6 0.353553 0.398410 0.278384
O O7 0.776777 0.500000 0.250000
O O8 0.812244 0.546285 0.500000
O O9 0.847498 0.588344 0.250557
O O10 0.500000 0.766538 0.750000
O O11 0.425548 0.845358 0.754667
O O12 0.460811 0.794009 0.000000
O O13 0.163229 0.887764 0.500000
O O14 0.137683 0.747702 0.355048
O O15 0.110110 0.608940 0.500000
#
# Coordination Sequence:
#
# PCOD8276440 Si02
#       6
#     8  16  16  16  16  16
#     4  10  22  38  60  86 118 156 198 248 300 352
#     4  10  21  35  51  73 106 147 190 235 288 348
#     4  11  23  39  60  87 118 156 200 245 295 353
#     4  10  20  34  55  83 111 144 187 235 288 348
#     4   9  18  33  54  76 102 139 184 231 283 340
#     4   9  18  35  57  80 108 143 182 228 279 335
#
# _framework density 20.867045999999998
#
# number of rings (size 3 to 8) (size 9 to 14) (size 15 to 20)
#    0.000    2.182    0.000    2.727    0.000   10.545 
#    0.000    1.818    0.000    0.545    0.000    3.818 
#    0.000    0.000    0.000    0.000    0.000    0.000 
#
# Total GULP energy -545217.786804 kJ/mol
# GULP energy per Si atom -12391.313336 kJ/mol
# Density = 2.081955 g / cm^3
# Si number density = 20.867046 Si / 1000 Ang^3
#
#
#
# Elastic Constant Matrix: (Units=GPa)
#
#
# Indices 1 2 3 4 5 6 
#
# 1 113.0296 15.2538 59.1641 0.0000 0.0000 0.0000
# 2 15.2538 69.4327 40.9574 0.0000 0.0000 0.0000
# 3 59.1641 40.9574 197.5928 0.0000 0.0000 0.0000
# 4 0.0000 0.0000 0.0000 29.7619 0.0000 0.0000
# 5 0.0000 0.0000 0.0000 0.0000 2.1113 0.0000
# 6 0.0000 0.0000 0.0000 0.0000 0.0000 17.5543
#
#
#
# Elastic Compliance Matrix: (Units=1/GPa)
#
#
# Indices 1 2 3 4 5 6 
#
# 1 0.010508 -0.000516 -0.003039 0.000000 0.000000 0.000000
# 2 -0.000516 0.016434 -0.003252 0.000000 0.000000 0.000000
# 3 -0.003039 -0.003252 0.006645 0.000000 0.000000 0.000000
# 4 0.000000 0.000000 0.000000 0.033600 0.000000 0.000000
# 5 0.000000 0.000000 0.000000 0.000000 0.473651 0.000000
# 6 0.000000 0.000000 0.000000 0.000000 0.000000 0.056966
#
#
# Mechanical properties :
#
#
# Convention : Reuss Voigt Hill
#
# Bulk Modulus (GPa) = 50.06818 67.86728 58.96773
# Shear Modulus (GPa) = 8.08962 27.53082 17.81022
#
# Velocity S-wave (km/s) = 1.97108 3.63622 2.92466
# Velocity P-wave (km/s) = 5.40613 7.08687 6.30277
#
# Compressibility (1/GPa) = 0.01997277
#
# Stress axis : x y z
#
# Youngs Moduli (GPa) = 95.16772 60.84916 150.48704
#
# Poissons Ratio (x) = 0.03137 0.45739
# Poissons Ratio (y) = 0.04906 0.48940
# Poissons Ratio (z) = 0.28925 0.19789
#
# Static dielectric constant tensor:
#      x y z
#    x 3.691960 0.000000 0.000000 
#    y 0.000000 3.689110 0.000000 
#    z 0.000000 0.000000 4.064610 
# 
# 
# High freq. dielectric constant tensor:
#      x y z
#    x 1.797430 0.000000 0.000000 
#    y 0.000000 1.803230 0.000000 
#    z 0.000000 0.000000 1.833120 
# 
# From -- ./inp_files/11422.got.cif
#   From: 2010.03.12/outbox.cif.g09.slc.cpg/sg66_6_cif.got.tgz:11422.got - 2010.04.10 21:57:39.
