data_PCOD8276274
_publ_section_title
;
Structure prediction by ZEFSAII (Michael W. Deem and Ramdas Pophale) SiO2 
 PCOD8276274
Probable space group: C C C M
;
_chemical_formula_sum "Si O2"
_cell_formula_units_Z 96
_cell_length_a 23.636729
_cell_length_b 23.922738
_cell_length_c 8.971802
_cell_angle_alpha 90.000000
_cell_angle_beta 90.000000
_cell_angle_gamma 90.000000
_cell_volume 5073.152768
_symmetry_space_group_name_H-M "C C C M"
_symmetry_group_IT_number 66
_symmetry_cell_setting 'orthorhombic'
loop_
_space_group_symop_operation_xyz
x,y,z
-x,-y,z
x,-y,1/2-z
-x,y,1/2-z
-x,-y,-z
x,y,-z
-x,y,1/2+z
x,-y,1/2+z
1/2+x,1/2+y,z
1/2-x,1/2-y,z
1/2+x,1/2-y,1/2-z
1/2-x,1/2+y,1/2-z
1/2-x,1/2-y,-z
1/2+x,1/2+y,-z
1/2-x,1/2+y,1/2+z
1/2+x,1/2-y,1/2+z
loop_
_atom_site_type_symbol
_atom_site_label
_atom_site_fract_x
_atom_site_fract_y
_atom_site_fract_z
Si Si1 0.943243 0.950786 0.162789
Si Si2 0.056989 0.355045 0.325960
Si Si3 0.940652 0.226168 0.823746
Si Si4 0.142522 0.854295 0.332328
Si Si5 0.852552 0.556546 0.673954
Si Si6 0.777707 0.941301 0.323891
O O1 0.909544 0.894916 0.152498
O O2 0.000000 0.937224 0.250000
O O3 0.909302 0.000000 0.250000
O O4 0.957639 0.973775 0.000000
O O5 0.048384 0.362427 0.500000
O O6 0.068720 0.290917 0.284459
O O7 0.109731 0.391778 0.267878
O O8 0.000000 0.377215 0.250000
O O9 0.883643 0.197771 0.758041
O O10 0.000000 0.205481 0.750000
O O11 0.944228 0.214338 0.000000
O O12 0.162994 0.836916 0.500000
O O13 0.191722 0.886660 0.243810
O O14 0.874141 0.500000 0.750000
O O15 0.860012 0.547716 0.500000
O O16 0.787708 0.569214 0.714601
O O17 0.789805 0.944906 0.500000
O O18 0.797603 0.000000 0.250000
#
# Coordination Sequence:
#
# PCOD8276274 Si02
#       6
#    16  16  16  16  16  16
#     4  10  20  31  44  63  89 121 157 204 258 306
#     4   9  19  36  57  82 111 141 174 213 260 316
#     4  10  20  35  55  77 104 140 179 221 268 315
#     4  11  22  34  50  73 100 134 179 224 264 313
#     4   9  19  36  57  82 111 141 174 213 260 316
#     4  10  20  35  55  77 104 140 179 221 268 315
#
# _framework density 18.923143
#
# number of rings (size 3 to 8) (size 9 to 14) (size 15 to 20)
#    0.000    2.167    0.000    3.500    0.000    7.667 
#    0.000    2.500    0.000    5.000    0.000    0.000 
#    0.000    0.000    0.000    0.000    0.000    0.000 
#
# Total GULP energy -594938.073971 kJ/mol
# GULP energy per Si atom -12394.543208 kJ/mol
# Density = 1.888007 g / cm^3
# Si number density = 18.923143 Si / 1000 Ang^3
#
#
#
# Elastic Constant Matrix: (Units=GPa)
#
#
# Indices 1 2 3 4 5 6 
#
# 1 101.2156 62.8008 47.1769 0.0000 0.0000 0.0000
# 2 62.8008 96.1057 40.9074 0.0000 0.0000 0.0000
# 3 47.1769 40.9074 103.1135 0.0000 0.0000 0.0000
# 4 0.0000 0.0000 0.0000 28.5729 0.0000 0.0000
# 5 0.0000 0.0000 0.0000 0.0000 25.8486 0.0000
# 6 0.0000 0.0000 0.0000 0.0000 0.0000 40.8227
#
#
#
# Elastic Compliance Matrix: (Units=1/GPa)
#
#
# Indices 1 2 3 4 5 6 
#
# 1 0.018083 -0.009980 -0.004314 0.000000 0.000000 0.000000
# 2 -0.009980 0.018027 -0.002586 0.000000 0.000000 0.000000
# 3 -0.004314 -0.002586 0.012698 0.000000 0.000000 0.000000
# 4 0.000000 0.000000 0.000000 0.034998 0.000000 0.000000
# 5 0.000000 0.000000 0.000000 0.000000 0.038687 0.000000
# 6 0.000000 0.000000 0.000000 0.000000 0.000000 0.024496
#
#
# Mechanical properties :
#
#
# Convention : Reuss Voigt Hill
#
# Bulk Modulus (GPa) = 66.45308 66.91165 66.68236
# Shear Modulus (GPa) = 26.91568 29.01882 27.96725
#
# Velocity S-wave (km/s) = 3.77552 3.92025 3.84857
# Velocity P-wave (km/s) = 7.36204 7.47848 7.42049
#
# Compressibility (1/GPa) = 0.01504821
#
# Stress axis : x y z
#
# Youngs Moduli (GPa) = 55.30037 55.47106 78.75471
#
# Poissons Ratio (x) = 0.55361 0.33975
# Poissons Ratio (y) = 0.55191 0.20364
# Poissons Ratio (z) = 0.23857 0.14343
#
# Static dielectric constant tensor:
#      x y z
#    x 3.507870 0.000000 0.000000 
#    y 0.000000 3.606510 0.000000 
#    z 0.000000 0.000000 3.877230 
# 
# 
# High freq. dielectric constant tensor:
#      x y z
#    x 1.727620 0.000000 0.000000 
#    y 0.000000 1.728180 0.000000 
#    z 0.000000 0.000000 1.746720 
# 
# From -- ./inp_files/9106.got.cif
#   From: 2010.03.12/outbox.cif.g09.slc.cpg/sg66_5_cif.got.tgz:9106.got - 2010.04.10 21:57:39.
