data_PCOD8276063
_publ_section_title
;
Structure prediction by ZEFSAII (Michael W. Deem and Ramdas Pophale) SiO2 
 PCOD8276063
Probable space group: C C C M
;
_chemical_formula_sum "Si O2"
_cell_formula_units_Z 64
_cell_length_a 5.137745
_cell_length_b 26.229739
_cell_length_c 24.815878
_cell_angle_alpha 90.000000
_cell_angle_beta 90.000000
_cell_angle_gamma 90.000000
_cell_volume 3344.230164
_symmetry_space_group_name_H-M "C C C M"
_symmetry_group_IT_number 66
_symmetry_cell_setting 'orthorhombic'
loop_
_space_group_symop_operation_xyz
x,y,z
-x,-y,z
x,-y,1/2-z
-x,y,1/2-z
-x,-y,-z
x,y,-z
-x,y,1/2+z
x,-y,1/2+z
1/2+x,1/2+y,z
1/2-x,1/2-y,z
1/2+x,1/2-y,1/2-z
1/2-x,1/2+y,1/2-z
1/2-x,1/2-y,-z
1/2+x,1/2+y,-z
1/2-x,1/2+y,1/2+z
1/2+x,1/2-y,1/2+z
loop_
_atom_site_type_symbol
_atom_site_label
_atom_site_fract_x
_atom_site_fract_y
_atom_site_fract_z
Si Si1 0.000447 0.779167 0.064110
Si Si2 0.396419 0.944692 0.897301
Si Si3 0.253283 0.943226 0.225849
Si Si4 0.900775 0.107285 0.561945
O O1 0.250000 0.750000 0.088373
O O2 0.750000 0.750000 0.086804
O O3 0.993916 0.837660 0.083542
O O4 0.008771 0.777285 0.000000
O O5 0.270952 0.944352 0.838122
O O6 0.646976 0.908129 0.903268
O O7 0.150873 0.929869 0.934386
O O8 0.500000 0.000000 0.914335
O O9 0.500000 0.913145 0.250000
O O10 0.000000 0.914724 0.250000
O O11 0.252055 0.000000 0.250000
O O12 0.808754 0.109352 0.500000
#
# Coordination Sequence:
#
# PCOD8276063 Si02
#       4
#    16  16  16  16
#     4   9  17  33  56  76 100 141 189 240 283 303
#     4  12  23  36  55  79 114 159 188 224 273 330
#     4  10  19  34  56  76  96 137 181 246 282 303
#     4  11  24  37  52  81 119 154 195 226 258 339
#
# _framework density 19.137439000000001
#
# number of rings (size 3 to 8) (size 9 to 14) (size 15 to 20)
#    0.000    1.500    2.500    4.500    3.500    7.000 
#    0.000    0.000    0.000    0.000    0.000    0.000 
#    0.000   56.000    0.000    0.000    0.000    0.000 
#
# Total GULP energy -396606.149340 kJ/mol
# GULP energy per Si atom -12393.942167 kJ/mol
# Density = 1.909388 g / cm^3
# Si number density = 19.137439 Si / 1000 Ang^3
#
#
#
# Elastic Constant Matrix: (Units=GPa)
#
#
# Indices 1 2 3 4 5 6 
#
# 1 186.5508 48.7150 32.4991 0.0000 0.0000 0.0000
# 2 48.7150 89.2042 35.5339 0.0000 0.0000 0.0000
# 3 32.4991 35.5339 58.5180 0.0000 0.0000 0.0000
# 4 0.0000 0.0000 0.0000 0.4290 0.0000 0.0000
# 5 0.0000 0.0000 0.0000 0.0000 37.6395 0.0000
# 6 0.0000 0.0000 0.0000 0.0000 0.0000 28.0606
#
#
#
# Elastic Compliance Matrix: (Units=1/GPa)
#
#
# Indices 1 2 3 4 5 6 
#
# 1 0.006407 -0.002746 -0.001891 0.000000 0.000000 0.000000
# 2 -0.002746 0.015964 -0.008169 0.000000 0.000000 0.000000
# 3 -0.001891 -0.008169 0.023099 0.000000 0.000000 0.000000
# 4 0.000000 0.000000 0.000000 2.331155 0.000000 0.000000
# 5 0.000000 0.000000 0.000000 0.000000 0.026568 0.000000
# 6 0.000000 0.000000 0.000000 0.000000 0.000000 0.035637
#
#
# Mechanical properties :
#
#
# Convention : Reuss Voigt Hill
#
# Bulk Modulus (GPa) = 50.35479 63.08545 56.72012
# Shear Modulus (GPa) = 2.02342 27.72748 14.87545
#
# Velocity S-wave (km/s) = 1.02937 3.81052 2.79103
# Velocity P-wave (km/s) = 5.27087 7.23851 6.33159
#
# Compressibility (1/GPa) = 0.01985908
#
# Stress axis : x y z
#
# Youngs Moduli (GPa) = 156.08260 62.64252 43.29136
#
# Poissons Ratio (x) = 0.17199 0.08186
# Poissons Ratio (y) = 0.42854 0.35364
# Poissons Ratio (z) = 0.29515 0.51171
#
# Static dielectric constant tensor:
#      x y z
#    x 2.268800 0.000000 0.000000 
#    y 0.000000 3.371470 0.000000 
#    z 0.000000 0.000000 3.198520 
# 
# 
# High freq. dielectric constant tensor:
#      x y z
#    x 1.781740 0.000000 0.000000 
#    y 0.000000 1.711890 0.000000 
#    z 0.000000 0.000000 1.706930 
# 
# From -- ./inp_files/52193.got.cif
#   From: 2010.03.12/outbox.cif.g09.slc.cpg/sg66_27_cif.got.tgz:52193.got - 2010.04.10 21:57:39.
