data_PCOD8276282
_publ_section_title
;
Structure prediction by ZEFSAII (Michael W. Deem and Ramdas Pophale) SiO2 
 PCOD8276282
Probable space group: C C C M
;
_chemical_formula_sum "Si O2"
_cell_formula_units_Z 112
_cell_length_a 25.419215
_cell_length_b 27.613256
_cell_length_c 9.291619
_cell_angle_alpha 90.000000
_cell_angle_beta 90.000000
_cell_angle_gamma 90.000000
_cell_volume 6521.855122
_symmetry_space_group_name_H-M "C C C M"
_symmetry_group_IT_number 66
_symmetry_cell_setting 'orthorhombic'
loop_
_space_group_symop_operation_xyz
x,y,z
-x,-y,z
x,-y,1/2-z
-x,y,1/2-z
-x,-y,-z
x,y,-z
-x,y,1/2+z
x,-y,1/2+z
1/2+x,1/2+y,z
1/2-x,1/2-y,z
1/2+x,1/2-y,1/2-z
1/2-x,1/2+y,1/2-z
1/2-x,1/2-y,-z
1/2+x,1/2+y,-z
1/2-x,1/2+y,1/2+z
1/2+x,1/2-y,1/2+z
loop_
_atom_site_type_symbol
_atom_site_label
_atom_site_fract_x
_atom_site_fract_y
_atom_site_fract_z
Si Si1 0.050711 0.165950 0.169660
Si Si2 0.161628 0.130573 0.830009
Si Si3 0.587821 0.770681 0.829776
Si Si4 0.695567 0.267106 0.671691
Si Si5 0.358934 0.950873 0.667431
Si Si6 0.447927 0.125385 0.829125
Si Si7 0.739222 0.548927 0.831076
O O1 0.099528 0.130417 0.210025
O O2 0.060007 0.221319 0.224805
O O3 0.000000 0.144628 0.250000
O O4 0.041069 0.165676 0.000000
O O5 0.185280 0.179749 0.765407
O O6 0.196209 0.086568 0.767768
O O7 0.168163 0.130887 0.000000
O O8 0.648918 0.769146 0.781124
O O9 0.562368 0.820024 0.769152
O O10 0.584641 0.771886 0.000000
O O11 0.698653 0.269150 0.500000
O O12 0.750000 0.250000 0.740965
O O13 0.365327 0.962519 0.500000
O O14 0.373466 0.000000 0.750000
O O15 0.398661 0.908325 0.714828
O O16 0.299096 0.933787 0.701947
O O17 0.500000 0.105516 0.750000
O O18 0.456747 0.124677 0.000000
O O19 0.726378 0.500000 0.750000
O O20 0.731519 0.540529 0.000000
#
# Coordination Sequence:
#
# PCOD8276282 Si02
#       7
#    16  16  16  16  16  16  16
#     4   9  16  28  45  66  93 123 151 180 214 257
#     4   8  15  26  42  66  93 118 145 181 225 264
#     4   8  15  26  40  62  92 119 147 181 216 259
#     4   8  13  20  36  64  93 118 142 175 221 267
#     4   9  19  33  49  67  87 113 147 186 229 272
#     4  10  20  32  46  66  90 118 151 187 224 263
#     4   9  17  31  50  70  92 117 146 184 229 273
#
# _framework density 17.173027999999999
#
# number of rings (size 3 to 8) (size 9 to 14) (size 15 to 20)
#    0.000    3.286    0.000    2.143    2.000    0.857 
#    0.000    2.143    0.000    0.429    0.000    3.000 
#    0.000    4.000    0.000    0.000    0.000    0.000 
#
# Total GULP energy -693906.992408 kJ/mol
# GULP energy per Si atom -12391.196293 kJ/mol
# Density = 1.713394 g / cm^3
# Si number density = 17.173028 Si / 1000 Ang^3
#
#
#
# Elastic Constant Matrix: (Units=GPa)
#
#
# Indices 1 2 3 4 5 6 
#
# 1 154.5769 70.1602 32.8877 0.0000 0.0000 0.0000
# 2 70.1602 96.8700 24.7493 0.0000 0.0000 0.0000
# 3 32.8877 24.7493 19.8339 0.0000 0.0000 0.0000
# 4 0.0000 0.0000 0.0000 16.3336 0.0000 0.0000
# 5 0.0000 0.0000 0.0000 0.0000 22.2591 0.0000
# 6 0.0000 0.0000 0.0000 0.0000 0.0000 27.9412
#
#
#
# Elastic Compliance Matrix: (Units=1/GPa)
#
#
# Indices 1 2 3 4 5 6 
#
# 1 0.011469 -0.005062 -0.012701 0.000000 0.000000 0.000000
# 2 -0.005062 0.017388 -0.013305 0.000000 0.000000 0.000000
# 3 -0.012701 -0.013305 0.088082 0.000000 0.000000 0.000000
# 4 0.000000 0.000000 0.000000 0.061224 0.000000 0.000000
# 5 0.000000 0.000000 0.000000 0.000000 0.044925 0.000000
# 6 0.000000 0.000000 0.000000 0.000000 0.000000 0.035789
#
#
# Mechanical properties :
#
#
# Convention : Reuss Voigt Hill
#
# Bulk Modulus (GPa) = 18.24694 58.54169 38.39431
# Shear Modulus (GPa) = 14.73704 22.87235 18.80470
#
# Velocity S-wave (km/s) = 2.93260 3.65345 3.31269
# Velocity P-wave (km/s) = 4.70269 7.20834 6.08586
#
# Compressibility (1/GPa) = 0.05480372
#
# Stress axis : x y z
#
# Youngs Moduli (GPa) = 87.19145 57.50988 11.35306
#
# Poissons Ratio (x) = 0.29109 0.14420
# Poissons Ratio (y) = 0.44133 0.15105
# Poissons Ratio (z) = 1.10746 0.76515
#
# Static dielectric constant tensor:
#      x y z
#    x 3.456880 0.000000 0.000000 
#    y 0.000000 3.299310 0.000000 
#    z 0.000000 0.000000 2.714540 
# 
# 
# High freq. dielectric constant tensor:
#      x y z
#    x 1.676440 0.000000 0.000000 
#    y 0.000000 1.649190 0.000000 
#    z 0.000000 0.000000 1.612400 
# 
# From -- ./inp_files/19934.got.cif
#   From: 2010.03.12/outbox.cif.g09.slc.cpg/sg66_10_cif.got.tgz:19934.got - 2010.04.10 21:57:39.
