data_PCOD8276132
_publ_section_title
;
Structure prediction by ZEFSAII (Michael W. Deem and Ramdas Pophale) SiO2 
 PCOD8276132
Probable space group: C C C M
;
_chemical_formula_sum "Si O2"
_cell_formula_units_Z 112
_cell_length_a 14.208970
_cell_length_b 22.334791
_cell_length_c 19.202921
_cell_angle_alpha 90.000000
_cell_angle_beta 90.000000
_cell_angle_gamma 90.000000
_cell_volume 6094.130997
_symmetry_space_group_name_H-M "C C C M"
_symmetry_group_IT_number 66
_symmetry_cell_setting 'orthorhombic'
loop_
_space_group_symop_operation_xyz
x,y,z
-x,-y,z
x,-y,1/2-z
-x,y,1/2-z
-x,-y,-z
x,y,-z
-x,y,1/2+z
x,-y,1/2+z
1/2+x,1/2+y,z
1/2-x,1/2-y,z
1/2+x,1/2-y,1/2-z
1/2-x,1/2+y,1/2-z
1/2-x,1/2-y,-z
1/2+x,1/2+y,-z
1/2-x,1/2+y,1/2+z
1/2+x,1/2-y,1/2+z
loop_
_atom_site_type_symbol
_atom_site_label
_atom_site_fract_x
_atom_site_fract_y
_atom_site_fract_z
Si Si1 0.089962 0.127904 0.080475
Si Si2 0.603161 0.975835 0.173541
Si Si3 0.604516 0.150409 0.726049
Si Si4 0.732484 0.317328 0.183433
Si Si5 0.723479 0.521012 0.919332
Si Si6 0.407088 0.716769 0.702836
Si Si7 0.878231 0.900946 0.579007
O O1 0.171704 0.082100 0.105206
O O2 0.088456 0.187169 0.127293
O O3 0.989309 0.097354 0.091785
O O4 0.104707 0.146655 0.000000
O O5 0.619426 0.904121 0.172872
O O6 0.680702 0.997507 0.119253
O O7 0.500000 0.000000 0.150278
O O8 0.626817 0.000000 0.250000
O O9 0.500000 0.139979 0.750000
O O10 0.670566 0.149254 0.795358
O O11 0.616914 0.213890 0.687434
O O12 0.750000 0.250000 0.154791
O O13 0.675287 0.315342 0.255275
O O14 0.675929 0.352872 0.125505
O O15 0.651865 0.467835 0.903006
O O16 0.748699 0.525946 0.000000
O O17 0.500000 0.710838 0.750000
O O18 0.853456 0.883344 0.500000
#
# Coordination Sequence:
#
# PCOD8276132 Si02
#       7
#    16  16  16  16  16  16  16
#     4  10  20  37  59  84 116 148 181 224 280 343
#     4  11  21  37  58  82 107 143 193 239 277 324
#     4  10  20  35  56  79 110 145 181 228 284 325
#     4  10  20  34  57  82 112 148 187 233 281 338
#     4  10  22  38  57  79 111 152 185 226 284 338
#     4  10  19  35  57  84 111 145 184 225 276 336
#     4  10  20  35  56  83 113 148 184 225 282 344
#
# _framework density 18.378337999999999
#
# number of rings (size 3 to 8) (size 9 to 14) (size 15 to 20)
#    0.000    1.857    2.857    2.143    0.000    2.286 
#    0.000    0.714    0.000    5.571    0.000    0.000 
#    0.000    0.000    0.000    0.000    0.000    0.000 
#
# Total GULP energy -694187.364396 kJ/mol
# GULP energy per Si atom -12396.202936 kJ/mol
# Density = 1.833651 g / cm^3
# Si number density = 18.378338 Si / 1000 Ang^3
#
#
#
# Elastic Constant Matrix: (Units=GPa)
#
#
# Indices 1 2 3 4 5 6 
#
# 1 104.5916 31.0526 41.2000 0.0000 0.0000 0.0000
# 2 31.0526 98.1603 49.8291 0.0000 0.0000 0.0000
# 3 41.2000 49.8291 73.7522 0.0000 0.0000 0.0000
# 4 0.0000 0.0000 0.0000 10.5270 0.0000 0.0000
# 5 0.0000 0.0000 0.0000 0.0000 32.6706 0.0000
# 6 0.0000 0.0000 0.0000 0.0000 0.0000 19.9691
#
#
#
# Elastic Compliance Matrix: (Units=1/GPa)
#
#
# Indices 1 2 3 4 5 6 
#
# 1 0.012283 -0.000613 -0.006448 0.000000 0.000000 0.000000
# 2 -0.000613 0.015536 -0.010154 0.000000 0.000000 0.000000
# 3 -0.006448 -0.010154 0.024021 0.000000 0.000000 0.000000
# 4 0.000000 0.000000 0.000000 0.094994 0.000000 0.000000
# 5 0.000000 0.000000 0.000000 0.000000 0.030609 0.000000
# 6 0.000000 0.000000 0.000000 0.000000 0.000000 0.050077
#
#
# Mechanical properties :
#
#
# Convention : Reuss Voigt Hill
#
# Bulk Modulus (GPa) = 57.43524 57.85194 57.64359
# Shear Modulus (GPa) = 18.67402 22.92816 20.80109
#
# Velocity S-wave (km/s) = 3.19107 3.53592 3.36791
# Velocity P-wave (km/s) = 6.70050 6.94384 6.82326
#
# Compressibility (1/GPa) = 0.01741091
#
# Stress axis : x y z
#
# Youngs Moduli (GPa) = 81.41575 64.36749 41.62994
#
# Poissons Ratio (x) = 0.03943 0.26841
# Poissons Ratio (y) = 0.04988 0.42272
# Poissons Ratio (z) = 0.52493 0.65360
#
# Static dielectric constant tensor:
#      x y z
#    x 3.703360 0.000000 0.000000 
#    y 0.000000 3.636170 0.000000 
#    z 0.000000 0.000000 3.193910 
# 
# 
# High freq. dielectric constant tensor:
#      x y z
#    x 1.730660 0.000000 0.000000 
#    y 0.000000 1.720560 0.000000 
#    z 0.000000 0.000000 1.688190 
# 
# From -- ./inp_files/28696.got.cif
#   From: 2010.03.12/outbox.cif.g09.slc.cpg/sg66_15_cif.got.tgz:28696.got - 2010.04.10 21:57:39.
