data_PCOD8276642
_publ_section_title
;
Structure prediction by ZEFSAII (Michael W. Deem and Ramdas Pophale) SiO2 
 PCOD8276642
Probable space group: C C C M
;
_chemical_formula_sum "Si O2"
_cell_formula_units_Z 120
_cell_length_a 11.701753
_cell_length_b 20.346541
_cell_length_c 26.422881
_cell_angle_alpha 90.000000
_cell_angle_beta 90.000000
_cell_angle_gamma 90.000000
_cell_volume 6291.028948
_symmetry_space_group_name_H-M "C C C M"
_symmetry_group_IT_number 66
_symmetry_cell_setting 'orthorhombic'
loop_
_space_group_symop_operation_xyz
x,y,z
-x,-y,z
x,-y,1/2-z
-x,y,1/2-z
-x,-y,-z
x,y,-z
-x,y,1/2+z
x,-y,1/2+z
1/2+x,1/2+y,z
1/2-x,1/2-y,z
1/2+x,1/2-y,1/2-z
1/2-x,1/2+y,1/2-z
1/2-x,1/2-y,-z
1/2+x,1/2+y,-z
1/2-x,1/2+y,1/2+z
1/2+x,1/2-y,1/2+z
loop_
_atom_site_type_symbol
_atom_site_label
_atom_site_fract_x
_atom_site_fract_y
_atom_site_fract_z
Si Si1 0.483209 0.076672 0.147572
Si Si2 0.295210 0.931809 0.724321
Si Si3 0.873761 0.354107 0.557278
Si Si4 0.250000 0.250000 0.382383
Si Si5 0.127269 0.010016 0.852813
Si Si6 0.880762 0.891159 0.058064
Si Si7 0.978199 0.768160 0.559095
Si Si8 0.267025 0.882909 0.169853
O O1 0.399956 0.099617 0.193202
O O2 0.426860 0.090794 0.093506
O O3 0.601894 0.113448 0.153111
O O4 0.500000 0.000000 0.151803
O O5 0.189219 0.942039 0.686671
O O6 0.255528 0.883844 0.769260
O O7 0.335509 0.000000 0.750000
O O8 0.909429 0.372721 0.500000
O O9 0.737774 0.352000 0.563087
O O10 0.921323 0.282836 0.572729
O O11 0.137823 0.257877 0.416197
O O12 0.222622 0.187209 0.347903
O O13 0.120194 0.043322 0.908049
O O14 0.194646 0.941046 0.856797
O O15 0.000000 0.000000 0.831668
O O16 0.980194 0.840853 0.076600
O O17 0.900816 0.913342 0.000000
O O18 0.954900 0.770300 0.500000
#
# Coordination Sequence:
#
# PCOD8276642 Si02
#       8
#    16  16  16   8  16  16  16  16
#     4  12  19  37  64  90 116 152 198 248 300 350
#     4  10  21  37  62  86 110 151 199 249 289 353
#     4  10  20  36  59  90 122 153 197 248 299 355
#     4  12  23  42  58  86 126 158 195 248 298 362
#     4  11  22  39  61  89 119 157 200 243 300 356
#     4  10  20  38  62  90 121 154 200 251 297 354
#     4  10  21  38  61  85 118 166 204 234 291 368
#     4  11  24  38  62  87 117 158 197 246 301 356
#
# _framework density 19.074781000000002
#
# number of rings (size 3 to 8) (size 9 to 14) (size 15 to 20)
#    0.000    1.333    5.333    1.800    0.000    4.533 
#    0.000    3.333    2.933    0.000    0.000    0.000 
#    0.000    0.000    0.000    0.000    0.000    0.000 
#
# Total GULP energy -744042.508203 kJ/mol
# GULP energy per Si atom -12400.708470 kJ/mol
# Density = 1.903137 g / cm^3
# Si number density = 19.074781 Si / 1000 Ang^3
#
#
#
# Elastic Constant Matrix: (Units=GPa)
#
#
# Indices 1 2 3 4 5 6 
#
# 1 106.3355 24.2461 31.4298 0.0000 0.0000 0.0000
# 2 24.2461 82.0109 43.5362 0.0000 0.0000 0.0000
# 3 31.4298 43.5362 93.6914 0.0000 0.0000 0.0000
# 4 0.0000 0.0000 0.0000 30.3089 0.0000 0.0000
# 5 0.0000 0.0000 0.0000 0.0000 22.0740 0.0000
# 6 0.0000 0.0000 0.0000 0.0000 0.0000 22.4166
#
#
#
# Elastic Compliance Matrix: (Units=1/GPa)
#
#
# Indices 1 2 3 4 5 6 
#
# 1 0.010606 -0.001655 -0.002789 0.000000 0.000000 0.000000
# 2 -0.001655 0.016445 -0.007086 0.000000 0.000000 0.000000
# 3 -0.002789 -0.007086 0.014902 0.000000 0.000000 0.000000
# 4 0.000000 0.000000 0.000000 0.032994 0.000000 0.000000
# 5 0.000000 0.000000 0.000000 0.000000 0.045302 0.000000
# 6 0.000000 0.000000 0.000000 0.000000 0.000000 0.044610
#
#
# Mechanical properties :
#
#
# Convention : Reuss Voigt Hill
#
# Bulk Modulus (GPa) = 52.93257 53.38466 53.15862
# Shear Modulus (GPa) = 25.74466 27.14829 26.44647
#
# Velocity S-wave (km/s) = 3.67777 3.77670 3.72756
# Velocity P-wave (km/s) = 6.77089 6.86045 6.81582
#
# Compressibility (1/GPa) = 0.01889196
#
# Stress axis : x y z
#
# Youngs Moduli (GPa) = 94.28736 60.81031 67.10676
#
# Poissons Ratio (x) = 0.10065 0.18714
# Poissons Ratio (y) = 0.15606 0.47553
# Poissons Ratio (z) = 0.26294 0.43091
#
# Static dielectric constant tensor:
#      x y z
#    x 3.868440 0.000000 0.000000 
#    y 0.000000 3.338010 0.000000 
#    z 0.000000 0.000000 3.698090 
# 
# 
# High freq. dielectric constant tensor:
#      x y z
#    x 1.753350 0.000000 0.000000 
#    y 0.000000 1.721470 0.000000 
#    z 0.000000 0.000000 1.744490 
# 
# From -- ./inp_files/57238.got.cif
#   From: 2010.03.12/outbox.cif.g09.slc.cpg/sg66_29_cif.got.tgz:57238.got - 2010.04.10 21:57:39.
