data_PCOD8276421
_publ_section_title
;
Structure prediction by ZEFSAII (Michael W. Deem and Ramdas Pophale) SiO2 
 PCOD8276421
Probable space group: C C C M
;
_chemical_formula_sum "Si O2"
_cell_formula_units_Z 88
_cell_length_a 16.980693
_cell_length_b 28.307091
_cell_length_c 9.483052
_cell_angle_alpha 90.000000
_cell_angle_beta 90.000000
_cell_angle_gamma 90.000000
_cell_volume 4558.256746
_symmetry_space_group_name_H-M "C C C M"
_symmetry_group_IT_number 66
_symmetry_cell_setting 'orthorhombic'
loop_
_space_group_symop_operation_xyz
x,y,z
-x,-y,z
x,-y,1/2-z
-x,y,1/2-z
-x,-y,-z
x,y,-z
-x,y,1/2+z
x,-y,1/2+z
1/2+x,1/2+y,z
1/2-x,1/2-y,z
1/2+x,1/2-y,1/2-z
1/2-x,1/2+y,1/2-z
1/2-x,1/2-y,-z
1/2+x,1/2+y,-z
1/2-x,1/2+y,1/2+z
1/2+x,1/2-y,1/2+z
loop_
_atom_site_type_symbol
_atom_site_label
_atom_site_fract_x
_atom_site_fract_y
_atom_site_fract_z
Si Si1 0.077666 0.782653 0.163621
Si Si2 0.794710 0.136739 0.835785
Si Si3 0.362476 0.184250 0.658940
Si Si4 0.717508 0.546361 0.168218
Si Si5 0.897232 0.540280 0.153388
Si Si6 0.500000 0.120545 0.750000
O O1 0.137583 0.825134 0.182489
O O2 0.117382 0.734973 0.228443
O O3 0.000000 0.795351 0.250000
O O4 0.054980 0.774752 0.000000
O O5 0.713114 0.158516 0.771890
O O6 0.821618 0.092241 0.740399
O O7 0.784881 0.121322 0.000000
O O8 0.336483 0.194493 0.500000
O O9 0.440493 0.152204 0.660407
O O10 0.684925 0.500000 0.250000
O O11 0.809592 0.552457 0.204184
O O12 0.699587 0.543820 0.000000
O O13 0.935769 0.500000 0.250000
O O14 0.949231 0.587466 0.147042
O O15 0.893813 0.517221 0.000000
#
# Coordination Sequence:
#
# PCOD8276421 Si02
#       6
#    16  16  16  16  16   8
#     4  10  21  38  60  85 114 146 186 232 282 337
#     4  10  20  37  60  84 111 149 191 230 276 332
#     4  10  20  34  54  79 112 154 193 231 272 324
#     4  10  20  36  56  81 112 146 185 231 279 333
#     4  10  22  35  49  73 106 147 193 233 273 319
#     4  12  19  32  52  76 110 154 191 234 270 318
#
# _framework density 19.305624999999999
#
# number of rings (size 3 to 8) (size 9 to 14) (size 15 to 20)
#    0.000    1.818    2.727    1.909    0.000    5.818 
#    0.000    0.909    0.000    2.727    0.000    3.818 
#    0.000    0.000    0.000    0.000    0.000    0.000 
#
# Total GULP energy -545454.064972 kJ/mol
# GULP energy per Si atom -12396.683295 kJ/mol
# Density = 1.926168 g / cm^3
# Si number density = 19.305625 Si / 1000 Ang^3
#
#
#
# Elastic Constant Matrix: (Units=GPa)
#
#
# Indices 1 2 3 4 5 6 
#
# 1 58.9770 40.6983 25.7710 0.0000 0.0000 0.0000
# 2 40.6983 148.7248 54.7215 0.0000 0.0000 0.0000
# 3 25.7710 54.7215 81.9510 0.0000 0.0000 0.0000
# 4 0.0000 0.0000 0.0000 30.5631 0.0000 0.0000
# 5 0.0000 0.0000 0.0000 0.0000 -54.2828 0.0000
# 6 0.0000 0.0000 0.0000 0.0000 0.0000 27.7702
#
#
#
# Elastic Compliance Matrix: (Units=1/GPa)
#
#
# Indices 1 2 3 4 5 6 
#
# 1 0.021761 -0.004556 -0.003801 0.000000 0.000000 0.000000
# 2 -0.004556 0.009868 -0.005156 0.000000 0.000000 0.000000
# 3 -0.003801 -0.005156 0.016841 0.000000 0.000000 0.000000
# 4 0.000000 0.000000 0.000000 0.032719 0.000000 0.000000
# 5 0.000000 0.000000 0.000000 0.000000 -0.018422 0.000000
# 6 0.000000 0.000000 0.000000 0.000000 0.000000 0.036010
#
#
# Mechanical properties :
#
#
# Convention : Reuss Voigt Hill
#
# Bulk Modulus (GPa) = 46.63602 59.11494 52.87548
# Shear Modulus (GPa) = 37.60804 12.04089 24.82447
#
# Velocity S-wave (km/s) = 4.41844 2.50011 3.58979
# Velocity P-wave (km/s) = 7.08797 6.24669 6.68058
#
# Compressibility (1/GPa) = 0.02144265
#
# Stress axis : x y z
#
# Youngs Moduli (GPa) = 45.95438 101.33907 59.38034
#
# Poissons Ratio (x) = 0.46174 0.22568
# Poissons Ratio (y) = 0.20939 0.30618
# Poissons Ratio (z) = 0.17465 0.52253
#
# Static dielectric constant tensor:
#      x y z
#    x 3.276260 0.000000 0.000000 
#    y 0.000000 3.611900 0.000000 
#    z 0.000000 0.000000 3.353280 
# 
# 
# High freq. dielectric constant tensor:
#      x y z
#    x 1.728590 0.000000 0.000000 
#    y 0.000000 1.762880 0.000000 
#    z 0.000000 0.000000 1.731930 
# 
# From -- ./inp_files/7016.got.cif
#   From: 2010.03.12/outbox.cif.g09.slc.cpg/sg66_4_cif.got.tgz:7016.got - 2010.04.10 21:57:39.
