data_PCOD8276065
_publ_section_title
;
Structure prediction by ZEFSAII (Michael W. Deem and Ramdas Pophale) SiO2 
 PCOD8276065
Probable space group: C C C M
;
_chemical_formula_sum "Si O2"
_cell_formula_units_Z 68
_cell_length_a 9.274865
_cell_length_b 22.798096
_cell_length_c 16.972955
_cell_angle_alpha 90.000000
_cell_angle_beta 90.000000
_cell_angle_gamma 90.000000
_cell_volume 3588.918820
_symmetry_space_group_name_H-M "C C C M"
_symmetry_group_IT_number 66
_symmetry_cell_setting 'orthorhombic'
loop_
_space_group_symop_operation_xyz
x,y,z
-x,-y,z
x,-y,1/2-z
-x,y,1/2-z
-x,-y,-z
x,y,-z
-x,y,1/2+z
x,-y,1/2+z
1/2+x,1/2+y,z
1/2-x,1/2-y,z
1/2+x,1/2-y,1/2-z
1/2-x,1/2+y,1/2-z
1/2-x,1/2-y,-z
1/2+x,1/2+y,-z
1/2-x,1/2+y,1/2+z
1/2+x,1/2-y,1/2+z
loop_
_atom_site_type_symbol
_atom_site_label
_atom_site_fract_x
_atom_site_fract_y
_atom_site_fract_z
Si Si1 0.331661 0.690085 0.239947
Si Si2 0.000000 0.000000 0.250000
Si Si3 0.337711 0.615493 0.910020
Si Si4 0.351462 0.409118 0.857574
Si Si5 0.656663 0.004038 0.911054
O O1 0.500000 0.701514 0.250000
O O2 0.250000 0.750000 0.254440
O O3 0.294271 0.665897 0.152417
O O4 0.284484 0.645260 0.308999
O O5 0.893749 0.958886 0.203069
O O6 0.510683 0.607902 0.910059
O O7 0.261508 0.555656 0.878454
O O8 0.293279 0.632572 0.000000
O O9 0.228375 0.439368 0.910127
O O10 0.500000 0.000000 0.867456
O O11 0.627552 0.022795 0.000000
#
# Coordination Sequence:
#
# PCOD8276065 Si02
#       5
#    16   4  16  16  16
#     4  10  22  38  55  76 105 143 187 230 265 322
#     4  12  16  32  60  84 104 132 188 238 260 320
#     4  10  19  34  56  79 104 142 183 222 271 327
#     4  11  18  34  57  78 108 143 185 228 268 329
#     4  10  20  32  51  85 119 140 169 223 289 337
#
# _framework density 18.947209999999998
#
# number of rings (size 3 to 8) (size 9 to 14) (size 15 to 20)
#    0.000    1.647    5.882    0.706    0.000    4.235 
#    0.000    4.118    0.000   17.647    0.000    0.000 
#    0.000    0.000    0.000    0.000    0.000    0.000 
#
# Total GULP energy -421321.891706 kJ/mol
# GULP energy per Si atom -12391.820344 kJ/mol
# Density = 1.890409 g / cm^3
# Si number density = 18.947210 Si / 1000 Ang^3
#
#
#
# Elastic Constant Matrix: (Units=GPa)
#
#
# Indices 1 2 3 4 5 6 
#
# 1 69.5528 38.6840 15.9050 0.0000 0.0000 0.0000
# 2 38.6840 131.6128 40.1854 0.0000 0.0000 0.0000
# 3 15.9050 40.1854 70.8629 0.0000 0.0000 0.0000
# 4 0.0000 0.0000 0.0000 17.6046 0.0000 0.0000
# 5 0.0000 0.0000 0.0000 0.0000 21.7052 0.0000
# 6 0.0000 0.0000 0.0000 0.0000 0.0000 36.2848
#
#
#
# Elastic Compliance Matrix: (Units=1/GPa)
#
#
# Indices 1 2 3 4 5 6 
#
# 1 0.017272 -0.004708 -0.001207 0.000000 0.000000 0.000000
# 2 -0.004708 0.010473 -0.004882 0.000000 0.000000 0.000000
# 3 -0.001207 -0.004882 0.017151 0.000000 0.000000 0.000000
# 4 0.000000 0.000000 0.000000 0.056803 0.000000 0.000000
# 5 0.000000 0.000000 0.000000 0.000000 0.046072 0.000000
# 6 0.000000 0.000000 0.000000 0.000000 0.000000 0.027560
#
#
# Mechanical properties :
#
#
# Convention : Reuss Voigt Hill
#
# Bulk Modulus (GPa) = 42.91517 51.28636 47.10076
# Shear Modulus (GPa) = 24.42693 26.93587 25.68140
#
# Velocity S-wave (km/s) = 3.59445 3.77454 3.68559
# Velocity P-wave (km/s) = 6.31869 6.79139 6.55930
#
# Compressibility (1/GPa) = 0.02330179
#
# Stress axis : x y z
#
# Youngs Moduli (GPa) = 57.89672 95.48778 58.30506
#
# Poissons Ratio (x) = 0.44958 0.07036
# Poissons Ratio (y) = 0.27259 0.28465
# Poissons Ratio (z) = 0.06987 0.46618
#
# Static dielectric constant tensor:
#      x y z
#    x 3.433860 0.000000 0.000000 
#    y 0.000000 3.442330 0.000000 
#    z 0.000000 0.000000 6.152090 
# 
# 
# High freq. dielectric constant tensor:
#      x y z
#    x 1.726160 0.000000 0.000000 
#    y 0.000000 1.721700 0.000000 
#    z 0.000000 0.000000 1.732990 
# 
# From -- ./inp_files/36479.got.cif
#   From: 2010.03.12/outbox.cif.g09.slc.cpg/sg66_19_cif.got.tgz:36479.got - 2010.04.10 21:57:39.
