data_PCOD8276092
_publ_section_title
;
Structure prediction by ZEFSAII (Michael W. Deem and Ramdas Pophale) SiO2 
 PCOD8276092
Probable space group: C C C M
;
_chemical_formula_sum "Si O2"
_cell_formula_units_Z 96
_cell_length_a 16.169490
_cell_length_b 19.645600
_cell_length_c 13.446848
_cell_angle_alpha 90.000000
_cell_angle_beta 90.000000
_cell_angle_gamma 90.000000
_cell_volume 4271.516763
_symmetry_space_group_name_H-M "C C C M"
_symmetry_group_IT_number 66
_symmetry_cell_setting 'orthorhombic'
loop_
_space_group_symop_operation_xyz
x,y,z
-x,-y,z
x,-y,1/2-z
-x,y,1/2-z
-x,-y,-z
x,y,-z
-x,y,1/2+z
x,-y,1/2+z
1/2+x,1/2+y,z
1/2-x,1/2-y,z
1/2+x,1/2-y,1/2-z
1/2-x,1/2+y,1/2-z
1/2-x,1/2-y,-z
1/2+x,1/2+y,-z
1/2-x,1/2+y,1/2+z
1/2+x,1/2-y,1/2+z
loop_
_atom_site_type_symbol
_atom_site_label
_atom_site_fract_x
_atom_site_fract_y
_atom_site_fract_z
Si Si1 0.051267 0.373630 0.116078
Si Si2 0.588873 0.331348 0.782936
Si Si3 0.346849 0.253640 0.890761
Si Si4 0.751344 0.101632 0.195242
Si Si5 0.612810 0.810368 0.381859
Si Si6 0.693886 0.963922 0.113183
O O1 0.113221 0.314886 0.156729
O O2 0.096396 0.446332 0.136448
O O3 0.958066 0.363873 0.159160
O O4 0.040091 0.361779 0.000000
O O5 0.500000 0.361774 0.750000
O O6 0.633132 0.316027 0.679350
O O7 0.651799 0.385957 0.833583
O O8 0.581525 0.265275 0.853446
O O9 0.250000 0.250000 0.898137
O O10 0.384761 0.267255 0.000000
O O11 0.698959 0.170233 0.172148
O O12 0.749456 0.079071 0.310613
O O13 0.710623 0.043751 0.125664
O O14 0.625972 0.813675 0.500000
O O15 0.715059 0.941339 0.000000
#
# Coordination Sequence:
#
# PCOD8276092 Si02
#       6
#    16  16  16  16  16  16
#     4   9  18  34  59  90 122 162 207 257 320 386
#     4  12  24  39  62  91 131 169 214 270 328 401
#     4  10  19  34  58  88 119 154 204 265 325 381
#     4  11  25  40  63  95 122 172 226 267 330 393
#     4  11  23  40  63  96 138 173 212 270 342 411
#     4  10  22  43  65  88 126 169 221 274 320 386
#
# _framework density 22.474453
#
# number of rings (size 3 to 8) (size 9 to 14) (size 15 to 20)
#    0.000    1.500    1.667    4.000    0.000    4.667 
#    0.000    5.833    0.000    1.000    0.000    0.000 
#    0.000    0.000    0.000    0.000    0.000    0.000 
#
# Total GULP energy -594839.742589 kJ/mol
# GULP energy per Si atom -12392.494637 kJ/mol
# Density = 2.242330 g / cm^3
# Si number density = 22.474453 Si / 1000 Ang^3
#
#
#
# Elastic Constant Matrix: (Units=GPa)
#
#
# Indices 1 2 3 4 5 6 
#
# 1 155.1549 47.0699 18.3308 0.0000 0.0000 0.0000
# 2 47.0699 68.2169 14.1039 0.0000 0.0000 0.0000
# 3 18.3308 14.1039 78.1582 0.0000 0.0000 0.0000
# 4 0.0000 0.0000 0.0000 23.5690 0.0000 0.0000
# 5 0.0000 0.0000 0.0000 0.0000 22.4373 0.0000
# 6 0.0000 0.0000 0.0000 0.0000 0.0000 37.5476
#
#
#
# Elastic Compliance Matrix: (Units=1/GPa)
#
#
# Indices 1 2 3 4 5 6 
#
# 1 0.008217 -0.005476 -0.000939 0.000000 0.000000 0.000000
# 2 -0.005476 0.018876 -0.002122 0.000000 0.000000 0.000000
# 3 -0.000939 -0.002122 0.013398 0.000000 0.000000 0.000000
# 4 0.000000 0.000000 0.000000 0.042429 0.000000 0.000000
# 5 0.000000 0.000000 0.000000 0.000000 0.044569 0.000000
# 6 0.000000 0.000000 0.000000 0.000000 0.000000 0.026633
#
#
# Mechanical properties :
#
#
# Convention : Reuss Voigt Hill
#
# Bulk Modulus (GPa) = 42.70336 51.17103 46.93719
# Shear Modulus (GPa) = 27.93278 31.51247 29.72262
#
# Velocity S-wave (km/s) = 3.52926 3.74859 3.64057
# Velocity P-wave (km/s) = 5.97073 6.44623 6.21303
#
# Compressibility (1/GPa) = 0.02341736
#
# Stress axis : x y z
#
# Youngs Moduli (GPa) = 121.69379 52.97681 74.63949
#
# Poissons Ratio (x) = 0.29009 0.07009
# Poissons Ratio (y) = 0.66637 0.15839
# Poissons Ratio (z) = 0.11428 0.11242
#
# Static dielectric constant tensor:
#      x y z
#    x 4.812630 0.000000 0.000000 
#    y 0.000000 3.773650 0.000000 
#    z 0.000000 0.000000 4.312940 
# 
# 
# High freq. dielectric constant tensor:
#      x y z
#    x 1.880650 0.000000 0.000000 
#    y 0.000000 1.847040 0.000000 
#    z 0.000000 0.000000 1.901800 
# 
# From -- ./inp_files/28338.got.cif
#   From: 2010.03.12/outbox.cif.g09.slc.cpg/sg66_15_cif.got.tgz:28338.got - 2010.04.10 21:57:39.
