data_PCOD8276278
_publ_section_title
;
Structure prediction by ZEFSAII (Michael W. Deem and Ramdas Pophale) SiO2 
 PCOD8276278
Probable space group: C C C M
;
_chemical_formula_sum "Si O2"
_cell_formula_units_Z 116
_cell_length_a 12.328444
_cell_length_b 25.786140
_cell_length_c 18.551213
_cell_angle_alpha 90.000000
_cell_angle_beta 90.000000
_cell_angle_gamma 90.000000
_cell_volume 5897.485950
_symmetry_space_group_name_H-M "C C C M"
_symmetry_group_IT_number 66
_symmetry_cell_setting 'orthorhombic'
loop_
_space_group_symop_operation_xyz
x,y,z
-x,-y,z
x,-y,1/2-z
-x,y,1/2-z
-x,-y,-z
x,y,-z
-x,y,1/2+z
x,-y,1/2+z
1/2+x,1/2+y,z
1/2-x,1/2-y,z
1/2+x,1/2-y,1/2-z
1/2-x,1/2+y,1/2-z
1/2-x,1/2-y,-z
1/2+x,1/2+y,-z
1/2-x,1/2+y,1/2+z
1/2+x,1/2-y,1/2+z
loop_
_atom_site_type_symbol
_atom_site_label
_atom_site_fract_x
_atom_site_fract_y
_atom_site_fract_z
Si Si1 0.262310 0.365518 0.828383
Si Si2 0.375974 0.444143 0.725691
Si Si3 0.500000 0.000000 0.250000
Si Si4 0.737739 0.553161 0.419314
Si Si5 0.124301 0.455036 0.121984
Si Si6 0.861604 0.781077 0.080737
Si Si7 0.054605 0.385834 0.421301
Si Si8 0.553998 0.803263 0.822819
O O1 0.314303 0.395733 0.761058
O O2 0.205620 0.406565 0.880801
O O3 0.351575 0.335182 0.875891
O O4 0.173916 0.323560 0.801840
O O5 0.327092 0.500000 0.750000
O O6 0.500000 0.440810 0.750000
O O7 0.359377 0.442076 0.638999
O O8 0.418618 0.034913 0.203014
O O9 0.686868 0.554150 0.500000
O O10 0.810498 0.502056 0.411893
O O11 0.819566 0.601077 0.407876
O O12 0.016405 0.439140 0.077770
O O13 0.750000 0.750000 0.075911
O O14 0.946834 0.744995 0.122541
O O15 0.904294 0.793005 0.000000
O O16 0.040770 0.359365 0.500000
O O17 0.016511 0.348886 0.357572
O O18 0.500000 0.783195 0.750000
#
# Coordination Sequence:
#
# PCOD8276278 Si02
#       8
#    16  16   4  16  16  16  16  16
#     4  10  21  35  57  83 113 156 201 246 295 360
#     4  11  23  41  58  77 105 151 204 259 298 343
#     4  12  20  28  50  84 130 176 194 236 292 360
#     4  11  21  36  56  82 120 159 198 245 302 360
#     4  11  20  30  52  84 125 159 198 237 289 362
#     4   9  19  37  57  82 113 147 190 243 298 342
#     4  10  20  31  50  84 125 159 184 225 294 377
#     4  10  20  33  58  88 120 151 189 238 303 374
#
# _framework density 19.669397
#
# number of rings (size 3 to 8) (size 9 to 14) (size 15 to 20)
#    0.000    1.655    2.759    2.483    3.862    5.517 
#    0.000    2.069    0.000    0.000    0.000    0.000 
#    0.000   11.586    0.000    0.000    0.000    0.000 
#
# Total GULP energy -718963.439283 kJ/mol
# GULP energy per Si atom -12395.921367 kJ/mol
# Density = 1.962463 g / cm^3
# Si number density = 19.669397 Si / 1000 Ang^3
#
#
#
# Elastic Constant Matrix: (Units=GPa)
#
#
# Indices 1 2 3 4 5 6 
#
# 1 69.2891 24.7799 54.0436 0.0000 0.0000 0.0000
# 2 24.7799 86.3553 49.8302 0.0000 0.0000 0.0000
# 3 54.0436 49.8302 163.4819 0.0000 0.0000 0.0000
# 4 0.0000 0.0000 0.0000 20.6669 0.0000 0.0000
# 5 0.0000 0.0000 0.0000 0.0000 20.9772 0.0000
# 6 0.0000 0.0000 0.0000 0.0000 0.0000 16.1739
#
#
#
# Elastic Compliance Matrix: (Units=1/GPa)
#
#
# Indices 1 2 3 4 5 6 
#
# 1 0.019820 -0.002314 -0.005847 0.000000 0.000000 0.000000
# 2 -0.002314 0.014322 -0.003600 0.000000 0.000000 0.000000
# 3 -0.005847 -0.003600 0.009147 0.000000 0.000000 0.000000
# 4 0.000000 0.000000 0.000000 0.048387 0.000000 0.000000
# 5 0.000000 0.000000 0.000000 0.000000 0.047671 0.000000
# 6 0.000000 0.000000 0.000000 0.000000 0.000000 0.061828
#
#
# Mechanical properties :
#
#
# Convention : Reuss Voigt Hill
#
# Bulk Modulus (GPa) = 50.58946 64.04819 57.31882
# Shear Modulus (GPa) = 21.61831 24.26175 22.94003
#
# Velocity S-wave (km/s) = 3.31884 3.51590 3.41879
# Velocity P-wave (km/s) = 6.36097 7.00822 6.69242
#
# Compressibility (1/GPa) = 0.01976697
#
# Stress axis : x y z
#
# Youngs Moduli (GPa) = 50.45377 69.82480 109.32304
#
# Poissons Ratio (x) = 0.16154 0.63920
# Poissons Ratio (y) = 0.11673 0.39362
# Poissons Ratio (z) = 0.29500 0.25140
#
# Static dielectric constant tensor:
#      x y z
#    x 3.352850 0.000000 0.000000 
#    y 0.000000 3.540070 0.000000 
#    z 0.000000 0.000000 3.630180 
# 
# 
# High freq. dielectric constant tensor:
#      x y z
#    x 1.736820 0.000000 0.000000 
#    y 0.000000 1.754970 0.000000 
#    z 0.000000 0.000000 1.770730 
# 
# From -- ./inp_files/39202.got.cif
#   From: 2010.03.12/outbox.cif.g09.slc.cpg/sg66_20_cif.got.tgz:39202.got - 2010.04.10 21:57:39.
