data_PCOD8276693
_publ_section_title
;
Structure prediction by ZEFSAII (Michael W. Deem and Ramdas Pophale) SiO2 
 PCOD8276693
Probable space group: C C C M
;
_chemical_formula_sum "Si O2"
_cell_formula_units_Z 116
_cell_length_a 9.960949
_cell_length_b 22.175492
_cell_length_c 25.530938
_cell_angle_alpha 90.000000
_cell_angle_beta 90.000000
_cell_angle_gamma 90.000000
_cell_volume 5639.501956
_symmetry_space_group_name_H-M "C C C M"
_symmetry_group_IT_number 66
_symmetry_cell_setting 'orthorhombic'
loop_
_space_group_symop_operation_xyz
x,y,z
-x,-y,z
x,-y,1/2-z
-x,y,1/2-z
-x,-y,-z
x,y,-z
-x,y,1/2+z
x,-y,1/2+z
1/2+x,1/2+y,z
1/2-x,1/2-y,z
1/2+x,1/2-y,1/2-z
1/2-x,1/2+y,1/2-z
1/2-x,1/2-y,-z
1/2+x,1/2+y,-z
1/2-x,1/2+y,1/2+z
1/2+x,1/2-y,1/2+z
loop_
_atom_site_type_symbol
_atom_site_label
_atom_site_fract_x
_atom_site_fract_y
_atom_site_fract_z
Si Si1 0.881917 0.880751 0.789239
Si Si2 0.952587 0.181113 0.608402
Si Si3 0.200903 0.587736 0.800551
Si Si4 0.641915 0.490306 0.361670
Si Si5 0.742835 0.097869 0.559872
Si Si6 0.000000 0.500000 0.750000
Si Si7 0.517542 0.191901 0.439810
Si Si8 0.260035 0.817771 0.119021
O O1 0.885066 0.829873 0.834486
O O2 0.747479 0.883332 0.754502
O O3 0.894426 0.946298 0.814081
O O4 0.000000 0.865568 0.750000
O O5 0.872996 0.140434 0.566609
O O6 0.935791 0.251376 0.595070
O O7 0.108984 0.159870 0.606046
O O8 0.310027 0.552048 0.835323
O O9 0.081786 0.541791 0.789544
O O10 0.162318 0.644219 0.836533
O O11 0.500000 0.500000 0.391865
O O12 0.748099 0.460799 0.402353
O O13 0.735252 0.075652 0.500000
O O14 0.608272 0.134435 0.575510
O O15 0.539739 0.209250 0.500000
O O16 0.358974 0.178387 0.431227
O O17 0.250000 0.750000 0.140537
#
# Coordination Sequence:
#
# PCOD8276693 Si02
#       8
#    16  16  16  16  16   4  16  16
#     4  11  19  36  63  88 119 154 209 261 320 374
#     4  10  20  36  66  95 117 168 219 266 321 390
#     4  12  23  40  59  90 126 165 219 262 314 393
#     4  11  21  36  63  90 114 164 208 269 323 384
#     4  10  22  39  60  92 126 158 209 270 332 386
#     4  12  28  36  62  96 126 188 216 260 324 396
#     4  10  22  41  64  89 131 178 213 268 338 399
#     4  10  23  41  62  91 127 169 216 269 323 390
#
# _framework density 20.569194
#
# number of rings (size 3 to 8) (size 9 to 14) (size 15 to 20)
#    0.000    1.379    4.138    1.655    1.931    4.414 
#    0.000    6.207    0.000    1.655    0.000    0.000 
#    0.000    0.000    0.000    0.000    0.000    0.000 
#
# Total GULP energy -718920.873685 kJ/mol
# GULP energy per Si atom -12395.187477 kJ/mol
# Density = 2.052238 g / cm^3
# Si number density = 20.569194 Si / 1000 Ang^3
#
#
#
# Elastic Constant Matrix: (Units=GPa)
#
#
# Indices 1 2 3 4 5 6 
#
# 1 91.9950 30.0958 31.3751 0.0000 0.0000 0.0000
# 2 30.0958 76.4105 47.4403 0.0000 0.0000 0.0000
# 3 31.3751 47.4403 106.0994 0.0000 0.0000 0.0000
# 4 0.0000 0.0000 0.0000 31.6733 0.0000 0.0000
# 5 0.0000 0.0000 0.0000 0.0000 28.2577 0.0000
# 6 0.0000 0.0000 0.0000 0.0000 0.0000 19.4058
#
#
#
# Elastic Compliance Matrix: (Units=1/GPa)
#
#
# Indices 1 2 3 4 5 6 
#
# 1 0.012814 -0.003730 -0.002122 0.000000 0.000000 0.000000
# 2 -0.003730 0.019202 -0.007483 0.000000 0.000000 0.000000
# 3 -0.002122 -0.007483 0.013398 0.000000 0.000000 0.000000
# 4 0.000000 0.000000 0.000000 0.031572 0.000000 0.000000
# 5 0.000000 0.000000 0.000000 0.000000 0.035389 0.000000
# 6 0.000000 0.000000 0.000000 0.000000 0.000000 0.051531
#
#
# Mechanical properties :
#
#
# Convention : Reuss Voigt Hill
#
# Bulk Modulus (GPa) = 53.34520 54.70303 54.02412
# Shear Modulus (GPa) = 25.40349 26.90695 26.15522
#
# Velocity S-wave (km/s) = 3.51811 3.62072 3.56978
# Velocity P-wave (km/s) = 6.51871 6.64318 6.58124
#
# Compressibility (1/GPa) = 0.01874583
#
# Stress axis : x y z
#
# Youngs Moduli (GPa) = 78.04023 52.07759 74.63624
#
# Poissons Ratio (x) = 0.19424 0.15834
# Poissons Ratio (y) = 0.29108 0.55849
# Poissons Ratio (z) = 0.16556 0.38969
#
# Static dielectric constant tensor:
#      x y z
#    x 3.872760 0.000000 0.000000 
#    y 0.000000 3.669490 0.000000 
#    z 0.000000 0.000000 3.768620 
# 
# 
# High freq. dielectric constant tensor:
#      x y z
#    x 1.803850 0.000000 0.000000 
#    y 0.000000 1.798280 0.000000 
#    z 0.000000 0.000000 1.797210 
# 
# From -- ./inp_files/62888.got.cif
#   From: 2010.03.12/outbox.cif.g09.slc.cpg/sg66_32_cif.got.tgz:62888.got - 2010.04.10 21:57:39.
