data_PCOD8276705
_publ_section_title
;
Structure prediction by ZEFSAII (Michael W. Deem and Ramdas Pophale) SiO2 
 PCOD8276705
Probable space group: C C C M
;
_chemical_formula_sum "Si O2"
_cell_formula_units_Z 84
_cell_length_a 19.082494
_cell_length_b 19.463477
_cell_length_c 13.026055
_cell_angle_alpha 90.000000
_cell_angle_beta 90.000000
_cell_angle_gamma 90.000000
_cell_volume 4838.029011
_symmetry_space_group_name_H-M "C C C M"
_symmetry_group_IT_number 66
_symmetry_cell_setting 'orthorhombic'
loop_
_space_group_symop_operation_xyz
x,y,z
-x,-y,z
x,-y,1/2-z
-x,y,1/2-z
-x,-y,-z
x,y,-z
-x,y,1/2+z
x,-y,1/2+z
1/2+x,1/2+y,z
1/2-x,1/2-y,z
1/2+x,1/2-y,1/2-z
1/2-x,1/2+y,1/2-z
1/2-x,1/2-y,-z
1/2+x,1/2+y,-z
1/2-x,1/2+y,1/2+z
1/2+x,1/2-y,1/2+z
loop_
_atom_site_type_symbol
_atom_site_label
_atom_site_fract_x
_atom_site_fract_y
_atom_site_fract_z
Si Si1 0.604328 0.414648 0.619902
Si Si2 0.688255 0.803831 0.880521
Si Si3 0.000000 0.000000 0.250000
Si Si4 0.245787 0.925985 0.274218
Si Si5 0.418156 0.278450 0.229967
Si Si6 0.801034 0.185467 0.880978
O O1 0.602822 0.429255 0.500000
O O2 0.541044 0.451421 0.674402
O O3 0.674600 0.445215 0.667581
O O4 0.596334 0.334007 0.641239
O O5 0.750000 0.750000 0.848120
O O6 0.708461 0.881695 0.853575
O O7 0.617689 0.789657 0.815971
O O8 0.672360 0.797832 0.000000
O O9 0.233033 0.881613 0.171298
O O10 0.281975 0.000000 0.250000
O O11 0.500000 0.265635 0.250000
O O12 0.378356 0.300075 0.334681
O O13 0.750000 0.250000 0.863378
O O14 0.811455 0.168828 0.000000
#
# Coordination Sequence:
#
# PCOD8276705 Si02
#       6
#    16  16   4  16  16  16
#     4  11  22  36  53  77 112 154 189 224 271 333
#     4  11  20  36  62  85 110 147 193 248 283 325
#     4  12  22  40  44  78 124 156 182 220 272 350
#     4  11  21  37  55  84 113 142 190 233 281 338
#     4  11  21  37  55  84 113 142 190 233 281 338
#     4  10  20  37  57  77 108 145 181 224 273 327
#
# _framework density 17.362444
#
# number of rings (size 3 to 8) (size 9 to 14) (size 15 to 20)
#    0.000    1.143    7.619    1.429    0.000    3.048 
#    0.000    0.000    0.000    0.571    0.000    1.333 
#    0.000    0.000    0.000    0.000    0.000    0.000 
#
# Total GULP energy -520786.785281 kJ/mol
# GULP energy per Si atom -12399.685364 kJ/mol
# Density = 1.732293 g / cm^3
# Si number density = 17.362444 Si / 1000 Ang^3
#
#
#
# Elastic Constant Matrix: (Units=GPa)
#
#
# Indices 1 2 3 4 5 6 
#
# 1 61.5268 20.3796 20.3061 0.0000 0.0000 0.0000
# 2 20.3796 98.4889 30.3482 0.0000 0.0000 0.0000
# 3 20.3061 30.3482 127.2786 0.0000 0.0000 0.0000
# 4 0.0000 0.0000 0.0000 22.9689 0.0000 0.0000
# 5 0.0000 0.0000 0.0000 0.0000 12.0826 0.0000
# 6 0.0000 0.0000 0.0000 0.0000 0.0000 19.4148
#
#
#
# Elastic Compliance Matrix: (Units=1/GPa)
#
#
# Indices 1 2 3 4 5 6 
#
# 1 0.017972 -0.003060 -0.002138 0.000000 0.000000 0.000000
# 2 -0.003060 0.011480 -0.002249 0.000000 0.000000 0.000000
# 3 -0.002138 -0.002249 0.008734 0.000000 0.000000 0.000000
# 4 0.000000 0.000000 0.000000 0.043537 0.000000 0.000000
# 5 0.000000 0.000000 0.000000 0.000000 0.082764 0.000000
# 6 0.000000 0.000000 0.000000 0.000000 0.000000 0.051507
#
#
# Mechanical properties :
#
#
# Convention : Reuss Voigt Hill
#
# Bulk Modulus (GPa) = 42.93257 47.70692 45.31974
# Shear Modulus (GPa) = 20.95105 25.31061 23.13083
#
# Velocity S-wave (km/s) = 3.47751 3.82223 3.65394
# Velocity P-wave (km/s) = 6.39570 6.85682 6.63027
#
# Compressibility (1/GPa) = 0.02329234
#
# Stress axis : x y z
#
# Youngs Moduli (GPa) = 55.64149 87.11074 114.49426
#
# Poissons Ratio (x) = 0.26657 0.24475
# Poissons Ratio (y) = 0.17027 0.25749
# Poissons Ratio (z) = 0.11894 0.19591
#
# Static dielectric constant tensor:
#      x y z
#    x 3.111770 0.000000 0.000000 
#    y 0.000000 3.183950 0.000000 
#    z 0.000000 0.000000 3.214490 
# 
# 
# High freq. dielectric constant tensor:
#      x y z
#    x 1.647470 0.000000 0.000000 
#    y 0.000000 1.661800 0.000000 
#    z 0.000000 0.000000 1.685740 
# 
# From -- ./inp_files/18896.got.cif
#   From: 2010.03.12/outbox.cif.g09.slc.cpg/sg66_10_cif.got.tgz:18896.got - 2010.04.10 21:57:39.
