data_PCOD8276040
_publ_section_title
;
Structure prediction by ZEFSAII (Michael W. Deem and Ramdas Pophale) SiO2 
 PCOD8276040
Probable space group: C C C M
;
_chemical_formula_sum "Si O2"
_cell_formula_units_Z 116
_cell_length_a 27.555254
_cell_length_b 22.846182
_cell_length_c 9.142099
_cell_angle_alpha 90.000000
_cell_angle_beta 90.000000
_cell_angle_gamma 90.000000
_cell_volume 5755.247049
_symmetry_space_group_name_H-M "C C C M"
_symmetry_group_IT_number 66
_symmetry_cell_setting 'orthorhombic'
loop_
_space_group_symop_operation_xyz
x,y,z
-x,-y,z
x,-y,1/2-z
-x,y,1/2-z
-x,-y,-z
x,y,-z
-x,y,1/2+z
x,-y,1/2+z
1/2+x,1/2+y,z
1/2-x,1/2-y,z
1/2+x,1/2-y,1/2-z
1/2-x,1/2+y,1/2-z
1/2-x,1/2-y,-z
1/2+x,1/2+y,-z
1/2-x,1/2+y,1/2+z
1/2+x,1/2-y,1/2+z
loop_
_atom_site_type_symbol
_atom_site_label
_atom_site_fract_x
_atom_site_fract_y
_atom_site_fract_z
Si Si1 0.500000 0.500000 0.750000
Si Si2 0.454779 0.720380 0.168927
Si Si3 0.365955 0.751370 0.665015
Si Si4 0.924032 0.906036 0.336737
Si Si5 0.449346 0.937209 0.178402
Si Si6 0.238160 0.440302 0.172712
Si Si7 0.639943 0.118450 0.331642
Si Si8 0.667756 0.625765 0.169977
O O1 0.537023 0.541045 0.660319
O O2 0.500000 0.748904 0.250000
O O3 0.408991 0.756952 0.219894
O O4 0.450220 0.652730 0.218701
O O5 0.463133 0.728653 0.000000
O O6 0.385640 0.741423 0.500000
O O7 0.340282 0.814376 0.677480
O O8 0.333379 0.695196 0.709048
O O9 0.904959 0.896684 0.500000
O O10 0.875367 0.913606 0.240918
O O11 0.500000 0.914796 0.250000
O O12 0.406111 0.893690 0.227103
O O13 0.437182 0.000000 0.250000
O O14 0.452784 0.940395 0.000000
O O15 0.251262 0.500000 0.250000
O O16 0.185289 0.419298 0.225012
O O17 0.279668 0.395052 0.224007
O O18 0.238747 0.448824 0.000000
O O19 0.626100 0.103460 0.500000
O O20 0.661115 0.614386 0.000000
#
# Coordination Sequence:
#
# PCOD8276040 Si02
#       8
#     4  16  16  16  16  16  16  16
#     4  12  22  36  52  82 114 148 196 242 294 336
#     4  10  19  34  53  75 106 145 187 232 283 340
#     4   9  19  36  58  82 110 147 189 238 289 340
#     4  10  22  36  53  78 109 147 189 237 289 341
#     4  11  22  38  61  89 123 160 197 237 287 343
#     4  10  22  39  60  87 117 152 191 235 287 343
#     4  10  21  38  60  88 120 152 193 239 287 343
#     4   9  20  39  60  83 113 149 191 240 291 344
#
# _framework density 20.155521
#
# number of rings (size 3 to 8) (size 9 to 14) (size 15 to 20)
#    0.000    2.069    0.690    2.690    0.966    5.517 
#    0.000    2.759    0.000    0.000    0.000    5.793 
#    0.000    0.000    0.000    0.000    0.000    0.000 
#
# Total GULP energy -718778.225875 kJ/mol
# GULP energy per Si atom -12392.728032 kJ/mol
# Density = 2.010965 g / cm^3
# Si number density = 20.155521 Si / 1000 Ang^3
#
#
#
# Elastic Constant Matrix: (Units=GPa)
#
#
# Indices 1 2 3 4 5 6 
#
# 1 131.5755 46.2257 50.6566 0.0000 0.0000 0.0000
# 2 46.2257 93.3661 25.0175 0.0000 0.0000 0.0000
# 3 50.6566 25.0175 74.9688 0.0000 0.0000 0.0000
# 4 0.0000 0.0000 0.0000 23.5731 0.0000 0.0000
# 5 0.0000 0.0000 0.0000 0.0000 26.0006 0.0000
# 6 0.0000 0.0000 0.0000 0.0000 0.0000 17.2115
#
#
#
# Elastic Compliance Matrix: (Units=1/GPa)
#
#
# Indices 1 2 3 4 5 6 
#
# 1 0.011463 -0.003954 -0.006427 0.000000 0.000000 0.000000
# 2 -0.003954 0.013126 -0.001709 0.000000 0.000000 0.000000
# 3 -0.006427 -0.001709 0.018252 0.000000 0.000000 0.000000
# 4 0.000000 0.000000 0.000000 0.042421 0.000000 0.000000
# 5 0.000000 0.000000 0.000000 0.000000 0.038461 0.000000
# 6 0.000000 0.000000 0.000000 0.000000 0.000000 0.058101
#
#
# Mechanical properties :
#
#
# Convention : Reuss Voigt Hill
#
# Bulk Modulus (GPa) = 53.58167 60.41223 56.99695
# Shear Modulus (GPa) = 23.56027 25.22442 24.39235
#
# Velocity S-wave (km/s) = 3.42266 3.54148 3.48258
# Velocity P-wave (km/s) = 6.50087 6.83819 6.67166
#
# Compressibility (1/GPa) = 0.01866310
#
# Stress axis : x y z
#
# Youngs Moduli (GPa) = 87.23416 76.18584 54.79001
#
# Poissons Ratio (x) = 0.30121 0.35211
# Poissons Ratio (y) = 0.34489 0.09362
# Poissons Ratio (z) = 0.56061 0.13018
#
# Static dielectric constant tensor:
#      x y z
#    x 3.689820 0.000000 0.000000 
#    y 0.000000 3.680480 0.000000 
#    z 0.000000 0.000000 3.580570 
# 
# 
# High freq. dielectric constant tensor:
#      x y z
#    x 1.781720 0.000000 0.000000 
#    y 0.000000 1.786650 0.000000 
#    z 0.000000 0.000000 1.779960 
# 
# From -- ./inp_files/10584.got.cif
#   From: 2010.03.12/outbox.cif.g09.slc.cpg/sg66_6_cif.got.tgz:10584.got - 2010.04.10 21:57:39.
