data_PCOD8276228
_publ_section_title
;
Structure prediction by ZEFSAII (Michael W. Deem and Ramdas Pophale) SiO2 
 PCOD8276228
Probable space group: C C C M
;
_chemical_formula_sum "Si O2"
_cell_formula_units_Z 116
_cell_length_a 12.545719
_cell_length_b 24.852652
_cell_length_c 17.620703
_cell_angle_alpha 90.000000
_cell_angle_beta 90.000000
_cell_angle_gamma 90.000000
_cell_volume 5494.036315
_symmetry_space_group_name_H-M "C C C M"
_symmetry_group_IT_number 66
_symmetry_cell_setting 'orthorhombic'
loop_
_space_group_symop_operation_xyz
x,y,z
-x,-y,z
x,-y,1/2-z
-x,y,1/2-z
-x,-y,-z
x,y,-z
-x,y,1/2+z
x,-y,1/2+z
1/2+x,1/2+y,z
1/2-x,1/2-y,z
1/2+x,1/2-y,1/2-z
1/2-x,1/2+y,1/2-z
1/2-x,1/2-y,-z
1/2+x,1/2+y,-z
1/2-x,1/2+y,1/2+z
1/2+x,1/2-y,1/2+z
loop_
_atom_site_type_symbol
_atom_site_label
_atom_site_fract_x
_atom_site_fract_y
_atom_site_fract_z
Si Si1 0.526719 0.938015 0.332843
Si Si2 0.235527 0.622164 0.178452
Si Si3 0.452795 0.691480 0.673309
Si Si4 0.162898 0.207054 0.412077
Si Si5 0.000000 0.000000 0.250000
Si Si6 0.616326 0.197907 0.286283
Si Si7 0.342747 0.113007 0.911487
Si Si8 0.649628 0.415705 0.679875
O O1 0.500000 0.911520 0.250000
O O2 0.647957 0.920931 0.350312
O O3 0.455527 0.916531 0.401662
O O4 0.500000 0.000000 0.326856
O O5 0.298299 0.646300 0.106440
O O6 0.195012 0.675027 0.222981
O O7 0.316340 0.591503 0.232851
O O8 0.500000 0.666814 0.750000
O O9 0.546639 0.718079 0.623638
O O10 0.367875 0.738564 0.694461
O O11 0.397329 0.638431 0.638615
O O12 0.145162 0.213585 0.500000
O O13 0.250000 0.250000 0.382727
O O14 0.931794 0.034843 0.311416
O O15 0.500000 0.189629 0.250000
O O16 0.642580 0.168417 0.365696
O O17 0.252813 0.073636 0.873594
O O18 0.319106 0.123763 0.000000
#
# Coordination Sequence:
#
# PCOD8276228 Si02
#       8
#    16  16  16  16   4  16  16  16
#     4  11  22  39  66  93 123 163 210 262 312 373
#     4  11  20  39  63  96 124 165 208 266 312 382
#     4  11  21  40  62  92 125 166 215 266 312 381
#     4  11  24  37  58  94 130 166 206 259 324 383
#     4  12  24  44  70  94 116 164 220 290 322 366
#     4  10  19  37  62  91 122 164 208 250 308 374
#     4  11  24  41  61  95 134 168 206 258 323 389
#     4  11  24  41  68  96 120 162 224 268 320 377
#
# _framework density 21.113803999999998
#
# number of rings (size 3 to 8) (size 9 to 14) (size 15 to 20)
#    0.000    1.103    6.207    1.655    1.931    3.586 
#    0.000    1.034    0.000    0.000    0.000    0.000 
#    0.000    0.000    0.000    0.000    0.000    0.000 
#
# Total GULP energy -718661.957997 kJ/mol
# GULP energy per Si atom -12390.723414 kJ/mol
# Density = 2.106575 g / cm^3
# Si number density = 21.113804 Si / 1000 Ang^3
#
#
#
# Elastic Constant Matrix: (Units=GPa)
#
#
# Indices 1 2 3 4 5 6 
#
# 1 85.5367 39.2653 16.0517 0.0000 0.0000 0.0000
# 2 39.2653 106.5056 18.7604 0.0000 0.0000 0.0000
# 3 16.0517 18.7604 77.5774 0.0000 0.0000 0.0000
# 4 0.0000 0.0000 0.0000 17.2877 0.0000 0.0000
# 5 0.0000 0.0000 0.0000 0.0000 20.6813 0.0000
# 6 0.0000 0.0000 0.0000 0.0000 0.0000 24.6717
#
#
#
# Elastic Compliance Matrix: (Units=1/GPa)
#
#
# Indices 1 2 3 4 5 6 
#
# 1 0.014299 -0.004962 -0.001759 0.000000 0.000000 0.000000
# 2 -0.004962 0.011529 -0.001761 0.000000 0.000000 0.000000
# 3 -0.001759 -0.001761 0.013680 0.000000 0.000000 0.000000
# 4 0.000000 0.000000 0.000000 0.057845 0.000000 0.000000
# 5 0.000000 0.000000 0.000000 0.000000 0.048353 0.000000
# 6 0.000000 0.000000 0.000000 0.000000 0.000000 0.040532
#
#
# Mechanical properties :
#
#
# Convention : Reuss Voigt Hill
#
# Bulk Modulus (GPa) = 44.35758 46.41940 45.38849
# Shear Modulus (GPa) = 23.72873 25.56429 24.64651
#
# Velocity S-wave (km/s) = 3.35602 3.48341 3.42031
# Velocity P-wave (km/s) = 6.00596 6.18158 6.09440
#
# Compressibility (1/GPa) = 0.02254406
#
# Stress axis : x y z
#
# Youngs Moduli (GPa) = 69.93719 86.74060 73.09842
#
# Poissons Ratio (x) = 0.43038 0.12856
# Poissons Ratio (y) = 0.34700 0.12875
# Poissons Ratio (z) = 0.12300 0.15278
#
# Static dielectric constant tensor:
#      x y z
#    x 4.049850 0.000000 0.000000 
#    y 0.000000 3.960350 0.000000 
#    z 0.000000 0.000000 3.464210 
# 
# 
# High freq. dielectric constant tensor:
#      x y z
#    x 1.840510 0.000000 0.000000 
#    y 0.000000 1.824050 0.000000 
#    z 0.000000 0.000000 1.789240 
# 
# From -- ./inp_files/39131.got.cif
#   From: 2010.03.12/outbox.cif.g09.slc.cpg/sg66_20_cif.got.tgz:39131.got - 2010.04.10 21:57:39.
