data_PCOD8276784
_publ_section_title
;
Structure prediction by ZEFSAII (Michael W. Deem and Ramdas Pophale) SiO2 
 PCOD8276784
Probable space group: C C C M
;
_chemical_formula_sum "Si O2"
_cell_formula_units_Z 96
_cell_length_a 14.626122
_cell_length_b 14.758174
_cell_length_c 22.377130
_cell_angle_alpha 90.000000
_cell_angle_beta 90.000000
_cell_angle_gamma 90.000000
_cell_volume 4830.212116
_symmetry_space_group_name_H-M "C C C M"
_symmetry_group_IT_number 66
_symmetry_cell_setting 'orthorhombic'
loop_
_space_group_symop_operation_xyz
x,y,z
-x,-y,z
x,-y,1/2-z
-x,y,1/2-z
-x,-y,-z
x,y,-z
-x,y,1/2+z
x,-y,1/2+z
1/2+x,1/2+y,z
1/2-x,1/2-y,z
1/2+x,1/2-y,1/2-z
1/2-x,1/2+y,1/2-z
1/2-x,1/2-y,-z
1/2+x,1/2+y,-z
1/2-x,1/2+y,1/2+z
1/2+x,1/2-y,1/2+z
loop_
_atom_site_type_symbol
_atom_site_label
_atom_site_fract_x
_atom_site_fract_y
_atom_site_fract_z
Si Si1 0.116470 0.281323 0.161384
Si Si2 0.578495 0.286688 0.873631
Si Si3 0.278760 0.383581 0.120000
Si Si4 0.167885 0.949917 0.192942
Si Si5 0.322303 0.177993 0.282600
Si Si6 0.368352 0.424512 0.000000
Si Si7 0.420344 0.372371 0.500000
O O1 0.169886 0.360049 0.123418
O O2 0.174051 0.188724 0.163603
O O3 0.101733 0.320210 0.229265
O O4 0.022733 0.253329 0.129807
O O5 0.596612 0.374124 0.830891
O O6 0.640614 0.204890 0.848383
O O7 0.604233 0.312589 0.941538
O O8 0.309296 0.482814 0.139596
O O9 0.315678 0.376075 0.053504
O O10 0.268374 0.915767 0.212857
O O11 0.122140 0.000000 0.250000
O O12 0.250000 0.250000 0.259641
O O13 0.361884 0.534397 0.000000
O O14 0.473353 0.395777 0.000000
#
# Coordination Sequence:
#
# PCOD8276784 Si02
#       7
#    16  16  16  16  16   8   8
#     4  11  21  38  60  92 126 156 201 255 313 375
#     4  11  23  38  62  90 123 164 203 255 310 368
#     4  11  21  37  62  85 124 164 199 244 312 371
#     4  11  21  40  65  89 123 163 203 256 319 367
#     4  10  20  38  58  88 125 153 206 257 304 378
#     4  11  22  38  58  92 127 159 209 260 303 373
#     4  11  22  39  58  90 131 155 211 265 299 365
#
# _framework density 19.874904000000001
#
# number of rings (size 3 to 8) (size 9 to 14) (size 15 to 20)
#    0.000    1.167    6.667    1.500    0.000    2.667 
#    0.000    7.917    0.000    0.000    0.000    2.333 
#    0.000    0.000    0.000    0.000    0.000    0.000 
#
# Total GULP energy -594704.995290 kJ/mol
# GULP energy per Si atom -12389.687402 kJ/mol
# Density = 1.982967 g / cm^3
# Si number density = 19.874904 Si / 1000 Ang^3
#
#
#
# Elastic Constant Matrix: (Units=GPa)
#
#
# Indices 1 2 3 4 5 6 
#
# 1 70.8881 17.7705 28.4293 0.0000 0.0000 0.0000
# 2 17.7705 14.6681 13.3590 0.0000 0.0000 0.0000
# 3 28.4293 13.3590 136.9581 0.0000 0.0000 0.0000
# 4 0.0000 0.0000 0.0000 51.7570 0.0000 0.0000
# 5 0.0000 0.0000 0.0000 0.0000 29.6931 0.0000
# 6 0.0000 0.0000 0.0000 0.0000 0.0000 33.1026
#
#
#
# Elastic Compliance Matrix: (Units=1/GPa)
#
#
# Indices 1 2 3 4 5 6 
#
# 1 0.020765 -0.023301 -0.002038 0.000000 0.000000 0.000000
# 2 -0.023301 0.100970 -0.005012 0.000000 0.000000 0.000000
# 3 -0.002038 -0.005012 0.008213 0.000000 0.000000 0.000000
# 4 0.000000 0.000000 0.000000 0.019321 0.000000 0.000000
# 5 0.000000 0.000000 0.000000 0.000000 0.033678 0.000000
# 6 0.000000 0.000000 0.000000 0.000000 0.000000 0.030209
#
#
# Mechanical properties :
#
#
# Convention : Reuss Voigt Hill
#
# Bulk Modulus (GPa) = 14.44118 37.95907 26.20012
# Shear Modulus (GPa) = 16.83843 33.77425 25.30634
#
# Velocity S-wave (km/s) = 2.91386 4.12678 3.57218
# Velocity P-wave (km/s) = 4.31307 6.46897 5.49773
#
# Compressibility (1/GPa) = 0.06924644
#
# Stress axis : x y z
#
# Youngs Moduli (GPa) = 48.15751 9.90398 121.75373
#
# Poissons Ratio (x) = 0.23078 0.24808
# Poissons Ratio (y) = 1.12214 0.61020
# Poissons Ratio (z) = 0.09812 0.04964
#
# Static dielectric constant tensor:
#      x y z
#    x 5.035310 0.000000 0.000000 
#    y 0.000000 3.694060 0.000000 
#    z 0.000000 0.000000 3.596060 
# 
# 
# High freq. dielectric constant tensor:
#      x y z
#    x 1.753880 0.000000 0.000000 
#    y 0.000000 1.763780 0.000000 
#    z 0.000000 0.000000 1.781850 
# 
# From -- ./inp_files/58178.got.cif
#   From: 2010.03.12/outbox.cif.g09.slc.cpg/sg66_30_cif.got.tgz:58178.got - 2010.04.10 21:57:39.
