data_PCOD8276331
_publ_section_title
;
Structure prediction by ZEFSAII (Michael W. Deem and Ramdas Pophale) SiO2 
 PCOD8276331
Probable space group: C C C M
;
_chemical_formula_sum "Si O2"
_cell_formula_units_Z 96
_cell_length_a 19.416285
_cell_length_b 31.243164
_cell_length_c 8.947082
_cell_angle_alpha 90.000000
_cell_angle_beta 90.000000
_cell_angle_gamma 90.000000
_cell_volume 5427.534145
_symmetry_space_group_name_H-M "C C C M"
_symmetry_group_IT_number 66
_symmetry_cell_setting 'orthorhombic'
loop_
_space_group_symop_operation_xyz
x,y,z
-x,-y,z
x,-y,1/2-z
-x,y,1/2-z
-x,-y,-z
x,y,-z
-x,y,1/2+z
x,-y,1/2+z
1/2+x,1/2+y,z
1/2-x,1/2-y,z
1/2+x,1/2-y,1/2-z
1/2-x,1/2+y,1/2-z
1/2-x,1/2-y,-z
1/2+x,1/2+y,-z
1/2-x,1/2+y,1/2+z
1/2+x,1/2-y,1/2+z
loop_
_atom_site_type_symbol
_atom_site_label
_atom_site_fract_x
_atom_site_fract_y
_atom_site_fract_z
Si Si1 0.831126 0.956013 0.823514
Si Si2 0.573478 0.882560 0.174964
Si Si3 0.425800 0.613699 0.825644
Si Si4 0.073374 0.791489 0.827627
Si Si5 0.672936 0.043426 0.675515
Si Si6 0.425768 0.788327 0.325340
O O1 0.873509 0.917344 0.755709
O O2 0.751817 0.947872 0.780118
O O3 0.857488 0.000000 0.750000
O O4 0.842670 0.958491 0.000000
O O5 0.500000 0.889737 0.250000
O O6 0.627560 0.917192 0.237130
O O7 0.606079 0.835301 0.207848
O O8 0.561384 0.888333 0.000000
O O9 0.500000 0.609305 0.750000
O O10 0.393272 0.661529 0.806527
O O11 0.433219 0.601946 0.000000
O O12 0.115795 0.752002 0.749224
O O13 0.000000 0.794311 0.750000
O O14 0.064386 0.780007 0.000000
O O15 0.664613 0.038162 0.500000
O O16 0.645437 0.000000 0.750000
O O17 0.500000 0.788533 0.250000
O O18 0.431706 0.779678 0.500000
#
# Coordination Sequence:
#
# PCOD8276331 Si02
#       6
#    16  16  16  16  16  16
#     4  10  20  35  54  72  93 124 160 197 238 285
#     4   9  18  31  47  71 100 127 158 198 240 280
#     4  10  20  33  50  74 101 126 156 195 237 280
#     4   9  16  26  42  65  94 124 153 188 229 274
#     4   9  19  35  52  70  94 125 161 198 238 286
#     4   9  15  24  41  64  92 124 156 190 229 275
#
# _framework density 17.687591000000001
#
# number of rings (size 3 to 8) (size 9 to 14) (size 15 to 20)
#    0.000    2.667    0.000    3.000    0.000    4.667 
#    0.000    3.333    0.000    1.000    0.000    7.000 
#    0.000    0.000    0.000    0.000    0.000    0.000 
#
# Total GULP energy -594771.851957 kJ/mol
# GULP energy per Si atom -12391.080249 kJ/mol
# Density = 1.764733 g / cm^3
# Si number density = 17.687591 Si / 1000 Ang^3
#
#
#
# Elastic Constant Matrix: (Units=GPa)
#
#
# Indices 1 2 3 4 5 6 
#
# 1 51.0517 62.3459 31.3717 0.0000 0.0000 0.0000
# 2 62.3459 186.3198 71.3013 0.0000 0.0000 0.0000
# 3 31.3717 71.3013 95.1778 0.0000 0.0000 0.0000
# 4 0.0000 0.0000 0.0000 33.2566 0.0000 0.0000
# 5 0.0000 0.0000 0.0000 0.0000 16.8660 0.0000
# 6 0.0000 0.0000 0.0000 0.0000 0.0000 0.5286
#
#
#
# Elastic Compliance Matrix: (Units=1/GPa)
#
#
# Indices 1 2 3 4 5 6 
#
# 1 0.034062 -0.009955 -0.003769 0.000000 0.000000 0.000000
# 2 -0.009955 0.010434 -0.004535 0.000000 0.000000 0.000000
# 3 -0.003769 -0.004535 0.015146 0.000000 0.000000 0.000000
# 4 0.000000 0.000000 0.000000 0.030069 0.000000 0.000000
# 5 0.000000 0.000000 0.000000 0.000000 0.059291 0.000000
# 6 0.000000 0.000000 0.000000 0.000000 0.000000 1.891833
#
#
# Mechanical properties :
#
#
# Convention : Reuss Voigt Hill
#
# Bulk Modulus (GPa) = 43.24706 73.62079 58.43392
# Shear Modulus (GPa) = 2.39801 21.29893 11.84847
#
# Velocity S-wave (km/s) = 1.16563 3.47389 2.59100
# Velocity P-wave (km/s) = 5.12983 7.60288 6.48533
#
# Compressibility (1/GPa) = 0.02312296
#
# Stress axis : x y z
#
# Youngs Moduli (GPa) = 29.35827 95.84251 66.02237
#
# Poissons Ratio (x) = 0.95414 0.24886
# Poissons Ratio (y) = 0.29227 0.29941
# Poissons Ratio (z) = 0.11066 0.43464
#
# Static dielectric constant tensor:
#      x y z
#    x 2.889040 0.000000 0.000000 
#    y 0.000000 4.455370 0.000000 
#    z 0.000000 0.000000 3.412900 
# 
# 
# High freq. dielectric constant tensor:
#      x y z
#    x 1.627190 0.000000 0.000000 
#    y 0.000000 1.712490 0.000000 
#    z 0.000000 0.000000 1.696640 
# 
# From -- ./inp_files/8040.got.cif
#   From: 2010.03.12/outbox.cif.g09.slc.cpg/sg66_5_cif.got.tgz:8040.got - 2010.04.10 21:57:39.
