data_PCOD8276961
_publ_section_title
;
Structure prediction by ZEFSAII (Michael W. Deem and Ramdas Pophale) SiO2 
 PCOD8276961
Probable space group: C C C M
;
_chemical_formula_sum "Si O2"
_cell_formula_units_Z 56
_cell_length_a 32.860157
_cell_length_b 5.055893
_cell_length_c 15.021585
_cell_angle_alpha 90.000000
_cell_angle_beta 90.000000
_cell_angle_gamma 90.000000
_cell_volume 2495.647643
_symmetry_space_group_name_H-M "C C C M"
_symmetry_group_IT_number 66
_symmetry_cell_setting 'orthorhombic'
loop_
_space_group_symop_operation_xyz
x,y,z
-x,-y,z
x,-y,1/2-z
-x,y,1/2-z
-x,-y,-z
x,y,-z
-x,y,1/2+z
x,-y,1/2+z
1/2+x,1/2+y,z
1/2-x,1/2-y,z
1/2+x,1/2-y,1/2-z
1/2-x,1/2+y,1/2-z
1/2-x,1/2-y,-z
1/2+x,1/2+y,-z
1/2-x,1/2+y,1/2+z
1/2+x,1/2-y,1/2+z
loop_
_atom_site_type_symbol
_atom_site_label
_atom_site_fract_x
_atom_site_fract_y
_atom_site_fract_z
Si Si1 0.971254 0.758853 0.500000
Si Si2 0.724136 0.996513 0.145454
Si Si3 0.588416 0.587999 0.655131
Si Si4 0.633175 0.942078 0.901090
O O1 0.945636 0.791681 0.590337
O O2 0.000000 0.500000 0.500000
O O3 0.000000 0.000000 0.500000
O O4 0.750000 0.750000 0.114786
O O5 0.681621 0.956271 0.096263
O O6 0.715564 0.000000 0.250000
O O7 0.750000 0.250000 0.114187
O O8 0.569235 0.500000 0.750000
O O9 0.615207 0.347700 0.617526
O O10 0.618468 0.837290 0.669815
O O11 0.617266 0.020948 0.000000
#
# Coordination Sequence:
#
# PCOD8276961 Si02
#       4
#     8  16  16  16
#     4  12  26  48  76 106 144 174 218 286 344 416
#     4  10  21  36  56  89 133 181 235 292 347 401
#     4  12  25  46  73 104 139 185 232 277 346 420
#     4  12  23  42  68  99 139 183 239 294 342 406
#
# _framework density 22.439067000000001
#
# number of rings (size 3 to 8) (size 9 to 14) (size 15 to 20)
#    0.000    0.571    2.857    6.000    0.000    4.000 
#    0.000    1.429    0.000    0.000    0.000    0.000 
#    0.000    0.000    0.000    0.000    0.000    0.000 
#
# Total GULP energy -347049.236692 kJ/mol
# GULP energy per Si atom -12394.615596 kJ/mol
# Density = 2.238799 g / cm^3
# Si number density = 22.439067 Si / 1000 Ang^3
#
#
#
# Elastic Constant Matrix: (Units=GPa)
#
#
# Indices 1 2 3 4 5 6 
#
# 1 136.6460 80.9327 55.8498 0.0000 0.0000 0.0000
# 2 80.9327 205.7051 41.2125 0.0000 0.0000 0.0000
# 3 55.8498 41.2125 118.8794 0.0000 0.0000 0.0000
# 4 0.0000 0.0000 0.0000 28.9627 0.0000 0.0000
# 5 0.0000 0.0000 0.0000 0.0000 25.6072 0.0000
# 6 0.0000 0.0000 0.0000 0.0000 0.0000 50.8769
#
#
#
# Elastic Compliance Matrix: (Units=1/GPa)
#
#
# Indices 1 2 3 4 5 6 
#
# 1 0.011037 -0.003550 -0.003955 0.000000 0.000000 0.000000
# 2 -0.003550 0.006366 -0.000539 0.000000 0.000000 0.000000
# 3 -0.003955 -0.000539 0.010457 0.000000 0.000000 0.000000
# 4 0.000000 0.000000 0.000000 0.034527 0.000000 0.000000
# 5 0.000000 0.000000 0.000000 0.000000 0.039051 0.000000
# 6 0.000000 0.000000 0.000000 0.000000 0.000000 0.019655
#
#
# Mechanical properties :
#
#
# Convention : Reuss Voigt Hill
#
# Bulk Modulus (GPa) = 84.94512 90.80227 87.87370
# Shear Modulus (GPa) = 35.43447 39.97174 37.70311
#
# Velocity S-wave (km/s) = 3.97815 4.22518 4.10352
# Velocity P-wave (km/s) = 7.68369 8.02227 7.85480
#
# Compressibility (1/GPa) = 0.01177231
#
# Stress axis : x y z
#
# Youngs Moduli (GPa) = 90.60297 157.08152 95.63326
#
# Poissons Ratio (x) = 0.55767 0.37818
# Poissons Ratio (y) = 0.32166 0.05156
# Poissons Ratio (z) = 0.35829 0.08468
#
# Static dielectric constant tensor:
#      x y z
#    x 3.910890 0.000000 0.000000 
#    y 0.000000 4.294550 0.000000 
#    z 0.000000 0.000000 4.131280 
# 
# 
# High freq. dielectric constant tensor:
#      x y z
#    x 1.885660 0.000000 0.000000 
#    y 0.000000 1.906940 0.000000 
#    z 0.000000 0.000000 1.889010 
# 
# From -- ./inp_files/22518.got.cif
#   From: 2010.03.12/outbox.cif.g09.slc.cpg/sg66_12_cif.got.tgz:22518.got - 2010.04.10 21:57:39.
