data_PCOD8276019
_publ_section_title
;
Structure prediction by ZEFSAII (Michael W. Deem and Ramdas Pophale) SiO2 
 PCOD8276019
Probable space group: C C C M
;
_chemical_formula_sum "Si O2"
_cell_formula_units_Z 112
_cell_length_a 11.409016
_cell_length_b 27.312604
_cell_length_c 16.021970
_cell_angle_alpha 90.000000
_cell_angle_beta 90.000000
_cell_angle_gamma 90.000000
_cell_volume 4992.605047
_symmetry_space_group_name_H-M "C C C M"
_symmetry_group_IT_number 66
_symmetry_cell_setting 'orthorhombic'
loop_
_space_group_symop_operation_xyz
x,y,z
-x,-y,z
x,-y,1/2-z
-x,y,1/2-z
-x,-y,-z
x,y,-z
-x,y,1/2+z
x,-y,1/2+z
1/2+x,1/2+y,z
1/2-x,1/2-y,z
1/2+x,1/2-y,1/2-z
1/2-x,1/2+y,1/2-z
1/2-x,1/2-y,-z
1/2+x,1/2+y,-z
1/2-x,1/2+y,1/2+z
1/2+x,1/2-y,1/2+z
loop_
_atom_site_type_symbol
_atom_site_label
_atom_site_fract_x
_atom_site_fract_y
_atom_site_fract_z
Si Si1 0.948861 0.431548 0.842474
Si Si2 0.824745 0.106838 0.596037
Si Si3 0.466662 0.233021 0.346149
Si Si4 0.828630 0.478468 0.594871
Si Si5 0.800095 0.299380 0.404616
Si Si6 0.957285 0.155479 0.156117
Si Si7 0.202326 0.656622 0.901035
O O1 0.848194 0.473730 0.847330
O O2 0.897129 0.380795 0.873051
O O3 0.000000 0.427377 0.750000
O O4 0.054167 0.445284 0.904804
O O5 0.787816 0.104398 0.500000
O O6 0.778986 0.054701 0.632603
O O7 0.755554 0.152602 0.639636
O O8 0.963442 0.116493 0.605177
O O9 0.500000 0.229148 0.250000
O O10 0.560011 0.200868 0.397975
O O11 0.472025 0.289089 0.377718
O O12 0.339790 0.209865 0.367222
O O13 0.803001 0.495603 0.500000
O O14 0.757931 0.299648 0.500000
O O15 0.750000 0.250000 0.359960
O O16 0.822406 0.140790 0.144446
O O17 0.000000 0.150994 0.250000
O O18 0.221447 0.657519 0.000000
#
# Coordination Sequence:
#
# PCOD8276019 Si02
#       7
#    16  16  16  16  16  16  16
#     4  11  23  41  67 100 133 165 212 275 340 401
#     4  10  21  38  63  92 125 170 218 264 328 399
#     4  11  24  39  62  93 131 176 225 277 338 399
#     4  10  20  38  67  99 132 166 205 266 336 408
#     4  10  19  33  59  88 123 166 215 269 318 388
#     4  11  26  42  61  89 133 179 223 280 332 399
#     4  12  26  43  66  95 133 182 233 281 336 405
#
# _framework density 22.433177000000001
#
# number of rings (size 3 to 8) (size 9 to 14) (size 15 to 20)
#    0.000    1.286    1.429    5.143    4.000    3.429 
#    0.000    1.429    0.000    3.429    0.000    0.000 
#    0.000    0.000    0.000    0.000    0.000    0.000 
#
# Total GULP energy -694326.557156 kJ/mol
# GULP energy per Si atom -12398.688521 kJ/mol
# Density = 2.238212 g / cm^3
# Si number density = 22.433177 Si / 1000 Ang^3
#
#
#
# Elastic Constant Matrix: (Units=GPa)
#
#
# Indices 1 2 3 4 5 6 
#
# 1 102.8639 35.5525 18.5362 0.0000 0.0000 0.0000
# 2 35.5525 86.9693 26.4406 0.0000 0.0000 0.0000
# 3 18.5362 26.4406 79.3022 0.0000 0.0000 0.0000
# 4 0.0000 0.0000 0.0000 13.5744 0.0000 0.0000
# 5 0.0000 0.0000 0.0000 0.0000 30.2368 0.0000
# 6 0.0000 0.0000 0.0000 0.0000 0.0000 47.0690
#
#
#
# Elastic Compliance Matrix: (Units=1/GPa)
#
#
# Indices 1 2 3 4 5 6 
#
# 1 0.011430 -0.004296 -0.001239 0.000000 0.000000 0.000000
# 2 -0.004296 0.014410 -0.003800 0.000000 0.000000 0.000000
# 3 -0.001239 -0.003800 0.014167 0.000000 0.000000 0.000000
# 4 0.000000 0.000000 0.000000 0.073668 0.000000 0.000000
# 5 0.000000 0.000000 0.000000 0.000000 0.033072 0.000000
# 6 0.000000 0.000000 0.000000 0.000000 0.000000 0.021245
#
#
# Mechanical properties :
#
#
# Convention : Reuss Voigt Hill
#
# Bulk Modulus (GPa) = 46.87023 47.79933 47.33478
# Shear Modulus (GPa) = 25.80322 30.74978 28.27650
#
# Velocity S-wave (km/s) = 3.39518 3.70635 3.55417
# Velocity P-wave (km/s) = 6.02563 6.29839 6.16352
#
# Compressibility (1/GPa) = 0.02133550
#
# Stress axis : x y z
#
# Youngs Moduli (GPa) = 87.49233 69.39774 70.58770
#
# Poissons Ratio (x) = 0.29810 0.08748
# Poissons Ratio (y) = 0.37583 0.26826
# Poissons Ratio (z) = 0.10843 0.26374
#
# Static dielectric constant tensor:
#      x y z
#    x 4.028790 0.000000 0.000000 
#    y 0.000000 4.244740 0.000000 
#    z 0.000000 0.000000 3.885710 
# 
# 
# High freq. dielectric constant tensor:
#      x y z
#    x 1.876220 0.000000 0.000000 
#    y 0.000000 1.881340 0.000000 
#    z 0.000000 0.000000 1.868660 
# 
# From -- ./inp_files/26997.got.cif
#   From: 2010.03.12/outbox.cif.g09.slc.cpg/sg66_14_cif.got.tgz:26997.got - 2010.04.10 21:57:39.
