data_PCOD8276887
_publ_section_title
;
Structure prediction by ZEFSAII (Michael W. Deem and Ramdas Pophale) SiO2 
 PCOD8276887
Probable space group: C C C M
;
_chemical_formula_sum "Si O2"
_cell_formula_units_Z 112
_cell_length_a 27.245108
_cell_length_b 14.952642
_cell_length_c 14.691307
_cell_angle_alpha 90.000000
_cell_angle_beta 90.000000
_cell_angle_gamma 90.000000
_cell_volume 5985.037879
_symmetry_space_group_name_H-M "C C C M"
_symmetry_group_IT_number 66
_symmetry_cell_setting 'orthorhombic'
loop_
_space_group_symop_operation_xyz
x,y,z
-x,-y,z
x,-y,1/2-z
-x,y,1/2-z
-x,-y,-z
x,y,-z
-x,y,1/2+z
x,-y,1/2+z
1/2+x,1/2+y,z
1/2-x,1/2-y,z
1/2+x,1/2-y,1/2-z
1/2-x,1/2+y,1/2-z
1/2-x,1/2-y,-z
1/2+x,1/2+y,-z
1/2-x,1/2+y,1/2+z
1/2+x,1/2-y,1/2+z
loop_
_atom_site_type_symbol
_atom_site_label
_atom_site_fract_x
_atom_site_fract_y
_atom_site_fract_z
Si Si1 0.556416 0.307153 0.100778
Si Si2 0.306119 0.592261 0.300840
Si Si3 0.193762 0.146432 0.000000
Si Si4 0.808270 0.591824 0.801369
Si Si5 0.373217 0.249600 0.749702
Si Si6 0.191028 0.349873 0.000000
Si Si7 0.557851 0.500417 0.851060
Si Si8 0.944491 0.805524 0.898508
O O1 0.592443 0.248523 0.161426
O O2 0.574750 0.410536 0.098151
O O3 0.500522 0.301203 0.138286
O O4 0.559263 0.267304 0.000000
O O5 0.317898 0.500000 0.250000
O O6 0.321691 0.592143 0.408388
O O7 0.248853 0.616546 0.292263
O O8 0.337278 0.666023 0.248363
O O9 0.169647 0.247138 0.000000
O O10 0.251212 0.159402 0.000000
O O11 0.820036 0.500000 0.750000
O O12 0.839864 0.662715 0.745708
O O13 0.824581 0.595567 0.908500
O O14 0.409311 0.246511 0.836332
O O15 0.500000 0.500000 0.846546
O O16 0.580879 0.500000 0.750000
O O17 0.574927 0.591486 0.899877
O O18 0.941244 0.766953 0.000000
#
# Coordination Sequence:
#
# PCOD8276887 Si02
#       8
#    16  16   8  16  16   8  16  16
#     4  10  21  37  51  74 117 158 186 224 284 343
#     4  10  22  37  57  88 123 154 184 234 295 343
#     4   9  16  34  60  83 115 148 186 235 285 334
#     4  10  22  41  61  84 115 149 190 247 302 344
#     4  12  22  34  60  86 111 150 196 240 277 347
#     4   9  16  34  64  85 105 144 188 243 294 339
#     4   9  15  29  49  69 104 150 185 216 266 332
#     4  10  21  33  53  82 113 147 186 235 283 337
#
# _framework density 18.713331
#
# number of rings (size 3 to 8) (size 9 to 14) (size 15 to 20)
#    0.000    2.000    2.857    1.286    4.000    1.714 
#    2.571    0.000    0.000    2.571    0.000    2.000 
#    0.000    0.000    0.000    0.000    0.000    0.000 
#
# Total GULP energy -694019.687230 kJ/mol
# GULP energy per Si atom -12393.208701 kJ/mol
# Density = 1.867074 g / cm^3
# Si number density = 18.713331 Si / 1000 Ang^3
#
#
#
# Elastic Constant Matrix: (Units=GPa)
#
#
# Indices 1 2 3 4 5 6 
#
# 1 85.8420 47.0679 34.6355 0.0000 0.0000 0.0000
# 2 47.0679 89.3369 54.6970 0.0000 0.0000 0.0000
# 3 34.6355 54.6970 117.5711 0.0000 0.0000 0.0000
# 4 0.0000 0.0000 0.0000 23.2672 0.0000 0.0000
# 5 0.0000 0.0000 0.0000 0.0000 17.7062 0.0000
# 6 0.0000 0.0000 0.0000 0.0000 0.0000 20.1716
#
#
#
# Elastic Compliance Matrix: (Units=1/GPa)
#
#
# Indices 1 2 3 4 5 6 
#
# 1 0.016490 -0.007990 -0.001141 0.000000 0.000000 0.000000
# 2 -0.007990 0.019523 -0.006729 0.000000 0.000000 0.000000
# 3 -0.001141 -0.006729 0.011972 0.000000 0.000000 0.000000
# 4 0.000000 0.000000 0.000000 0.042979 0.000000 0.000000
# 5 0.000000 0.000000 0.000000 0.000000 0.056477 0.000000
# 6 0.000000 0.000000 0.000000 0.000000 0.000000 0.049575
#
#
# Mechanical properties :
#
#
# Convention : Reuss Voigt Hill
#
# Bulk Modulus (GPa) = 61.47620 62.83898 62.15759
# Shear Modulus (GPa) = 21.35318 22.65229 22.00273
#
# Velocity S-wave (km/s) = 3.38163 3.48298 3.43268
# Velocity P-wave (km/s) = 6.94047 7.05887 6.99992
#
# Compressibility (1/GPa) = 0.01626646
#
# Stress axis : x y z
#
# Youngs Moduli (GPa) = 60.64126 51.22248 83.52802
#
# Poissons Ratio (x) = 0.40924 0.09531
# Poissons Ratio (y) = 0.48450 0.56204
# Poissons Ratio (z) = 0.06919 0.34467
#
# Static dielectric constant tensor:
#      x y z
#    x 3.502130 0.000000 0.000000 
#    y 0.000000 3.146520 0.000000 
#    z 0.000000 0.000000 3.596610 
# 
# 
# High freq. dielectric constant tensor:
#      x y z
#    x 1.731060 0.000000 0.000000 
#    y 0.000000 1.679920 0.000000 
#    z 0.000000 0.000000 1.730740 
# 
# From -- ./inp_files/33358.got.cif
#   From: 2010.03.12/outbox.cif.g09.slc.cpg/sg66_17_cif.got.tgz:33358.got - 2010.04.10 21:57:39.
