data_PCOD8276414
_publ_section_title
;
Structure prediction by ZEFSAII (Michael W. Deem and Ramdas Pophale) SiO2 
 PCOD8276414
Probable space group: C C C M
;
_chemical_formula_sum "Si O2"
_cell_formula_units_Z 64
_cell_length_a 8.326697
_cell_length_b 16.286324
_cell_length_c 24.129441
_cell_angle_alpha 90.000000
_cell_angle_beta 90.000000
_cell_angle_gamma 90.000000
_cell_volume 3272.224505
_symmetry_space_group_name_H-M "C C C M"
_symmetry_group_IT_number 66
_symmetry_cell_setting 'orthorhombic'
loop_
_space_group_symop_operation_xyz
x,y,z
-x,-y,z
x,-y,1/2-z
-x,y,1/2-z
-x,-y,-z
x,y,-z
-x,y,1/2+z
x,-y,1/2+z
1/2+x,1/2+y,z
1/2-x,1/2-y,z
1/2+x,1/2-y,1/2-z
1/2-x,1/2+y,1/2-z
1/2-x,1/2-y,-z
1/2+x,1/2+y,-z
1/2-x,1/2+y,1/2+z
1/2+x,1/2-y,1/2+z
loop_
_atom_site_type_symbol
_atom_site_label
_atom_site_fract_x
_atom_site_fract_y
_atom_site_fract_z
Si Si1 0.927610 0.590972 0.000000
Si Si2 0.437087 0.234385 0.811707
Si Si3 0.862650 0.826053 0.599912
Si Si4 0.449679 0.093368 0.615426
Si Si5 0.047284 0.905523 0.500000
O O1 0.737644 0.596766 0.000000
O O2 0.000000 0.500000 0.000000
O O3 0.991779 0.632781 0.056439
O O4 0.500000 0.241043 0.750000
O O5 0.250000 0.250000 0.813979
O O6 0.530548 0.302128 0.847494
O O7 0.470407 0.143617 0.834926
O O8 0.750000 0.750000 0.580628
O O9 0.743855 0.900290 0.617599
O O10 0.980842 0.857401 0.552728
O O11 0.500000 0.000000 0.622477
O O12 0.000000 0.000000 0.500000
#
# Coordination Sequence:
#
# PCOD8276414 Si02
#       5
#     8  16  16  16   8
#     4  10  20  34  53  85 121 153 185 234 295 345
#     4  11  23  41  61  84 115 156 199 242 291 348
#     4  10  22  39  60  88 120 156 194 239 293 352
#     4  10  20  38  61  86 119 155 193 242 292 343
#     4  12  21  34  60  91 121 155 196 242 288 347
#
# _framework density 19.558558999999999
#
# number of rings (size 3 to 8) (size 9 to 14) (size 15 to 20)
#    0.000    1.500    0.000    7.875    0.000    3.500 
#    0.000    6.250    0.000    5.250    0.000    0.000 
#    0.000    0.000    0.000    0.000    0.000    0.000 
#
# Total GULP energy -396763.791806 kJ/mol
# GULP energy per Si atom -12398.868494 kJ/mol
# Density = 1.951404 g / cm^3
# Si number density = 19.558559 Si / 1000 Ang^3
#
#
#
# Elastic Constant Matrix: (Units=GPa)
#
#
# Indices 1 2 3 4 5 6 
#
# 1 199.7861 63.8599 83.7640 0.0000 0.0000 0.0000
# 2 63.8599 93.6321 67.8162 0.0000 0.0000 0.0000
# 3 83.7640 67.8162 178.1905 0.0000 0.0000 0.0000
# 4 0.0000 0.0000 0.0000 0.2669 0.0000 0.0000
# 5 0.0000 0.0000 0.0000 0.0000 38.1711 0.0000
# 6 0.0000 0.0000 0.0000 0.0000 0.0000 40.6758
#
#
#
# Elastic Compliance Matrix: (Units=1/GPa)
#
#
# Indices 1 2 3 4 5 6 
#
# 1 0.006881 -0.003245 -0.002000 0.000000 0.000000 0.000000
# 2 -0.003245 0.016274 -0.004669 0.000000 0.000000 0.000000
# 3 -0.002000 -0.004669 0.008329 0.000000 0.000000 0.000000
# 4 0.000000 0.000000 0.000000 3.747085 0.000000 0.000000
# 5 0.000000 0.000000 0.000000 0.000000 0.026198 0.000000
# 6 0.000000 0.000000 0.000000 0.000000 0.000000 0.024585
#
#
# Mechanical properties :
#
#
# Convention : Reuss Voigt Hill
#
# Bulk Modulus (GPa) = 85.77573 100.27654 93.02613
# Shear Modulus (GPa) = 1.29767 32.90066 17.09916
#
# Velocity S-wave (km/s) = 0.81543 4.10587 2.95999
# Velocity P-wave (km/s) = 6.69609 8.59411 7.70378
#
# Compressibility (1/GPa) = 0.01165831
#
# Stress axis : x y z
#
# Youngs Moduli (GPa) = 145.33016 61.44645 120.06583
#
# Poissons Ratio (x) = 0.19937 0.24010
# Poissons Ratio (y) = 0.47154 0.56053
# Poissons Ratio (z) = 0.29062 0.28686
#
# Static dielectric constant tensor:
#      x y z
#    x 3.861370 0.000000 0.000000 
#    y 0.000000 3.494300 0.000000 
#    z 0.000000 0.000000 3.797640 
# 
# 
# High freq. dielectric constant tensor:
#      x y z
#    x 1.785190 0.000000 0.000000 
#    y 0.000000 1.754640 0.000000 
#    z 0.000000 0.000000 1.764090 
# 
# From -- ./inp_files/46656.got.cif
#   From: 2010.03.12/outbox.cif.g09.slc.cpg/sg66_24_cif.got.tgz:46656.got - 2010.04.10 21:57:39.
