data_PCOD8276902
_publ_section_title
;
Structure prediction by ZEFSAII (Michael W. Deem and Ramdas Pophale) SiO2 
 PCOD8276902
Probable space group: C C C M
;
_chemical_formula_sum "Si O2"
_cell_formula_units_Z 64
_cell_length_a 20.092352
_cell_length_b 9.823371
_cell_length_c 17.316686
_cell_angle_alpha 90.000000
_cell_angle_beta 90.000000
_cell_angle_gamma 90.000000
_cell_volume 3417.874457
_symmetry_space_group_name_H-M "C C C M"
_symmetry_group_IT_number 66
_symmetry_cell_setting 'orthorhombic'
loop_
_space_group_symop_operation_xyz
x,y,z
-x,-y,z
x,-y,1/2-z
-x,y,1/2-z
-x,-y,-z
x,y,-z
-x,y,1/2+z
x,-y,1/2+z
1/2+x,1/2+y,z
1/2-x,1/2-y,z
1/2+x,1/2-y,1/2-z
1/2-x,1/2+y,1/2-z
1/2-x,1/2-y,-z
1/2+x,1/2+y,-z
1/2-x,1/2+y,1/2+z
1/2+x,1/2-y,1/2+z
loop_
_atom_site_type_symbol
_atom_site_label
_atom_site_fract_x
_atom_site_fract_y
_atom_site_fract_z
Si Si1 0.939861 0.866801 0.188779
Si Si2 0.998702 0.345881 0.587849
Si Si3 0.696726 0.636994 0.719589
Si Si4 0.895000 0.882479 0.589176
O O1 0.872314 0.845700 0.235174
O O2 0.000000 0.878340 0.250000
O O3 0.943667 0.733433 0.136569
O O4 0.937332 0.001752 0.134336
O O5 0.974170 0.349672 0.500000
O O6 0.068146 0.263825 0.595895
O O7 0.000000 0.500000 0.620396
O O8 0.731615 0.500000 0.750000
O O9 0.750000 0.750000 0.738662
O O10 0.677881 0.632989 0.628363
O O11 0.886492 0.925898 0.500000
#
# Coordination Sequence:
#
# PCOD8276902 Si02
#       4
#    16  16  16  16
#     4  11  21  37  61  88 115 147 197 246 286 344
#     4  10  21  34  52  86 122 148 180 233 293 345
#     4  10  23  39  58  82 117 151 193 240 287 343
#     4  10  21  37  61  85 115 156 194 238 287 345
#
# _framework density 18.725086999999998
#
# number of rings (size 3 to 8) (size 9 to 14) (size 15 to 20)
#    0.000    1.750    2.500    1.500    7.000    5.000 
#    0.000    0.000    0.000   18.750    0.000    0.000 
#    0.000    0.000    0.000    0.000    0.000    0.000 
#
# Total GULP energy -396518.739410 kJ/mol
# GULP energy per Si atom -12391.210607 kJ/mol
# Density = 1.868247 g / cm^3
# Si number density = 18.725087 Si / 1000 Ang^3
#
#
#
# Elastic Constant Matrix: (Units=GPa)
#
#
# Indices 1 2 3 4 5 6 
#
# 1 92.4630 60.4585 47.5531 0.0000 0.0000 0.0000
# 2 60.4585 183.1481 71.0465 0.0000 0.0000 0.0000
# 3 47.5531 71.0465 112.9754 0.0000 0.0000 0.0000
# 4 0.0000 0.0000 0.0000 32.3766 0.0000 0.0000
# 5 0.0000 0.0000 0.0000 0.0000 7.8143 0.0000
# 6 0.0000 0.0000 0.0000 0.0000 0.0000 27.3448
#
#
#
# Elastic Compliance Matrix: (Units=1/GPa)
#
#
# Indices 1 2 3 4 5 6 
#
# 1 0.015219 -0.003358 -0.004294 0.000000 0.000000 0.000000
# 2 -0.003358 0.007963 -0.003594 0.000000 0.000000 0.000000
# 3 -0.004294 -0.003594 0.012919 0.000000 0.000000 0.000000
# 4 0.000000 0.000000 0.000000 0.030887 0.000000 0.000000
# 5 0.000000 0.000000 0.000000 0.000000 0.127970 0.000000
# 6 0.000000 0.000000 0.000000 0.000000 0.000000 0.036570
#
#
# Mechanical properties :
#
#
# Convention : Reuss Voigt Hill
#
# Bulk Modulus (GPa) = 73.48362 82.96695 78.22528
# Shear Modulus (GPa) = 19.33809 27.47569 23.40689
#
# Velocity S-wave (km/s) = 3.21711 3.83472 3.53941
# Velocity P-wave (km/s) = 7.28892 8.00068 7.65308
#
# Compressibility (1/GPa) = 0.01360847
#
# Stress axis : x y z
#
# Youngs Moduli (GPa) = 65.70529 125.58339 77.40447
#
# Poissons Ratio (x) = 0.42174 0.33239
# Poissons Ratio (y) = 0.22066 0.27819
# Poissons Ratio (z) = 0.28215 0.45135
#
# Static dielectric constant tensor:
#      x y z
#    x 3.237570 0.000000 0.000000 
#    y 0.000000 3.871830 0.000000 
#    z 0.000000 0.000000 3.903800 
# 
# 
# High freq. dielectric constant tensor:
#      x y z
#    x 1.694700 0.000000 0.000000 
#    y 0.000000 1.734650 0.000000 
#    z 0.000000 0.000000 1.745890 
# 
# From -- ./inp_files/36305.got.cif
#   From: 2010.03.12/outbox.cif.g09.slc.cpg/sg66_19_cif.got.tgz:36305.got - 2010.04.10 21:57:39.
