data_PCOD8276687
_publ_section_title
;
Structure prediction by ZEFSAII (Michael W. Deem and Ramdas Pophale) SiO2 
 PCOD8276687
Probable space group: C C C M
;
_chemical_formula_sum "Si O2"
_cell_formula_units_Z 96
_cell_length_a 9.656572
_cell_length_b 24.993436
_cell_length_c 19.250029
_cell_angle_alpha 90.000000
_cell_angle_beta 90.000000
_cell_angle_gamma 90.000000
_cell_volume 4646.012099
_symmetry_space_group_name_H-M "C C C M"
_symmetry_group_IT_number 66
_symmetry_cell_setting 'orthorhombic'
loop_
_space_group_symop_operation_xyz
x,y,z
-x,-y,z
x,-y,1/2-z
-x,y,1/2-z
-x,-y,-z
x,y,-z
-x,y,1/2+z
x,-y,1/2+z
1/2+x,1/2+y,z
1/2-x,1/2-y,z
1/2+x,1/2-y,1/2-z
1/2-x,1/2+y,1/2-z
1/2-x,1/2-y,-z
1/2+x,1/2+y,-z
1/2-x,1/2+y,1/2+z
1/2+x,1/2-y,1/2+z
loop_
_atom_site_type_symbol
_atom_site_label
_atom_site_fract_x
_atom_site_fract_y
_atom_site_fract_z
Si Si1 0.847927 0.943649 0.277775
Si Si2 0.287178 0.404004 0.421553
Si Si3 0.121278 0.385618 0.203309
Si Si4 0.020566 0.562036 0.576798
Si Si5 0.589039 0.762377 0.814384
Si Si6 0.880528 0.783361 0.419513
O O1 0.849245 0.942819 0.362079
O O2 0.761874 0.893502 0.246861
O O3 0.000000 0.935890 0.250000
O O4 0.785901 0.000000 0.250000
O O5 0.327312 0.423579 0.500000
O O6 0.121234 0.404476 0.414018
O O7 0.348003 0.345420 0.407424
O O8 0.079773 0.325916 0.183355
O O9 0.000000 0.411360 0.250000
O O10 0.134154 0.417161 0.130827
O O11 0.081708 0.571060 0.500000
O O12 0.000000 0.500000 0.591348
O O13 0.500000 0.739611 0.750000
O O14 0.750000 0.750000 0.807415
O O15 0.522243 0.734838 0.882180
O O16 0.903040 0.769961 0.500000
O O17 0.750000 0.750000 0.389720
#
# Coordination Sequence:
#
# PCOD8276687 Si02
#       6
#    16  16  16  16  16  16
#     4  11  25  42  63  94 129 169 213 262 326 390
#     4  10  21  39  66  93 125 173 217 262 322 390
#     4  11  23  38  61  93 119 160 208 265 320 374
#     4  10  20  36  62  95 126 161 209 267 322 378
#     4  11  26  40  61  93 126 168 214 269 328 389
#     4  10  22  40  65  92 125 169 217 269 327 396
#
# _framework density 20.662882
#
# number of rings (size 3 to 8) (size 9 to 14) (size 15 to 20)
#    0.000    1.500    1.667    2.500    7.000    2.333 
#    0.000    2.500    0.000    0.000    0.000    0.000 
#    0.000    0.000    0.000    0.000    0.000    0.000 
#
# Total GULP energy -595148.389093 kJ/mol
# GULP energy per Si atom -12398.924773 kJ/mol
# Density = 2.061585 g / cm^3
# Si number density = 20.662882 Si / 1000 Ang^3
#
#
#
# Elastic Constant Matrix: (Units=GPa)
#
#
# Indices 1 2 3 4 5 6 
#
# 1 108.2705 27.0498 49.3484 0.0000 0.0000 0.0000
# 2 27.0498 79.2596 58.1197 0.0000 0.0000 0.0000
# 3 49.3484 58.1197 156.7286 0.0000 0.0000 0.0000
# 4 0.0000 0.0000 0.0000 34.3138 0.0000 0.0000
# 5 0.0000 0.0000 0.0000 0.0000 31.3310 0.0000
# 6 0.0000 0.0000 0.0000 0.0000 0.0000 28.8001
#
#
#
# Elastic Compliance Matrix: (Units=1/GPa)
#
#
# Indices 1 2 3 4 5 6 
#
# 1 0.010940 -0.001659 -0.002830 0.000000 0.000000 0.000000
# 2 -0.001659 0.017580 -0.005997 0.000000 0.000000 0.000000
# 3 -0.002830 -0.005997 0.009495 0.000000 0.000000 0.000000
# 4 0.000000 0.000000 0.000000 0.029143 0.000000 0.000000
# 5 0.000000 0.000000 0.000000 0.000000 0.031917 0.000000
# 6 0.000000 0.000000 0.000000 0.000000 0.000000 0.034722
#
#
# Mechanical properties :
#
#
# Convention : Reuss Voigt Hill
#
# Bulk Modulus (GPa) = 58.66796 68.14382 63.40589
# Shear Modulus (GPa) = 31.16223 32.87171 32.01697
#
# Velocity S-wave (km/s) = 3.88767 3.99288 3.94063
# Velocity P-wave (km/s) = 6.97184 7.36939 7.17337
#
# Compressibility (1/GPa) = 0.01704508
#
# Stress axis : x y z
#
# Youngs Moduli (GPa) = 91.40575 56.88139 105.31552
#
# Poissons Ratio (x) = 0.09436 0.29800
# Poissons Ratio (y) = 0.15163 0.63158
# Poissons Ratio (z) = 0.25864 0.34112
#
# Static dielectric constant tensor:
#      x y z
#    x 3.536150 0.000000 0.000000 
#    y 0.000000 3.781430 0.000000 
#    z 0.000000 0.000000 4.063780 
# 
# 
# High freq. dielectric constant tensor:
#      x y z
#    x 1.789270 0.000000 0.000000 
#    y 0.000000 1.806530 0.000000 
#    z 0.000000 0.000000 1.826500 
# 
# From -- ./inp_files/39028.got.cif
#   From: 2010.03.12/outbox.cif.g09.slc.cpg/sg66_20_cif.got.tgz:39028.got - 2010.04.10 21:57:39.
