data_PCOD8276087
_publ_section_title
;
Structure prediction by ZEFSAII (Michael W. Deem and Ramdas Pophale) SiO2 
 PCOD8276087
Probable space group: C C C M
;
_chemical_formula_sum "Si O2"
_cell_formula_units_Z 112
_cell_length_a 13.761371
_cell_length_b 24.765860
_cell_length_c 15.762807
_cell_angle_alpha 90.000000
_cell_angle_beta 90.000000
_cell_angle_gamma 90.000000
_cell_volume 5372.156736
_symmetry_space_group_name_H-M "C C C M"
_symmetry_group_IT_number 66
_symmetry_cell_setting 'orthorhombic'
loop_
_space_group_symop_operation_xyz
x,y,z
-x,-y,z
x,-y,1/2-z
-x,y,1/2-z
-x,-y,-z
x,y,-z
-x,y,1/2+z
x,-y,1/2+z
1/2+x,1/2+y,z
1/2-x,1/2-y,z
1/2+x,1/2-y,1/2-z
1/2-x,1/2+y,1/2-z
1/2-x,1/2-y,-z
1/2+x,1/2+y,-z
1/2-x,1/2+y,1/2+z
1/2+x,1/2-y,1/2+z
loop_
_atom_site_type_symbol
_atom_site_label
_atom_site_fract_x
_atom_site_fract_y
_atom_site_fract_z
Si Si1 0.957555 0.762617 0.591386
Si Si2 0.198715 0.384570 0.093846
Si Si3 0.248267 0.557130 0.762048
Si Si4 0.995155 0.650886 0.846865
Si Si5 0.667946 0.293178 0.376976
Si Si6 0.417170 0.955923 0.096255
Si Si7 0.894918 0.152622 0.783337
O O1 0.909744 0.752191 0.500000
O O2 0.946779 0.707483 0.645536
O O3 0.904269 0.814817 0.629441
O O4 0.070399 0.775823 0.577017
O O5 0.202800 0.428633 0.169298
O O6 0.298653 0.351369 0.087054
O O7 0.115281 0.341570 0.120750
O O8 0.179089 0.410962 0.000000
O O9 0.303942 0.500000 0.750000
O O10 0.166646 0.545549 0.832785
O O11 0.323300 0.602072 0.795047
O O12 0.037856 0.603847 0.905212
O O13 0.000000 0.631918 0.750000
O O14 0.750000 0.250000 0.395439
O O15 0.648905 0.301434 0.277364
O O16 0.500000 0.000000 0.120530
O O17 0.378178 0.967316 0.000000
O O18 0.000000 0.132128 0.750000
#
# Coordination Sequence:
#
# PCOD8276087 Si02
#       7
#    16  16  16  16  16  16  16
#     4  11  22  36  58  89 126 166 212 263 321 391
#     4  11  22  36  58  91 124 155 204 265 317 372
#     4  11  24  42  67  91 119 168 219 271 327 393
#     4  12  22  36  58  87 126 173 210 255 313 389
#     4  10  19  34  58  86 120 159 201 253 314 370
#     4  11  25  43  63  92 131 170 217 274 331 392
#     4   9  22  41  60  88 124 164 208 267 328 384
#
# _framework density 20.848237999999998
#
# number of rings (size 3 to 8) (size 9 to 14) (size 15 to 20)
#    0.000    1.286    2.857    3.857    0.000    3.143 
#    0.000    0.000    0.000    2.571    0.000    7.000 
#    0.000    0.000    0.000    0.000    0.000    0.000 
#
# Total GULP energy -693983.663290 kJ/mol
# GULP energy per Si atom -12392.565416 kJ/mol
# Density = 2.080079 g / cm^3
# Si number density = 20.848238 Si / 1000 Ang^3
#
#
#
# Elastic Constant Matrix: (Units=GPa)
#
#
# Indices 1 2 3 4 5 6 
#
# 1 60.8449 40.2635 37.7573 0.0000 0.0000 0.0000
# 2 40.2635 132.6814 45.3039 0.0000 0.0000 0.0000
# 3 37.7573 45.3039 148.1807 0.0000 0.0000 0.0000
# 4 0.0000 0.0000 0.0000 15.5948 0.0000 0.0000
# 5 0.0000 0.0000 0.0000 0.0000 12.2039 0.0000
# 6 0.0000 0.0000 0.0000 0.0000 0.0000 30.0423
#
#
#
# Elastic Compliance Matrix: (Units=1/GPa)
#
#
# Indices 1 2 3 4 5 6 
#
# 1 0.022582 -0.005458 -0.004085 0.000000 0.000000 0.000000
# 2 -0.005458 0.009734 -0.001585 0.000000 0.000000 0.000000
# 3 -0.004085 -0.001585 0.008274 0.000000 0.000000 0.000000
# 4 0.000000 0.000000 0.000000 0.064124 0.000000 0.000000
# 5 0.000000 0.000000 0.000000 0.000000 0.081941 0.000000
# 6 0.000000 0.000000 0.000000 0.000000 0.000000 0.033286
#
#
# Mechanical properties :
#
#
# Convention : Reuss Voigt Hill
#
# Bulk Modulus (GPa) = 54.54531 65.37296 59.95913
# Shear Modulus (GPa) = 20.13604 26.12700 23.13152
#
# Velocity S-wave (km/s) = 3.11117 3.54390 3.33456
# Velocity P-wave (km/s) = 6.25505 6.94048 6.60666
#
# Compressibility (1/GPa) = 0.01833338
#
# Stress axis : x y z
#
# Youngs Moduli (GPa) = 44.28291 102.72810 120.85711
#
# Poissons Ratio (x) = 0.56067 0.49375
# Poissons Ratio (y) = 0.24169 0.19162
# Poissons Ratio (z) = 0.18091 0.16287
#
# Static dielectric constant tensor:
#      x y z
#    x 3.653590 0.000000 0.000000 
#    y 0.000000 3.759620 0.000000 
#    z 0.000000 0.000000 3.812280 
# 
# 
# High freq. dielectric constant tensor:
#      x y z
#    x 1.791250 0.000000 0.000000 
#    y 0.000000 1.820160 0.000000 
#    z 0.000000 0.000000 1.827850 
# 
# From -- ./inp_files/28657.got.cif
#   From: 2010.03.12/outbox.cif.g09.slc.cpg/sg66_15_cif.got.tgz:28657.got - 2010.04.10 21:57:39.
