data_PCOD8276764
_publ_section_title
;
Structure prediction by ZEFSAII (Michael W. Deem and Ramdas Pophale) SiO2 
 PCOD8276764
Probable space group: C C C M
;
_chemical_formula_sum "Si O2"
_cell_formula_units_Z 64
_cell_length_a 10.219502
_cell_length_b 14.119681
_cell_length_c 18.855389
_cell_angle_alpha 90.000000
_cell_angle_beta 90.000000
_cell_angle_gamma 90.000000
_cell_volume 2720.759252
_symmetry_space_group_name_H-M "C C C M"
_symmetry_group_IT_number 66
_symmetry_cell_setting 'orthorhombic'
loop_
_space_group_symop_operation_xyz
x,y,z
-x,-y,z
x,-y,1/2-z
-x,y,1/2-z
-x,-y,-z
x,y,-z
-x,y,1/2+z
x,-y,1/2+z
1/2+x,1/2+y,z
1/2-x,1/2-y,z
1/2+x,1/2-y,1/2-z
1/2-x,1/2+y,1/2-z
1/2-x,1/2-y,-z
1/2+x,1/2+y,-z
1/2-x,1/2+y,1/2+z
1/2+x,1/2-y,1/2+z
loop_
_atom_site_type_symbol
_atom_site_label
_atom_site_fract_x
_atom_site_fract_y
_atom_site_fract_z
Si Si1 0.973736 0.725159 0.330700
Si Si2 0.853367 0.536251 0.677918
Si Si3 0.807701 0.619386 0.920110
Si Si4 0.511671 0.393006 0.579691
O O1 0.102937 0.679377 0.366869
O O2 0.928915 0.821046 0.371146
O O3 0.000000 0.753890 0.250000
O O4 0.853981 0.649954 0.331450
O O5 0.779366 0.500000 0.750000
O O6 0.793758 0.489395 0.607237
O O7 0.000000 0.500000 0.685089
O O8 0.657530 0.653273 0.920492
O O9 0.866092 0.621986 0.000000
O O10 0.500000 0.500000 0.610377
O O11 0.454672 0.392702 0.500000
#
# Coordination Sequence:
#
# PCOD8276764 Si02
#       4
#    16  16  16  16
#     4  11  20  36  59  90 120 153 196 247 303 357
#     4   9  16  34  57  85 122 147 184 252 304 344
#     4  10  20  37  64  90 115 159 206 245 298 362
#     4  10  23  43  60  83 123 163 204 251 292 350
#
# _framework density 23.522845
#
# number of rings (size 3 to 8) (size 9 to 14) (size 15 to 20)
#    0.000    2.000    5.000    1.500    0.000    8.000 
#    4.500    1.250    0.000    4.500    0.000    0.000 
#    0.000    0.000    0.000    0.000    0.000    0.000 
#
# Total GULP energy -396492.463380 kJ/mol
# GULP energy per Si atom -12390.389481 kJ/mol
# Density = 2.346931 g / cm^3
# Si number density = 23.522845 Si / 1000 Ang^3
#
#
#
# Elastic Constant Matrix: (Units=GPa)
#
#
# Indices 1 2 3 4 5 6 
#
# 1 26.4282 -5.9049 18.2158 0.0000 0.0000 0.0000
# 2 -5.9049 197.5070 85.7978 0.0000 0.0000 0.0000
# 3 18.2158 85.7978 167.9951 0.0000 0.0000 0.0000
# 4 0.0000 0.0000 0.0000 48.0124 0.0000 0.0000
# 5 0.0000 0.0000 0.0000 0.0000 8.8277 0.0000
# 6 0.0000 0.0000 0.0000 0.0000 0.0000 11.0212
#
#
#
# Elastic Compliance Matrix: (Units=1/GPa)
#
#
# Indices 1 2 3 4 5 6 
#
# 1 0.043576 0.004312 -0.006927 0.000000 0.000000 0.000000
# 2 0.004312 0.006933 -0.004009 0.000000 0.000000 0.000000
# 3 -0.006927 -0.004009 0.008751 0.000000 0.000000 0.000000
# 4 0.000000 0.000000 0.000000 0.020828 0.000000 0.000000
# 5 0.000000 0.000000 0.000000 0.000000 0.113280 0.000000
# 6 0.000000 0.000000 0.000000 0.000000 0.000000 0.090734
#
#
# Mechanical properties :
#
#
# Convention : Reuss Voigt Hill
#
# Bulk Modulus (GPa) = 21.73291 65.34974 43.54133
# Shear Modulus (GPa) = 15.99036 33.16036 24.57536
#
# Velocity S-wave (km/s) = 2.61009 3.75868 3.23576
# Velocity P-wave (km/s) = 4.28282 6.83218 5.70181
#
# Compressibility (1/GPa) = 0.04601317
#
# Stress axis : x y z
#
# Youngs Moduli (GPa) = 22.94821 144.23043 114.27395
#
# Poissons Ratio (x) = -0.62193 0.79160
# Poissons Ratio (y) = -0.09895 0.45807
# Poissons Ratio (z) = 0.15897 0.57815
#
# Static dielectric constant tensor:
#      x y z
#    x 3.925360 0.000000 0.000000 
#    y 0.000000 4.823230 0.000000 
#    z 0.000000 0.000000 4.600170 
# 
# 
# High freq. dielectric constant tensor:
#      x y z
#    x 1.878630 0.000000 0.000000 
#    y 0.000000 1.945430 0.000000 
#    z 0.000000 0.000000 1.936940 
# 
# From -- ./inp_files/37958.got.cif
#   From: 2010.03.12/outbox.cif.g09.slc.cpg/sg66_19_cif.got.tgz:37958.got - 2010.04.10 21:57:39.
