data_PCOD8276089
_publ_section_title
;
Structure prediction by ZEFSAII (Michael W. Deem and Ramdas Pophale) SiO2 
 PCOD8276089
Probable space group: C C C M
;
_chemical_formula_sum "Si O2"
_cell_formula_units_Z 64
_cell_length_a 8.511032
_cell_length_b 14.640291
_cell_length_c 24.556200
_cell_angle_alpha 90.000000
_cell_angle_beta 90.000000
_cell_angle_gamma 90.000000
_cell_volume 3059.800381
_symmetry_space_group_name_H-M "C C C M"
_symmetry_group_IT_number 66
_symmetry_cell_setting 'orthorhombic'
loop_
_space_group_symop_operation_xyz
x,y,z
-x,-y,z
x,-y,1/2-z
-x,y,1/2-z
-x,-y,-z
x,y,-z
-x,y,1/2+z
x,-y,1/2+z
1/2+x,1/2+y,z
1/2-x,1/2-y,z
1/2+x,1/2-y,1/2-z
1/2-x,1/2+y,1/2-z
1/2-x,1/2-y,-z
1/2+x,1/2+y,-z
1/2-x,1/2+y,1/2+z
1/2+x,1/2-y,1/2+z
loop_
_atom_site_type_symbol
_atom_site_label
_atom_site_fract_x
_atom_site_fract_y
_atom_site_fract_z
Si Si1 0.065961 0.254727 0.809915
Si Si2 0.935736 0.397901 0.602449
Si Si3 0.936826 0.101481 0.608414
Si Si4 0.923329 0.903323 0.500000
Si Si5 0.616485 0.167024 0.000000
O O1 0.250000 0.250000 0.805381
O O2 0.012689 0.345296 0.842578
O O3 0.008930 0.163379 0.840962
O O4 0.000000 0.258537 0.750000
O O5 0.748450 0.399260 0.597859
O O6 0.000000 0.500000 0.604521
O O7 0.006251 0.339225 0.552614
O O8 0.017436 0.147366 0.554739
O O9 0.000000 0.000000 0.619709
O O10 0.734937 0.919601 0.500000
O O11 0.000000 0.000000 0.500000
O O12 0.750000 0.250000 0.000000
#
# Coordination Sequence:
#
# PCOD8276089 Si02
#       5
#    16  16  16   8   8
#     4  10  24  42  61  85 118 159 205 252 303 361
#     4  11  23  40  62  91 123 158 202 251 303 364
#     4  10  21  40  63  90 122 161 201 249 308 369
#     4  10  19  34  58  87 118 153 189 233 292 356
#     4  12  24  38  61  93 125 161 198 247 307 362
#
# _framework density 20.916395999999999
#
# number of rings (size 3 to 8) (size 9 to 14) (size 15 to 20)
#    0.000    1.500    0.000    5.625    0.000    6.000 
#    0.000   10.000    0.000    0.000    0.000    0.000 
#    0.000    0.000    0.000    0.000    0.000    0.000 
#
# Total GULP energy -396562.957838 kJ/mol
# GULP energy per Si atom -12392.592432 kJ/mol
# Density = 2.086879 g / cm^3
# Si number density = 20.916396 Si / 1000 Ang^3
#
#
#
# Elastic Constant Matrix: (Units=GPa)
#
#
# Indices 1 2 3 4 5 6 
#
# 1 96.1728 32.9270 49.4141 0.0000 0.0000 0.0000
# 2 32.9270 123.6892 66.6992 0.0000 0.0000 0.0000
# 3 49.4141 66.6992 204.3389 0.0000 0.0000 0.0000
# 4 0.0000 0.0000 0.0000 145.6937 0.0000 0.0000
# 5 0.0000 0.0000 0.0000 0.0000 4.5362 0.0000
# 6 0.0000 0.0000 0.0000 0.0000 0.0000 30.5533
#
#
#
# Elastic Compliance Matrix: (Units=1/GPa)
#
#
# Indices 1 2 3 4 5 6 
#
# 1 0.012277 -0.002023 -0.002308 0.000000 0.000000 0.000000
# 2 -0.002023 0.010145 -0.002822 0.000000 0.000000 0.000000
# 3 -0.002308 -0.002822 0.006373 0.000000 0.000000 0.000000
# 4 0.000000 0.000000 0.000000 0.006864 0.000000 0.000000
# 5 0.000000 0.000000 0.000000 0.000000 0.220448 0.000000
# 6 0.000000 0.000000 0.000000 0.000000 0.000000 0.032730
#
#
# Mechanical properties :
#
#
# Convention : Reuss Voigt Hill
#
# Bulk Modulus (GPa) = 69.02591 80.25351 74.63971
# Shear Modulus (GPa) = 16.23513 54.50068 35.36790
#
# Velocity S-wave (km/s) = 2.78904 5.11009 4.11654
# Velocity P-wave (km/s) = 6.59122 8.55975 7.63916
#
# Compressibility (1/GPa) = 0.01448731
#
# Stress axis : x y z
#
# Youngs Moduli (GPa) = 81.45481 98.56749 156.90515
#
# Poissons Ratio (x) = 0.19944 0.36219
# Poissons Ratio (y) = 0.16481 0.44283
# Poissons Ratio (z) = 0.18803 0.27818
#
# Static dielectric constant tensor:
#      x y z
#    x 5.470860 0.000000 0.000000 
#    y 0.000000 4.200360 0.000000 
#    z 0.000000 0.000000 3.658610 
# 
# 
# High freq. dielectric constant tensor:
#      x y z
#    x 1.831310 0.000000 0.000000 
#    y 0.000000 1.833660 0.000000 
#    z 0.000000 0.000000 1.820440 
# 
# From -- ./inp_files/55006.got.cif
#   From: 2010.03.12/outbox.cif.g09.slc.cpg/sg66_28_cif.got.tgz:55006.got - 2010.04.10 21:57:39.
