data_PCOD8276608
_publ_section_title
;
Structure prediction by ZEFSAII (Michael W. Deem and Ramdas Pophale) SiO2 
 PCOD8276608
Probable space group: C C C M
;
_chemical_formula_sum "Si O2"
_cell_formula_units_Z 104
_cell_length_a 25.258482
_cell_length_b 22.917506
_cell_length_c 9.096336
_cell_angle_alpha 90.000000
_cell_angle_beta 90.000000
_cell_angle_gamma 90.000000
_cell_volume 5265.517908
_symmetry_space_group_name_H-M "C C C M"
_symmetry_group_IT_number 66
_symmetry_cell_setting 'orthorhombic'
loop_
_space_group_symop_operation_xyz
x,y,z
-x,-y,z
x,-y,1/2-z
-x,y,1/2-z
-x,-y,-z
x,y,-z
-x,y,1/2+z
x,-y,1/2+z
1/2+x,1/2+y,z
1/2-x,1/2-y,z
1/2+x,1/2-y,1/2-z
1/2-x,1/2+y,1/2-z
1/2-x,1/2-y,-z
1/2+x,1/2+y,-z
1/2-x,1/2+y,1/2+z
1/2+x,1/2-y,1/2+z
loop_
_atom_site_type_symbol
_atom_site_label
_atom_site_fract_x
_atom_site_fract_y
_atom_site_fract_z
Si Si1 0.424856 0.945779 0.661659
Si Si2 0.555840 0.333991 0.675617
Si Si3 0.765333 0.941301 0.669305
Si Si4 0.500000 0.150060 0.250000
Si Si5 0.905415 0.727313 0.664229
Si Si6 0.161832 0.379485 0.329581
Si Si7 0.884852 0.938672 0.675032
O O1 0.410456 0.967895 0.500000
O O2 0.465823 0.892180 0.645578
O O3 0.370769 0.926818 0.739272
O O4 0.450066 0.000000 0.750000
O O5 0.500000 0.320175 0.750000
O O6 0.551241 0.339460 0.500000
O O7 0.593497 0.279678 0.718338
O O8 0.577462 0.392855 0.746145
O O9 0.763943 0.958059 0.500000
O O10 0.724114 0.889101 0.705829
O O11 0.824366 0.920792 0.712453
O O12 0.748066 0.000000 0.750000
O O13 0.459885 0.190312 0.341701
O O14 0.896601 0.752842 0.500000
O O15 0.856079 0.686231 0.712112
O O16 0.149036 0.390201 0.500000
O O17 0.895782 0.940970 0.500000
O O18 0.898536 0.000000 0.750000
#
# Coordination Sequence:
#
# PCOD8276608 Si02
#       7
#    16  16  16   8  16  16  16
#     4  11  22  33  47  72 105 145 191 242 295 344
#     4  12  25  41  63  89 118 152 191 233 284 344
#     4   9  18  34  58  86 117 154 193 236 286 342
#     4  10  21  34  54  72 101 140 192 238 292 344
#     4  10  20  36  57  81 111 148 193 241 286 337
#     4   9  19  35  55  81 113 150 194 240 285 336
#     4  10  21  40  65  93 123 152 186 229 282 341
#
# _framework density 19.751142999999999
#
# number of rings (size 3 to 8) (size 9 to 14) (size 15 to 20)
#    0.000    1.846    0.769    3.462    0.000    7.692 
#    0.000    2.308    0.000    4.615    0.000    0.000 
#    0.000    0.000    0.000    0.000    0.000    0.000 
#
# Total GULP energy -644684.210128 kJ/mol
# GULP energy per Si atom -12397.773272 kJ/mol
# Density = 1.970619 g / cm^3
# Si number density = 19.751143 Si / 1000 Ang^3
#
#
#
# Elastic Constant Matrix: (Units=GPa)
#
#
# Indices 1 2 3 4 5 6 
#
# 1 46.1833 31.6038 26.3563 0.0000 0.0000 0.0000
# 2 31.6038 108.8160 53.3024 0.0000 0.0000 0.0000
# 3 26.3563 53.3024 121.6870 0.0000 0.0000 0.0000
# 4 0.0000 0.0000 0.0000 34.8527 0.0000 0.0000
# 5 0.0000 0.0000 0.0000 0.0000 20.5211 0.0000
# 6 0.0000 0.0000 0.0000 0.0000 0.0000 28.4085
#
#
#
# Elastic Compliance Matrix: (Units=1/GPa)
#
#
# Indices 1 2 3 4 5 6 
#
# 1 0.027959 -0.006562 -0.003181 0.000000 0.000000 0.000000
# 2 -0.006562 0.013240 -0.004378 0.000000 0.000000 0.000000
# 3 -0.003181 -0.004378 0.010825 0.000000 0.000000 0.000000
# 4 0.000000 0.000000 0.000000 0.028692 0.000000 0.000000
# 5 0.000000 0.000000 0.000000 0.000000 0.048730 0.000000
# 6 0.000000 0.000000 0.000000 0.000000 0.000000 0.035201
#
#
# Mechanical properties :
#
#
# Convention : Reuss Voigt Hill
#
# Bulk Modulus (GPa) = 42.05098 55.46790 48.75944
# Shear Modulus (GPa) = 24.89829 27.78471 26.34150
#
# Velocity S-wave (km/s) = 3.55434 3.75472 3.65591
# Velocity P-wave (km/s) = 6.17909 6.85139 6.52391
#
# Compressibility (1/GPa) = 0.02378066
#
# Stress axis : x y z
#
# Youngs Moduli (GPa) = 35.76697 75.52688 92.38112
#
# Poissons Ratio (x) = 0.49559 0.29390
# Poissons Ratio (y) = 0.23470 0.40448
# Poissons Ratio (z) = 0.11379 0.33069
#
# Static dielectric constant tensor:
#      x y z
#    x 3.687260 0.000000 0.000000 
#    y 0.000000 3.582180 0.000000 
#    z 0.000000 0.000000 3.541360 
# 
# 
# High freq. dielectric constant tensor:
#      x y z
#    x 1.759890 0.000000 0.000000 
#    y 0.000000 1.763890 0.000000 
#    z 0.000000 0.000000 1.770450 
# 
# From -- ./inp_files/10534.got.cif
#   From: 2010.03.12/outbox.cif.g09.slc.cpg/sg66_6_cif.got.tgz:10534.got - 2010.04.10 21:57:39.
