data_PCOD8276574
_publ_section_title
;
Structure prediction by ZEFSAII (Michael W. Deem and Ramdas Pophale) SiO2 
 PCOD8276574
Probable space group: C C C M
;
_chemical_formula_sum "Si O2"
_cell_formula_units_Z 64
_cell_length_a 8.482323
_cell_length_b 16.513402
_cell_length_c 23.660347
_cell_angle_alpha 90.000000
_cell_angle_beta 90.000000
_cell_angle_gamma 90.000000
_cell_volume 3314.152352
_symmetry_space_group_name_H-M "C C C M"
_symmetry_group_IT_number 66
_symmetry_cell_setting 'orthorhombic'
loop_
_space_group_symop_operation_xyz
x,y,z
-x,-y,z
x,-y,1/2-z
-x,y,1/2-z
-x,-y,-z
x,y,-z
-x,y,1/2+z
x,-y,1/2+z
1/2+x,1/2+y,z
1/2-x,1/2-y,z
1/2+x,1/2-y,1/2-z
1/2-x,1/2+y,1/2-z
1/2-x,1/2-y,-z
1/2+x,1/2+y,-z
1/2-x,1/2+y,1/2+z
1/2+x,1/2-y,1/2+z
loop_
_atom_site_type_symbol
_atom_site_label
_atom_site_fract_x
_atom_site_fract_y
_atom_site_fract_z
Si Si1 0.198521 0.659047 0.130895
Si Si2 0.895295 0.422832 0.650509
Si Si3 0.823910 0.904381 0.748540
Si Si4 0.320894 0.514568 0.934193
O O1 0.250000 0.750000 0.120094
O O2 0.244982 0.627896 0.192429
O O3 0.280787 0.606429 0.082287
O O4 0.009462 0.647978 0.127214
O O5 0.787342 0.381315 0.698670
O O6 0.787108 0.451187 0.598896
O O7 0.000000 0.500000 0.672727
O O8 0.000000 0.866128 0.750000
O O9 0.838309 0.000000 0.750000
O O10 0.500000 0.500000 0.916266
O O11 0.291409 0.500566 0.000000
#
# Coordination Sequence:
#
# PCOD8276574 Si02
#       4
#    16  16  16  16
#     4  11  24  37  57  91 122 151 191 246 306 346
#     4  10  20  35  60  84 116 154 199 242 285 357
#     4  11  20  34  58  84 118 158 196 234 287 355
#     4  10  21  40  64  85 110 155 206 243 287 358
#
# _framework density 19.311121
#
# number of rings (size 3 to 8) (size 9 to 14) (size 15 to 20)
#    0.000    1.500    5.000    2.250    0.000    7.000 
#    0.000    3.750    0.000    3.000    0.000    0.000 
#    0.000    0.000    0.000    0.000    0.000    0.000 
#
# Total GULP energy -396754.900023 kJ/mol
# GULP energy per Si atom -12398.590626 kJ/mol
# Density = 1.926717 g / cm^3
# Si number density = 19.311121 Si / 1000 Ang^3
#
#
#
# Elastic Constant Matrix: (Units=GPa)
#
#
# Indices 1 2 3 4 5 6 
#
# 1 170.0669 45.2579 56.9839 0.0000 0.0000 0.0000
# 2 45.2579 50.9066 -2.1011 0.0000 0.0000 0.0000
# 3 56.9839 -2.1011 60.7393 0.0000 0.0000 0.0000
# 4 0.0000 0.0000 0.0000 8.4512 0.0000 0.0000
# 5 0.0000 0.0000 0.0000 0.0000 36.5673 0.0000
# 6 0.0000 0.0000 0.0000 0.0000 0.0000 26.7102
#
#
#
# Elastic Compliance Matrix: (Units=1/GPa)
#
#
# Indices 1 2 3 4 5 6 
#
# 1 0.013750 -0.012775 -0.013342 0.000000 0.000000 0.000000
# 2 -0.012775 0.031541 0.013076 0.000000 0.000000 0.000000
# 3 -0.013342 0.013076 0.029433 0.000000 0.000000 0.000000
# 4 0.000000 0.000000 0.000000 0.118326 0.000000 0.000000
# 5 0.000000 0.000000 0.000000 0.000000 0.027347 0.000000
# 6 0.000000 0.000000 0.000000 0.000000 0.000000 0.037439
#
#
# Mechanical properties :
#
#
# Convention : Reuss Voigt Hill
#
# Bulk Modulus (GPa) = 20.55800 53.55490 37.05645
# Shear Modulus (GPa) = 16.65936 26.45054 21.55495
#
# Velocity S-wave (km/s) = 2.94033 3.70497 3.34457
# Velocity P-wave (km/s) = 4.71128 6.78935 5.84343
#
# Compressibility (1/GPa) = 0.04864286
#
# Stress axis : x y z
#
# Youngs Moduli (GPa) = 72.72645 31.70475 33.97531
#
# Poissons Ratio (x) = 0.40503 0.45330
# Poissons Ratio (y) = 0.92908 -0.44427
# Poissons Ratio (z) = 0.97031 -0.41458
#
# Static dielectric constant tensor:
#      x y z
#    x 4.410250 0.000000 0.000000 
#    y 0.000000 2.869860 0.000000 
#    z 0.000000 0.000000 3.331840 
# 
# 
# High freq. dielectric constant tensor:
#      x y z
#    x 1.779790 0.000000 0.000000 
#    y 0.000000 1.714030 0.000000 
#    z 0.000000 0.000000 1.747110 
# 
# From -- ./inp_files/46577.got.cif
#   From: 2010.03.12/outbox.cif.g09.slc.cpg/sg66_24_cif.got.tgz:46577.got - 2010.04.10 21:57:39.
