data_PCOD8276864
_publ_section_title
;
Structure prediction by ZEFSAII (Michael W. Deem and Ramdas Pophale) SiO2 
 PCOD8276864
Probable space group: C C C M
;
_chemical_formula_sum "Si O2"
_cell_formula_units_Z 80
_cell_length_a 12.220433
_cell_length_b 21.693240
_cell_length_c 13.984375
_cell_angle_alpha 90.000000
_cell_angle_beta 90.000000
_cell_angle_gamma 90.000000
_cell_volume 3707.268804
_symmetry_space_group_name_H-M "C C C M"
_symmetry_group_IT_number 66
_symmetry_cell_setting 'orthorhombic'
loop_
_space_group_symop_operation_xyz
x,y,z
-x,-y,z
x,-y,1/2-z
-x,y,1/2-z
-x,-y,-z
x,y,-z
-x,y,1/2+z
x,-y,1/2+z
1/2+x,1/2+y,z
1/2-x,1/2-y,z
1/2+x,1/2-y,1/2-z
1/2-x,1/2+y,1/2-z
1/2-x,1/2-y,-z
1/2+x,1/2+y,-z
1/2-x,1/2+y,1/2+z
1/2+x,1/2-y,1/2+z
loop_
_atom_site_type_symbol
_atom_site_label
_atom_site_fract_x
_atom_site_fract_y
_atom_site_fract_z
Si Si1 0.875644 0.732773 0.607788
Si Si2 0.379979 0.112817 0.731458
Si Si3 0.792477 0.952494 0.389315
Si Si4 0.523777 0.639769 0.612729
Si Si5 0.291870 0.595673 0.388576
O O1 0.912438 0.714124 0.500000
O O2 0.750000 0.750000 0.606544
O O3 0.897633 0.678327 0.681078
O O4 0.942265 0.792073 0.644693
O O5 0.500000 0.084901 0.750000
O O6 0.319425 0.064927 0.662940
O O7 0.312358 0.120618 0.830143
O O8 0.775130 0.937290 0.500000
O O9 0.891549 0.911354 0.346137
O O10 0.815429 0.023772 0.370739
O O11 0.524596 0.631429 0.500000
O O12 0.400901 0.629371 0.650611
O O13 0.268953 0.609547 0.500000
#
# Coordination Sequence:
#
# PCOD8276864 Si02
#       5
#    16  16  16  16  16
#     4  10  20  40  68  95 124 165 217 268 319 382
#     4  12  26  40  59  90 132 177 225 261 311 379
#     4  10  20  40  68  95 124 163 212 270 330 387
#     4   9  18  38  68  98 125 156 206 270 336 391
#     4  10  23  41  64  96 132 165 206 268 333 385
#
# _framework density 21.579228000000001
#
# number of rings (size 3 to 8) (size 9 to 14) (size 15 to 20)
#    0.000    1.800    2.000    1.800    0.000    8.000 
#    0.000    4.000    0.000    4.200    0.000    0.000 
#    0.000    0.000    0.000    0.000    0.000    0.000 
#
# Total GULP energy -496068.658722 kJ/mol
# GULP energy per Si atom -12401.716468 kJ/mol
# Density = 2.153011 g / cm^3
# Si number density = 21.579228 Si / 1000 Ang^3
#
#
#
# Elastic Constant Matrix: (Units=GPa)
#
#
# Indices 1 2 3 4 5 6 
#
# 1 169.2280 45.0080 56.1411 0.0000 0.0000 0.0000
# 2 45.0080 82.4524 55.5645 0.0000 0.0000 0.0000
# 3 56.1411 55.5645 89.5065 0.0000 0.0000 0.0000
# 4 0.0000 0.0000 0.0000 -19.9449 0.0000 0.0000
# 5 0.0000 0.0000 0.0000 0.0000 29.0887 0.0000
# 6 0.0000 0.0000 0.0000 0.0000 0.0000 32.1524
#
#
#
# Elastic Compliance Matrix: (Units=1/GPa)
#
#
# Indices 1 2 3 4 5 6 
#
# 1 0.007584 -0.001606 -0.003760 0.000000 0.000000 0.000000
# 2 -0.001606 0.021191 -0.012148 0.000000 0.000000 0.000000
# 3 -0.003760 -0.012148 0.021072 0.000000 0.000000 0.000000
# 4 0.000000 0.000000 0.000000 -0.050138 0.000000 0.000000
# 5 0.000000 0.000000 0.000000 0.000000 0.034378 0.000000
# 6 0.000000 0.000000 0.000000 0.000000 0.000000 0.031102
#
#
# Mechanical properties :
#
#
# Convention : Reuss Voigt Hill
#
# Bulk Modulus (GPa) = 67.47867 72.73491 70.10679
# Shear Modulus (GPa) = 47.54867 20.55746 34.05306
#
# Velocity S-wave (km/s) = 4.69918 3.08985 3.97678
# Velocity P-wave (km/s) = 7.79623 6.81973 7.32427
#
# Compressibility (1/GPa) = 0.01481950
#
# Stress axis : x y z
#
# Youngs Moduli (GPa) = 131.86383 47.18896 47.45661
#
# Poissons Ratio (x) = 0.07578 0.17842
# Poissons Ratio (y) = 0.21177 0.57650
# Poissons Ratio (z) = 0.49576 0.57325
#
# Static dielectric constant tensor:
#      x y z
#    x 4.075810 0.000000 0.000000 
#    y 0.000000 3.539900 0.000000 
#    z 0.000000 0.000000 4.075060 
# 
# 
# High freq. dielectric constant tensor:
#      x y z
#    x 1.844030 0.000000 0.000000 
#    y 0.000000 1.842990 0.000000 
#    z 0.000000 0.000000 1.857350 
# 
# From -- ./inp_files/26423.got.cif
#   From: 2010.03.12/outbox.cif.g09.slc.cpg/sg66_14_cif.got.tgz:26423.got - 2010.04.10 21:57:39.
