data_PCOD8276304
_publ_section_title
;
Structure prediction by ZEFSAII (Michael W. Deem and Ramdas Pophale) SiO2 
 PCOD8276304
Probable space group: C C C M
;
_chemical_formula_sum "Si O2"
_cell_formula_units_Z 68
_cell_length_a 18.930606
_cell_length_b 6.822772
_cell_length_c 29.502689
_cell_angle_alpha 90.000000
_cell_angle_beta 90.000000
_cell_angle_gamma 90.000000
_cell_volume 3810.543962
_symmetry_space_group_name_H-M "C C C M"
_symmetry_group_IT_number 66
_symmetry_cell_setting 'orthorhombic'
loop_
_space_group_symop_operation_xyz
x,y,z
-x,-y,z
x,-y,1/2-z
-x,y,1/2-z
-x,-y,-z
x,y,-z
-x,y,1/2+z
x,-y,1/2+z
1/2+x,1/2+y,z
1/2-x,1/2-y,z
1/2+x,1/2-y,1/2-z
1/2-x,1/2+y,1/2-z
1/2-x,1/2-y,-z
1/2+x,1/2+y,-z
1/2-x,1/2+y,1/2+z
1/2+x,1/2-y,1/2+z
loop_
_atom_site_type_symbol
_atom_site_label
_atom_site_fract_x
_atom_site_fract_y
_atom_site_fract_z
Si Si1 0.570532 0.376374 0.210471
Si Si2 0.928194 0.590253 0.449689
Si Si3 0.082297 0.946981 0.888449
Si Si4 0.169089 0.771109 0.449491
Si Si5 0.500000 0.000000 0.250000
O O1 0.500000 0.500000 0.204194
O O2 0.612949 0.500000 0.250000
O O3 0.609973 0.394355 0.162321
O O4 0.551412 0.146727 0.221138
O O5 0.946255 0.671640 0.500000
O O6 0.900794 0.760626 0.418287
O O7 0.863857 0.442318 0.452044
O O8 0.000000 0.500000 0.428734
O O9 0.128651 0.118639 0.909508
O O10 0.000000 0.000000 0.890518
O O11 0.162372 0.869587 0.500000
O O12 0.250000 0.750000 0.435069
#
# Coordination Sequence:
#
# PCOD8276304 Si02
#       5
#    16  16  16  16   4
#     4   8  17  29  46  75 108 136 170 218 272 321
#     4  10  20  32  51  80 108 139 181 218 260 314
#     4  11  20  31  55  81 108 140 181 224 268 315
#     4  10  22  38  53  76 113 149 178 218 266 316
#     4   8  14  28  44  66 110 140 154 216 284 316
#
# _framework density 17.845220000000001
#
# number of rings (size 3 to 8) (size 9 to 14) (size 15 to 20)
#    0.000    2.588    2.353    0.706    1.647    3.765 
#    0.000    3.529    0.000    0.000    6.118    0.000 
#    0.000    0.000    0.000    0.000    0.000    0.000 
#
# Total GULP energy -421198.056013 kJ/mol
# GULP energy per Si atom -12388.178118 kJ/mol
# Density = 1.780460 g / cm^3
# Si number density = 17.845220 Si / 1000 Ang^3
#
#
#
# Elastic Constant Matrix: (Units=GPa)
#
#
# Indices 1 2 3 4 5 6 
#
# 1 80.4999 17.2504 26.9367 0.0000 0.0000 0.0000
# 2 17.2504 99.1350 59.6315 0.0000 0.0000 0.0000
# 3 26.9367 59.6315 145.0920 0.0000 0.0000 0.0000
# 4 0.0000 0.0000 0.0000 40.3737 0.0000 0.0000
# 5 0.0000 0.0000 0.0000 0.0000 71.8602 0.0000
# 6 0.0000 0.0000 0.0000 0.0000 0.0000 14.9658
#
#
#
# Elastic Compliance Matrix: (Units=1/GPa)
#
#
# Indices 1 2 3 4 5 6 
#
# 1 0.013336 -0.001104 -0.002022 0.000000 0.000000 0.000000
# 2 -0.001104 0.013491 -0.005340 0.000000 0.000000 0.000000
# 3 -0.002022 -0.005340 0.009462 0.000000 0.000000 0.000000
# 4 0.000000 0.000000 0.000000 0.024769 0.000000 0.000000
# 5 0.000000 0.000000 0.000000 0.000000 0.013916 0.000000
# 6 0.000000 0.000000 0.000000 0.000000 0.000000 0.066819
#
#
# Mechanical properties :
#
#
# Convention : Reuss Voigt Hill
#
# Bulk Modulus (GPa) = 51.66067 59.15155 55.40611
# Shear Modulus (GPa) = 30.27052 40.16716 35.21884
#
# Velocity S-wave (km/s) = 4.12306 4.74947 4.44731
# Velocity P-wave (km/s) = 7.18877 7.95586 7.58202
#
# Compressibility (1/GPa) = 0.01935708
#
# Stress axis : x y z
#
# Youngs Moduli (GPa) = 74.98726 74.12122 105.68388
#
# Poissons Ratio (x) = 0.08185 0.21369
# Poissons Ratio (y) = 0.08281 0.56433
# Poissons Ratio (z) = 0.15162 0.39579
#
# Static dielectric constant tensor:
#      x y z
#    x 2.879320 0.000000 0.000000 
#    y 0.000000 3.328930 0.000000 
#    z 0.000000 0.000000 4.470540 
# 
# 
# High freq. dielectric constant tensor:
#      x y z
#    x 1.642230 0.000000 0.000000 
#    y 0.000000 1.693380 0.000000 
#    z 0.000000 0.000000 1.701000 
# 
# From -- ./inp_files/67083.got.cif
#   From: 2010.03.12/outbox.cif.g09.slc.cpg/sg66_34_cif.got.tgz:67083.got - 2010.04.10 21:57:39.
