data_PCOD8276411
_publ_section_title
;
Structure prediction by ZEFSAII (Michael W. Deem and Ramdas Pophale) SiO2 
 PCOD8276411
Probable space group: C C C M
;
_chemical_formula_sum "Si O2"
_cell_formula_units_Z 96
_cell_length_a 20.933677
_cell_length_b 9.841916
_cell_length_c 24.869243
_cell_angle_alpha 90.000000
_cell_angle_beta 90.000000
_cell_angle_gamma 90.000000
_cell_volume 5123.747729
_symmetry_space_group_name_H-M "C C C M"
_symmetry_group_IT_number 66
_symmetry_cell_setting 'orthorhombic'
loop_
_space_group_symop_operation_xyz
x,y,z
-x,-y,z
x,-y,1/2-z
-x,y,1/2-z
-x,-y,-z
x,y,-z
-x,y,1/2+z
x,-y,1/2+z
1/2+x,1/2+y,z
1/2-x,1/2-y,z
1/2+x,1/2-y,1/2-z
1/2-x,1/2+y,1/2-z
1/2-x,1/2-y,-z
1/2+x,1/2+y,-z
1/2-x,1/2+y,1/2+z
1/2+x,1/2-y,1/2+z
loop_
_atom_site_type_symbol
_atom_site_label
_atom_site_fract_x
_atom_site_fract_y
_atom_site_fract_z
Si Si1 0.942419 0.401653 0.062451
Si Si2 0.849263 0.469145 0.152885
Si Si3 0.876654 0.224182 0.674332
Si Si4 0.001007 0.152729 0.380788
Si Si5 0.899123 0.211923 0.204865
Si Si6 0.212774 0.013477 0.312209
O O1 0.878359 0.447129 0.093521
O O2 0.963075 0.247952 0.076300
O O3 0.000000 0.500000 0.080028
O O4 0.926450 0.413523 0.000000
O O5 0.855881 0.620940 0.174445
O O6 0.887559 0.371124 0.193509
O O7 0.773537 0.439710 0.152616
O O8 0.906903 0.185068 0.732004
O O9 0.928343 0.200364 0.627742
O O10 0.814940 0.128888 0.665064
O O11 0.036932 0.159274 0.323579
O O12 0.000000 0.000000 0.403746
O O13 0.839837 0.129549 0.180271
O O14 0.233945 0.000000 0.250000
#
# Coordination Sequence:
#
# PCOD8276411 Si02
#       6
#    16  16  16  16  16  16
#     4  10  22  42  63  81 103 136 185 245 303 336
#     4  11  21  35  56  81 109 146 189 231 268 328
#     4  11  20  33  52  85 116 154 186 217 263 322
#     4  11  21  36  57  84 112 145 186 231 277 328
#     4  10  21  32  53  81 120 156 184 215 262 323
#     4  10  20  34  53  80 119 161 185 208 259 328
#
# _framework density 18.736286
#
# number of rings (size 3 to 8) (size 9 to 14) (size 15 to 20)
#    0.000    1.500    3.333    3.000    0.000    3.667 
#    0.000    1.667    0.000   11.000    0.000    0.000 
#    0.000    0.000    0.000    0.000    0.000    0.000 
#
# Total GULP energy -595355.325733 kJ/mol
# GULP energy per Si atom -12403.235953 kJ/mol
# Density = 1.869364 g / cm^3
# Si number density = 18.736286 Si / 1000 Ang^3
#
#
#
# Elastic Constant Matrix: (Units=GPa)
#
#
# Indices 1 2 3 4 5 6 
#
# 1 100.8541 23.5112 31.1479 0.0000 0.0000 0.0000
# 2 23.5112 113.6794 11.3403 0.0000 0.0000 0.0000
# 3 31.1479 11.3403 55.2429 0.0000 0.0000 0.0000
# 4 0.0000 0.0000 0.0000 18.2029 0.0000 0.0000
# 5 0.0000 0.0000 0.0000 0.0000 25.4261 0.0000
# 6 0.0000 0.0000 0.0000 0.0000 0.0000 29.2150
#
#
#
# Elastic Compliance Matrix: (Units=1/GPa)
#
#
# Indices 1 2 3 4 5 6 
#
# 1 0.012398 -0.001906 -0.006599 0.000000 0.000000 0.000000
# 2 -0.001906 0.009274 -0.000829 0.000000 0.000000 0.000000
# 3 -0.006599 -0.000829 0.021993 0.000000 0.000000 0.000000
# 4 0.000000 0.000000 0.000000 0.054936 0.000000 0.000000
# 5 0.000000 0.000000 0.000000 0.000000 0.039330 0.000000
# 6 0.000000 0.000000 0.000000 0.000000 0.000000 0.034229
#
#
# Mechanical properties :
#
#
# Convention : Reuss Voigt Hill
#
# Bulk Modulus (GPa) = 40.00615 44.64170 42.32393
# Shear Modulus (GPa) = 25.10559 28.15393 26.62976
#
# Velocity S-wave (km/s) = 3.66450 3.88060 3.77409
# Velocity P-wave (km/s) = 6.26923 6.62999 6.45213
#
# Compressibility (1/GPa) = 0.02499616
#
# Stress axis : x y z
#
# Youngs Moduli (GPa) = 80.66048 107.83379 45.46933
#
# Poissons Ratio (x) = 0.20551 0.30005
# Poissons Ratio (y) = 0.15372 0.03770
# Poissons Ratio (z) = 0.53228 0.08941
#
# Static dielectric constant tensor:
#      x y z
#    x 3.459520 0.000000 0.000000 
#    y 0.000000 3.626490 0.000000 
#    z 0.000000 0.000000 3.009180 
# 
# 
# High freq. dielectric constant tensor:
#      x y z
#    x 1.731160 0.000000 0.000000 
#    y 0.000000 1.749660 0.000000 
#    z 0.000000 0.000000 1.679940 
# 
# From -- ./inp_files/55625.got.cif
#   From: 2010.03.12/outbox.cif.g09.slc.cpg/sg66_28_cif.got.tgz:55625.got - 2010.04.10 21:57:39.
