data_PCOD8276362
_publ_section_title
;
Structure prediction by ZEFSAII (Michael W. Deem and Ramdas Pophale) SiO2 
 PCOD8276362
Probable space group: C C C M
;
_chemical_formula_sum "Si O2"
_cell_formula_units_Z 88
_cell_length_a 18.980444
_cell_length_b 9.375751
_cell_length_c 25.535849
_cell_angle_alpha 90.000000
_cell_angle_beta 90.000000
_cell_angle_gamma 90.000000
_cell_volume 4544.255420
_symmetry_space_group_name_H-M "C C C M"
_symmetry_group_IT_number 66
_symmetry_cell_setting 'orthorhombic'
loop_
_space_group_symop_operation_xyz
x,y,z
-x,-y,z
x,-y,1/2-z
-x,y,1/2-z
-x,-y,-z
x,y,-z
-x,y,1/2+z
x,-y,1/2+z
1/2+x,1/2+y,z
1/2-x,1/2-y,z
1/2+x,1/2-y,1/2-z
1/2-x,1/2+y,1/2-z
1/2-x,1/2-y,-z
1/2+x,1/2+y,-z
1/2-x,1/2+y,1/2+z
1/2+x,1/2-y,1/2+z
loop_
_atom_site_type_symbol
_atom_site_label
_atom_site_fract_x
_atom_site_fract_y
_atom_site_fract_z
Si Si1 0.874784 0.389701 0.702723
Si Si2 0.182184 0.842092 0.118649
Si Si3 0.776215 0.593686 0.104956
Si Si4 0.109864 0.391761 0.559501
Si Si5 0.679185 0.341572 0.232716
Si Si6 0.000000 0.500000 0.363132
O O1 0.865804 0.500000 0.750000
O O2 0.808681 0.407688 0.663303
O O3 0.875618 0.230804 0.726841
O O4 0.948796 0.406763 0.673124
O O5 0.250000 0.750000 0.131048
O O6 0.141131 0.764979 0.071617
O O7 0.142667 0.842615 0.174938
O O8 0.204582 0.001301 0.102432
O O9 0.750000 0.750000 0.086721
O O10 0.834571 0.522085 0.066868
O O11 0.083253 0.394392 0.500000
O O12 0.044676 0.398984 0.598937
O O13 0.697366 0.500000 0.250000
O O14 0.750000 0.250000 0.235176
#
# Coordination Sequence:
#
# PCOD8276362 Si02
#       6
#    16  16  16  16  16   8
#     4  11  20  33  55  81 112 152 186 218 267 328
#     4   9  18  31  50  81 112 137 172 213 260 323
#     4  10  20  33  53  85 117 139 168 219 277 334
#     4  10  21  38  59  77 100 140 187 234 279 324
#     4  11  19  30  53  86 119 147 173 209 268 336
#     4  10  22  38  56  76 102 140 196 242 270 314
#
# _framework density 19.365107999999999
#
# number of rings (size 3 to 8) (size 9 to 14) (size 15 to 20)
#    0.000    1.818    0.000    8.182    0.000    3.636 
#    0.000    0.000    0.000   24.000    0.000   12.727 
#    0.000    0.000    0.000    0.000    0.000    0.000 
#
# Total GULP energy -545307.856751 kJ/mol
# GULP energy per Si atom -12393.360381 kJ/mol
# Density = 1.932103 g / cm^3
# Si number density = 19.365108 Si / 1000 Ang^3
#
#
#
# Elastic Constant Matrix: (Units=GPa)
#
#
# Indices 1 2 3 4 5 6 
#
# 1 73.0936 42.1054 27.0787 0.0000 0.0000 0.0000
# 2 42.1054 149.7303 37.7971 0.0000 0.0000 0.0000
# 3 27.0787 37.7971 99.2069 0.0000 0.0000 0.0000
# 4 0.0000 0.0000 0.0000 8.8118 0.0000 0.0000
# 5 0.0000 0.0000 0.0000 0.0000 34.9941 0.0000
# 6 0.0000 0.0000 0.0000 0.0000 0.0000 14.2005
#
#
#
# Elastic Compliance Matrix: (Units=1/GPa)
#
#
# Indices 1 2 3 4 5 6 
#
# 1 0.017172 -0.004034 -0.003150 0.000000 0.000000 0.000000
# 2 -0.004034 0.008337 -0.002075 0.000000 0.000000 0.000000
# 3 -0.003150 -0.002075 0.011730 0.000000 0.000000 0.000000
# 4 0.000000 0.000000 0.000000 0.113484 0.000000 0.000000
# 5 0.000000 0.000000 0.000000 0.000000 0.028576 0.000000
# 6 0.000000 0.000000 0.000000 0.000000 0.000000 0.070420
#
#
# Mechanical properties :
#
#
# Convention : Reuss Voigt Hill
#
# Bulk Modulus (GPa) = 53.41681 59.55479 56.48580
# Shear Modulus (GPa) = 18.21636 25.93790 22.07713
#
# Velocity S-wave (km/s) = 3.07038 3.66377 3.38012
# Velocity P-wave (km/s) = 6.34142 6.97983 6.66827
#
# Compressibility (1/GPa) = 0.01872070
#
# Stress axis : x y z
#
# Youngs Moduli (GPa) = 58.23539 119.94971 85.24794
#
# Poissons Ratio (x) = 0.48383 0.26855
# Poissons Ratio (y) = 0.23490 0.17691
# Poissons Ratio (z) = 0.18346 0.24893
#
# Static dielectric constant tensor:
#      x y z
#    x 3.575760 0.000000 0.000000 
#    y 0.000000 4.757570 0.000000 
#    z 0.000000 0.000000 3.583530 
# 
# 
# High freq. dielectric constant tensor:
#      x y z
#    x 1.718960 0.000000 0.000000 
#    y 0.000000 1.748770 0.000000 
#    z 0.000000 0.000000 1.758300 
# 
# From -- ./inp_files/59381.got.cif
#   From: 2010.03.12/outbox.cif.g09.slc.cpg/sg66_30_cif.got.tgz:59381.got - 2010.04.10 21:57:39.
