data_PCOD8276273
_publ_section_title
;
Structure prediction by ZEFSAII (Michael W. Deem and Ramdas Pophale) SiO2 
 PCOD8276273
Probable space group: C C C M
;
_chemical_formula_sum "Si O2"
_cell_formula_units_Z 88
_cell_length_a 29.132579
_cell_length_b 19.707887
_cell_length_c 8.889165
_cell_angle_alpha 90.000000
_cell_angle_beta 90.000000
_cell_angle_gamma 90.000000
_cell_volume 5103.639193
_symmetry_space_group_name_H-M "C C C M"
_symmetry_group_IT_number 66
_symmetry_cell_setting 'orthorhombic'
loop_
_space_group_symop_operation_xyz
x,y,z
-x,-y,z
x,-y,1/2-z
-x,y,1/2-z
-x,-y,-z
x,y,-z
-x,y,1/2+z
x,-y,1/2+z
1/2+x,1/2+y,z
1/2-x,1/2-y,z
1/2+x,1/2-y,1/2-z
1/2-x,1/2+y,1/2-z
1/2-x,1/2-y,-z
1/2+x,1/2+y,-z
1/2-x,1/2+y,1/2+z
1/2+x,1/2-y,1/2+z
loop_
_atom_site_type_symbol
_atom_site_label
_atom_site_fract_x
_atom_site_fract_y
_atom_site_fract_z
Si Si1 0.250000 0.750000 0.250889
Si Si2 0.690017 0.432357 0.176875
Si Si3 0.222248 0.389218 0.163713
Si Si4 0.450887 0.929456 0.820243
Si Si5 0.875504 0.660398 0.822514
Si Si6 0.655204 0.709658 0.334485
O O1 0.239971 0.687240 0.359993
O O2 0.292897 0.735625 0.142595
O O3 0.668423 0.500000 0.250000
O O4 0.744010 0.427806 0.222421
O O5 0.659171 0.367701 0.230020
O O6 0.687899 0.438651 0.000000
O O7 0.169623 0.383978 0.222015
O O8 0.224185 0.425154 0.000000
O O9 0.500000 0.911569 0.750000
O O10 0.416924 0.869541 0.773700
O O11 0.432708 0.000000 0.750000
O O12 0.454344 0.935468 0.000000
O O13 0.871488 0.740199 0.778567
O O14 0.885137 0.656004 0.000000
O O15 0.631787 0.710496 0.500000
#
# Coordination Sequence:
#
# PCOD8276273 Si02
#       6
#     8  16  16  16  16  16
#     4   8  14  24  42  62  84 114 152 192 234 282
#     4  10  20  31  44  62  90 127 167 206 246 289
#     4   9  17  28  43  62  87 118 155 196 236 277
#     4  11  22  38  58  77 100 127 155 189 231 283
#     4  10  20  33  50  73  97 124 159 198 239 285
#     4   9  17  29  45  66  90 121 159 200 243 284
#
# _framework density 17.242598000000001
#
# number of rings (size 3 to 8) (size 9 to 14) (size 15 to 20)
#    0.000    2.364    0.000    3.818    0.000   10.909 
#    0.000    0.000    0.000    0.000    0.000    0.000 
#    0.000    0.727    0.000    7.636    0.000    4.182 
#
# Total GULP energy -545193.276687 kJ/mol
# GULP energy per Si atom -12390.756288 kJ/mol
# Density = 1.720335 g / cm^3
# Si number density = 17.242598 Si / 1000 Ang^3
#
#
#
# Elastic Constant Matrix: (Units=GPa)
#
#
# Indices 1 2 3 4 5 6 
#
# 1 56.7663 38.7325 31.5995 0.0000 0.0000 0.0000
# 2 38.7325 109.6057 41.1981 0.0000 0.0000 0.0000
# 3 31.5995 41.1981 102.5225 0.0000 0.0000 0.0000
# 4 0.0000 0.0000 0.0000 25.5480 0.0000 0.0000
# 5 0.0000 0.0000 0.0000 0.0000 19.4970 0.0000
# 6 0.0000 0.0000 0.0000 0.0000 0.0000 22.6678
#
#
#
# Elastic Compliance Matrix: (Units=1/GPa)
#
#
# Indices 1 2 3 4 5 6 
#
# 1 0.025162 -0.007040 -0.004926 0.000000 0.000000 0.000000
# 2 -0.007040 0.012717 -0.002940 0.000000 0.000000 0.000000
# 3 -0.004926 -0.002940 0.012454 0.000000 0.000000 0.000000
# 4 0.000000 0.000000 0.000000 0.039142 0.000000 0.000000
# 5 0.000000 0.000000 0.000000 0.000000 0.051290 0.000000
# 6 0.000000 0.000000 0.000000 0.000000 0.000000 0.044115
#
#
# Mechanical properties :
#
#
# Convention : Reuss Voigt Hill
#
# Bulk Modulus (GPa) = 48.73507 54.66161 51.69834
# Shear Modulus (GPa) = 22.57003 24.03353 23.30178
#
# Velocity S-wave (km/s) = 3.62189 3.73748 3.68014
# Velocity P-wave (km/s) = 6.76879 7.09896 6.93584
#
# Compressibility (1/GPa) = 0.02051910
#
# Stress axis : x y z
#
# Youngs Moduli (GPa) = 39.74256 78.63751 80.29628
#
# Poissons Ratio (x) = 0.55361 0.39557
# Poissons Ratio (y) = 0.27979 0.23609
# Poissons Ratio (z) = 0.19579 0.23121
#
# Static dielectric constant tensor:
#      x y z
#    x 2.885260 0.000000 0.000000 
#    y 0.000000 3.411080 0.000000 
#    z 0.000000 0.000000 3.119210 
# 
# 
# High freq. dielectric constant tensor:
#      x y z
#    x 1.612790 0.000000 0.000000 
#    y 0.000000 1.665970 0.000000 
#    z 0.000000 0.000000 1.674150 
# 
# From -- ./inp_files/8981.got.cif
#   From: 2010.03.12/outbox.cif.g09.slc.cpg/sg66_5_cif.got.tgz:8981.got - 2010.04.10 21:57:39.
