data_PCOD8276985
_publ_section_title
;
Structure prediction by ZEFSAII (Michael W. Deem and Ramdas Pophale) SiO2 
 PCOD8276985
Probable space group: C C C M
;
_chemical_formula_sum "Si O2"
_cell_formula_units_Z 92
_cell_length_a 20.690470
_cell_length_b 7.532025
_cell_length_c 29.267614
_cell_angle_alpha 90.000000
_cell_angle_beta 90.000000
_cell_angle_gamma 90.000000
_cell_volume 4561.098252
_symmetry_space_group_name_H-M "C C C M"
_symmetry_group_IT_number 66
_symmetry_cell_setting 'orthorhombic'
loop_
_space_group_symop_operation_xyz
x,y,z
-x,-y,z
x,-y,1/2-z
-x,y,1/2-z
-x,-y,-z
x,y,-z
-x,y,1/2+z
x,-y,1/2+z
1/2+x,1/2+y,z
1/2-x,1/2-y,z
1/2+x,1/2-y,1/2-z
1/2-x,1/2+y,1/2-z
1/2-x,1/2-y,-z
1/2+x,1/2+y,-z
1/2-x,1/2+y,1/2+z
1/2+x,1/2-y,1/2+z
loop_
_atom_site_type_symbol
_atom_site_label
_atom_site_fract_x
_atom_site_fract_y
_atom_site_fract_z
Si Si1 0.697544 0.604066 0.052990
Si Si2 0.500000 0.000000 0.250000
Si Si3 0.870056 0.315039 0.849068
Si Si4 0.087769 0.672077 0.321211
Si Si5 0.323591 0.706485 0.247308
Si Si6 0.070859 0.029440 0.891567
Si Si7 0.750000 0.250000 0.907595
O O1 0.750000 0.750000 0.071746
O O2 0.626818 0.616193 0.076687
O O3 0.724533 0.406477 0.060089
O O4 0.685574 0.640563 0.000000
O O5 0.538124 0.137499 0.281034
O O6 0.906188 0.503178 0.854971
O O7 0.864473 0.284075 0.794817
O O8 0.802013 0.333943 0.873857
O O9 0.909955 0.163178 0.873797
O O10 0.156232 0.709267 0.295953
O O11 0.062038 0.840057 0.348928
O O12 0.336674 0.500000 0.250000
O O13 0.250000 0.750000 0.238024
O O14 0.000000 0.000000 0.915542
#
# Coordination Sequence:
#
# PCOD8276985 Si02
#       7
#    16   4  16  16  16  16   8
#     4  10  22  43  70  99 124 157 202 258 330 396
#     4  12  24  36  58  80 114 174 212 262 294 356
#     4  11  21  39  56  87 119 164 212 259 311 370
#     4  12  24  39  57  82 123 168 216 260 306 355
#     4  12  23  37  56  85 121 166 217 268 311 360
#     4  11  25  41  62  91 127 167 209 261 319 389
#     4  10  21  36  66  92 126 154 200 254 317 384
#
# _framework density 20.170580999999999
#
# number of rings (size 3 to 8) (size 9 to 14) (size 15 to 20)
#    0.000    0.870    4.348    3.391    0.000    1.043 
#    0.000    0.000    0.000    0.000    0.000   10.348 
#    0.000    0.000    0.000    0.000    0.000    0.000 
#
# Total GULP energy -570341.289098 kJ/mol
# GULP energy per Si atom -12398.723676 kJ/mol
# Density = 2.012467 g / cm^3
# Si number density = 20.170581 Si / 1000 Ang^3
#
#
#
# Elastic Constant Matrix: (Units=GPa)
#
#
# Indices 1 2 3 4 5 6 
#
# 1 131.3161 32.9780 38.2815 0.0000 0.0000 0.0000
# 2 32.9780 87.7942 21.9923 0.0000 0.0000 0.0000
# 3 38.2815 21.9923 70.2596 0.0000 0.0000 0.0000
# 4 0.0000 0.0000 0.0000 27.4431 0.0000 0.0000
# 5 0.0000 0.0000 0.0000 0.0000 22.0978 0.0000
# 6 0.0000 0.0000 0.0000 0.0000 0.0000 25.1007
#
#
#
# Elastic Compliance Matrix: (Units=1/GPa)
#
#
# Indices 1 2 3 4 5 6 
#
# 1 0.009523 -0.002471 -0.004415 0.000000 0.000000 0.000000
# 2 -0.002471 0.013001 -0.002723 0.000000 0.000000 0.000000
# 3 -0.004415 -0.002723 0.017491 0.000000 0.000000 0.000000
# 4 0.000000 0.000000 0.000000 0.036439 0.000000 0.000000
# 5 0.000000 0.000000 0.000000 0.000000 0.045253 0.000000
# 6 0.000000 0.000000 0.000000 0.000000 0.000000 0.039840
#
#
# Mechanical properties :
#
#
# Convention : Reuss Voigt Hill
#
# Bulk Modulus (GPa) = 48.08629 52.87485 50.48057
# Shear Modulus (GPa) = 26.63870 28.00284 27.32077
#
# Velocity S-wave (km/s) = 3.63805 3.73003 3.68433
# Velocity P-wave (km/s) = 6.44506 6.69489 6.57116
#
# Compressibility (1/GPa) = 0.02079595
#
# Stress axis : x y z
#
# Youngs Moduli (GPa) = 105.00999 76.91954 57.17256
#
# Poissons Ratio (x) = 0.19008 0.25243
# Poissons Ratio (y) = 0.25949 0.15568
# Poissons Ratio (z) = 0.46363 0.20945
#
# Static dielectric constant tensor:
#      x y z
#    x 3.867010 0.000000 0.000000 
#    y 0.000000 3.795090 0.000000 
#    z 0.000000 0.000000 3.440660 
# 
# 
# High freq. dielectric constant tensor:
#      x y z
#    x 1.795410 0.000000 0.000000 
#    y 0.000000 1.805200 0.000000 
#    z 0.000000 0.000000 1.762490 
# 
# From -- ./inp_files/70163.got.cif
#   From: 2010.03.12/outbox.cif.g09.slc.cpg/sg66_36_cif.got.tgz:70163.got - 2010.04.10 21:57:39.
