data_PCOD8276514
_publ_section_title
;
Structure prediction by ZEFSAII (Michael W. Deem and Ramdas Pophale) SiO2 
 PCOD8276514
Probable space group: C C C M
;
_chemical_formula_sum "Si O2"
_cell_formula_units_Z 96
_cell_length_a 10.246628
_cell_length_b 28.086614
_cell_length_c 18.178529
_cell_angle_alpha 90.000000
_cell_angle_beta 90.000000
_cell_angle_gamma 90.000000
_cell_volume 5231.654950
_symmetry_space_group_name_H-M "C C C M"
_symmetry_group_IT_number 66
_symmetry_cell_setting 'orthorhombic'
loop_
_space_group_symop_operation_xyz
x,y,z
-x,-y,z
x,-y,1/2-z
-x,y,1/2-z
-x,-y,-z
x,y,-z
-x,y,1/2+z
x,-y,1/2+z
1/2+x,1/2+y,z
1/2-x,1/2-y,z
1/2+x,1/2-y,1/2-z
1/2-x,1/2+y,1/2-z
1/2-x,1/2-y,-z
1/2+x,1/2+y,-z
1/2-x,1/2+y,1/2+z
1/2+x,1/2-y,1/2+z
loop_
_atom_site_type_symbol
_atom_site_label
_atom_site_fract_x
_atom_site_fract_y
_atom_site_fract_z
Si Si1 0.493806 0.888150 0.836514
Si Si2 0.254038 0.052877 0.160337
Si Si3 0.593267 0.800031 0.087023
Si Si4 0.886888 0.804899 0.086855
Si Si5 0.509289 0.596245 0.913476
Si Si6 0.761652 0.942589 0.670198
O O1 0.500000 0.881414 0.750000
O O2 0.612447 0.921361 0.863788
O O3 0.495870 0.836567 0.874285
O O4 0.357966 0.911689 0.860373
O O5 0.141610 0.068385 0.104491
O O6 0.214265 0.066356 0.243467
O O7 0.275462 0.996768 0.153542
O O8 0.739387 0.810630 0.116841
O O9 0.553199 0.746097 0.110906
O O10 0.582337 0.806577 0.000000
O O11 0.976489 0.848732 0.113726
O O12 0.874296 0.805761 0.000000
O O13 0.391887 0.571834 0.871353
O O14 0.482776 0.593169 0.000000
#
# Coordination Sequence:
#
# PCOD8276514 Si02
#       6
#    16  16  16  16  16  16
#     4  10  20  35  56  80 107 136 178 224 266 307
#     4  10  20  38  57  73 102 148 186 207 252 328
#     4   9  16  32  57  79 101 138 183 218 254 315
#     4   8  16  31  55  80 101 135 179 214 253 315
#     4  11  21  35  55  81 108 136 175 224 267 307
#     4  10  22  36  53  78 109 141 174 218 269 317
#
# _framework density 18.349833
#
# number of rings (size 3 to 8) (size 9 to 14) (size 15 to 20)
#    0.000    2.333    1.667    2.500    0.000    5.333 
#    0.000    2.500    0.000    6.000    0.000    0.000 
#    0.000    0.000    0.000    0.000    0.000    0.000 
#
# Total GULP energy -595160.052065 kJ/mol
# GULP energy per Si atom -12399.167751 kJ/mol
# Density = 1.830807 g / cm^3
# Si number density = 18.349833 Si / 1000 Ang^3
#
#
#
# Elastic Constant Matrix: (Units=GPa)
#
#
# Indices 1 2 3 4 5 6 
#
# 1 73.1842 25.6026 16.5700 0.0000 0.0000 0.0000
# 2 25.6026 105.6316 17.5396 0.0000 0.0000 0.0000
# 3 16.5700 17.5396 25.0858 0.0000 0.0000 0.0000
# 4 0.0000 0.0000 0.0000 28.4359 0.0000 0.0000
# 5 0.0000 0.0000 0.0000 0.0000 12.7457 0.0000
# 6 0.0000 0.0000 0.0000 0.0000 0.0000 24.8799
#
#
#
# Elastic Compliance Matrix: (Units=1/GPa)
#
#
# Indices 1 2 3 4 5 6 
#
# 1 0.016629 -0.002496 -0.009239 0.000000 0.000000 0.000000
# 2 -0.002496 0.011085 -0.006102 0.000000 0.000000 0.000000
# 3 -0.009239 -0.006102 0.050232 0.000000 0.000000 0.000000
# 4 0.000000 0.000000 0.000000 0.035167 0.000000 0.000000
# 5 0.000000 0.000000 0.000000 0.000000 0.078458 0.000000
# 6 0.000000 0.000000 0.000000 0.000000 0.000000 0.040193
#
#
# Mechanical properties :
#
#
# Convention : Reuss Voigt Hill
#
# Bulk Modulus (GPa) = 23.65591 35.92511 29.79051
# Shear Modulus (GPa) = 17.76021 22.82493 20.29257
#
# Velocity S-wave (km/s) = 3.11443 3.53069 3.32907
# Velocity P-wave (km/s) = 5.08454 6.02008 5.57198
#
# Compressibility (1/GPa) = 0.04227274
#
# Stress axis : x y z
#
# Youngs Moduli (GPa) = 60.13487 90.21134 19.90772
#
# Poissons Ratio (x) = 0.22521 0.18392
# Poissons Ratio (y) = 0.15013 0.12147
# Poissons Ratio (z) = 0.55557 0.55043
#
# Static dielectric constant tensor:
#      x y z
#    x 3.328640 0.000000 0.000000 
#    y 0.000000 3.764550 0.000000 
#    z 0.000000 0.000000 3.141420 
# 
# 
# High freq. dielectric constant tensor:
#      x y z
#    x 1.699580 0.000000 0.000000 
#    y 0.000000 1.729860 0.000000 
#    z 0.000000 0.000000 1.687180 
# 
# From -- ./inp_files/47295.got.cif
#   From: 2010.03.12/outbox.cif.g09.slc.cpg/sg66_24_cif.got.tgz:47295.got - 2010.04.10 21:57:39.
