data_PCOD8276548
_publ_section_title
;
Structure prediction by ZEFSAII (Michael W. Deem and Ramdas Pophale) SiO2 
 PCOD8276548
Probable space group: C C C M
;
_chemical_formula_sum "Si O2"
_cell_formula_units_Z 64
_cell_length_a 8.575485
_cell_length_b 22.035246
_cell_length_c 15.270869
_cell_angle_alpha 90.000000
_cell_angle_beta 90.000000
_cell_angle_gamma 90.000000
_cell_volume 2885.628021
_symmetry_space_group_name_H-M "C C C M"
_symmetry_group_IT_number 66
_symmetry_cell_setting 'orthorhombic'
loop_
_space_group_symop_operation_xyz
x,y,z
-x,-y,z
x,-y,1/2-z
-x,y,1/2-z
-x,-y,-z
x,y,-z
-x,y,1/2+z
x,-y,1/2+z
1/2+x,1/2+y,z
1/2-x,1/2-y,z
1/2+x,1/2-y,1/2-z
1/2-x,1/2+y,1/2-z
1/2-x,1/2-y,-z
1/2+x,1/2+y,-z
1/2-x,1/2+y,1/2+z
1/2+x,1/2-y,1/2+z
loop_
_atom_site_type_symbol
_atom_site_label
_atom_site_fract_x
_atom_site_fract_y
_atom_site_fract_z
Si Si1 0.922330 0.777371 0.598968
Si Si2 0.593057 0.836995 0.837224
Si Si3 0.844771 0.885761 0.721589
Si Si4 0.406275 0.941126 0.901834
O O1 0.960198 0.797214 0.500000
O O2 0.750000 0.750000 0.605753
O O3 0.920534 0.834964 0.660016
O O4 0.060040 0.730991 0.628719
O O5 0.500000 0.849563 0.750000
O O6 0.769517 0.852911 0.808155
O O7 0.525925 0.884578 0.907764
O O8 0.731859 0.930022 0.667507
O O9 0.000000 0.923337 0.750000
O O10 0.500000 0.000000 0.869323
O O11 0.338310 0.950700 0.000000
#
# Coordination Sequence:
#
# PCOD8276548 Si02
#       4
#    16  16  16  16
#     4  11  20  34  59  89 129 172 210 251 310 381
#     4  10  20  35  57  89 123 166 212 252 305 374
#     4  11  24  38  61  95 132 165 209 264 320 383
#     4  10  21  41  66  88 116 161 215 265 320 379
#
# _framework density 22.178881000000001
#
# number of rings (size 3 to 8) (size 9 to 14) (size 15 to 20)
#    0.000    1.500    5.000    2.250    0.000    4.500 
#    0.000    8.750    0.000    3.000    0.000    0.000 
#    0.000    0.000    0.000    0.000    0.000    0.000 
#
# Total GULP energy -396497.008338 kJ/mol
# GULP energy per Si atom -12390.531511 kJ/mol
# Density = 2.212840 g / cm^3
# Si number density = 22.178881 Si / 1000 Ang^3
#
#
#
# Elastic Constant Matrix: (Units=GPa)
#
#
# Indices 1 2 3 4 5 6 
#
# 1 147.0182 35.4979 58.1411 0.0000 0.0000 0.0000
# 2 35.4979 98.4094 24.4060 0.0000 0.0000 0.0000
# 3 58.1411 24.4060 92.0299 0.0000 0.0000 0.0000
# 4 0.0000 0.0000 0.0000 16.6033 0.0000 0.0000
# 5 0.0000 0.0000 0.0000 0.0000 12.0038 0.0000
# 6 0.0000 0.0000 0.0000 0.0000 0.0000 23.1333
#
#
#
# Elastic Compliance Matrix: (Units=1/GPa)
#
#
# Indices 1 2 3 4 5 6 
#
# 1 0.009443 -0.002062 -0.005419 0.000000 0.000000 0.000000
# 2 -0.002062 0.011327 -0.001701 0.000000 0.000000 0.000000
# 3 -0.005419 -0.001701 0.014740 0.000000 0.000000 0.000000
# 4 0.000000 0.000000 0.000000 0.060229 0.000000 0.000000
# 5 0.000000 0.000000 0.000000 0.000000 0.083307 0.000000
# 6 0.000000 0.000000 0.000000 0.000000 0.000000 0.043228
#
#
# Mechanical properties :
#
#
# Convention : Reuss Voigt Hill
#
# Bulk Modulus (GPa) = 58.32094 63.72749 61.02422
# Shear Modulus (GPa) = 20.29598 24.97558 22.63578
#
# Velocity S-wave (km/s) = 3.02835 3.35938 3.19815
# Velocity P-wave (km/s) = 6.21133 6.62141 6.41964
#
# Compressibility (1/GPa) = 0.01714650
#
# Stress axis : x y z
#
# Youngs Moduli (GPa) = 105.90156 88.28137 67.84042
#
# Poissons Ratio (x) = 0.18206 0.36760
# Poissons Ratio (y) = 0.21840 0.11540
# Poissons Ratio (z) = 0.57384 0.15018
#
# Static dielectric constant tensor:
#      x y z
#    x 4.608340 0.000000 0.000000 
#    y 0.000000 3.767060 0.000000 
#    z 0.000000 0.000000 4.517190 
# 
# 
# High freq. dielectric constant tensor:
#      x y z
#    x 1.868610 0.000000 0.000000 
#    y 0.000000 1.850840 0.000000 
#    z 0.000000 0.000000 1.878790 
# 
# From -- ./inp_files/24168.got.cif
#   From: 2010.03.12/outbox.cif.g09.slc.cpg/sg66_13_cif.got.tgz:24168.got - 2010.04.10 21:57:39.
