data_PCOD8276602
_publ_section_title
;
Structure prediction by ZEFSAII (Michael W. Deem and Ramdas Pophale) SiO2 
 PCOD8276602
Probable space group: C C C M
;
_chemical_formula_sum "Si O2"
_cell_formula_units_Z 60
_cell_length_a 24.167910
_cell_length_b 5.135404
_cell_length_c 28.002577
_cell_angle_alpha 90.000000
_cell_angle_beta 90.000000
_cell_angle_gamma 90.000000
_cell_volume 3475.455324
_symmetry_space_group_name_H-M "C C C M"
_symmetry_group_IT_number 66
_symmetry_cell_setting 'orthorhombic'
loop_
_space_group_symop_operation_xyz
x,y,z
-x,-y,z
x,-y,1/2-z
-x,y,1/2-z
-x,-y,-z
x,y,-z
-x,y,1/2+z
x,-y,1/2+z
1/2+x,1/2+y,z
1/2-x,1/2-y,z
1/2+x,1/2-y,1/2-z
1/2-x,1/2+y,1/2-z
1/2-x,1/2-y,-z
1/2+x,1/2+y,-z
1/2-x,1/2+y,1/2+z
1/2+x,1/2-y,1/2+z
loop_
_atom_site_type_symbol
_atom_site_label
_atom_site_fract_x
_atom_site_fract_y
_atom_site_fract_z
Si Si1 0.033680 0.260320 0.658794
Si Si2 0.000000 0.500000 0.750000
Si Si3 0.537986 0.250284 0.000000
Si Si4 0.623057 0.283116 0.914823
Si Si5 0.314468 0.787110 0.444196
O O1 0.038380 0.317423 0.715960
O O2 0.095183 0.240425 0.637310
O O3 0.000000 0.500000 0.634340
O O4 0.000000 0.000000 0.647952
O O5 0.500000 0.500000 0.000000
O O6 0.575232 0.249685 0.953295
O O7 0.500000 0.000000 0.000000
O O8 0.651875 0.561985 0.917938
O O9 0.669288 0.063029 0.921710
O O10 0.329435 0.780813 0.500000
O O11 0.250000 0.750000 0.435387
#
# Coordination Sequence:
#
# PCOD8276602 Si02
#       5
#    16   4   8  16  16
#     4  10  20  36  56  81 116 141 180 218 269 339
#     4   8  22  36  58  82 114 140 178 220 274 342
#     4  12  22  32  47  76 115 150 178 204 260 324
#     4  12  21  36  54  80 110 153 184 224 276 317
#     4  11  22  38  55  77 111 151 197 235 263 311
#
# _framework density 17.263925
#
# number of rings (size 3 to 8) (size 9 to 14) (size 15 to 20)
#    0.800    0.267    2.667    6.000    0.000    2.133 
#    0.000    0.000    0.000    0.000    0.000    3.733 
#    0.000    0.000    0.000    0.000    0.000    0.000 
#
# Total GULP energy -371989.137688 kJ/mol
# GULP energy per Si atom -12399.637923 kJ/mol
# Density = 1.722463 g / cm^3
# Si number density = 17.263925 Si / 1000 Ang^3
#
#
#
# Elastic Constant Matrix: (Units=GPa)
#
#
# Indices 1 2 3 4 5 6 
#
# 1 76.8987 23.5066 37.5666 0.0000 0.0000 0.0000
# 2 23.5066 89.7973 3.5006 0.0000 0.0000 0.0000
# 3 37.5666 3.5006 87.1832 0.0000 0.0000 0.0000
# 4 0.0000 0.0000 0.0000 10.4383 0.0000 0.0000
# 5 0.0000 0.0000 0.0000 0.0000 17.7249 0.0000
# 6 0.0000 0.0000 0.0000 0.0000 0.0000 41.9942
#
#
#
# Elastic Compliance Matrix: (Units=1/GPa)
#
#
# Indices 1 2 3 4 5 6 
#
# 1 0.018079 -0.004436 -0.007612 0.000000 0.000000 0.000000
# 2 -0.004436 0.012242 0.001420 0.000000 0.000000 0.000000
# 3 -0.007612 0.001420 0.014693 0.000000 0.000000 0.000000
# 4 0.000000 0.000000 0.000000 0.095801 0.000000 0.000000
# 5 0.000000 0.000000 0.000000 0.000000 0.056418 0.000000
# 6 0.000000 0.000000 0.000000 0.000000 0.000000 0.023813
#
#
# Mechanical properties :
#
#
# Convention : Reuss Voigt Hill
#
# Bulk Modulus (GPa) = 42.09113 42.55854 42.32483
# Shear Modulus (GPa) = 19.98244 26.65186 23.31715
#
# Velocity S-wave (km/s) = 3.40585 3.93337 3.67908
# Velocity P-wave (km/s) = 6.31667 6.73304 6.52817
#
# Compressibility (1/GPa) = 0.02375797
#
# Stress axis : x y z
#
# Youngs Moduli (GPa) = 55.31398 81.68592 68.05976
#
# Poissons Ratio (x) = 0.36234 0.51806
# Poissons Ratio (y) = 0.24536 -0.09663
# Poissons Ratio (z) = 0.42104 -0.11598
#
# Static dielectric constant tensor:
#      x y z
#    x 3.224000 0.000000 0.000000 
#    y 0.000000 3.442440 0.000000 
#    z 0.000000 0.000000 3.128380 
# 
# 
# High freq. dielectric constant tensor:
#      x y z
#    x 1.656090 0.000000 0.000000 
#    y 0.000000 1.692850 0.000000 
#    z 0.000000 0.000000 1.642330 
# 
# From -- ./inp_files/67139.got.cif
#   From: 2010.03.12/outbox.cif.g09.slc.cpg/sg66_34_cif.got.tgz:67139.got - 2010.04.10 21:57:39.
