data_PCOD8276290
_publ_section_title
;
Structure prediction by ZEFSAII (Michael W. Deem and Ramdas Pophale) SiO2 
 PCOD8276290
Probable space group: C C C M
;
_chemical_formula_sum "Si O2"
_cell_formula_units_Z 128
_cell_length_a 16.667762
_cell_length_b 17.793306
_cell_length_c 23.486876
_cell_angle_alpha 90.000000
_cell_angle_beta 90.000000
_cell_angle_gamma 90.000000
_cell_volume 6965.610611
_symmetry_space_group_name_H-M "C C C M"
_symmetry_group_IT_number 66
_symmetry_cell_setting 'orthorhombic'
loop_
_space_group_symop_operation_xyz
x,y,z
-x,-y,z
x,-y,1/2-z
-x,y,1/2-z
-x,-y,-z
x,y,-z
-x,y,1/2+z
x,-y,1/2+z
1/2+x,1/2+y,z
1/2-x,1/2-y,z
1/2+x,1/2-y,1/2-z
1/2-x,1/2+y,1/2-z
1/2-x,1/2-y,-z
1/2+x,1/2+y,-z
1/2-x,1/2+y,1/2+z
1/2+x,1/2-y,1/2+z
loop_
_atom_site_type_symbol
_atom_site_label
_atom_site_fract_x
_atom_site_fract_y
_atom_site_fract_z
Si Si1 0.321751 0.199283 0.178421
Si Si2 0.570200 0.767571 0.617021
Si Si3 0.195814 0.176895 0.436977
Si Si4 0.739153 0.412172 0.752323
Si Si5 0.683066 0.095450 0.870159
Si Si6 0.087571 0.516305 0.563359
Si Si7 0.588231 0.299900 0.240333
Si Si8 0.598123 0.191948 0.564257
O O1 0.250000 0.250000 0.200247
O O2 0.293199 0.115318 0.198072
O O3 0.397976 0.234379 0.212048
O O4 0.331546 0.207576 0.110095
O O5 0.605943 0.699965 0.579165
O O6 0.616090 0.846088 0.608011
O O7 0.583669 0.744071 0.681496
O O8 0.480759 0.775605 0.594131
O O9 0.197317 0.144401 0.500000
O O10 0.250000 0.250000 0.428818
O O11 0.229827 0.111192 0.397384
O O12 0.715413 0.500000 0.750000
O O13 0.802614 0.401065 0.803221
O O14 0.656503 0.364755 0.759338
O O15 0.653453 0.014697 0.892600
O O16 0.097369 0.479794 0.500000
O O17 0.095699 0.604066 0.557803
O O18 0.000000 0.500000 0.588838
O O19 0.500000 0.336914 0.250000
O O20 0.612368 0.226340 0.500000
#
# Coordination Sequence:
#
# PCOD8276290 Si02
#       8
#    16  16  16  16  16  16  16  16
#     4  10  22  38  59  82 110 146 186 235 287 334
#     4  11  19  32  54  83 110 144 187 231 281 333
#     4   9  18  28  46  78 112 144 181 224 274 328
#     4  11  23  38  58  85 114 149 192 237 286 346
#     4  11  19  32  55  76 115 153 186 229 271 333
#     4  10  20  32  47  74 114 156 187 216 265 328
#     4  11  21  38  62  83 112 145 186 240 294 340
#     4  11  22  36  55  79 111 149 192 237 277 334
#
# _framework density 18.375992
#
# number of rings (size 3 to 8) (size 9 to 14) (size 15 to 20)
#    0.000    1.500    5.000    1.500    0.000    1.500 
#    0.000    0.000    0.000    0.000    0.000    0.000 
#    0.000    3.250    0.000    0.000    0.000    0.000 
#
# Total GULP energy -792926.880554 kJ/mol
# GULP energy per Si atom -12389.482509 kJ/mol
# Density = 1.833417 g / cm^3
# Si number density = 18.375992 Si / 1000 Ang^3
#
#
#
# Elastic Constant Matrix: (Units=GPa)
#
#
# Indices 1 2 3 4 5 6 
#
# 1 82.7962 31.1722 30.9918 0.0000 0.0000 0.0000
# 2 31.1722 66.4826 27.0398 0.0000 0.0000 0.0000
# 3 30.9918 27.0398 118.5114 0.0000 0.0000 0.0000
# 4 0.0000 0.0000 0.0000 22.4874 0.0000 0.0000
# 5 0.0000 0.0000 0.0000 0.0000 30.7766 0.0000
# 6 0.0000 0.0000 0.0000 0.0000 0.0000 24.4056
#
#
#
# Elastic Compliance Matrix: (Units=1/GPa)
#
#
# Indices 1 2 3 4 5 6 
#
# 1 0.015370 -0.006142 -0.002618 0.000000 0.000000 0.000000
# 2 -0.006142 0.019034 -0.002737 0.000000 0.000000 0.000000
# 3 -0.002618 -0.002737 0.009747 0.000000 0.000000 0.000000
# 4 0.000000 0.000000 0.000000 0.044469 0.000000 0.000000
# 5 0.000000 0.000000 0.000000 0.000000 0.032492 0.000000
# 6 0.000000 0.000000 0.000000 0.000000 0.000000 0.040974
#
#
# Mechanical properties :
#
#
# Convention : Reuss Voigt Hill
#
# Bulk Modulus (GPa) = 47.26303 49.57751 48.42027
# Shear Modulus (GPa) = 26.02350 27.43965 26.73158
#
# Velocity S-wave (km/s) = 3.76728 3.86843 3.81819
# Velocity P-wave (km/s) = 6.68574 6.85500 6.77090
#
# Compressibility (1/GPa) = 0.02115819
#
# Stress axis : x y z
#
# Youngs Moduli (GPa) = 65.06083 52.53633 102.59466
#
# Poissons Ratio (x) = 0.32267 0.26860
# Poissons Ratio (y) = 0.39960 0.28078
# Poissons Ratio (z) = 0.17034 0.14378
#
# Static dielectric constant tensor:
#      x y z
#    x 4.497700 0.000000 0.000000 
#    y 0.000000 3.174720 0.000000 
#    z 0.000000 0.000000 3.636040 
# 
# 
# High freq. dielectric constant tensor:
#      x y z
#    x 1.704290 0.000000 0.000000 
#    y 0.000000 1.684620 0.000000 
#    z 0.000000 0.000000 1.724920 
# 
# From -- ./inp_files/51318.got.cif
#   From: 2010.03.12/outbox.cif.g09.slc.cpg/sg66_26_cif.got.tgz:51318.got - 2010.04.10 21:57:39.
