data_PCOD8276211
_publ_section_title
;
Structure prediction by ZEFSAII (Michael W. Deem and Ramdas Pophale) SiO2 
 PCOD8276211
Probable space group: C C C M
;
_chemical_formula_sum "Si O2"
_cell_formula_units_Z 96
_cell_length_a 30.492432
_cell_length_b 8.989471
_cell_length_c 18.739721
_cell_angle_alpha 90.000000
_cell_angle_beta 90.000000
_cell_angle_gamma 90.000000
_cell_volume 5136.760537
_symmetry_space_group_name_H-M "C C C M"
_symmetry_group_IT_number 66
_symmetry_cell_setting 'orthorhombic'
loop_
_space_group_symop_operation_xyz
x,y,z
-x,-y,z
x,-y,1/2-z
-x,y,1/2-z
-x,-y,-z
x,y,-z
-x,y,1/2+z
x,-y,1/2+z
1/2+x,1/2+y,z
1/2-x,1/2-y,z
1/2+x,1/2-y,1/2-z
1/2-x,1/2+y,1/2-z
1/2-x,1/2-y,-z
1/2+x,1/2+y,-z
1/2-x,1/2+y,1/2+z
1/2+x,1/2-y,1/2+z
loop_
_atom_site_type_symbol
_atom_site_label
_atom_site_fract_x
_atom_site_fract_y
_atom_site_fract_z
Si Si1 0.989690 0.833071 0.667274
Si Si2 0.436866 0.802998 0.581819
Si Si3 0.110113 0.205293 0.683388
Si Si4 0.628324 0.629317 0.836828
Si Si5 0.136446 0.457391 0.418399
Si Si6 0.699258 0.222450 0.419122
O O1 0.939354 0.791462 0.654621
O O2 0.000000 0.826298 0.750000
O O3 0.018196 0.707337 0.626866
O O4 0.000000 0.000000 0.638608
O O5 0.450686 0.796094 0.500000
O O6 0.407081 0.660693 0.601288
O O7 0.407667 0.948621 0.598525
O O8 0.113473 0.231148 0.768718
O O9 0.138401 0.322189 0.637649
O O10 0.131096 0.044271 0.675559
O O11 0.676559 0.671203 0.862279
O O12 0.134895 0.398079 0.500000
O O13 0.180787 0.554749 0.407079
O O14 0.687307 0.269425 0.500000
O O15 0.750000 0.250000 0.404350
#
# Coordination Sequence:
#
# PCOD8276211 Si02
#       6
#    16  16  16  16  16  16
#     4  11  19  36  54  77 112 154 201 243 274 334
#     4  10  20  35  53  78 110 148 197 240 278 334
#     4  11  21  35  57  81 116 151 189 239 291 329
#     4  10  19  37  56  83 111 148 189 231 281 346
#     4   9  21  38  56  84 119 147 185 243 295 340
#     4   9  19  39  64  84 109 147 185 228 286 354
#
# _framework density 18.68882
#
# number of rings (size 3 to 8) (size 9 to 14) (size 15 to 20)
#    0.000    2.000    3.333    2.500    0.000    5.667 
#    0.000    6.667    0.000    3.000    0.000    0.000 
#    0.000    0.000    0.000    0.000    0.000    0.000 
#
# Total GULP energy -594945.510768 kJ/mol
# GULP energy per Si atom -12394.698141 kJ/mol
# Density = 1.864628 g / cm^3
# Si number density = 18.688820 Si / 1000 Ang^3
#
#
#
# Elastic Constant Matrix: (Units=GPa)
#
#
# Indices 1 2 3 4 5 6 
#
# 1 125.8647 43.4556 54.1820 0.0000 0.0000 0.0000
# 2 43.4556 77.0913 53.0642 0.0000 0.0000 0.0000
# 3 54.1820 53.0642 82.9732 0.0000 0.0000 0.0000
# 4 0.0000 0.0000 0.0000 25.4636 0.0000 0.0000
# 5 0.0000 0.0000 0.0000 0.0000 30.8830 0.0000
# 6 0.0000 0.0000 0.0000 0.0000 0.0000 19.9992
#
#
#
# Elastic Compliance Matrix: (Units=1/GPa)
#
#
# Indices 1 2 3 4 5 6 
#
# 1 0.011276 -0.002300 -0.005892 0.000000 0.000000 0.000000
# 2 -0.002300 0.023642 -0.013617 0.000000 0.000000 0.000000
# 3 -0.005892 -0.013617 0.024608 0.000000 0.000000 0.000000
# 4 0.000000 0.000000 0.000000 0.039272 0.000000 0.000000
# 5 0.000000 0.000000 0.000000 0.000000 0.032380 0.000000
# 6 0.000000 0.000000 0.000000 0.000000 0.000000 0.050002
#
#
# Mechanical properties :
#
#
# Convention : Reuss Voigt Hill
#
# Bulk Modulus (GPa) = 62.86879 65.25919 64.06399
# Shear Modulus (GPa) = 21.72958 24.28432 23.00695
#
# Velocity S-wave (km/s) = 3.41354 3.60863 3.51244
# Velocity P-wave (km/s) = 7.01778 7.23586 7.12765
#
# Compressibility (1/GPa) = 0.01590614
#
# Stress axis : x y z
#
# Youngs Moduli (GPa) = 88.68737 42.29819 40.63662
#
# Poissons Ratio (x) = 0.09730 0.23942
# Poissons Ratio (y) = 0.20402 0.55337
# Poissons Ratio (z) = 0.52253 0.57600
#
# Static dielectric constant tensor:
#      x y z
#    x 3.371060 0.000000 0.000000 
#    y 0.000000 3.273040 0.000000 
#    z 0.000000 0.000000 3.592000 
# 
# 
# High freq. dielectric constant tensor:
#      x y z
#    x 1.714690 0.000000 0.000000 
#    y 0.000000 1.707050 0.000000 
#    z 0.000000 0.000000 1.731640 
# 
# From -- ./inp_files/52966.got.cif
#   From: 2010.03.12/outbox.cif.g09.slc.cpg/sg66_27_cif.got.tgz:52966.got - 2010.04.10 21:57:39.
