data_PCOD8276316
_publ_section_title
;
Structure prediction by ZEFSAII (Michael W. Deem and Ramdas Pophale) SiO2 
 PCOD8276316
Probable space group: C C C M
;
_chemical_formula_sum "Si O2"
_cell_formula_units_Z 92
_cell_length_a 9.160884
_cell_length_b 26.308004
_cell_length_c 19.123864
_cell_angle_alpha 90.000000
_cell_angle_beta 90.000000
_cell_angle_gamma 90.000000
_cell_volume 4608.938676
_symmetry_space_group_name_H-M "C C C M"
_symmetry_group_IT_number 66
_symmetry_cell_setting 'orthorhombic'
loop_
_space_group_symop_operation_xyz
x,y,z
-x,-y,z
x,-y,1/2-z
-x,y,1/2-z
-x,-y,-z
x,y,-z
-x,y,1/2+z
x,-y,1/2+z
1/2+x,1/2+y,z
1/2-x,1/2-y,z
1/2+x,1/2-y,1/2-z
1/2-x,1/2+y,1/2-z
1/2-x,1/2-y,-z
1/2+x,1/2+y,-z
1/2-x,1/2+y,1/2+z
1/2+x,1/2-y,1/2+z
loop_
_atom_site_type_symbol
_atom_site_label
_atom_site_fract_x
_atom_site_fract_y
_atom_site_fract_z
Si Si1 0.889997 0.845212 0.000000
Si Si2 0.879181 0.917858 0.349157
Si Si3 0.000000 0.000000 0.250000
Si Si4 0.855245 0.357254 0.230261
Si Si5 0.942947 0.056522 0.000000
Si Si6 0.919463 0.246461 0.000000
Si Si7 0.577923 0.238790 0.149326
Si Si8 0.122059 0.166377 0.153097
O O1 0.812180 0.829245 0.073410
O O2 0.919438 0.905319 0.000000
O O3 0.043211 0.814043 0.000000
O O4 0.737755 0.886491 0.327058
O O5 0.850013 0.934395 0.429347
O O6 0.895460 0.966583 0.299352
O O7 0.024561 0.884226 0.341501
O O8 0.942995 0.310009 0.196141
O O9 0.757284 0.338609 0.294992
O O10 0.000000 0.390926 0.250000
O O11 0.000000 0.000000 0.000000
O O12 0.750000 0.250000 0.000000
O O13 0.979063 0.272921 0.929693
O O14 0.750000 0.250000 0.149920
O O15 0.478893 0.285984 0.176614
#
# Coordination Sequence:
#
# PCOD8276316 Si02
#       8
#     8  16   4  16   8   8  16  16
#     4   8  18  34  58  81 112 157 192 254 309 356
#     4  11  22  39  63  91 121 156 203 259 315 370
#     4  12  20  38  70  92 116 158 194 256 320 364
#     4  12  26  37  56  91 127 168 206 252 306 371
#     4  10  20  34  61  97 116 143 207 265 311 371
#     4   8  16  32  49  82 117 150 195 243 303 365
#     4  10  20  32  59  86 117 159 202 253 308 359
#     4  10  20  39  59  86 121 156 209 255 304 370
#
# _framework density 19.961210000000001
#
# number of rings (size 3 to 8) (size 9 to 14) (size 15 to 20)
#    0.000    1.739    4.348    0.000    4.870    0.000 
#    0.000    2.174    0.000    3.130    0.000    3.652 
#    0.000    0.000    0.000    0.000    0.000    0.000 
#
# Total GULP energy -569872.726730 kJ/mol
# GULP energy per Si atom -12388.537538 kJ/mol
# Density = 1.991578 g / cm^3
# Si number density = 19.961210 Si / 1000 Ang^3
#
#
#
# Elastic Constant Matrix: (Units=GPa)
#
#
# Indices 1 2 3 4 5 6 
#
# 1 104.6584 33.6760 64.0023 0.0000 0.0000 0.0000
# 2 33.6760 99.9166 63.4616 0.0000 0.0000 0.0000
# 3 64.0023 63.4616 179.4356 0.0000 0.0000 0.0000
# 4 0.0000 0.0000 0.0000 30.2683 0.0000 0.0000
# 5 0.0000 0.0000 0.0000 0.0000 7.9490 0.0000
# 6 0.0000 0.0000 0.0000 0.0000 0.0000 5.1903
#
#
#
# Elastic Compliance Matrix: (Units=1/GPa)
#
#
# Indices 1 2 3 4 5 6 
#
# 1 0.012460 -0.001776 -0.003816 0.000000 0.000000 0.000000
# 2 -0.001776 0.013161 -0.004021 0.000000 0.000000 0.000000
# 3 -0.003816 -0.004021 0.008357 0.000000 0.000000 0.000000
# 4 0.000000 0.000000 0.000000 0.033038 0.000000 0.000000
# 5 0.000000 0.000000 0.000000 0.000000 0.125802 0.000000
# 6 0.000000 0.000000 0.000000 0.000000 0.000000 0.192667
#
#
# Mechanical properties :
#
#
# Convention : Reuss Voigt Hill
#
# Bulk Modulus (GPa) = 67.79240 78.47671 73.13456
# Shear Modulus (GPa) = 12.20622 23.53958 17.87290
#
# Velocity S-wave (km/s) = 2.47553 3.43777 2.99554
# Velocity P-wave (km/s) = 6.49668 7.42682 6.97726
#
# Compressibility (1/GPa) = 0.01475092
#
# Stress axis : x y z
#
# Youngs Moduli (GPa) = 80.25639 75.98245 119.66713
#
# Poissons Ratio (x) = 0.13491 0.45669
# Poissons Ratio (y) = 0.14250 0.48122
# Poissons Ratio (z) = 0.30629 0.30555
#
# Static dielectric constant tensor:
#      x y z
#    x 3.430820 0.000000 0.000000 
#    y 0.000000 3.635240 0.000000 
#    z 0.000000 0.000000 4.543640 
# 
# 
# High freq. dielectric constant tensor:
#      x y z
#    x 1.745100 0.000000 0.000000 
#    y 0.000000 1.758460 0.000000 
#    z 0.000000 0.000000 1.817500 
# 
# From -- ./inp_files/47380.got.cif
#   From: 2010.03.12/outbox.cif.g09.slc.cpg/sg66_24_cif.got.tgz:47380.got - 2010.04.10 21:57:39.
