data_PCOD8276016
_publ_section_title
;
Structure prediction by ZEFSAII (Michael W. Deem and Ramdas Pophale) SiO2 
 PCOD8276016
Probable space group: C C C M
;
_chemical_formula_sum "Si O2"
_cell_formula_units_Z 64
_cell_length_a 15.669793
_cell_length_b 12.536862
_cell_length_c 16.781425
_cell_angle_alpha 90.000000
_cell_angle_beta 90.000000
_cell_angle_gamma 90.000000
_cell_volume 3296.711485
_symmetry_space_group_name_H-M "C C C M"
_symmetry_group_IT_number 66
_symmetry_cell_setting 'orthorhombic'
loop_
_space_group_symop_operation_xyz
x,y,z
-x,-y,z
x,-y,1/2-z
-x,y,1/2-z
-x,-y,-z
x,y,-z
-x,y,1/2+z
x,-y,1/2+z
1/2+x,1/2+y,z
1/2-x,1/2-y,z
1/2+x,1/2-y,1/2-z
1/2-x,1/2+y,1/2-z
1/2-x,1/2-y,-z
1/2+x,1/2+y,-z
1/2-x,1/2+y,1/2+z
1/2+x,1/2-y,1/2+z
loop_
_atom_site_type_symbol
_atom_site_label
_atom_site_fract_x
_atom_site_fract_y
_atom_site_fract_z
Si Si1 0.627189 0.991921 0.092311
Si Si2 0.709195 0.363781 0.407603
Si Si3 0.971913 0.110180 0.340848
Si Si4 0.485098 0.161995 0.343649
O O1 0.722747 0.955997 0.113879
O O2 0.562202 0.897533 0.113038
O O3 0.603789 0.100879 0.139104
O O4 0.618411 0.017338 0.000000
O O5 0.680690 0.370878 0.500000
O O6 0.750000 0.250000 0.389277
O O7 0.629693 0.379141 0.349192
O O8 0.000000 0.101530 0.250000
O O9 0.017139 0.216342 0.377073
O O10 0.000000 0.000000 0.384988
O O11 0.500000 0.162017 0.250000
#
# Coordination Sequence:
#
# PCOD8276016 Si02
#       4
#    16  16  16  16
#     4  10  19  33  58  88 113 143 189 241 281 331
#     4  10  20  37  60  85 113 151 198 235 276 344
#     4  10  22  41  55  82 117 156 196 231 287 348
#     4  10  19  34  55  85 120 148 187 235 290 339
#
# _framework density 19.413284000000001
#
# number of rings (size 3 to 8) (size 9 to 14) (size 15 to 20)
#    0.000    2.000    2.500    3.000    0.000    1.500 
#    9.000    1.250    0.000    3.000    0.000    0.000 
#    0.000    0.000    0.000    0.000    0.000    0.000 
#
# Total GULP energy -396636.105422 kJ/mol
# GULP energy per Si atom -12394.878294 kJ/mol
# Density = 1.936910 g / cm^3
# Si number density = 19.413284 Si / 1000 Ang^3
#
#
#
# Elastic Constant Matrix: (Units=GPa)
#
#
# Indices 1 2 3 4 5 6 
#
# 1 130.9492 70.9670 50.1451 0.0000 0.0000 0.0000
# 2 70.9670 200.7311 35.5465 0.0000 0.0000 0.0000
# 3 50.1451 35.5465 62.9700 0.0000 0.0000 0.0000
# 4 0.0000 0.0000 0.0000 8.6490 0.0000 0.0000
# 5 0.0000 0.0000 0.0000 0.0000 35.7920 0.0000
# 6 0.0000 0.0000 0.0000 0.0000 0.0000 29.1693
#
#
#
# Elastic Compliance Matrix: (Units=1/GPa)
#
#
# Indices 1 2 3 4 5 6 
#
# 1 0.012354 -0.002917 -0.008191 0.000000 0.000000 0.000000
# 2 -0.002917 0.006224 -0.001190 0.000000 0.000000 0.000000
# 3 -0.008191 -0.001190 0.023076 0.000000 0.000000 0.000000
# 4 0.000000 0.000000 0.000000 0.115621 0.000000 0.000000
# 5 0.000000 0.000000 0.000000 0.000000 0.027939 0.000000
# 6 0.000000 0.000000 0.000000 0.000000 0.000000 0.034283
#
#
# Mechanical properties :
#
#
# Convention : Reuss Voigt Hill
#
# Bulk Modulus (GPa) = 58.63046 78.66305 68.64675
# Shear Modulus (GPa) = 20.01766 30.58817 25.30292
#
# Velocity S-wave (km/s) = 3.21461 3.97373 3.61415
# Velocity P-wave (km/s) = 6.63664 7.85253 7.27005
#
# Compressibility (1/GPa) = 0.01705598
#
# Stress axis : x y z
#
# Youngs Moduli (GPa) = 80.94376 160.67014 43.33588
#
# Poissons Ratio (x) = 0.46871 0.35498
# Poissons Ratio (y) = 0.23613 0.05158
# Poissons Ratio (z) = 0.66304 0.19125
#
# Static dielectric constant tensor:
#      x y z
#    x 3.476020 0.000000 0.000000 
#    y 0.000000 4.409690 0.000000 
#    z 0.000000 0.000000 3.366380 
# 
# 
# High freq. dielectric constant tensor:
#      x y z
#    x 1.741040 0.000000 0.000000 
#    y 0.000000 1.770800 0.000000 
#    z 0.000000 0.000000 1.740390 
# 
# From -- ./inp_files/38009.got.cif
#   From: 2010.03.12/outbox.cif.g09.slc.cpg/sg66_20_cif.got.tgz:38009.got - 2010.04.10 21:57:39.
