data_PCOD8276620
_publ_section_title
;
Structure prediction by ZEFSAII (Michael W. Deem and Ramdas Pophale) SiO2 
 PCOD8276620
Probable space group: C C C M
;
_chemical_formula_sum "Si O2"
_cell_formula_units_Z 88
_cell_length_a 12.116530
_cell_length_b 25.880146
_cell_length_c 14.588487
_cell_angle_alpha 90.000000
_cell_angle_beta 90.000000
_cell_angle_gamma 90.000000
_cell_volume 4574.622237
_symmetry_space_group_name_H-M "C C C M"
_symmetry_group_IT_number 66
_symmetry_cell_setting 'orthorhombic'
loop_
_space_group_symop_operation_xyz
x,y,z
-x,-y,z
x,-y,1/2-z
-x,y,1/2-z
-x,-y,-z
x,y,-z
-x,y,1/2+z
x,-y,1/2+z
1/2+x,1/2+y,z
1/2-x,1/2-y,z
1/2+x,1/2-y,1/2-z
1/2-x,1/2+y,1/2-z
1/2-x,1/2-y,-z
1/2+x,1/2+y,-z
1/2-x,1/2+y,1/2+z
1/2+x,1/2-y,1/2+z
loop_
_atom_site_type_symbol
_atom_site_label
_atom_site_fract_x
_atom_site_fract_y
_atom_site_fract_z
Si Si1 0.341464 0.612725 0.745000
Si Si2 0.629209 0.764031 0.605549
Si Si3 0.789463 0.000000 0.250000
Si Si4 0.511791 0.658464 0.392528
Si Si5 0.604707 0.128950 0.192920
Si Si6 0.386634 0.975027 0.895939
O O1 0.363911 0.551216 0.737179
O O2 0.400057 0.643830 0.662022
O O3 0.387439 0.628275 0.845221
O O4 0.212367 0.626359 0.741727
O O5 0.645245 0.778013 0.500000
O O6 0.750000 0.750000 0.646627
O O7 0.538476 0.719183 0.619107
O O8 0.582861 0.814056 0.655709
O O9 0.713997 0.001755 0.160425
O O10 0.502296 0.643390 0.500000
O O11 0.500000 0.111264 0.250000
O O12 0.614484 0.087268 0.111641
O O13 0.500000 0.000000 0.859129
O O14 0.366912 0.991441 0.000000
#
# Coordination Sequence:
#
# PCOD8276620 Si02
#       6
#    16  16   8  16  16  16
#     4  10  22  39  60  87 117 158 196 249 296 359
#     4  10  20  36  59  86 115 151 201 250 292 351
#     4  10  21  37  56  86 120 150 203 247 300 356
#     4  10  22  40  61  84 118 157 198 248 298 353
#     4  11  22  35  60  91 121 156 197 248 299 360
#     4  10  20  36  58  83 119 162 202 248 299 350
#
# _framework density 19.236560999999998
#
# number of rings (size 3 to 8) (size 9 to 14) (size 15 to 20)
#    0.000    1.818    1.818    3.000    2.545    5.091 
#    0.000    2.727    0.000    2.182    0.000    0.000 
#    0.000    0.000    0.000    0.000    0.000    0.000 
#
# Total GULP energy -545546.641210 kJ/mol
# GULP energy per Si atom -12398.787300 kJ/mol
# Density = 1.919278 g / cm^3
# Si number density = 19.236561 Si / 1000 Ang^3
#
#
#
# Elastic Constant Matrix: (Units=GPa)
#
#
# Indices 1 2 3 4 5 6 
#
# 1 103.2691 24.7944 37.7621 0.0000 0.0000 0.0000
# 2 24.7944 127.9246 40.2114 0.0000 0.0000 0.0000
# 3 37.7621 40.2114 102.3504 0.0000 0.0000 0.0000
# 4 0.0000 0.0000 0.0000 28.5156 0.0000 0.0000
# 5 0.0000 0.0000 0.0000 0.0000 25.0205 0.0000
# 6 0.0000 0.0000 0.0000 0.0000 0.0000 32.6523
#
#
#
# Elastic Compliance Matrix: (Units=1/GPa)
#
#
# Indices 1 2 3 4 5 6 
#
# 1 0.011306 -0.001004 -0.003777 0.000000 0.000000 0.000000
# 2 -0.001004 0.009008 -0.003168 0.000000 0.000000 0.000000
# 3 -0.003777 -0.003168 0.012409 0.000000 0.000000 0.000000
# 4 0.000000 0.000000 0.000000 0.035068 0.000000 0.000000
# 5 0.000000 0.000000 0.000000 0.000000 0.039967 0.000000
# 6 0.000000 0.000000 0.000000 0.000000 0.000000 0.030626
#
#
# Mechanical properties :
#
#
# Convention : Reuss Voigt Hill
#
# Bulk Modulus (GPa) = 59.44136 59.89777 59.66957
# Shear Modulus (GPa) = 31.27159 32.62276 31.94718
#
# Velocity S-wave (km/s) = 4.03629 4.12257 4.07965
# Velocity P-wave (km/s) = 7.25875 7.33933 7.29915
#
# Compressibility (1/GPa) = 0.01682330
#
# Stress axis : x y z
#
# Youngs Moduli (GPa) = 88.45238 111.01631 80.58938
#
# Poissons Ratio (x) = 0.11147 0.30436
# Poissons Ratio (y) = 0.08881 0.25535
# Poissons Ratio (z) = 0.33406 0.35175
#
# Static dielectric constant tensor:
#      x y z
#    x 3.459610 0.000000 0.000000 
#    y 0.000000 3.641340 0.000000 
#    z 0.000000 0.000000 3.354720 
# 
# 
# High freq. dielectric constant tensor:
#      x y z
#    x 1.742520 0.000000 0.000000 
#    y 0.000000 1.761770 0.000000 
#    z 0.000000 0.000000 1.737870 
# 
# From -- ./inp_files/26767.got.cif
#   From: 2010.03.12/outbox.cif.g09.slc.cpg/sg66_14_cif.got.tgz:26767.got - 2010.04.10 21:57:39.
