data_PCOD8276564
_publ_section_title
;
Structure prediction by ZEFSAII (Michael W. Deem and Ramdas Pophale) SiO2 
 PCOD8276564
Probable space group: C C C M
;
_chemical_formula_sum "Si O2"
_cell_formula_units_Z 68
_cell_length_a 19.995129
_cell_length_b 12.552087
_cell_length_c 13.275253
_cell_angle_alpha 90.000000
_cell_angle_beta 90.000000
_cell_angle_gamma 90.000000
_cell_volume 3331.830947
_symmetry_space_group_name_H-M "C C C M"
_symmetry_group_IT_number 66
_symmetry_cell_setting 'orthorhombic'
loop_
_space_group_symop_operation_xyz
x,y,z
-x,-y,z
x,-y,1/2-z
-x,y,1/2-z
-x,-y,-z
x,y,-z
-x,y,1/2+z
x,-y,1/2+z
1/2+x,1/2+y,z
1/2-x,1/2-y,z
1/2+x,1/2-y,1/2-z
1/2-x,1/2+y,1/2-z
1/2-x,1/2-y,-z
1/2+x,1/2+y,-z
1/2-x,1/2+y,1/2+z
1/2+x,1/2-y,1/2+z
loop_
_atom_site_type_symbol
_atom_site_label
_atom_site_fract_x
_atom_site_fract_y
_atom_site_fract_z
Si Si1 0.500000 0.500000 0.250000
Si Si2 0.425393 0.845676 0.720221
Si Si3 0.748034 0.631159 0.884511
Si Si4 0.900112 0.867187 0.115616
Si Si5 0.135386 0.475659 0.383120
O O1 0.454163 0.429515 0.179298
O O2 0.500000 0.813263 0.750000
O O3 0.392163 0.751746 0.657016
O O4 0.378180 0.868143 0.818788
O O5 0.427344 0.947858 0.645226
O O6 0.750000 0.750000 0.833506
O O7 0.673634 0.580910 0.874322
O O8 0.799837 0.542569 0.842034
O O9 0.769342 0.647104 0.000000
O O10 0.924033 0.865186 0.000000
O O11 0.139239 0.444486 0.500000
#
# Coordination Sequence:
#
# PCOD8276564 Si02
#       5
#     4  16  16  16  16
#     4  12  26  44  64  96 112 160 216 252 316 376
#     4  11  22  36  57  90 127 164 208 239 311 376
#     4   9  17  34  61  87 115 159 203 245 303 354
#     4  11  23  43  65  87 123 161 205 259 305 373
#     4  10  20  35  58  93 127 158 203 255 302 362
#
# _framework density 20.409198
#
# number of rings (size 3 to 8) (size 9 to 14) (size 15 to 20)
#    0.000    1.647    3.529    2.471    0.000    4.706 
#    0.000    0.000    0.000    0.000    0.000   19.765 
#    0.000    0.000    0.000    0.000    0.000    0.000 
#
# Total GULP energy -421285.536129 kJ/mol
# GULP energy per Si atom -12390.751063 kJ/mol
# Density = 2.036275 g / cm^3
# Si number density = 20.409198 Si / 1000 Ang^3
#
#
#
# Elastic Constant Matrix: (Units=GPa)
#
#
# Indices 1 2 3 4 5 6 
#
# 1 113.0749 29.9162 48.2009 0.0000 0.0000 0.0000
# 2 29.9162 67.3762 50.2666 0.0000 0.0000 0.0000
# 3 48.2009 50.2666 135.7974 0.0000 0.0000 0.0000
# 4 0.0000 0.0000 0.0000 -98.5820 0.0000 0.0000
# 5 0.0000 0.0000 0.0000 0.0000 23.2279 0.0000
# 6 0.0000 0.0000 0.0000 0.0000 0.0000 1.4316
#
#
#
# Elastic Compliance Matrix: (Units=1/GPa)
#
#
# Indices 1 2 3 4 5 6 
#
# 1 0.010755 -0.002663 -0.002832 0.000000 0.000000 0.000000
# 2 -0.002663 0.021164 -0.006889 0.000000 0.000000 0.000000
# 3 -0.002832 -0.006889 0.010919 0.000000 0.000000 0.000000
# 4 0.000000 0.000000 0.000000 -0.010144 0.000000 0.000000
# 5 0.000000 0.000000 0.000000 0.000000 0.043052 0.000000
# 6 0.000000 0.000000 0.000000 0.000000 0.000000 0.698536
#
#
# Mechanical properties :
#
#
# Convention : Reuss Voigt Hill
#
# Bulk Modulus (GPa) = 55.33676 63.66842 59.50259
# Shear Modulus (GPa) = 6.21062 -2.26019 1.97521
#
# Velocity S-wave (km/s) = 1.74633 -1.05349 0.98484
# Velocity P-wave (km/s) = 5.58916 5.45746 5.52370
#
# Compressibility (1/GPa) = 0.01807117
#
# Stress axis : x y z
#
# Youngs Moduli (GPa) = 92.97681 47.25045 91.58293
#
# Poissons Ratio (x) = 0.12582 0.25936
# Poissons Ratio (y) = 0.24758 0.63090
# Poissons Ratio (z) = 0.26331 0.32550
#
# Static dielectric constant tensor:
#      x y z
#    x 3.771550 0.000000 0.000000 
#    y 0.000000 3.554350 0.000000 
#    z 0.000000 0.000000 3.625160 
# 
# 
# High freq. dielectric constant tensor:
#      x y z
#    x 1.808700 0.000000 0.000000 
#    y 0.000000 1.772830 0.000000 
#    z 0.000000 0.000000 1.790490 
# 
# From -- ./inp_files/30868.got.cif
#   From: 2010.03.12/outbox.cif.g09.slc.cpg/sg66_16_cif.got.tgz:30868.got - 2010.04.10 21:57:39.
