data_PCOD8276919
_publ_section_title
;
Structure prediction by ZEFSAII (Michael W. Deem and Ramdas Pophale) SiO2 
 PCOD8276919
Probable space group: C C C M
;
_chemical_formula_sum "Si O2"
_cell_formula_units_Z 116
_cell_length_a 22.563605
_cell_length_b 28.709844
_cell_length_c 9.261430
_cell_angle_alpha 90.000000
_cell_angle_beta 90.000000
_cell_angle_gamma 90.000000
_cell_volume 5999.531938
_symmetry_space_group_name_H-M "C C C M"
_symmetry_group_IT_number 66
_symmetry_cell_setting 'orthorhombic'
loop_
_space_group_symop_operation_xyz
x,y,z
-x,-y,z
x,-y,1/2-z
-x,y,1/2-z
-x,-y,-z
x,y,-z
-x,y,1/2+z
x,-y,1/2+z
1/2+x,1/2+y,z
1/2-x,1/2-y,z
1/2+x,1/2-y,1/2-z
1/2-x,1/2+y,1/2-z
1/2-x,1/2-y,-z
1/2+x,1/2+y,-z
1/2-x,1/2+y,1/2+z
1/2+x,1/2-y,1/2+z
loop_
_atom_site_type_symbol
_atom_site_label
_atom_site_fract_x
_atom_site_fract_y
_atom_site_fract_z
Si Si1 0.944388 0.151797 0.336142
Si Si2 0.942898 0.348450 0.172590
Si Si3 0.000000 0.500000 0.750000
Si Si4 0.194484 0.780503 0.842080
Si Si5 0.408907 0.243898 0.832276
Si Si6 0.898650 0.570307 0.161328
Si Si7 0.234580 0.456353 0.165166
Si Si8 0.187789 0.868666 0.670040
O O1 0.957136 0.139496 0.500000
O O2 0.943294 0.207581 0.311423
O O3 0.882293 0.127828 0.288647
O O4 0.000000 0.130561 0.250000
O O5 0.936942 0.296827 0.236532
O O6 0.895808 0.387250 0.222587
O O7 0.000000 0.370570 0.250000
O O8 0.947103 0.345693 0.000000
O O9 0.954189 0.533887 0.835035
O O10 0.250000 0.750000 0.877640
O O11 0.156135 0.751072 0.729575
O O12 0.215367 0.827695 0.765538
O O13 0.163393 0.789969 0.000000
O O14 0.406874 0.228811 0.000000
O O15 0.835817 0.546290 0.193084
O O16 0.898621 0.591728 0.000000
O O17 0.260466 0.500000 0.250000
O O18 0.273555 0.412657 0.217450
O O19 0.248574 0.465175 0.000000
O O20 0.193955 0.857034 0.500000
#
# Coordination Sequence:
#
# PCOD8276919 Si02
#       8
#    16  16   4  16  16  16  16  16
#     4   9  18  33  56  85 114 149 190 232 281 338
#     4  12  25  39  56  81 114 150 192 243 295 348
#     4  12  22  40  68  86 114 144 196 252 306 360
#     4  10  21  35  52  81 116 152 195 243 290 341
#     4  10  21  37  56  79 113 155 196 237 288 348
#     4  11  24  40  60  86 113 149 193 243 302 360
#     4  10  22  41  63  88 115 149 194 242 299 361
#     4   9  20  38  58  83 116 155 196 239 290 359
#
# _framework density 19.334841000000001
#
# number of rings (size 3 to 8) (size 9 to 14) (size 15 to 20)
#    0.000    1.793    1.379    3.517    1.931    6.621 
#    0.000    0.000    0.000    0.414    0.000    2.897 
#    0.000    0.000    0.000    0.000    0.000    0.000 
#
# Total GULP energy -718583.989497 kJ/mol
# GULP energy per Si atom -12389.379129 kJ/mol
# Density = 1.929083 g / cm^3
# Si number density = 19.334841 Si / 1000 Ang^3
#
#
#
# Elastic Constant Matrix: (Units=GPa)
#
#
# Indices 1 2 3 4 5 6 
#
# 1 94.6167 51.7579 44.7210 0.0000 0.0000 0.0000
# 2 51.7579 93.2482 51.3252 0.0000 0.0000 0.0000
# 3 44.7210 51.3252 118.9864 0.0000 0.0000 0.0000
# 4 0.0000 0.0000 0.0000 20.0268 0.0000 0.0000
# 5 0.0000 0.0000 0.0000 0.0000 15.0320 0.0000
# 6 0.0000 0.0000 0.0000 0.0000 0.0000 24.8654
#
#
#
# Elastic Compliance Matrix: (Units=1/GPa)
#
#
# Indices 1 2 3 4 5 6 
#
# 1 0.015877 -0.007249 -0.002840 0.000000 0.000000 0.000000
# 2 -0.007249 0.017373 -0.004769 0.000000 0.000000 0.000000
# 3 -0.002840 -0.004769 0.011529 0.000000 0.000000 0.000000
# 4 0.000000 0.000000 0.000000 0.049933 0.000000 0.000000
# 5 0.000000 0.000000 0.000000 0.000000 0.066525 0.000000
# 6 0.000000 0.000000 0.000000 0.000000 0.000000 0.040217
#
#
# Mechanical properties :
#
#
# Convention : Reuss Voigt Hill
#
# Bulk Modulus (GPa) = 66.39539 66.93993 66.66766
# Shear Modulus (GPa) = 21.16927 22.58798 21.87862
#
# Velocity S-wave (km/s) = 3.31248 3.42168 3.36752
# Velocity P-wave (km/s) = 7.00317 7.09275 7.04810
#
# Compressibility (1/GPa) = 0.01506129
#
# Stress axis : x y z
#
# Youngs Moduli (GPa) = 62.98415 57.56108 86.73701
#
# Poissons Ratio (x) = 0.41727 0.24637
# Poissons Ratio (y) = 0.45659 0.41367
# Poissons Ratio (z) = 0.17890 0.27452
#
# Static dielectric constant tensor:
#      x y z
#    x 3.638450 0.000000 0.000000 
#    y 0.000000 3.447110 0.000000 
#    z 0.000000 0.000000 3.536760 
# 
# 
# High freq. dielectric constant tensor:
#      x y z
#    x 1.747880 0.000000 0.000000 
#    y 0.000000 1.735850 0.000000 
#    z 0.000000 0.000000 1.760350 
# 
# From -- ./inp_files/9594.got.cif
#   From: 2010.03.12/outbox.cif.g09.slc.cpg/sg66_5_cif.got.tgz:9594.got - 2010.04.10 21:57:39.
