data_PCOD8276264
_publ_section_title
;
Structure prediction by ZEFSAII (Michael W. Deem and Ramdas Pophale) SiO2 
 PCOD8276264
Probable space group: C C C M
;
_chemical_formula_sum "Si O2"
_cell_formula_units_Z 96
_cell_length_a 31.329983
_cell_length_b 14.230152
_cell_length_c 14.384243
_cell_angle_alpha 90.000000
_cell_angle_beta 90.000000
_cell_angle_gamma 90.000000
_cell_volume 6412.933102
_symmetry_space_group_name_H-M "C C C M"
_symmetry_group_IT_number 66
_symmetry_cell_setting 'orthorhombic'
loop_
_space_group_symop_operation_xyz
x,y,z
-x,-y,z
x,-y,1/2-z
-x,y,1/2-z
-x,-y,-z
x,y,-z
-x,y,1/2+z
x,-y,1/2+z
1/2+x,1/2+y,z
1/2-x,1/2-y,z
1/2+x,1/2-y,1/2-z
1/2-x,1/2+y,1/2-z
1/2-x,1/2-y,-z
1/2+x,1/2+y,-z
1/2-x,1/2+y,1/2+z
1/2+x,1/2-y,1/2+z
loop_
_atom_site_type_symbol
_atom_site_label
_atom_site_fract_x
_atom_site_fract_y
_atom_site_fract_z
Si Si1 0.725958 0.457787 0.892226
Si Si2 0.708550 0.814706 0.397722
Si Si3 0.337211 0.327855 0.280479
Si Si4 0.931839 0.110914 0.242968
Si Si5 0.004043 0.111323 0.896255
Si Si6 0.714964 0.327317 0.605892
O O1 0.772145 0.414512 0.863330
O O2 0.687455 0.415092 0.829864
O O3 0.732769 0.568126 0.877479
O O4 0.715148 0.433573 0.000000
O O5 0.687890 0.823672 0.500000
O O6 0.750000 0.750000 0.399943
O O7 0.673009 0.771112 0.330569
O O8 0.387451 0.340849 0.280634
O O9 0.325145 0.315771 0.172780
O O10 0.953060 0.142589 0.341105
O O11 0.962483 0.145251 0.159716
O O12 0.925103 0.000000 0.250000
O O13 0.005276 0.155091 0.000000
O O14 0.000000 0.000000 0.901240
O O15 0.699741 0.312593 0.500000
O O16 0.750000 0.250000 0.634020
#
# Coordination Sequence:
#
# PCOD8276264 Si02
#       6
#    16  16  16  16  16  16
#     4   9  17  29  43  57  76 105 139 173 206 235
#     4   8  15  27  41  57  76 100 132 168 205 237
#     4  11  18  26  41  60  81 103 133 174 206 229
#     4   9  17  26  37  56  76  97 131 167 198 237
#     4   8  15  28  41  51  70 101 131 159 195 240
#     4  10  20  30  39  55  80 111 143 167 193 236
#
# _framework density 14.969749999999999
#
# number of rings (size 3 to 8) (size 9 to 14) (size 15 to 20)
#    0.000    2.833    0.000    5.500    0.000    2.000 
#    0.000    3.333    0.000    0.000    0.000    0.000 
#    0.000    0.000    0.000   12.000    0.000   73.667 
#
# Total GULP energy -594746.822537 kJ/mol
# GULP energy per Si atom -12390.558803 kJ/mol
# Density = 1.493568 g / cm^3
# Si number density = 14.969750 Si / 1000 Ang^3
#
#
#
# Elastic Constant Matrix: (Units=GPa)
#
#
# Indices 1 2 3 4 5 6 
#
# 1 112.6266 38.0775 59.6178 0.0000 0.0000 0.0000
# 2 38.0775 51.1904 26.5033 0.0000 0.0000 0.0000
# 3 59.6178 26.5033 108.9927 0.0000 0.0000 0.0000
# 4 0.0000 0.0000 0.0000 15.4752 0.0000 0.0000
# 5 0.0000 0.0000 0.0000 0.0000 12.6760 0.0000
# 6 0.0000 0.0000 0.0000 0.0000 0.0000 16.1631
#
#
#
# Elastic Compliance Matrix: (Units=1/GPa)
#
#
# Indices 1 2 3 4 5 6 
#
# 1 0.014795 -0.007797 -0.006197 0.000000 0.000000 0.000000
# 2 -0.007797 0.026457 -0.002169 0.000000 0.000000 0.000000
# 3 -0.006197 -0.002169 0.013092 0.000000 0.000000 0.000000
# 4 0.000000 0.000000 0.000000 0.064619 0.000000 0.000000
# 5 0.000000 0.000000 0.000000 0.000000 0.078889 0.000000
# 6 0.000000 0.000000 0.000000 0.000000 0.000000 0.061869
#
#
# Mechanical properties :
#
#
# Convention : Reuss Voigt Hill
#
# Bulk Modulus (GPa) = 45.41421 57.91187 51.66304
# Shear Modulus (GPa) = 16.70078 18.77027 17.73553
#
# Velocity S-wave (km/s) = 3.34374 3.54486 3.44577
# Velocity P-wave (km/s) = 6.73132 7.45148 7.10054
#
# Compressibility (1/GPa) = 0.02201954
#
# Stress axis : x y z
#
# Youngs Moduli (GPa) = 67.58955 37.79656 76.38310
#
# Poissons Ratio (x) = 0.29470 0.47334
# Poissons Ratio (y) = 0.52699 0.16565
# Poissons Ratio (z) = 0.41884 0.08197
#
# Static dielectric constant tensor:
#      x y z
#    x 2.711560 0.000000 0.000000 
#    y 0.000000 2.953360 0.000000 
#    z 0.000000 0.000000 3.290740 
# 
# 
# High freq. dielectric constant tensor:
#      x y z
#    x 1.542040 0.000000 0.000000 
#    y 0.000000 1.535010 0.000000 
#    z 0.000000 0.000000 1.594470 
# 
# From -- ./inp_files/33903.got.cif
#   From: 2010.03.12/outbox.cif.g09.slc.cpg/sg66_17_cif.got.tgz:33903.got - 2010.04.10 21:57:39.
