data_PCOD8276528
_publ_section_title
;
Structure prediction by ZEFSAII (Michael W. Deem and Ramdas Pophale) SiO2 
 PCOD8276528
Probable space group: C C C M
;
_chemical_formula_sum "Si O2"
_cell_formula_units_Z 104
_cell_length_a 21.822820
_cell_length_b 8.477004
_cell_length_c 29.306691
_cell_angle_alpha 90.000000
_cell_angle_beta 90.000000
_cell_angle_gamma 90.000000
_cell_volume 5421.507263
_symmetry_space_group_name_H-M "C C C M"
_symmetry_group_IT_number 66
_symmetry_cell_setting 'orthorhombic'
loop_
_space_group_symop_operation_xyz
x,y,z
-x,-y,z
x,-y,1/2-z
-x,y,1/2-z
-x,-y,-z
x,y,-z
-x,y,1/2+z
x,-y,1/2+z
1/2+x,1/2+y,z
1/2-x,1/2-y,z
1/2+x,1/2-y,1/2-z
1/2-x,1/2+y,1/2-z
1/2-x,1/2-y,-z
1/2+x,1/2+y,-z
1/2-x,1/2+y,1/2+z
1/2+x,1/2-y,1/2+z
loop_
_atom_site_type_symbol
_atom_site_label
_atom_site_fract_x
_atom_site_fract_y
_atom_site_fract_z
Si Si1 0.186996 0.814095 0.903501
Si Si2 0.867507 0.880990 0.922084
Si Si3 0.182845 0.680039 0.500000
Si Si4 0.062822 0.694951 0.345940
Si Si5 0.572596 0.322812 0.250382
Si Si6 0.842925 0.687371 0.500000
Si Si7 0.579696 0.169966 0.156575
Si Si8 0.567388 0.563223 0.500000
O O1 0.250000 0.750000 0.880183
O O2 0.189478 0.758009 0.955718
O O3 0.126407 0.751396 0.878045
O O4 0.186471 0.006709 0.901580
O O5 0.907794 0.810704 0.882220
O O6 0.845910 0.737439 0.952939
O O7 0.905428 0.999383 0.953295
O O8 0.250000 0.750000 0.500000
O O9 0.169491 0.496642 0.500000
O O10 0.091480 0.738466 0.297057
O O11 0.082556 0.515364 0.353277
O O12 0.990228 0.725661 0.350983
O O13 0.600035 0.500000 0.250000
O O14 0.500000 0.329534 0.250000
O O15 0.598299 0.219596 0.208139
O O16 0.915380 0.747648 0.500000
O O17 0.500000 0.500000 0.500000
#
# Coordination Sequence:
#
# PCOD8276528 Si02
#       8
#    16  16   8  16  16   8  16   8
#     4  11  22  38  58  81 111 150 195 234 275 336
#     4  10  22  35  55  84 109 144 192 230 283 339
#     4  11  21  39  58  79 113 149 192 236 279 344
#     4  10  20  35  56  86 116 141 183 235 290 345
#     4   9  17  32  55  83 111 145 182 226 283 343
#     4  10  21  36  59  79 108 150 193 235 287 333
#     4  10  21  35  56  84 115 149 182 231 290 341
#     4   9  21  37  52  78 113 152 182 236 290 345
#
# _framework density 19.182856999999998
#
# number of rings (size 3 to 8) (size 9 to 14) (size 15 to 20)
#    0.000    2.000    0.000    3.923    4.308    3.077 
#    0.000    0.769    0.000    6.462    0.000    0.000 
#    0.000    0.000    0.000    0.000    0.000    0.000 
#
# Total GULP energy -644287.701271 kJ/mol
# GULP energy per Si atom -12390.148101 kJ/mol
# Density = 1.913920 g / cm^3
# Si number density = 19.182857 Si / 1000 Ang^3
#
#
#
# Elastic Constant Matrix: (Units=GPa)
#
#
# Indices 1 2 3 4 5 6 
#
# 1 74.8002 45.7196 32.5892 0.0000 0.0000 0.0000
# 2 45.7196 141.1983 46.5917 0.0000 0.0000 0.0000
# 3 32.5892 46.5917 125.2967 0.0000 0.0000 0.0000
# 4 0.0000 0.0000 0.0000 63.7868 0.0000 0.0000
# 5 0.0000 0.0000 0.0000 0.0000 13.5165 0.0000
# 6 0.0000 0.0000 0.0000 0.0000 0.0000 31.8067
#
#
#
# Elastic Compliance Matrix: (Units=1/GPa)
#
#
# Indices 1 2 3 4 5 6 
#
# 1 0.017480 -0.004741 -0.002783 0.000000 0.000000 0.000000
# 2 -0.004741 0.009359 -0.002247 0.000000 0.000000 0.000000
# 3 -0.002783 -0.002247 0.009540 0.000000 0.000000 0.000000
# 4 0.000000 0.000000 0.000000 0.015677 0.000000 0.000000
# 5 0.000000 0.000000 0.000000 0.000000 0.073984 0.000000
# 6 0.000000 0.000000 0.000000 0.000000 0.000000 0.031440
#
#
# Mechanical properties :
#
#
# Convention : Reuss Voigt Hill
#
# Bulk Modulus (GPa) = 59.39715 65.67735 62.53725
# Shear Modulus (GPa) = 27.37699 36.24830 31.81265
#
# Velocity S-wave (km/s) = 3.78187 4.35169 4.07675
# Velocity P-wave (km/s) = 7.07820 7.71761 7.40481
#
# Compressibility (1/GPa) = 0.01683582
#
# Stress axis : x y z
#
# Youngs Moduli (GPa) = 57.20933 106.84988 104.81647
#
# Poissons Ratio (x) = 0.50662 0.29173
# Poissons Ratio (y) = 0.27126 0.23551
# Poissons Ratio (z) = 0.15923 0.24008
#
# Static dielectric constant tensor:
#      x y z
#    x 3.372640 0.000000 0.000000 
#    y 0.000000 3.813140 0.000000 
#    z 0.000000 0.000000 4.270160 
# 
# 
# High freq. dielectric constant tensor:
#      x y z
#    x 1.713840 0.000000 0.000000 
#    y 0.000000 1.761680 0.000000 
#    z 0.000000 0.000000 1.753720 
# 
# From -- ./inp_files/70232.got.cif
#   From: 2010.03.12/outbox.cif.g09.slc.cpg/sg66_36_cif.got.tgz:70232.got - 2010.04.10 21:57:39.
