data_PCOD8276486
_publ_section_title
;
Structure prediction by ZEFSAII (Michael W. Deem and Ramdas Pophale) SiO2 
 PCOD8276486
Probable space group: C C C M
;
_chemical_formula_sum "Si O2"
_cell_formula_units_Z 80
_cell_length_a 11.769542
_cell_length_b 15.656766
_cell_length_c 23.461085
_cell_angle_alpha 90.000000
_cell_angle_beta 90.000000
_cell_angle_gamma 90.000000
_cell_volume 4323.243696
_symmetry_space_group_name_H-M "C C C M"
_symmetry_group_IT_number 66
_symmetry_cell_setting 'orthorhombic'
loop_
_space_group_symop_operation_xyz
x,y,z
-x,-y,z
x,-y,1/2-z
-x,y,1/2-z
-x,-y,-z
x,y,-z
-x,y,1/2+z
x,-y,1/2+z
1/2+x,1/2+y,z
1/2-x,1/2-y,z
1/2+x,1/2-y,1/2-z
1/2-x,1/2+y,1/2-z
1/2-x,1/2-y,-z
1/2+x,1/2+y,-z
1/2-x,1/2+y,1/2+z
1/2+x,1/2-y,1/2+z
loop_
_atom_site_type_symbol
_atom_site_label
_atom_site_fract_x
_atom_site_fract_y
_atom_site_fract_z
Si Si1 0.656053 0.682742 0.162877
Si Si2 0.331627 0.902256 0.734822
Si Si3 0.481712 0.177673 0.671781
Si Si4 0.536769 0.404840 0.435590
Si Si5 0.880583 0.254054 0.935957
O O1 0.750000 0.750000 0.141487
O O2 0.707095 0.629012 0.215739
O O3 0.541665 0.730348 0.184688
O O4 0.633732 0.621905 0.108880
O O5 0.422445 0.894793 0.682725
O O6 0.375411 0.841418 0.786444
O O7 0.322248 0.000000 0.750000
O O8 0.441777 0.178590 0.606171
O O9 0.500000 0.500000 0.419471
O O10 0.586148 0.401570 0.500000
O O11 0.429706 0.341353 0.429929
O O12 0.750000 0.250000 0.918484
O O13 0.896960 0.289352 0.000000
#
# Coordination Sequence:
#
# PCOD8276486 Si02
#       5
#    16  16  16  16  16
#     4   9  19  35  52  75 102 132 173 209 249 307
#     4  10  20  35  54  75 102 137 174 212 257 302
#     4   9  18  33  53  72  99 134 170 209 249 301
#     4   9  18  34  54  77 106 135 166 210 258 300
#     4   9  18  32  52  78 105 136 171 208 255 309
#
# _framework density 18.504624
#
# number of rings (size 3 to 8) (size 9 to 14) (size 15 to 20)
#    0.000    2.800    0.000    1.200    0.000    6.000 
#    0.000   13.000    0.000    2.400    0.000    0.000 
#    0.000    0.000    0.000    0.000    0.000    0.000 
#
# Total GULP energy -495682.124049 kJ/mol
# GULP energy per Si atom -12392.053101 kJ/mol
# Density = 1.846251 g / cm^3
# Si number density = 18.504624 Si / 1000 Ang^3
#
#
#
# Elastic Constant Matrix: (Units=GPa)
#
#
# Indices 1 2 3 4 5 6 
#
# 1 81.4883 45.1354 64.6970 0.0000 0.0000 0.0000
# 2 45.1354 115.8965 76.0693 0.0000 0.0000 0.0000
# 3 64.6970 76.0693 123.5906 0.0000 0.0000 0.0000
# 4 0.0000 0.0000 0.0000 27.9219 0.0000 0.0000
# 5 0.0000 0.0000 0.0000 0.0000 36.1434 0.0000
# 6 0.0000 0.0000 0.0000 0.0000 0.0000 16.1339
#
#
#
# Elastic Compliance Matrix: (Units=1/GPa)
#
#
# Indices 1 2 3 4 5 6 
#
# 1 0.021181 -0.001630 -0.010085 0.000000 0.000000 0.000000
# 2 -0.001630 0.014602 -0.008134 0.000000 0.000000 0.000000
# 3 -0.010085 -0.008134 0.018377 0.000000 0.000000 0.000000
# 4 0.000000 0.000000 0.000000 0.035814 0.000000 0.000000
# 5 0.000000 0.000000 0.000000 0.000000 0.027668 0.000000
# 6 0.000000 0.000000 0.000000 0.000000 0.000000 0.061981
#
#
# Mechanical properties :
#
#
# Convention : Reuss Voigt Hill
#
# Bulk Modulus (GPa) = 69.14421 76.97542 73.05981
# Shear Modulus (GPa) = 22.30731 25.04477 23.67604
#
# Velocity S-wave (km/s) = 3.47580 3.68289 3.58084
# Velocity P-wave (km/s) = 7.31814 7.73131 7.52756
#
# Compressibility (1/GPa) = 0.01446253
#
# Stress axis : x y z
#
# Youngs Moduli (GPa) = 47.21194 68.48315 54.41569
#
# Poissons Ratio (x) = 0.11161 0.54877
# Poissons Ratio (y) = 0.07694 0.44264
# Poissons Ratio (z) = 0.47612 0.55707
#
# Static dielectric constant tensor:
#      x y z
#    x 3.466110 0.000000 0.000000 
#    y 0.000000 3.323020 0.000000 
#    z 0.000000 0.000000 3.564800 
# 
# 
# High freq. dielectric constant tensor:
#      x y z
#    x 1.712030 0.000000 0.000000 
#    y 0.000000 1.703910 0.000000 
#    z 0.000000 0.000000 1.716770 
# 
# From -- ./inp_files/56561.got.cif
#   From: 2010.03.12/outbox.cif.g09.slc.cpg/sg66_29_cif.got.tgz:56561.got - 2010.04.10 21:57:39.
