data_PCOD8276439
_publ_section_title
;
Structure prediction by ZEFSAII (Michael W. Deem and Ramdas Pophale) SiO2 
 PCOD8276439
Probable space group: C C C M
;
_chemical_formula_sum "Si O2"
_cell_formula_units_Z 96
_cell_length_a 21.654400
_cell_length_b 11.023341
_cell_length_c 23.232129
_cell_angle_alpha 90.000000
_cell_angle_beta 90.000000
_cell_angle_gamma 90.000000
_cell_volume 5545.598296
_symmetry_space_group_name_H-M "C C C M"
_symmetry_group_IT_number 66
_symmetry_cell_setting 'orthorhombic'
loop_
_space_group_symop_operation_xyz
x,y,z
-x,-y,z
x,-y,1/2-z
-x,y,1/2-z
-x,-y,-z
x,y,-z
-x,y,1/2+z
x,-y,1/2+z
1/2+x,1/2+y,z
1/2-x,1/2-y,z
1/2+x,1/2-y,1/2-z
1/2-x,1/2+y,1/2-z
1/2-x,1/2-y,-z
1/2+x,1/2+y,-z
1/2-x,1/2+y,1/2+z
1/2+x,1/2-y,1/2+z
loop_
_atom_site_type_symbol
_atom_site_label
_atom_site_fract_x
_atom_site_fract_y
_atom_site_fract_z
Si Si1 0.615508 0.872498 0.622846
Si Si2 0.401856 0.912194 0.298664
Si Si3 0.458547 0.166974 0.000000
Si Si4 0.984504 0.740643 0.120723
Si Si5 0.391778 0.500000 0.250000
Si Si6 0.000000 0.000000 0.337802
Si Si7 0.400903 0.917046 0.000000
Si Si8 0.677146 0.255767 0.777017
O O1 0.542611 0.848323 0.621873
O O2 0.637617 0.873950 0.556221
O O3 0.652471 0.771642 0.658547
O O4 0.624811 0.006209 0.649662
O O5 0.445612 0.806912 0.324275
O O6 0.345258 0.846104 0.267368
O O7 0.434189 0.000000 0.250000
O O8 0.447101 0.237742 0.939826
O O9 0.530157 0.133556 0.000000
O O10 0.408300 0.061186 0.000000
O O11 0.007374 0.878635 0.125311
O O12 0.436798 0.519274 0.303534
O O13 0.347075 0.613775 0.242128
O O14 0.750000 0.250000 0.777732
#
# Coordination Sequence:
#
# PCOD8276439 Si02
#       8
#    16  16   8  16   8   8   8  16
#     4  10  20  34  55  83 108 141 178 227 271 327
#     4  10  21  32  52  80 107 138 174 226 273 325
#     4   9  18  29  52  80 114 147 170 216 270 323
#     4  11  19  35  51  82 115 143 180 215 273 334
#     4  11  22  38  54  76 114 149 178 222 276 339
#     4  11  22  35  54  78 114 151 178 217 280 338
#     4   9  16  32  53  80 112 142 173 221 275 319
#     4  11  24  38  54  80 107 143 187 232 279 328
#
# _framework density 17.311025999999998
#
# number of rings (size 3 to 8) (size 9 to 14) (size 15 to 20)
#    0.000    1.667    5.000    0.500    3.500    5.000 
#    0.000    0.417    0.000    0.000    0.000    2.333 
#    0.000    0.000    0.000    0.000    0.000    0.000 
#
# Total GULP energy -594856.988172 kJ/mol
# GULP energy per Si atom -12392.853920 kJ/mol
# Density = 1.727163 g / cm^3
# Si number density = 17.311026 Si / 1000 Ang^3
#
#
#
# Elastic Constant Matrix: (Units=GPa)
#
#
# Indices 1 2 3 4 5 6 
#
# 1 68.5217 17.2543 35.9584 0.0000 0.0000 0.0000
# 2 17.2543 102.4683 49.4359 0.0000 0.0000 0.0000
# 3 35.9584 49.4359 142.8077 0.0000 0.0000 0.0000
# 4 0.0000 0.0000 0.0000 16.3873 0.0000 0.0000
# 5 0.0000 0.0000 0.0000 0.0000 10.1379 0.0000
# 6 0.0000 0.0000 0.0000 0.0000 0.0000 16.3744
#
#
#
# Elastic Compliance Matrix: (Units=1/GPa)
#
#
# Indices 1 2 3 4 5 6 
#
# 1 0.016893 -0.000951 -0.003924 0.000000 0.000000 0.000000
# 2 -0.000951 0.011769 -0.003835 0.000000 0.000000 0.000000
# 3 -0.003924 -0.003835 0.009318 0.000000 0.000000 0.000000
# 4 0.000000 0.000000 0.000000 0.061023 0.000000 0.000000
# 5 0.000000 0.000000 0.000000 0.000000 0.098640 0.000000
# 6 0.000000 0.000000 0.000000 0.000000 0.000000 0.061071
#
#
# Mechanical properties :
#
#
# Convention : Reuss Voigt Hill
#
# Bulk Modulus (GPa) = 48.63874 57.67722 53.15798
# Shear Modulus (GPa) = 17.66862 22.65652 20.16257
#
# Velocity S-wave (km/s) = 3.19824 3.62165 3.41651
# Velocity P-wave (km/s) = 6.46500 7.13295 6.80717
#
# Compressibility (1/GPa) = 0.02055974
#
# Stress axis : x y z
#
# Youngs Moduli (GPa) = 59.19685 84.96653 107.31941
#
# Poissons Ratio (x) = 0.08083 0.42115
# Poissons Ratio (y) = 0.05631 0.41154
# Poissons Ratio (z) = 0.23230 0.32582
#
# Static dielectric constant tensor:
#      x y z
#    x 2.799630 0.000000 0.000000 
#    y 0.000000 3.194640 0.000000 
#    z 0.000000 0.000000 3.665770 
# 
# 
# High freq. dielectric constant tensor:
#      x y z
#    x 1.621510 0.000000 0.000000 
#    y 0.000000 1.674260 0.000000 
#    z 0.000000 0.000000 1.678750 
# 
# From -- ./inp_files/59531.got.cif
#   From: 2010.03.12/outbox.cif.g09.slc.cpg/sg66_30_cif.got.tgz:59531.got - 2010.04.10 21:57:39.
