data_PCOD8276350
_publ_section_title
;
Structure prediction by ZEFSAII (Michael W. Deem and Ramdas Pophale) SiO2 
 PCOD8276350
Probable space group: C C C M
;
_chemical_formula_sum "Si O2"
_cell_formula_units_Z 96
_cell_length_a 11.079310
_cell_length_b 25.328033
_cell_length_c 18.094951
_cell_angle_alpha 90.000000
_cell_angle_beta 90.000000
_cell_angle_gamma 90.000000
_cell_volume 5077.753204
_symmetry_space_group_name_H-M "C C C M"
_symmetry_group_IT_number 66
_symmetry_cell_setting 'orthorhombic'
loop_
_space_group_symop_operation_xyz
x,y,z
-x,-y,z
x,-y,1/2-z
-x,y,1/2-z
-x,-y,-z
x,y,-z
-x,y,1/2+z
x,-y,1/2+z
1/2+x,1/2+y,z
1/2-x,1/2-y,z
1/2+x,1/2-y,1/2-z
1/2-x,1/2+y,1/2-z
1/2-x,1/2-y,-z
1/2+x,1/2+y,-z
1/2-x,1/2+y,1/2+z
1/2+x,1/2-y,1/2+z
loop_
_atom_site_type_symbol
_atom_site_label
_atom_site_fract_x
_atom_site_fract_y
_atom_site_fract_z
Si Si1 0.234704 0.610725 0.417018
Si Si2 0.871761 0.646244 0.587726
Si Si3 0.177158 0.804980 0.181455
Si Si4 0.085257 0.716864 0.418348
Si Si5 0.099017 0.818345 0.342947
Si Si6 0.024614 0.438657 0.165617
O O1 0.241721 0.586235 0.500000
O O2 0.170011 0.666586 0.418068
O O3 0.368055 0.627592 0.387536
O O4 0.163059 0.572006 0.360965
O O5 0.848637 0.645002 0.500000
O O6 0.747716 0.652100 0.632313
O O7 0.934637 0.591586 0.610805
O O8 0.955329 0.696142 0.611221
O O9 0.250000 0.750000 0.178627
O O10 0.160931 0.826748 0.263911
O O11 0.042383 0.804857 0.149746
O O12 0.067529 0.739748 0.500000
O O13 0.150652 0.762904 0.372822
O O14 0.000000 0.500000 0.157408
O O15 0.000000 0.419798 0.250000
#
# Coordination Sequence:
#
# PCOD8276350 Si02
#       6
#    16  16  16  16  16  16
#     4  10  20  33  52  80 110 142 182 231 280 331
#     4  10  21  36  55  80 111 149 188 231 280 334
#     4  11  22  35  50  76 112 154 195 230 273 328
#     4   9  17  31  50  73 105 145 185 225 270 321
#     4  11  21  32  51  76 110 154 193 229 274 328
#     4  10  21  38  62  87 110 139 179 234 294 344
#
# _framework density 18.905999000000001
#
# number of rings (size 3 to 8) (size 9 to 14) (size 15 to 20)
#    0.000    1.833    1.667    4.500    0.000    5.667 
#    0.000    0.000    0.000    1.000    0.000    7.000 
#    0.000    0.000    0.000    0.000    0.000    0.000 
#
# Total GULP energy -594656.362023 kJ/mol
# GULP energy per Si atom -12388.674209 kJ/mol
# Density = 1.886297 g / cm^3
# Si number density = 18.905999 Si / 1000 Ang^3
#
#
#
# Elastic Constant Matrix: (Units=GPa)
#
#
# Indices 1 2 3 4 5 6 
#
# 1 98.7178 28.5055 39.5110 0.0000 0.0000 0.0000
# 2 28.5055 66.7320 34.6304 0.0000 0.0000 0.0000
# 3 39.5110 34.6304 92.0910 0.0000 0.0000 0.0000
# 4 0.0000 0.0000 0.0000 19.0891 0.0000 0.0000
# 5 0.0000 0.0000 0.0000 0.0000 18.1020 0.0000
# 6 0.0000 0.0000 0.0000 0.0000 0.0000 22.4657
#
#
#
# Elastic Compliance Matrix: (Units=1/GPa)
#
#
# Indices 1 2 3 4 5 6 
#
# 1 0.012772 -0.003245 -0.004259 0.000000 0.000000 0.000000
# 2 -0.003245 0.019443 -0.005919 0.000000 0.000000 0.000000
# 3 -0.004259 -0.005919 0.014912 0.000000 0.000000 0.000000
# 4 0.000000 0.000000 0.000000 0.052386 0.000000 0.000000
# 5 0.000000 0.000000 0.000000 0.000000 0.055243 0.000000
# 6 0.000000 0.000000 0.000000 0.000000 0.000000 0.044512
#
#
# Mechanical properties :
#
#
# Convention : Reuss Voigt Hill
#
# Bulk Modulus (GPa) = 49.31040 51.42604 50.36822
# Shear Modulus (GPa) = 21.47072 22.25762 21.86417
#
# Velocity S-wave (km/s) = 3.37361 3.43487 3.40438
# Velocity P-wave (km/s) = 6.42755 6.55676 6.49248
#
# Compressibility (1/GPa) = 0.02027970
#
# Stress axis : x y z
#
# Youngs Moduli (GPa) = 78.29806 51.43151 67.05961
#
# Poissons Ratio (x) = 0.16691 0.28562
# Poissons Ratio (y) = 0.25410 0.39694
# Poissons Ratio (z) = 0.33349 0.30443
#
# Static dielectric constant tensor:
#      x y z
#    x 3.745430 0.000000 0.000000 
#    y 0.000000 3.102200 0.000000 
#    z 0.000000 0.000000 3.808190 
# 
# 
# High freq. dielectric constant tensor:
#      x y z
#    x 1.736090 0.000000 0.000000 
#    y 0.000000 1.692900 0.000000 
#    z 0.000000 0.000000 1.747050 
# 
# From -- ./inp_files/39029.got.cif
#   From: 2010.03.12/outbox.cif.g09.slc.cpg/sg66_20_cif.got.tgz:39029.got - 2010.04.10 21:57:39.
