data_PCOD8276346
_publ_section_title
;
Structure prediction by ZEFSAII (Michael W. Deem and Ramdas Pophale) SiO2 
 PCOD8276346
Probable space group: C C C M
;
_chemical_formula_sum "Si O2"
_cell_formula_units_Z 80
_cell_length_a 34.311655
_cell_length_b 4.918597
_cell_length_c 23.077428
_cell_angle_alpha 90.000000
_cell_angle_beta 90.000000
_cell_angle_gamma 90.000000
_cell_volume 3894.666829
_symmetry_space_group_name_H-M "C C C M"
_symmetry_group_IT_number 66
_symmetry_cell_setting 'orthorhombic'
loop_
_space_group_symop_operation_xyz
x,y,z
-x,-y,z
x,-y,1/2-z
-x,y,1/2-z
-x,-y,-z
x,y,-z
-x,y,1/2+z
x,-y,1/2+z
1/2+x,1/2+y,z
1/2-x,1/2-y,z
1/2+x,1/2-y,1/2-z
1/2-x,1/2+y,1/2-z
1/2-x,1/2-y,-z
1/2+x,1/2+y,-z
1/2-x,1/2+y,1/2+z
1/2+x,1/2-y,1/2+z
loop_
_atom_site_type_symbol
_atom_site_label
_atom_site_fract_x
_atom_site_fract_y
_atom_site_fract_z
Si Si1 0.604585 0.178041 0.870627
Si Si2 0.630773 0.324234 0.692805
Si Si3 0.708110 0.668254 0.868161
Si Si4 0.526321 0.741917 0.435829
Si Si5 0.318447 0.152146 0.433987
O O1 0.612833 0.492322 0.857563
O O2 0.561020 0.167608 0.893906
O O3 0.635917 0.103200 0.919934
O O4 0.610159 0.973591 0.814573
O O5 0.622038 0.500000 0.750000
O O6 0.677037 0.279357 0.683554
O O7 0.750000 0.750000 0.841449
O O8 0.703470 0.361557 0.891111
O O9 0.701565 0.862271 0.923572
O O10 0.500000 0.500000 0.408596
O O11 0.541744 0.652440 0.500000
O O12 0.500000 0.000000 0.443102
O O13 0.313284 0.244570 0.500000
#
# Coordination Sequence:
#
# PCOD8276346 Si02
#       5
#    16  16  16  16  16
#     4  10  20  36  57  80 110 142 183 229 266 325
#     4  10  21  38  58  78 102 142 189 232 280 321
#     4  10  21  35  51  77 108 138 181 230 275 327
#     4  10  20  34  56  87 119 148 176 213 269 330
#     4  10  20  33  52  77 108 147 181 215 267 330
#
# _framework density 20.540908999999999
#
# number of rings (size 3 to 8) (size 9 to 14) (size 15 to 20)
#    0.000    2.000    0.000    3.600    0.000    2.400 
#    0.000   12.000    0.000    9.000    0.000    0.000 
#    0.000    0.000    0.000    0.000    0.000    0.000 
#
# Total GULP energy -495715.323262 kJ/mol
# GULP energy per Si atom -12392.883082 kJ/mol
# Density = 2.049416 g / cm^3
# Si number density = 20.540909 Si / 1000 Ang^3
#
#
#
# Elastic Constant Matrix: (Units=GPa)
#
#
# Indices 1 2 3 4 5 6 
#
# 1 130.2580 29.9327 30.4136 0.0000 0.0000 0.0000
# 2 29.9327 106.6657 5.1615 0.0000 0.0000 0.0000
# 3 30.4136 5.1615 42.9200 0.0000 0.0000 0.0000
# 4 0.0000 0.0000 0.0000 29.2065 0.0000 0.0000
# 5 0.0000 0.0000 0.0000 0.0000 16.2648 0.0000
# 6 0.0000 0.0000 0.0000 0.0000 0.0000 27.8304
#
#
#
# Elastic Compliance Matrix: (Units=1/GPa)
#
#
# Indices 1 2 3 4 5 6 
#
# 1 0.009785 -0.002424 -0.006642 0.000000 0.000000 0.000000
# 2 -0.002424 0.010031 0.000512 0.000000 0.000000 0.000000
# 3 -0.006642 0.000512 0.027944 0.000000 0.000000 0.000000
# 4 0.000000 0.000000 0.000000 0.034239 0.000000 0.000000
# 5 0.000000 0.000000 0.000000 0.000000 0.061482 0.000000
# 6 0.000000 0.000000 0.000000 0.000000 0.000000 0.035932
#
#
# Mechanical properties :
#
#
# Convention : Reuss Voigt Hill
#
# Bulk Modulus (GPa) = 32.62627 45.65104 39.13865
# Shear Modulus (GPa) = 24.18496 28.94941 26.56718
#
# Velocity S-wave (km/s) = 3.43506 3.75821 3.60026
# Velocity P-wave (km/s) = 5.62591 6.41131 6.03141
#
# Compressibility (1/GPa) = 0.03065015
#
# Stress axis : x y z
#
# Youngs Moduli (GPa) = 102.19626 99.69409 35.78535
#
# Poissons Ratio (x) = 0.24171 0.23770
# Poissons Ratio (y) = 0.24777 -0.01831
# Poissons Ratio (z) = 0.67881 -0.05102
#
# Static dielectric constant tensor:
#      x y z
#    x 3.591180 0.000000 0.000000 
#    y 0.000000 3.932330 0.000000 
#    z 0.000000 0.000000 3.330790 
# 
# 
# High freq. dielectric constant tensor:
#      x y z
#    x 1.792900 0.000000 0.000000 
#    y 0.000000 1.827480 0.000000 
#    z 0.000000 0.000000 1.768500 
# 
# From -- ./inp_files/54364.got.cif
#   From: 2010.03.12/outbox.cif.g09.slc.cpg/sg66_28_cif.got.tgz:54364.got - 2010.04.10 21:57:39.
