data_PCOD8276358
_publ_section_title
;
Structure prediction by ZEFSAII (Michael W. Deem and Ramdas Pophale) SiO2 
 PCOD8276358
Probable space group: C C C M
;
_chemical_formula_sum "Si O2"
_cell_formula_units_Z 116
_cell_length_a 9.588075
_cell_length_b 22.933565
_cell_length_c 26.785117
_cell_angle_alpha 90.000000
_cell_angle_beta 90.000000
_cell_angle_gamma 90.000000
_cell_volume 5889.745661
_symmetry_space_group_name_H-M "C C C M"
_symmetry_group_IT_number 66
_symmetry_cell_setting 'orthorhombic'
loop_
_space_group_symop_operation_xyz
x,y,z
-x,-y,z
x,-y,1/2-z
-x,y,1/2-z
-x,-y,-z
x,y,-z
-x,y,1/2+z
x,-y,1/2+z
1/2+x,1/2+y,z
1/2-x,1/2-y,z
1/2+x,1/2-y,1/2-z
1/2-x,1/2+y,1/2-z
1/2-x,1/2-y,-z
1/2+x,1/2+y,-z
1/2-x,1/2+y,1/2+z
1/2+x,1/2-y,1/2+z
loop_
_atom_site_type_symbol
_atom_site_label
_atom_site_fract_x
_atom_site_fract_y
_atom_site_fract_z
Si Si1 0.387642 0.668372 0.943351
Si Si2 0.894347 0.231104 0.708945
Si Si3 0.716148 0.083264 0.799312
Si Si4 0.067043 0.300395 0.556332
Si Si5 0.000000 0.500000 0.750000
Si Si6 0.466024 0.437674 0.371737
Si Si7 0.798105 0.112581 0.690016
Si Si8 0.480821 0.154163 0.154334
O O1 0.222653 0.675298 0.938037
O O2 0.449409 0.732004 0.929412
O O3 0.450443 0.616212 0.909838
O O4 0.427398 0.652353 0.000000
O O5 0.750000 0.250000 0.735422
O O6 0.860761 0.175555 0.674343
O O7 0.000000 0.208829 0.750000
O O8 0.958862 0.282536 0.677277
O O9 0.828159 0.057797 0.837794
O O10 0.796276 0.104954 0.749848
O O11 0.632500 0.135682 0.825655
O O12 0.600998 0.035441 0.786310
O O13 0.013014 0.310773 0.500000
O O14 0.975781 0.338924 0.594396
O O15 0.500000 0.500000 0.398931
O O16 0.601712 0.433198 0.336194
O O17 0.638639 0.108136 0.670232
#
# Coordination Sequence:
#
# PCOD8276358 Si02
#       8
#    16  16  16  16   4  16  16  16
#     4   9  19  39  63  90 120 155 200 250 308 373
#     4  10  20  33  53  81 120 155 189 239 294 357
#     4  12  23  40  61  83 116 168 210 247 293 356
#     4   9  18  36  65  94 118 149 198 253 305 372
#     4  12  24  40  62  80 114 160 214 260 282 336
#     4  12  25  39  59  89 119 162 205 254 304 351
#     4  11  23  39  54  86 126 158 197 241 298 359
#     4  11  20  37  60  87 118 155 201 242 303 358
#
# _framework density 19.695246999999998
#
# number of rings (size 3 to 8) (size 9 to 14) (size 15 to 20)
#    0.000    1.379    2.759    5.379    0.000    0.828 
#    2.483    0.690    0.000    5.379    0.000    2.897 
#    0.000    0.000    0.000    0.000    0.000    0.000 
#
# Total GULP energy -718807.955000 kJ/mol
# GULP energy per Si atom -12393.240603 kJ/mol
# Density = 1.965042 g / cm^3
# Si number density = 19.695247 Si / 1000 Ang^3
#
#
#
# Elastic Constant Matrix: (Units=GPa)
#
#
# Indices 1 2 3 4 5 6 
#
# 1 72.4861 30.5436 36.4054 0.0000 0.0000 0.0000
# 2 30.5436 92.2002 36.7346 0.0000 0.0000 0.0000
# 3 36.4054 36.7346 107.6037 0.0000 0.0000 0.0000
# 4 0.0000 0.0000 0.0000 25.9402 0.0000 0.0000
# 5 0.0000 0.0000 0.0000 0.0000 17.4033 0.0000
# 6 0.0000 0.0000 0.0000 0.0000 0.0000 31.4049
#
#
#
# Elastic Compliance Matrix: (Units=1/GPa)
#
#
# Indices 1 2 3 4 5 6 
#
# 1 0.017841 -0.004057 -0.004651 0.000000 0.000000 0.000000
# 2 -0.004057 0.013476 -0.003228 0.000000 0.000000 0.000000
# 3 -0.004651 -0.003228 0.011969 0.000000 0.000000 0.000000
# 4 0.000000 0.000000 0.000000 0.038550 0.000000 0.000000
# 5 0.000000 0.000000 0.000000 0.000000 0.057460 0.000000
# 6 0.000000 0.000000 0.000000 0.000000 0.000000 0.031842
#
#
# Mechanical properties :
#
#
# Convention : Reuss Voigt Hill
#
# Bulk Modulus (GPa) = 51.50978 53.29526 52.40252
# Shear Modulus (GPa) = 24.81601 26.19011 25.50306
#
# Velocity S-wave (km/s) = 3.55350 3.65055 3.60235
# Velocity P-wave (km/s) = 6.56099 6.69981 6.63077
#
# Compressibility (1/GPa) = 0.01941379
#
# Stress axis : x y z
#
# Youngs Moduli (GPa) = 56.04952 74.20543 83.54967
#
# Poissons Ratio (x) = 0.30107 0.38860
# Poissons Ratio (y) = 0.22741 0.26969
# Poissons Ratio (z) = 0.26069 0.23953
#
# Static dielectric constant tensor:
#      x y z
#    x 3.709760 0.000000 0.000000 
#    y 0.000000 3.656630 0.000000 
#    z 0.000000 0.000000 3.534560 
# 
# 
# High freq. dielectric constant tensor:
#      x y z
#    x 1.770510 0.000000 0.000000 
#    y 0.000000 1.769390 0.000000 
#    z 0.000000 0.000000 1.747400 
# 
# From -- ./inp_files/62898.got.cif
#   From: 2010.03.12/outbox.cif.g09.slc.cpg/sg66_32_cif.got.tgz:62898.got - 2010.04.10 21:57:39.
