data_PCOD8276176
_publ_section_title
;
Structure prediction by ZEFSAII (Michael W. Deem and Ramdas Pophale) SiO2 
 PCOD8276176
Probable space group: C C C M
;
_chemical_formula_sum "Si O2"
_cell_formula_units_Z 128
_cell_length_a 10.649709
_cell_length_b 25.517267
_cell_length_c 24.058711
_cell_angle_alpha 90.000000
_cell_angle_beta 90.000000
_cell_angle_gamma 90.000000
_cell_volume 6537.990033
_symmetry_space_group_name_H-M "C C C M"
_symmetry_group_IT_number 66
_symmetry_cell_setting 'orthorhombic'
loop_
_space_group_symop_operation_xyz
x,y,z
-x,-y,z
x,-y,1/2-z
-x,y,1/2-z
-x,-y,-z
x,y,-z
-x,y,1/2+z
x,-y,1/2+z
1/2+x,1/2+y,z
1/2-x,1/2-y,z
1/2+x,1/2-y,1/2-z
1/2-x,1/2+y,1/2-z
1/2-x,1/2-y,-z
1/2+x,1/2+y,-z
1/2-x,1/2+y,1/2+z
1/2+x,1/2-y,1/2+z
loop_
_atom_site_type_symbol
_atom_site_label
_atom_site_fract_x
_atom_site_fract_y
_atom_site_fract_z
Si Si1 0.988220 0.200453 0.889713
Si Si2 0.111688 0.571442 0.063145
Si Si3 0.324147 0.956641 0.563243
Si Si4 0.762058 0.345477 0.140520
Si Si5 0.367433 0.787989 0.560982
Si Si6 0.278071 0.633759 0.628221
Si Si7 0.853897 0.153903 0.750201
Si Si8 0.093199 0.260093 0.292198
O O1 0.850299 0.175640 0.899407
O O2 0.998363 0.219095 0.825400
O O3 0.009960 0.252206 0.927419
O O4 0.095286 0.156957 0.899146
O O5 0.190509 0.518544 0.075155
O O6 0.151576 0.616445 0.105428
O O7 0.966619 0.560368 0.072994
O O8 0.135906 0.590106 0.000000
O O9 0.283308 0.944172 0.500000
O O10 0.234965 0.925553 0.606108
O O11 0.707684 0.374806 0.195667
O O12 0.843048 0.295797 0.161618
O O13 0.383389 0.814063 0.500000
O O14 0.250000 0.750000 0.562825
O O15 0.343871 0.833526 0.606383
O O16 0.282568 0.634333 0.695057
O O17 0.819313 0.216530 0.759794
O O18 0.000000 0.139240 0.750000
O O19 0.000000 0.291239 0.250000
#
# Coordination Sequence:
#
# PCOD8276176 Si02
#       8
#    16  16  16  16  16  16  16  16
#     4  10  20  35  51  82 126 156 194 244 292 357
#     4   9  21  44  65  85 115 152 199 260 313 361
#     4   9  20  41  69  91 110 146 204 261 313 365
#     4  11  22  35  60  88 119 162 209 244 295 364
#     4   9  20  32  48  79 119 155 192 239 296 349
#     4  11  19  34  62  85 115 162 200 243 303 355
#     4  10  19  36  55  84 124 161 192 236 292 357
#     4  10  20  35  54  83 123 164 206 238 279 355
#
# _framework density 19.577883
#
# number of rings (size 3 to 8) (size 9 to 14) (size 15 to 20)
#    0.000    2.125    3.750    2.625    3.500    2.000 
#    0.000    1.250    0.000    8.250    0.000    0.000 
#    0.000    0.000    0.000    0.000    0.000    0.000 
#
# Total GULP energy -792930.663829 kJ/mol
# GULP energy per Si atom -12389.541622 kJ/mol
# Density = 1.953332 g / cm^3
# Si number density = 19.577883 Si / 1000 Ang^3
#
#
#
# Elastic Constant Matrix: (Units=GPa)
#
#
# Indices 1 2 3 4 5 6 
#
# 1 53.7342 30.2886 28.5239 0.0000 0.0000 0.0000
# 2 30.2886 80.7549 42.8048 0.0000 0.0000 0.0000
# 3 28.5239 42.8048 107.5186 0.0000 0.0000 0.0000
# 4 0.0000 0.0000 0.0000 34.3243 0.0000 0.0000
# 5 0.0000 0.0000 0.0000 0.0000 31.3825 0.0000
# 6 0.0000 0.0000 0.0000 0.0000 0.0000 27.0913
#
#
#
# Elastic Compliance Matrix: (Units=1/GPa)
#
#
# Indices 1 2 3 4 5 6 
#
# 1 0.024666 -0.007330 -0.003626 0.000000 0.000000 0.000000
# 2 -0.007330 0.017873 -0.005171 0.000000 0.000000 0.000000
# 3 -0.003626 -0.005171 0.012321 0.000000 0.000000 0.000000
# 4 0.000000 0.000000 0.000000 0.029134 0.000000 0.000000
# 5 0.000000 0.000000 0.000000 0.000000 0.031865 0.000000
# 6 0.000000 0.000000 0.000000 0.000000 0.000000 0.036912
#
#
# Mechanical properties :
#
#
# Convention : Reuss Voigt Hill
#
# Bulk Modulus (GPa) = 44.23248 49.47138 46.85193
# Shear Modulus (GPa) = 25.96577 27.91895 26.94236
#
# Velocity S-wave (km/s) = 3.64576 3.78040 3.71369
# Velocity P-wave (km/s) = 6.35329 6.66176 6.50935
#
# Compressibility (1/GPa) = 0.02260782
#
# Stress axis : x y z
#
# Youngs Moduli (GPa) = 40.54098 55.94941 81.16033
#
# Poissons Ratio (x) = 0.41009 0.29427
# Poissons Ratio (y) = 0.29715 0.41969
# Poissons Ratio (z) = 0.14699 0.28932
#
# Static dielectric constant tensor:
#      x y z
#    x 3.607300 0.000000 0.000000 
#    y 0.000000 3.413190 0.000000 
#    z 0.000000 0.000000 3.718140 
# 
# 
# High freq. dielectric constant tensor:
#      x y z
#    x 1.758450 0.000000 0.000000 
#    y 0.000000 1.728070 0.000000 
#    z 0.000000 0.000000 1.761820 
# 
# From -- ./inp_files/57417.got.cif
#   From: 2010.03.12/outbox.cif.g09.slc.cpg/sg66_29_cif.got.tgz:57417.got - 2010.04.10 21:57:39.
