data_PCOD8276624
_publ_section_title
;
Structure prediction by ZEFSAII (Michael W. Deem and Ramdas Pophale) SiO2 
 PCOD8276624
Probable space group: C C C M
;
_chemical_formula_sum "Si O2"
_cell_formula_units_Z 112
_cell_length_a 13.057293
_cell_length_b 13.273764
_cell_length_c 29.825424
_cell_angle_alpha 90.000000
_cell_angle_beta 90.000000
_cell_angle_gamma 90.000000
_cell_volume 5169.325361
_symmetry_space_group_name_H-M "C C C M"
_symmetry_group_IT_number 66
_symmetry_cell_setting 'orthorhombic'
loop_
_space_group_symop_operation_xyz
x,y,z
-x,-y,z
x,-y,1/2-z
-x,y,1/2-z
-x,-y,-z
x,y,-z
-x,y,1/2+z
x,-y,1/2+z
1/2+x,1/2+y,z
1/2-x,1/2-y,z
1/2+x,1/2-y,1/2-z
1/2-x,1/2+y,1/2-z
1/2-x,1/2-y,-z
1/2+x,1/2+y,-z
1/2-x,1/2+y,1/2+z
1/2+x,1/2-y,1/2+z
loop_
_atom_site_type_symbol
_atom_site_label
_atom_site_fract_x
_atom_site_fract_y
_atom_site_fract_z
Si Si1 0.892325 0.952571 0.551097
Si Si2 0.411947 0.693703 0.784430
Si Si3 0.907202 0.427985 0.131070
Si Si4 0.177868 0.527743 0.548939
Si Si5 0.696071 0.093800 0.781861
Si Si6 0.867613 0.251680 0.551272
Si Si7 0.959438 0.800165 0.383584
O O1 0.896794 0.912019 0.500000
O O2 0.875437 0.858225 0.585402
O O3 0.802155 0.036808 0.556487
O O4 0.000000 0.000000 0.565774
O O5 0.500000 0.664156 0.750000
O O6 0.383039 0.811941 0.777548
O O7 0.311789 0.627999 0.773176
O O8 0.457123 0.657368 0.832857
O O9 0.865375 0.447845 0.082324
O O10 0.817117 0.444990 0.167223
O O11 0.937058 0.313913 0.126656
O O12 0.000000 0.500000 0.145411
O O13 0.160793 0.480988 0.500000
O O14 0.111061 0.628895 0.553375
O O15 0.666383 0.000000 0.750000
O O16 0.886015 0.210314 0.500000
O O17 0.750000 0.250000 0.565117
O O18 0.934019 0.192535 0.588270
#
# Coordination Sequence:
#
# PCOD8276624 Si02
#       7
#    16  16  16  16  16  16  16
#     4  10  21  39  62  90 125 171 218 257 311 382
#     4  10  24  46  64 101 133 158 215 276 324 394
#     4  11  23  40  64  95 125 162 216 260 312 385
#     4  10  21  36  56  88 128 163 206 261 304 363
#     4  10  24  44  73  92 125 174 210 264 332 392
#     4  10  20  36  58  88 126 170 218 261 310 371
#     4  11  22  40  64  89 125 169 205 265 326 372
#
# _framework density 21.666270000000001
#
# number of rings (size 3 to 8) (size 9 to 14) (size 15 to 20)
#    0.000    1.714    1.429    2.143    4.000    5.714 
#   10.286    1.429    0.000    0.000    0.000    0.000 
#    0.000    0.000    0.000    0.000    0.000    0.000 
#
# Total GULP energy -693785.566863 kJ/mol
# GULP energy per Si atom -12389.027980 kJ/mol
# Density = 2.161696 g / cm^3
# Si number density = 21.666270 Si / 1000 Ang^3
#
#
#
# Elastic Constant Matrix: (Units=GPa)
#
#
# Indices 1 2 3 4 5 6 
#
# 1 90.2950 3.9891 43.7278 0.0000 0.0000 0.0000
# 2 3.9891 51.3078 24.1438 0.0000 0.0000 0.0000
# 3 43.7278 24.1438 130.5106 0.0000 0.0000 0.0000
# 4 0.0000 0.0000 0.0000 36.6856 0.0000 0.0000
# 5 0.0000 0.0000 0.0000 0.0000 45.9794 0.0000
# 6 0.0000 0.0000 0.0000 0.0000 0.0000 22.9135
#
#
#
# Elastic Compliance Matrix: (Units=1/GPa)
#
#
# Indices 1 2 3 4 5 6 
#
# 1 0.013283 0.001163 -0.004666 0.000000 0.000000 0.000000
# 2 0.001163 0.021450 -0.004358 0.000000 0.000000 0.000000
# 3 -0.004666 -0.004358 0.010032 0.000000 0.000000 0.000000
# 4 0.000000 0.000000 0.000000 0.027259 0.000000 0.000000
# 5 0.000000 0.000000 0.000000 0.000000 0.021749 0.000000
# 6 0.000000 0.000000 0.000000 0.000000 0.000000 0.043642
#
#
# Mechanical properties :
#
#
# Convention : Reuss Voigt Hill
#
# Bulk Modulus (GPa) = 34.43093 46.20388 40.31740
# Shear Modulus (GPa) = 30.70927 34.46586 32.58756
#
# Velocity S-wave (km/s) = 3.76889 3.99276 3.88244
# Velocity P-wave (km/s) = 5.90469 6.52899 6.22467
#
# Compressibility (1/GPa) = 0.02904366
#
# Stress axis : x y z
#
# Youngs Moduli (GPa) = 75.28496 46.61907 99.68506
#
# Poissons Ratio (x) = -0.05421 0.46509
# Poissons Ratio (y) = -0.08754 0.43441
# Poissons Ratio (z) = 0.35125 0.20316
#
# Static dielectric constant tensor:
#      x y z
#    x 3.922810 0.000000 0.000000 
#    y 0.000000 4.051490 0.000000 
#    z 0.000000 0.000000 4.342730 
# 
# 
# High freq. dielectric constant tensor:
#      x y z
#    x 1.845410 0.000000 0.000000 
#    y 0.000000 1.849830 0.000000 
#    z 0.000000 0.000000 1.853370 
# 
# From -- ./inp_files/58261.got.cif
#   From: 2010.03.12/outbox.cif.g09.slc.cpg/sg66_30_cif.got.tgz:58261.got - 2010.04.10 21:57:39.
