data_PCOD8276220
_publ_section_title
;
Structure prediction by ZEFSAII (Michael W. Deem and Ramdas Pophale) SiO2 
 PCOD8276220
Probable space group: C C C M
;
_chemical_formula_sum "Si O2"
_cell_formula_units_Z 96
_cell_length_a 15.149738
_cell_length_b 11.347632
_cell_length_c 30.494952
_cell_angle_alpha 90.000000
_cell_angle_beta 90.000000
_cell_angle_gamma 90.000000
_cell_volume 5242.498557
_symmetry_space_group_name_H-M "C C C M"
_symmetry_group_IT_number 66
_symmetry_cell_setting 'orthorhombic'
loop_
_space_group_symop_operation_xyz
x,y,z
-x,-y,z
x,-y,1/2-z
-x,y,1/2-z
-x,-y,-z
x,y,-z
-x,y,1/2+z
x,-y,1/2+z
1/2+x,1/2+y,z
1/2-x,1/2-y,z
1/2+x,1/2-y,1/2-z
1/2-x,1/2+y,1/2-z
1/2-x,1/2-y,-z
1/2+x,1/2+y,-z
1/2-x,1/2+y,1/2+z
1/2+x,1/2-y,1/2+z
loop_
_atom_site_type_symbol
_atom_site_label
_atom_site_fract_x
_atom_site_fract_y
_atom_site_fract_z
Si Si1 0.210454 0.085396 0.594872
Si Si2 0.463289 0.689540 0.500000
Si Si3 0.207186 0.374650 0.131322
Si Si4 0.878390 0.299819 0.869278
Si Si5 0.896201 0.517110 0.300114
Si Si6 0.963128 0.374115 0.423344
Si Si7 0.862681 0.961359 0.500000
O O1 0.141098 0.160799 0.624832
O O2 0.308978 0.138161 0.597891
O O3 0.188913 0.078488 0.543476
O O4 0.210586 0.957184 0.617284
O O5 0.466708 0.773014 0.458720
O O6 0.377618 0.603419 0.500000
O O7 0.545895 0.605011 0.500000
O O8 0.250000 0.250000 0.140700
O O9 0.157735 0.416308 0.174944
O O10 0.137919 0.380784 0.091452
O O11 0.867749 0.353721 0.819888
O O12 0.977173 0.332254 0.882832
O O13 0.868391 0.500000 0.250000
O O14 0.000000 0.500000 0.306776
O O15 0.000000 0.500000 0.440914
#
# Coordination Sequence:
#
# PCOD8276220 Si02
#       7
#    16   8  16  16  16  16   8
#     4  10  21  36  59  82 117 157 196 245 285 344
#     4  11  25  34  55  82 114 161 202 246 287 340
#     4  11  22  39  58  87 120 152 191 241 306 349
#     4  10  19  37  60  84 109 151 196 237 291 348
#     4  10  19  38  66  88 111 149 195 241 290 356
#     4  12  20  40  59  80 115 151 202 244 282 346
#     4  11  22  39  50  82 122 158 205 236 298 352
#
# _framework density 18.311879999999999
#
# number of rings (size 3 to 8) (size 9 to 14) (size 15 to 20)
#    0.000    1.333    6.667    1.250    0.000    2.667 
#    6.000    1.667    0.000    0.000    0.000    2.333 
#    0.000    0.000    0.000    0.000    0.000    0.000 
#
# Total GULP energy -594871.740688 kJ/mol
# GULP energy per Si atom -12393.161264 kJ/mol
# Density = 1.827020 g / cm^3
# Si number density = 18.311880 Si / 1000 Ang^3
#
#
#
# Elastic Constant Matrix: (Units=GPa)
#
#
# Indices 1 2 3 4 5 6 
#
# 1 52.1537 36.3204 27.1374 0.0000 0.0000 0.0000
# 2 36.3204 139.9436 60.3709 0.0000 0.0000 0.0000
# 3 27.1374 60.3709 134.6493 0.0000 0.0000 0.0000
# 4 0.0000 0.0000 0.0000 19.1149 0.0000 0.0000
# 5 0.0000 0.0000 0.0000 0.0000 14.3470 0.0000
# 6 0.0000 0.0000 0.0000 0.0000 0.0000 26.3971
#
#
#
# Elastic Compliance Matrix: (Units=1/GPa)
#
#
# Indices 1 2 3 4 5 6 
#
# 1 0.024087 -0.005154 -0.002544 0.000000 0.000000 0.000000
# 2 -0.005154 0.009962 -0.003428 0.000000 0.000000 0.000000
# 3 -0.002544 -0.003428 0.009476 0.000000 0.000000 0.000000
# 4 0.000000 0.000000 0.000000 0.052315 0.000000 0.000000
# 5 0.000000 0.000000 0.000000 0.000000 0.069701 0.000000
# 6 0.000000 0.000000 0.000000 0.000000 0.000000 0.037883
#
#
# Mechanical properties :
#
#
# Convention : Reuss Voigt Hill
#
# Bulk Modulus (GPa) = 47.00522 63.82264 55.41393
# Shear Modulus (GPa) = 21.48069 25.49967 23.49018
#
# Velocity S-wave (km/s) = 3.42869 3.73570 3.58548
# Velocity P-wave (km/s) = 6.43425 7.31683 6.88969
#
# Compressibility (1/GPa) = 0.02127423
#
# Stress axis : x y z
#
# Youngs Moduli (GPa) = 41.51609 100.37976 105.52708
#
# Poissons Ratio (x) = 0.51737 0.26842
# Poissons Ratio (y) = 0.21398 0.36173
# Poissons Ratio (z) = 0.10560 0.34408
#
# Static dielectric constant tensor:
#      x y z
#    x 3.423340 0.000000 0.000000 
#    y 0.000000 3.884430 0.000000 
#    z 0.000000 0.000000 3.368300 
# 
# 
# High freq. dielectric constant tensor:
#      x y z
#    x 1.707960 0.000000 0.000000 
#    y 0.000000 1.719180 0.000000 
#    z 0.000000 0.000000 1.692400 
# 
# From -- ./inp_files/69488.got.cif
#   From: 2010.03.12/outbox.cif.g09.slc.cpg/sg66_35_cif.got.tgz:69488.got - 2010.04.10 21:57:39.
