data_PCOD8276163
_publ_section_title
;
Structure prediction by ZEFSAII (Michael W. Deem and Ramdas Pophale) SiO2 
 PCOD8276163
Probable space group: C C C M
;
_chemical_formula_sum "Si O2"
_cell_formula_units_Z 116
_cell_length_a 27.922996
_cell_length_b 19.816658
_cell_length_c 10.274823
_cell_angle_alpha 90.000000
_cell_angle_beta 90.000000
_cell_angle_gamma 90.000000
_cell_volume 5685.475306
_symmetry_space_group_name_H-M "C C C M"
_symmetry_group_IT_number 66
_symmetry_cell_setting 'orthorhombic'
loop_
_space_group_symop_operation_xyz
x,y,z
-x,-y,z
x,-y,1/2-z
-x,y,1/2-z
-x,-y,-z
x,y,-z
-x,y,1/2+z
x,-y,1/2+z
1/2+x,1/2+y,z
1/2-x,1/2-y,z
1/2+x,1/2-y,1/2-z
1/2-x,1/2+y,1/2-z
1/2-x,1/2-y,-z
1/2+x,1/2+y,-z
1/2-x,1/2+y,1/2+z
1/2+x,1/2-y,1/2+z
loop_
_atom_site_type_symbol
_atom_site_label
_atom_site_fract_x
_atom_site_fract_y
_atom_site_fract_z
Si Si1 0.072450 0.096176 0.641940
Si Si2 0.043876 0.663299 0.648748
Si Si3 0.805127 0.818274 0.787588
Si Si4 0.500000 0.500000 0.750000
Si Si5 0.127412 0.438027 0.848380
Si Si6 0.589282 0.304783 0.358708
Si Si7 0.702109 0.825545 0.144581
Si Si8 0.822580 0.946509 0.644979
O O1 0.072597 0.131210 0.500000
O O2 0.062501 0.153642 0.748059
O O3 0.120595 0.053653 0.662433
O O4 0.030358 0.043237 0.649631
O O5 0.023930 0.663518 0.500000
O O6 0.076086 0.597282 0.672787
O O7 0.079925 0.726067 0.671088
O O8 0.000000 0.664305 0.750000
O O9 0.854943 0.826013 0.864306
O O10 0.758676 0.841934 0.869487
O O11 0.802724 0.737764 0.754964
O O12 0.805041 0.868860 0.664322
O O13 0.130360 0.500000 0.750000
O O14 0.171237 0.388909 0.807100
O O15 0.133034 0.460529 0.000000
O O16 0.567485 0.323485 0.500000
O O17 0.683455 0.804074 0.000000
O O18 0.806979 0.969402 0.500000
O O19 0.801078 0.000000 0.750000
#
# Coordination Sequence:
#
# PCOD8276163 Si02
#       8
#    16  16  16   4  16  16  16  16
#     4  10  23  38  54  78 109 149 198 249 299 352
#     4  10  22  40  62  90 123 158 203 254 308 369
#     4  10  19  35  62  93 120 157 201 250 296 355
#     4  12  22  40  56  78 110 160 206 254 298 356
#     4  10  22  42  64  91 127 163 204 255 309 374
#     4  10  20  37  61  89 119 155 197 250 303 355
#     4  10  19  35  62  95 125 158 203 246 296 367
#     4  10  22  40  57  81 116 156 199 247 299 356
#
# _framework density 20.402867000000001
#
# number of rings (size 3 to 8) (size 9 to 14) (size 15 to 20)
#    0.000    1.931    2.069    1.862    0.966    6.345 
#    0.000    5.517    0.000    0.000    0.000    0.000 
#    0.000    0.000    0.000    0.000    0.000    0.000 
#
# Total GULP energy -718604.234350 kJ/mol
# GULP energy per Si atom -12389.728178 kJ/mol
# Density = 2.035643 g / cm^3
# Si number density = 20.402867 Si / 1000 Ang^3
#
#
#
# Elastic Constant Matrix: (Units=GPa)
#
#
# Indices 1 2 3 4 5 6 
#
# 1 89.3514 44.5514 39.5206 0.0000 0.0000 0.0000
# 2 44.5514 131.6904 88.1156 0.0000 0.0000 0.0000
# 3 39.5206 88.1156 139.8785 0.0000 0.0000 0.0000
# 4 0.0000 0.0000 0.0000 32.8785 0.0000 0.0000
# 5 0.0000 0.0000 0.0000 0.0000 9.3340 0.0000
# 6 0.0000 0.0000 0.0000 0.0000 0.0000 29.3205
#
#
#
# Elastic Compliance Matrix: (Units=1/GPa)
#
#
# Indices 1 2 3 4 5 6 
#
# 1 0.013677 -0.003529 -0.001641 0.000000 0.000000 0.000000
# 2 -0.003529 0.014037 -0.007845 0.000000 0.000000 0.000000
# 3 -0.001641 -0.007845 0.012555 0.000000 0.000000 0.000000
# 4 0.000000 0.000000 0.000000 0.030415 0.000000 0.000000
# 5 0.000000 0.000000 0.000000 0.000000 0.107135 0.000000
# 6 0.000000 0.000000 0.000000 0.000000 0.000000 0.034106
#
#
# Mechanical properties :
#
#
# Convention : Reuss Voigt Hill
#
# Bulk Modulus (GPa) = 70.23505 78.36616 74.30061
# Shear Modulus (GPa) = 20.60138 26.88878 23.74508
#
# Velocity S-wave (km/s) = 3.18107 3.63422 3.41517
# Velocity P-wave (km/s) = 6.92756 7.49018 7.21436
#
# Compressibility (1/GPa) = 0.01423790
#
# Stress axis : x y z
#
# Youngs Moduli (GPa) = 73.11413 71.24119 79.64987
#
# Poissons Ratio (x) = 0.25140 0.13073
# Poissons Ratio (y) = 0.25801 0.62488
# Poissons Ratio (z) = 0.12001 0.55891
#
# Static dielectric constant tensor:
#      x y z
#    x 3.738780 0.000000 0.000000 
#    y 0.000000 3.658840 0.000000 
#    z 0.000000 0.000000 3.582440 
# 
# 
# High freq. dielectric constant tensor:
#      x y z
#    x 1.796930 0.000000 0.000000 
#    y 0.000000 1.791780 0.000000 
#    z 0.000000 0.000000 1.779140 
# 
# From -- ./inp_files/20790.got.cif
#   From: 2010.03.12/outbox.cif.g09.slc.cpg/sg66_11_cif.got.tgz:20790.got - 2010.04.10 21:57:39.
