data_PCOD8276572
_publ_section_title
;
Structure prediction by ZEFSAII (Michael W. Deem and Ramdas Pophale) SiO2 
 PCOD8276572
Probable space group: C C C M
;
_chemical_formula_sum "Si O2"
_cell_formula_units_Z 88
_cell_length_a 12.934481
_cell_length_b 20.331404
_cell_length_c 16.892258
_cell_angle_alpha 90.000000
_cell_angle_beta 90.000000
_cell_angle_gamma 90.000000
_cell_volume 4442.261121
_symmetry_space_group_name_H-M "C C C M"
_symmetry_group_IT_number 66
_symmetry_cell_setting 'orthorhombic'
loop_
_space_group_symop_operation_xyz
x,y,z
-x,-y,z
x,-y,1/2-z
-x,y,1/2-z
-x,-y,-z
x,y,-z
-x,y,1/2+z
x,-y,1/2+z
1/2+x,1/2+y,z
1/2-x,1/2-y,z
1/2+x,1/2-y,1/2-z
1/2-x,1/2+y,1/2-z
1/2-x,1/2-y,-z
1/2+x,1/2+y,-z
1/2-x,1/2+y,1/2+z
1/2+x,1/2-y,1/2+z
loop_
_atom_site_type_symbol
_atom_site_label
_atom_site_fract_x
_atom_site_fract_y
_atom_site_fract_z
Si Si1 0.412098 0.291091 0.411932
Si Si2 0.898572 0.673212 0.295699
Si Si3 0.240634 0.394984 0.409343
Si Si4 0.118202 0.008358 0.157071
Si Si5 0.623505 0.353537 0.409719
Si Si6 0.250000 0.750000 0.316016
O O1 0.415286 0.259964 0.500000
O O2 0.432122 0.234509 0.349283
O O3 0.303399 0.327023 0.397646
O O4 0.499817 0.346645 0.402948
O O5 0.857036 0.613062 0.350395
O O6 0.810660 0.696298 0.235294
O O7 0.000000 0.647219 0.250000
O O8 0.203305 0.402459 0.500000
O O9 0.309401 0.457426 0.388094
O O10 0.158090 0.080954 0.135720
O O11 0.129115 0.000000 0.250000
O O12 0.000000 0.000000 0.128499
O O13 0.660778 0.358690 0.500000
O O14 0.671498 0.289068 0.371128
#
# Coordination Sequence:
#
# PCOD8276572 Si02
#       6
#    16  16  16  16  16   8
#     4  10  20  35  59  91 129 166 204 252 314 380
#     4  12  23  37  60  90 127 168 214 262 313 367
#     4  11  22  39  62  93 130 170 210 254 317 383
#     4  11  23  37  63  95 130 162 199 252 318 384
#     4  11  23  39  59  90 127 164 202 251 313 375
#     4  12  23  38  61  86 120 162 212 258 309 360
#
# _framework density 19.809732
#
# number of rings (size 3 to 8) (size 9 to 14) (size 15 to 20)
#    0.000    0.909    5.455    2.455    0.000    2.182 
#    0.000    0.000    0.000    4.909    0.000    6.364 
#    0.000    0.000    0.000    0.000    0.000    0.000 
#
# Total GULP energy -545792.213696 kJ/mol
# GULP energy per Si atom -12404.368493 kJ/mol
# Density = 1.976464 g / cm^3
# Si number density = 19.809732 Si / 1000 Ang^3
#
#
#
# Elastic Constant Matrix: (Units=GPa)
#
#
# Indices 1 2 3 4 5 6 
#
# 1 87.1095 19.1442 50.1305 0.0000 0.0000 0.0000
# 2 19.1442 77.5354 40.8285 0.0000 0.0000 0.0000
# 3 50.1305 40.8285 127.1860 0.0000 0.0000 0.0000
# 4 0.0000 0.0000 0.0000 26.3759 0.0000 0.0000
# 5 0.0000 0.0000 0.0000 0.0000 0.8165 0.0000
# 6 0.0000 0.0000 0.0000 0.0000 0.0000 31.1324
#
#
#
# Elastic Compliance Matrix: (Units=1/GPa)
#
#
# Indices 1 2 3 4 5 6 
#
# 1 0.014880 -0.000705 -0.005639 0.000000 0.000000 0.000000
# 2 -0.000705 0.015554 -0.004715 0.000000 0.000000 0.000000
# 3 -0.005639 -0.004715 0.011599 0.000000 0.000000 0.000000
# 4 0.000000 0.000000 0.000000 0.037913 0.000000 0.000000
# 5 0.000000 0.000000 0.000000 0.000000 1.224765 0.000000
# 6 0.000000 0.000000 0.000000 0.000000 0.000000 0.032121
#
#
# Mechanical properties :
#
#
# Convention : Reuss Voigt Hill
#
# Bulk Modulus (GPa) = 50.21291 56.89302 53.55296
# Shear Modulus (GPa) = 3.66143 23.78014 13.72078
#
# Velocity S-wave (km/s) = 1.36100 3.46848 2.63464
# Velocity P-wave (km/s) = 5.27943 6.69496 6.02888
#
# Compressibility (1/GPa) = 0.01991520
#
# Stress axis : x y z
#
# Youngs Moduli (GPa) = 67.20597 64.29066 86.21686
#
# Poissons Ratio (x) = 0.04531 0.48614
# Poissons Ratio (y) = 0.04736 0.40655
# Poissons Ratio (z) = 0.37895 0.30316
#
# Static dielectric constant tensor:
#      x y z
#    x 3.526990 0.000000 0.000000 
#    y 0.000000 3.346420 0.000000 
#    z 0.000000 0.000000 3.809130 
# 
# 
# High freq. dielectric constant tensor:
#      x y z
#    x 1.757070 0.000000 0.000000 
#    y 0.000000 1.754640 0.000000 
#    z 0.000000 0.000000 1.792630 
# 
# From -- ./inp_files/40346.got.cif
#   From: 2010.03.12/outbox.cif.g09.slc.cpg/sg66_21_cif.got.tgz:40346.got - 2010.04.10 21:57:39.
