data_PCOD8276127
_publ_section_title
;
Structure prediction by ZEFSAII (Michael W. Deem and Ramdas Pophale) SiO2 
 PCOD8276127
Probable space group: C C C M
;
_chemical_formula_sum "Si O2"
_cell_formula_units_Z 116
_cell_length_a 22.761902
_cell_length_b 26.956628
_cell_length_c 8.887110
_cell_angle_alpha 90.000000
_cell_angle_beta 90.000000
_cell_angle_gamma 90.000000
_cell_volume 5452.989611
_symmetry_space_group_name_H-M "C C C M"
_symmetry_group_IT_number 66
_symmetry_cell_setting 'orthorhombic'
loop_
_space_group_symop_operation_xyz
x,y,z
-x,-y,z
x,-y,1/2-z
-x,y,1/2-z
-x,-y,-z
x,y,-z
-x,y,1/2+z
x,-y,1/2+z
1/2+x,1/2+y,z
1/2-x,1/2-y,z
1/2+x,1/2-y,1/2-z
1/2-x,1/2+y,1/2-z
1/2-x,1/2-y,-z
1/2+x,1/2+y,-z
1/2-x,1/2+y,1/2+z
1/2+x,1/2-y,1/2+z
loop_
_atom_site_type_symbol
_atom_site_label
_atom_site_fract_x
_atom_site_fract_y
_atom_site_fract_z
Si Si1 0.940012 0.769486 0.176475
Si Si2 0.783390 0.551747 0.321007
Si Si3 0.747701 0.806339 0.322788
Si Si4 0.371152 0.171205 0.173774
Si Si5 0.629625 0.645308 0.678219
Si Si6 0.090130 0.582315 0.167987
Si Si7 0.830198 0.946343 0.179508
Si Si8 0.500000 0.000000 0.750000
O O1 0.892742 0.726409 0.206648
O O2 0.921457 0.819031 0.262539
O O3 0.000000 0.750555 0.250000
O O4 0.947719 0.779712 0.000000
O O5 0.765397 0.500000 0.250000
O O6 0.779842 0.552251 0.500000
O O7 0.848431 0.563310 0.262454
O O8 0.728783 0.581681 0.249618
O O9 0.737770 0.808610 0.500000
O O10 0.750000 0.750000 0.262850
O O11 0.692040 0.836442 0.254054
O O12 0.808672 0.830289 0.274325
O O13 0.421174 0.131603 0.232991
O O14 0.362542 0.160425 0.000000
O O15 0.623627 0.637871 0.500000
O O16 0.620540 0.592824 0.765017
O O17 0.041864 0.538200 0.161087
O O18 0.098924 0.601226 0.000000
O O19 0.845279 0.000000 0.250000
O O20 0.826481 0.950519 0.000000
#
# Coordination Sequence:
#
# PCOD8276127 Si02
#       8
#    16  16  16  16  16  16  16   4
#     4  11  25  44  64  91 124 165 212 259 309 371
#     4  10  19  35  56  82 114 154 198 249 308 374
#     4  10  20  37  63  96 131 169 209 255 319 387
#     4  11  25  41  63  93 126 163 210 265 323 385
#     4  11  22  39  65  95 129 169 209 256 313 377
#     4  11  25  42  62  83 113 155 207 267 329 387
#     4  11  22  37  60  93 129 164 203 249 302 369
#     4  12  26  48  64  90 110 160 224 294 338 392
#
# _framework density 21.272735000000001
#
# number of rings (size 3 to 8) (size 9 to 14) (size 15 to 20)
#    0.000    1.241    2.069    4.759    0.966    8.552 
#    0.000    0.000    0.000    0.414    0.000    2.897 
#    0.000    0.000    0.000    0.000    0.000    0.000 
#
# Total GULP energy -718738.026484 kJ/mol
# GULP energy per Si atom -12392.034939 kJ/mol
# Density = 2.122432 g / cm^3
# Si number density = 21.272735 Si / 1000 Ang^3
#
#
#
# Elastic Constant Matrix: (Units=GPa)
#
#
# Indices 1 2 3 4 5 6 
#
# 1 51.7330 13.2599 23.5537 0.0000 0.0000 0.0000
# 2 13.2599 89.9741 34.2919 0.0000 0.0000 0.0000
# 3 23.5537 34.2919 108.0006 0.0000 0.0000 0.0000
# 4 0.0000 0.0000 0.0000 31.4645 0.0000 0.0000
# 5 0.0000 0.0000 0.0000 0.0000 24.2124 0.0000
# 6 0.0000 0.0000 0.0000 0.0000 0.0000 29.8814
#
#
#
# Elastic Compliance Matrix: (Units=1/GPa)
#
#
# Indices 1 2 3 4 5 6 
#
# 1 0.021657 -0.001583 -0.004221 0.000000 0.000000 0.000000
# 2 -0.001583 0.012760 -0.003706 0.000000 0.000000 0.000000
# 3 -0.004221 -0.003706 0.011356 0.000000 0.000000 0.000000
# 4 0.000000 0.000000 0.000000 0.031782 0.000000 0.000000
# 5 0.000000 0.000000 0.000000 0.000000 0.041301 0.000000
# 6 0.000000 0.000000 0.000000 0.000000 0.000000 0.033466
#
#
# Mechanical properties :
#
#
# Convention : Reuss Voigt Hill
#
# Bulk Modulus (GPa) = 37.37752 43.54652 40.46202
# Shear Modulus (GPa) = 27.73760 29.01848 28.37804
#
# Velocity S-wave (km/s) = 3.61488 3.69740 3.65637
# Velocity P-wave (km/s) = 5.91877 6.22436 6.07349
#
# Compressibility (1/GPa) = 0.02675405
#
# Stress axis : x y z
#
# Youngs Moduli (GPa) = 46.17360 78.36861 88.05552
#
# Poissons Ratio (x) = 0.12407 0.37164
# Poissons Ratio (y) = 0.07310 0.32636
# Poissons Ratio (z) = 0.19488 0.29046
#
# Static dielectric constant tensor:
#      x y z
#    x 3.704510 0.000000 0.000000 
#    y 0.000000 4.054230 0.000000 
#    z 0.000000 0.000000 3.680810 
# 
# 
# High freq. dielectric constant tensor:
#      x y z
#    x 1.813080 0.000000 0.000000 
#    y 0.000000 1.852870 0.000000 
#    z 0.000000 0.000000 1.832420 
# 
# From -- ./inp_files/9440.got.cif
#   From: 2010.03.12/outbox.cif.g09.slc.cpg/sg66_5_cif.got.tgz:9440.got - 2010.04.10 21:57:39.
