data_PCOD8276141
_publ_section_title
;
Structure prediction by ZEFSAII (Michael W. Deem and Ramdas Pophale) SiO2 
 PCOD8276141
Probable space group: C C C M
;
_chemical_formula_sum "Si O2"
_cell_formula_units_Z 80
_cell_length_a 28.789100
_cell_length_b 15.459302
_cell_length_c 8.916027
_cell_angle_alpha 90.000000
_cell_angle_beta 90.000000
_cell_angle_gamma 90.000000
_cell_volume 3968.161549
_symmetry_space_group_name_H-M "C C C M"
_symmetry_group_IT_number 66
_symmetry_cell_setting 'orthorhombic'
loop_
_space_group_symop_operation_xyz
x,y,z
-x,-y,z
x,-y,1/2-z
-x,y,1/2-z
-x,-y,-z
x,y,-z
-x,y,1/2+z
x,-y,1/2+z
1/2+x,1/2+y,z
1/2-x,1/2-y,z
1/2+x,1/2-y,1/2-z
1/2-x,1/2+y,1/2-z
1/2-x,1/2-y,-z
1/2+x,1/2+y,-z
1/2-x,1/2+y,1/2+z
1/2+x,1/2-y,1/2+z
loop_
_atom_site_type_symbol
_atom_site_label
_atom_site_fract_x
_atom_site_fract_y
_atom_site_fract_z
Si Si1 0.640332 0.085959 0.322482
Si Si2 0.453730 0.655164 0.825020
Si Si3 0.144233 0.911809 0.822768
Si Si4 0.047389 0.644869 0.177386
Si Si5 0.195717 0.243509 0.173069
O O1 0.636841 0.075774 0.500000
O O2 0.589356 0.094083 0.252505
O O3 0.672089 0.167001 0.276240
O O4 0.663276 0.000000 0.250000
O O5 0.500000 0.616054 0.750000
O O6 0.408556 0.604142 0.766957
O O7 0.446743 0.754728 0.779848
O O8 0.460298 0.644449 0.000000
O O9 0.176623 0.833480 0.773652
O O10 0.162917 0.000000 0.750000
O O11 0.146725 0.919545 0.000000
O O12 0.000000 0.608886 0.250000
O O13 0.047092 0.629211 0.000000
O O14 0.250000 0.250000 0.203283
O O15 0.184578 0.223289 0.000000
#
# Coordination Sequence:
#
# PCOD8276141 Si02
#       5
#    16  16  16  16  16
#     4  11  23  39  62  90 122 159 199 247 301 358
#     4   9  19  34  56  85 120 160 201 244 292 350
#     4  11  23  40  62  92 125 162 204 249 301 358
#     4  10  19  35  58  87 122 159 203 245 294 354
#     4  10  23  44  67  91 120 155 199 252 309 365
#
# _framework density 20.160468000000002
#
# number of rings (size 3 to 8) (size 9 to 14) (size 15 to 20)
#    0.000    1.800    2.000    1.800    0.000    5.200 
#    0.000    6.000    0.000    0.000    0.000    0.000 
#    0.000    0.000    0.000    0.000    0.000    0.000 
#
# Total GULP energy -496175.317210 kJ/mol
# GULP energy per Si atom -12404.382930 kJ/mol
# Density = 2.011458 g / cm^3
# Si number density = 20.160468 Si / 1000 Ang^3
#
#
#
# Elastic Constant Matrix: (Units=GPa)
#
#
# Indices 1 2 3 4 5 6 
#
# 1 108.6087 57.4422 44.2954 0.0000 0.0000 0.0000
# 2 57.4422 134.4247 57.3616 0.0000 0.0000 0.0000
# 3 44.2954 57.3616 83.0655 0.0000 0.0000 0.0000
# 4 0.0000 0.0000 0.0000 31.8208 0.0000 0.0000
# 5 0.0000 0.0000 0.0000 0.0000 28.5779 0.0000
# 6 0.0000 0.0000 0.0000 0.0000 0.0000 1.6336
#
#
#
# Elastic Compliance Matrix: (Units=1/GPa)
#
#
# Indices 1 2 3 4 5 6 
#
# 1 0.012923 -0.003660 -0.004364 0.000000 0.000000 0.000000
# 2 -0.003660 0.011584 -0.006047 0.000000 0.000000 0.000000
# 3 -0.004364 -0.006047 0.018542 0.000000 0.000000 0.000000
# 4 0.000000 0.000000 0.000000 0.031426 0.000000 0.000000
# 5 0.000000 0.000000 0.000000 0.000000 0.034992 0.000000
# 6 0.000000 0.000000 0.000000 0.000000 0.000000 0.612148
#
#
# Mechanical properties :
#
#
# Convention : Reuss Voigt Hill
#
# Bulk Modulus (GPa) = 67.08780 71.58858 69.33819
# Shear Modulus (GPa) = 6.62493 23.53977 15.08235
#
# Velocity S-wave (km/s) = 1.81473 3.42075 2.73814
# Velocity P-wave (km/s) = 6.14330 7.15462 6.66816
#
# Compressibility (1/GPa) = 0.01490584
#
# Stress axis : x y z
#
# Youngs Moduli (GPa) = 77.38212 86.32823 53.93218
#
# Poissons Ratio (x) = 0.31597 0.23535
# Poissons Ratio (y) = 0.28323 0.32615
# Poissons Ratio (z) = 0.33767 0.52206
#
# Static dielectric constant tensor:
#      x y z
#    x 3.703670 0.000000 0.000000 
#    y 0.000000 3.740610 0.000000 
#    z 0.000000 0.000000 3.599470 
# 
# 
# High freq. dielectric constant tensor:
#      x y z
#    x 1.785470 0.000000 0.000000 
#    y 0.000000 1.791670 0.000000 
#    z 0.000000 0.000000 1.788820 
# 
# From -- ./inp_files/10067.got.cif
#   From: 2010.03.12/outbox.cif.g09.slc.cpg/sg66_6_cif.got.tgz:10067.got - 2010.04.10 21:57:39.
