data_PCOD8276830
_publ_section_title
;
Structure prediction by ZEFSAII (Michael W. Deem and Ramdas Pophale) SiO2 
 PCOD8276830
Probable space group: C C C M
;
_chemical_formula_sum "Si O2"
_cell_formula_units_Z 80
_cell_length_a 15.009397
_cell_length_b 14.624398
_cell_length_c 18.697076
_cell_angle_alpha 90.000000
_cell_angle_beta 90.000000
_cell_angle_gamma 90.000000
_cell_volume 4104.071667
_symmetry_space_group_name_H-M "C C C M"
_symmetry_group_IT_number 66
_symmetry_cell_setting 'orthorhombic'
loop_
_space_group_symop_operation_xyz
x,y,z
-x,-y,z
x,-y,1/2-z
-x,y,1/2-z
-x,-y,-z
x,y,-z
-x,y,1/2+z
x,-y,1/2+z
1/2+x,1/2+y,z
1/2-x,1/2-y,z
1/2+x,1/2-y,1/2-z
1/2-x,1/2+y,1/2-z
1/2-x,1/2-y,-z
1/2+x,1/2+y,-z
1/2-x,1/2+y,1/2+z
1/2+x,1/2-y,1/2+z
loop_
_atom_site_type_symbol
_atom_site_label
_atom_site_fract_x
_atom_site_fract_y
_atom_site_fract_z
Si Si1 0.821830 0.822637 0.850250
Si Si2 0.683478 0.331243 0.187144
Si Si3 0.271119 0.509270 0.917604
Si Si4 0.490100 0.768985 0.172267
Si Si5 0.073807 0.566176 0.917479
O O1 0.750000 0.750000 0.878441
O O2 0.795709 0.854322 0.769920
O O3 0.918073 0.773478 0.857628
O O4 0.814061 0.910958 0.900722
O O5 0.750000 0.250000 0.161378
O O6 0.689533 0.416879 0.135594
O O7 0.579003 0.312339 0.183080
O O8 0.165549 0.513048 0.903977
O O9 0.293412 0.533914 0.000000
O O10 0.500000 0.817326 0.250000
O O11 0.438421 0.837250 0.120238
O O12 0.000000 0.500000 0.884706
O O13 0.057555 0.586685 0.000000
#
# Coordination Sequence:
#
# PCOD8276830 Si02
#       5
#    16  16  16  16  16
#     4  10  22  39  60  86 121 157 197 247 299 356
#     4  10  20  39  61  85 119 153 199 253 299 346
#     4  11  23  38  60  88 120 160 199 241 300 360
#     4  10  21  38  60  87 114 155 201 246 298 349
#     4  10  21  37  57  86 121 154 195 247 299 353
#
# _framework density 19.492836
#
# number of rings (size 3 to 8) (size 9 to 14) (size 15 to 20)
#    0.000    1.800    2.000    1.800    0.000    3.600 
#    3.600    4.000    0.000    0.000    0.000    0.000 
#    0.000    0.000    0.000    0.000    0.000    0.000 
#
# Total GULP energy -495831.029514 kJ/mol
# GULP energy per Si atom -12395.775738 kJ/mol
# Density = 1.944847 g / cm^3
# Si number density = 19.492836 Si / 1000 Ang^3
#
#
#
# Elastic Constant Matrix: (Units=GPa)
#
#
# Indices 1 2 3 4 5 6 
#
# 1 91.5075 6.7783 9.1082 0.0000 0.0000 0.0000
# 2 6.7783 71.4345 28.0889 0.0000 0.0000 0.0000
# 3 9.1082 28.0889 60.8996 0.0000 0.0000 0.0000
# 4 0.0000 0.0000 0.0000 21.9594 0.0000 0.0000
# 5 0.0000 0.0000 0.0000 0.0000 25.0827 0.0000
# 6 0.0000 0.0000 0.0000 0.0000 0.0000 23.3338
#
#
#
# Elastic Compliance Matrix: (Units=1/GPa)
#
#
# Indices 1 2 3 4 5 6 
#
# 1 0.011107 -0.000490 -0.001435 0.000000 0.000000 0.000000
# 2 -0.000490 0.017122 -0.007824 0.000000 0.000000 0.000000
# 3 -0.001435 -0.007824 0.020244 0.000000 0.000000 0.000000
# 4 0.000000 0.000000 0.000000 0.045539 0.000000 0.000000
# 5 0.000000 0.000000 0.000000 0.000000 0.039868 0.000000
# 6 0.000000 0.000000 0.000000 0.000000 0.000000 0.042856
#
#
# Mechanical properties :
#
#
# Convention : Reuss Voigt Hill
#
# Bulk Modulus (GPa) = 34.51242 34.64357 34.57800
# Shear Modulus (GPa) = 24.28463 26.06629 25.17546
#
# Velocity S-wave (km/s) = 3.53345 3.66077 3.59768
# Velocity P-wave (km/s) = 5.86435 5.97322 5.91904
#
# Compressibility (1/GPa) = 0.02897508
#
# Stress axis : x y z
#
# Youngs Moduli (GPa) = 90.03172 58.40535 49.39789
#
# Poissons Ratio (x) = 0.02859 0.07091
# Poissons Ratio (y) = 0.04407 0.38648
# Poissons Ratio (z) = 0.12923 0.45696
#
# Static dielectric constant tensor:
#      x y z
#    x 3.785150 0.000000 0.000000 
#    y 0.000000 3.433530 0.000000 
#    z 0.000000 0.000000 3.604280 
# 
# 
# High freq. dielectric constant tensor:
#      x y z
#    x 1.772210 0.000000 0.000000 
#    y 0.000000 1.749400 0.000000 
#    z 0.000000 0.000000 1.757820 
# 
# From -- ./inp_files/49760.got.cif
#   From: 2010.03.12/outbox.cif.g09.slc.cpg/sg66_25_cif.got.tgz:49760.got - 2010.04.10 21:57:39.
