data_PCOD8276142
_publ_section_title
;
Structure prediction by ZEFSAII (Michael W. Deem and Ramdas Pophale) SiO2 
 PCOD8276142
Probable space group: C C C M
;
_chemical_formula_sum "Si O2"
_cell_formula_units_Z 72
_cell_length_a 14.771871
_cell_length_b 13.706974
_cell_length_c 18.278748
_cell_angle_alpha 90.000000
_cell_angle_beta 90.000000
_cell_angle_gamma 90.000000
_cell_volume 3701.037972
_symmetry_space_group_name_H-M "C C C M"
_symmetry_group_IT_number 66
_symmetry_cell_setting 'orthorhombic'
loop_
_space_group_symop_operation_xyz
x,y,z
-x,-y,z
x,-y,1/2-z
-x,y,1/2-z
-x,-y,-z
x,y,-z
-x,y,1/2+z
x,-y,1/2+z
1/2+x,1/2+y,z
1/2-x,1/2-y,z
1/2+x,1/2-y,1/2-z
1/2-x,1/2+y,1/2-z
1/2-x,1/2-y,-z
1/2+x,1/2+y,-z
1/2-x,1/2+y,1/2+z
1/2+x,1/2-y,1/2+z
loop_
_atom_site_type_symbol
_atom_site_label
_atom_site_fract_x
_atom_site_fract_y
_atom_site_fract_z
Si Si1 0.640247 0.660070 0.500000
Si Si2 0.750000 0.750000 0.622444
Si Si3 0.334157 0.898124 0.231681
Si Si4 0.137849 0.643532 0.608857
Si Si5 0.277970 0.445755 0.000000
Si Si6 0.929868 0.198164 0.500000
Si Si7 0.000000 0.500000 0.157519
O O1 0.665636 0.719416 0.572753
O O2 0.700620 0.561067 0.500000
O O3 0.532139 0.658802 0.500000
O O4 0.720748 0.841151 0.671043
O O5 0.340895 0.833651 0.305881
O O6 0.435337 0.928953 0.206121
O O7 0.281790 0.000000 0.250000
O O8 0.224709 0.593993 0.570920
O O9 0.100963 0.741211 0.571323
O O10 0.058937 0.564255 0.602764
O O11 0.377394 0.402305 0.000000
#
# Coordination Sequence:
#
# PCOD8276142 Si02
#       7
#     8   8  16  16   8   8   8
#     4  11  23  42  58  86 125 152 204 248 296 368
#     4  11  24  38  64  95 116 158 196 249 318 350
#     4  10  20  36  60  90 126 153 190 248 308 366
#     4  10  20  36  61  88 117 151 201 250 296 372
#     4  11  24  39  58  81 116 171 201 242 296 344
#     4  11  24  37  58  83 116 165 204 245 295 343
#     4  10  19  35  58  91 120 150 187 254 327 345
#
# _framework density 19.454001999999999
#
# number of rings (size 3 to 8) (size 9 to 14) (size 15 to 20)
#    0.000    1.556    0.000    8.667    3.111    3.556 
#    0.000    0.000    0.000    0.000    5.778    0.000 
#    0.000    0.000    0.000    0.000    0.000    0.000 
#
# Total GULP energy -446054.965256 kJ/mol
# GULP energy per Si atom -12390.415702 kJ/mol
# Density = 1.940972 g / cm^3
# Si number density = 19.454002 Si / 1000 Ang^3
#
#
#
# Elastic Constant Matrix: (Units=GPa)
#
#
# Indices 1 2 3 4 5 6 
#
# 1 109.4969 46.7312 45.2742 0.0000 0.0000 0.0000
# 2 46.7312 73.6804 32.6735 0.0000 0.0000 0.0000
# 3 45.2742 32.6735 108.5941 0.0000 0.0000 0.0000
# 4 0.0000 0.0000 0.0000 10.9655 0.0000 0.0000
# 5 0.0000 0.0000 0.0000 0.0000 18.4016 0.0000
# 6 0.0000 0.0000 0.0000 0.0000 0.0000 41.8265
#
#
#
# Elastic Compliance Matrix: (Units=1/GPa)
#
#
# Indices 1 2 3 4 5 6 
#
# 1 0.013614 -0.007060 -0.003552 0.000000 0.000000 0.000000
# 2 -0.007060 0.019323 -0.002870 0.000000 0.000000 0.000000
# 3 -0.003552 -0.002870 0.011553 0.000000 0.000000 0.000000
# 4 0.000000 0.000000 0.000000 0.091195 0.000000 0.000000
# 5 0.000000 0.000000 0.000000 0.000000 0.054343 0.000000
# 6 0.000000 0.000000 0.000000 0.000000 0.000000 0.023908
#
#
# Mechanical properties :
#
#
# Convention : Reuss Voigt Hill
#
# Bulk Modulus (GPa) = 57.05830 60.12544 58.59187
# Shear Modulus (GPa) = 20.26407 25.37822 22.82115
#
# Velocity S-wave (km/s) = 3.23095 3.61574 3.42874
# Velocity P-wave (km/s) = 6.58120 6.95737 6.77190
#
# Compressibility (1/GPa) = 0.01752593
#
# Stress axis : x y z
#
# Youngs Moduli (GPa) = 73.45276 51.75295 86.55708
#
# Poissons Ratio (x) = 0.36536 0.30744
# Poissons Ratio (y) = 0.51855 0.24846
# Poissons Ratio (z) = 0.26089 0.14856
#
# Static dielectric constant tensor:
#      x y z
#    x 3.474270 0.000000 0.000000 
#    y 0.000000 3.739490 0.000000 
#    z 0.000000 0.000000 3.687510 
# 
# 
# High freq. dielectric constant tensor:
#      x y z
#    x 1.753020 0.000000 0.000000 
#    y 0.000000 1.752790 0.000000 
#    z 0.000000 0.000000 1.771600 
# 
# From -- ./inp_files/40101.got.cif
#   From: 2010.03.12/outbox.cif.g09.slc.cpg/sg66_21_cif.got.tgz:40101.got - 2010.04.10 21:57:39.
