data_PCOD8276235
_publ_section_title
;
Structure prediction by ZEFSAII (Michael W. Deem and Ramdas Pophale) SiO2 
 PCOD8276235
Probable space group: C C C M
;
_chemical_formula_sum "Si O2"
_cell_formula_units_Z 88
_cell_length_a 22.504570
_cell_length_b 12.280182
_cell_length_c 14.752996
_cell_angle_alpha 90.000000
_cell_angle_beta 90.000000
_cell_angle_gamma 90.000000
_cell_volume 4077.141153
_symmetry_space_group_name_H-M "C C C M"
_symmetry_group_IT_number 66
_symmetry_cell_setting 'orthorhombic'
loop_
_space_group_symop_operation_xyz
x,y,z
-x,-y,z
x,-y,1/2-z
-x,y,1/2-z
-x,-y,-z
x,y,-z
-x,y,1/2+z
x,-y,1/2+z
1/2+x,1/2+y,z
1/2-x,1/2-y,z
1/2+x,1/2-y,1/2-z
1/2-x,1/2+y,1/2-z
1/2-x,1/2-y,-z
1/2+x,1/2+y,-z
1/2-x,1/2+y,1/2+z
1/2+x,1/2-y,1/2+z
loop_
_atom_site_type_symbol
_atom_site_label
_atom_site_fract_x
_atom_site_fract_y
_atom_site_fract_z
Si Si1 0.992970 0.323496 0.847706
Si Si2 0.914653 0.486121 0.603297
Si Si3 0.321359 0.427295 0.833263
Si Si4 0.968474 0.161984 0.000000
Si Si5 0.404359 0.446986 0.000000
Si Si6 0.250000 0.750000 0.766360
Si Si7 0.788200 0.564875 0.396407
O O1 0.057499 0.365718 0.882840
O O2 0.000000 0.267394 0.750000
O O3 0.948741 0.425848 0.835394
O O4 0.962369 0.235348 0.911353
O O5 0.925644 0.522292 0.500000
O O6 0.844963 0.489036 0.627347
O O7 0.346501 0.500000 0.750000
O O8 0.371609 0.407766 0.908617
O O9 0.297845 0.311809 0.796361
O O10 0.268409 0.489995 0.882558
O O11 0.031625 0.105373 0.000000
O O12 0.913394 0.077797 0.000000
O O13 0.212965 0.667735 0.829724
O O14 0.790556 0.606802 0.500000
#
# Coordination Sequence:
#
# PCOD8276235 Si02
#       7
#    16  16  16   8   8   8  16
#     4  11  22  39  64  93 127 166 204 260 323 383
#     4  10  19  37  63  95 134 161 200 255 325 392
#     4  10  23  44  66  95 132 167 214 270 321 383
#     4  11  26  45  63  89 119 163 226 268 303 386
#     4  11  26  47  65  83 125 173 214 271 323 356
#     4  10  23  39  62 100 138 162 226 264 310 402
#     4  10  21  39  66  96 131 176 210 264 329 385
#
# _framework density 21.583749999999998
#
# number of rings (size 3 to 8) (size 9 to 14) (size 15 to 20)
#    0.000    1.636    2.727    1.909    0.000   12.000 
#    0.000    1.818    0.000    0.000    0.000    0.000 
#    0.000    0.000    0.000    0.000    0.000    0.000 
#
# Total GULP energy -545681.359427 kJ/mol
# GULP energy per Si atom -12401.849078 kJ/mol
# Density = 2.153462 g / cm^3
# Si number density = 21.583750 Si / 1000 Ang^3
#
#
#
# Elastic Constant Matrix: (Units=GPa)
#
#
# Indices 1 2 3 4 5 6 
#
# 1 79.9720 9.8585 24.0394 0.0000 0.0000 0.0000
# 2 9.8585 86.0401 32.3116 0.0000 0.0000 0.0000
# 3 24.0394 32.3116 137.9183 0.0000 0.0000 0.0000
# 4 0.0000 0.0000 0.0000 -4.7259 0.0000 0.0000
# 5 0.0000 0.0000 0.0000 0.0000 -0.3357 0.0000
# 6 0.0000 0.0000 0.0000 0.0000 0.0000 27.0274
#
#
#
# Elastic Compliance Matrix: (Units=1/GPa)
#
#
# Indices 1 2 3 4 5 6 
#
# 1 0.013236 -0.000713 -0.002140 0.000000 0.000000 0.000000
# 2 -0.000713 0.012782 -0.002870 0.000000 0.000000 0.000000
# 3 -0.002140 -0.002870 0.008296 0.000000 0.000000 0.000000
# 4 0.000000 0.000000 0.000000 -0.211599 0.000000 0.000000
# 5 0.000000 0.000000 0.000000 0.000000 -2.978699 0.000000
# 6 0.000000 0.000000 0.000000 0.000000 0.000000 0.037000
#
#
# Mechanical properties :
#
#
# Convention : Reuss Voigt Hill
#
# Bulk Modulus (GPa) = 43.73038 48.48324 46.10681
# Shear Modulus (GPa) = -1.61295 20.24121 9.31413
#
# Velocity S-wave (km/s) = -0.86540 3.06567 2.07959
# Velocity P-wave (km/s) = 4.39388 5.91969 5.21291
#
# Compressibility (1/GPa) = 0.02286740
#
# Stress axis : x y z
#
# Youngs Moduli (GPa) = 75.55424 78.23441 120.53810
#
# Poissons Ratio (x) = 0.05577 0.25795
# Poissons Ratio (y) = 0.05386 0.34599
# Poissons Ratio (z) = 0.16168 0.22456
#
# Static dielectric constant tensor:
#      x y z
#    x 3.809370 0.000000 0.000000 
#    y 0.000000 3.873840 0.000000 
#    z 0.000000 0.000000 4.036410 
# 
# 
# High freq. dielectric constant tensor:
#      x y z
#    x 1.841780 0.000000 0.000000 
#    y 0.000000 1.831570 0.000000 
#    z 0.000000 0.000000 1.863820 
# 
# From -- ./inp_files/32245.got.cif
#   From: 2010.03.12/outbox.cif.g09.slc.cpg/sg66_17_cif.got.tgz:32245.got - 2010.04.10 21:57:39.
