data_PCOD8276660
_publ_section_title
;
Structure prediction by ZEFSAII (Michael W. Deem and Ramdas Pophale) SiO2 
 PCOD8276660
Probable space group: C C C M
;
_chemical_formula_sum "Si O2"
_cell_formula_units_Z 104
_cell_length_a 22.023369
_cell_length_b 25.427932
_cell_length_c 9.282153
_cell_angle_alpha 90.000000
_cell_angle_beta 90.000000
_cell_angle_gamma 90.000000
_cell_volume 5198.086707
_symmetry_space_group_name_H-M "C C C M"
_symmetry_group_IT_number 66
_symmetry_cell_setting 'orthorhombic'
loop_
_space_group_symop_operation_xyz
x,y,z
-x,-y,z
x,-y,1/2-z
-x,y,1/2-z
-x,-y,-z
x,y,-z
-x,y,1/2+z
x,-y,1/2+z
1/2+x,1/2+y,z
1/2-x,1/2-y,z
1/2+x,1/2-y,1/2-z
1/2-x,1/2+y,1/2-z
1/2-x,1/2-y,-z
1/2+x,1/2+y,-z
1/2-x,1/2+y,1/2+z
1/2+x,1/2-y,1/2+z
loop_
_atom_site_type_symbol
_atom_site_label
_atom_site_fract_x
_atom_site_fract_y
_atom_site_fract_z
Si Si1 0.563322 0.803042 0.327214
Si Si2 0.631997 0.298086 0.158187
Si Si3 0.955183 0.929017 0.500000
Si Si4 0.763796 0.554220 0.335924
Si Si5 0.084642 0.047139 0.000000
Si Si6 0.250000 0.250000 0.254012
Si Si7 0.636319 0.592257 0.731137
Si Si8 0.177481 0.651257 0.333983
O O1 0.500000 0.816875 0.250000
O O2 0.560787 0.813938 0.500000
O O3 0.578467 0.741632 0.295848
O O4 0.615344 0.837718 0.252386
O O5 0.694984 0.266945 0.144168
O O6 0.642664 0.345718 0.271043
O O7 0.617913 0.322091 0.000000
O O8 0.926192 0.906851 0.643918
O O9 0.026495 0.913852 0.500000
O O10 0.943460 0.990608 0.500000
O O11 0.774661 0.500000 0.250000
O O12 0.789863 0.549902 0.500000
O O13 0.692843 0.568452 0.354707
O O14 0.793795 0.601073 0.245389
O O15 0.129520 0.055915 0.868552
O O16 0.224128 0.299262 0.161374
O O17 0.162559 0.636973 0.500000
#
# Coordination Sequence:
#
# PCOD8276660 Si02
#       8
#    16  16   8  16   8   8  16  16
#     4  10  22  41  65  93 127 166 211 258 315 378
#     4  10  20  37  58  85 119 161 204 253 308 372
#     4  11  22  44  58  75 112 156 213 256 320 372
#     4  12  25  41  65  94 129 167 213 266 324 384
#     4  11  26  38  58  81 108 158 205 270 318 376
#     4  10  20  36  60  90 125 163 208 252 313 379
#     4  12  23  39  60  85 115 159 208 269 319 373
#     4  11  23  40  65  95 131 169 211 263 321 384
#
# _framework density 20.007362000000001
#
# number of rings (size 3 to 8) (size 9 to 14) (size 15 to 20)
#    0.000    1.077    3.077    3.692    2.154    3.692 
#    6.923    0.000    0.000    0.462    0.000    3.231 
#    0.000    0.000    0.000    0.000    0.000    0.000 
#
# Total GULP energy -644391.421571 kJ/mol
# GULP energy per Si atom -12392.142723 kJ/mol
# Density = 1.996182 g / cm^3
# Si number density = 20.007362 Si / 1000 Ang^3
#
#
#
# Elastic Constant Matrix: (Units=GPa)
#
#
# Indices 1 2 3 4 5 6 
#
# 1 99.8736 35.8549 35.7793 0.0000 0.0000 0.0000
# 2 35.8549 117.0041 43.1713 0.0000 0.0000 0.0000
# 3 35.7793 43.1713 133.9078 0.0000 0.0000 0.0000
# 4 0.0000 0.0000 0.0000 -23.3204 0.0000 0.0000
# 5 0.0000 0.0000 0.0000 0.0000 28.4633 0.0000
# 6 0.0000 0.0000 0.0000 0.0000 0.0000 24.2724
#
#
#
# Elastic Compliance Matrix: (Units=1/GPa)
#
#
# Indices 1 2 3 4 5 6 
#
# 1 0.011824 -0.002789 -0.002260 0.000000 0.000000 0.000000
# 2 -0.002789 0.010359 -0.002594 0.000000 0.000000 0.000000
# 3 -0.002260 -0.002594 0.008908 0.000000 0.000000 0.000000
# 4 0.000000 0.000000 0.000000 -0.042881 0.000000 0.000000
# 5 0.000000 0.000000 0.000000 0.000000 0.035133 0.000000
# 6 0.000000 0.000000 0.000000 0.000000 0.000000 0.041199
#
#
# Mechanical properties :
#
#
# Convention : Reuss Voigt Hill
#
# Bulk Modulus (GPa) = 63.27833 64.48849 63.88341
# Shear Modulus (GPa) = 58.75672 21.61505 40.18589
#
# Velocity S-wave (km/s) = 5.42506 3.29044 4.48655
# Velocity P-wave (km/s) = 8.42247 6.83655 7.67060
#
# Compressibility (1/GPa) = 0.01580320
#
# Stress axis : x y z
#
# Youngs Moduli (GPa) = 84.57616 96.53701 112.25810
#
# Poissons Ratio (x) = 0.26928 0.25369
# Poissons Ratio (y) = 0.23592 0.29123
# Poissons Ratio (z) = 0.19113 0.25045
#
# Static dielectric constant tensor:
#      x y z
#    x 3.745700 0.000000 0.000000 
#    y 0.000000 3.757380 0.000000 
#    z 0.000000 0.000000 3.498550 
# 
# 
# High freq. dielectric constant tensor:
#      x y z
#    x 1.770960 0.000000 0.000000 
#    y 0.000000 1.778940 0.000000 
#    z 0.000000 0.000000 1.779980 
# 
# From -- ./inp_files/8187.got.cif
#   From: 2010.03.12/outbox.cif.g09.slc.cpg/sg66_5_cif.got.tgz:8187.got - 2010.04.10 21:57:39.
