data_PCOD8276876
_publ_section_title
;
Structure prediction by ZEFSAII (Michael W. Deem and Ramdas Pophale) SiO2 
 PCOD8276876
Probable space group: C C C M
;
_chemical_formula_sum "Si O2"
_cell_formula_units_Z 52
_cell_length_a 10.088132
_cell_length_b 17.718484
_cell_length_c 13.739481
_cell_angle_alpha 90.000000
_cell_angle_beta 90.000000
_cell_angle_gamma 90.000000
_cell_volume 2455.882841
_symmetry_space_group_name_H-M "C C C M"
_symmetry_group_IT_number 66
_symmetry_cell_setting 'orthorhombic'
loop_
_space_group_symop_operation_xyz
x,y,z
-x,-y,z
x,-y,1/2-z
-x,y,1/2-z
-x,-y,-z
x,y,-z
-x,y,1/2+z
x,-y,1/2+z
1/2+x,1/2+y,z
1/2-x,1/2-y,z
1/2+x,1/2-y,1/2-z
1/2-x,1/2+y,1/2-z
1/2-x,1/2-y,-z
1/2+x,1/2+y,-z
1/2-x,1/2+y,1/2+z
1/2+x,1/2-y,1/2+z
loop_
_atom_site_type_symbol
_atom_site_label
_atom_site_fract_x
_atom_site_fract_y
_atom_site_fract_z
Si Si1 0.385131 0.450304 0.106114
Si Si2 0.691520 0.918419 0.608116
Si Si3 0.153268 0.182144 0.750573
Si Si4 0.000000 0.500000 0.750000
O O1 0.500000 0.500000 0.158707
O O2 0.258979 0.501696 0.093442
O O3 0.337123 0.379882 0.166622
O O4 0.437686 0.422941 0.000000
O O5 0.642096 0.891059 0.500000
O O6 0.794204 0.855105 0.649754
O O7 0.576022 0.938362 0.683679
O O8 0.250000 0.250000 0.779529
O O9 0.000000 0.210365 0.750000
#
# Coordination Sequence:
#
# PCOD8276876 Si02
#       4
#    16  16  16   4
#     4  10  20  41  73 100 124 174 241 292 338 410
#     4  11  24  42  69  99 133 180 236 291 346 416
#     4  12  26  42  66 100 146 191 230 289 357 423
#     4  12  22  40  70 102 132 164 226 300 352 402
#
# _framework density 21.173649000000001
#
# number of rings (size 3 to 8) (size 9 to 14) (size 15 to 20)
#    0.000    0.923    6.154    0.462    2.154    1.231 
#    0.000    0.000    0.000    0.000    0.000    0.000 
#    0.000    0.000    0.000    0.000    0.000    0.000 
#
# Total GULP energy -322122.240984 kJ/mol
# GULP energy per Si atom -12389.316961 kJ/mol
# Density = 2.112546 g / cm^3
# Si number density = 21.173649 Si / 1000 Ang^3
#
#
#
# Elastic Constant Matrix: (Units=GPa)
#
#
# Indices 1 2 3 4 5 6 
#
# 1 125.7762 45.5412 60.5363 0.0000 0.0000 0.0000
# 2 45.5412 120.8969 59.0803 0.0000 0.0000 0.0000
# 3 60.5363 59.0803 153.5274 0.0000 0.0000 0.0000
# 4 0.0000 0.0000 0.0000 -15.6539 0.0000 0.0000
# 5 0.0000 0.0000 0.0000 0.0000 48.4854 0.0000
# 6 0.0000 0.0000 0.0000 0.0000 0.0000 48.9574
#
#
#
# Elastic Compliance Matrix: (Units=1/GPa)
#
#
# Indices 1 2 3 4 5 6 
#
# 1 0.010324 -0.002340 -0.003170 0.000000 0.000000 0.000000
# 2 -0.002340 0.010717 -0.003202 0.000000 0.000000 0.000000
# 3 -0.003170 -0.003202 0.008996 0.000000 0.000000 0.000000
# 4 0.000000 0.000000 0.000000 -0.063882 0.000000 0.000000
# 5 0.000000 0.000000 0.000000 0.000000 0.020625 0.000000
# 6 0.000000 0.000000 0.000000 0.000000 0.000000 0.020426
#
#
# Mechanical properties :
#
#
# Convention : Reuss Voigt Hill
#
# Bulk Modulus (GPa) = 79.28073 81.16845 80.22459
# Shear Modulus (GPa) = 173.41036 32.02730 102.71883
#
# Velocity S-wave (km/s) = 9.05963 3.89344 6.97265
# Velocity P-wave (km/s) = 12.12272 7.65700 10.13879
#
# Compressibility (1/GPa) = 0.01261341
#
# Stress axis : x y z
#
# Youngs Moduli (GPa) = 96.86524 93.30562 111.16461
#
# Poissons Ratio (x) = 0.21829 0.35243
# Poissons Ratio (y) = 0.22662 0.35593
# Poissons Ratio (z) = 0.30709 0.29874
#
# Static dielectric constant tensor:
#      x y z
#    x 4.159960 0.000000 0.000000 
#    y 0.000000 3.585650 0.000000 
#    z 0.000000 0.000000 4.745580 
# 
# 
# High freq. dielectric constant tensor:
#      x y z
#    x 1.832520 0.000000 0.000000 
#    y 0.000000 1.805840 0.000000 
#    z 0.000000 0.000000 1.845120 
# 
# From -- ./inp_files/23706.got.cif
#   From: 2010.03.12/outbox.cif.g09.slc.cpg/sg66_12_cif.got.tgz:23706.got - 2010.04.10 21:57:39.
