data_PCOD8276507
_publ_section_title
;
Structure prediction by ZEFSAII (Michael W. Deem and Ramdas Pophale) SiO2 
 PCOD8276507
Probable space group: C C C M
;
_chemical_formula_sum "Si O2"
_cell_formula_units_Z 72
_cell_length_a 16.276696
_cell_length_b 24.405867
_cell_length_c 9.002591
_cell_angle_alpha 90.000000
_cell_angle_beta 90.000000
_cell_angle_gamma 90.000000
_cell_volume 3576.251167
_symmetry_space_group_name_H-M "C C C M"
_symmetry_group_IT_number 66
_symmetry_cell_setting 'orthorhombic'
loop_
_space_group_symop_operation_xyz
x,y,z
-x,-y,z
x,-y,1/2-z
-x,y,1/2-z
-x,-y,-z
x,y,-z
-x,y,1/2+z
x,-y,1/2+z
1/2+x,1/2+y,z
1/2-x,1/2-y,z
1/2+x,1/2-y,1/2-z
1/2-x,1/2+y,1/2-z
1/2-x,1/2-y,-z
1/2+x,1/2+y,-z
1/2-x,1/2+y,1/2+z
1/2+x,1/2-y,1/2+z
loop_
_atom_site_type_symbol
_atom_site_label
_atom_site_fract_x
_atom_site_fract_y
_atom_site_fract_z
Si Si1 0.871683 0.282433 0.662243
Si Si2 0.085789 0.175344 0.324140
Si Si3 0.500000 0.133816 0.250000
Si Si4 0.364310 0.054366 0.665939
Si Si5 0.239198 0.870046 0.326456
O O1 0.866066 0.253382 0.500000
O O2 0.891484 0.238272 0.787794
O O3 0.786037 0.312335 0.699911
O O4 0.943024 0.327963 0.647738
O O5 0.080216 0.168634 0.500000
O O6 0.152689 0.134003 0.257336
O O7 0.000000 0.159254 0.250000
O O8 0.440889 0.095794 0.348647
O O9 0.334904 0.040014 0.500000
O O10 0.288604 0.079843 0.756015
O O11 0.393818 0.000000 0.750000
O O12 0.226321 0.881923 0.500000
#
# Coordination Sequence:
#
# PCOD8276507 Si02
#       5
#    16  16   8  16  16
#     4  10  20  35  55  82 118 157 195 238 288 345
#     4  12  24  37  57  84 116 154 196 241 291 350
#     4  10  21  34  58  86 124 160 203 240 284 344
#     4  11  23  39  60  87 118 157 202 248 298 351
#     4  10  22  40  60  83 114 151 194 246 298 350
#
# _framework density 20.132812999999999
#
# number of rings (size 3 to 8) (size 9 to 14) (size 15 to 20)
#    0.000    1.333    1.111    5.000    0.000   10.667 
#    0.000    0.000    0.000    0.667    0.000    4.667 
#    0.000    0.000    0.000    0.000    0.000    0.000 
#
# Total GULP energy -446467.988143 kJ/mol
# GULP energy per Si atom -12401.888560 kJ/mol
# Density = 2.008699 g / cm^3
# Si number density = 20.132813 Si / 1000 Ang^3
#
#
#
# Elastic Constant Matrix: (Units=GPa)
#
#
# Indices 1 2 3 4 5 6 
#
# 1 121.9697 14.9490 50.8456 0.0000 0.0000 0.0000
# 2 14.9490 48.4317 23.9396 0.0000 0.0000 0.0000
# 3 50.8456 23.9396 162.9011 0.0000 0.0000 0.0000
# 4 0.0000 0.0000 0.0000 27.1279 0.0000 0.0000
# 5 0.0000 0.0000 0.0000 0.0000 26.0444 0.0000
# 6 0.0000 0.0000 0.0000 0.0000 0.0000 18.5203
#
#
#
# Elastic Compliance Matrix: (Units=1/GPa)
#
#
# Indices 1 2 3 4 5 6 
#
# 1 0.009537 -0.001588 -0.002743 0.000000 0.000000 0.000000
# 2 -0.001588 0.022529 -0.002815 0.000000 0.000000 0.000000
# 3 -0.002743 -0.002815 0.007409 0.000000 0.000000 0.000000
# 4 0.000000 0.000000 0.000000 0.036862 0.000000 0.000000
# 5 0.000000 0.000000 0.000000 0.000000 0.038396 0.000000
# 6 0.000000 0.000000 0.000000 0.000000 0.000000 0.053995
#
#
# Mechanical properties :
#
#
# Convention : Reuss Voigt Hill
#
# Bulk Modulus (GPa) = 39.71055 56.97455 48.34255
# Shear Modulus (GPa) = 26.12128 30.57642 28.34885
#
# Velocity S-wave (km/s) = 3.60592 3.90132 3.75653
# Velocity P-wave (km/s) = 6.09130 6.97528 6.54823
#
# Compressibility (1/GPa) = 0.02518222
#
# Stress axis : x y z
#
# Youngs Moduli (GPa) = 104.85482 44.38670 134.97613
#
# Poissons Ratio (x) = 0.07047 0.37030
# Poissons Ratio (y) = 0.16647 0.38000
# Poissons Ratio (z) = 0.28766 0.12496
#
# Static dielectric constant tensor:
#      x y z
#    x 3.807200 0.000000 0.000000 
#    y 0.000000 3.396440 0.000000 
#    z 0.000000 0.000000 3.540520 
# 
# 
# High freq. dielectric constant tensor:
#      x y z
#    x 1.791970 0.000000 0.000000 
#    y 0.000000 1.757930 0.000000 
#    z 0.000000 0.000000 1.793030 
# 
# From -- ./inp_files/5366.got.cif
#   From: 2010.03.12/outbox.cif.g09.slc.cpg/sg66_3_cif.got.tgz:5366.got - 2010.04.10 21:57:39.
