data_PCOD8276878
_publ_section_title
;
Structure prediction by ZEFSAII (Michael W. Deem and Ramdas Pophale) SiO2 
 PCOD8276878
Probable space group: C C C M
;
_chemical_formula_sum "Si O2"
_cell_formula_units_Z 68
_cell_length_a 16.096521
_cell_length_b 14.939207
_cell_length_c 12.790971
_cell_angle_alpha 90.000000
_cell_angle_beta 90.000000
_cell_angle_gamma 90.000000
_cell_volume 3075.835321
_symmetry_space_group_name_H-M "C C C M"
_symmetry_group_IT_number 66
_symmetry_cell_setting 'orthorhombic'
loop_
_space_group_symop_operation_xyz
x,y,z
-x,-y,z
x,-y,1/2-z
-x,y,1/2-z
-x,-y,-z
x,y,-z
-x,y,1/2+z
x,-y,1/2+z
1/2+x,1/2+y,z
1/2-x,1/2-y,z
1/2+x,1/2-y,1/2-z
1/2-x,1/2+y,1/2-z
1/2-x,1/2-y,-z
1/2+x,1/2+y,-z
1/2-x,1/2+y,1/2+z
1/2+x,1/2-y,1/2+z
loop_
_atom_site_type_symbol
_atom_site_label
_atom_site_fract_x
_atom_site_fract_y
_atom_site_fract_z
Si Si1 0.286972 0.349964 0.500000
Si Si2 0.570355 0.295401 0.676659
Si Si3 0.000000 0.500000 0.250000
Si Si4 0.269998 0.645741 0.773247
Si Si5 0.019929 0.896492 0.000000
Si Si6 0.631905 0.891192 0.119665
O O1 0.250000 0.250000 0.500000
O O2 0.255534 0.395330 0.609104
O O3 0.386371 0.358941 0.500000
O O4 0.500000 0.251380 0.750000
O O5 0.634049 0.359582 0.739774
O O6 0.524766 0.361262 0.601025
O O7 0.615981 0.215141 0.616416
O O8 0.945128 0.559194 0.172187
O O9 0.250000 0.750000 0.776568
O O10 0.213588 0.591339 0.690763
O O11 0.000000 0.000000 0.000000
O O12 0.646056 0.924203 0.000000
#
# Coordination Sequence:
#
# PCOD8276878 Si02
#       6
#     8  16   4  16   8  16
#     4  10  20  42  66  97 142 186 237 284 351 428
#     4  11  21  42  72  95 135 187 232 280 360 433
#     4  12  26  48  68 106 132 174 232 292 354 424
#     4   9  21  39  67  99 130 182 236 279 340 429
#     4  12  26  42  67 105 138 187 246 306 347 423
#     4  11  24  44  70 101 137 175 230 291 359 425
#
# _framework density 22.107816
#
# number of rings (size 3 to 8) (size 9 to 14) (size 15 to 20)
#    0.000    1.412    4.706    0.353    1.647    1.882 
#    8.471    0.000    0.000    0.000    0.000    0.000 
#    0.000    0.000    0.000    0.000    0.000    0.000 
#
# Total GULP energy -421300.469615 kJ/mol
# GULP energy per Si atom -12391.190283 kJ/mol
# Density = 2.205750 g / cm^3
# Si number density = 22.107816 Si / 1000 Ang^3
#
#
#
# Elastic Constant Matrix: (Units=GPa)
#
#
# Indices 1 2 3 4 5 6 
#
# 1 149.1286 22.4880 80.3990 0.0000 0.0000 0.0000
# 2 22.4880 57.4283 28.9901 0.0000 0.0000 0.0000
# 3 80.3990 28.9901 222.2274 0.0000 0.0000 0.0000
# 4 0.0000 0.0000 0.0000 23.7642 0.0000 0.0000
# 5 0.0000 0.0000 0.0000 0.0000 39.1498 0.0000
# 6 0.0000 0.0000 0.0000 0.0000 0.0000 13.5906
#
#
#
# Elastic Compliance Matrix: (Units=1/GPa)
#
#
# Indices 1 2 3 4 5 6 
#
# 1 0.008521 -0.001906 -0.002834 0.000000 0.000000 0.000000
# 2 -0.001906 0.019067 -0.001798 0.000000 0.000000 0.000000
# 3 -0.002834 -0.001798 0.005760 0.000000 0.000000 0.000000
# 4 0.000000 0.000000 0.000000 0.042080 0.000000 0.000000
# 5 0.000000 0.000000 0.000000 0.000000 0.025543 0.000000
# 6 0.000000 0.000000 0.000000 0.000000 0.000000 0.073580
#
#
# Mechanical properties :
#
#
# Convention : Reuss Voigt Hill
#
# Bulk Modulus (GPa) = 49.32945 76.94871 63.13908
# Shear Modulus (GPa) = 25.72231 35.09475 30.40853
#
# Velocity S-wave (km/s) = 3.41470 3.98859 3.71275
# Velocity P-wave (km/s) = 6.15699 7.48956 6.85573
#
# Compressibility (1/GPa) = 0.02027187
#
# Stress axis : x y z
#
# Youngs Moduli (GPa) = 117.35719 52.44697 173.61802
#
# Poissons Ratio (x) = 0.09996 0.49206
# Poissons Ratio (y) = 0.22368 0.31212
# Poissons Ratio (z) = 0.33261 0.09429
#
# Static dielectric constant tensor:
#      x y z
#    x 5.973530 0.000000 0.000000 
#    y 0.000000 3.520040 0.000000 
#    z 0.000000 0.000000 4.397840 
# 
# 
# High freq. dielectric constant tensor:
#      x y z
#    x 1.877570 0.000000 0.000000 
#    y 0.000000 1.839930 0.000000 
#    z 0.000000 0.000000 1.892900 
# 
# From -- ./inp_files/17499.got.cif
#   From: 2010.03.12/outbox.cif.g09.slc.cpg/sg66_9_cif.got.tgz:17499.got - 2010.04.10 21:57:39.
