data_PCOD8276326
_publ_section_title
;
Structure prediction by ZEFSAII (Michael W. Deem and Ramdas Pophale) SiO2 
 PCOD8276326
Probable space group: C C C M
;
_chemical_formula_sum "Si O2"
_cell_formula_units_Z 80
_cell_length_a 17.921184
_cell_length_b 27.405675
_cell_length_c 8.897173
_cell_angle_alpha 90.000000
_cell_angle_beta 90.000000
_cell_angle_gamma 90.000000
_cell_volume 4369.776626
_symmetry_space_group_name_H-M "C C C M"
_symmetry_group_IT_number 66
_symmetry_cell_setting 'orthorhombic'
loop_
_space_group_symop_operation_xyz
x,y,z
-x,-y,z
x,-y,1/2-z
-x,y,1/2-z
-x,-y,-z
x,y,-z
-x,y,1/2+z
x,-y,1/2+z
1/2+x,1/2+y,z
1/2-x,1/2-y,z
1/2+x,1/2-y,1/2-z
1/2-x,1/2+y,1/2-z
1/2-x,1/2-y,-z
1/2+x,1/2+y,-z
1/2-x,1/2+y,1/2+z
1/2+x,1/2-y,1/2+z
loop_
_atom_site_type_symbol
_atom_site_label
_atom_site_fract_x
_atom_site_fract_y
_atom_site_fract_z
Si Si1 0.420504 0.707746 0.674247
Si Si2 0.348684 0.811915 0.325482
Si Si3 0.726061 0.950487 0.674310
Si Si4 0.575887 0.099810 0.178190
Si Si5 0.296233 0.349828 0.677456
O O1 0.500000 0.713563 0.750000
O O2 0.430701 0.694926 0.500000
O O3 0.374178 0.756855 0.698091
O O4 0.376319 0.663983 0.755298
O O5 0.345394 0.826424 0.500000
O O6 0.407985 0.846394 0.241963
O O7 0.267043 0.816758 0.254041
O O8 0.725927 0.960702 0.500000
O O9 0.642557 0.936232 0.727301
O O10 0.782183 0.906682 0.715871
O O11 0.753896 0.000000 0.750000
O O12 0.500000 0.079076 0.250000
O O13 0.568358 0.103686 0.000000
O O14 0.293329 0.340486 0.500000
#
# Coordination Sequence:
#
# PCOD8276326 Si02
#       5
#    16  16  16  16  16
#     4  11  23  36  53  79 109 141 176 214 258 307
#     4  10  20  34  53  78 108 143 181 214 250 301
#     4   9  20  36  54  76 100 131 172 216 263 314
#     4  10  20  33  49  74 107 142 179 216 258 305
#     4  10  21  37  56  79 107 138 174 215 259 308
#
# _framework density 18.307572
#
# number of rings (size 3 to 8) (size 9 to 14) (size 15 to 20)
#    0.000    2.000    0.000    4.800    0.000   12.400 
#    0.000    2.000    0.000    0.600    0.000    4.200 
#    0.000    0.000    0.000    0.000    0.000    0.000 
#
# Total GULP energy -496127.745529 kJ/mol
# GULP energy per Si atom -12403.193638 kJ/mol
# Density = 1.826590 g / cm^3
# Si number density = 18.307572 Si / 1000 Ang^3
#
#
#
# Elastic Constant Matrix: (Units=GPa)
#
#
# Indices 1 2 3 4 5 6 
#
# 1 56.3687 28.4743 40.0020 0.0000 0.0000 0.0000
# 2 28.4743 93.9652 51.3987 0.0000 0.0000 0.0000
# 3 40.0020 51.3987 102.4490 0.0000 0.0000 0.0000
# 4 0.0000 0.0000 0.0000 29.9567 0.0000 0.0000
# 5 0.0000 0.0000 0.0000 0.0000 34.6159 0.0000
# 6 0.0000 0.0000 0.0000 0.0000 0.0000 29.1150
#
#
#
# Elastic Compliance Matrix: (Units=1/GPa)
#
#
# Indices 1 2 3 4 5 6 
#
# 1 0.025180 -0.003104 -0.008274 0.000000 0.000000 0.000000
# 2 -0.003104 0.015050 -0.006339 0.000000 0.000000 0.000000
# 3 -0.008274 -0.006339 0.016172 0.000000 0.000000 0.000000
# 4 0.000000 0.000000 0.000000 0.033381 0.000000 0.000000
# 5 0.000000 0.000000 0.000000 0.000000 0.028888 0.000000
# 6 0.000000 0.000000 0.000000 0.000000 0.000000 0.034347
#
#
# Mechanical properties :
#
#
# Convention : Reuss Voigt Hill
#
# Bulk Modulus (GPa) = 47.69233 54.72587 51.20910
# Shear Modulus (GPa) = 25.58294 27.59805 26.59049
#
# Velocity S-wave (km/s) = 3.74223 3.88682 3.81521
# Velocity P-wave (km/s) = 6.69175 7.07817 6.88767
#
# Compressibility (1/GPa) = 0.02096773
#
# Stress axis : x y z
#
# Youngs Moduli (GPa) = 39.71332 66.44470 61.83600
#
# Poissons Ratio (x) = 0.20627 0.51166
# Poissons Ratio (y) = 0.12328 0.39195
# Poissons Ratio (z) = 0.32861 0.42116
#
# Static dielectric constant tensor:
#      x y z
#    x 3.333440 0.000000 0.000000 
#    y 0.000000 3.310070 0.000000 
#    z 0.000000 0.000000 3.478740 
# 
# 
# High freq. dielectric constant tensor:
#      x y z
#    x 1.699610 0.000000 0.000000 
#    y 0.000000 1.698660 0.000000 
#    z 0.000000 0.000000 1.724850 
# 
# From -- ./inp_files/6642.got.cif
#   From: 2010.03.12/outbox.cif.g09.slc.cpg/sg66_4_cif.got.tgz:6642.got - 2010.04.10 21:57:39.
