data_PCOD8276471
_publ_section_title
;
Structure prediction by ZEFSAII (Michael W. Deem and Ramdas Pophale) SiO2 
 PCOD8276471
Probable space group: C C C M
;
_chemical_formula_sum "Si O2"
_cell_formula_units_Z 64
_cell_length_a 27.669077
_cell_length_b 14.628281
_cell_length_c 8.756989
_cell_angle_alpha 90.000000
_cell_angle_beta 90.000000
_cell_angle_gamma 90.000000
_cell_volume 3544.400347
_symmetry_space_group_name_H-M "C C C M"
_symmetry_group_IT_number 66
_symmetry_cell_setting 'orthorhombic'
loop_
_space_group_symop_operation_xyz
x,y,z
-x,-y,z
x,-y,1/2-z
-x,y,1/2-z
-x,-y,-z
x,y,-z
-x,y,1/2+z
x,-y,1/2+z
1/2+x,1/2+y,z
1/2-x,1/2-y,z
1/2+x,1/2-y,1/2-z
1/2-x,1/2+y,1/2-z
1/2-x,1/2-y,-z
1/2+x,1/2+y,-z
1/2-x,1/2+y,1/2+z
1/2+x,1/2-y,1/2+z
loop_
_atom_site_type_symbol
_atom_site_label
_atom_site_fract_x
_atom_site_fract_y
_atom_site_fract_z
Si Si1 0.779775 0.094267 0.820353
Si Si2 0.050675 0.096630 0.179919
Si Si3 0.823282 0.592082 0.823214
Si Si4 0.641403 0.285340 0.675731
O O1 0.727451 0.117938 0.753584
O O2 0.816508 0.174651 0.780424
O O3 0.799943 0.000000 0.750000
O O4 0.775536 0.083951 0.000000
O O5 0.089892 0.173202 0.223759
O O6 0.000000 0.129275 0.250000
O O7 0.067228 0.000000 0.250000
O O8 0.044810 0.084549 0.000000
O O9 0.845703 0.500000 0.750000
O O10 0.860351 0.675920 0.798510
O O11 0.813366 0.573152 0.000000
O O12 0.653327 0.309005 0.500000
#
# Coordination Sequence:
#
# PCOD8276471 Si02
#       4
#    16  16  16  16
#     4  11  21  32  49  74 104 136 170 206 246 295
#     4  10  20  35  54  77 103 130 160 197 246 298
#     4  10  20  35  52  71 100 135 170 209 250 291
#     4  10  21  35  52  74 101 133 168 207 250 296
#
# _framework density 18.056652
#
# number of rings (size 3 to 8) (size 9 to 14) (size 15 to 20)
#    0.000    1.750    0.000    7.500    0.000    9.000 
#    0.000    0.000    0.000    0.750    0.000    5.250 
#    0.000    0.000    0.000    0.000    0.000    0.000 
#
# Total GULP energy -396871.837942 kJ/mol
# GULP energy per Si atom -12402.244936 kJ/mol
# Density = 1.801555 g / cm^3
# Si number density = 18.056652 Si / 1000 Ang^3
#
#
#
# Elastic Constant Matrix: (Units=GPa)
#
#
# Indices 1 2 3 4 5 6 
#
# 1 90.5839 76.9240 46.8520 0.0000 0.0000 0.0000
# 2 76.9240 137.0779 58.2839 0.0000 0.0000 0.0000
# 3 46.8520 58.2839 125.9297 0.0000 0.0000 0.0000
# 4 0.0000 0.0000 0.0000 22.6795 0.0000 0.0000
# 5 0.0000 0.0000 0.0000 0.0000 6.0458 0.0000
# 6 0.0000 0.0000 0.0000 0.0000 0.0000 33.9047
#
#
#
# Elastic Compliance Matrix: (Units=1/GPa)
#
#
# Indices 1 2 3 4 5 6 
#
# 1 0.022008 -0.011042 -0.003078 0.000000 0.000000 0.000000
# 2 -0.011042 0.014622 -0.002660 0.000000 0.000000 0.000000
# 3 -0.003078 -0.002660 0.010317 0.000000 0.000000 0.000000
# 4 0.000000 0.000000 0.000000 0.044093 0.000000 0.000000
# 5 0.000000 0.000000 0.000000 0.000000 0.165403 0.000000
# 6 0.000000 0.000000 0.000000 0.000000 0.000000 0.029494
#
#
# Mechanical properties :
#
#
# Convention : Reuss Voigt Hill
#
# Bulk Modulus (GPa) = 74.68616 79.74569 77.21592
# Shear Modulus (GPa) = 15.43413 23.96146 19.69779
#
# Velocity S-wave (km/s) = 2.92680 3.64677 3.30644
# Velocity P-wave (km/s) = 7.27142 7.87350 7.57844
#
# Compressibility (1/GPa) = 0.01338936
#
# Stress axis : x y z
#
# Youngs Moduli (GPa) = 45.43844 68.38957 96.92854
#
# Poissons Ratio (x) = 0.75513 0.29831
# Poissons Ratio (y) = 0.50171 0.25779
# Poissons Ratio (z) = 0.13984 0.18189
#
# Static dielectric constant tensor:
#      x y z
#    x 3.167190 0.000000 0.000000 
#    y 0.000000 3.463830 0.000000 
#    z 0.000000 0.000000 3.447900 
# 
# 
# High freq. dielectric constant tensor:
#      x y z
#    x 1.671590 0.000000 0.000000 
#    y 0.000000 1.701450 0.000000 
#    z 0.000000 0.000000 1.714860 
# 
# From -- ./inp_files/5065.got.cif
#   From: 2010.03.12/outbox.cif.g09.slc.cpg/sg66_3_cif.got.tgz:5065.got - 2010.04.10 21:57:39.
