data_PCOD8276005
_publ_section_title
;
Structure prediction by ZEFSAII (Michael W. Deem and Ramdas Pophale) SiO2 
 PCOD8276005
Probable space group: C C C M
;
_chemical_formula_sum "Si O2"
_cell_formula_units_Z 116
_cell_length_a 21.315585
_cell_length_b 29.214675
_cell_length_c 9.562700
_cell_angle_alpha 90.000000
_cell_angle_beta 90.000000
_cell_angle_gamma 90.000000
_cell_volume 5954.959977
_symmetry_space_group_name_H-M "C C C M"
_symmetry_group_IT_number 66
_symmetry_cell_setting 'orthorhombic'
loop_
_space_group_symop_operation_xyz
x,y,z
-x,-y,z
x,-y,1/2-z
-x,y,1/2-z
-x,-y,-z
x,y,-z
-x,y,1/2+z
x,-y,1/2+z
1/2+x,1/2+y,z
1/2-x,1/2-y,z
1/2+x,1/2-y,1/2-z
1/2-x,1/2+y,1/2-z
1/2-x,1/2-y,-z
1/2+x,1/2+y,-z
1/2-x,1/2+y,1/2+z
1/2+x,1/2-y,1/2+z
loop_
_atom_site_type_symbol
_atom_site_label
_atom_site_fract_x
_atom_site_fract_y
_atom_site_fract_z
Si Si1 0.939879 0.180353 0.334382
Si Si2 0.055290 0.366650 0.342100
Si Si3 0.000000 0.500000 0.750000
Si Si4 0.273052 0.800429 0.152102
Si Si5 0.405330 0.230853 0.659797
Si Si6 0.891285 0.565983 0.845390
Si Si7 0.250220 0.458714 0.159376
Si Si8 0.190693 0.863977 0.338346
O O1 0.954627 0.187006 0.500000
O O2 0.924330 0.229935 0.268008
O O3 0.883499 0.144384 0.311434
O O4 0.000000 0.160752 0.250000
O O5 0.051997 0.384631 0.500000
O O6 0.047288 0.311760 0.337327
O O7 0.113422 0.392228 0.267270
O O8 0.000000 0.388337 0.250000
O O9 0.950993 0.531532 0.836698
O O10 0.250000 0.750000 0.127589
O O11 0.342978 0.795426 0.211422
O O12 0.228117 0.825049 0.258955
O O13 0.274037 0.825747 0.000000
O O14 0.399154 0.250499 0.500000
O O15 0.824818 0.541013 0.823731
O O16 0.892994 0.588002 0.000000
O O17 0.278221 0.500000 0.250000
O O18 0.285645 0.413074 0.214864
O O19 0.270051 0.466939 0.000000
O O20 0.206945 0.857485 0.500000
#
# Coordination Sequence:
#
# PCOD8276005 Si02
#       8
#    16  16   4  16  16  16  16  16
#     4  11  23  38  59  86 115 153 193 239 292 353
#     4  11  23  36  52  74 106 145 191 236 281 331
#     4  12  22  36  60  86 110 148 200 236 290 328
#     4  10  19  33  56  84 116 152 193 237 281 332
#     4  10  21  37  55  81 116 154 193 238 284 339
#     4  11  23  38  58  82 112 148 190 240 288 336
#     4  10  22  41  62  88 117 148 188 238 292 349
#     4  10  22  39  60  87 120 154 196 245 296 352
#
# _framework density 19.479559999999999
#
# number of rings (size 3 to 8) (size 9 to 14) (size 15 to 20)
#    0.000    1.517    2.759    2.276    0.000    5.241 
#    0.000    0.000    0.000    0.414    0.000    2.897 
#    0.000    0.000    0.000    0.000    0.000    0.000 
#
# Total GULP energy -718569.395472 kJ/mol
# GULP energy per Si atom -12389.127508 kJ/mol
# Density = 1.943522 g / cm^3
# Si number density = 19.479560 Si / 1000 Ang^3
#
#
#
# Elastic Constant Matrix: (Units=GPa)
#
#
# Indices 1 2 3 4 5 6 
#
# 1 99.5460 35.3142 47.7464 0.0000 0.0000 0.0000
# 2 35.3142 94.4060 48.2736 0.0000 0.0000 0.0000
# 3 47.7464 48.2736 116.2401 0.0000 0.0000 0.0000
# 4 0.0000 0.0000 0.0000 30.9114 0.0000 0.0000
# 5 0.0000 0.0000 0.0000 0.0000 26.8557 0.0000
# 6 0.0000 0.0000 0.0000 0.0000 0.0000 23.7656
#
#
#
# Elastic Compliance Matrix: (Units=1/GPa)
#
#
# Indices 1 2 3 4 5 6 
#
# 1 0.013036 -0.002715 -0.004227 0.000000 0.000000 0.000000
# 2 -0.002715 0.014014 -0.004705 0.000000 0.000000 0.000000
# 3 -0.004227 -0.004705 0.012293 0.000000 0.000000 0.000000
# 4 0.000000 0.000000 0.000000 0.032351 0.000000 0.000000
# 5 0.000000 0.000000 0.000000 0.000000 0.037236 0.000000
# 6 0.000000 0.000000 0.000000 0.000000 0.000000 0.042078
#
#
# Mechanical properties :
#
#
# Convention : Reuss Voigt Hill
#
# Bulk Modulus (GPa) = 62.30714 63.65116 62.97915
# Shear Modulus (GPa) = 27.83176 28.23039 28.03107
#
# Velocity S-wave (km/s) = 3.78400 3.81101 3.79753
# Velocity P-wave (km/s) = 7.15171 7.21885 7.18536
#
# Compressibility (1/GPa) = 0.01604953
#
# Stress axis : x y z
#
# Youngs Moduli (GPa) = 76.70891 71.35831 81.34661
#
# Poissons Ratio (x) = 0.19373 0.34387
# Poissons Ratio (y) = 0.20825 0.38271
# Poissons Ratio (z) = 0.32427 0.33572
#
# Static dielectric constant tensor:
#      x y z
#    x 3.609780 0.000000 0.000000 
#    y 0.000000 3.392450 0.000000 
#    z 0.000000 0.000000 3.726630 
# 
# 
# High freq. dielectric constant tensor:
#      x y z
#    x 1.752690 0.000000 0.000000 
#    y 0.000000 1.742290 0.000000 
#    z 0.000000 0.000000 1.764730 
# 
# From -- ./inp_files/9593.got.cif
#   From: 2010.03.12/outbox.cif.g09.slc.cpg/sg66_5_cif.got.tgz:9593.got - 2010.04.10 21:57:39.
