data_PCOD8276823
_publ_section_title
;
Structure prediction by ZEFSAII (Michael W. Deem and Ramdas Pophale) SiO2 
 PCOD8276823
Probable space group: C C C M
;
_chemical_formula_sum "Si O2"
_cell_formula_units_Z 56
_cell_length_a 33.395334
_cell_length_b 4.999626
_cell_length_c 17.155886
_cell_angle_alpha 90.000000
_cell_angle_beta 90.000000
_cell_angle_gamma 90.000000
_cell_volume 2864.418441
_symmetry_space_group_name_H-M "C C C M"
_symmetry_group_IT_number 66
_symmetry_cell_setting 'orthorhombic'
loop_
_space_group_symop_operation_xyz
x,y,z
-x,-y,z
x,-y,1/2-z
-x,y,1/2-z
-x,-y,-z
x,y,-z
-x,y,1/2+z
x,-y,1/2+z
1/2+x,1/2+y,z
1/2-x,1/2-y,z
1/2+x,1/2-y,1/2-z
1/2-x,1/2+y,1/2-z
1/2-x,1/2-y,-z
1/2+x,1/2+y,-z
1/2-x,1/2+y,1/2+z
1/2+x,1/2-y,1/2+z
loop_
_atom_site_type_symbol
_atom_site_label
_atom_site_fract_x
_atom_site_fract_y
_atom_site_fract_z
Si Si1 0.108342 0.910268 0.838327
Si Si2 0.473492 0.242570 0.586547
Si Si3 0.354996 0.929188 0.585707
Si Si4 0.778483 0.492552 0.500000
O O1 0.063472 0.825657 0.859998
O O2 0.133490 0.640479 0.848454
O O3 0.109326 0.000000 0.750000
O O4 0.128650 0.136931 0.891596
O O5 0.500000 0.500000 0.579377
O O6 0.458794 0.153754 0.500000
O O7 0.500000 0.000000 0.623549
O O8 0.374157 0.994008 0.500000
O O9 0.306729 0.958172 0.576862
O O10 0.750000 0.250000 0.500000
O O11 0.750000 0.750000 0.500000
#
# Coordination Sequence:
#
# PCOD8276823 Si02
#       4
#    16  16  16   8
#     4  12  23  39  60  91 130 163 208 258 315 373
#     4  10  21  37  59  84 115 158 205 255 298 347
#     4  10  22  38  65  91 118 164 203 260 297 380
#     4  10  20  38  68  98 116 150 210 262 296 364
#
# _framework density 19.550217
#
# number of rings (size 3 to 8) (size 9 to 14) (size 15 to 20)
#    0.857    0.571    0.000    6.857    0.000    2.857 
#    0.000    1.429    0.000   17.143    0.000    0.000 
#    0.000    0.000    0.000    0.000    0.000    0.000 
#
# Total GULP energy -346877.080341 kJ/mol
# GULP energy per Si atom -12388.467155 kJ/mol
# Density = 1.950572 g / cm^3
# Si number density = 19.550217 Si / 1000 Ang^3
#
#
#
# Elastic Constant Matrix: (Units=GPa)
#
#
# Indices 1 2 3 4 5 6 
#
# 1 140.7831 52.9770 31.7718 0.0000 0.0000 0.0000
# 2 52.9770 129.7851 9.0874 0.0000 0.0000 0.0000
# 3 31.7718 9.0874 74.3476 0.0000 0.0000 0.0000
# 4 0.0000 0.0000 0.0000 33.6344 0.0000 0.0000
# 5 0.0000 0.0000 0.0000 0.0000 1.2825 0.0000
# 6 0.0000 0.0000 0.0000 0.0000 0.0000 50.9848
#
#
#
# Elastic Compliance Matrix: (Units=1/GPa)
#
#
# Indices 1 2 3 4 5 6 
#
# 1 0.009219 -0.003517 -0.003510 0.000000 0.000000 0.000000
# 2 -0.003517 0.009114 0.000389 0.000000 0.000000 0.000000
# 3 -0.003510 0.000389 0.014903 0.000000 0.000000 0.000000
# 4 0.000000 0.000000 0.000000 0.029731 0.000000 0.000000
# 5 0.000000 0.000000 0.000000 0.000000 0.779738 0.000000
# 6 0.000000 0.000000 0.000000 0.000000 0.000000 0.019614
#
#
# Mechanical properties :
#
#
# Convention : Reuss Voigt Hill
#
# Bulk Modulus (GPa) = 50.10192 59.17645 54.63918
# Shear Modulus (GPa) = 5.66735 33.91896 19.79316
#
# Velocity S-wave (km/s) = 1.70445 4.16981 3.18532
# Velocity P-wave (km/s) = 5.43659 7.31558 6.44493
#
# Compressibility (1/GPa) = 0.01995932
#
# Stress axis : x y z
#
# Youngs Moduli (GPa) = 108.47486 109.72721 67.10249
#
# Poissons Ratio (x) = 0.38594 0.23550
# Poissons Ratio (y) = 0.38153 -0.02611
# Poissons Ratio (z) = 0.38071 -0.04270
#
# Static dielectric constant tensor:
#      x y z
#    x 3.553620 0.000000 0.000000 
#    y 0.000000 3.727560 0.000000 
#    z 0.000000 0.000000 3.371310 
# 
# 
# High freq. dielectric constant tensor:
#      x y z
#    x 1.763200 0.000000 0.000000 
#    y 0.000000 1.785060 0.000000 
#    z 0.000000 0.000000 1.736810 
# 
# From -- ./inp_files/33526.got.cif
#   From: 2010.03.12/outbox.cif.g09.slc.cpg/sg66_17_cif.got.tgz:33526.got - 2010.04.10 21:57:39.
