data_PCOD8276148
_publ_section_title
;
Structure prediction by ZEFSAII (Michael W. Deem and Ramdas Pophale) SiO2 
 PCOD8276148
Probable space group: C C C M
;
_chemical_formula_sum "Si O2"
_cell_formula_units_Z 112
_cell_length_a 14.696976
_cell_length_b 12.824503
_cell_length_c 27.342455
_cell_angle_alpha 90.000000
_cell_angle_beta 90.000000
_cell_angle_gamma 90.000000
_cell_volume 5153.544548
_symmetry_space_group_name_H-M "C C C M"
_symmetry_group_IT_number 66
_symmetry_cell_setting 'orthorhombic'
loop_
_space_group_symop_operation_xyz
x,y,z
-x,-y,z
x,-y,1/2-z
-x,y,1/2-z
-x,-y,-z
x,y,-z
-x,y,1/2+z
x,-y,1/2+z
1/2+x,1/2+y,z
1/2-x,1/2-y,z
1/2+x,1/2-y,1/2-z
1/2-x,1/2+y,1/2-z
1/2-x,1/2-y,-z
1/2+x,1/2+y,-z
1/2-x,1/2+y,1/2+z
1/2+x,1/2-y,1/2+z
loop_
_atom_site_type_symbol
_atom_site_label
_atom_site_fract_x
_atom_site_fract_y
_atom_site_fract_z
Si Si1 0.439699 0.100447 0.198588
Si Si2 0.343656 0.780351 0.133249
Si Si3 0.279931 0.991180 0.357206
Si Si4 0.970073 0.747543 0.886417
Si Si5 0.647468 0.732153 0.742315
Si Si6 0.314505 0.847970 0.555483
Si Si7 0.589915 0.430885 0.678783
O O1 0.338344 0.082057 0.178036
O O2 0.490778 0.170447 0.159041
O O3 0.417635 0.166980 0.247758
O O4 0.500000 0.000000 0.211395
O O5 0.250000 0.750000 0.106366
O O6 0.424460 0.739975 0.097007
O O7 0.352168 0.714768 0.184215
O O8 0.336939 0.903139 0.142411
O O9 0.277938 0.942275 0.411602
O O10 0.177839 0.001102 0.335280
O O11 0.914504 0.691384 0.928939
O O12 0.922188 0.851873 0.867037
O O13 0.750000 0.750000 0.761851
O O14 0.606866 0.631062 0.770448
O O15 0.318828 0.888405 0.500000
O O16 0.250000 0.750000 0.561711
O O17 0.500000 0.500000 0.685146
#
# Coordination Sequence:
#
# PCOD8276148 Si02
#       7
#    16  16  16  16  16  16  16
#     4  10  19  35  59  86 118 168 211 266 325 375
#     4  11  24  42  58  86 131 179 217 266 330 394
#     4  11  21  40  64  94 129 169 212 274 344 394
#     4  10  21  39  60  93 130 165 207 264 336 395
#     4  10  22  41  60  86 126 175 236 280 309 365
#     4  10  21  41  76 107 125 157 216 282 338 414
#     4  11  22  39  67  91 129 181 229 276 323 386
#
# _framework density 21.732614000000002
#
# number of rings (size 3 to 8) (size 9 to 14) (size 15 to 20)
#    0.000    1.571    4.286    0.857    0.000    2.857 
#    5.143    7.143    0.000    5.143    0.000    0.000 
#    0.000    0.000    0.000    0.000    0.000    0.000 
#
# Total GULP energy -694177.305423 kJ/mol
# GULP energy per Si atom -12396.023311 kJ/mol
# Density = 2.168315 g / cm^3
# Si number density = 21.732614 Si / 1000 Ang^3
#
#
#
# Elastic Constant Matrix: (Units=GPa)
#
#
# Indices 1 2 3 4 5 6 
#
# 1 140.5991 15.6647 33.0439 0.0000 0.0000 0.0000
# 2 15.6647 68.8591 24.7581 0.0000 0.0000 0.0000
# 3 33.0439 24.7581 83.8916 0.0000 0.0000 0.0000
# 4 0.0000 0.0000 0.0000 16.3867 0.0000 0.0000
# 5 0.0000 0.0000 0.0000 0.0000 18.3137 0.0000
# 6 0.0000 0.0000 0.0000 0.0000 0.0000 45.2371
#
#
#
# Elastic Compliance Matrix: (Units=1/GPa)
#
#
# Indices 1 2 3 4 5 6 
#
# 1 0.007873 -0.000756 -0.002878 0.000000 0.000000 0.000000
# 2 -0.000756 0.016319 -0.004518 0.000000 0.000000 0.000000
# 3 -0.002878 -0.004518 0.014387 0.000000 0.000000 0.000000
# 4 0.000000 0.000000 0.000000 0.061025 0.000000 0.000000
# 5 0.000000 0.000000 0.000000 0.000000 0.054604 0.000000
# 6 0.000000 0.000000 0.000000 0.000000 0.000000 0.022106
#
#
# Mechanical properties :
#
#
# Convention : Reuss Voigt Hill
#
# Bulk Modulus (GPa) = 44.89457 48.92037 46.90747
# Shear Modulus (GPa) = 24.99456 30.64636 27.82046
#
# Velocity S-wave (km/s) = 3.39498 3.75928 3.58176
# Velocity P-wave (km/s) = 6.00587 6.43443 6.22384
#
# Compressibility (1/GPa) = 0.02227441
#
# Stress axis : x y z
#
# Youngs Moduli (GPa) = 127.01550 61.27844 69.50654
#
# Poissons Ratio (x) = 0.04634 0.20003
# Poissons Ratio (y) = 0.09606 0.31404
# Poissons Ratio (z) = 0.36554 0.27687
#
# Static dielectric constant tensor:
#      x y z
#    x 4.407100 0.000000 0.000000 
#    y 0.000000 3.936960 0.000000 
#    z 0.000000 0.000000 3.462960 
# 
# 
# High freq. dielectric constant tensor:
#      x y z
#    x 1.891650 0.000000 0.000000 
#    y 0.000000 1.854780 0.000000 
#    z 0.000000 0.000000 1.796950 
# 
# From -- ./inp_files/69529.got.cif
#   From: 2010.03.12/outbox.cif.g09.slc.cpg/sg66_35_cif.got.tgz:69529.got - 2010.04.10 21:57:39.
