data_PCOD8276110
_publ_section_title
;
Structure prediction by ZEFSAII (Michael W. Deem and Ramdas Pophale) SiO2 
 PCOD8276110
Probable space group: C C C M
;
_chemical_formula_sum "Si O2"
_cell_formula_units_Z 112
_cell_length_a 31.249035
_cell_length_b 11.447782
_cell_length_c 15.001839
_cell_angle_alpha 90.000000
_cell_angle_beta 90.000000
_cell_angle_gamma 90.000000
_cell_volume 5366.639975
_symmetry_space_group_name_H-M "C C C M"
_symmetry_group_IT_number 66
_symmetry_cell_setting 'orthorhombic'
loop_
_space_group_symop_operation_xyz
x,y,z
-x,-y,z
x,-y,1/2-z
-x,y,1/2-z
-x,-y,-z
x,y,-z
-x,y,1/2+z
x,-y,1/2+z
1/2+x,1/2+y,z
1/2-x,1/2-y,z
1/2+x,1/2-y,1/2-z
1/2-x,1/2+y,1/2-z
1/2-x,1/2-y,-z
1/2+x,1/2+y,-z
1/2-x,1/2+y,1/2+z
1/2+x,1/2-y,1/2+z
loop_
_atom_site_type_symbol
_atom_site_label
_atom_site_fract_x
_atom_site_fract_y
_atom_site_fract_z
Si Si1 0.589877 0.622467 0.768212
Si Si2 0.662181 0.898072 0.098356
Si Si3 0.251315 0.614366 0.690977
Si Si4 0.968565 0.737595 0.099267
Si Si5 0.337888 0.370235 0.902618
Si Si6 0.066496 0.252852 0.400264
Si Si7 0.925738 0.489545 0.349938
O O1 0.566015 0.500000 0.750000
O O2 0.561573 0.700243 0.831342
O O3 0.633909 0.584895 0.818964
O O4 0.596583 0.690026 0.673747
O O5 0.706128 0.918677 0.149212
O O6 0.650582 0.764057 0.088042
O O7 0.623614 0.951125 0.154839
O O8 0.664889 0.955921 0.000000
O O9 0.262711 0.500000 0.750000
O O10 0.250000 0.750000 0.733101
O O11 0.287555 0.615087 0.615502
O O12 0.957501 0.600022 0.100400
O O13 0.017078 0.766262 0.126310
O O14 0.959611 0.785474 0.000000
O O15 0.347871 0.429507 0.000000
O O16 0.076521 0.204003 0.500000
O O17 0.074065 0.390268 0.402982
O O18 0.943300 0.500000 0.250000
#
# Coordination Sequence:
#
# PCOD8276110 Si02
#       7
#    16  16  16  16  16  16  16
#     4  12  25  41  62  86 118 164 218 268 319 370
#     4  10  19  34  60  92 124 161 207 261 315 379
#     4  10  21  37  60  92 128 167 213 265 326 385
#     4  11  23  41  63  87 120 163 209 256 315 386
#     4  10  20  39  64  91 122 162 218 269 314 379
#     4  11  25  41  60  91 127 161 201 258 324 388
#     4  12  21  36  63  94 126 160 202 255 323 383
#
# _framework density 20.869668000000001
#
# number of rings (size 3 to 8) (size 9 to 14) (size 15 to 20)
#    0.000    1.143    2.857    3.857    0.000    6.857 
#    0.000    1.429    0.000    1.714    0.000    0.000 
#    0.000    0.000    0.000    0.000    0.000    0.000 
#
# Total GULP energy -693944.794533 kJ/mol
# GULP energy per Si atom -12391.871331 kJ/mol
# Density = 2.082217 g / cm^3
# Si number density = 20.869668 Si / 1000 Ang^3
#
#
#
# Elastic Constant Matrix: (Units=GPa)
#
#
# Indices 1 2 3 4 5 6 
#
# 1 66.7003 -4.5665 36.3368 0.0000 0.0000 0.0000
# 2 -4.5665 86.6403 31.9549 0.0000 0.0000 0.0000
# 3 36.3368 31.9549 124.5185 0.0000 0.0000 0.0000
# 4 0.0000 0.0000 0.0000 0.4428 0.0000 0.0000
# 5 0.0000 0.0000 0.0000 0.0000 18.2988 0.0000
# 6 0.0000 0.0000 0.0000 0.0000 0.0000 8.1393
#
#
#
# Elastic Compliance Matrix: (Units=1/GPa)
#
#
# Indices 1 2 3 4 5 6 
#
# 1 0.018644 0.003302 -0.006288 0.000000 0.000000 0.000000
# 2 0.003302 0.013333 -0.004385 0.000000 0.000000 0.000000
# 3 -0.006288 -0.004385 0.010991 0.000000 0.000000 0.000000
# 4 0.000000 0.000000 0.000000 2.258474 0.000000 0.000000
# 5 0.000000 0.000000 0.000000 0.000000 0.054648 0.000000
# 6 0.000000 0.000000 0.000000 0.000000 0.000000 0.122860
#
#
# Mechanical properties :
#
#
# Convention : Reuss Voigt Hill
#
# Bulk Modulus (GPa) = 35.42854 45.03436 40.23145
# Shear Modulus (GPa) = 1.99752 19.65178 10.82465
#
# Velocity S-wave (km/s) = 0.97940 3.07195 2.27992
# Velocity P-wave (km/s) = 4.27690 5.84878 5.12348
#
# Compressibility (1/GPa) = 0.02822583
#
# Stress axis : x y z
#
# Youngs Moduli (GPa) = 53.63639 74.99973 90.98131
#
# Poissons Ratio (x) = -0.24764 0.57209
# Poissons Ratio (y) = -0.17710 0.39898
# Poissons Ratio (z) = 0.33727 0.32889
#
# Static dielectric constant tensor:
#      x y z
#    x 3.777250 0.000000 0.000000 
#    y 0.000000 3.824120 0.000000 
#    z 0.000000 0.000000 4.028360 
# 
# 
# High freq. dielectric constant tensor:
#      x y z
#    x 1.816160 0.000000 0.000000 
#    y 0.000000 1.801910 0.000000 
#    z 0.000000 0.000000 1.825000 
# 
# From -- ./inp_files/27029.got.cif
#   From: 2010.03.12/outbox.cif.g09.slc.cpg/sg66_14_cif.got.tgz:27029.got - 2010.04.10 21:57:39.
