data_PCOD8276187
_publ_section_title
;
Structure prediction by ZEFSAII (Michael W. Deem and Ramdas Pophale) SiO2 
 PCOD8276187
Probable space group: C C C M
;
_chemical_formula_sum "Si O2"
_cell_formula_units_Z 64
_cell_length_a 14.191172
_cell_length_b 9.887645
_cell_length_c 25.122637
_cell_angle_alpha 90.000000
_cell_angle_beta 90.000000
_cell_angle_gamma 90.000000
_cell_volume 3525.139861
_symmetry_space_group_name_H-M "C C C M"
_symmetry_group_IT_number 66
_symmetry_cell_setting 'orthorhombic'
loop_
_space_group_symop_operation_xyz
x,y,z
-x,-y,z
x,-y,1/2-z
-x,y,1/2-z
-x,-y,-z
x,y,-z
-x,y,1/2+z
x,-y,1/2+z
1/2+x,1/2+y,z
1/2-x,1/2-y,z
1/2+x,1/2-y,1/2-z
1/2-x,1/2+y,1/2-z
1/2-x,1/2-y,-z
1/2+x,1/2+y,-z
1/2-x,1/2+y,1/2+z
1/2+x,1/2-y,1/2+z
loop_
_atom_site_type_symbol
_atom_site_label
_atom_site_fract_x
_atom_site_fract_y
_atom_site_fract_z
Si Si1 0.250000 0.250000 0.328260
Si Si2 0.737381 0.018272 0.910842
Si Si3 0.389509 0.658895 0.744359
Si Si4 0.750000 0.250000 0.654438
Si Si5 0.161837 0.854693 0.000000
Si Si6 0.593266 0.917177 0.500000
O O1 0.232670 0.381565 0.362121
O O2 0.343093 0.263434 0.293111
O O3 0.734438 0.870857 0.886415
O O4 0.831120 0.051136 0.947110
O O5 0.646528 0.037175 0.947077
O O6 0.368143 0.500000 0.750000
O O7 0.500000 0.689775 0.750000
O O8 0.342912 0.717893 0.690089
O O9 0.250000 0.750000 0.000000
O O10 0.074442 0.748219 0.000000
O O11 0.500000 0.000000 0.500000
#
# Coordination Sequence:
#
# PCOD8276187 Si02
#       6
#     8  16  16   8   8   8
#     4  11  18  37  64  76 108 163 190 233 292 358
#     4  10  19  36  59  80 111 155 195 230 294 353
#     4  10  22  37  56  85 119 151 194 246 296 351
#     4  11  22  37  58  90 114 157 200 239 294 348
#     4   8  16  34  55  78 107 152 188 227 294 342
#     4  10  20  34  57  90 118 141 199 252 288 346
#
# _framework density 18.155308000000002
#
# number of rings (size 3 to 8) (size 9 to 14) (size 15 to 20)
#    0.000    2.250    6.250    0.000    0.000    4.000 
#    0.000    1.250    0.000    1.500    0.000    0.000 
#    0.000    0.000    0.000    0.000    0.000    0.000 
#
# Total GULP energy -396495.022822 kJ/mol
# GULP energy per Si atom -12390.469463 kJ/mol
# Density = 1.811399 g / cm^3
# Si number density = 18.155308 Si / 1000 Ang^3
#
#
#
# Elastic Constant Matrix: (Units=GPa)
#
#
# Indices 1 2 3 4 5 6 
#
# 1 97.7982 43.7596 47.2723 0.0000 0.0000 0.0000
# 2 43.7596 150.4078 76.8480 0.0000 0.0000 0.0000
# 3 47.2723 76.8480 141.3873 0.0000 0.0000 0.0000
# 4 0.0000 0.0000 0.0000 39.8406 0.0000 0.0000
# 5 0.0000 0.0000 0.0000 0.0000 -2.2920 0.0000
# 6 0.0000 0.0000 0.0000 0.0000 0.0000 31.2575
#
#
#
# Elastic Compliance Matrix: (Units=1/GPa)
#
#
# Indices 1 2 3 4 5 6 
#
# 1 0.012660 -0.002105 -0.003089 0.000000 0.000000 0.000000
# 2 -0.002105 0.009555 -0.004489 0.000000 0.000000 0.000000
# 3 -0.003089 -0.004489 0.010546 0.000000 0.000000 0.000000
# 4 0.000000 0.000000 0.000000 0.025100 0.000000 0.000000
# 5 0.000000 0.000000 0.000000 0.000000 -0.436291 0.000000
# 6 0.000000 0.000000 0.000000 0.000000 0.000000 0.031992
#
#
# Mechanical properties :
#
#
# Convention : Reuss Voigt Hill
#
# Bulk Modulus (GPa) = 74.66080 80.59481 77.62780
# Shear Modulus (GPa) = -15.49873 28.54211 6.52169
#
# Velocity S-wave (km/s) = -2.92494 3.96928 1.89736
# Velocity P-wave (km/s) = 5.45945 8.09291 6.90293
#
# Compressibility (1/GPa) = 0.01339391
#
# Stress axis : x y z
#
# Youngs Moduli (GPa) = 78.98873 104.65819 94.82647
#
# Poissons Ratio (x) = 0.22033 0.29288
# Poissons Ratio (y) = 0.16629 0.42572
# Poissons Ratio (z) = 0.24396 0.46986
#
# Static dielectric constant tensor:
#      x y z
#    x 3.192950 0.000000 0.000000 
#    y 0.000000 3.594390 0.000000 
#    z 0.000000 0.000000 3.280010 
# 
# 
# High freq. dielectric constant tensor:
#      x y z
#    x 1.669740 0.000000 0.000000 
#    y 0.000000 1.714500 0.000000 
#    z 0.000000 0.000000 1.723860 
# 
# From -- ./inp_files/57749.got.cif
#   From: 2010.03.12/outbox.cif.g09.slc.cpg/sg66_29_cif.got.tgz:57749.got - 2010.04.10 21:57:39.
