data_PCOD8276162
_publ_section_title
;
Structure prediction by ZEFSAII (Michael W. Deem and Ramdas Pophale) SiO2 
 PCOD8276162
Probable space group: C C C M
;
_chemical_formula_sum "Si O2"
_cell_formula_units_Z 96
_cell_length_a 15.369757
_cell_length_b 18.670482
_cell_length_c 17.257521
_cell_angle_alpha 90.000000
_cell_angle_beta 90.000000
_cell_angle_gamma 90.000000
_cell_volume 4952.231539
_symmetry_space_group_name_H-M "C C C M"
_symmetry_group_IT_number 66
_symmetry_cell_setting 'orthorhombic'
loop_
_space_group_symop_operation_xyz
x,y,z
-x,-y,z
x,-y,1/2-z
-x,y,1/2-z
-x,-y,-z
x,y,-z
-x,y,1/2+z
x,-y,1/2+z
1/2+x,1/2+y,z
1/2-x,1/2-y,z
1/2+x,1/2-y,1/2-z
1/2-x,1/2+y,1/2-z
1/2-x,1/2-y,-z
1/2+x,1/2+y,-z
1/2-x,1/2+y,1/2+z
1/2+x,1/2-y,1/2+z
loop_
_atom_site_type_symbol
_atom_site_label
_atom_site_fract_x
_atom_site_fract_y
_atom_site_fract_z
Si Si1 0.920855 0.188331 0.307404
Si Si2 0.068955 0.557049 0.091797
Si Si3 0.080336 0.950668 0.588858
Si Si4 0.672408 0.300081 0.158502
Si Si5 0.264823 0.443214 0.588585
Si Si6 0.482769 0.214888 0.590436
O O1 0.909466 0.119752 0.360883
O O2 0.839140 0.203922 0.251596
O O3 0.000000 0.173001 0.250000
O O4 0.933233 0.258970 0.361034
O O5 0.167288 0.537794 0.118554
O O6 0.045435 0.636792 0.121186
O O7 0.000000 0.500000 0.127525
O O8 0.062259 0.554572 0.000000
O O9 0.061879 0.928778 0.500000
O O10 0.173376 0.988723 0.597153
O O11 0.000000 0.000000 0.618396
O O12 0.750000 0.250000 0.131458
O O13 0.692633 0.381540 0.139149
O O14 0.590113 0.274237 0.108627
O O15 0.259219 0.416531 0.500000
O O16 0.505144 0.213712 0.500000
#
# Coordination Sequence:
#
# PCOD8276162 Si02
#       6
#    16  16  16  16  16  16
#     4  10  22  36  54  79 117 155 185 223 287 358
#     4   9  18  34  57  84 112 143 187 247 298 335
#     4  10  20  36  58  85 117 148 190 240 287 348
#     4  11  21  35  56  83 117 149 186 240 290 344
#     4  10  20  34  58  90 116 146 194 245 292 338
#     4  10  19  35  62  86 109 145 195 246 294 342
#
# _framework density 19.385200000000001
#
# number of rings (size 3 to 8) (size 9 to 14) (size 15 to 20)
#    0.000    2.000    1.667    3.000    0.000    4.333 
#    3.000    0.000    0.000    5.500    0.000    0.000 
#    0.000    0.000    0.000    0.000    0.000    0.000 
#
# Total GULP energy -595130.064334 kJ/mol
# GULP energy per Si atom -12398.543007 kJ/mol
# Density = 1.934108 g / cm^3
# Si number density = 19.385200 Si / 1000 Ang^3
#
#
#
# Elastic Constant Matrix: (Units=GPa)
#
#
# Indices 1 2 3 4 5 6 
#
# 1 87.8328 44.3725 27.1566 0.0000 0.0000 0.0000
# 2 44.3725 92.6212 33.0667 0.0000 0.0000 0.0000
# 3 27.1566 33.0667 71.5418 0.0000 0.0000 0.0000
# 4 0.0000 0.0000 0.0000 18.8026 0.0000 0.0000
# 5 0.0000 0.0000 0.0000 0.0000 13.8671 0.0000
# 6 0.0000 0.0000 0.0000 0.0000 0.0000 33.5500
#
#
#
# Elastic Compliance Matrix: (Units=1/GPa)
#
#
# Indices 1 2 3 4 5 6 
#
# 1 0.015520 -0.006386 -0.002940 0.000000 0.000000 0.000000
# 2 -0.006386 0.015558 -0.004767 0.000000 0.000000 0.000000
# 3 -0.002940 -0.004767 0.017297 0.000000 0.000000 0.000000
# 4 0.000000 0.000000 0.000000 0.053184 0.000000 0.000000
# 5 0.000000 0.000000 0.000000 0.000000 0.072113 0.000000
# 6 0.000000 0.000000 0.000000 0.000000 0.000000 0.029806
#
#
# Mechanical properties :
#
#
# Convention : Reuss Voigt Hill
#
# Bulk Modulus (GPa) = 49.52918 51.24304 50.38611
# Shear Modulus (GPa) = 20.97371 23.07060 22.02216
#
# Velocity S-wave (km/s) = 3.29286 3.45355 3.37416
# Velocity P-wave (km/s) = 6.32951 6.51108 6.42094
#
# Compressibility (1/GPa) = 0.02019012
#
# Stress axis : x y z
#
# Youngs Moduli (GPa) = 64.43181 64.27661 57.81348
#
# Poissons Ratio (x) = 0.41046 0.16996
# Poissons Ratio (y) = 0.41145 0.27559
# Poissons Ratio (z) = 0.18942 0.30639
#
# Static dielectric constant tensor:
#      x y z
#    x 6.881280 0.000000 0.000000 
#    y 0.000000 3.561700 0.000000 
#    z 0.000000 0.000000 3.586690 
# 
# 
# High freq. dielectric constant tensor:
#      x y z
#    x 1.749250 0.000000 0.000000 
#    y 0.000000 1.754100 0.000000 
#    z 0.000000 0.000000 1.740850 
# 
# From -- ./inp_files/41738.got.cif
#   From: 2010.03.12/outbox.cif.g09.slc.cpg/sg66_21_cif.got.tgz:41738.got - 2010.04.10 21:57:39.
