data_PCOD8276872
_publ_section_title
;
Structure prediction by ZEFSAII (Michael W. Deem and Ramdas Pophale) SiO2 
 PCOD8276872
Probable space group: C C C M
;
_chemical_formula_sum "Si O2"
_cell_formula_units_Z 60
_cell_length_a 5.035803
_cell_length_b 26.306041
_cell_length_c 21.687430
_cell_angle_alpha 90.000000
_cell_angle_beta 90.000000
_cell_angle_gamma 90.000000
_cell_volume 2872.978098
_symmetry_space_group_name_H-M "C C C M"
_symmetry_group_IT_number 66
_symmetry_cell_setting 'orthorhombic'
loop_
_space_group_symop_operation_xyz
x,y,z
-x,-y,z
x,-y,1/2-z
-x,y,1/2-z
-x,-y,-z
x,y,-z
-x,y,1/2+z
x,-y,1/2+z
1/2+x,1/2+y,z
1/2-x,1/2-y,z
1/2+x,1/2-y,1/2-z
1/2-x,1/2+y,1/2-z
1/2-x,1/2-y,-z
1/2+x,1/2+y,-z
1/2-x,1/2+y,1/2+z
1/2+x,1/2-y,1/2+z
loop_
_atom_site_type_symbol
_atom_site_label
_atom_site_fract_x
_atom_site_fract_y
_atom_site_fract_z
Si Si1 0.500000 0.000000 0.750000
Si Si2 0.738835 0.968561 0.631435
Si Si3 0.160450 0.307583 0.120023
Si Si4 0.500000 0.783442 0.750000
Si Si5 0.669736 0.638510 0.571460
O O1 0.685363 0.964942 0.705632
O O2 0.739639 0.912934 0.603579
O O3 0.500000 0.000000 0.599455
O O4 0.000000 0.000000 0.616157
O O5 0.250000 0.250000 0.107473
O O6 0.089805 0.317223 0.191912
O O7 0.399142 0.344623 0.103568
O O8 0.902006 0.319787 0.079194
O O9 0.750000 0.750000 0.727293
O O10 0.612841 0.629455 0.500000
#
# Coordination Sequence:
#
# PCOD8276872 Si02
#       5
#     4  16  16   8  16
#     4   8  22  42  68  96 130 156 214 270 356 396
#     4  10  22  43  65  93 129 162 213 277 333 395
#     4  11  24  44  66  96 135 175 220 275 322 378
#     4  10  20  41  66  92 125 166 221 272 331 380
#     4  12  26  42  65  99 131 180 228 256 322 394
#
# _framework density 20.884253999999999
#
# number of rings (size 3 to 8) (size 9 to 14) (size 15 to 20)
#    0.800    0.533    0.000    6.800    0.000    5.333 
#    4.800    0.000    0.000    0.000    0.000    0.000 
#    0.000    0.000    0.000    0.000    0.000    0.000 
#
# Total GULP energy -371959.751816 kJ/mol
# GULP energy per Si atom -12398.658394 kJ/mol
# Density = 2.083672 g / cm^3
# Si number density = 20.884254 Si / 1000 Ang^3
#
#
#
# Elastic Constant Matrix: (Units=GPa)
#
#
# Indices 1 2 3 4 5 6 
#
# 1 156.4203 32.8900 63.3606 0.0000 0.0000 0.0000
# 2 32.8900 83.2301 76.9710 0.0000 0.0000 0.0000
# 3 63.3606 76.9710 148.5386 0.0000 0.0000 0.0000
# 4 0.0000 0.0000 0.0000 40.9247 0.0000 0.0000
# 5 0.0000 0.0000 0.0000 0.0000 20.7715 0.0000
# 6 0.0000 0.0000 0.0000 0.0000 0.0000 36.3171
#
#
#
# Elastic Compliance Matrix: (Units=1/GPa)
#
#
# Indices 1 2 3 4 5 6 
#
# 1 0.007728 -0.000010 -0.003291 0.000000 0.000000 0.000000
# 2 -0.000010 0.023071 -0.011951 0.000000 0.000000 0.000000
# 3 -0.003291 -0.011951 0.014329 0.000000 0.000000 0.000000
# 4 0.000000 0.000000 0.000000 0.024435 0.000000 0.000000
# 5 0.000000 0.000000 0.000000 0.000000 0.048143 0.000000
# 6 0.000000 0.000000 0.000000 0.000000 0.000000 0.027535
#
#
# Mechanical properties :
#
#
# Convention : Reuss Voigt Hill
#
# Bulk Modulus (GPa) = 68.38213 81.62581 75.00397
# Shear Modulus (GPa) = 27.68233 33.93381 30.80807
#
# Velocity S-wave (km/s) = 3.64471 4.03532 3.84498
# Velocity P-wave (km/s) = 7.10819 7.80266 7.46350
#
# Compressibility (1/GPa) = 0.01462370
#
# Stress axis : x y z
#
# Youngs Moduli (GPa) = 129.39312 43.34458 69.78876
#
# Poissons Ratio (x) = 0.00044 0.22970
# Poissons Ratio (y) = 0.00132 0.83403
# Poissons Ratio (z) = 0.42588 0.51800
#
# Static dielectric constant tensor:
#      x y z
#    x 4.040560 0.000000 0.000000 
#    y 0.000000 3.667350 0.000000 
#    z 0.000000 0.000000 3.732930 
# 
# 
# High freq. dielectric constant tensor:
#      x y z
#    x 1.843730 0.000000 0.000000 
#    y 0.000000 1.800570 0.000000 
#    z 0.000000 0.000000 1.815220 
# 
# From -- ./inp_files/45567.got.cif
#   From: 2010.03.12/outbox.cif.g09.slc.cpg/sg66_23_cif.got.tgz:45567.got - 2010.04.10 21:57:39.
