data_PCOD8276915
_publ_section_title
;
Structure prediction by ZEFSAII (Michael W. Deem and Ramdas Pophale) SiO2 
 PCOD8276915
Probable space group: C C C M
;
_chemical_formula_sum "Si O2"
_cell_formula_units_Z 88
_cell_length_a 22.482685
_cell_length_b 11.668552
_cell_length_c 18.602409
_cell_angle_alpha 90.000000
_cell_angle_beta 90.000000
_cell_angle_gamma 90.000000
_cell_volume 4880.163028
_symmetry_space_group_name_H-M "C C C M"
_symmetry_group_IT_number 66
_symmetry_cell_setting 'orthorhombic'
loop_
_space_group_symop_operation_xyz
x,y,z
-x,-y,z
x,-y,1/2-z
-x,y,1/2-z
-x,-y,-z
x,y,-z
-x,y,1/2+z
x,-y,1/2+z
1/2+x,1/2+y,z
1/2-x,1/2-y,z
1/2+x,1/2-y,1/2-z
1/2-x,1/2+y,1/2-z
1/2-x,1/2-y,-z
1/2+x,1/2+y,-z
1/2-x,1/2+y,1/2+z
1/2+x,1/2-y,1/2+z
loop_
_atom_site_type_symbol
_atom_site_label
_atom_site_fract_x
_atom_site_fract_y
_atom_site_fract_z
Si Si1 0.064956 0.187405 0.741939
Si Si2 0.160052 0.377014 0.725143
Si Si3 0.811728 0.924128 0.919621
Si Si4 0.250000 0.750000 0.681359
Si Si5 0.433764 0.501437 0.366290
Si Si6 0.278334 0.874078 0.080820
O O1 0.111419 0.287604 0.750558
O O2 0.069989 0.093024 0.803151
O O3 0.000000 0.243839 0.750000
O O4 0.076462 0.125550 0.665613
O O5 0.137320 0.500000 0.750000
O O6 0.220298 0.344365 0.767089
O O7 0.168857 0.380139 0.638935
O O8 0.798381 0.817144 0.867224
O O9 0.880502 0.965806 0.919828
O O10 0.770791 0.031632 0.898023
O O11 0.797280 0.882532 0.000000
O O12 0.500000 0.500000 0.402789
O O13 0.250000 0.750000 0.085152
O O14 0.303431 0.896349 0.000000
#
# Coordination Sequence:
#
# PCOD8276915 Si02
#       6
#    16  16  16   8  16  16
#     4   9  19  35  56  82 111 139 182 243 283 319
#     4  12  22  34  58  83 105 147 189 231 275 338
#     4  11  22  36  54  80 118 154 183 228 286 340
#     4  12  23  36  55  84 114 140 198 234 279 338
#     4   9  18  34  57  82 110 145 184 229 284 328
#     4  10  21  35  51  80 115 144 176 224 279 333
#
# _framework density 18.032184000000001
#
# number of rings (size 3 to 8) (size 9 to 14) (size 15 to 20)
#    0.000    1.636    4.545    2.455    0.000    0.727 
#    0.000    0.000    0.000    1.091    0.000    1.273 
#    0.000    0.000    0.000    0.000    0.000    0.000 
#
# Total GULP energy -545419.579193 kJ/mol
# GULP energy per Si atom -12395.899527 kJ/mol
# Density = 1.799114 g / cm^3
# Si number density = 18.032184 Si / 1000 Ang^3
#
#
#
# Elastic Constant Matrix: (Units=GPa)
#
#
# Indices 1 2 3 4 5 6 
#
# 1 87.4245 30.1040 26.9481 0.0000 0.0000 0.0000
# 2 30.1040 88.0068 24.7576 0.0000 0.0000 0.0000
# 3 26.9481 24.7576 81.2528 0.0000 0.0000 0.0000
# 4 0.0000 0.0000 0.0000 -44.8018 0.0000 0.0000
# 5 0.0000 0.0000 0.0000 0.0000 11.4154 0.0000
# 6 0.0000 0.0000 0.0000 0.0000 0.0000 27.3743
#
#
#
# Elastic Compliance Matrix: (Units=1/GPa)
#
#
# Indices 1 2 3 4 5 6 
#
# 1 0.013787 -0.003751 -0.003430 0.000000 0.000000 0.000000
# 2 -0.003751 0.013449 -0.002854 0.000000 0.000000 0.000000
# 3 -0.003430 -0.002854 0.014314 0.000000 0.000000 0.000000
# 4 0.000000 0.000000 0.000000 -0.022321 0.000000 0.000000
# 5 0.000000 0.000000 0.000000 0.000000 0.087601 0.000000
# 6 0.000000 0.000000 0.000000 0.000000 0.000000 0.036531
#
#
# Mechanical properties :
#
#
# Convention : Reuss Voigt Hill
#
# Bulk Modulus (GPa) = 46.55268 46.70038 46.62653
# Shear Modulus (GPa) = 29.30981 10.45586 19.88284
#
# Velocity S-wave (km/s) = 4.03602 2.41061 3.32419
# Velocity P-wave (km/s) = 6.89868 5.80540 6.37551
#
# Compressibility (1/GPa) = 0.02148104
#
# Stress axis : x y z
#
# Youngs Moduli (GPa) = 72.53018 74.35648 69.86049
#
# Poissons Ratio (x) = 0.27894 0.23960
# Poissons Ratio (y) = 0.27209 0.19936
# Poissons Ratio (z) = 0.24875 0.21219
#
# Static dielectric constant tensor:
#      x y z
#    x 3.471640 0.000000 0.000000 
#    y 0.000000 3.340440 0.000000 
#    z 0.000000 0.000000 3.367560 
# 
# 
# High freq. dielectric constant tensor:
#      x y z
#    x 1.684900 0.000000 0.000000 
#    y 0.000000 1.698030 0.000000 
#    z 0.000000 0.000000 1.692570 
# 
# From -- ./inp_files/42756.got.cif
#   From: 2010.03.12/outbox.cif.g09.slc.cpg/sg66_22_cif.got.tgz:42756.got - 2010.04.10 21:57:39.
