data_PCOD8276636
_publ_section_title
;
Structure prediction by ZEFSAII (Michael W. Deem and Ramdas Pophale) SiO2 
 PCOD8276636
Probable space group: C C C M
;
_chemical_formula_sum "Si O2"
_cell_formula_units_Z 64
_cell_length_a 34.935424
_cell_length_b 4.881542
_cell_length_c 16.498249
_cell_angle_alpha 90.000000
_cell_angle_beta 90.000000
_cell_angle_gamma 90.000000
_cell_volume 2813.590589
_symmetry_space_group_name_H-M "C C C M"
_symmetry_group_IT_number 66
_symmetry_cell_setting 'orthorhombic'
loop_
_space_group_symop_operation_xyz
x,y,z
-x,-y,z
x,-y,1/2-z
-x,y,1/2-z
-x,-y,-z
x,y,-z
-x,y,1/2+z
x,-y,1/2+z
1/2+x,1/2+y,z
1/2-x,1/2-y,z
1/2+x,1/2-y,1/2-z
1/2-x,1/2+y,1/2-z
1/2-x,1/2-y,-z
1/2+x,1/2+y,-z
1/2-x,1/2+y,1/2+z
1/2+x,1/2-y,1/2+z
loop_
_atom_site_type_symbol
_atom_site_label
_atom_site_fract_x
_atom_site_fract_y
_atom_site_fract_z
Si Si1 0.091736 0.502366 0.908383
Si Si2 0.841730 0.246341 0.801657
Si Si3 0.776175 0.006303 0.410685
Si Si4 0.541665 0.519983 0.908248
O O1 0.127609 0.604323 0.857739
O O2 0.072399 0.230633 0.868326
O O3 0.058130 0.719423 0.906644
O O4 0.106479 0.446818 0.000000
O O5 0.823680 0.500000 0.750000
O O6 0.810221 0.077453 0.851538
O O7 0.861211 0.000000 0.750000
O O8 0.792186 0.097256 0.500000
O O9 0.750000 0.750000 0.424074
O O10 0.750000 0.250000 0.373031
O O11 0.500000 0.500000 0.864572
O O12 0.535512 0.629476 0.000000
#
# Coordination Sequence:
#
# PCOD8276636 Si02
#       4
#    16  16  16  16
#     4  10  20  36  59  86 120 161 204 252 306 365
#     4  12  25  40  60  89 127 166 205 253 307 373
#     4  10  22  42  67  92 119 155 204 260 314 371
#     4   9  17  31  56  89 118 149 200 261 309 353
#
# _framework density 22.746735000000001
#
# number of rings (size 3 to 8) (size 9 to 14) (size 15 to 20)
#    0.000    1.750    0.000    4.500    0.000    5.000 
#    0.000   10.000    0.000   11.250    0.000    0.000 
#    0.000    0.000    0.000    0.000    0.000    0.000 
#
# Total GULP energy -396532.888836 kJ/mol
# GULP energy per Si atom -12391.652776 kJ/mol
# Density = 2.269496 g / cm^3
# Si number density = 22.746735 Si / 1000 Ang^3
#
#
#
# Elastic Constant Matrix: (Units=GPa)
#
#
# Indices 1 2 3 4 5 6 
#
# 1 118.6222 31.1532 52.2256 0.0000 0.0000 0.0000
# 2 31.1532 123.6477 32.2021 0.0000 0.0000 0.0000
# 3 52.2256 32.2021 75.2609 0.0000 0.0000 0.0000
# 4 0.0000 0.0000 0.0000 11.6129 0.0000 0.0000
# 5 0.0000 0.0000 0.0000 0.0000 35.6079 0.0000
# 6 0.0000 0.0000 0.0000 0.0000 0.0000 48.7362
#
#
#
# Elastic Compliance Matrix: (Units=1/GPa)
#
#
# Indices 1 2 3 4 5 6 
#
# 1 0.012244 -0.000981 -0.008076 0.000000 0.000000 0.000000
# 2 -0.000981 0.009180 -0.003247 0.000000 0.000000 0.000000
# 3 -0.008076 -0.003247 0.020281 0.000000 0.000000 0.000000
# 4 0.000000 0.000000 0.000000 0.086111 0.000000 0.000000
# 5 0.000000 0.000000 0.000000 0.000000 0.028084 0.000000
# 6 0.000000 0.000000 0.000000 0.000000 0.000000 0.020519
#
#
# Mechanical properties :
#
#
# Convention : Reuss Voigt Hill
#
# Bulk Modulus (GPa) = 58.49535 60.96585 59.73060
# Shear Modulus (GPa) = 24.18659 32.65472 28.42065
#
# Velocity S-wave (km/s) = 3.26436 3.79301 3.53857
# Velocity P-wave (km/s) = 6.32296 6.78548 6.55830
#
# Compressibility (1/GPa) = 0.01709538
#
# Stress axis : x y z
#
# Youngs Moduli (GPa) = 81.67540 108.92770 49.30790
#
# Poissons Ratio (x) = 0.10691 0.39822
# Poissons Ratio (y) = 0.08016 0.16010
# Poissons Ratio (z) = 0.65963 0.35369
#
# Static dielectric constant tensor:
#      x y z
#    x 3.843460 0.000000 0.000000 
#    y 0.000000 4.463530 0.000000 
#    z 0.000000 0.000000 4.154060 
# 
# 
# High freq. dielectric constant tensor:
#      x y z
#    x 1.890650 0.000000 0.000000 
#    y 0.000000 1.924310 0.000000 
#    z 0.000000 0.000000 1.868730 
# 
# From -- ./inp_files/44482.got.cif
#   From: 2010.03.12/outbox.cif.g09.slc.cpg/sg66_23_cif.got.tgz:44482.got - 2010.04.10 21:57:39.
