data_PCOD8276790
_publ_section_title
;
Structure prediction by ZEFSAII (Michael W. Deem and Ramdas Pophale) SiO2 
 PCOD8276790
Probable space group: C C C M
;
_chemical_formula_sum "Si O2"
_cell_formula_units_Z 88
_cell_length_a 30.273491
_cell_length_b 5.467490
_cell_length_c 26.333274
_cell_angle_alpha 90.000000
_cell_angle_beta 90.000000
_cell_angle_gamma 90.000000
_cell_volume 4358.683758
_symmetry_space_group_name_H-M "C C C M"
_symmetry_group_IT_number 66
_symmetry_cell_setting 'orthorhombic'
loop_
_space_group_symop_operation_xyz
x,y,z
-x,-y,z
x,-y,1/2-z
-x,y,1/2-z
-x,-y,-z
x,y,-z
-x,y,1/2+z
x,-y,1/2+z
1/2+x,1/2+y,z
1/2-x,1/2-y,z
1/2+x,1/2-y,1/2-z
1/2-x,1/2+y,1/2-z
1/2-x,1/2-y,-z
1/2+x,1/2+y,-z
1/2-x,1/2+y,1/2+z
1/2+x,1/2-y,1/2+z
loop_
_atom_site_type_symbol
_atom_site_label
_atom_site_fract_x
_atom_site_fract_y
_atom_site_fract_z
Si Si1 0.086418 0.237285 0.375680
Si Si2 0.801397 0.755355 0.889874
Si Si3 0.140371 0.919683 0.697108
Si Si4 0.834666 0.742259 0.559554
Si Si5 0.054433 0.626985 0.300995
Si Si6 0.500000 0.500000 0.646753
O O1 0.112566 0.273881 0.428415
O O2 0.067153 0.481549 0.351905
O O3 0.124314 0.145313 0.337106
O O4 0.044734 0.054023 0.385555
O O5 0.750000 0.750000 0.878005
O O6 0.826527 0.752249 0.835673
O O7 0.812470 0.504377 0.918989
O O8 0.813643 0.003088 0.920437
O O9 0.096398 0.784100 0.714937
O O10 0.164065 0.000000 0.750000
O O11 0.827652 0.740385 0.500000
O O12 0.039534 0.500000 0.250000
O O13 0.010338 0.773820 0.316369
#
# Coordination Sequence:
#
# PCOD8276790 Si02
#       6
#    16  16  16  16  16   8
#     4  10  21  38  58  85 123 165 209 258 315 375
#     4  11  24  43  68 100 131 163 210 267 324 388
#     4  10  20  38  59  88 125 171 207 247 307 384
#     4  11  24  44  70  95 125 167 215 270 331 384
#     4  11  20  36  57  84 122 167 211 256 313 374
#     4  10  24  35  53  88 126 160 209 268 317 368
#
# _framework density 20.189581
#
# number of rings (size 3 to 8) (size 9 to 14) (size 15 to 20)
#    0.000    1.455    3.636    1.636    0.000    4.364 
#    0.000    5.000    0.000    2.182    0.000    0.000 
#    0.000    0.000    0.000    0.000    0.000    0.000 
#
# Total GULP energy -545253.616138 kJ/mol
# GULP energy per Si atom -12392.127640 kJ/mol
# Density = 2.014363 g / cm^3
# Si number density = 20.189581 Si / 1000 Ang^3
#
#
#
# Elastic Constant Matrix: (Units=GPa)
#
#
# Indices 1 2 3 4 5 6 
#
# 1 127.2576 28.5343 39.8855 0.0000 0.0000 0.0000
# 2 28.5343 105.4423 19.8286 0.0000 0.0000 0.0000
# 3 39.8855 19.8286 86.8138 0.0000 0.0000 0.0000
# 4 0.0000 0.0000 0.0000 26.1576 0.0000 0.0000
# 5 0.0000 0.0000 0.0000 0.0000 7.1932 0.0000
# 6 0.0000 0.0000 0.0000 0.0000 0.0000 26.2469
#
#
#
# Elastic Compliance Matrix: (Units=1/GPa)
#
#
# Indices 1 2 3 4 5 6 
#
# 1 0.009506 -0.001830 -0.003950 0.000000 0.000000 0.000000
# 2 -0.001830 0.010262 -0.001503 0.000000 0.000000 0.000000
# 3 -0.003950 -0.001503 0.013677 0.000000 0.000000 0.000000
# 4 0.000000 0.000000 0.000000 0.038230 0.000000 0.000000
# 5 0.000000 0.000000 0.000000 0.000000 0.139021 0.000000
# 6 0.000000 0.000000 0.000000 0.000000 0.000000 0.038100
#
#
# Mechanical properties :
#
#
# Convention : Reuss Voigt Hill
#
# Bulk Modulus (GPa) = 52.96690 55.11227 54.03958
# Shear Modulus (GPa) = 18.54229 27.33720 22.93974
#
# Velocity S-wave (km/s) = 3.03381 3.68370 3.37444
# Velocity P-wave (km/s) = 6.20997 6.74162 6.48125
#
# Compressibility (1/GPa) = 0.01887972
#
# Stress axis : x y z
#
# Youngs Moduli (GPa) = 105.19376 97.44969 73.11640
#
# Poissons Ratio (x) = 0.17832 0.28878
# Poissons Ratio (y) = 0.19249 0.10990
# Poissons Ratio (z) = 0.41547 0.14648
#
# Static dielectric constant tensor:
#      x y z
#    x 3.835150 0.000000 0.000000 
#    y 0.000000 4.002080 0.000000 
#    z 0.000000 0.000000 3.558390 
# 
# 
# High freq. dielectric constant tensor:
#      x y z
#    x 1.796790 0.000000 0.000000 
#    y 0.000000 1.803680 0.000000 
#    z 0.000000 0.000000 1.759850 
# 
# From -- ./inp_files/54447.got.cif
#   From: 2010.03.12/outbox.cif.g09.slc.cpg/sg66_28_cif.got.tgz:54447.got - 2010.04.10 21:57:39.
