data_PCOD8276534
_publ_section_title
;
Structure prediction by ZEFSAII (Michael W. Deem and Ramdas Pophale) SiO2 
 PCOD8276534
Probable space group: C C C M
;
_chemical_formula_sum "Si O2"
_cell_formula_units_Z 80
_cell_length_a 22.820296
_cell_length_b 8.281187
_cell_length_c 22.527516
_cell_angle_alpha 90.000000
_cell_angle_beta 90.000000
_cell_angle_gamma 90.000000
_cell_volume 4257.230568
_symmetry_space_group_name_H-M "C C C M"
_symmetry_group_IT_number 66
_symmetry_cell_setting 'orthorhombic'
loop_
_space_group_symop_operation_xyz
x,y,z
-x,-y,z
x,-y,1/2-z
-x,y,1/2-z
-x,-y,-z
x,y,-z
-x,y,1/2+z
x,-y,1/2+z
1/2+x,1/2+y,z
1/2-x,1/2-y,z
1/2+x,1/2-y,1/2-z
1/2-x,1/2+y,1/2-z
1/2-x,1/2-y,-z
1/2+x,1/2+y,-z
1/2-x,1/2+y,1/2+z
1/2+x,1/2-y,1/2+z
loop_
_atom_site_type_symbol
_atom_site_label
_atom_site_fract_x
_atom_site_fract_y
_atom_site_fract_z
Si Si1 0.594604 0.893772 0.500000
Si Si2 0.686852 0.679344 0.724803
Si Si3 0.102200 0.614770 0.300595
Si Si4 0.486025 0.680255 0.626696
Si Si5 0.613154 0.817277 0.625583
Si Si6 0.538046 0.221122 0.500000
O O1 0.629681 0.819006 0.555960
O O2 0.526813 0.848532 0.500000
O O3 0.590560 0.089171 0.500000
O O4 0.690476 0.500000 0.750000
O O5 0.750000 0.750000 0.709783
O O6 0.657668 0.792110 0.774101
O O7 0.649580 0.684973 0.663107
O O8 0.072985 0.500000 0.250000
O O9 0.057014 0.745572 0.324647
O O10 0.126036 0.498651 0.352231
O O11 0.500000 0.500000 0.647120
O O12 0.543934 0.787588 0.629989
O O13 0.456300 0.675193 0.560864
#
# Coordination Sequence:
#
# PCOD8276534 Si02
#       6
#     8  16  16  16  16   8
#     4   9  16  32  55  82 111 150 189 221 268 332
#     4  11  23  41  60  81 105 141 188 236 283 333
#     4  10  21  35  53  77 107 147 186 229 278 327
#     4  11  20  32  51  84 119 149 184 226 278 335
#     4  10  20  35  57  82 112 150 185 226 275 329
#     4   9  17  30  52  78 118 152 182 221 270 334
#
# _framework density 18.791557999999998
#
# number of rings (size 3 to 8) (size 9 to 14) (size 15 to 20)
#    0.000    1.800    2.000    3.900    0.000    5.600 
#    0.000    5.500    0.000    0.000    0.000    4.900 
#    0.000    0.000    0.000    0.000    0.000    0.000 
#
# Total GULP energy -495813.582103 kJ/mol
# GULP energy per Si atom -12395.339553 kJ/mol
# Density = 1.874879 g / cm^3
# Si number density = 18.791558 Si / 1000 Ang^3
#
#
#
# Elastic Constant Matrix: (Units=GPa)
#
#
# Indices 1 2 3 4 5 6 
#
# 1 61.6086 9.9982 40.2252 0.0000 0.0000 0.0000
# 2 9.9982 92.8850 36.5168 0.0000 0.0000 0.0000
# 3 40.2252 36.5168 133.4026 0.0000 0.0000 0.0000
# 4 0.0000 0.0000 0.0000 20.9407 0.0000 0.0000
# 5 0.0000 0.0000 0.0000 0.0000 9.8383 0.0000
# 6 0.0000 0.0000 0.0000 0.0000 0.0000 29.4455
#
#
#
# Elastic Compliance Matrix: (Units=1/GPa)
#
#
# Indices 1 2 3 4 5 6 
#
# 1 0.020215 0.000247 -0.006163 0.000000 0.000000 0.000000
# 2 0.000247 0.012067 -0.003378 0.000000 0.000000 0.000000
# 3 -0.006163 -0.003378 0.010279 0.000000 0.000000 0.000000
# 4 0.000000 0.000000 0.000000 0.047754 0.000000 0.000000
# 5 0.000000 0.000000 0.000000 0.000000 0.101644 0.000000
# 6 0.000000 0.000000 0.000000 0.000000 0.000000 0.033961
#
#
# Mechanical properties :
#
#
# Convention : Reuss Voigt Hill
#
# Bulk Modulus (GPa) = 41.71181 51.26408 46.48794
# Shear Modulus (GPa) = 19.80201 25.45530 22.62865
#
# Velocity S-wave (km/s) = 3.24971 3.68450 3.47391
# Velocity P-wave (km/s) = 6.02711 6.74094 6.39400
#
# Compressibility (1/GPa) = 0.02397403
#
# Stress axis : x y z
#
# Youngs Moduli (GPa) = 49.46699 82.86838 97.28455
#
# Poissons Ratio (x) = -0.02047 0.59959
# Poissons Ratio (y) = -0.01222 0.32860
# Poissons Ratio (z) = 0.30488 0.27991
#
# Static dielectric constant tensor:
#      x y z
#    x 3.131350 0.000000 0.000000 
#    y 0.000000 3.481110 0.000000 
#    z 0.000000 0.000000 3.851470 
# 
# 
# High freq. dielectric constant tensor:
#      x y z
#    x 1.686370 0.000000 0.000000 
#    y 0.000000 1.733120 0.000000 
#    z 0.000000 0.000000 1.743970 
# 
# From -- ./inp_files/55404.got.cif
#   From: 2010.03.12/outbox.cif.g09.slc.cpg/sg66_28_cif.got.tgz:55404.got - 2010.04.10 21:57:39.
