data_PCOD8276154
_publ_section_title
;
Structure prediction by ZEFSAII (Michael W. Deem and Ramdas Pophale) SiO2 
 PCOD8276154
Probable space group: C C C M
;
_chemical_formula_sum "Si O2"
_cell_formula_units_Z 96
_cell_length_a 18.715118
_cell_length_b 28.468039
_cell_length_c 9.120394
_cell_angle_alpha 90.000000
_cell_angle_beta 90.000000
_cell_angle_gamma 90.000000
_cell_volume 4859.188224
_symmetry_space_group_name_H-M "C C C M"
_symmetry_group_IT_number 66
_symmetry_cell_setting 'orthorhombic'
loop_
_space_group_symop_operation_xyz
x,y,z
-x,-y,z
x,-y,1/2-z
-x,y,1/2-z
-x,-y,-z
x,y,-z
-x,y,1/2+z
x,-y,1/2+z
1/2+x,1/2+y,z
1/2-x,1/2-y,z
1/2+x,1/2-y,1/2-z
1/2-x,1/2+y,1/2-z
1/2-x,1/2-y,-z
1/2+x,1/2+y,-z
1/2-x,1/2+y,1/2+z
1/2+x,1/2-y,1/2+z
loop_
_atom_site_type_symbol
_atom_site_label
_atom_site_fract_x
_atom_site_fract_y
_atom_site_fract_z
Si Si1 0.923857 0.722760 0.671058
Si Si2 0.683423 0.144104 0.828621
Si Si3 0.714783 0.951210 0.172155
Si Si4 0.317670 0.300371 0.339482
Si Si5 0.619020 0.453922 0.331039
Si Si6 0.559686 0.629468 0.660995
O O1 0.935834 0.735784 0.500000
O O2 0.892740 0.670194 0.690163
O O3 0.864134 0.759125 0.739215
O O4 0.000000 0.726734 0.750000
O O5 0.677139 0.094727 0.742703
O O6 0.744713 0.180226 0.763547
O O7 0.700243 0.133761 0.000000
O O8 0.798141 0.943033 0.199173
O O9 0.689610 0.000000 0.250000
O O10 0.695424 0.954410 0.000000
O O11 0.296295 0.280899 0.500000
O O12 0.365812 0.345664 0.353508
O O13 0.594423 0.500000 0.250000
O O14 0.603128 0.460213 0.500000
O O15 0.568874 0.414645 0.265595
O O16 0.500000 0.660271 0.750000
O O17 0.531595 0.615647 0.500000
#
# Coordination Sequence:
#
# PCOD8276154 Si02
#       6
#    16  16  16  16  16  16
#     4  10  21  37  58  84 116 153 189 232 282 336
#     4  10  19  35  60  86 113 148 193 235 277 331
#     4  10  20  34  56  85 116 146 182 230 284 337
#     4   9  18  34  56  81 108 146 192 233 272 322
#     4  10  20  34  51  72 100 136 179 226 278 332
#     4  11  21  33  50  72 103 142 184 230 278 326
#
# _framework density 19.756385999999999
#
# number of rings (size 3 to 8) (size 9 to 14) (size 15 to 20)
#    0.000    2.000    1.667    2.500    0.000    4.333 
#    0.000    3.333    0.000    2.500    0.000    3.500 
#    0.000    0.000    0.000    0.000    0.000    0.000 
#
# Total GULP energy -594662.113657 kJ/mol
# GULP energy per Si atom -12388.794035 kJ/mol
# Density = 1.971142 g / cm^3
# Si number density = 19.756386 Si / 1000 Ang^3
#
#
#
# Elastic Constant Matrix: (Units=GPa)
#
#
# Indices 1 2 3 4 5 6 
#
# 1 57.2325 48.2453 26.1533 0.0000 0.0000 0.0000
# 2 48.2453 114.2848 51.2368 0.0000 0.0000 0.0000
# 3 26.1533 51.2368 93.9198 0.0000 0.0000 0.0000
# 4 0.0000 0.0000 0.0000 25.3096 0.0000 0.0000
# 5 0.0000 0.0000 0.0000 0.0000 20.3709 0.0000
# 6 0.0000 0.0000 0.0000 0.0000 0.0000 6.8146
#
#
#
# Elastic Compliance Matrix: (Units=1/GPa)
#
#
# Indices 1 2 3 4 5 6 
#
# 1 0.027339 -0.010760 -0.001743 0.000000 0.000000 0.000000
# 2 -0.010760 0.015818 -0.005633 0.000000 0.000000 0.000000
# 3 -0.001743 -0.005633 0.014206 0.000000 0.000000 0.000000
# 4 0.000000 0.000000 0.000000 0.039511 0.000000 0.000000
# 5 0.000000 0.000000 0.000000 0.000000 0.049090 0.000000
# 6 0.000000 0.000000 0.000000 0.000000 0.000000 0.146743
#
#
# Mechanical properties :
#
#
# Convention : Reuss Voigt Hill
#
# Bulk Modulus (GPa) = 47.41346 57.41197 52.41272
# Shear Modulus (GPa) = 14.88059 19.81914 17.34986
#
# Velocity S-wave (km/s) = 2.74743 3.17073 2.96664
# Velocity P-wave (km/s) = 5.84086 6.52133 6.19045
#
# Compressibility (1/GPa) = 0.02109106
#
# Stress axis : x y z
#
# Youngs Moduli (GPa) = 36.57732 63.22025 70.39396
#
# Poissons Ratio (x) = 0.68024 0.12271
# Poissons Ratio (y) = 0.39356 0.39653
# Poissons Ratio (z) = 0.06376 0.35612
#
# Static dielectric constant tensor:
#      x y z
#    x 3.470650 0.000000 0.000000 
#    y 0.000000 3.519560 0.000000 
#    z 0.000000 0.000000 3.583830 
# 
# 
# High freq. dielectric constant tensor:
#      x y z
#    x 1.756080 0.000000 0.000000 
#    y 0.000000 1.775280 0.000000 
#    z 0.000000 0.000000 1.749040 
# 
# From -- ./inp_files/7947.got.cif
#   From: 2010.03.12/outbox.cif.g09.slc.cpg/sg66_4_cif.got.tgz:7947.got - 2010.04.10 21:57:39.
