data_PCOD8276191
_publ_section_title
;
Structure prediction by ZEFSAII (Michael W. Deem and Ramdas Pophale) SiO2 
 PCOD8276191
Probable space group: C C C M
;
_chemical_formula_sum "Si O2"
_cell_formula_units_Z 116
_cell_length_a 25.253693
_cell_length_b 24.884137
_cell_length_c 8.997731
_cell_angle_alpha 90.000000
_cell_angle_beta 90.000000
_cell_angle_gamma 90.000000
_cell_volume 5654.321331
_symmetry_space_group_name_H-M "C C C M"
_symmetry_group_IT_number 66
_symmetry_cell_setting 'orthorhombic'
loop_
_space_group_symop_operation_xyz
x,y,z
-x,-y,z
x,-y,1/2-z
-x,y,1/2-z
-x,-y,-z
x,y,-z
-x,y,1/2+z
x,-y,1/2+z
1/2+x,1/2+y,z
1/2-x,1/2-y,z
1/2+x,1/2-y,1/2-z
1/2-x,1/2+y,1/2-z
1/2-x,1/2-y,-z
1/2+x,1/2+y,-z
1/2-x,1/2+y,1/2+z
1/2+x,1/2-y,1/2+z
loop_
_atom_site_type_symbol
_atom_site_label
_atom_site_fract_x
_atom_site_fract_y
_atom_site_fract_z
Si Si1 0.500000 0.000000 0.250000
Si Si2 0.603075 0.948819 0.167006
Si Si3 0.848112 0.652932 0.674463
Si Si4 0.725102 0.342293 0.172959
Si Si5 0.649116 0.734845 0.823252
Si Si6 0.950135 0.806055 0.665051
Si Si7 0.164396 0.947315 0.176817
Si Si8 0.451722 0.430979 0.338821
O O1 0.460775 0.039941 0.157843
O O2 0.617474 0.895416 0.257771
O O3 0.630318 0.000000 0.250000
O O4 0.625364 0.943742 0.000000
O O5 0.860843 0.656796 0.500000
O O6 0.786073 0.645382 0.704499
O O7 0.864604 0.707137 0.756809
O O8 0.704434 0.289970 0.262563
O O9 0.695115 0.394820 0.232121
O O10 0.713850 0.330690 0.000000
O O11 0.601922 0.697430 0.765897
O O12 0.651174 0.737545 0.000000
O O13 0.942749 0.779905 0.500000
O O14 0.961920 0.868173 0.643444
O O15 0.000000 0.778563 0.750000
O O16 0.104469 0.942874 0.239232
O O17 0.190998 0.000000 0.250000
O O18 0.167341 0.950905 0.000000
O O19 0.500000 0.457754 0.250000
O O20 0.450870 0.458322 0.500000
#
# Coordination Sequence:
#
# PCOD8276191 Si02
#       8
#     4  16  16  16  16  16  16  16
#     4   8  22  40  74 100 134 176 210 252 318 384
#     4  10  21  40  67  97 132 167 208 254 309 378
#     4  11  24  41  65  94 125 165 211 260 317 377
#     4  10  22  43  64  84 119 166 211 260 322 382
#     4  12  24  39  62  92 125 163 209 261 319 382
#     4  10  19  36  59  85 118 157 201 247 302 366
#     4  10  21  38  57  82 114 153 199 250 304 362
#     4   9  18  33  55  78 109 146 188 239 292 349
#
# _framework density 20.515281999999999
#
# number of rings (size 3 to 8) (size 9 to 14) (size 15 to 20)
#    0.414    1.379    1.379    3.103    0.000    5.241 
#    1.241    2.759    0.000    0.000    0.000    0.000 
#    0.000    0.000    0.000    0.000    0.000    0.000 
#
# Total GULP energy -718908.031973 kJ/mol
# GULP energy per Si atom -12394.966069 kJ/mol
# Density = 2.046859 g / cm^3
# Si number density = 20.515282 Si / 1000 Ang^3
#
#
#
# Elastic Constant Matrix: (Units=GPa)
#
#
# Indices 1 2 3 4 5 6 
#
# 1 83.0795 24.2902 38.3832 0.0000 0.0000 0.0000
# 2 24.2902 103.6174 45.4975 0.0000 0.0000 0.0000
# 3 38.3832 45.4975 131.5418 0.0000 0.0000 0.0000
# 4 0.0000 0.0000 0.0000 34.5987 0.0000 0.0000
# 5 0.0000 0.0000 0.0000 0.0000 25.0043 0.0000
# 6 0.0000 0.0000 0.0000 0.0000 0.0000 2.5107
#
#
#
# Elastic Compliance Matrix: (Units=1/GPa)
#
#
# Indices 1 2 3 4 5 6 
#
# 1 0.014185 -0.001778 -0.003524 0.000000 0.000000 0.000000
# 2 -0.001778 0.011602 -0.003494 0.000000 0.000000 0.000000
# 3 -0.003524 -0.003494 0.009839 0.000000 0.000000 0.000000
# 4 0.000000 0.000000 0.000000 0.028903 0.000000 0.000000
# 5 0.000000 0.000000 0.000000 0.000000 0.039993 0.000000
# 6 0.000000 0.000000 0.000000 0.000000 0.000000 0.398289
#
#
# Mechanical properties :
#
#
# Convention : Reuss Voigt Hill
#
# Bulk Modulus (GPa) = 55.45231 59.39783 57.42507
# Shear Modulus (GPa) = 9.49825 26.42727 17.96276
#
# Velocity S-wave (km/s) = 2.15404 3.59301 2.96223
# Velocity P-wave (km/s) = 5.76844 6.79917 6.30491
#
# Compressibility (1/GPa) = 0.01803351
#
# Stress axis : x y z
#
# Youngs Moduli (GPa) = 70.49903 86.19305 101.63651
#
# Poissons Ratio (x) = 0.15323 0.35818
# Poissons Ratio (y) = 0.12533 0.35513
# Poissons Ratio (z) = 0.24844 0.30117
#
# Static dielectric constant tensor:
#      x y z
#    x 3.671190 0.000000 0.000000 
#    y 0.000000 3.650900 0.000000 
#    z 0.000000 0.000000 3.850510 
# 
# 
# High freq. dielectric constant tensor:
#      x y z
#    x 1.795440 0.000000 0.000000 
#    y 0.000000 1.798940 0.000000 
#    z 0.000000 0.000000 1.800770 
# 
# From -- ./inp_files/10583.got.cif
#   From: 2010.03.12/outbox.cif.g09.slc.cpg/sg66_6_cif.got.tgz:10583.got - 2010.04.10 21:57:39.
