data_PCOD8276662
_publ_section_title
;
Structure prediction by ZEFSAII (Michael W. Deem and Ramdas Pophale) SiO2 
 PCOD8276662
Probable space group: C C C M
;
_chemical_formula_sum "Si O2"
_cell_formula_units_Z 80
_cell_length_a 28.767859
_cell_length_b 15.456948
_cell_length_c 8.441659
_cell_angle_alpha 90.000000
_cell_angle_beta 90.000000
_cell_angle_gamma 90.000000
_cell_volume 3753.695954
_symmetry_space_group_name_H-M "C C C M"
_symmetry_group_IT_number 66
_symmetry_cell_setting 'orthorhombic'
loop_
_space_group_symop_operation_xyz
x,y,z
-x,-y,z
x,-y,1/2-z
-x,y,1/2-z
-x,-y,-z
x,y,-z
-x,y,1/2+z
x,-y,1/2+z
1/2+x,1/2+y,z
1/2-x,1/2-y,z
1/2+x,1/2-y,1/2-z
1/2-x,1/2+y,1/2-z
1/2-x,1/2-y,-z
1/2+x,1/2+y,-z
1/2-x,1/2+y,1/2+z
1/2+x,1/2-y,1/2+z
loop_
_atom_site_type_symbol
_atom_site_label
_atom_site_fract_x
_atom_site_fract_y
_atom_site_fract_z
Si Si1 0.796973 0.842235 0.183323
Si Si2 0.112891 0.911871 0.813852
Si Si3 0.948632 0.242288 0.686490
Si Si4 0.601777 0.092689 0.187712
Si Si5 0.201718 0.345183 0.683609
O O1 0.836524 0.909566 0.231617
O O2 0.804655 0.756601 0.287154
O O3 0.745920 0.881982 0.219184
O O4 0.800786 0.817473 0.000000
O O5 0.083365 0.828681 0.768635
O O6 0.088677 0.000000 0.750000
O O7 0.118809 0.915665 0.000000
O O8 0.947147 0.228230 0.500000
O O9 0.930879 0.337311 0.729447
O O10 0.000000 0.229040 0.750000
O O11 0.655209 0.106390 0.240581
O O12 0.584881 0.000000 0.250000
O O13 0.595839 0.100661 0.000000
O O14 0.210984 0.361679 0.500000
#
# Coordination Sequence:
#
# PCOD8276662 Si02
#       5
#    16  16  16  16  16
#     4  11  21  35  60  93 130 174 221 265 320 381
#     4  12  25  44  68  98 133 171 218 267 325 386
#     4  12  26  47  73  99 130 167 212 266 329 391
#     4  11  24  42  67  98 133 173 218 269 324 385
#     4  10  20  36  60  90 130 176 221 267 319 378
#
# _framework density 21.312327
#
# number of rings (size 3 to 8) (size 9 to 14) (size 15 to 20)
#    0.000    0.800    2.000    7.800    0.000    4.000 
#    0.000    6.000    0.000    0.000    0.000    0.000 
#    0.000    0.000    0.000    0.000    0.000    0.000 
#
# Total GULP energy -496220.024443 kJ/mol
# GULP energy per Si atom -12405.500611 kJ/mol
# Density = 2.126382 g / cm^3
# Si number density = 21.312327 Si / 1000 Ang^3
#
#
#
# Elastic Constant Matrix: (Units=GPa)
#
#
# Indices 1 2 3 4 5 6 
#
# 1 86.1115 14.0130 41.3939 0.0000 0.0000 0.0000
# 2 14.0130 84.6832 8.3432 0.0000 0.0000 0.0000
# 3 41.3939 8.3432 88.8825 0.0000 0.0000 0.0000
# 4 0.0000 0.0000 0.0000 33.4332 0.0000 0.0000
# 5 0.0000 0.0000 0.0000 0.0000 32.5327 0.0000
# 6 0.0000 0.0000 0.0000 0.0000 0.0000 0.6384
#
#
#
# Elastic Compliance Matrix: (Units=1/GPa)
#
#
# Indices 1 2 3 4 5 6 
#
# 1 0.015241 -0.001840 -0.006925 0.000000 0.000000 0.000000
# 2 -0.001840 0.012141 -0.000283 0.000000 0.000000 0.000000
# 3 -0.006925 -0.000283 0.014503 0.000000 0.000000 0.000000
# 4 0.000000 0.000000 0.000000 0.029910 0.000000 0.000000
# 5 0.000000 0.000000 0.000000 0.000000 0.030738 0.000000
# 6 0.000000 0.000000 0.000000 0.000000 0.000000 1.566388
#
#
# Mechanical properties :
#
#
# Convention : Reuss Voigt Hill
#
# Bulk Modulus (GPa) = 42.03637 43.01970 42.52803
# Shear Modulus (GPa) = 2.94994 26.38266 14.66630
#
# Velocity S-wave (km/s) = 1.17777 3.52221 2.62613
# Velocity P-wave (km/s) = 4.64934 6.06386 5.40309
#
# Compressibility (1/GPa) = 0.02378893
#
# Stress axis : x y z
#
# Youngs Moduli (GPa) = 65.61125 82.36538 68.95302
#
# Poissons Ratio (x) = 0.15153 0.47753
# Poissons Ratio (y) = 0.12071 0.01950
# Poissons Ratio (z) = 0.45438 0.02330
#
# Static dielectric constant tensor:
#      x y z
#    x 4.051750 0.000000 0.000000 
#    y 0.000000 3.831870 0.000000 
#    z 0.000000 0.000000 3.887650 
# 
# 
# High freq. dielectric constant tensor:
#      x y z
#    x 1.838340 0.000000 0.000000 
#    y 0.000000 1.833530 0.000000 
#    z 0.000000 0.000000 1.851290 
# 
# From -- ./inp_files/10073.got.cif
#   From: 2010.03.12/outbox.cif.g09.slc.cpg/sg66_6_cif.got.tgz:10073.got - 2010.04.10 21:57:39.
