data_PCOD8276250
_publ_section_title
;
Structure prediction by ZEFSAII (Michael W. Deem and Ramdas Pophale) SiO2 
 PCOD8276250
Probable space group: C C C M
;
_chemical_formula_sum "Si O2"
_cell_formula_units_Z 112
_cell_length_a 11.670217
_cell_length_b 16.565146
_cell_length_c 27.544835
_cell_angle_alpha 90.000000
_cell_angle_beta 90.000000
_cell_angle_gamma 90.000000
_cell_volume 5324.935783
_symmetry_space_group_name_H-M "C C C M"
_symmetry_group_IT_number 66
_symmetry_cell_setting 'orthorhombic'
loop_
_space_group_symop_operation_xyz
x,y,z
-x,-y,z
x,-y,1/2-z
-x,y,1/2-z
-x,-y,-z
x,y,-z
-x,y,1/2+z
x,-y,1/2+z
1/2+x,1/2+y,z
1/2-x,1/2-y,z
1/2+x,1/2-y,1/2-z
1/2-x,1/2+y,1/2-z
1/2-x,1/2-y,-z
1/2+x,1/2+y,-z
1/2-x,1/2+y,1/2+z
1/2+x,1/2-y,1/2+z
loop_
_atom_site_type_symbol
_atom_site_label
_atom_site_fract_x
_atom_site_fract_y
_atom_site_fract_z
Si Si1 0.977483 0.326114 0.193226
Si Si2 0.679298 0.082368 0.649659
Si Si3 0.937914 0.850959 0.681568
Si Si4 0.286306 0.897735 0.861451
Si Si5 0.851839 0.086503 0.274113
Si Si6 0.806714 0.337340 0.446259
Si Si7 0.545860 0.911547 0.445217
O O1 0.000548 0.235000 0.175101
O O2 0.845591 0.344298 0.180478
O O3 0.000000 0.341746 0.250000
O O4 0.049990 0.385793 0.157515
O O5 0.747937 0.121089 0.694247
O O6 0.736342 0.106902 0.597851
O O7 0.694249 0.988134 0.655698
O O8 0.849514 0.874431 0.637979
O O9 0.866939 0.847279 0.732021
O O10 0.036833 0.918221 0.689935
O O11 0.344613 0.882810 0.913937
O O12 0.828435 0.000000 0.250000
O O13 0.769662 0.369678 0.500000
O O14 0.750000 0.250000 0.438526
O O15 0.946003 0.343052 0.443096
O O16 0.590761 0.922301 0.500000
O O17 0.500000 0.000000 0.426338
#
# Coordination Sequence:
#
# PCOD8276250 Si02
#       7
#    16  16  16  16  16  16  16
#     4  12  25  39  57  92 130 164 215 275 329 382
#     4  12  25  37  67  94 128 167 220 275 332 389
#     4  11  24  42  62  84 131 176 221 261 320 400
#     4  12  23  40  63  96 124 171 218 270 323 397
#     4  11  23  43  63  88 125 181 229 262 321 399
#     4  10  22  40  64  99 135 167 216 284 343 398
#     4  10  19  38  66  96 131 166 214 274 337 401
#
# _framework density 21.033118000000002
#
# number of rings (size 3 to 8) (size 9 to 14) (size 15 to 20)
#    0.000    0.857    5.714    2.571    2.000    0.571 
#    0.000    0.000    0.000    3.429    0.000    2.000 
#    0.000    0.000    0.000    0.000    0.000    0.000 
#
# Total GULP energy -693874.042797 kJ/mol
# GULP energy per Si atom -12390.607907 kJ/mol
# Density = 2.098525 g / cm^3
# Si number density = 21.033118 Si / 1000 Ang^3
#
#
#
# Elastic Constant Matrix: (Units=GPa)
#
#
# Indices 1 2 3 4 5 6 
#
# 1 73.5627 10.0740 24.2138 0.0000 0.0000 0.0000
# 2 10.0740 77.2619 16.3377 0.0000 0.0000 0.0000
# 3 24.2138 16.3377 93.0737 0.0000 0.0000 0.0000
# 4 0.0000 0.0000 0.0000 20.7819 0.0000 0.0000
# 5 0.0000 0.0000 0.0000 0.0000 38.7258 0.0000
# 6 0.0000 0.0000 0.0000 0.0000 0.0000 33.6602
#
#
#
# Elastic Compliance Matrix: (Units=1/GPa)
#
#
# Indices 1 2 3 4 5 6 
#
# 1 0.014968 -0.001172 -0.003688 0.000000 0.000000 0.000000
# 2 -0.001172 0.013534 -0.002071 0.000000 0.000000 0.000000
# 3 -0.003688 -0.002071 0.012067 0.000000 0.000000 0.000000
# 4 0.000000 0.000000 0.000000 0.048119 0.000000 0.000000
# 5 0.000000 0.000000 0.000000 0.000000 0.025823 0.000000
# 6 0.000000 0.000000 0.000000 0.000000 0.000000 0.029709
#
#
# Mechanical properties :
#
#
# Convention : Reuss Voigt Hill
#
# Bulk Modulus (GPa) = 37.44291 38.34992 37.89642
# Shear Modulus (GPa) = 29.94304 31.51844 30.73074
#
# Velocity S-wave (km/s) = 3.77717 3.87527 3.82653
# Velocity P-wave (km/s) = 6.07151 6.18840 6.13023
#
# Compressibility (1/GPa) = 0.02670732
#
# Stress axis : x y z
#
# Youngs Moduli (GPa) = 66.80749 73.88984 82.86894
#
# Poissons Ratio (x) = 0.08658 0.30566
# Poissons Ratio (y) = 0.07828 0.17161
# Poissons Ratio (z) = 0.24642 0.15301
#
# Static dielectric constant tensor:
#      x y z
#    x 3.935890 0.000000 0.000000 
#    y 0.000000 3.712770 0.000000 
#    z 0.000000 0.000000 4.087690 
# 
# 
# High freq. dielectric constant tensor:
#      x y z
#    x 1.812970 0.000000 0.000000 
#    y 0.000000 1.811720 0.000000 
#    z 0.000000 0.000000 1.824820 
# 
# From -- ./inp_files/69108.got.cif
#   From: 2010.03.12/outbox.cif.g09.slc.cpg/sg66_35_cif.got.tgz:69108.got - 2010.04.10 21:57:39.
