data_PCOD8276387
_publ_section_title
;
Structure prediction by ZEFSAII (Michael W. Deem and Ramdas Pophale) SiO2 
 PCOD8276387
Probable space group: C C C M
;
_chemical_formula_sum "Si O2"
_cell_formula_units_Z 48
_cell_length_a 4.995891
_cell_length_b 24.253381
_cell_length_c 22.834260
_cell_angle_alpha 90.000000
_cell_angle_beta 90.000000
_cell_angle_gamma 90.000000
_cell_volume 2766.764441
_symmetry_space_group_name_H-M "C C C M"
_symmetry_group_IT_number 66
_symmetry_cell_setting 'orthorhombic'
loop_
_space_group_symop_operation_xyz
x,y,z
-x,-y,z
x,-y,1/2-z
-x,y,1/2-z
-x,-y,-z
x,y,-z
-x,y,1/2+z
x,-y,1/2+z
1/2+x,1/2+y,z
1/2-x,1/2-y,z
1/2+x,1/2-y,1/2-z
1/2-x,1/2+y,1/2-z
1/2-x,1/2-y,-z
1/2+x,1/2+y,-z
1/2-x,1/2+y,1/2+z
1/2+x,1/2-y,1/2+z
loop_
_atom_site_type_symbol
_atom_site_label
_atom_site_fract_x
_atom_site_fract_y
_atom_site_fract_z
Si Si1 0.339890 0.312708 0.872889
Si Si2 0.248426 0.539130 0.000000
Si Si3 0.500000 0.712894 0.750000
Si Si4 0.346388 0.857107 0.935341
O O1 0.250000 0.250000 0.880838
O O2 0.408852 0.324810 0.804729
O O3 0.600467 0.321905 0.911614
O O4 0.101023 0.352971 0.892595
O O5 0.500000 0.500000 0.000000
O O6 0.240951 0.578508 0.057846
O O7 0.000000 0.500000 0.000000
O O8 0.250000 0.750000 0.771369
O O9 0.425193 0.833845 0.000000
#
# Coordination Sequence:
#
# PCOD8276387 Si02
#       4
#    16   8   8  16
#     4  11  20  34  51  77 115 145 175 213 247 312
#     4  10  20  38  55  74 105 136 176 226 268 322
#     4  10  20  34  52  72 103 156 191 204 244 296
#     4  10  22  33  52  82 105 138 186 202 277 322
#
# _framework density 17.348782
#
# number of rings (size 3 to 8) (size 9 to 14) (size 15 to 20)
#    1.000    0.667    0.000    8.000    0.000    4.000 
#    0.000    0.000    0.000    0.000    0.000   17.500 
#    0.000    0.000    0.000    0.000    0.000    0.000 
#
# Total GULP energy -297480.666994 kJ/mol
# GULP energy per Si atom -12395.027791 kJ/mol
# Density = 1.730930 g / cm^3
# Si number density = 17.348782 Si / 1000 Ang^3
#
#
#
# Elastic Constant Matrix: (Units=GPa)
#
#
# Indices 1 2 3 4 5 6 
#
# 1 143.6830 36.5171 68.1631 0.0000 0.0000 0.0000
# 2 36.5171 67.2586 58.4233 0.0000 0.0000 0.0000
# 3 68.1631 58.4233 129.5526 0.0000 0.0000 0.0000
# 4 0.0000 0.0000 0.0000 3.5079 0.0000 0.0000
# 5 0.0000 0.0000 0.0000 0.0000 38.6367 0.0000
# 6 0.0000 0.0000 0.0000 0.0000 0.0000 39.3533
#
#
#
# Elastic Compliance Matrix: (Units=1/GPa)
#
#
# Indices 1 2 3 4 5 6 
#
# 1 0.009345 -0.001320 -0.004322 0.000000 0.000000 0.000000
# 2 -0.001320 0.024629 -0.010412 0.000000 0.000000 0.000000
# 3 -0.004322 -0.010412 0.014688 0.000000 0.000000 0.000000
# 4 0.000000 0.000000 0.000000 0.285069 0.000000 0.000000
# 5 0.000000 0.000000 0.000000 0.000000 0.025882 0.000000
# 6 0.000000 0.000000 0.000000 0.000000 0.000000 0.025411
#
#
# Mechanical properties :
#
#
# Convention : Reuss Voigt Hill
#
# Bulk Modulus (GPa) = 60.40539 74.07793 67.24166
# Shear Modulus (GPa) = 11.83007 28.12563 19.97785
#
# Velocity S-wave (km/s) = 2.61415 4.03077 3.39712
# Velocity P-wave (km/s) = 6.63366 8.02837 7.36411
#
# Compressibility (1/GPa) = 0.01655482
#
# Stress axis : x y z
#
# Youngs Moduli (GPa) = 107.00344 40.60230 68.08119
#
# Poissons Ratio (x) = 0.05359 0.29424
# Poissons Ratio (y) = 0.14123 0.70888
# Poissons Ratio (z) = 0.46245 0.42277
#
# Static dielectric constant tensor:
#      x y z
#    x 3.427650 0.000000 0.000000 
#    y 0.000000 3.034800 0.000000 
#    z 0.000000 0.000000 3.369260 
# 
# 
# High freq. dielectric constant tensor:
#      x y z
#    x 1.697920 0.000000 0.000000 
#    y 0.000000 1.632470 0.000000 
#    z 0.000000 0.000000 1.664390 
# 
# From -- ./inp_files/54064.got.cif
#   From: 2010.03.12/outbox.cif.g09.slc.cpg/sg66_28_cif.got.tgz:54064.got - 2010.04.10 21:57:39.
