data_PCOD8276707
_publ_section_title
;
Structure prediction by ZEFSAII (Michael W. Deem and Ramdas Pophale) SiO2 
 PCOD8276707
Probable space group: C C C M
;
_chemical_formula_sum "Si O2"
_cell_formula_units_Z 116
_cell_length_a 9.170702
_cell_length_b 25.711342
_cell_length_c 24.617069
_cell_angle_alpha 90.000000
_cell_angle_beta 90.000000
_cell_angle_gamma 90.000000
_cell_volume 5804.484683
_symmetry_space_group_name_H-M "C C C M"
_symmetry_group_IT_number 66
_symmetry_cell_setting 'orthorhombic'
loop_
_space_group_symop_operation_xyz
x,y,z
-x,-y,z
x,-y,1/2-z
-x,y,1/2-z
-x,-y,-z
x,y,-z
-x,y,1/2+z
x,-y,1/2+z
1/2+x,1/2+y,z
1/2-x,1/2-y,z
1/2+x,1/2-y,1/2-z
1/2-x,1/2+y,1/2-z
1/2-x,1/2-y,-z
1/2+x,1/2+y,-z
1/2-x,1/2+y,1/2+z
1/2+x,1/2-y,1/2+z
loop_
_atom_site_type_symbol
_atom_site_label
_atom_site_fract_x
_atom_site_fract_y
_atom_site_fract_z
Si Si1 0.469614 0.111410 0.687959
Si Si2 0.874240 0.711282 0.937959
Si Si3 0.518481 0.332061 0.311058
Si Si4 0.500000 0.500000 0.250000
Si Si5 0.997918 0.941615 0.059285
Si Si6 0.255893 0.883001 0.380956
Si Si7 0.835508 0.074952 0.163035
Si Si8 0.089232 0.272855 0.652687
O O1 0.500000 0.099009 0.750000
O O2 0.606511 0.092937 0.651181
O O3 0.337129 0.074499 0.670452
O O4 0.427401 0.172370 0.683045
O O5 0.750000 0.750000 0.916347
O O6 0.816453 0.653098 0.928968
O O7 0.026024 0.721583 0.907717
O O8 0.910153 0.721447 0.000000
O O9 0.500000 0.349819 0.250000
O O10 0.673651 0.348918 0.335372
O O11 0.390748 0.365259 0.338751
O O12 0.505462 0.270116 0.315762
O O13 0.406771 0.537218 0.209325
O O14 0.850090 0.925250 0.091618
O O15 0.133120 0.940198 0.100815
O O16 0.014792 0.911356 0.000000
O O17 0.000000 0.000000 0.040823
O O18 0.250000 0.250000 0.649380
#
# Coordination Sequence:
#
# PCOD8276707 Si02
#       8
#    16  16  16   4  16  16  16  16
#     4  11  24  39  60  95 139 166 203 261 321 380
#     4  10  20  37  57  81 117 163 210 250 302 367
#     4  11  20  36  61  85 122 164 209 248 301 372
#     4  12  24  44  72  92 128 168 222 254 316 390
#     4  10  22  43  70  94 118 159 219 273 320 380
#     4  10  22  38  62  88 124 164 208 256 317 382
#     4  11  23  41  65  96 122 167 212 262 314 373
#     4  11  22  37  55  90 126 164 210 252 300 370
#
# _framework density 19.984548
#
# number of rings (size 3 to 8) (size 9 to 14) (size 15 to 20)
#    0.000    1.379    4.138    1.655    1.931    0.276 
#    0.000    5.862    0.000    1.655    0.000    0.000 
#    0.000    0.000    0.000    0.000    0.000    0.000 
#
# Total GULP energy -718560.968609 kJ/mol
# GULP energy per Si atom -12388.982217 kJ/mol
# Density = 1.993906 g / cm^3
# Si number density = 19.984548 Si / 1000 Ang^3
#
#
#
# Elastic Constant Matrix: (Units=GPa)
#
#
# Indices 1 2 3 4 5 6 
#
# 1 136.6691 27.6840 59.4025 0.0000 0.0000 0.0000
# 2 27.6840 66.4997 29.1861 0.0000 0.0000 0.0000
# 3 59.4025 29.1861 137.9788 0.0000 0.0000 0.0000
# 4 0.0000 0.0000 0.0000 19.7275 0.0000 0.0000
# 5 0.0000 0.0000 0.0000 0.0000 6.9699 0.0000
# 6 0.0000 0.0000 0.0000 0.0000 0.0000 60.6433
#
#
#
# Elastic Compliance Matrix: (Units=1/GPa)
#
#
# Indices 1 2 3 4 5 6 
#
# 1 0.009319 -0.002336 -0.003518 0.000000 0.000000 0.000000
# 2 -0.002336 0.017162 -0.002625 0.000000 0.000000 0.000000
# 3 -0.003518 -0.002625 0.009317 0.000000 0.000000 0.000000
# 4 0.000000 0.000000 0.000000 0.050691 0.000000 0.000000
# 5 0.000000 0.000000 0.000000 0.000000 0.143474 0.000000
# 6 0.000000 0.000000 0.000000 0.000000 0.000000 0.016490
#
#
# Mechanical properties :
#
#
# Convention : Reuss Voigt Hill
#
# Bulk Modulus (GPa) = 53.07360 63.74365 58.40862
# Shear Modulus (GPa) = 18.53979 32.45980 25.49980
#
# Velocity S-wave (km/s) = 3.04913 4.03456 3.57596
# Velocity P-wave (km/s) = 6.24590 7.32594 6.80737
#
# Compressibility (1/GPa) = 0.01884176
#
# Stress axis : x y z
#
# Youngs Moduli (GPa) = 107.30615 58.26852 107.32768
#
# Poissons Ratio (x) = 0.13609 0.37758
# Poissons Ratio (y) = 0.25062 0.28170
# Poissons Ratio (z) = 0.37751 0.15294
#
# Static dielectric constant tensor:
#      x y z
#    x 3.616120 0.000000 0.000000 
#    y 0.000000 3.669360 0.000000 
#    z 0.000000 0.000000 3.896700 
# 
# 
# High freq. dielectric constant tensor:
#      x y z
#    x 1.774800 0.000000 0.000000 
#    y 0.000000 1.771980 0.000000 
#    z 0.000000 0.000000 1.789340 
# 
# From -- ./inp_files/55915.got.cif
#   From: 2010.03.12/outbox.cif.g09.slc.cpg/sg66_28_cif.got.tgz:55915.got - 2010.04.10 21:57:39.
