data_PCOD8276570
_publ_section_title
;
Structure prediction by ZEFSAII (Michael W. Deem and Ramdas Pophale) SiO2 
 PCOD8276570
Probable space group: C C C M
;
_chemical_formula_sum "Si O2"
_cell_formula_units_Z 96
_cell_length_a 8.321193
_cell_length_b 18.963098
_cell_length_c 28.370017
_cell_angle_alpha 90.000000
_cell_angle_beta 90.000000
_cell_angle_gamma 90.000000
_cell_volume 4476.663807
_symmetry_space_group_name_H-M "C C C M"
_symmetry_group_IT_number 66
_symmetry_cell_setting 'orthorhombic'
loop_
_space_group_symop_operation_xyz
x,y,z
-x,-y,z
x,-y,1/2-z
-x,y,1/2-z
-x,-y,-z
x,y,-z
-x,y,1/2+z
x,-y,1/2+z
1/2+x,1/2+y,z
1/2-x,1/2-y,z
1/2+x,1/2-y,1/2-z
1/2-x,1/2+y,1/2-z
1/2-x,1/2-y,-z
1/2+x,1/2+y,-z
1/2-x,1/2+y,1/2+z
1/2+x,1/2-y,1/2+z
loop_
_atom_site_type_symbol
_atom_site_label
_atom_site_fract_x
_atom_site_fract_y
_atom_site_fract_z
Si Si1 0.401398 0.799493 0.705850
Si Si2 0.924954 0.283776 0.891551
Si Si3 0.667155 0.961078 0.204588
Si Si4 0.699415 0.091826 0.052977
Si Si5 0.325925 0.532354 0.394184
Si Si6 0.948510 0.158711 0.553435
O O1 0.500000 0.768514 0.750000
O O2 0.250000 0.750000 0.696892
O O3 0.513547 0.797719 0.660468
O O4 0.353006 0.879420 0.717563
O O5 0.750000 0.250000 0.887967
O O6 0.921012 0.358352 0.918235
O O7 0.045414 0.234071 0.920900
O O8 0.785892 0.966387 0.160734
O O9 0.500000 0.000000 0.192738
O O10 0.745805 0.000000 0.250000
O O11 0.876151 0.124700 0.052931
O O12 0.698681 0.015334 0.077476
O O13 0.634801 0.083815 0.000000
O O14 0.500000 0.500000 0.400646
O O15 0.324493 0.610365 0.416899
O O16 0.885552 0.167866 0.500000
#
# Coordination Sequence:
#
# PCOD8276570 Si02
#       6
#    16  16  16  16  16  16
#     4  12  25  44  65  91 121 161 209 263 322 378
#     4  10  20  36  61  90 122 158 207 256 305 368
#     4  11  23  44  65  84 121 170 208 250 325 394
#     4   9  17  30  56  90 124 161 203 250 300 363
#     4  10  20  35  59  90 120 155 208 265 304 356
#     4   9  17  32  56  90 127 160 199 252 312 359
#
# _framework density 21.444541999999998
#
# number of rings (size 3 to 8) (size 9 to 14) (size 15 to 20)
#    0.000    1.833    1.667    3.500    0.000    4.333 
#    6.000    0.000    0.000   20.000    0.000    0.000 
#    0.000    0.000    0.000    0.000    0.000    0.000 
#
# Total GULP energy -595319.362581 kJ/mol
# GULP energy per Si atom -12402.486720 kJ/mol
# Density = 2.139573 g / cm^3
# Si number density = 21.444542 Si / 1000 Ang^3
#
#
#
# Elastic Constant Matrix: (Units=GPa)
#
#
# Indices 1 2 3 4 5 6 
#
# 1 34.8581 40.5458 39.1981 0.0000 0.0000 0.0000
# 2 40.5458 156.4534 71.5219 0.0000 0.0000 0.0000
# 3 39.1981 71.5219 216.0914 0.0000 0.0000 0.0000
# 4 0.0000 0.0000 0.0000 27.1887 0.0000 0.0000
# 5 0.0000 0.0000 0.0000 0.0000 30.8276 0.0000
# 6 0.0000 0.0000 0.0000 0.0000 0.0000 26.1068
#
#
#
# Elastic Compliance Matrix: (Units=1/GPa)
#
#
# Indices 1 2 3 4 5 6 
#
# 1 0.045408 -0.009429 -0.005116 0.000000 0.000000 0.000000
# 2 -0.009429 0.009489 -0.001430 0.000000 0.000000 0.000000
# 3 -0.005116 -0.001430 0.006029 0.000000 0.000000 0.000000
# 4 0.000000 0.000000 0.000000 0.036780 0.000000 0.000000
# 5 0.000000 0.000000 0.000000 0.000000 0.032438 0.000000
# 6 0.000000 0.000000 0.000000 0.000000 0.000000 0.038304
#
#
# Mechanical properties :
#
#
# Convention : Reuss Voigt Hill
#
# Bulk Modulus (GPa) = 34.51161 78.88161 56.69661
# Shear Modulus (GPa) = 23.80285 33.90042 28.85164
#
# Velocity S-wave (km/s) = 3.33524 3.98029 3.67196
# Velocity P-wave (km/s) = 5.56418 7.61495 6.66887
#
# Compressibility (1/GPa) = 0.02897575
#
# Stress axis : x y z
#
# Youngs Moduli (GPa) = 22.02234 105.38355 165.86186
#
# Poissons Ratio (x) = 0.99367 0.84856
# Poissons Ratio (y) = 0.20765 0.23724
# Poissons Ratio (z) = 0.11267 0.15073
#
# Static dielectric constant tensor:
#      x y z
#    x 3.656780 0.000000 0.000000 
#    y 0.000000 4.115040 0.000000 
#    z 0.000000 0.000000 4.021740 
# 
# 
# High freq. dielectric constant tensor:
#      x y z
#    x 1.816470 0.000000 0.000000 
#    y 0.000000 1.852240 0.000000 
#    z 0.000000 0.000000 1.858230 
# 
# From -- ./inp_files/62625.got.cif
#   From: 2010.03.12/outbox.cif.g09.slc.cpg/sg66_32_cif.got.tgz:62625.got - 2010.04.10 21:57:39.
