data_PCOD8276210
_publ_section_title
;
Structure prediction by ZEFSAII (Michael W. Deem and Ramdas Pophale) SiO2 
 PCOD8276210
Probable space group: C C C M
;
_chemical_formula_sum "Si O2"
_cell_formula_units_Z 88
_cell_length_a 11.570513
_cell_length_b 13.137387
_cell_length_c 26.808729
_cell_angle_alpha 90.000000
_cell_angle_beta 90.000000
_cell_angle_gamma 90.000000
_cell_volume 4075.095893
_symmetry_space_group_name_H-M "C C C M"
_symmetry_group_IT_number 66
_symmetry_cell_setting 'orthorhombic'
loop_
_space_group_symop_operation_xyz
x,y,z
-x,-y,z
x,-y,1/2-z
-x,y,1/2-z
-x,-y,-z
x,y,-z
-x,y,1/2+z
x,-y,1/2+z
1/2+x,1/2+y,z
1/2-x,1/2-y,z
1/2+x,1/2-y,1/2-z
1/2-x,1/2+y,1/2-z
1/2-x,1/2-y,-z
1/2+x,1/2+y,-z
1/2-x,1/2+y,1/2+z
1/2+x,1/2-y,1/2+z
loop_
_atom_site_type_symbol
_atom_site_label
_atom_site_fract_x
_atom_site_fract_y
_atom_site_fract_z
Si Si1 0.129106 0.901904 0.719840
Si Si2 0.806125 0.024970 0.444957
Si Si3 0.298859 0.863973 0.360166
Si Si4 0.463136 0.655933 0.056159
Si Si5 0.517718 0.243172 0.159310
Si Si6 0.250000 0.250000 0.291175
O O1 0.214885 0.930774 0.674954
O O2 0.208235 0.839563 0.756751
O O3 0.020796 0.838371 0.695642
O O4 0.082672 0.000000 0.750000
O O5 0.752516 0.025564 0.500000
O O6 0.703574 0.070540 0.410858
O O7 0.920049 0.092641 0.442291
O O8 0.849423 0.911553 0.431015
O O9 0.250000 0.750000 0.368468
O O10 0.426625 0.850483 0.336361
O O11 0.475315 0.736810 0.100160
O O12 0.449625 0.703402 0.000000
O O13 0.644163 0.207254 0.175772
#
# Coordination Sequence:
#
# PCOD8276210 Si02
#       6
#    16  16  16  16  16   8
#     4  11  24  42  65  91 119 164 210 260 316 373
#     4   9  17  30  54  92 128 152 194 265 320 361
#     4  10  19  37  55  88 123 154 201 260 304 373
#     4   9  18  33  58  93 127 158 202 260 317 374
#     4  11  23  42  63  88 129 164 209 263 309 381
#     4  12  26  42  59  92 129 166 214 268 308 362
#
# _framework density 21.594583
#
# number of rings (size 3 to 8) (size 9 to 14) (size 15 to 20)
#    0.000    1.818    6.364    1.636    2.545    2.545 
#    0.000    2.273    0.000    0.000    0.000    2.545 
#    0.000    0.000    0.000    0.000    0.000    0.000 
#
# Total GULP energy -545097.914485 kJ/mol
# GULP energy per Si atom -12388.588966 kJ/mol
# Density = 2.154543 g / cm^3
# Si number density = 21.594583 Si / 1000 Ang^3
#
#
#
# Elastic Constant Matrix: (Units=GPa)
#
#
# Indices 1 2 3 4 5 6 
#
# 1 131.7660 23.0137 47.8266 0.0000 0.0000 0.0000
# 2 23.0137 41.6992 31.8872 0.0000 0.0000 0.0000
# 3 47.8266 31.8872 113.5235 0.0000 0.0000 0.0000
# 4 0.0000 0.0000 0.0000 23.3253 0.0000 0.0000
# 5 0.0000 0.0000 0.0000 0.0000 17.1629 0.0000
# 6 0.0000 0.0000 0.0000 0.0000 0.0000 10.5604
#
#
#
# Elastic Compliance Matrix: (Units=1/GPa)
#
#
# Indices 1 2 3 4 5 6 
#
# 1 0.009190 -0.002689 -0.003116 0.000000 0.000000 0.000000
# 2 -0.002689 0.031328 -0.007667 0.000000 0.000000 0.000000
# 3 -0.003116 -0.007667 0.012275 0.000000 0.000000 0.000000
# 4 0.000000 0.000000 0.000000 0.042872 0.000000 0.000000
# 5 0.000000 0.000000 0.000000 0.000000 0.058265 0.000000
# 6 0.000000 0.000000 0.000000 0.000000 0.000000 0.094693
#
#
# Mechanical properties :
#
#
# Convention : Reuss Voigt Hill
#
# Bulk Modulus (GPa) = 38.68616 54.71599 46.70107
# Shear Modulus (GPa) = 17.59426 22.49382 20.04404
#
# Velocity S-wave (km/s) = 2.85749 3.23095 3.04994
# Velocity P-wave (km/s) = 5.37034 6.26989 5.83747
#
# Compressibility (1/GPa) = 0.02584904
#
# Stress axis : x y z
#
# Youngs Moduli (GPa) = 108.81411 31.92030 81.46516
#
# Poissons Ratio (x) = 0.08583 0.25388
# Poissons Ratio (y) = 0.29258 0.62458
# Poissons Ratio (z) = 0.33911 0.24473
#
# Static dielectric constant tensor:
#      x y z
#    x 4.129100 0.000000 0.000000 
#    y 0.000000 3.453110 0.000000 
#    z 0.000000 0.000000 4.565450 
# 
# 
# High freq. dielectric constant tensor:
#      x y z
#    x 1.839200 0.000000 0.000000 
#    y 0.000000 1.793700 0.000000 
#    z 0.000000 0.000000 1.869180 
# 
# From -- ./inp_files/68854.got.cif
#   From: 2010.03.12/outbox.cif.g09.slc.cpg/sg66_35_cif.got.tgz:68854.got - 2010.04.10 21:57:39.
