data_PCOD8276685
_publ_section_title
;
Structure prediction by ZEFSAII (Michael W. Deem and Ramdas Pophale) SiO2 
 PCOD8276685
Probable space group: C C C M
;
_chemical_formula_sum "Si O2"
_cell_formula_units_Z 52
_cell_length_a 18.892925
_cell_length_b 4.967878
_cell_length_c 26.452940
_cell_angle_alpha 90.000000
_cell_angle_beta 90.000000
_cell_angle_gamma 90.000000
_cell_volume 2482.813336
_symmetry_space_group_name_H-M "C C C M"
_symmetry_group_IT_number 66
_symmetry_cell_setting 'orthorhombic'
loop_
_space_group_symop_operation_xyz
x,y,z
-x,-y,z
x,-y,1/2-z
-x,y,1/2-z
-x,-y,-z
x,y,-z
-x,y,1/2+z
x,-y,1/2+z
1/2+x,1/2+y,z
1/2-x,1/2-y,z
1/2+x,1/2-y,1/2-z
1/2-x,1/2+y,1/2-z
1/2-x,1/2-y,-z
1/2+x,1/2+y,-z
1/2-x,1/2+y,1/2+z
1/2+x,1/2-y,1/2+z
loop_
_atom_site_type_symbol
_atom_site_label
_atom_site_fract_x
_atom_site_fract_y
_atom_site_fract_z
Si Si1 0.000000 0.000000 0.250000
Si Si2 0.448675 0.244541 0.500000
Si Si3 0.250000 0.250000 0.220074
Si Si4 0.923971 0.639455 0.607955
Si Si5 0.108472 0.842703 0.329222
O O1 0.948534 0.194200 0.283612
O O2 0.500000 0.500000 0.500000
O O3 0.400344 0.220613 0.550628
O O4 0.500000 0.000000 0.500000
O O5 0.214223 0.500000 0.250000
O O6 0.187321 0.097620 0.190184
O O7 0.876272 0.419350 0.635974
O O8 0.000000 0.500000 0.607653
O O9 0.923000 0.913131 0.638797
#
# Coordination Sequence:
#
# PCOD8276685 Si02
#       5
#     4   8   8  16  16
#     4  12  24  42  64  96 128 172 212 286 312 376
#     4  10  20  36  62  93 130 161 204 277 344 392
#     4  12  26  44  62  91 134 187 222 260 328 402
#     4  11  21  39  62  95 123 162 213 270 329 383
#     4  12  25  39  64  91 132 167 217 266 323 387
#
# _framework density 20.943984
#
# number of rings (size 3 to 8) (size 9 to 14) (size 15 to 20)
#    0.000    0.615    4.615    5.538    0.000    1.231 
#    0.000    0.000    0.000    5.538    0.000    0.000 
#    0.000    0.000    0.000    0.000    0.000    0.000 
#
# Total GULP energy -322096.839430 kJ/mol
# GULP energy per Si atom -12388.339978 kJ/mol
# Density = 2.089631 g / cm^3
# Si number density = 20.943984 Si / 1000 Ang^3
#
#
#
# Elastic Constant Matrix: (Units=GPa)
#
#
# Indices 1 2 3 4 5 6 
#
# 1 90.2261 2.7874 48.9775 0.0000 0.0000 0.0000
# 2 2.7874 124.1083 66.3418 0.0000 0.0000 0.0000
# 3 48.9775 66.3418 161.7713 0.0000 0.0000 0.0000
# 4 0.0000 0.0000 0.0000 27.4282 0.0000 0.0000
# 5 0.0000 0.0000 0.0000 0.0000 -0.1038 0.0000
# 6 0.0000 0.0000 0.0000 0.0000 0.0000 23.2712
#
#
#
# Elastic Compliance Matrix: (Units=1/GPa)
#
#
# Indices 1 2 3 4 5 6 
#
# 1 0.013829 0.002469 -0.005199 0.000000 0.000000 0.000000
# 2 0.002469 0.010760 -0.005160 0.000000 0.000000 0.000000
# 3 -0.005199 -0.005160 0.009872 0.000000 0.000000 0.000000
# 4 0.000000 0.000000 0.000000 0.036459 0.000000 0.000000
# 5 0.000000 0.000000 0.000000 0.000000 -9.634466 0.000000
# 6 0.000000 0.000000 0.000000 0.000000 0.000000 0.042972
#
#
# Mechanical properties :
#
#
# Convention : Reuss Voigt Hill
#
# Bulk Modulus (GPa) = 53.53336 68.03544 60.78440
# Shear Modulus (GPa) = -0.52640 27.31905 13.39633
#
# Velocity S-wave (km/s) = -0.50188 3.61555 2.53183
# Velocity P-wave (km/s) = 5.02791 7.06998 6.13451
#
# Compressibility (1/GPa) = 0.01867994
#
# Stress axis : x y z
#
# Youngs Moduli (GPa) = 72.30985 92.93314 101.29757
#
# Poissons Ratio (x) = -0.22942 0.52668
# Poissons Ratio (y) = -0.17851 0.52272
# Poissons Ratio (z) = 0.37597 0.47956
#
# Static dielectric constant tensor:
#      x y z
#    x 3.364260 0.000000 0.000000 
#    y 0.000000 18.828360 0.000000 
#    z 0.000000 0.000000 7.142570 
# 
# 
# High freq. dielectric constant tensor:
#      x y z
#    x 1.775200 0.000000 0.000000 
#    y 0.000000 1.836910 0.000000 
#    z 0.000000 0.000000 1.834210 
# 
# From -- ./inp_files/64868.got.cif
#   From: 2010.03.12/outbox.cif.g09.slc.cpg/sg66_33_cif.got.tgz:64868.got - 2010.04.10 21:57:39.
