data_PCOD8276405
_publ_section_title
;
Structure prediction by ZEFSAII (Michael W. Deem and Ramdas Pophale) SiO2 
 PCOD8276405
Probable space group: C C C M
;
_chemical_formula_sum "Si O2"
_cell_formula_units_Z 80
_cell_length_a 27.313231
_cell_length_b 17.826296
_cell_length_c 8.912772
_cell_angle_alpha 90.000000
_cell_angle_beta 90.000000
_cell_angle_gamma 90.000000
_cell_volume 4339.572898
_symmetry_space_group_name_H-M "C C C M"
_symmetry_group_IT_number 66
_symmetry_cell_setting 'orthorhombic'
loop_
_space_group_symop_operation_xyz
x,y,z
-x,-y,z
x,-y,1/2-z
-x,y,1/2-z
-x,-y,-z
x,y,-z
-x,y,1/2+z
x,-y,1/2+z
1/2+x,1/2+y,z
1/2-x,1/2-y,z
1/2+x,1/2-y,1/2-z
1/2-x,1/2+y,1/2-z
1/2-x,1/2-y,-z
1/2+x,1/2+y,-z
1/2-x,1/2+y,1/2+z
1/2+x,1/2-y,1/2+z
loop_
_atom_site_type_symbol
_atom_site_label
_atom_site_fract_x
_atom_site_fract_y
_atom_site_fract_z
Si Si1 0.287786 0.923336 0.827111
Si Si2 0.145717 0.283639 0.672664
Si Si3 0.306534 0.353479 0.176109
Si Si4 0.908561 0.075686 0.326988
Si Si5 0.050407 0.232526 0.178226
O O1 0.332936 0.866749 0.812302
O O2 0.240895 0.891676 0.742629
O O3 0.304870 0.000000 0.750000
O O4 0.273738 0.937361 0.000000
O O5 0.137612 0.260777 0.500000
O O6 0.184443 0.226364 0.745561
O O7 0.094201 0.283640 0.759267
O O8 0.351786 0.408800 0.209185
O O9 0.300154 0.338762 0.000000
O O10 0.917490 0.063265 0.500000
O O11 0.940282 0.146556 0.270854
O O12 0.927038 0.000000 0.250000
O O13 0.000000 0.261114 0.250000
O O14 0.049099 0.240832 0.000000
#
# Coordination Sequence:
#
# PCOD8276405 Si02
#       5
#    16  16  16  16  16
#     4  11  23  36  53  79 110 143 178 217 263 314
#     4  10  21  37  56  79 107 139 177 220 264 313
#     4  10  20  34  53  78 109 146 184 218 257 307
#     4   9  19  32  47  72 105 140 176 212 252 299
#     4  10  21  37  56  78 102 133 175 220 269 321
#
# _framework density 18.434995000000001
#
# number of rings (size 3 to 8) (size 9 to 14) (size 15 to 20)
#    0.000    2.000    0.000    4.800    0.000   12.400 
#    0.000    2.000    0.000    0.600    0.000    4.200 
#    0.000    0.000    0.000    0.000    0.000    0.000 
#
# Total GULP energy -496131.777858 kJ/mol
# GULP energy per Si atom -12403.294446 kJ/mol
# Density = 1.839304 g / cm^3
# Si number density = 18.434995 Si / 1000 Ang^3
#
#
#
# Elastic Constant Matrix: (Units=GPa)
#
#
# Indices 1 2 3 4 5 6 
#
# 1 92.2307 35.8999 47.4429 0.0000 0.0000 0.0000
# 2 35.8999 88.0276 47.3397 0.0000 0.0000 0.0000
# 3 47.4429 47.3397 113.4625 0.0000 0.0000 0.0000
# 4 0.0000 0.0000 0.0000 31.3198 0.0000 0.0000
# 5 0.0000 0.0000 0.0000 0.0000 11.5574 0.0000
# 6 0.0000 0.0000 0.0000 0.0000 0.0000 9.9495
#
#
#
# Elastic Compliance Matrix: (Units=1/GPa)
#
#
# Indices 1 2 3 4 5 6 
#
# 1 0.014579 -0.003439 -0.004661 0.000000 0.000000 0.000000
# 2 -0.003439 0.015458 -0.005011 0.000000 0.000000 0.000000
# 3 -0.004661 -0.005011 0.012853 0.000000 0.000000 0.000000
# 4 0.000000 0.000000 0.000000 0.031929 0.000000 0.000000
# 5 0.000000 0.000000 0.000000 0.000000 0.086525 0.000000
# 6 0.000000 0.000000 0.000000 0.000000 0.000000 0.100507
#
#
# Mechanical properties :
#
#
# Convention : Reuss Voigt Hill
#
# Bulk Modulus (GPa) = 59.99944 61.67618 60.83781
# Shear Modulus (GPa) = 17.02830 21.43455 19.23143
#
# Velocity S-wave (km/s) = 3.04253 3.41355 3.23337
# Velocity P-wave (km/s) = 6.70521 7.00465 6.85656
#
# Compressibility (1/GPa) = 0.01666682
#
# Stress axis : x y z
#
# Youngs Moduli (GPa) = 68.59402 64.69314 77.80081
#
# Poissons Ratio (x) = 0.22247 0.36263
# Poissons Ratio (y) = 0.23589 0.38989
# Poissons Ratio (z) = 0.31972 0.32420
#
# Static dielectric constant tensor:
#      x y z
#    x 3.329070 0.000000 0.000000 
#    y 0.000000 3.531580 0.000000 
#    z 0.000000 0.000000 3.542630 
# 
# 
# High freq. dielectric constant tensor:
#      x y z
#    x 1.708390 0.000000 0.000000 
#    y 0.000000 1.700140 0.000000 
#    z 0.000000 0.000000 1.731450 
# 
# From -- ./inp_files/6662.got.cif
#   From: 2010.03.12/outbox.cif.g09.slc.cpg/sg66_4_cif.got.tgz:6662.got - 2010.04.10 21:57:39.
