data_PCOD8276598
_publ_section_title
;
Structure prediction by ZEFSAII (Michael W. Deem and Ramdas Pophale) SiO2 
 PCOD8276598
Probable space group: C C C M
;
_chemical_formula_sum "Si O2"
_cell_formula_units_Z 80
_cell_length_a 27.553923
_cell_length_b 17.818211
_cell_length_c 8.679963
_cell_angle_alpha 90.000000
_cell_angle_beta 90.000000
_cell_angle_gamma 90.000000
_cell_volume 4261.528643
_symmetry_space_group_name_H-M "C C C M"
_symmetry_group_IT_number 66
_symmetry_cell_setting 'orthorhombic'
loop_
_space_group_symop_operation_xyz
x,y,z
-x,-y,z
x,-y,1/2-z
-x,y,1/2-z
-x,-y,-z
x,y,-z
-x,y,1/2+z
x,-y,1/2+z
1/2+x,1/2+y,z
1/2-x,1/2-y,z
1/2+x,1/2-y,1/2-z
1/2-x,1/2+y,1/2-z
1/2-x,1/2-y,-z
1/2+x,1/2+y,-z
1/2-x,1/2+y,1/2+z
1/2+x,1/2-y,1/2+z
loop_
_atom_site_type_symbol
_atom_site_label
_atom_site_fract_x
_atom_site_fract_y
_atom_site_fract_z
Si Si1 0.594738 0.421926 0.318597
Si Si2 0.810407 0.139229 0.820716
Si Si3 0.711970 0.080853 0.680502
Si Si4 0.549749 0.276634 0.180844
Si Si5 0.351748 0.799904 0.177217
O O1 0.575726 0.500000 0.250000
O O2 0.590565 0.423955 0.500000
O O3 0.650549 0.409667 0.270973
O O4 0.560294 0.357001 0.254967
O O5 0.757458 0.118252 0.763898
O O6 0.818610 0.227195 0.791107
O O7 0.816377 0.119705 0.000000
O O8 0.721880 0.074426 0.500000
O O9 0.665417 0.132986 0.713000
O O10 0.700953 0.000000 0.750000
O O11 0.500000 0.243565 0.250000
O O12 0.592574 0.218248 0.220058
O O13 0.545378 0.288540 0.000000
O O14 0.346851 0.825144 0.000000
#
# Coordination Sequence:
#
# PCOD8276598 Si02
#       5
#    16  16  16  16  16
#     4  11  21  34  52  77 111 147 185 225 266 314
#     4  10  20  36  56  79 111 148 183 219 263 315
#     4  12  24  36  54  80 111 145 182 222 266 317
#     4  10  21  38  59  82 107 138 177 222 272 323
#     4   9  20  38  58  80 109 142 176 219 268 317
#
# _framework density 18.772606
#
# number of rings (size 3 to 8) (size 9 to 14) (size 15 to 20)
#    0.000    1.600    0.000    7.200    0.000    7.600 
#    0.000    2.000    0.000    0.600    0.000    4.200 
#    0.000    0.000    0.000    0.000    0.000    0.000 
#
# Total GULP energy -496205.052212 kJ/mol
# GULP energy per Si atom -12405.126305 kJ/mol
# Density = 1.872988 g / cm^3
# Si number density = 18.772606 Si / 1000 Ang^3
#
#
#
# Elastic Constant Matrix: (Units=GPa)
#
#
# Indices 1 2 3 4 5 6 
#
# 1 102.1492 47.8081 33.9084 0.0000 0.0000 0.0000
# 2 47.8081 88.1917 41.1085 0.0000 0.0000 0.0000
# 3 33.9084 41.1085 107.4198 0.0000 0.0000 0.0000
# 4 0.0000 0.0000 0.0000 31.7688 0.0000 0.0000
# 5 0.0000 0.0000 0.0000 0.0000 32.1332 0.0000
# 6 0.0000 0.0000 0.0000 0.0000 0.0000 13.6883
#
#
#
# Elastic Compliance Matrix: (Units=1/GPa)
#
#
# Indices 1 2 3 4 5 6 
#
# 1 0.013387 -0.006435 -0.001763 0.000000 0.000000 0.000000
# 2 -0.006435 0.016894 -0.004434 0.000000 0.000000 0.000000
# 3 -0.001763 -0.004434 0.011563 0.000000 0.000000 0.000000
# 4 0.000000 0.000000 0.000000 0.031477 0.000000 0.000000
# 5 0.000000 0.000000 0.000000 0.000000 0.031120 0.000000
# 6 0.000000 0.000000 0.000000 0.000000 0.000000 0.073055
#
#
# Mechanical properties :
#
#
# Convention : Reuss Voigt Hill
#
# Bulk Modulus (GPa) = 60.31581 60.37894 60.34738
# Shear Modulus (GPa) = 24.00540 27.18042 25.59291
#
# Velocity S-wave (km/s) = 3.57984 3.80923 3.69631
# Velocity P-wave (km/s) = 7.02043 7.18193 7.10164
#
# Compressibility (1/GPa) = 0.01657940
#
# Stress axis : x y z
#
# Youngs Moduli (GPa) = 74.70191 59.19248 86.48564
#
# Poissons Ratio (x) = 0.38090 0.15248
# Poissons Ratio (y) = 0.48070 0.38347
# Poissons Ratio (z) = 0.13170 0.26245
#
# Static dielectric constant tensor:
#      x y z
#    x 3.697420 0.000000 0.000000 
#    y 0.000000 3.377430 0.000000 
#    z 0.000000 0.000000 3.512480 
# 
# 
# High freq. dielectric constant tensor:
#      x y z
#    x 1.725400 0.000000 0.000000 
#    y 0.000000 1.715670 0.000000 
#    z 0.000000 0.000000 1.742600 
# 
# From -- ./inp_files/6709.got.cif
#   From: 2010.03.12/outbox.cif.g09.slc.cpg/sg66_4_cif.got.tgz:6709.got - 2010.04.10 21:57:39.
