data_PCOD8276789
_publ_section_title
;
Structure prediction by ZEFSAII (Michael W. Deem and Ramdas Pophale) SiO2 
 PCOD8276789
Probable space group: C C C M
;
_chemical_formula_sum "Si O2"
_cell_formula_units_Z 96
_cell_length_a 18.459837
_cell_length_b 15.318877
_cell_length_c 15.651010
_cell_angle_alpha 90.000000
_cell_angle_beta 90.000000
_cell_angle_gamma 90.000000
_cell_volume 4425.854781
_symmetry_space_group_name_H-M "C C C M"
_symmetry_group_IT_number 66
_symmetry_cell_setting 'orthorhombic'
loop_
_space_group_symop_operation_xyz
x,y,z
-x,-y,z
x,-y,1/2-z
-x,y,1/2-z
-x,-y,-z
x,y,-z
-x,y,1/2+z
x,-y,1/2+z
1/2+x,1/2+y,z
1/2-x,1/2-y,z
1/2+x,1/2-y,1/2-z
1/2-x,1/2+y,1/2-z
1/2-x,1/2-y,-z
1/2+x,1/2+y,-z
1/2-x,1/2+y,1/2+z
1/2+x,1/2-y,1/2+z
loop_
_atom_site_type_symbol
_atom_site_label
_atom_site_fract_x
_atom_site_fract_y
_atom_site_fract_z
Si Si1 0.449927 0.083517 0.597671
Si Si2 0.915464 0.307428 0.405304
Si Si3 0.579310 0.575071 0.407129
Si Si4 0.660514 0.149445 0.763737
Si Si5 0.322674 0.647366 0.786196
Si Si6 0.570136 0.613259 0.143160
O O1 0.419428 0.075606 0.500000
O O2 0.499929 0.169387 0.606550
O O3 0.385525 0.093562 0.667128
O O4 0.500000 0.000000 0.619648
O O5 0.888959 0.338359 0.500000
O O6 0.870963 0.359077 0.332266
O O7 0.904983 0.203719 0.400054
O O8 0.560257 0.613413 0.500000
O O9 0.657584 0.612182 0.380015
O O10 0.584512 0.470402 0.416218
O O11 0.517034 0.611023 0.341358
O O12 0.664749 0.249779 0.789433
O O13 0.742689 0.114806 0.761270
O O14 0.381370 0.599702 0.726573
#
# Coordination Sequence:
#
# PCOD8276789 Si02
#       6
#    16  16  16  16  16  16
#     4  10  22  41  64  92 121 157 210 262 308 366
#     4  10  20  38  63  90 117 156 208 255 302 362
#     4  11  21  35  58  90 121 155 199 246 301 362
#     4  10  22  40  62  86 123 163 202 254 318 370
#     4  10  22  39  58  88 122 162 204 248 309 375
#     4  10  20  38  59  84 121 158 198 243 296 365
#
# _framework density 21.690723999999999
#
# number of rings (size 3 to 8) (size 9 to 14) (size 15 to 20)
#    0.000    1.833    0.000    4.500    0.000    8.000 
#    6.000   10.000    0.000    0.000    0.000    0.000 
#    0.000    0.000    0.000    0.000    0.000    0.000 
#
# Total GULP energy -594805.882789 kJ/mol
# GULP energy per Si atom -12391.789225 kJ/mol
# Density = 2.164136 g / cm^3
# Si number density = 21.690724 Si / 1000 Ang^3
#
#
#
# Elastic Constant Matrix: (Units=GPa)
#
#
# Indices 1 2 3 4 5 6 
#
# 1 146.7156 30.3450 97.1445 0.0000 0.0000 0.0000
# 2 30.3450 51.2288 38.6171 0.0000 0.0000 0.0000
# 3 97.1445 38.6171 141.9664 0.0000 0.0000 0.0000
# 4 0.0000 0.0000 0.0000 25.0511 0.0000 0.0000
# 5 0.0000 0.0000 0.0000 0.0000 22.3186 0.0000
# 6 0.0000 0.0000 0.0000 0.0000 0.0000 28.6997
#
#
#
# Elastic Compliance Matrix: (Units=1/GPa)
#
#
# Indices 1 2 3 4 5 6 
#
# 1 0.012521 -0.001205 -0.008240 0.000000 0.000000 0.000000
# 2 -0.001205 0.024671 -0.005886 0.000000 0.000000 0.000000
# 3 -0.008240 -0.005886 0.014284 0.000000 0.000000 0.000000
# 4 0.000000 0.000000 0.000000 0.039918 0.000000 0.000000
# 5 0.000000 0.000000 0.000000 0.000000 0.044806 0.000000
# 6 0.000000 0.000000 0.000000 0.000000 0.000000 0.034844
#
#
# Mechanical properties :
#
#
# Convention : Reuss Voigt Hill
#
# Bulk Modulus (GPa) = 48.04727 74.68043 61.36385
# Shear Modulus (GPa) = 23.96418 26.80084 25.38251
#
# Velocity S-wave (km/s) = 3.32748 3.51891 3.42453
# Velocity P-wave (km/s) = 6.07964 7.14246 6.63237
#
# Compressibility (1/GPa) = 0.02081284
#
# Stress axis : x y z
#
# Youngs Moduli (GPa) = 79.86445 40.53287 70.01030
#
# Poissons Ratio (x) = 0.04885 0.57689
# Poissons Ratio (y) = 0.09626 0.41210
# Poissons Ratio (z) = 0.65809 0.23859
#
# Static dielectric constant tensor:
#      x y z
#    x 3.926520 0.000000 0.000000 
#    y 0.000000 3.798580 0.000000 
#    z 0.000000 0.000000 3.956570 
# 
# 
# High freq. dielectric constant tensor:
#      x y z
#    x 1.832270 0.000000 0.000000 
#    y 0.000000 1.854690 0.000000 
#    z 0.000000 0.000000 1.852560 
# 
# From -- ./inp_files/31195.got.cif
#   From: 2010.03.12/outbox.cif.g09.slc.cpg/sg66_16_cif.got.tgz:31195.got - 2010.04.10 21:57:39.
