data_PCOD8276610
_publ_section_title
;
Structure prediction by ZEFSAII (Michael W. Deem and Ramdas Pophale) SiO2 
 PCOD8276610
Probable space group: C C C M
;
_chemical_formula_sum "Si O2"
_cell_formula_units_Z 80
_cell_length_a 19.778557
_cell_length_b 25.389797
_cell_length_c 8.584012
_cell_angle_alpha 90.000000
_cell_angle_beta 90.000000
_cell_angle_gamma 90.000000
_cell_volume 4310.663755
_symmetry_space_group_name_H-M "C C C M"
_symmetry_group_IT_number 66
_symmetry_cell_setting 'orthorhombic'
loop_
_space_group_symop_operation_xyz
x,y,z
-x,-y,z
x,-y,1/2-z
-x,y,1/2-z
-x,-y,-z
x,y,-z
-x,y,1/2+z
x,-y,1/2+z
1/2+x,1/2+y,z
1/2-x,1/2-y,z
1/2+x,1/2-y,1/2-z
1/2-x,1/2+y,1/2-z
1/2-x,1/2-y,-z
1/2+x,1/2+y,-z
1/2-x,1/2+y,1/2+z
1/2+x,1/2-y,1/2+z
loop_
_atom_site_type_symbol
_atom_site_label
_atom_site_fract_x
_atom_site_fract_y
_atom_site_fract_z
Si Si1 0.071600 0.942995 0.684264
Si Si2 0.674433 0.139250 0.681446
Si Si3 0.323530 0.638958 0.185149
Si Si4 0.927584 0.556198 0.683339
Si Si5 0.330001 0.754298 0.828351
O O1 0.067366 0.945943 0.500000
O O2 0.129119 0.903594 0.737065
O O3 0.000000 0.923160 0.750000
O O4 0.090365 0.000000 0.750000
O O5 0.671086 0.126764 0.500000
O O6 0.749659 0.131351 0.743767
O O7 0.626998 0.099562 0.773000
O O8 0.648524 0.199208 0.711152
O O9 0.354824 0.696580 0.227970
O O10 0.319308 0.631580 0.000000
O O11 0.904176 0.500000 0.750000
O O12 0.933702 0.551251 0.500000
O O13 0.000000 0.573420 0.750000
O O14 0.250000 0.750000 0.839874
O O15 0.359340 0.767648 0.000000
#
# Coordination Sequence:
#
# PCOD8276610 Si02
#       5
#    16  16  16  16  16
#     4  11  22  38  58  80 108 143 181 221 270 324
#     4  11  21  34  55  84 113 143 181 222 266 317
#     4  10  20  36  57  82 111 143 181 224 269 317
#     4  11  22  39  59  80 108 142 180 221 270 323
#     4   8  16  32  53  77 108 144 178 217 267 318
#
# _framework density 18.558627000000001
#
# number of rings (size 3 to 8) (size 9 to 14) (size 15 to 20)
#    0.000    1.800    0.000    8.400    0.000    5.200 
#    0.000    5.000    0.000    4.800    0.000    0.000 
#    0.000    0.000    0.000    0.000    0.000    0.000 
#
# Total GULP energy -495964.586078 kJ/mol
# GULP energy per Si atom -12399.114652 kJ/mol
# Density = 1.851639 g / cm^3
# Si number density = 18.558627 Si / 1000 Ang^3
#
#
#
# Elastic Constant Matrix: (Units=GPa)
#
#
# Indices 1 2 3 4 5 6 
#
# 1 73.2561 60.3333 28.1525 0.0000 0.0000 0.0000
# 2 60.3333 108.1459 33.6133 0.0000 0.0000 0.0000
# 3 28.1525 33.6133 115.7128 0.0000 0.0000 0.0000
# 4 0.0000 0.0000 0.0000 47.6286 0.0000 0.0000
# 5 0.0000 0.0000 0.0000 0.0000 29.8712 0.0000
# 6 0.0000 0.0000 0.0000 0.0000 0.0000 -97.9616
#
#
#
# Elastic Compliance Matrix: (Units=1/GPa)
#
#
# Indices 1 2 3 4 5 6 
#
# 1 0.025801 -0.013678 -0.002304 0.000000 0.000000 0.000000
# 2 -0.013678 0.017416 -0.001731 0.000000 0.000000 0.000000
# 3 -0.002304 -0.001731 0.009706 0.000000 0.000000 0.000000
# 4 0.000000 0.000000 0.000000 0.020996 0.000000 0.000000
# 5 0.000000 0.000000 0.000000 0.000000 0.033477 0.000000
# 6 0.000000 0.000000 0.000000 0.000000 0.000000 -0.010208
#
#
# Mechanical properties :
#
#
# Convention : Reuss Voigt Hill
#
# Bulk Modulus (GPa) = 57.15642 60.14589 58.65115
# Shear Modulus (GPa) = 36.11508 7.57537 21.84522
#
# Velocity S-wave (km/s) = 4.41613 2.02255 3.43460
# Velocity P-wave (km/s) = 7.54106 6.15900 6.88480
#
# Compressibility (1/GPa) = 0.01749585
#
# Stress axis : x y z
#
# Youngs Moduli (GPa) = 38.75755 57.41931 103.03376
#
# Poissons Ratio (x) = 0.78539 0.23739
# Poissons Ratio (y) = 0.53013 0.17838
# Poissons Ratio (z) = 0.08930 0.09941
#
# Static dielectric constant tensor:
#      x y z
#    x 3.217430 0.000000 0.000000 
#    y 0.000000 3.844200 0.000000 
#    z 0.000000 0.000000 3.700210 
# 
# 
# High freq. dielectric constant tensor:
#      x y z
#    x 1.696560 0.000000 0.000000 
#    y 0.000000 1.734410 0.000000 
#    z 0.000000 0.000000 1.736810 
# 
# From -- ./inp_files/6724.got.cif
#   From: 2010.03.12/outbox.cif.g09.slc.cpg/sg66_4_cif.got.tgz:6724.got - 2010.04.10 21:57:39.
