data_PCOD8276000
_publ_section_title
;
Structure prediction by ZEFSAII (Michael W. Deem and Ramdas Pophale) SiO2 
 PCOD8276000
Probable space group: C C C M
;
_chemical_formula_sum "Si O2"
_cell_formula_units_Z 96
_cell_length_a 15.332271
_cell_length_b 19.398031
_cell_length_c 16.638635
_cell_angle_alpha 90.000000
_cell_angle_beta 90.000000
_cell_angle_gamma 90.000000
_cell_volume 4948.594073
_symmetry_space_group_name_H-M "C C C M"
_symmetry_group_IT_number 66
_symmetry_cell_setting 'orthorhombic'
loop_
_space_group_symop_operation_xyz
x,y,z
-x,-y,z
x,-y,1/2-z
-x,y,1/2-z
-x,-y,-z
x,y,-z
-x,y,1/2+z
x,-y,1/2+z
1/2+x,1/2+y,z
1/2-x,1/2-y,z
1/2+x,1/2-y,1/2-z
1/2-x,1/2+y,1/2-z
1/2-x,1/2-y,-z
1/2+x,1/2+y,-z
1/2-x,1/2+y,1/2+z
1/2+x,1/2-y,1/2+z
loop_
_atom_site_type_symbol
_atom_site_label
_atom_site_fract_x
_atom_site_fract_y
_atom_site_fract_z
Si Si1 0.069975 0.091349 0.593874
Si Si2 0.408320 0.147210 0.295680
Si Si3 0.619829 0.440793 0.404626
Si Si4 0.783503 0.565375 0.806885
Si Si5 0.097853 0.478390 0.587014
Si Si6 0.148408 0.235247 0.407410
O O1 0.057441 0.087051 0.500000
O O2 0.127575 0.156876 0.619517
O O3 0.970316 0.094000 0.626485
O O4 0.119327 0.021858 0.620042
O O5 0.500000 0.142935 0.250000
O O6 0.327098 0.132000 0.236057
O O7 0.398976 0.089812 0.362251
O O8 0.402815 0.219197 0.342577
O O9 0.635984 0.429874 0.500000
O O10 0.696727 0.407330 0.351669
O O11 0.763664 0.500000 0.750000
O O12 0.851720 0.541526 0.873767
O O13 0.140578 0.462683 0.500000
O O14 0.000000 0.500000 0.575705
O O15 0.117489 0.248343 0.500000
O O16 0.250000 0.250000 0.399701
#
# Coordination Sequence:
#
# PCOD8276000 Si02
#       6
#    16  16  16  16  16  16
#     4   8  17  35  60  86 113 144 186 242 294 329
#     4  11  22  39  53  79 119 155 180 234 296 345
#     4   9  17  35  61  88 114 145 187 240 292 348
#     4  10  21  32  53  81 119 148 184 233 293 344
#     4  10  19  33  56  81 107 147 194 236 282 341
#     4  10  22  40  62  85 110 151 205 244 276 344
#
# _framework density 19.399449000000001
#
# number of rings (size 3 to 8) (size 9 to 14) (size 15 to 20)
#    0.000    2.333    1.667    2.000    4.667    0.000 
#    3.000    1.667    0.000    0.000    0.000    3.500 
#    0.000    0.000    0.000    0.000    0.000    0.000 
#
# Total GULP energy -594902.627108 kJ/mol
# GULP energy per Si atom -12393.804731 kJ/mol
# Density = 1.935530 g / cm^3
# Si number density = 19.399449 Si / 1000 Ang^3
#
#
#
# Elastic Constant Matrix: (Units=GPa)
#
#
# Indices 1 2 3 4 5 6 
#
# 1 97.1660 34.3700 43.5150 0.0000 0.0000 0.0000
# 2 34.3700 87.2842 27.9886 0.0000 0.0000 0.0000
# 3 43.5150 27.9886 90.2962 0.0000 0.0000 0.0000
# 4 0.0000 0.0000 0.0000 32.5356 0.0000 0.0000
# 5 0.0000 0.0000 0.0000 0.0000 33.7981 0.0000
# 6 0.0000 0.0000 0.0000 0.0000 0.0000 21.7711
#
#
#
# Elastic Compliance Matrix: (Units=1/GPa)
#
#
# Indices 1 2 3 4 5 6 
#
# 1 0.014155 -0.003760 -0.005656 0.000000 0.000000 0.000000
# 2 -0.003760 0.013720 -0.002441 0.000000 0.000000 0.000000
# 3 -0.005656 -0.002441 0.014557 0.000000 0.000000 0.000000
# 4 0.000000 0.000000 0.000000 0.030736 0.000000 0.000000
# 5 0.000000 0.000000 0.000000 0.000000 0.029587 0.000000
# 6 0.000000 0.000000 0.000000 0.000000 0.000000 0.045933
#
#
# Mechanical properties :
#
#
# Convention : Reuss Voigt Hill
#
# Bulk Modulus (GPa) = 53.42365 54.05486 53.73926
# Shear Modulus (GPa) = 27.98931 28.87915 28.43423
#
# Velocity S-wave (km/s) = 3.80253 3.86250 3.83263
# Velocity P-wave (km/s) = 6.84671 6.91495 6.88091
#
# Compressibility (1/GPa) = 0.01871830
#
# Stress axis : x y z
#
# Youngs Moduli (GPa) = 70.64839 72.88586 68.69638
#
# Poissons Ratio (x) = 0.27406 0.38853
# Poissons Ratio (y) = 0.26564 0.16767
# Poissons Ratio (z) = 0.39957 0.17789
#
# Static dielectric constant tensor:
#      x y z
#    x 3.601370 0.000000 0.000000 
#    y 0.000000 3.522710 0.000000 
#    z 0.000000 0.000000 3.924870 
# 
# 
# High freq. dielectric constant tensor:
#      x y z
#    x 1.763050 0.000000 0.000000 
#    y 0.000000 1.724440 0.000000 
#    z 0.000000 0.000000 1.756530 
# 
# From -- ./inp_files/28356.got.cif
#   From: 2010.03.12/outbox.cif.g09.slc.cpg/sg66_15_cif.got.tgz:28356.got - 2010.04.10 21:57:39.
