data_PCOD8276727
_publ_section_title
;
Structure prediction by ZEFSAII (Michael W. Deem and Ramdas Pophale) SiO2 
 PCOD8276727
Probable space group: C C C M
;
_chemical_formula_sum "Si O2"
_cell_formula_units_Z 112
_cell_length_a 12.298901
_cell_length_b 26.423005
_cell_length_c 16.587259
_cell_angle_alpha 90.000000
_cell_angle_beta 90.000000
_cell_angle_gamma 90.000000
_cell_volume 5390.426623
_symmetry_space_group_name_H-M "C C C M"
_symmetry_group_IT_number 66
_symmetry_cell_setting 'orthorhombic'
loop_
_space_group_symop_operation_xyz
x,y,z
-x,-y,z
x,-y,1/2-z
-x,y,1/2-z
-x,-y,-z
x,y,-z
-x,y,1/2+z
x,-y,1/2+z
1/2+x,1/2+y,z
1/2-x,1/2-y,z
1/2+x,1/2-y,1/2-z
1/2-x,1/2+y,1/2-z
1/2-x,1/2-y,-z
1/2+x,1/2+y,-z
1/2-x,1/2+y,1/2+z
1/2+x,1/2-y,1/2+z
loop_
_atom_site_type_symbol
_atom_site_label
_atom_site_fract_x
_atom_site_fract_y
_atom_site_fract_z
Si Si1 0.893271 0.367320 0.795839
Si Si2 0.179852 0.203696 0.091709
Si Si3 0.226115 0.399694 0.142425
Si Si4 0.938902 0.949289 0.093913
Si Si5 0.022068 0.847931 0.157962
Si Si6 0.744663 0.309322 0.091187
Si Si7 0.997122 0.442381 0.590505
O O1 0.799777 0.385061 0.734551
O O2 0.850531 0.325925 0.858652
O O3 0.923772 0.416419 0.846537
O O4 0.000000 0.345375 0.750000
O O5 0.250000 0.250000 0.131199
O O6 0.245717 0.151575 0.095207
O O7 0.064424 0.195968 0.135406
O O8 0.154065 0.218359 0.000000
O O9 0.325295 0.439936 0.141102
O O10 0.125251 0.422999 0.096150
O O11 0.012210 0.899362 0.106085
O O12 0.912197 0.956126 0.000000
O O13 0.000000 0.000000 0.126381
O O14 0.000000 0.862688 0.250000
O O15 0.140713 0.826500 0.141981
O O16 0.750000 0.250000 0.085103
O O17 0.744096 0.332068 0.000000
O O18 0.040467 0.433688 0.500000
O O19 0.000000 0.500000 0.615749
#
# Coordination Sequence:
#
# PCOD8276727 Si02
#       7
#    16  16  16  16  16  16  16
#     4  10  23  40  60  86 118 156 199 249 299 350
#     4  10  21  39  64  88 112 151 202 250 293 342
#     4  10  20  37  60  88 120 149 190 246 295 345
#     4  10  21  39  63  88 116 153 195 239 289 348
#     4  11  23  39  60  88 124 158 195 245 298 355
#     4  11  24  41  61  87 123 163 199 242 299 362
#     4  10  21  38  61  86 115 155 198 241 291 348
#
# _framework density 20.777576
#
# number of rings (size 3 to 8) (size 9 to 14) (size 15 to 20)
#    0.000    1.714    0.000    5.571    0.000    9.143 
#    0.000    7.143    0.000    0.000    0.000    0.000 
#    0.000    0.571    0.000    0.000    0.000    0.000 
#
# Total GULP energy -694423.592559 kJ/mol
# GULP energy per Si atom -12400.421296 kJ/mol
# Density = 2.073029 g / cm^3
# Si number density = 20.777576 Si / 1000 Ang^3
#
#
#
# Elastic Constant Matrix: (Units=GPa)
#
#
# Indices 1 2 3 4 5 6 
#
# 1 97.5267 43.5773 40.0121 0.0000 0.0000 0.0000
# 2 43.5773 92.3277 26.4001 0.0000 0.0000 0.0000
# 3 40.0121 26.4001 106.8504 0.0000 0.0000 0.0000
# 4 0.0000 0.0000 0.0000 11.8787 0.0000 0.0000
# 5 0.0000 0.0000 0.0000 0.0000 -10.3244 0.0000
# 6 0.0000 0.0000 0.0000 0.0000 0.0000 31.1744
#
#
#
# Elastic Compliance Matrix: (Units=1/GPa)
#
#
# Indices 1 2 3 4 5 6 
#
# 1 0.014427 -0.005665 -0.004003 0.000000 0.000000 0.000000
# 2 -0.005665 0.013879 -0.001308 0.000000 0.000000 0.000000
# 3 -0.004003 -0.001308 0.011181 0.000000 0.000000 0.000000
# 4 0.000000 0.000000 0.000000 0.084184 0.000000 0.000000
# 5 0.000000 0.000000 0.000000 0.000000 -0.096858 0.000000
# 6 0.000000 0.000000 0.000000 0.000000 0.000000 0.032078
#
#
# Mechanical properties :
#
#
# Convention : Reuss Voigt Hill
#
# Bulk Modulus (GPa) = 57.02626 57.40932 57.21779
# Shear Modulus (GPa) = 57.67886 18.99341 38.33614
#
# Velocity S-wave (km/s) = 5.27451 3.02674 4.30009
# Velocity P-wave (km/s) = 8.03738 6.31706 7.22858
#
# Compressibility (1/GPa) = 0.01753578
#
# Stress axis : x y z
#
# Youngs Moduli (GPa) = 69.31449 72.05326 89.43792
#
# Poissons Ratio (x) = 0.40817 0.35801
# Poissons Ratio (y) = 0.39265 0.11697
# Poissons Ratio (z) = 0.27745 0.09423
#
# Static dielectric constant tensor:
#      x y z
#    x 3.664120 0.000000 0.000000 
#    y 0.000000 3.958080 0.000000 
#    z 0.000000 0.000000 3.873480 
# 
# 
# High freq. dielectric constant tensor:
#      x y z
#    x 1.816370 0.000000 0.000000 
#    y 0.000000 1.807810 0.000000 
#    z 0.000000 0.000000 1.824200 
# 
# From -- ./inp_files/26996.got.cif
#   From: 2010.03.12/outbox.cif.g09.slc.cpg/sg66_14_cif.got.tgz:26996.got - 2010.04.10 21:57:39.
