data_PCOD8276276
_publ_section_title
;
Structure prediction by ZEFSAII (Michael W. Deem and Ramdas Pophale) SiO2 
 PCOD8276276
Probable space group: C C C M
;
_chemical_formula_sum "Si O2"
_cell_formula_units_Z 68
_cell_length_a 17.772313
_cell_length_b 27.177046
_cell_length_c 9.050000
_cell_angle_alpha 90.000000
_cell_angle_beta 90.000000
_cell_angle_gamma 90.000000
_cell_volume 4371.140660
_symmetry_space_group_name_H-M "C C C M"
_symmetry_group_IT_number 66
_symmetry_cell_setting 'orthorhombic'
loop_
_space_group_symop_operation_xyz
x,y,z
-x,-y,z
x,-y,1/2-z
-x,y,1/2-z
-x,-y,-z
x,y,-z
-x,y,1/2+z
x,-y,1/2+z
1/2+x,1/2+y,z
1/2-x,1/2-y,z
1/2+x,1/2-y,1/2-z
1/2-x,1/2+y,1/2-z
1/2-x,1/2-y,-z
1/2+x,1/2+y,-z
1/2-x,1/2+y,1/2+z
1/2+x,1/2-y,1/2+z
loop_
_atom_site_type_symbol
_atom_site_label
_atom_site_fract_x
_atom_site_fract_y
_atom_site_fract_z
Si Si1 0.855647 0.545996 0.835331
Si Si2 0.810169 0.643616 0.329177
Si Si3 0.500000 0.000000 0.750000
Si Si4 0.306284 0.295495 0.832918
Si Si5 0.078064 0.733871 0.829080
O O1 0.816128 0.500000 0.750000
O O2 0.842325 0.594892 0.743605
O O3 0.945643 0.535215 0.847675
O O4 0.822228 0.551413 0.000000
O O5 0.792588 0.633836 0.500000
O O6 0.732461 0.658739 0.249826
O O7 0.872091 0.685538 0.308412
O O8 0.250000 0.250000 0.832062
O O9 0.381949 0.280758 0.746398
O O10 0.326757 0.310965 0.000000
O O11 0.000000 0.723154 0.750000
O O12 0.064722 0.746290 0.000000
#
# Coordination Sequence:
#
# PCOD8276276 Si02
#       5
#    16  16   4  16  16
#     4  10  20  32  46  63  87 118 154 191 229 268
#     4  10  20  32  47  66  90 122 157 191 229 274
#     4   8  22  32  46  60  90 120 152 192 234 264
#     4   9  17  31  48  65  87 117 151 189 230 273
#     4  10  20  31  45  67  93 121 153 191 230 273
#
# _framework density 15.55658
#
# number of rings (size 3 to 8) (size 9 to 14) (size 15 to 20)
#    0.706    1.647    0.000    3.176    1.647    5.647 
#    0.000    0.000    0.000    0.000    0.000    0.000 
#    0.000    0.941    0.000    9.412    0.000    5.647 
#
# Total GULP energy -421443.267458 kJ/mol
# GULP energy per Si atom -12395.390219 kJ/mol
# Density = 1.552117 g / cm^3
# Si number density = 15.556580 Si / 1000 Ang^3
#
#
#
# Elastic Constant Matrix: (Units=GPa)
#
#
# Indices 1 2 3 4 5 6 
#
# 1 38.2830 29.2345 46.1938 0.0000 0.0000 0.0000
# 2 29.2345 80.6478 55.6976 0.0000 0.0000 0.0000
# 3 46.1938 55.6976 158.2388 0.0000 0.0000 0.0000
# 4 0.0000 0.0000 0.0000 23.5215 0.0000 0.0000
# 5 0.0000 0.0000 0.0000 0.0000 25.8975 0.0000
# 6 0.0000 0.0000 0.0000 0.0000 0.0000 19.3631
#
#
#
# Elastic Compliance Matrix: (Units=1/GPa)
#
#
# Indices 1 2 3 4 5 6 
#
# 1 0.045372 -0.009644 -0.009851 0.000000 0.000000 0.000000
# 2 -0.009644 0.018432 -0.003672 0.000000 0.000000 0.000000
# 3 -0.009851 -0.003672 0.010488 0.000000 0.000000 0.000000
# 4 0.000000 0.000000 0.000000 0.042514 0.000000 0.000000
# 5 0.000000 0.000000 0.000000 0.000000 0.038614 0.000000
# 6 0.000000 0.000000 0.000000 0.000000 0.000000 0.051645
#
#
# Mechanical properties :
#
#
# Convention : Reuss Voigt Hill
#
# Bulk Modulus (GPa) = 35.76855 59.93571 47.85213
# Shear Modulus (GPa) = 19.03185 23.49268 21.26227
#
# Velocity S-wave (km/s) = 3.50150 3.89027 3.70100
# Velocity P-wave (km/s) = 6.27613 7.66747 7.00643
#
# Compressibility (1/GPa) = 0.02795752
#
# Stress axis : x y z
#
# Youngs Moduli (GPa) = 22.04000 54.25430 95.34863
#
# Poissons Ratio (x) = 0.52323 0.93925
# Poissons Ratio (y) = 0.21255 0.35015
# Poissons Ratio (z) = 0.21711 0.19924
#
# Static dielectric constant tensor:
#      x y z
#    x 2.770710 0.000000 0.000000 
#    y 0.000000 2.804820 0.000000 
#    z 0.000000 0.000000 3.168800 
# 
# 
# High freq. dielectric constant tensor:
#      x y z
#    x 1.563040 0.000000 0.000000 
#    y 0.000000 1.575320 0.000000 
#    z 0.000000 0.000000 1.619390 
# 
# From -- ./inp_files/6577.got.cif
#   From: 2010.03.12/outbox.cif.g09.slc.cpg/sg66_4_cif.got.tgz:6577.got - 2010.04.10 21:57:39.
