data_PCOD8276478
_publ_section_title
;
Structure prediction by ZEFSAII (Michael W. Deem and Ramdas Pophale) SiO2 
 PCOD8276478
Probable space group: C C C M
;
_chemical_formula_sum "Si O2"
_cell_formula_units_Z 116
_cell_length_a 27.419103
_cell_length_b 26.820797
_cell_length_c 8.924682
_cell_angle_alpha 90.000000
_cell_angle_beta 90.000000
_cell_angle_gamma 90.000000
_cell_volume 6563.230737
_symmetry_space_group_name_H-M "C C C M"
_symmetry_group_IT_number 66
_symmetry_cell_setting 'orthorhombic'
loop_
_space_group_symop_operation_xyz
x,y,z
-x,-y,z
x,-y,1/2-z
-x,y,1/2-z
-x,-y,-z
x,y,-z
-x,y,1/2+z
x,-y,1/2+z
1/2+x,1/2+y,z
1/2-x,1/2-y,z
1/2+x,1/2-y,1/2-z
1/2-x,1/2+y,1/2-z
1/2-x,1/2-y,-z
1/2+x,1/2+y,-z
1/2-x,1/2+y,1/2+z
1/2+x,1/2-y,1/2+z
loop_
_atom_site_type_symbol
_atom_site_label
_atom_site_fract_x
_atom_site_fract_y
_atom_site_fract_z
Si Si1 0.869121 0.741812 0.669985
Si Si2 0.188715 0.653692 0.822842
Si Si3 0.449686 0.684282 0.821040
Si Si4 0.823953 0.079670 0.676667
Si Si5 0.000000 0.000000 0.750000
Si Si6 0.080478 0.074951 0.332945
Si Si7 0.204950 0.825277 0.170995
Si Si8 0.723565 0.048987 0.177372
O O1 0.886050 0.733854 0.500000
O O2 0.856264 0.687282 0.744360
O O3 0.911146 0.775148 0.746421
O O4 0.817819 0.770790 0.678574
O O5 0.240036 0.676484 0.767143
O O6 0.188277 0.595362 0.776666
O O7 0.185258 0.659611 0.000000
O O8 0.500000 0.701463 0.750000
O O9 0.437184 0.628272 0.767172
O O10 0.451815 0.685680 0.000000
O O11 0.818060 0.073248 0.500000
O O12 0.875156 0.054697 0.729217
O O13 0.826720 0.137467 0.726173
O O14 0.777974 0.054410 0.757694
O O15 0.035580 0.036079 0.656010
O O16 0.101069 0.082608 0.500000
O O17 0.204224 0.846004 0.000000
O O18 0.699269 0.000000 0.250000
O O19 0.727246 0.043604 0.000000
#
# Coordination Sequence:
#
# PCOD8276478 Si02
#       8
#    16  16  16  16   4  16  16  16
#     4   9  15  27  49  75  97 125 160 200 249 297
#     4   8  15  26  47  76 100 123 160 201 237 289
#     4  10  20  35  54  72  95 126 163 208 255 307
#     4  11  22  34  51  72  96 129 166 206 249 299
#     4  12  26  40  56  70  90 120 168 230 276 304
#     4  11  23  40  55  70  91 122 166 218 268 307
#     4   9  15  28  49  73  99 126 158 200 244 295
#     4  10  20  35  53  73 100 132 164 200 237 286
#
# _framework density 17.674223000000001
#
# number of rings (size 3 to 8) (size 9 to 14) (size 15 to 20)
#    0.000    2.207    2.069    3.103    0.966    3.310 
#    0.000    0.000    0.000   11.586    0.000    0.000 
#    0.000    0.552    0.000    6.897    0.000    0.000 
#
# Total GULP energy -718564.812839 kJ/mol
# GULP energy per Si atom -12389.048497 kJ/mol
# Density = 1.763400 g / cm^3
# Si number density = 17.674223 Si / 1000 Ang^3
#
#
#
# Elastic Constant Matrix: (Units=GPa)
#
#
# Indices 1 2 3 4 5 6 
#
# 1 70.2494 61.8713 13.6960 0.0000 0.0000 0.0000
# 2 61.8713 127.8970 26.5855 0.0000 0.0000 0.0000
# 3 13.6960 26.5855 54.2870 0.0000 0.0000 0.0000
# 4 0.0000 0.0000 0.0000 16.3816 0.0000 0.0000
# 5 0.0000 0.0000 0.0000 0.0000 12.4457 0.0000
# 6 0.0000 0.0000 0.0000 0.0000 0.0000 30.2761
#
#
#
# Elastic Compliance Matrix: (Units=1/GPa)
#
#
# Indices 1 2 3 4 5 6 
#
# 1 0.024811 -0.011914 -0.000425 0.000000 0.000000 0.000000
# 2 -0.011914 0.014426 -0.004059 0.000000 0.000000 0.000000
# 3 -0.000425 -0.004059 0.020516 0.000000 0.000000 0.000000
# 4 0.000000 0.000000 0.000000 0.061044 0.000000 0.000000
# 5 0.000000 0.000000 0.000000 0.000000 0.080349 0.000000
# 6 0.000000 0.000000 0.000000 0.000000 0.000000 0.033029
#
#
# Mechanical properties :
#
#
# Convention : Reuss Voigt Hill
#
# Bulk Modulus (GPa) = 37.09665 50.74878 43.92272
# Shear Modulus (GPa) = 18.11873 21.83938 19.97906
#
# Velocity S-wave (km/s) = 3.20527 3.51901 3.36580
# Velocity P-wave (km/s) = 5.89347 6.72957 6.32535
#
# Compressibility (1/GPa) = 0.02695661
#
# Stress axis : x y z
#
# Youngs Moduli (GPa) = 40.30432 69.31841 48.74350
#
# Poissons Ratio (x) = 0.82588 0.02071
# Poissons Ratio (y) = 0.48020 0.19785
# Poissons Ratio (z) = 0.01712 0.28136
#
# Static dielectric constant tensor:
#      x y z
#    x 3.200800 0.000000 0.000000 
#    y 0.000000 3.569840 0.000000 
#    z 0.000000 0.000000 2.964110 
# 
# 
# High freq. dielectric constant tensor:
#      x y z
#    x 1.650430 0.000000 0.000000 
#    y 0.000000 1.684720 0.000000 
#    z 0.000000 0.000000 1.649590 
# 
# From -- ./inp_files/10901.got.cif
#   From: 2010.03.12/outbox.cif.g09.slc.cpg/sg66_6_cif.got.tgz:10901.got - 2010.04.10 21:57:39.
