data_PCOD8276793
_publ_section_title
;
Structure prediction by ZEFSAII (Michael W. Deem and Ramdas Pophale) SiO2 
 PCOD8276793
Probable space group: C C C M
;
_chemical_formula_sum "Si O2"
_cell_formula_units_Z 80
_cell_length_a 11.329759
_cell_length_b 23.707422
_cell_length_c 14.706574
_cell_angle_alpha 90.000000
_cell_angle_beta 90.000000
_cell_angle_gamma 90.000000
_cell_volume 3950.176626
_symmetry_space_group_name_H-M "C C C M"
_symmetry_group_IT_number 66
_symmetry_cell_setting 'orthorhombic'
loop_
_space_group_symop_operation_xyz
x,y,z
-x,-y,z
x,-y,1/2-z
-x,y,1/2-z
-x,-y,-z
x,y,-z
-x,y,1/2+z
x,-y,1/2+z
1/2+x,1/2+y,z
1/2-x,1/2-y,z
1/2+x,1/2-y,1/2-z
1/2-x,1/2+y,1/2-z
1/2-x,1/2-y,-z
1/2+x,1/2+y,-z
1/2-x,1/2+y,1/2+z
1/2+x,1/2-y,1/2+z
loop_
_atom_site_type_symbol
_atom_site_label
_atom_site_fract_x
_atom_site_fract_y
_atom_site_fract_z
Si Si1 0.741128 0.516301 0.500000
Si Si2 0.000000 0.642855 0.250000
Si Si3 0.719066 0.188993 0.339362
Si Si4 0.578355 0.380874 0.000000
Si Si5 0.874077 0.132489 0.797692
Si Si6 0.695777 0.385598 0.500000
Si Si7 0.673252 0.948751 0.686368
O O1 0.621907 0.554144 0.500000
O O2 0.704809 0.452070 0.500000
O O3 0.824734 0.528882 0.584618
O O4 0.081455 0.683344 0.312186
O O5 0.081546 0.602890 0.188103
O O6 0.750000 0.250000 0.382083
O O7 0.803776 0.182869 0.251439
O O8 0.743922 0.139711 0.410870
O O9 0.622209 0.352078 0.094355
O O10 0.440453 0.371854 0.000000
O O11 0.802089 0.074096 0.782872
O O12 0.000000 0.123547 0.750000
O O13 0.632838 0.000000 0.750000
#
# Coordination Sequence:
#
# PCOD8276793 Si02
#       7
#     8   8  16   8  16   8  16
#     4  10  21  36  60  90 127 167 198 242 311 379
#     4  10  23  42  60  86 124 160 211 256 304 378
#     4  11  25  42  65  89 120 165 213 266 319 361
#     4  10  21  35  62  94 129 165 203 248 316 380
#     4  10  20  38  60  89 127 164 203 257 306 366
#     4  12  22  39  59  96 128 158 209 262 308 375
#     4  10  21  37  58  89 125 165 203 240 303 378
#
# _framework density 20.252258999999999
#
# number of rings (size 3 to 8) (size 9 to 14) (size 15 to 20)
#    0.000    1.600    2.000    3.300    1.400    1.200 
#    0.000    4.500    0.000    0.000    0.000    0.000 
#    0.000    0.000    0.000    0.000    0.000    0.000 
#
# Total GULP energy -495926.242850 kJ/mol
# GULP energy per Si atom -12398.156071 kJ/mol
# Density = 2.020616 g / cm^3
# Si number density = 20.252259 Si / 1000 Ang^3
#
#
#
# Elastic Constant Matrix: (Units=GPa)
#
#
# Indices 1 2 3 4 5 6 
#
# 1 119.6555 18.3891 33.9562 0.0000 0.0000 0.0000
# 2 18.3891 40.9641 7.3165 0.0000 0.0000 0.0000
# 3 33.9562 7.3165 117.5800 0.0000 0.0000 0.0000
# 4 0.0000 0.0000 0.0000 8.0176 0.0000 0.0000
# 5 0.0000 0.0000 0.0000 0.0000 67.9887 0.0000
# 6 0.0000 0.0000 0.0000 0.0000 0.0000 24.8057
#
#
#
# Elastic Compliance Matrix: (Units=1/GPa)
#
#
# Indices 1 2 3 4 5 6 
#
# 1 0.009680 -0.003889 -0.002553 0.000000 0.000000 0.000000
# 2 -0.003889 0.026249 -0.000510 0.000000 0.000000 0.000000
# 3 -0.002553 -0.000510 0.009274 0.000000 0.000000 0.000000
# 4 0.000000 0.000000 0.000000 0.124726 0.000000 0.000000
# 5 0.000000 0.000000 0.000000 0.000000 0.014708 0.000000
# 6 0.000000 0.000000 0.000000 0.000000 0.000000 0.040313
#
#
# Mechanical properties :
#
#
# Convention : Reuss Voigt Hill
#
# Bulk Modulus (GPa) = 31.95225 44.16926 38.06075
# Shear Modulus (GPa) = 20.05719 34.73159 27.39439
#
# Velocity S-wave (km/s) = 3.15043 4.14569 3.68184
# Velocity P-wave (km/s) = 5.38934 6.69123 6.07526
#
# Compressibility (1/GPa) = 0.03129670
#
# Stress axis : x y z
#
# Youngs Moduli (GPa) = 103.30957 38.09726 107.82833
#
# Poissons Ratio (x) = 0.14817 0.27533
# Poissons Ratio (y) = 0.40179 0.05501
# Poissons Ratio (z) = 0.26379 0.01944
#
# Static dielectric constant tensor:
#      x y z
#    x 3.830300 0.000000 0.000000 
#    y 0.000000 3.472090 0.000000 
#    z 0.000000 0.000000 3.938520 
# 
# 
# High freq. dielectric constant tensor:
#      x y z
#    x 1.798130 0.000000 0.000000 
#    y 0.000000 1.774340 0.000000 
#    z 0.000000 0.000000 1.798010 
# 
# From -- ./inp_files/26472.got.cif
#   From: 2010.03.12/outbox.cif.g09.slc.cpg/sg66_14_cif.got.tgz:26472.got - 2010.04.10 21:57:39.
