data_PCOD8276516
_publ_section_title
;
Structure prediction by ZEFSAII (Michael W. Deem and Ramdas Pophale) SiO2 
 PCOD8276516
Probable space group: C C C M
;
_chemical_formula_sum "Si O2"
_cell_formula_units_Z 96
_cell_length_a 23.242316
_cell_length_b 25.265593
_cell_length_c 8.731818
_cell_angle_alpha 90.000000
_cell_angle_beta 90.000000
_cell_angle_gamma 90.000000
_cell_volume 5127.593312
_symmetry_space_group_name_H-M "C C C M"
_symmetry_group_IT_number 66
_symmetry_cell_setting 'orthorhombic'
loop_
_space_group_symop_operation_xyz
x,y,z
-x,-y,z
x,-y,1/2-z
-x,y,1/2-z
-x,-y,-z
x,y,-z
-x,y,1/2+z
x,-y,1/2+z
1/2+x,1/2+y,z
1/2-x,1/2-y,z
1/2+x,1/2-y,1/2-z
1/2-x,1/2+y,1/2-z
1/2-x,1/2-y,-z
1/2+x,1/2+y,-z
1/2-x,1/2+y,1/2+z
1/2+x,1/2-y,1/2+z
loop_
_atom_site_type_symbol
_atom_site_label
_atom_site_fract_x
_atom_site_fract_y
_atom_site_fract_z
Si Si1 0.939407 0.056689 0.818515
Si Si2 0.061605 0.251860 0.178859
Si Si3 0.371220 0.649128 0.319902
Si Si4 0.939071 0.555266 0.320182
Si Si5 0.868203 0.343291 0.175203
Si Si6 0.741523 0.310395 0.176245
O O1 0.889591 0.097132 0.772064
O O2 0.000000 0.076747 0.750000
O O3 0.922722 0.000000 0.750000
O O4 0.944731 0.052408 0.000000
O O5 0.089090 0.197335 0.239363
O O6 0.103790 0.299597 0.217628
O O7 0.000000 0.262235 0.250000
O O8 0.053452 0.248968 0.000000
O O9 0.378004 0.639317 0.500000
O O10 0.305242 0.661614 0.282389
O O11 0.917560 0.500000 0.250000
O O12 0.947174 0.548193 0.500000
O O13 0.891626 0.599085 0.278658
O O14 0.000000 0.572935 0.250000
O O15 0.799907 0.343331 0.199464
O O16 0.884195 0.329559 0.000000
O O17 0.750000 0.250000 0.230600
O O18 0.720863 0.311312 0.000000
#
# Coordination Sequence:
#
# PCOD8276516 Si02
#       6
#    16  16  16  16  16  16
#     4  11  22  39  63  89 119 154 193 238 291 348
#     4  11  23  35  53  81 114 147 183 231 285 340
#     4  11  23  38  57  85 117 152 195 239 285 341
#     4  10  20  35  56  81 110 143 182 226 275 334
#     4  10  21  37  57  82 111 145 189 233 282 341
#     4  10  20  37  60  82 111 155 195 235 288 342
#
# _framework density 18.722234
#
# number of rings (size 3 to 8) (size 9 to 14) (size 15 to 20)
#    0.000    1.500    1.667    5.000    0.000    7.000 
#    0.000    0.833    0.000    2.000    0.000    0.000 
#    0.000    0.000    0.000    0.000    0.000    0.000 
#
# Total GULP energy -595466.737904 kJ/mol
# GULP energy per Si atom -12405.557040 kJ/mol
# Density = 1.867962 g / cm^3
# Si number density = 18.722234 Si / 1000 Ang^3
#
#
#
# Elastic Constant Matrix: (Units=GPa)
#
#
# Indices 1 2 3 4 5 6 
#
# 1 86.4269 53.5568 36.0018 0.0000 0.0000 0.0000
# 2 53.5568 119.1804 48.0333 0.0000 0.0000 0.0000
# 3 36.0018 48.0333 91.0557 0.0000 0.0000 0.0000
# 4 0.0000 0.0000 0.0000 29.3227 0.0000 0.0000
# 5 0.0000 0.0000 0.0000 0.0000 31.8384 0.0000
# 6 0.0000 0.0000 0.0000 0.0000 0.0000 30.6216
#
#
#
# Elastic Compliance Matrix: (Units=1/GPa)
#
#
# Indices 1 2 3 4 5 6 
#
# 1 0.016818 -0.006195 -0.003382 0.000000 0.000000 0.000000
# 2 -0.006195 0.012938 -0.004376 0.000000 0.000000 0.000000
# 3 -0.003382 -0.004376 0.014628 0.000000 0.000000 0.000000
# 4 0.000000 0.000000 0.000000 0.034103 0.000000 0.000000
# 5 0.000000 0.000000 0.000000 0.000000 0.031409 0.000000
# 6 0.000000 0.000000 0.000000 0.000000 0.000000 0.032657
#
#
# Mechanical properties :
#
#
# Convention : Reuss Voigt Hill
#
# Bulk Modulus (GPa) = 60.68226 63.53852 62.11039
# Shear Modulus (GPa) = 28.41734 28.96129 28.68932
#
# Velocity S-wave (km/s) = 3.90017 3.93732 3.91879
# Velocity P-wave (km/s) = 7.26389 7.39467 7.32957
#
# Compressibility (1/GPa) = 0.01647928
#
# Stress axis : x y z
#
# Youngs Moduli (GPa) = 59.46087 77.29246 68.36392
#
# Poissons Ratio (x) = 0.47879 0.23119
# Poissons Ratio (y) = 0.36833 0.29914
# Poissons Ratio (z) = 0.20108 0.33821
#
# Static dielectric constant tensor:
#      x y z
#    x 3.422510 0.000000 0.000000 
#    y 0.000000 3.502040 0.000000 
#    z 0.000000 0.000000 3.489250 
# 
# 
# High freq. dielectric constant tensor:
#      x y z
#    x 1.724530 0.000000 0.000000 
#    y 0.000000 1.729410 0.000000 
#    z 0.000000 0.000000 1.734900 
# 
# From -- ./inp_files/9119.got.cif
#   From: 2010.03.12/outbox.cif.g09.slc.cpg/sg66_5_cif.got.tgz:9119.got - 2010.04.10 21:57:39.
