data_PCOD8276260
_publ_section_title
;
Structure prediction by ZEFSAII (Michael W. Deem and Ramdas Pophale) SiO2 
 PCOD8276260
Probable space group: C C C M
;
_chemical_formula_sum "Si O2"
_cell_formula_units_Z 64
_cell_length_a 8.796496
_cell_length_b 11.986146
_cell_length_c 26.990160
_cell_angle_alpha 90.000000
_cell_angle_beta 90.000000
_cell_angle_gamma 90.000000
_cell_volume 2845.736813
_symmetry_space_group_name_H-M "C C C M"
_symmetry_group_IT_number 66
_symmetry_cell_setting 'orthorhombic'
loop_
_space_group_symop_operation_xyz
x,y,z
-x,-y,z
x,-y,1/2-z
-x,y,1/2-z
-x,-y,-z
x,y,-z
-x,y,1/2+z
x,-y,1/2+z
1/2+x,1/2+y,z
1/2-x,1/2-y,z
1/2+x,1/2-y,1/2-z
1/2-x,1/2+y,1/2-z
1/2-x,1/2-y,-z
1/2+x,1/2+y,-z
1/2-x,1/2+y,1/2+z
1/2+x,1/2-y,1/2+z
loop_
_atom_site_type_symbol
_atom_site_label
_atom_site_fract_x
_atom_site_fract_y
_atom_site_fract_z
Si Si1 0.666000 0.512784 0.876817
Si Si2 0.866622 0.649470 0.943888
Si Si3 0.070892 0.621283 0.143259
Si Si4 0.404539 0.303676 0.205311
O O1 0.500000 0.500000 0.900394
O O2 0.778035 0.544133 0.921492
O O3 0.743940 0.397810 0.855775
O O4 0.648513 0.604533 0.834051
O O5 0.750000 0.750000 0.939858
O O6 0.015752 0.668918 0.910392
O O7 0.917863 0.625872 0.000000
O O8 0.000000 0.500000 0.155472
O O9 0.016132 0.708744 0.183829
O O10 0.500000 0.360239 0.250000
O O11 0.250000 0.250000 0.225939
#
# Coordination Sequence:
#
# PCOD8276260 Si02
#       4
#    16  16  16  16
#     4  11  24  41  62  96 135 166 211 273 331 392
#     4  10  19  40  72  95 124 169 217 264 325 403
#     4  10  20  42  68  91 125 168 218 265 326 394
#     4  12  25  45  64  93 128 173 225 276 331 388
#
# _framework density 22.489782999999999
#
# number of rings (size 3 to 8) (size 9 to 14) (size 15 to 20)
#    0.000    1.250    7.500    0.000    3.500    6.000 
#    0.000    0.000    0.000    3.000    0.000    0.000 
#    0.000    0.000    0.000    0.000    0.000    0.000 
#
# Total GULP energy -396510.890754 kJ/mol
# GULP energy per Si atom -12390.965336 kJ/mol
# Density = 2.243859 g / cm^3
# Si number density = 22.489783 Si / 1000 Ang^3
#
#
#
# Elastic Constant Matrix: (Units=GPa)
#
#
# Indices 1 2 3 4 5 6 
#
# 1 129.1005 17.6568 22.9468 0.0000 0.0000 0.0000
# 2 17.6568 54.6424 22.6586 0.0000 0.0000 0.0000
# 3 22.9468 22.6586 99.0266 0.0000 0.0000 0.0000
# 4 0.0000 0.0000 0.0000 11.4666 0.0000 0.0000
# 5 0.0000 0.0000 0.0000 0.0000 22.7610 0.0000
# 6 0.0000 0.0000 0.0000 0.0000 0.0000 44.4413
#
#
#
# Elastic Compliance Matrix: (Units=1/GPa)
#
#
# Indices 1 2 3 4 5 6 
#
# 1 0.008287 -0.002079 -0.001445 0.000000 0.000000 0.000000
# 2 -0.002079 0.020741 -0.004264 0.000000 0.000000 0.000000
# 3 -0.001445 -0.004264 0.011409 0.000000 0.000000 0.000000
# 4 0.000000 0.000000 0.000000 0.087210 0.000000 0.000000
# 5 0.000000 0.000000 0.000000 0.000000 0.043935 0.000000
# 6 0.000000 0.000000 0.000000 0.000000 0.000000 0.022502
#
#
# Mechanical properties :
#
#
# Convention : Reuss Voigt Hill
#
# Bulk Modulus (GPa) = 40.22279 45.47709 42.84994
# Shear Modulus (GPa) = 22.94161 30.36759 26.65460
#
# Velocity S-wave (km/s) = 3.19735 3.67861 3.44639
# Velocity P-wave (km/s) = 5.61734 6.18934 5.91027
#
# Compressibility (1/GPa) = 0.02486152
#
# Stress axis : x y z
#
# Youngs Moduli (GPa) = 120.67109 48.21439 87.65221
#
# Poissons Ratio (x) = 0.10023 0.12663
# Poissons Ratio (y) = 0.25085 0.37375
# Poissons Ratio (z) = 0.17433 0.20559
#
# Static dielectric constant tensor:
#      x y z
#    x 5.027060 0.000000 0.000000 
#    y 0.000000 4.193230 0.000000 
#    z 0.000000 0.000000 3.996060 
# 
# 
# High freq. dielectric constant tensor:
#      x y z
#    x 1.901840 0.000000 0.000000 
#    y 0.000000 1.880230 0.000000 
#    z 0.000000 0.000000 1.869240 
# 
# From -- ./inp_files/57669.got.cif
#   From: 2010.03.12/outbox.cif.g09.slc.cpg/sg66_29_cif.got.tgz:57669.got - 2010.04.10 21:57:39.
