data_PCOD8276829
_publ_section_title
;
Structure prediction by ZEFSAII (Michael W. Deem and Ramdas Pophale) SiO2 
 PCOD8276829
Probable space group: C C C M
;
_chemical_formula_sum "Si O2"
_cell_formula_units_Z 112
_cell_length_a 11.847603
_cell_length_b 27.937250
_cell_length_c 16.815667
_cell_angle_alpha 90.000000
_cell_angle_beta 90.000000
_cell_angle_gamma 90.000000
_cell_volume 5565.808320
_symmetry_space_group_name_H-M "C C C M"
_symmetry_group_IT_number 66
_symmetry_cell_setting 'orthorhombic'
loop_
_space_group_symop_operation_xyz
x,y,z
-x,-y,z
x,-y,1/2-z
-x,y,1/2-z
-x,-y,-z
x,y,-z
-x,y,1/2+z
x,-y,1/2+z
1/2+x,1/2+y,z
1/2-x,1/2-y,z
1/2+x,1/2-y,1/2-z
1/2-x,1/2+y,1/2-z
1/2-x,1/2-y,-z
1/2+x,1/2+y,-z
1/2-x,1/2+y,1/2+z
1/2+x,1/2-y,1/2+z
loop_
_atom_site_type_symbol
_atom_site_label
_atom_site_fract_x
_atom_site_fract_y
_atom_site_fract_z
Si Si1 0.963340 0.666247 0.660549
Si Si2 0.437113 0.271893 0.593982
Si Si3 0.680404 0.117492 0.593714
Si Si4 0.107172 0.059169 0.346934
Si Si5 0.320851 0.706044 0.594600
Si Si6 0.855666 0.048732 0.338422
Si Si7 0.763808 0.148153 0.907357
O O1 0.938485 0.716596 0.617826
O O2 0.843817 0.640082 0.649921
O O3 0.000000 0.675922 0.750000
O O4 0.054678 0.630587 0.621607
O O5 0.436351 0.274217 0.500000
O O6 0.552585 0.294279 0.628450
O O7 0.333004 0.304714 0.623996
O O8 0.677310 0.113334 0.500000
O O9 0.762314 0.158698 0.625678
O O10 0.738183 0.070023 0.628225
O O11 0.136463 0.061276 0.254108
O O12 0.167417 0.099424 0.398707
O O13 0.975895 0.067917 0.370691
O O14 0.149918 0.006073 0.367771
O O15 0.320290 0.709592 0.500000
O O16 0.250000 0.750000 0.630994
O O17 0.729936 0.154870 0.000000
#
# Coordination Sequence:
#
# PCOD8276829 Si02
#       7
#    16  16  16  16  16  16  16
#     4  12  25  41  55  82 120 160 202 248 301 365
#     4  10  20  39  61  84 115 157 202 247 300 354
#     4  11  21  36  59  86 115 153 198 245 298 351
#     4   9  19  39  61  90 126 159 194 240 305 360
#     4   9  16  30  54  81 112 146 183 232 289 340
#     4   9  19  37  63  91 124 160 193 242 302 367
#     4  11  23  40  63  87 118 161 208 254 305 362
#
# _framework density 20.122864
#
# number of rings (size 3 to 8) (size 9 to 14) (size 15 to 20)
#    0.000    1.857    1.429    4.286    0.000    3.429 
#   10.286    2.143    0.000    4.286    0.000    0.000 
#    0.000    0.000    0.000    0.000    0.000    0.000 
#
# Total GULP energy -693790.260302 kJ/mol
# GULP energy per Si atom -12389.111791 kJ/mol
# Density = 2.007706 g / cm^3
# Si number density = 20.122864 Si / 1000 Ang^3
#
#
#
# Elastic Constant Matrix: (Units=GPa)
#
#
# Indices 1 2 3 4 5 6 
#
# 1 161.3964 61.1380 31.3183 0.0000 0.0000 0.0000
# 2 61.1380 87.5898 8.7559 0.0000 0.0000 0.0000
# 3 31.3183 8.7559 20.6438 0.0000 0.0000 0.0000
# 4 0.0000 0.0000 0.0000 28.3000 0.0000 0.0000
# 5 0.0000 0.0000 0.0000 0.0000 26.7787 0.0000
# 6 0.0000 0.0000 0.0000 0.0000 0.0000 29.9471
#
#
#
# Elastic Compliance Matrix: (Units=1/GPa)
#
#
# Indices 1 2 3 4 5 6 
#
# 1 0.011550 -0.006590 -0.014727 0.000000 0.000000 0.000000
# 2 -0.006590 0.015682 0.003346 0.000000 0.000000 0.000000
# 3 -0.014727 0.003346 0.069364 0.000000 0.000000 0.000000
# 4 0.000000 0.000000 0.000000 0.035336 0.000000 0.000000
# 5 0.000000 0.000000 0.000000 0.000000 0.037343 0.000000
# 6 0.000000 0.000000 0.000000 0.000000 0.000000 0.033392
#
#
# Mechanical properties :
#
#
# Convention : Reuss Voigt Hill
#
# Bulk Modulus (GPa) = 16.48706 52.45048 34.46877
# Shear Modulus (GPa) = 19.31791 28.23301 23.77546
#
# Velocity S-wave (km/s) = 3.10174 3.74977 3.44105
# Velocity P-wave (km/s) = 4.58680 6.69846 5.74056
#
# Compressibility (1/GPa) = 0.06065364
#
# Stress axis : x y z
#
# Youngs Moduli (GPa) = 86.58103 63.76732 14.41669
#
# Poissons Ratio (x) = 0.42021 0.21232
# Poissons Ratio (y) = 0.57054 -0.04823
# Poissons Ratio (z) = 1.27509 -0.21334
#
# Static dielectric constant tensor:
#      x y z
#    x 4.142970 0.000000 0.000000 
#    y 0.000000 3.729570 0.000000 
#    z 0.000000 0.000000 3.366410 
# 
# 
# High freq. dielectric constant tensor:
#      x y z
#    x 1.796150 0.000000 0.000000 
#    y 0.000000 1.782310 0.000000 
#    z 0.000000 0.000000 1.763820 
# 
# From -- ./inp_files/27017.got.cif
#   From: 2010.03.12/outbox.cif.g09.slc.cpg/sg66_14_cif.got.tgz:27017.got - 2010.04.10 21:57:39.
