data_PCOD8276025
_publ_section_title
;
Structure prediction by ZEFSAII (Michael W. Deem and Ramdas Pophale) SiO2 
 PCOD8276025
Probable space group: C C C M
;
_chemical_formula_sum "Si O2"
_cell_formula_units_Z 80
_cell_length_a 9.087546
_cell_length_b 17.046246
_cell_length_c 23.576886
_cell_angle_alpha 90.000000
_cell_angle_beta 90.000000
_cell_angle_gamma 90.000000
_cell_volume 3652.261098
_symmetry_space_group_name_H-M "C C C M"
_symmetry_group_IT_number 66
_symmetry_cell_setting 'orthorhombic'
loop_
_space_group_symop_operation_xyz
x,y,z
-x,-y,z
x,-y,1/2-z
-x,y,1/2-z
-x,-y,-z
x,y,-z
-x,y,1/2+z
x,-y,1/2+z
1/2+x,1/2+y,z
1/2-x,1/2-y,z
1/2+x,1/2-y,1/2-z
1/2-x,1/2+y,1/2-z
1/2-x,1/2-y,-z
1/2+x,1/2+y,-z
1/2-x,1/2+y,1/2+z
1/2+x,1/2-y,1/2+z
loop_
_atom_site_type_symbol
_atom_site_label
_atom_site_fract_x
_atom_site_fract_y
_atom_site_fract_z
Si Si1 0.731190 0.411231 0.740338
Si Si2 0.426220 0.417018 0.061872
Si Si3 0.463950 0.649147 0.171381
Si Si4 0.087466 0.420964 0.933958
Si Si5 0.893096 0.697798 0.840426
O O1 0.782981 0.500000 0.750000
O O2 0.693913 0.374083 0.802345
O O3 0.586576 0.406185 0.700906
O O4 0.861291 0.363225 0.710244
O O5 0.500000 0.500000 0.058140
O O6 0.521844 0.363648 0.104090
O O7 0.258964 0.431596 0.081449
O O8 0.429650 0.375808 0.000000
O O9 0.486802 0.741365 0.183563
O O10 0.038069 0.348032 0.894574
O O11 0.000000 0.500000 0.917373
O O12 0.060482 0.400542 0.000000
O O13 0.750000 0.750000 0.858475
#
# Coordination Sequence:
#
# PCOD8276025 Si02
#       5
#    16  16  16  16  16
#     4  10  19  34  59  81 110 160 202 245 295 357
#     4  10  19  33  61  94 120 154 205 253 294 362
#     4  10  19  34  59  82 120 147 197 256 297 346
#     4  10  21  38  60  88 126 163 195 247 310 363
#     4  10  20  37  58  87 119 151 207 253 295 368
#
# _framework density 21.904240000000001
#
# number of rings (size 3 to 8) (size 9 to 14) (size 15 to 20)
#    0.000    2.000    4.000    2.400    0.000    1.200 
#    0.000   10.000    0.000    0.000    0.000    5.600 
#    0.000    0.000    0.000    0.000    0.000    0.000 
#
# Total GULP energy -495831.751649 kJ/mol
# GULP energy per Si atom -12395.793791 kJ/mol
# Density = 2.185438 g / cm^3
# Si number density = 21.904240 Si / 1000 Ang^3
#
#
#
# Elastic Constant Matrix: (Units=GPa)
#
#
# Indices 1 2 3 4 5 6 
#
# 1 29.2211 34.1712 37.9160 0.0000 0.0000 0.0000
# 2 34.1712 170.3583 74.6785 0.0000 0.0000 0.0000
# 3 37.9160 74.6785 136.3302 0.0000 0.0000 0.0000
# 4 0.0000 0.0000 0.0000 43.3307 0.0000 0.0000
# 5 0.0000 0.0000 0.0000 0.0000 17.7319 0.0000
# 6 0.0000 0.0000 0.0000 0.0000 0.0000 19.2687
#
#
#
# Elastic Compliance Matrix: (Units=1/GPa)
#
#
# Indices 1 2 3 4 5 6 
#
# 1 0.057842 -0.005988 -0.012807 0.000000 0.000000 0.000000
# 2 -0.005988 0.008345 -0.002906 0.000000 0.000000 0.000000
# 3 -0.012807 -0.002906 0.012489 0.000000 0.000000 0.000000
# 4 0.000000 0.000000 0.000000 0.023078 0.000000 0.000000
# 5 0.000000 0.000000 0.000000 0.000000 0.056395 0.000000
# 6 0.000000 0.000000 0.000000 0.000000 0.000000 0.051898
#
#
# Mechanical properties :
#
#
# Convention : Reuss Voigt Hill
#
# Bulk Modulus (GPa) = 28.34936 69.93790 49.14363
# Shear Modulus (GPa) = 18.85324 28.67586 23.76455
#
# Velocity S-wave (km/s) = 2.93697 3.62214 3.29740
# Velocity P-wave (km/s) = 4.94688 7.03501 6.08124
#
# Compressibility (1/GPa) = 0.03527417
#
# Stress axis : x y z
#
# Youngs Moduli (GPa) = 17.28847 119.83422 80.07308
#
# Poissons Ratio (x) = 0.71759 1.02548
# Poissons Ratio (y) = 0.10353 0.23267
# Poissons Ratio (z) = 0.22141 0.34820
#
# Static dielectric constant tensor:
#      x y z
#    x 3.636330 0.000000 0.000000 
#    y 0.000000 3.897800 0.000000 
#    z 0.000000 0.000000 4.545430 
# 
# 
# High freq. dielectric constant tensor:
#      x y z
#    x 1.819760 0.000000 0.000000 
#    y 0.000000 1.858520 0.000000 
#    z 0.000000 0.000000 1.872300 
# 
# From -- ./inp_files/56619.got.cif
#   From: 2010.03.12/outbox.cif.g09.slc.cpg/sg66_29_cif.got.tgz:56619.got - 2010.04.10 21:57:39.
