data_PCOD8276412
_publ_section_title
;
Structure prediction by ZEFSAII (Michael W. Deem and Ramdas Pophale) SiO2 
 PCOD8276412
Probable space group: C C C M
;
_chemical_formula_sum "Si O2"
_cell_formula_units_Z 88
_cell_length_a 5.063050
_cell_length_b 36.839245
_cell_length_c 25.396629
_cell_angle_alpha 90.000000
_cell_angle_beta 90.000000
_cell_angle_gamma 90.000000
_cell_volume 4736.952305
_symmetry_space_group_name_H-M "C C C M"
_symmetry_group_IT_number 66
_symmetry_cell_setting 'orthorhombic'
loop_
_space_group_symop_operation_xyz
x,y,z
-x,-y,z
x,-y,1/2-z
-x,y,1/2-z
-x,-y,-z
x,y,-z
-x,y,1/2+z
x,-y,1/2+z
1/2+x,1/2+y,z
1/2-x,1/2-y,z
1/2+x,1/2-y,1/2-z
1/2-x,1/2+y,1/2-z
1/2-x,1/2-y,-z
1/2+x,1/2+y,-z
1/2-x,1/2+y,1/2+z
1/2+x,1/2-y,1/2+z
loop_
_atom_site_type_symbol
_atom_site_label
_atom_site_fract_x
_atom_site_fract_y
_atom_site_fract_z
Si Si1 0.750000 0.750000 0.216536
Si Si2 0.943256 0.156092 0.871826
Si Si3 0.078028 0.673928 0.689974
Si Si4 0.990787 0.773660 0.439799
Si Si5 0.479618 0.585295 0.438993
Si Si6 0.493721 0.960016 0.060832
O O1 0.500000 0.734956 0.250000
O O2 0.857438 0.716777 0.181697
O O3 0.655122 0.162180 0.848308
O O4 0.029406 0.189742 0.907484
O O5 0.938472 0.120447 0.906832
O O6 0.160092 0.151512 0.825494
O O7 0.000000 0.665816 0.750000
O O8 0.931261 0.784668 0.500000
O O9 0.750000 0.750000 0.416689
O O10 0.250000 0.750000 0.434790
O O11 0.449067 0.596723 0.500000
O O12 0.212012 0.567541 0.415321
O O13 0.704019 0.555419 0.431087
O O14 0.500000 0.000000 0.087602
O O15 0.572880 0.964342 0.000000
#
# Coordination Sequence:
#
# PCOD8276412 Si02
#       6
#     8  16  16  16  16  16
#     4  10  20  38  56  74  95 128 173 234 298 332
#     4  12  23  36  57  78 107 143 180 222 276 329
#     4  11  24  39  55  77 104 134 179 237 285 337
#     4  10  22  38  53  73 102 139 184 223 255 305
#     4  10  20  34  53  82 116 147 180 214 257 318
#     4   9  17  31  53  80 114 150 177 208 255 313
#
# _framework density 18.577345999999999
#
# number of rings (size 3 to 8) (size 9 to 14) (size 15 to 20)
#    0.000    1.636    0.000    6.000    3.818    2.182 
#    0.000    7.273    0.000    0.000    0.000    0.000 
#    0.000   50.909    0.000    0.000    0.000    0.000 
#
# Total GULP energy -545630.209597 kJ/mol
# GULP energy per Si atom -12400.686582 kJ/mol
# Density = 1.853506 g / cm^3
# Si number density = 18.577346 Si / 1000 Ang^3
#
#
#
# Elastic Constant Matrix: (Units=GPa)
#
#
# Indices 1 2 3 4 5 6 
#
# 1 108.9155 22.1636 18.1459 0.0000 0.0000 0.0000
# 2 22.1636 98.7721 39.1297 0.0000 0.0000 0.0000
# 3 18.1459 39.1297 55.9603 0.0000 0.0000 0.0000
# 4 0.0000 0.0000 0.0000 -8.1061 0.0000 0.0000
# 5 0.0000 0.0000 0.0000 0.0000 34.2729 0.0000
# 6 0.0000 0.0000 0.0000 0.0000 0.0000 28.2569
#
#
#
# Elastic Compliance Matrix: (Units=1/GPa)
#
#
# Indices 1 2 3 4 5 6 
#
# 1 0.009826 -0.001304 -0.002274 0.000000 0.000000 0.000000
# 2 -0.001304 0.014176 -0.009490 0.000000 0.000000 0.000000
# 3 -0.002274 -0.009490 0.025243 0.000000 0.000000 0.000000
# 4 0.000000 0.000000 0.000000 -0.123363 0.000000 0.000000
# 5 0.000000 0.000000 0.000000 0.000000 0.029178 0.000000
# 6 0.000000 0.000000 0.000000 0.000000 0.000000 0.035390
#
#
# Mechanical properties :
#
#
# Convention : Reuss Voigt Hill
#
# Bulk Modulus (GPa) = 43.27350 46.94737 45.11043
# Shear Modulus (GPa) = 205.86080 23.16531 114.51306
#
# Velocity S-wave (km/s) = 10.53819 3.53507 7.85971
# Velocity P-wave (km/s) = 13.09257 6.47985 10.32966
#
# Compressibility (1/GPa) = 0.02310883
#
# Stress axis : x y z
#
# Youngs Moduli (GPa) = 101.77425 70.53971 39.61480
#
# Poissons Ratio (x) = 0.09197 0.09010
# Poissons Ratio (y) = 0.13269 0.37594
# Poissons Ratio (z) = 0.23148 0.66942
#
# Static dielectric constant tensor:
#      x y z
#    x 3.683780 0.000000 0.000000 
#    y 0.000000 3.322870 0.000000 
#    z 0.000000 0.000000 3.291670 
# 
# 
# High freq. dielectric constant tensor:
#      x y z
#    x 1.749090 0.000000 0.000000 
#    y 0.000000 1.707020 0.000000 
#    z 0.000000 0.000000 1.689450 
# 
# From -- ./inp_files/54443.got.cif
#   From: 2010.03.12/outbox.cif.g09.slc.cpg/sg66_28_cif.got.tgz:54443.got - 2010.04.10 21:57:39.
