data_PCOD8276059
_publ_section_title
;
Structure prediction by ZEFSAII (Michael W. Deem and Ramdas Pophale) SiO2 
 PCOD8276059
Probable space group: C C C M
;
_chemical_formula_sum "Si O2"
_cell_formula_units_Z 120
_cell_length_a 23.450825
_cell_length_b 11.956243
_cell_length_c 23.089775
_cell_angle_alpha 90.000000
_cell_angle_beta 90.000000
_cell_angle_gamma 90.000000
_cell_volume 6473.997984
_symmetry_space_group_name_H-M "C C C M"
_symmetry_group_IT_number 66
_symmetry_cell_setting 'orthorhombic'
loop_
_space_group_symop_operation_xyz
x,y,z
-x,-y,z
x,-y,1/2-z
-x,y,1/2-z
-x,-y,-z
x,y,-z
-x,y,1/2+z
x,-y,1/2+z
1/2+x,1/2+y,z
1/2-x,1/2-y,z
1/2+x,1/2-y,1/2-z
1/2-x,1/2+y,1/2-z
1/2-x,1/2-y,-z
1/2+x,1/2+y,-z
1/2-x,1/2+y,1/2+z
1/2+x,1/2-y,1/2+z
loop_
_atom_site_type_symbol
_atom_site_label
_atom_site_fract_x
_atom_site_fract_y
_atom_site_fract_z
Si Si1 0.681378 0.068247 0.566158
Si Si2 0.838460 0.148005 0.293853
Si Si3 0.231062 0.123495 0.432871
Si Si4 0.435646 0.990618 0.114130
Si Si5 0.932404 0.682148 0.198838
Si Si6 0.357808 0.590000 0.832147
Si Si7 0.551348 0.231494 0.830275
Si Si8 0.750000 0.250000 0.367245
O O1 0.691946 0.093560 0.500000
O O2 0.703131 0.181841 0.596317
O O3 0.717565 0.959180 0.585163
O O4 0.613988 0.043174 0.574493
O O5 0.874059 0.254639 0.315350
O O6 0.827742 0.145996 0.224381
O O7 0.778231 0.156592 0.325928
O O8 0.871036 0.037905 0.316396
O O9 0.212452 0.104647 0.500000
O O10 0.250000 0.250000 0.422855
O O11 0.178552 0.099196 0.390447
O O12 0.423902 0.859317 0.124478
O O13 0.500000 0.000000 0.087058
O O14 0.432273 0.055593 0.175469
O O15 0.938763 0.679785 0.267229
O O16 0.983269 0.748498 0.165203
O O17 0.418242 0.650854 0.842015
#
# Coordination Sequence:
#
# PCOD8276059 Si02
#       8
#    16  16  16  16  16  16  16   8
#     4  11  23  38  58  81 106 148 196 232 278 333
#     4  10  21  34  55  80 114 139 177 235 277 335
#     4  10  21  37  55  75 107 146 185 225 266 329
#     4  10  19  34  55  81 113 142 182 232 279 326
#     4   9  17  33  52  81 113 146 181 219 277 336
#     4  10  20  36  52  83 110 141 185 224 279 328
#     4   9  18  31  55  80 112 149 180 220 274 339
#     4  12  21  40  56  82 111 148 180 236 286 338
#
# _framework density 18.535686999999999
#
# number of rings (size 3 to 8) (size 9 to 14) (size 15 to 20)
#    0.000    2.000    2.667    1.400    0.933    2.400 
#    0.000    2.667    0.000    0.800    0.000    0.933 
#    0.000    0.000    0.000    0.000    0.000    0.000 
#
# Total GULP energy -743570.709357 kJ/mol
# GULP energy per Si atom -12392.845156 kJ/mol
# Density = 1.849350 g / cm^3
# Si number density = 18.535687 Si / 1000 Ang^3
#
#
#
# Elastic Constant Matrix: (Units=GPa)
#
#
# Indices 1 2 3 4 5 6 
#
# 1 80.2305 25.7307 28.9664 0.0000 0.0000 0.0000
# 2 25.7307 79.8822 16.7124 0.0000 0.0000 0.0000
# 3 28.9664 16.7124 57.5867 0.0000 0.0000 0.0000
# 4 0.0000 0.0000 0.0000 22.1513 0.0000 0.0000
# 5 0.0000 0.0000 0.0000 0.0000 17.5337 0.0000
# 6 0.0000 0.0000 0.0000 0.0000 0.0000 31.6210
#
#
#
# Elastic Compliance Matrix: (Units=1/GPa)
#
#
# Indices 1 2 3 4 5 6 
#
# 1 0.016218 -0.003745 -0.007071 0.000000 0.000000 0.000000
# 2 -0.003745 0.014192 -0.002235 0.000000 0.000000 0.000000
# 3 -0.007071 -0.002235 0.021571 0.000000 0.000000 0.000000
# 4 0.000000 0.000000 0.000000 0.045144 0.000000 0.000000
# 5 0.000000 0.000000 0.000000 0.000000 0.057033 0.000000
# 6 0.000000 0.000000 0.000000 0.000000 0.000000 0.031625
#
#
# Mechanical properties :
#
#
# Convention : Reuss Voigt Hill
#
# Bulk Modulus (GPa) = 38.64117 40.05761 39.34939
# Shear Modulus (GPa) = 22.67468 24.01386 23.34427
#
# Velocity S-wave (km/s) = 3.50136 3.60328 3.55269
# Velocity P-wave (km/s) = 6.10231 6.24255 6.17283
#
# Compressibility (1/GPa) = 0.02587913
#
# Stress axis : x y z
#
# Youngs Moduli (GPa) = 61.66016 70.46105 46.35947
#
# Poissons Ratio (x) = 0.26385 0.32781
# Poissons Ratio (y) = 0.23089 0.10362
# Poissons Ratio (z) = 0.43600 0.15750
#
# Static dielectric constant tensor:
#      x y z
#    x 3.494970 0.000000 0.000000 
#    y 0.000000 3.414170 0.000000 
#    z 0.000000 0.000000 3.240180 
# 
# 
# High freq. dielectric constant tensor:
#      x y z
#    x 1.714800 0.000000 0.000000 
#    y 0.000000 1.722850 0.000000 
#    z 0.000000 0.000000 1.702100 
# 
# From -- ./inp_files/59611.got.cif
#   From: 2010.03.12/outbox.cif.g09.slc.cpg/sg66_30_cif.got.tgz:59611.got - 2010.04.10 21:57:39.
