data_PCOD8276976
_publ_section_title
;
Structure prediction by ZEFSAII (Michael W. Deem and Ramdas Pophale) SiO2 
 PCOD8276976
Probable space group: C C C M
;
_chemical_formula_sum "Si O2"
_cell_formula_units_Z 88
_cell_length_a 18.415417
_cell_length_b 12.346934
_cell_length_c 19.468824
_cell_angle_alpha 90.000000
_cell_angle_beta 90.000000
_cell_angle_gamma 90.000000
_cell_volume 4426.703187
_symmetry_space_group_name_H-M "C C C M"
_symmetry_group_IT_number 66
_symmetry_cell_setting 'orthorhombic'
loop_
_space_group_symop_operation_xyz
x,y,z
-x,-y,z
x,-y,1/2-z
-x,y,1/2-z
-x,-y,-z
x,y,-z
-x,y,1/2+z
x,-y,1/2+z
1/2+x,1/2+y,z
1/2-x,1/2-y,z
1/2+x,1/2-y,1/2-z
1/2-x,1/2+y,1/2-z
1/2-x,1/2-y,-z
1/2+x,1/2+y,-z
1/2-x,1/2+y,1/2+z
1/2+x,1/2-y,1/2+z
loop_
_atom_site_type_symbol
_atom_site_label
_atom_site_fract_x
_atom_site_fract_y
_atom_site_fract_z
Si Si1 0.075217 0.551913 0.581303
Si Si2 0.788976 0.133364 0.000000
Si Si3 0.961782 0.116936 0.000000
Si Si4 0.835919 0.088549 0.697528
Si Si5 0.419691 0.701625 0.422445
Si Si6 0.750000 0.750000 0.720834
Si Si7 0.782234 0.448794 0.867360
O O1 0.082230 0.542191 0.500000
O O2 0.085918 0.676043 0.604838
O O3 0.136583 0.482485 0.617210
O O4 0.000000 0.500000 0.606869
O O5 0.750000 0.250000 0.000000
O O6 0.876309 0.133637 0.000000
O O7 0.765475 0.065926 0.934795
O O8 0.994151 0.175688 0.931511
O O9 0.000000 0.000000 0.000000
O O10 0.885718 0.116616 0.631765
O O11 0.816178 0.200045 0.735376
O O12 0.873145 0.000000 0.750000
O O13 0.758245 0.040930 0.675480
O O14 0.383652 0.688591 0.500000
O O15 0.788856 0.661995 0.673715
#
# Coordination Sequence:
#
# PCOD8276976 Si02
#       7
#    16   8   8  16  16   8  16
#     4  10  21  36  60  92 130 161 201 265 328 382
#     4  12  24  35  65 101 127 164 219 273 325 390
#     4  10  22  39  63  95 137 165 206 276 337 380
#     4  10  21  39  64  90 129 171 216 261 323 391
#     4   9  21  38  64  94 125 168 208 264 325 379
#     4  10  22  39  59  88 130 176 214 264 316 380
#     4  11  22  37  62  94 125 165 216 265 318 384
#
# _framework density 19.879355
#
# number of rings (size 3 to 8) (size 9 to 14) (size 15 to 20)
#    0.545    1.273    1.818    2.182    3.818    0.000 
#    0.000    2.273    0.000   37.091    0.000    0.000 
#    0.000    0.000    0.000    0.000    0.000    0.000 
#
# Total GULP energy -545245.808518 kJ/mol
# GULP energy per Si atom -12391.950194 kJ/mol
# Density = 1.983411 g / cm^3
# Si number density = 19.879355 Si / 1000 Ang^3
#
#
#
# Elastic Constant Matrix: (Units=GPa)
#
#
# Indices 1 2 3 4 5 6 
#
# 1 154.7268 65.7421 57.2345 0.0000 0.0000 0.0000
# 2 65.7421 122.1464 51.3686 0.0000 0.0000 0.0000
# 3 57.2345 51.3686 101.8250 0.0000 0.0000 0.0000
# 4 0.0000 0.0000 0.0000 49.0868 0.0000 0.0000
# 5 0.0000 0.0000 0.0000 0.0000 3.5239 0.0000
# 6 0.0000 0.0000 0.0000 0.0000 0.0000 26.8224
#
#
#
# Elastic Compliance Matrix: (Units=1/GPa)
#
#
# Indices 1 2 3 4 5 6 
#
# 1 0.009222 -0.003533 -0.003401 0.000000 0.000000 0.000000
# 2 -0.003533 0.011745 -0.003939 0.000000 0.000000 0.000000
# 3 -0.003401 -0.003939 0.013720 0.000000 0.000000 0.000000
# 4 0.000000 0.000000 0.000000 0.020372 0.000000 0.000000
# 5 0.000000 0.000000 0.000000 0.000000 0.283777 0.000000
# 6 0.000000 0.000000 0.000000 0.000000 0.000000 0.037282
#
#
# Mechanical properties :
#
#
# Convention : Reuss Voigt Hill
#
# Bulk Modulus (GPa) = 77.28061 80.82095 79.05078
# Shear Modulus (GPa) = 12.43224 29.51016 20.97120
#
# Velocity S-wave (km/s) = 2.50348 3.85705 3.25148
# Velocity P-wave (km/s) = 6.87865 7.78330 7.34491
#
# Compressibility (1/GPa) = 0.01293986
#
# Stress axis : x y z
#
# Youngs Moduli (GPa) = 108.43099 85.14094 72.88699
#
# Poissons Ratio (x) = 0.30083 0.24791
# Poissons Ratio (y) = 0.38312 0.28712
# Poissons Ratio (z) = 0.36881 0.33539
#
# Static dielectric constant tensor:
#      x y z
#    x 3.367740 0.000000 0.000000 
#    y 0.000000 3.905510 0.000000 
#    z 0.000000 0.000000 3.728950 
# 
# 
# High freq. dielectric constant tensor:
#      x y z
#    x 1.754210 0.000000 0.000000 
#    y 0.000000 1.794810 0.000000 
#    z 0.000000 0.000000 1.773140 
# 
# From -- ./inp_files/50975.got.cif
#   From: 2010.03.12/outbox.cif.g09.slc.cpg/sg66_26_cif.got.tgz:50975.got - 2010.04.10 21:57:39.
