data_PCOD8276883
_publ_section_title
;
Structure prediction by ZEFSAII (Michael W. Deem and Ramdas Pophale) SiO2 
 PCOD8276883
Probable space group: C C C M
;
_chemical_formula_sum "Si O2"
_cell_formula_units_Z 40
_cell_length_a 10.106274
_cell_length_b 18.299496
_cell_length_c 9.932609
_cell_angle_alpha 90.000000
_cell_angle_beta 90.000000
_cell_angle_gamma 90.000000
_cell_volume 1836.933934
_symmetry_space_group_name_H-M "C C C M"
_symmetry_group_IT_number 66
_symmetry_cell_setting 'orthorhombic'
loop_
_space_group_symop_operation_xyz
x,y,z
-x,-y,z
x,-y,1/2-z
-x,y,1/2-z
-x,-y,-z
x,y,-z
-x,y,1/2+z
x,-y,1/2+z
1/2+x,1/2+y,z
1/2-x,1/2-y,z
1/2+x,1/2-y,1/2-z
1/2-x,1/2+y,1/2-z
1/2-x,1/2-y,-z
1/2+x,1/2+y,-z
1/2-x,1/2+y,1/2+z
1/2+x,1/2-y,1/2+z
loop_
_atom_site_type_symbol
_atom_site_label
_atom_site_fract_x
_atom_site_fract_y
_atom_site_fract_z
Si Si1 0.898578 0.780233 0.500000
Si Si2 0.743829 0.056688 0.354130
Si Si3 0.643500 0.815299 0.000000
Si Si4 0.000000 0.126742 0.750000
O O1 0.750000 0.750000 0.500000
O O2 0.929107 0.825179 0.635153
O O3 0.994259 0.710564 0.500000
O O4 0.745374 0.016999 0.500000
O O5 0.665912 0.134149 0.366665
O O6 0.893226 0.073500 0.314107
O O7 0.676335 0.000000 0.250000
O O8 0.750000 0.750000 0.000000
#
# Coordination Sequence:
#
# PCOD8276883 Si02
#       4
#     8  16   8   8
#     4  12  28  41  75 113 147 199 256 311 382 433
#     4  10  23  40  72 105 150 195 240 303 376 443
#     4  10  20  49  67 105 150 190 241 319 363 436
#     4  12  23  44  68 112 151 198 252 308 373 444
#
# _framework density 21.775414999999999
#
# number of rings (size 3 to 8) (size 9 to 14) (size 15 to 20)
#    1.200    0.000    6.000    0.600    8.400    1.600 
#    0.000    0.000    0.000    9.600    0.000    0.000 
#    0.000    0.000    0.000    0.000    0.000    0.000 
#
# Total GULP energy -247806.485950 kJ/mol
# GULP energy per Si atom -12390.324298 kJ/mol
# Density = 2.172585 g / cm^3
# Si number density = 21.775415 Si / 1000 Ang^3
#
#
#
# Elastic Constant Matrix: (Units=GPa)
#
#
# Indices 1 2 3 4 5 6 
#
# 1 108.5905 41.4998 29.4251 0.0000 0.0000 0.0000
# 2 41.4998 137.4245 66.4588 0.0000 0.0000 0.0000
# 3 29.4251 66.4588 161.2937 0.0000 0.0000 0.0000
# 4 0.0000 0.0000 0.0000 27.0541 0.0000 0.0000
# 5 0.0000 0.0000 0.0000 0.0000 18.4879 0.0000
# 6 0.0000 0.0000 0.0000 0.0000 0.0000 30.0623
#
#
#
# Elastic Compliance Matrix: (Units=1/GPa)
#
#
# Indices 1 2 3 4 5 6 
#
# 1 0.010484 -0.002799 -0.000759 0.000000 0.000000 0.000000
# 2 -0.002799 0.009835 -0.003542 0.000000 0.000000 0.000000
# 3 -0.000759 -0.003542 0.007798 0.000000 0.000000 0.000000
# 4 0.000000 0.000000 0.000000 0.036963 0.000000 0.000000
# 5 0.000000 0.000000 0.000000 0.000000 0.054089 0.000000
# 6 0.000000 0.000000 0.000000 0.000000 0.000000 0.033264
#
#
# Mechanical properties :
#
#
# Convention : Reuss Voigt Hill
#
# Bulk Modulus (GPa) = 71.85528 75.78623 73.82076
# Shear Modulus (GPa) = 29.19330 33.11585 31.15458
#
# Velocity S-wave (km/s) = 3.66547 3.90396 3.78659
# Velocity P-wave (km/s) = 7.14032 7.42969 7.28644
#
# Compressibility (1/GPa) = 0.01391686
#
# Stress axis : x y z
#
# Youngs Moduli (GPa) = 95.38054 101.68121 128.24286
#
# Poissons Ratio (x) = 0.28459 0.09740
# Poissons Ratio (y) = 0.26695 0.45419
# Poissons Ratio (z) = 0.07244 0.36012
#
# Static dielectric constant tensor:
#      x y z
#    x 3.656570 0.000000 0.000000 
#    y 0.000000 4.053080 0.000000 
#    z 0.000000 0.000000 4.519280 
# 
# 
# High freq. dielectric constant tensor:
#      x y z
#    x 1.838040 0.000000 0.000000 
#    y 0.000000 1.859640 0.000000 
#    z 0.000000 0.000000 1.862900 
# 
# From -- ./inp_files/12867.got.cif
#   From: 2010.03.12/outbox.cif.g09.slc.cpg/sg66_7_cif.got.tgz:12867.got - 2010.04.10 21:57:39.
