data_PCOD8276800
_publ_section_title
;
Structure prediction by ZEFSAII (Michael W. Deem and Ramdas Pophale) SiO2 
 PCOD8276800
Probable space group: C C C M
;
_chemical_formula_sum "Si O2"
_cell_formula_units_Z 64
_cell_length_a 9.731893
_cell_length_b 35.440046
_cell_length_c 10.262908
_cell_angle_alpha 90.000000
_cell_angle_beta 90.000000
_cell_angle_gamma 90.000000
_cell_volume 3539.663993
_symmetry_space_group_name_H-M "C C C M"
_symmetry_group_IT_number 66
_symmetry_cell_setting 'orthorhombic'
loop_
_space_group_symop_operation_xyz
x,y,z
-x,-y,z
x,-y,1/2-z
-x,y,1/2-z
-x,-y,-z
x,y,-z
-x,y,1/2+z
x,-y,1/2+z
1/2+x,1/2+y,z
1/2-x,1/2-y,z
1/2+x,1/2-y,1/2-z
1/2-x,1/2+y,1/2-z
1/2-x,1/2-y,-z
1/2+x,1/2+y,-z
1/2-x,1/2+y,1/2+z
1/2+x,1/2-y,1/2+z
loop_
_atom_site_type_symbol
_atom_site_label
_atom_site_fract_x
_atom_site_fract_y
_atom_site_fract_z
Si Si1 0.144865 0.021756 0.138187
Si Si2 0.152064 0.714807 0.500000
Si Si3 0.333708 0.788617 0.000000
Si Si4 0.881804 0.890445 0.846003
Si Si5 0.158339 0.664235 0.255493
O O1 0.123943 0.064993 0.173960
O O2 0.232600 0.000000 0.250000
O O3 0.223055 0.018403 0.000000
O O4 0.000000 0.000000 0.128206
O O5 0.250000 0.750000 0.500000
O O6 0.190732 0.692334 0.371756
O O7 0.991379 0.725022 0.500000
O O8 0.250000 0.750000 0.000000
O O9 0.296774 0.814573 0.123702
O O10 0.742081 0.873589 0.786701
O O11 0.000000 0.874219 0.750000
O O12 0.905264 0.880141 0.000000
O O13 0.000000 0.651914 0.250000
#
# Coordination Sequence:
#
# PCOD8276800 Si02
#       5
#    16   8   8  16  16
#     4   9  16  30  50  78 113 148 187 234 296 345
#     4  10  20  38  62  80 110 153 187 235 291 348
#     4  10  22  38  60  86 110 147 195 241 285 348
#     4  11  22  35  57  88 120 153 195 249 295 346
#     4  10  22  40  57  82 118 157 191 229 297 355
#
# _framework density 18.080812000000002
#
# number of rings (size 3 to 8) (size 9 to 14) (size 15 to 20)
#    0.000    2.000    3.750    0.750    1.750    2.000 
#    0.000    0.000    0.000    0.750    0.000    3.500 
#    0.000    0.000    0.000    0.000    0.000    0.000 
#
# Total GULP energy -396465.279249 kJ/mol
# GULP energy per Si atom -12389.539977 kJ/mol
# Density = 1.803966 g / cm^3
# Si number density = 18.080812 Si / 1000 Ang^3
#
#
#
# Elastic Constant Matrix: (Units=GPa)
#
#
# Indices 1 2 3 4 5 6 
#
# 1 71.2499 65.1509 46.9224 0.0000 0.0000 0.0000
# 2 65.1509 118.0871 59.6559 0.0000 0.0000 0.0000
# 3 46.9224 59.6559 178.3117 0.0000 0.0000 0.0000
# 4 0.0000 0.0000 0.0000 20.0226 0.0000 0.0000
# 5 0.0000 0.0000 0.0000 0.0000 36.7793 0.0000
# 6 0.0000 0.0000 0.0000 0.0000 0.0000 22.9885
#
#
#
# Elastic Compliance Matrix: (Units=1/GPa)
#
#
# Indices 1 2 3 4 5 6 
#
# 1 0.029429 -0.014831 -0.002782 0.000000 0.000000 0.000000
# 2 -0.014831 0.017665 -0.002007 0.000000 0.000000 0.000000
# 3 -0.002782 -0.002007 0.007012 0.000000 0.000000 0.000000
# 4 0.000000 0.000000 0.000000 0.049943 0.000000 0.000000
# 5 0.000000 0.000000 0.000000 0.000000 0.027189 0.000000
# 6 0.000000 0.000000 0.000000 0.000000 0.000000 0.043500
#
#
# Mechanical properties :
#
#
# Convention : Reuss Voigt Hill
#
# Bulk Modulus (GPa) = 67.27363 79.01190 73.14277
# Shear Modulus (GPa) = 22.83796 29.01937 25.92866
#
# Velocity S-wave (km/s) = 3.55787 4.01057 3.79098
# Velocity P-wave (km/s) = 7.35975 8.07715 7.72678
#
# Compressibility (1/GPa) = 0.01486467
#
# Stress axis : x y z
#
# Youngs Moduli (GPa) = 33.98038 56.60984 142.61550
#
# Poissons Ratio (x) = 0.83957 0.39680
# Poissons Ratio (y) = 0.50396 0.28626
# Poissons Ratio (z) = 0.09454 0.11363
#
# Static dielectric constant tensor:
#      x y z
#    x 3.239500 0.000000 0.000000 
#    y 0.000000 3.262350 0.000000 
#    z 0.000000 0.000000 8.193220 
# 
# 
# High freq. dielectric constant tensor:
#      x y z
#    x 1.659410 0.000000 0.000000 
#    y 0.000000 1.700910 0.000000 
#    z 0.000000 0.000000 1.736640 
# 
# From -- ./inp_files/13609.got.cif
#   From: 2010.03.12/outbox.cif.g09.slc.cpg/sg66_7_cif.got.tgz:13609.got - 2010.04.10 21:57:39.
