data_PCOD8276835
_publ_section_title
;
Structure prediction by ZEFSAII (Michael W. Deem and Ramdas Pophale) SiO2 
 PCOD8276835
Probable space group: C C C M
;
_chemical_formula_sum "Si O2"
_cell_formula_units_Z 80
_cell_length_a 24.728075
_cell_length_b 9.342234
_cell_length_c 17.498014
_cell_angle_alpha 90.000000
_cell_angle_beta 90.000000
_cell_angle_gamma 90.000000
_cell_volume 4042.311806
_symmetry_space_group_name_H-M "C C C M"
_symmetry_group_IT_number 66
_symmetry_cell_setting 'orthorhombic'
loop_
_space_group_symop_operation_xyz
x,y,z
-x,-y,z
x,-y,1/2-z
-x,y,1/2-z
-x,-y,-z
x,y,-z
-x,y,1/2+z
x,-y,1/2+z
1/2+x,1/2+y,z
1/2-x,1/2-y,z
1/2+x,1/2-y,1/2-z
1/2-x,1/2+y,1/2-z
1/2-x,1/2-y,-z
1/2+x,1/2+y,-z
1/2-x,1/2+y,1/2+z
1/2+x,1/2-y,1/2+z
loop_
_atom_site_type_symbol
_atom_site_label
_atom_site_fract_x
_atom_site_fract_y
_atom_site_fract_z
Si Si1 0.306761 0.094617 0.645483
Si Si2 0.701276 0.549374 0.087529
Si Si3 0.116614 0.185794 0.582958
Si Si4 0.440106 0.667628 0.235736
Si Si5 0.663974 0.203979 0.305271
O O1 0.337707 0.191235 0.584216
O O2 0.304341 0.181728 0.725502
O O3 0.246360 0.061137 0.617796
O O4 0.340387 0.947318 0.652104
O O5 0.644395 0.468626 0.093386
O O6 0.698462 0.687431 0.142230
O O7 0.713531 0.596146 0.000000
O O8 0.088075 0.192972 0.500000
O O9 0.071991 0.205913 0.647798
O O10 0.437393 0.500000 0.250000
O O11 0.500000 0.728767 0.250000
O O12 0.397017 0.742583 0.291264
#
# Coordination Sequence:
#
# PCOD8276835 Si02
#       5
#    16  16  16  16  16
#     4  10  22  35  56  84 120 159 192 227 284 350
#     4  11  22  37  57  86 122 158 196 237 282 338
#     4  10  21  38  59  86 118 150 191 238 285 341
#     4  10  20  39  64  85 107 145 196 248 291 340
#     4  10  22  38  55  85 116 153 199 241 281 343
#
# _framework density 19.790655000000001
#
# number of rings (size 3 to 8) (size 9 to 14) (size 15 to 20)
#    0.000    1.800    2.000    1.800    0.000   15.200 
#    0.000   11.000    0.000    1.200    0.000    0.000 
#    0.000    0.000    0.000    0.000    0.000    0.000 
#
# Total GULP energy -496005.450266 kJ/mol
# GULP energy per Si atom -12400.136257 kJ/mol
# Density = 1.974561 g / cm^3
# Si number density = 19.790655 Si / 1000 Ang^3
#
#
#
# Elastic Constant Matrix: (Units=GPa)
#
#
# Indices 1 2 3 4 5 6 
#
# 1 110.2751 22.4750 57.9472 0.0000 0.0000 0.0000
# 2 22.4750 69.3577 41.4243 0.0000 0.0000 0.0000
# 3 57.9472 41.4243 130.1333 0.0000 0.0000 0.0000
# 4 0.0000 0.0000 0.0000 26.4479 0.0000 0.0000
# 5 0.0000 0.0000 0.0000 0.0000 21.5152 0.0000
# 6 0.0000 0.0000 0.0000 0.0000 0.0000 16.9234
#
#
#
# Elastic Compliance Matrix: (Units=1/GPa)
#
#
# Indices 1 2 3 4 5 6 
#
# 1 0.011879 -0.000852 -0.005018 0.000000 0.000000 0.000000
# 2 -0.000852 0.017864 -0.005307 0.000000 0.000000 0.000000
# 3 -0.005018 -0.005307 0.011608 0.000000 0.000000 0.000000
# 4 0.000000 0.000000 0.000000 0.037810 0.000000 0.000000
# 5 0.000000 0.000000 0.000000 0.000000 0.046479 0.000000
# 6 0.000000 0.000000 0.000000 0.000000 0.000000 0.059090
#
#
# Mechanical properties :
#
#
# Convention : Reuss Voigt Hill
#
# Bulk Modulus (GPa) = 52.64205 61.49546 57.06876
# Shear Modulus (GPa) = 23.42837 25.50529 24.46683
#
# Velocity S-wave (km/s) = 3.44439 3.59382 3.51989
# Velocity P-wave (km/s) = 6.51733 6.95422 6.73931
#
# Compressibility (1/GPa) = 0.01899622
#
# Stress axis : x y z
#
# Youngs Moduli (GPa) = 84.18268 55.97931 86.14458
#
# Poissons Ratio (x) = 0.04770 0.43230
# Poissons Ratio (y) = 0.07173 0.45717
# Poissons Ratio (z) = 0.42246 0.29708
#
# Static dielectric constant tensor:
#      x y z
#    x 3.455040 0.000000 0.000000 
#    y 0.000000 3.697290 0.000000 
#    z 0.000000 0.000000 3.711510 
# 
# 
# High freq. dielectric constant tensor:
#      x y z
#    x 1.744880 0.000000 0.000000 
#    y 0.000000 1.780040 0.000000 
#    z 0.000000 0.000000 1.776530 
# 
# From -- ./inp_files/37011.got.cif
#   From: 2010.03.12/outbox.cif.g09.slc.cpg/sg66_19_cif.got.tgz:37011.got - 2010.04.10 21:57:39.
