data_PCOD8276164
_publ_section_title
;
Structure prediction by ZEFSAII (Michael W. Deem and Ramdas Pophale) SiO2 
 PCOD8276164
Probable space group: C C C M
;
_chemical_formula_sum "Si O2"
_cell_formula_units_Z 92
_cell_length_a 24.135870
_cell_length_b 8.686022
_cell_length_c 21.038053
_cell_angle_alpha 90.000000
_cell_angle_beta 90.000000
_cell_angle_gamma 90.000000
_cell_volume 4410.516264
_symmetry_space_group_name_H-M "C C C M"
_symmetry_group_IT_number 66
_symmetry_cell_setting 'orthorhombic'
loop_
_space_group_symop_operation_xyz
x,y,z
-x,-y,z
x,-y,1/2-z
-x,y,1/2-z
-x,-y,-z
x,y,-z
-x,y,1/2+z
x,-y,1/2+z
1/2+x,1/2+y,z
1/2-x,1/2-y,z
1/2+x,1/2-y,1/2-z
1/2-x,1/2+y,1/2-z
1/2-x,1/2-y,-z
1/2+x,1/2+y,-z
1/2-x,1/2+y,1/2+z
1/2+x,1/2-y,1/2+z
loop_
_atom_site_type_symbol
_atom_site_label
_atom_site_fract_x
_atom_site_fract_y
_atom_site_fract_z
Si Si1 0.750000 0.250000 0.868975
Si Si2 0.483669 0.664400 0.427433
Si Si3 0.834582 0.523641 0.572552
Si Si4 0.429963 0.822617 0.849842
Si Si5 0.346910 0.565112 0.179841
Si Si6 0.144645 0.180372 0.072225
Si Si7 0.000000 0.500000 0.750000
O O1 0.779069 0.379811 0.912698
O O2 0.705454 0.322622 0.821538
O O3 0.500000 0.500000 0.396115
O O4 0.501109 0.658135 0.500000
O O5 0.519359 0.800403 0.397628
O O6 0.420234 0.708884 0.416830
O O7 0.852329 0.558036 0.500000
O O8 0.884459 0.566825 0.619218
O O9 0.822818 0.341473 0.581514
O O10 0.402952 0.657550 0.834247
O O11 0.457038 0.894735 0.787850
O O12 0.352049 0.500000 0.250000
O O13 0.335079 0.439230 0.125055
O O14 0.154857 0.116643 0.000000
#
# Coordination Sequence:
#
# PCOD8276164 Si02
#       7
#     8  16  16  16  16  16   4
#     4  10  25  46  64  96 123 174 216 270 336 398
#     4  10  19  35  62  95 129 167 208 258 322 387
#     4  10  22  42  69  98 130 166 215 275 331 388
#     4  11  24  40  63  92 134 173 218 258 318 380
#     4  11  26  44  66  94 125 172 217 274 329 385
#     4  10  22  40  65  99 132 167 215 272 326 385
#     4  12  28  40  60  96 136 184 218 258 304 398
#
# _framework density 20.859237
#
# number of rings (size 3 to 8) (size 9 to 14) (size 15 to 20)
#    0.000    1.565    1.739    1.826    4.870    5.565 
#    3.130    5.217    0.000    0.000    0.000    0.000 
#    0.000    0.000    0.000    0.000    0.000    0.000 
#
# Total GULP energy -570403.319636 kJ/mol
# GULP energy per Si atom -12400.072166 kJ/mol
# Density = 2.081176 g / cm^3
# Si number density = 20.859237 Si / 1000 Ang^3
#
#
#
# Elastic Constant Matrix: (Units=GPa)
#
#
# Indices 1 2 3 4 5 6 
#
# 1 76.9563 29.7645 33.4062 0.0000 0.0000 0.0000
# 2 29.7645 102.4471 45.5115 0.0000 0.0000 0.0000
# 3 33.4062 45.5115 106.6191 0.0000 0.0000 0.0000
# 4 0.0000 0.0000 0.0000 39.9827 0.0000 0.0000
# 5 0.0000 0.0000 0.0000 0.0000 12.1162 0.0000
# 6 0.0000 0.0000 0.0000 0.0000 0.0000 36.7165
#
#
#
# Elastic Compliance Matrix: (Units=1/GPa)
#
#
# Indices 1 2 3 4 5 6 
#
# 1 0.015725 -0.002937 -0.003673 0.000000 0.000000 0.000000
# 2 -0.002937 0.012594 -0.004456 0.000000 0.000000 0.000000
# 3 -0.003673 -0.004456 0.012432 0.000000 0.000000 0.000000
# 4 0.000000 0.000000 0.000000 0.025011 0.000000 0.000000
# 5 0.000000 0.000000 0.000000 0.000000 0.082534 0.000000
# 6 0.000000 0.000000 0.000000 0.000000 0.000000 0.027236
#
#
# Mechanical properties :
#
#
# Convention : Reuss Voigt Hill
#
# Bulk Modulus (GPa) = 53.70809 55.93185 54.81997
# Shear Modulus (GPa) = 24.52554 29.58577 27.05566
#
# Velocity S-wave (km/s) = 3.43266 3.77019 3.60538
# Velocity P-wave (km/s) = 6.44319 6.76939 6.60830
#
# Compressibility (1/GPa) = 0.01861917
#
# Stress axis : x y z
#
# Youngs Moduli (GPa) = 63.59374 79.40448 80.43722
#
# Poissons Ratio (x) = 0.23319 0.29547
# Poissons Ratio (y) = 0.18676 0.35840
# Poissons Ratio (z) = 0.23360 0.35380
#
# Static dielectric constant tensor:
#      x y z
#    x 3.752550 0.000000 0.000000 
#    y 0.000000 4.131370 0.000000 
#    z 0.000000 0.000000 3.673700 
# 
# 
# High freq. dielectric constant tensor:
#      x y z
#    x 1.821820 0.000000 0.000000 
#    y 0.000000 1.824260 0.000000 
#    z 0.000000 0.000000 1.810830 
# 
# From -- ./inp_files/52444.got.cif
#   From: 2010.03.12/outbox.cif.g09.slc.cpg/sg66_27_cif.got.tgz:52444.got - 2010.04.10 21:57:39.
