data_PCOD8276435
_publ_section_title
;
Structure prediction by ZEFSAII (Michael W. Deem and Ramdas Pophale) SiO2 
 PCOD8276435
Probable space group: C C C M
;
_chemical_formula_sum "Si O2"
_cell_formula_units_Z 104
_cell_length_a 26.339304
_cell_length_b 21.432114
_cell_length_c 9.640456
_cell_angle_alpha 90.000000
_cell_angle_beta 90.000000
_cell_angle_gamma 90.000000
_cell_volume 5442.104567
_symmetry_space_group_name_H-M "C C C M"
_symmetry_group_IT_number 66
_symmetry_cell_setting 'orthorhombic'
loop_
_space_group_symop_operation_xyz
x,y,z
-x,-y,z
x,-y,1/2-z
-x,y,1/2-z
-x,-y,-z
x,y,-z
-x,y,1/2+z
x,-y,1/2+z
1/2+x,1/2+y,z
1/2-x,1/2-y,z
1/2+x,1/2-y,1/2-z
1/2-x,1/2+y,1/2-z
1/2-x,1/2-y,-z
1/2+x,1/2+y,-z
1/2-x,1/2+y,1/2+z
1/2+x,1/2-y,1/2+z
loop_
_atom_site_type_symbol
_atom_site_label
_atom_site_fract_x
_atom_site_fract_y
_atom_site_fract_z
Si Si1 0.850470 0.057045 0.155378
Si Si2 0.250000 0.250000 0.753791
Si Si3 0.542379 0.610839 0.347038
Si Si4 0.713861 0.376138 0.350601
Si Si5 0.847404 0.320980 0.841347
Si Si6 0.318442 0.062060 0.837453
Si Si7 0.451866 0.752699 0.161749
O O1 0.910361 0.064723 0.156727
O O2 0.825197 0.117990 0.223361
O O3 0.833216 0.000000 0.250000
O O4 0.829599 0.047975 0.000000
O O5 0.266142 0.305968 0.853453
O O6 0.201546 0.274674 0.665288
O O7 0.500000 0.580609 0.250000
O O8 0.518966 0.613630 0.500000
O O9 0.557265 0.680319 0.298736
O O10 0.687393 0.388488 0.500000
O O11 0.758432 0.426377 0.329901
O O12 0.845299 0.379222 0.736580
O O13 0.899331 0.286143 0.798602
O O14 0.850351 0.345083 0.000000
O O15 0.332145 0.000000 0.750000
O O16 0.335778 0.056319 0.000000
O O17 0.500000 0.778861 0.250000
O O18 0.464626 0.761818 0.000000
#
# Coordination Sequence:
#
# PCOD8276435 Si02
#       7
#    16   8  16  16  16  16  16
#     4  11  23  37  53  74 102 137 179 223 266 315
#     4  10  20  34  56  84 114 142 176 220 270 322
#     4   9  19  35  53  74 100 132 172 218 266 315
#     4  10  21  36  54  77 106 139 175 215 260 313
#     4  10  20  34  55  82 112 145 180 219 266 320
#     4  10  21  36  54  77 106 140 178 217 260 314
#     4   9  18  34  55  80 108 139 177 219 265 319
#
# _framework density 19.110253
#
# number of rings (size 3 to 8) (size 9 to 14) (size 15 to 20)
#    0.000    2.154    0.000    2.769    0.000    8.923 
#    0.000    4.615    0.000    0.462    0.000    3.231 
#    0.000    0.000    0.000    0.000    0.000    0.000 
#
# Total GULP energy -644532.150415 kJ/mol
# GULP energy per Si atom -12394.849046 kJ/mol
# Density = 1.906676 g / cm^3
# Si number density = 19.110253 Si / 1000 Ang^3
#
#
#
# Elastic Constant Matrix: (Units=GPa)
#
#
# Indices 1 2 3 4 5 6 
#
# 1 82.5431 24.6875 46.8541 0.0000 0.0000 0.0000
# 2 24.6875 77.7621 44.7293 0.0000 0.0000 0.0000
# 3 46.8541 44.7293 139.8250 0.0000 0.0000 0.0000
# 4 0.0000 0.0000 0.0000 18.8086 0.0000 0.0000
# 5 0.0000 0.0000 0.0000 0.0000 32.5948 0.0000
# 6 0.0000 0.0000 0.0000 0.0000 0.0000 20.8224
#
#
#
# Elastic Compliance Matrix: (Units=1/GPa)
#
#
# Indices 1 2 3 4 5 6 
#
# 1 0.015300 -0.002339 -0.004379 0.000000 0.000000 0.000000
# 2 -0.002339 0.016117 -0.004372 0.000000 0.000000 0.000000
# 3 -0.004379 -0.004372 0.010018 0.000000 0.000000 0.000000
# 4 0.000000 0.000000 0.000000 0.053167 0.000000 0.000000
# 5 0.000000 0.000000 0.000000 0.000000 0.030680 0.000000
# 6 0.000000 0.000000 0.000000 0.000000 0.000000 0.048025
#
#
# Mechanical properties :
#
#
# Convention : Reuss Voigt Hill
#
# Bulk Modulus (GPa) = 51.93280 59.18577 55.55928
# Shear Modulus (GPa) = 24.76423 26.70245 25.73334
#
# Velocity S-wave (km/s) = 3.60371 3.74208 3.67355
# Velocity P-wave (km/s) = 6.67458 7.05045 6.86509
#
# Compressibility (1/GPa) = 0.01925565
#
# Stress axis : x y z
#
# Youngs Moduli (GPa) = 65.36019 62.04605 99.82356
#
# Poissons Ratio (x) = 0.14510 0.43710
# Poissons Ratio (y) = 0.15285 0.43644
# Poissons Ratio (z) = 0.28619 0.27127
#
# Static dielectric constant tensor:
#      x y z
#    x 3.367370 0.000000 0.000000 
#    y 0.000000 3.366200 0.000000 
#    z 0.000000 0.000000 3.626790 
# 
# 
# High freq. dielectric constant tensor:
#      x y z
#    x 1.723940 0.000000 0.000000 
#    y 0.000000 1.736100 0.000000 
#    z 0.000000 0.000000 1.754640 
# 
# From -- ./inp_files/10380.got.cif
#   From: 2010.03.12/outbox.cif.g09.slc.cpg/sg66_6_cif.got.tgz:10380.got - 2010.04.10 21:57:39.
