data_PCOD8276286
_publ_section_title
;
Structure prediction by ZEFSAII (Michael W. Deem and Ramdas Pophale) SiO2 
 PCOD8276286
Probable space group: C C C M
;
_chemical_formula_sum "Si O2"
_cell_formula_units_Z 96
_cell_length_a 32.316064
_cell_length_b 18.651677
_cell_length_c 9.149051
_cell_angle_alpha 90.000000
_cell_angle_beta 90.000000
_cell_angle_gamma 90.000000
_cell_volume 5514.579398
_symmetry_space_group_name_H-M "C C C M"
_symmetry_group_IT_number 66
_symmetry_cell_setting 'orthorhombic'
loop_
_space_group_symop_operation_xyz
x,y,z
-x,-y,z
x,-y,1/2-z
-x,y,1/2-z
-x,-y,-z
x,y,-z
-x,y,1/2+z
x,-y,1/2+z
1/2+x,1/2+y,z
1/2-x,1/2-y,z
1/2+x,1/2-y,1/2-z
1/2-x,1/2+y,1/2-z
1/2-x,1/2-y,-z
1/2+x,1/2+y,-z
1/2-x,1/2+y,1/2+z
1/2+x,1/2-y,1/2+z
loop_
_atom_site_type_symbol
_atom_site_label
_atom_site_fract_x
_atom_site_fract_y
_atom_site_fract_z
Si Si1 0.243029 0.929292 0.669160
Si Si2 0.884189 0.712222 0.170152
Si Si3 0.042991 0.214967 0.328706
Si Si4 0.664072 0.072526 0.672194
Si Si5 0.590396 0.428694 0.829176
Si Si6 0.661774 0.354373 0.332220
O O1 0.243976 0.948608 0.500000
O O2 0.289077 0.907140 0.721187
O O3 0.210465 0.865516 0.702277
O O4 0.227280 0.000000 0.750000
O O5 0.924589 0.727783 0.265545
O O6 0.865794 0.636573 0.222469
O O7 0.849071 0.771939 0.200526
O O8 0.896614 0.711235 0.000000
O O9 0.038051 0.228603 0.500000
O O10 0.057979 0.134420 0.294650
O O11 0.000000 0.228547 0.250000
O O12 0.661337 0.060792 0.500000
O O13 0.649044 0.000000 0.750000
O O14 0.573742 0.500000 0.750000
O O15 0.635310 0.407517 0.768422
O O16 0.594401 0.443748 0.000000
O O17 0.651604 0.373987 0.500000
#
# Coordination Sequence:
#
# PCOD8276286 Si02
#       6
#    16  16  16  16  16  16
#     4   9  17  28  43  66  96 131 169 205 239 275
#     4   9  18  33  52  73  97 126 160 198 242 290
#     4  10  21  36  54  75  98 125 157 195 240 290
#     4   9  18  32  50  72  98 128 161 198 241 289
#     4  10  20  32  47  69  98 132 168 203 238 277
#     4   9  17  29  46  68  96 131 169 207 242 277
#
# _framework density 17.4084
#
# number of rings (size 3 to 8) (size 9 to 14) (size 15 to 20)
#    0.000    2.667    0.000    1.500    0.000    5.667 
#    0.000    5.000    0.000    0.500    0.000   12.833 
#    0.000    0.000    0.000    0.000    0.000    0.000 
#
# Total GULP energy -595212.612458 kJ/mol
# GULP energy per Si atom -12400.262760 kJ/mol
# Density = 1.736878 g / cm^3
# Si number density = 17.408400 Si / 1000 Ang^3
#
#
#
# Elastic Constant Matrix: (Units=GPa)
#
#
# Indices 1 2 3 4 5 6 
#
# 1 120.7773 79.8852 56.4674 0.0000 0.0000 0.0000
# 2 79.8852 118.6587 51.7275 0.0000 0.0000 0.0000
# 3 56.4674 51.7275 68.6653 0.0000 0.0000 0.0000
# 4 0.0000 0.0000 0.0000 27.6818 0.0000 0.0000
# 5 0.0000 0.0000 0.0000 0.0000 24.5226 0.0000
# 6 0.0000 0.0000 0.0000 0.0000 0.0000 16.8879
#
#
#
# Elastic Compliance Matrix: (Units=1/GPa)
#
#
# Indices 1 2 3 4 5 6 
#
# 1 0.017594 -0.008245 -0.008257 0.000000 0.000000 0.000000
# 2 -0.008245 0.016413 -0.005584 0.000000 0.000000 0.000000
# 3 -0.008257 -0.005584 0.025560 0.000000 0.000000 0.000000
# 4 0.000000 0.000000 0.000000 0.036125 0.000000 0.000000
# 5 0.000000 0.000000 0.000000 0.000000 0.040779 0.000000
# 6 0.000000 0.000000 0.000000 0.000000 0.000000 0.059214
#
#
# Mechanical properties :
#
#
# Convention : Reuss Voigt Hill
#
# Bulk Modulus (GPa) = 64.95760 76.02906 70.49333
# Shear Modulus (GPa) = 20.40929 21.81987 21.11458
#
# Velocity S-wave (km/s) = 3.42772 3.54419 3.48644
# Velocity P-wave (km/s) = 7.28427 7.77927 7.53584
#
# Compressibility (1/GPa) = 0.01539466
#
# Stress axis : x y z
#
# Youngs Moduli (GPa) = 56.83857 60.92904 39.12386
#
# Poissons Ratio (x) = 0.50237 0.32304
# Poissons Ratio (y) = 0.46864 0.21845
# Poissons Ratio (z) = 0.46931 0.34020
#
# Static dielectric constant tensor:
#      x y z
#    x 3.191640 0.000000 0.000000 
#    y 0.000000 3.188480 0.000000 
#    z 0.000000 0.000000 3.239950 
# 
# 
# High freq. dielectric constant tensor:
#      x y z
#    x 1.663670 0.000000 0.000000 
#    y 0.000000 1.659020 0.000000 
#    z 0.000000 0.000000 1.673480 
# 
# From -- ./inp_files/10237.got.cif
#   From: 2010.03.12/outbox.cif.g09.slc.cpg/sg66_6_cif.got.tgz:10237.got - 2010.04.10 21:57:39.
