data_PCOD8276995
_publ_section_title
;
Structure prediction by ZEFSAII (Michael W. Deem and Ramdas Pophale) SiO2 
 PCOD8276995
Probable space group: C C C M
;
_chemical_formula_sum "Si O2"
_cell_formula_units_Z 96
_cell_length_a 23.327976
_cell_length_b 24.026269
_cell_length_c 8.661049
_cell_angle_alpha 90.000000
_cell_angle_beta 90.000000
_cell_angle_gamma 90.000000
_cell_volume 4854.381350
_symmetry_space_group_name_H-M "C C C M"
_symmetry_group_IT_number 66
_symmetry_cell_setting 'orthorhombic'
loop_
_space_group_symop_operation_xyz
x,y,z
-x,-y,z
x,-y,1/2-z
-x,y,1/2-z
-x,-y,-z
x,y,-z
-x,y,1/2+z
x,-y,1/2+z
1/2+x,1/2+y,z
1/2-x,1/2-y,z
1/2+x,1/2-y,1/2-z
1/2-x,1/2+y,1/2-z
1/2-x,1/2-y,-z
1/2+x,1/2+y,-z
1/2-x,1/2+y,1/2+z
1/2+x,1/2-y,1/2+z
loop_
_atom_site_type_symbol
_atom_site_label
_atom_site_fract_x
_atom_site_fract_y
_atom_site_fract_z
Si Si1 0.862449 0.343636 0.681532
Si Si2 0.559823 0.625705 0.323865
Si Si3 0.168730 0.059177 0.320942
Si Si4 0.367704 0.271061 0.683270
Si Si5 0.769575 0.838056 0.819371
Si Si6 0.061672 0.559809 0.816685
O O1 0.871317 0.352009 0.500000
O O2 0.889910 0.285500 0.737438
O O3 0.796367 0.339353 0.731034
O O4 0.891386 0.394856 0.769416
O O5 0.500000 0.610151 0.250000
O O6 0.547629 0.638224 0.500000
O O7 0.601590 0.573104 0.300497
O O8 0.589325 0.681092 0.254286
O O9 0.186612 0.061715 0.500000
O O10 0.206036 0.102297 0.225597
O O11 0.182500 0.000000 0.250000
O O12 0.369017 0.264955 0.500000
O O13 0.303166 0.288174 0.733507
O O14 0.776330 0.827159 0.000000
O O15 0.080625 0.500000 0.750000
O O16 0.000000 0.577722 0.750000
O O17 0.057536 0.555709 0.000000
#
# Coordination Sequence:
#
# PCOD8276995 Si02
#       6
#    16  16  16  16  16  16
#     4  11  23  38  59  88 116 147 190 231 274 334
#     4   9  20  36  54  78 108 144 185 229 277 328
#     4  10  21  37  56  80 110 145 187 232 281 335
#     4  10  21  37  56  82 116 151 188 232 284 336
#     4  10  21  37  57  82 114 150 187 232 283 333
#     4  11  23  42  65  87 115 149 185 229 282 334
#
# _framework density 19.775948
#
# number of rings (size 3 to 8) (size 9 to 14) (size 15 to 20)
#    0.000    1.833    0.000    5.500    0.000   10.333 
#    0.000    3.333    0.000    0.000    0.000    0.000 
#    0.000    0.000    0.000    0.000    0.000    0.000 
#
# Total GULP energy -595290.682353 kJ/mol
# GULP energy per Si atom -12401.889216 kJ/mol
# Density = 1.973094 g / cm^3
# Si number density = 19.775948 Si / 1000 Ang^3
#
#
#
# Elastic Constant Matrix: (Units=GPa)
#
#
# Indices 1 2 3 4 5 6 
#
# 1 44.2038 12.8002 20.8112 0.0000 0.0000 0.0000
# 2 12.8002 106.7658 20.3109 0.0000 0.0000 0.0000
# 3 20.8112 20.3109 74.9035 0.0000 0.0000 0.0000
# 4 0.0000 0.0000 0.0000 18.9066 0.0000 0.0000
# 5 0.0000 0.0000 0.0000 0.0000 31.4529 0.0000
# 6 0.0000 0.0000 0.0000 0.0000 0.0000 21.0670
#
#
#
# Elastic Compliance Matrix: (Units=1/GPa)
#
#
# Indices 1 2 3 4 5 6 
#
# 1 0.026374 -0.001864 -0.006822 0.000000 0.000000 0.000000
# 2 -0.001864 0.010007 -0.002196 0.000000 0.000000 0.000000
# 3 -0.006822 -0.002196 0.015841 0.000000 0.000000 0.000000
# 4 0.000000 0.000000 0.000000 0.052891 0.000000 0.000000
# 5 0.000000 0.000000 0.000000 0.000000 0.031794 0.000000
# 6 0.000000 0.000000 0.000000 0.000000 0.000000 0.047468
#
#
# Mechanical properties :
#
#
# Convention : Reuss Voigt Hill
#
# Bulk Modulus (GPa) = 32.83128 37.07975 34.95551
# Shear Modulus (GPa) = 23.11677 25.74869 24.43273
#
# Velocity S-wave (km/s) = 3.42268 3.61227 3.51875
# Velocity P-wave (km/s) = 5.67955 6.01570 5.85004
#
# Compressibility (1/GPa) = 0.03045876
#
# Stress axis : x y z
#
# Youngs Moduli (GPa) = 37.91578 99.92508 63.12564
#
# Poissons Ratio (x) = 0.18628 0.43066
# Poissons Ratio (y) = 0.07068 0.13861
# Poissons Ratio (z) = 0.25867 0.21941
#
# Static dielectric constant tensor:
#      x y z
#    x 3.786030 0.000000 0.000000 
#    y 0.000000 3.639580 0.000000 
#    z 0.000000 0.000000 3.620200 
# 
# 
# High freq. dielectric constant tensor:
#      x y z
#    x 1.764280 0.000000 0.000000 
#    y 0.000000 1.780160 0.000000 
#    z 0.000000 0.000000 1.780580 
# 
# From -- ./inp_files/9126.got.cif
#   From: 2010.03.12/outbox.cif.g09.slc.cpg/sg66_5_cif.got.tgz:9126.got - 2010.04.10 21:57:39.
