data_PCOD8276373
_publ_section_title
;
Structure prediction by ZEFSAII (Michael W. Deem and Ramdas Pophale) SiO2 
 PCOD8276373
Probable space group: C C C M
;
_chemical_formula_sum "Si O2"
_cell_formula_units_Z 88
_cell_length_a 14.047704
_cell_length_b 22.681654
_cell_length_c 15.335865
_cell_angle_alpha 90.000000
_cell_angle_beta 90.000000
_cell_angle_gamma 90.000000
_cell_volume 4886.392464
_symmetry_space_group_name_H-M "C C C M"
_symmetry_group_IT_number 66
_symmetry_cell_setting 'orthorhombic'
loop_
_space_group_symop_operation_xyz
x,y,z
-x,-y,z
x,-y,1/2-z
-x,y,1/2-z
-x,-y,-z
x,y,-z
-x,y,1/2+z
x,-y,1/2+z
1/2+x,1/2+y,z
1/2-x,1/2-y,z
1/2+x,1/2-y,1/2-z
1/2-x,1/2+y,1/2-z
1/2-x,1/2-y,-z
1/2+x,1/2+y,-z
1/2-x,1/2+y,1/2+z
1/2+x,1/2-y,1/2+z
loop_
_atom_site_type_symbol
_atom_site_label
_atom_site_fract_x
_atom_site_fract_y
_atom_site_fract_z
Si Si1 0.219991 0.181380 0.500000
Si Si2 0.107615 0.497854 0.101844
Si Si3 0.981490 0.781543 0.500000
Si Si4 0.821544 0.617670 0.342417
Si Si5 0.810809 0.371345 0.646168
Si Si6 0.499908 0.804918 0.653207
Si Si7 0.801936 0.186880 0.500000
O O1 0.250000 0.250000 0.500000
O O2 0.105617 0.172380 0.500000
O O3 0.257344 0.149384 0.413818
O O4 0.173691 0.547432 0.146139
O O5 0.157407 0.436547 0.121776
O O6 0.000000 0.500000 0.139865
O O7 0.104537 0.511296 0.000000
O O8 0.964773 0.743403 0.586218
O O9 0.084276 0.810975 0.500000
O O10 0.779049 0.632384 0.247032
O O11 0.930087 0.639388 0.349373
O O12 0.724153 0.350097 0.586275
O O13 0.896258 0.326596 0.624918
O O14 0.500000 0.776906 0.750000
O O15 0.750000 0.250000 0.500000
#
# Coordination Sequence:
#
# PCOD8276373 Si02
#       7
#     8  16   8  16  16  16   8
#     4  12  24  39  59  83 115 157 200 239 291 340
#     4  11  21  33  61  92 124 155 187 232 294 355
#     4  12  24  40  58  78 118 154 200 248 282 330
#     4  11  22  37  58  89 124 155 188 232 289 354
#     4  11  22  37  58  89 124 155 188 232 289 354
#     4  10  20  33  57  89 119 152 189 229 283 348
#     4  12  24  39  59  83 115 157 200 239 291 340
#
# _framework density 18.009195999999999
#
# number of rings (size 3 to 8) (size 9 to 14) (size 15 to 20)
#    0.000    0.909    7.273    0.545    0.000    2.909 
#    0.000    0.000    0.000    2.182    0.000    2.545 
#    0.000    0.000    0.000    0.000    0.000    0.000 
#
# Total GULP energy -545710.149426 kJ/mol
# GULP energy per Si atom -12402.503396 kJ/mol
# Density = 1.796821 g / cm^3
# Si number density = 18.009196 Si / 1000 Ang^3
#
#
#
# Elastic Constant Matrix: (Units=GPa)
#
#
# Indices 1 2 3 4 5 6 
#
# 1 90.2994 32.7582 42.5781 0.0000 0.0000 0.0000
# 2 32.7582 85.3264 42.6119 0.0000 0.0000 0.0000
# 3 42.5781 42.6119 130.2558 0.0000 0.0000 0.0000
# 4 0.0000 0.0000 0.0000 29.9588 0.0000 0.0000
# 5 0.0000 0.0000 0.0000 0.0000 14.8125 0.0000
# 6 0.0000 0.0000 0.0000 0.0000 0.0000 27.2968
#
#
#
# Elastic Compliance Matrix: (Units=1/GPa)
#
#
# Indices 1 2 3 4 5 6 
#
# 1 0.014003 -0.003693 -0.003369 0.000000 0.000000 0.000000
# 2 -0.003693 0.014982 -0.003694 0.000000 0.000000 0.000000
# 3 -0.003369 -0.003694 0.009987 0.000000 0.000000 0.000000
# 4 0.000000 0.000000 0.000000 0.033379 0.000000 0.000000
# 5 0.000000 0.000000 0.000000 0.000000 0.067511 0.000000
# 6 0.000000 0.000000 0.000000 0.000000 0.000000 0.036634
#
#
# Mechanical properties :
#
#
# Convention : Reuss Voigt Hill
#
# Bulk Modulus (GPa) = 57.27625 60.19754 58.73689
# Shear Modulus (GPa) = 24.53039 26.94251 25.73645
#
# Velocity S-wave (km/s) = 3.69467 3.87207 3.78441
# Velocity P-wave (km/s) = 7.07628 7.31362 7.19593
#
# Compressibility (1/GPa) = 0.01745924
#
# Stress axis : x y z
#
# Youngs Moduli (GPa) = 71.41498 66.74462 100.13101
#
# Poissons Ratio (x) = 0.24652 0.33733
# Poissons Ratio (y) = 0.26376 0.36989
# Poissons Ratio (z) = 0.24059 0.24656
#
# Static dielectric constant tensor:
#      x y z
#    x 3.193780 0.000000 0.000000 
#    y 0.000000 3.212920 0.000000 
#    z 0.000000 0.000000 3.643130 
# 
# 
# High freq. dielectric constant tensor:
#      x y z
#    x 1.668350 0.000000 0.000000 
#    y 0.000000 1.686870 0.000000 
#    z 0.000000 0.000000 1.721290 
# 
# From -- ./inp_files/26576.got.cif
#   From: 2010.03.12/outbox.cif.g09.slc.cpg/sg66_14_cif.got.tgz:26576.got - 2010.04.10 21:57:39.
