data_PCOD8276225
_publ_section_title
;
Structure prediction by ZEFSAII (Michael W. Deem and Ramdas Pophale) SiO2 
 PCOD8276225
Probable space group: C C C M
;
_chemical_formula_sum "Si O2"
_cell_formula_units_Z 88
_cell_length_a 26.686137
_cell_length_b 6.753446
_cell_length_c 23.018399
_cell_angle_alpha 90.000000
_cell_angle_beta 90.000000
_cell_angle_gamma 90.000000
_cell_volume 4148.453789
_symmetry_space_group_name_H-M "C C C M"
_symmetry_group_IT_number 66
_symmetry_cell_setting 'orthorhombic'
loop_
_space_group_symop_operation_xyz
x,y,z
-x,-y,z
x,-y,1/2-z
-x,y,1/2-z
-x,-y,-z
x,y,-z
-x,y,1/2+z
x,-y,1/2+z
1/2+x,1/2+y,z
1/2-x,1/2-y,z
1/2+x,1/2-y,1/2-z
1/2-x,1/2+y,1/2-z
1/2-x,1/2-y,-z
1/2+x,1/2+y,-z
1/2-x,1/2+y,1/2+z
1/2+x,1/2-y,1/2+z
loop_
_atom_site_type_symbol
_atom_site_label
_atom_site_fract_x
_atom_site_fract_y
_atom_site_fract_z
Si Si1 0.192914 0.196485 0.500000
Si Si2 0.453586 0.864517 0.877503
Si Si3 0.131950 0.853173 0.500000
Si Si4 0.692743 0.816478 0.626426
Si Si5 0.110971 0.064972 0.315472
Si Si6 0.456676 0.338817 0.500000
Si Si7 0.633057 0.164521 0.380529
O O1 0.250000 0.250000 0.500000
O O2 0.170179 0.275844 0.561187
O O3 0.186643 0.957277 0.500000
O O4 0.440717 0.666119 0.839513
O O5 0.500000 0.000000 0.855768
O O6 0.406556 0.999342 0.864223
O O7 0.462103 0.801241 0.944009
O O8 0.125259 0.706755 0.447580
O O9 0.095576 0.044712 0.500000
O O10 0.750000 0.750000 0.633328
O O11 0.659720 0.702588 0.674648
O O12 0.686426 0.055933 0.634287
O O13 0.102221 0.000000 0.250000
O O14 0.124277 0.864190 0.347475
O O15 0.500000 0.500000 0.500000
#
# Coordination Sequence:
#
# PCOD8276225 Si02
#       7
#     8  16   8  16  16   8  16
#     4  10  19  37  61  96 138 165 214 272 329 405
#     4  11  24  42  67 100 133 168 214 272 334 398
#     4  12  18  37  66  95 132 179 199 271 346 390
#     4  10  22  42  63  98 135 171 225 279 333 397
#     4  11  25  46  66  92 132 177 229 275 321 395
#     4  12  22  38  70 100 138 161 210 269 338 413
#     4  11  22  40  68  92 133 172 216 271 337 391
#
# _framework density 21.212721999999999
#
# number of rings (size 3 to 8) (size 9 to 14) (size 15 to 20)
#    0.000    1.091    3.636    3.545    0.000    3.636 
#    3.273    4.545    0.000    0.000    0.000    0.000 
#    0.000    0.000    0.000    0.000    0.000    0.000 
#
# Total GULP energy -545127.466641 kJ/mol
# GULP energy per Si atom -12389.260605 kJ/mol
# Density = 2.116444 g / cm^3
# Si number density = 21.212722 Si / 1000 Ang^3
#
#
#
# Elastic Constant Matrix: (Units=GPa)
#
#
# Indices 1 2 3 4 5 6 
#
# 1 98.7859 53.0645 33.6770 0.0000 0.0000 0.0000
# 2 53.0645 141.3290 39.7545 0.0000 0.0000 0.0000
# 3 33.6770 39.7545 116.2382 0.0000 0.0000 0.0000
# 4 0.0000 0.0000 0.0000 4.1824 0.0000 0.0000
# 5 0.0000 0.0000 0.0000 0.0000 16.3761 0.0000
# 6 0.0000 0.0000 0.0000 0.0000 0.0000 30.2506
#
#
#
# Elastic Compliance Matrix: (Units=1/GPa)
#
#
# Indices 1 2 3 4 5 6 
#
# 1 0.013242 -0.004307 -0.002364 0.000000 0.000000 0.000000
# 2 -0.004307 0.009230 -0.001909 0.000000 0.000000 0.000000
# 3 -0.002364 -0.001909 0.009941 0.000000 0.000000 0.000000
# 4 0.000000 0.000000 0.000000 0.239095 0.000000 0.000000
# 5 0.000000 0.000000 0.000000 0.000000 0.061065 0.000000
# 6 0.000000 0.000000 0.000000 0.000000 0.000000 0.033057
#
#
# Mechanical properties :
#
#
# Convention : Reuss Voigt Hill
#
# Bulk Modulus (GPa) = 65.55772 67.70503 66.63137
# Shear Modulus (GPa) = 12.89080 25.48562 19.18821
#
# Velocity S-wave (km/s) = 2.46782 3.46993 3.01086
# Velocity P-wave (km/s) = 6.25237 6.93111 6.60047
#
# Compressibility (1/GPa) = 0.01525373
#
# Stress axis : x y z
#
# Youngs Moduli (GPa) = 75.51526 108.34418 100.59742
#
# Poissons Ratio (x) = 0.46667 0.23776
# Poissons Ratio (y) = 0.32526 0.19202
# Poissons Ratio (z) = 0.17848 0.20680
#
# Static dielectric constant tensor:
#      x y z
#    x 3.973070 0.000000 0.000000 
#    y 0.000000 6.433510 0.000000 
#    z 0.000000 0.000000 3.741710 
# 
# 
# High freq. dielectric constant tensor:
#      x y z
#    x 1.824880 0.000000 0.000000 
#    y 0.000000 1.855430 0.000000 
#    z 0.000000 0.000000 1.813910 
# 
# From -- ./inp_files/60430.got.cif
#   From: 2010.03.12/outbox.cif.g09.slc.cpg/sg66_31_cif.got.tgz:60430.got - 2010.04.10 21:57:39.
