data_PCOD8276547
_publ_section_title
;
Structure prediction by ZEFSAII (Michael W. Deem and Ramdas Pophale) SiO2 
 PCOD8276547
Probable space group: C C C M
;
_chemical_formula_sum "Si O2"
_cell_formula_units_Z 72
_cell_length_a 8.358197
_cell_length_b 28.522872
_cell_length_c 15.746616
_cell_angle_alpha 90.000000
_cell_angle_beta 90.000000
_cell_angle_gamma 90.000000
_cell_volume 3753.989840
_symmetry_space_group_name_H-M "C C C M"
_symmetry_group_IT_number 66
_symmetry_cell_setting 'orthorhombic'
loop_
_space_group_symop_operation_xyz
x,y,z
-x,-y,z
x,-y,1/2-z
-x,y,1/2-z
-x,-y,-z
x,y,-z
-x,y,1/2+z
x,-y,1/2+z
1/2+x,1/2+y,z
1/2-x,1/2-y,z
1/2+x,1/2-y,1/2-z
1/2-x,1/2+y,1/2-z
1/2-x,1/2-y,-z
1/2+x,1/2+y,-z
1/2-x,1/2+y,1/2+z
1/2+x,1/2-y,1/2+z
loop_
_atom_site_type_symbol
_atom_site_label
_atom_site_fract_x
_atom_site_fract_y
_atom_site_fract_z
Si Si1 0.102433 0.283554 0.668912
Si Si2 0.898837 0.284812 0.500000
Si Si3 0.377240 0.890448 0.174276
Si Si4 0.434857 0.889493 0.500000
Si Si5 0.819464 0.514898 0.000000
Si Si6 0.676807 0.522140 0.669656
O O1 0.250000 0.250000 0.660240
O O2 0.170042 0.336025 0.682162
O O3 0.000000 0.268143 0.750000
O O4 0.000663 0.276293 0.584082
O O5 0.750000 0.250000 0.500000
O O6 0.845171 0.339394 0.500000
O O7 0.500000 0.904297 0.250000
O O8 0.213122 0.921694 0.177884
O O9 0.458448 0.897998 0.083131
O O10 0.297031 0.928857 0.500000
O O11 0.740193 0.493973 0.918707
O O12 0.000000 0.500000 0.000000
O O13 0.500000 0.500000 0.674846
O O14 0.771639 0.500000 0.750000
#
# Coordination Sequence:
#
# PCOD8276547 Si02
#       6
#    16   8  16   8   8  16
#     4  10  21  39  61  87 116 151 198 246 294 351
#     4  10  21  39  59  85 121 150 192 246 295 353
#     4  10  20  37  61  83 115 157 195 236 286 357
#     4  10  20  35  57  88 107 149 205 228 278 346
#     4  12  21  36  63  83 109 157 200 234 276 350
#     4  11  24  39  55  86 123 148 189 244 295 338
#
# _framework density 19.179594999999999
#
# number of rings (size 3 to 8) (size 9 to 14) (size 15 to 20)
#    0.000    1.556    2.222    2.667    0.000    0.000 
#    8.000    0.000    0.000    0.000    0.000    0.000 
#    0.000    0.000    0.000    0.000    0.000    0.000 
#
# Total GULP energy -445972.605418 kJ/mol
# GULP energy per Si atom -12388.127928 kJ/mol
# Density = 1.913594 g / cm^3
# Si number density = 19.179595 Si / 1000 Ang^3
#
#
#
# Elastic Constant Matrix: (Units=GPa)
#
#
# Indices 1 2 3 4 5 6 
#
# 1 100.9447 82.9535 49.6651 0.0000 0.0000 0.0000
# 2 82.9535 154.1580 44.6575 0.0000 0.0000 0.0000
# 3 49.6651 44.6575 181.3549 0.0000 0.0000 0.0000
# 4 0.0000 0.0000 0.0000 26.5170 0.0000 0.0000
# 5 0.0000 0.0000 0.0000 0.0000 29.9800 0.0000
# 6 0.0000 0.0000 0.0000 0.0000 0.0000 38.8851
#
#
#
# Elastic Compliance Matrix: (Units=1/GPa)
#
#
# Indices 1 2 3 4 5 6 
#
# 1 0.019082 -0.009427 -0.002904 0.000000 0.000000 0.000000
# 2 -0.009427 0.011642 -0.000285 0.000000 0.000000 0.000000
# 3 -0.002904 -0.000285 0.006380 0.000000 0.000000 0.000000
# 4 0.000000 0.000000 0.000000 0.037712 0.000000 0.000000
# 5 0.000000 0.000000 0.000000 0.000000 0.033356 0.000000
# 6 0.000000 0.000000 0.000000 0.000000 0.000000 0.025717
#
#
# Mechanical properties :
#
#
# Convention : Reuss Voigt Hill
#
# Bulk Modulus (GPa) = 84.23940 87.88999 86.06470
# Shear Modulus (GPa) = 30.66019 36.35519 33.50769
#
# Velocity S-wave (km/s) = 4.00257 4.35847 4.18431
# Velocity P-wave (km/s) = 8.08563 8.44113 8.26529
#
# Compressibility (1/GPa) = 0.01187093
#
# Stress axis : x y z
#
# Youngs Moduli (GPa) = 52.40505 85.89496 156.74763
#
# Poissons Ratio (x) = 0.80972 0.45527
# Poissons Ratio (y) = 0.49401 0.04470
# Poissons Ratio (z) = 0.15221 0.02450
#
# Static dielectric constant tensor:
#      x y z
#    x 2.835790 0.000000 0.000000 
#    y 0.000000 3.916250 0.000000 
#    z 0.000000 0.000000 3.856900 
# 
# 
# High freq. dielectric constant tensor:
#      x y z
#    x 1.710250 0.000000 0.000000 
#    y 0.000000 1.760120 0.000000 
#    z 0.000000 0.000000 1.786060 
# 
# From -- ./inp_files/24513.got.cif
#   From: 2010.03.12/outbox.cif.g09.slc.cpg/sg66_13_cif.got.tgz:24513.got - 2010.04.10 21:57:39.
