data_PCOD8276998
_publ_section_title
;
Structure prediction by ZEFSAII (Michael W. Deem and Ramdas Pophale) SiO2 
 PCOD8276998
Probable space group: C C C M
;
_chemical_formula_sum "Si O2"
_cell_formula_units_Z 80
_cell_length_a 9.551462
_cell_length_b 16.880772
_cell_length_c 24.109031
_cell_angle_alpha 90.000000
_cell_angle_beta 90.000000
_cell_angle_gamma 90.000000
_cell_volume 3887.244983
_symmetry_space_group_name_H-M "C C C M"
_symmetry_group_IT_number 66
_symmetry_cell_setting 'orthorhombic'
loop_
_space_group_symop_operation_xyz
x,y,z
-x,-y,z
x,-y,1/2-z
-x,y,1/2-z
-x,-y,-z
x,y,-z
-x,y,1/2+z
x,-y,1/2+z
1/2+x,1/2+y,z
1/2-x,1/2-y,z
1/2+x,1/2-y,1/2-z
1/2-x,1/2+y,1/2-z
1/2-x,1/2-y,-z
1/2+x,1/2+y,-z
1/2-x,1/2+y,1/2+z
1/2+x,1/2-y,1/2+z
loop_
_atom_site_type_symbol
_atom_site_label
_atom_site_fract_x
_atom_site_fract_y
_atom_site_fract_z
Si Si1 0.716228 0.836675 0.063800
Si Si2 0.428050 0.585395 0.638223
Si Si3 0.790408 0.837667 0.637295
Si Si4 0.654673 0.319488 0.260762
Si Si5 0.567428 0.083619 0.063406
O O1 0.750000 0.750000 0.088797
O O2 0.805290 0.906320 0.093267
O O3 0.551467 0.850201 0.071934
O O4 0.760352 0.841446 0.000000
O O5 0.500000 0.500000 0.640444
O O6 0.548126 0.648122 0.621582
O O7 0.359320 0.606046 0.697884
O O8 0.750000 0.750000 0.617596
O O9 0.772489 0.848885 0.703684
O O10 0.694141 0.900700 0.605410
O O11 0.500000 0.283651 0.250000
O O12 0.750000 0.250000 0.287334
O O13 0.500000 0.000000 0.078475
O O14 0.623554 0.084129 0.000000
#
# Coordination Sequence:
#
# PCOD8276998 Si02
#       5
#    16  16  16  16  16
#     4  10  21  37  58  85 117 154 195 237 283 338
#     4  11  22  36  58  85 116 149 187 237 289 340
#     4  10  21  37  57  81 109 146 190 230 276 337
#     4   9  20  37  57  81 110 146 188 233 283 338
#     4  10  21  38  58  82 115 149 183 229 283 334
#
# _framework density 20.58013
#
# number of rings (size 3 to 8) (size 9 to 14) (size 15 to 20)
#    0.000    2.000    0.000    3.000    0.000    8.400 
#    0.000    0.000    0.000    1.200    0.000    0.000 
#    0.000    0.000    0.000    0.000    0.000    0.000 
#
# Total GULP energy -496002.973088 kJ/mol
# GULP energy per Si atom -12400.074327 kJ/mol
# Density = 2.053329 g / cm^3
# Si number density = 20.580130 Si / 1000 Ang^3
#
#
#
# Elastic Constant Matrix: (Units=GPa)
#
#
# Indices 1 2 3 4 5 6 
#
# 1 71.1090 19.7983 53.8209 0.0000 0.0000 0.0000
# 2 19.7983 83.3351 35.8426 0.0000 0.0000 0.0000
# 3 53.8209 35.8426 97.6523 0.0000 0.0000 0.0000
# 4 0.0000 0.0000 0.0000 23.1464 0.0000 0.0000
# 5 0.0000 0.0000 0.0000 0.0000 34.8618 0.0000
# 6 0.0000 0.0000 0.0000 0.0000 0.0000 36.5183
#
#
#
# Elastic Compliance Matrix: (Units=1/GPa)
#
#
# Indices 1 2 3 4 5 6 
#
# 1 0.024128 -0.000015 -0.013293 0.000000 0.000000 0.000000
# 2 -0.000015 0.014249 -0.005222 0.000000 0.000000 0.000000
# 3 -0.013293 -0.005222 0.019483 0.000000 0.000000 0.000000
# 4 0.000000 0.000000 0.000000 0.043203 0.000000 0.000000
# 5 0.000000 0.000000 0.000000 0.000000 0.028685 0.000000
# 6 0.000000 0.000000 0.000000 0.000000 0.000000 0.027384
#
#
# Mechanical properties :
#
#
# Convention : Reuss Voigt Hill
#
# Bulk Modulus (GPa) = 48.07320 52.33556 50.20438
# Shear Modulus (GPa) = 24.86025 28.41430 26.63728
#
# Velocity S-wave (km/s) = 3.47936 3.71976 3.60157
# Velocity P-wave (km/s) = 6.28896 6.62829 6.46085
#
# Compressibility (1/GPa) = 0.02080161
#
# Stress axis : x y z
#
# Youngs Moduli (GPa) = 41.44578 70.17924 51.32632
#
# Poissons Ratio (x) = 0.00105 0.68226
# Poissons Ratio (y) = 0.00062 0.26802
# Poissons Ratio (z) = 0.55092 0.36646
#
# Static dielectric constant tensor:
#      x y z
#    x 3.822110 0.000000 0.000000 
#    y 0.000000 3.672860 0.000000 
#    z 0.000000 0.000000 3.686970 
# 
# 
# High freq. dielectric constant tensor:
#      x y z
#    x 1.808280 0.000000 0.000000 
#    y 0.000000 1.797540 0.000000 
#    z 0.000000 0.000000 1.802410 
# 
# From -- ./inp_files/62391.got.cif
#   From: 2010.03.12/outbox.cif.g09.slc.cpg/sg66_32_cif.got.tgz:62391.got - 2010.04.10 21:57:39.
