data_PCOD8276848
_publ_section_title
;
Structure prediction by ZEFSAII (Michael W. Deem and Ramdas Pophale) SiO2 
 PCOD8276848
Probable space group: C C C M
;
_chemical_formula_sum "Si O2"
_cell_formula_units_Z 104
_cell_length_a 11.387496
_cell_length_b 28.751398
_cell_length_c 15.994938
_cell_angle_alpha 90.000000
_cell_angle_beta 90.000000
_cell_angle_gamma 90.000000
_cell_volume 5236.845544
_symmetry_space_group_name_H-M "C C C M"
_symmetry_group_IT_number 66
_symmetry_cell_setting 'orthorhombic'
loop_
_space_group_symop_operation_xyz
x,y,z
-x,-y,z
x,-y,1/2-z
-x,y,1/2-z
-x,-y,-z
x,y,-z
-x,y,1/2+z
x,-y,1/2+z
1/2+x,1/2+y,z
1/2-x,1/2-y,z
1/2+x,1/2-y,1/2-z
1/2-x,1/2+y,1/2-z
1/2-x,1/2-y,-z
1/2+x,1/2+y,-z
1/2-x,1/2+y,1/2+z
1/2+x,1/2-y,1/2+z
loop_
_atom_site_type_symbol
_atom_site_label
_atom_site_fract_x
_atom_site_fract_y
_atom_site_fract_z
Si Si1 0.652912 0.389769 0.406169
Si Si2 0.743819 0.552625 0.757248
Si Si3 0.733446 0.197305 0.843591
Si Si4 0.990446 0.650309 0.593091
Si Si5 0.920459 0.123210 0.169927
Si Si6 0.500000 0.915997 0.750000
Si Si7 0.710812 0.198705 0.649214
O O1 0.694123 0.399959 0.500000
O O2 0.715455 0.428436 0.349395
O O3 0.510831 0.393224 0.401727
O O4 0.690905 0.338193 0.378196
O O5 0.698354 0.500000 0.750000
O O6 0.675938 0.583379 0.688153
O O7 0.883138 0.553328 0.739807
O O8 0.750000 0.250000 0.873139
O O9 0.636500 0.173432 0.900901
O O10 0.855891 0.170450 0.856966
O O11 0.690407 0.194136 0.748204
O O12 0.000632 0.627867 0.500000
O O13 0.015156 0.613173 0.665301
O O14 0.088656 0.690037 0.602447
O O15 0.000000 0.133981 0.250000
O O16 0.750000 0.250000 0.623214
#
# Coordination Sequence:
#
# PCOD8276848 Si02
#       7
#    16  16  16  16  16   8  16
#     4  11  23  40  64  93 128 162 206 263 312 372
#     4  11  23  43  70  91 117 158 206 257 321 388
#     4  11  22  38  63  90 129 171 214 258 308 365
#     4  12  23  39  65  92 129 171 209 258 314 370
#     4  10  20  40  59  89 120 163 204 250 313 368
#     4  12  21  46  64  96 124 162 206 260 325 374
#     4  11  22  39  64  92 129 174 218 258 300 365
#
# _framework density 19.859283000000001
#
# number of rings (size 3 to 8) (size 9 to 14) (size 15 to 20)
#    0.000    0.923    7.692    0.692    2.154    4.923 
#    0.000    2.308    0.000    1.846    0.000    0.000 
#    0.000    0.000    0.000    0.000    0.000    0.000 
#
# Total GULP energy -644888.591045 kJ/mol
# GULP energy per Si atom -12401.703674 kJ/mol
# Density = 1.981408 g / cm^3
# Si number density = 19.859283 Si / 1000 Ang^3
#
#
#
# Elastic Constant Matrix: (Units=GPa)
#
#
# Indices 1 2 3 4 5 6 
#
# 1 125.9953 39.0831 2.7900 0.0000 0.0000 0.0000
# 2 39.0831 127.4928 31.7490 0.0000 0.0000 0.0000
# 3 2.7900 31.7490 92.8958 0.0000 0.0000 0.0000
# 4 0.0000 0.0000 0.0000 3.4883 0.0000 0.0000
# 5 0.0000 0.0000 0.0000 0.0000 14.4749 0.0000
# 6 0.0000 0.0000 0.0000 0.0000 0.0000 21.9641
#
#
#
# Elastic Compliance Matrix: (Units=1/GPa)
#
#
# Indices 1 2 3 4 5 6 
#
# 1 0.008815 -0.002881 0.000720 0.000000 0.000000 0.000000
# 2 -0.002881 0.009515 -0.003165 0.000000 0.000000 0.000000
# 3 0.000720 -0.003165 0.011825 0.000000 0.000000 0.000000
# 4 0.000000 0.000000 0.000000 0.286671 0.000000 0.000000
# 5 0.000000 0.000000 0.000000 0.000000 0.069085 0.000000
# 6 0.000000 0.000000 0.000000 0.000000 0.000000 0.045529
#
#
# Mechanical properties :
#
#
# Convention : Reuss Voigt Hill
#
# Bulk Modulus (GPa) = 51.27917 54.84759 53.06338
# Shear Modulus (GPa) = 11.14594 26.16959 18.65777
#
# Velocity S-wave (km/s) = 2.37163 3.63402 3.06845
# Velocity P-wave (km/s) = 5.77727 6.72950 6.27149
#
# Compressibility (1/GPa) = 0.01950110
#
# Stress axis : x y z
#
# Youngs Moduli (GPa) = 113.44716 105.09526 84.56675
#
# Poissons Ratio (x) = 0.30283 -0.06089
# Poissons Ratio (y) = 0.32689 0.26769
# Poissons Ratio (z) = -0.08169 0.33267
#
# Static dielectric constant tensor:
#      x y z
#    x 3.967180 0.000000 0.000000 
#    y 0.000000 3.430490 0.000000 
#    z 0.000000 0.000000 3.586170 
# 
# 
# High freq. dielectric constant tensor:
#      x y z
#    x 1.794680 0.000000 0.000000 
#    y 0.000000 1.754320 0.000000 
#    z 0.000000 0.000000 1.761270 
# 
# From -- ./inp_files/39064.got.cif
#   From: 2010.03.12/outbox.cif.g09.slc.cpg/sg66_20_cif.got.tgz:39064.got - 2010.04.10 21:57:39.
