data_PCOD8276043
_publ_section_title
;
Structure prediction by ZEFSAII (Michael W. Deem and Ramdas Pophale) SiO2 
 PCOD8276043
Probable space group: C C C M
;
_chemical_formula_sum "Si O2"
_cell_formula_units_Z 88
_cell_length_a 15.920386
_cell_length_b 15.969946
_cell_length_c 18.650710
_cell_angle_alpha 90.000000
_cell_angle_beta 90.000000
_cell_angle_gamma 90.000000
_cell_volume 4741.900209
_symmetry_space_group_name_H-M "C C C M"
_symmetry_group_IT_number 66
_symmetry_cell_setting 'orthorhombic'
loop_
_space_group_symop_operation_xyz
x,y,z
-x,-y,z
x,-y,1/2-z
-x,y,1/2-z
-x,-y,-z
x,y,-z
-x,y,1/2+z
x,-y,1/2+z
1/2+x,1/2+y,z
1/2-x,1/2-y,z
1/2+x,1/2-y,1/2-z
1/2-x,1/2+y,1/2-z
1/2-x,1/2-y,-z
1/2+x,1/2+y,-z
1/2-x,1/2+y,1/2+z
1/2+x,1/2-y,1/2+z
loop_
_atom_site_type_symbol
_atom_site_label
_atom_site_fract_x
_atom_site_fract_y
_atom_site_fract_z
Si Si1 0.464473 0.819246 0.177481
Si Si2 0.437775 0.069610 0.083313
Si Si3 0.500000 0.659190 0.750000
Si Si4 0.673589 0.586272 0.785819
Si Si5 0.251367 0.988595 0.584276
Si Si6 0.771918 0.341814 0.837966
O O1 0.500000 0.861489 0.250000
O O2 0.532010 0.842281 0.116300
O O3 0.464309 0.717846 0.185596
O O4 0.371783 0.853383 0.163386
O O5 0.344246 0.043183 0.102464
O O6 0.500000 0.000000 0.115606
O O7 0.451013 0.079765 0.000000
O O8 0.574618 0.602267 0.779609
O O9 0.699741 0.500000 0.750000
O O10 0.693883 0.576827 0.870633
O O11 0.729962 0.653919 0.742046
O O12 0.229641 0.981814 0.500000
O O13 0.237262 0.084894 0.609603
O O14 0.750000 0.250000 0.870020
#
# Coordination Sequence:
#
# PCOD8276043 Si02
#       6
#    16  16   8  16  16  16
#     4  10  20  32  55  83 111 142 187 238 286 341
#     4  10  19  34  53  79 119 154 179 217 280 349
#     4  10  21  38  57  80 108 142 192 248 287 326
#     4  10  21  37  61  81 109 151 198 240 282 333
#     4  10  22  37  57  86 119 156 189 228 284 349
#     4  11  19  35  57  85 116 147 192 243 294 334
#
# _framework density 18.557960999999999
#
# number of rings (size 3 to 8) (size 9 to 14) (size 15 to 20)
#    0.545    1.273    3.636    1.364    0.000    0.727 
#    0.000    0.909    0.000   11.455    0.000    0.000 
#    0.000    0.000    0.000    0.000    0.000    0.000 
#
# Total GULP energy -545287.084372 kJ/mol
# GULP energy per Si atom -12392.888281 kJ/mol
# Density = 1.851572 g / cm^3
# Si number density = 18.557961 Si / 1000 Ang^3
#
#
#
# Elastic Constant Matrix: (Units=GPa)
#
#
# Indices 1 2 3 4 5 6 
#
# 1 101.0824 34.1181 56.0403 0.0000 0.0000 0.0000
# 2 34.1181 65.1483 37.2180 0.0000 0.0000 0.0000
# 3 56.0403 37.2180 87.5837 0.0000 0.0000 0.0000
# 4 0.0000 0.0000 0.0000 21.3421 0.0000 0.0000
# 5 0.0000 0.0000 0.0000 0.0000 27.9422 0.0000
# 6 0.0000 0.0000 0.0000 0.0000 0.0000 29.7983
#
#
#
# Elastic Compliance Matrix: (Units=1/GPa)
#
#
# Indices 1 2 3 4 5 6 
#
# 1 0.015855 -0.003312 -0.008737 0.000000 0.000000 0.000000
# 2 -0.003312 0.020962 -0.006789 0.000000 0.000000 0.000000
# 3 -0.008737 -0.006789 0.019893 0.000000 0.000000 0.000000
# 4 0.000000 0.000000 0.000000 0.046856 0.000000 0.000000
# 5 0.000000 0.000000 0.000000 0.000000 0.035788 0.000000
# 6 0.000000 0.000000 0.000000 0.000000 0.000000 0.033559
#
#
# Mechanical properties :
#
#
# Convention : Reuss Voigt Hill
#
# Bulk Modulus (GPa) = 52.53634 56.50749 54.52191
# Shear Modulus (GPa) = 23.04856 24.24570 23.64713
#
# Velocity S-wave (km/s) = 3.52799 3.61845 3.57351
# Velocity P-wave (km/s) = 6.70570 6.92625 6.81687
#
# Compressibility (1/GPa) = 0.01903444
#
# Stress axis : x y z
#
# Youngs Moduli (GPa) = 63.07286 47.70497 50.26870
#
# Poissons Ratio (x) = 0.15798 0.43922
# Poissons Ratio (y) = 0.20887 0.34126
# Poissons Ratio (z) = 0.55109 0.32386
#
# Static dielectric constant tensor:
#      x y z
#    x 3.296940 0.000000 0.000000 
#    y 0.000000 3.364470 0.000000 
#    z 0.000000 0.000000 3.309300 
# 
# 
# High freq. dielectric constant tensor:
#      x y z
#    x 1.722200 0.000000 0.000000 
#    y 0.000000 1.712960 0.000000 
#    z 0.000000 0.000000 1.700780 
# 
# From -- ./inp_files/49849.got.cif
#   From: 2010.03.12/outbox.cif.g09.slc.cpg/sg66_25_cif.got.tgz:49849.got - 2010.04.10 21:57:39.
