data_PCOD8276192
_publ_section_title
;
Structure prediction by ZEFSAII (Michael W. Deem and Ramdas Pophale) SiO2 
 PCOD8276192
Probable space group: C C C M
;
_chemical_formula_sum "Si O2"
_cell_formula_units_Z 120
_cell_length_a 14.427121
_cell_length_b 29.699699
_cell_length_c 14.432964
_cell_angle_alpha 90.000000
_cell_angle_beta 90.000000
_cell_angle_gamma 90.000000
_cell_volume 6184.253029
_symmetry_space_group_name_H-M "C C C M"
_symmetry_group_IT_number 66
_symmetry_cell_setting 'orthorhombic'
loop_
_space_group_symop_operation_xyz
x,y,z
-x,-y,z
x,-y,1/2-z
-x,y,1/2-z
-x,-y,-z
x,y,-z
-x,y,1/2+z
x,-y,1/2+z
1/2+x,1/2+y,z
1/2-x,1/2-y,z
1/2+x,1/2-y,1/2-z
1/2-x,1/2+y,1/2-z
1/2-x,1/2-y,-z
1/2+x,1/2+y,-z
1/2-x,1/2+y,1/2+z
1/2+x,1/2-y,1/2+z
loop_
_atom_site_type_symbol
_atom_site_label
_atom_site_fract_x
_atom_site_fract_y
_atom_site_fract_z
Si Si1 0.530332 0.296115 0.105176
Si Si2 0.325490 0.933676 0.392650
Si Si3 0.520935 0.896906 0.610049
Si Si4 0.313597 0.038456 0.393225
Si Si5 0.301841 0.407086 0.732111
Si Si6 0.736026 0.326332 0.103774
Si Si7 0.000000 0.868538 0.250000
Si Si8 0.067579 0.700873 0.892477
O O1 0.640859 0.299953 0.111231
O O2 0.480668 0.335282 0.163282
O O3 0.512813 0.245347 0.145662
O O4 0.494678 0.301438 0.000000
O O5 0.306770 0.921764 0.500000
O O6 0.420940 0.912738 0.354607
O O7 0.240366 0.912888 0.334691
O O8 0.337253 0.986666 0.377708
O O9 0.523780 0.897063 0.500000
O O10 0.600724 0.931246 0.644348
O O11 0.535168 0.846586 0.651665
O O12 0.290689 0.048483 0.500000
O O13 0.222920 0.049669 0.331309
O O14 0.256783 0.364804 0.680510
O O15 0.412578 0.401212 0.737844
O O16 0.821893 0.292950 0.122608
O O17 0.746673 0.347703 0.000000
O O18 0.043397 0.699701 0.000000
#
# Coordination Sequence:
#
# PCOD8276192 Si02
#       8
#    16  16  16  16  16  16   8  16
#     4   9  18  33  54  78 108 145 181 227 279 321
#     4  10  22  37  54  79 114 150 179 210 262 337
#     4   9  17  32  55  83 115 146 173 209 263 326
#     4  10  19  36  60  84 109 137 175 228 281 327
#     4  11  21  37  57  78 106 142 187 228 276 322
#     4   9  16  30  53  82 110 137 179 232 280 316
#     4  10  24  40  55  78 106 142 187 234 280 326
#     4   9  15  28  53  83 112 140 173 218 268 317
#
# _framework density 19.404121
#
# number of rings (size 3 to 8) (size 9 to 14) (size 15 to 20)
#    0.000    2.400    1.333    1.600    0.000    4.800 
#    2.400    2.667    0.000    1.600    0.000    3.733 
#    0.000    0.000    0.000    0.000    0.000    0.000 
#
# Total GULP energy -743562.254409 kJ/mol
# GULP energy per Si atom -12392.704240 kJ/mol
# Density = 1.935996 g / cm^3
# Si number density = 19.404121 Si / 1000 Ang^3
#
#
#
# Elastic Constant Matrix: (Units=GPa)
#
#
# Indices 1 2 3 4 5 6 
#
# 1 86.8279 38.3393 32.3011 0.0000 0.0000 0.0000
# 2 38.3393 80.8070 28.7457 0.0000 0.0000 0.0000
# 3 32.3011 28.7457 79.2670 0.0000 0.0000 0.0000
# 4 0.0000 0.0000 0.0000 16.4639 0.0000 0.0000
# 5 0.0000 0.0000 0.0000 0.0000 23.2905 0.0000
# 6 0.0000 0.0000 0.0000 0.0000 0.0000 21.4173
#
#
#
# Elastic Compliance Matrix: (Units=1/GPa)
#
#
# Indices 1 2 3 4 5 6 
#
# 1 0.015725 -0.005949 -0.004251 0.000000 0.000000 0.000000
# 2 -0.005949 0.016458 -0.003544 0.000000 0.000000 0.000000
# 3 -0.004251 -0.003544 0.015633 0.000000 0.000000 0.000000
# 4 0.000000 0.000000 0.000000 0.060739 0.000000 0.000000
# 5 0.000000 0.000000 0.000000 0.000000 0.042936 0.000000
# 6 0.000000 0.000000 0.000000 0.000000 0.000000 0.046691
#
#
# Mechanical properties :
#
#
# Convention : Reuss Voigt Hill
#
# Bulk Modulus (GPa) = 49.19106 49.51936 49.35521
# Shear Modulus (GPa) = 21.51032 22.06874 21.78953
#
# Velocity S-wave (km/s) = 3.33309 3.37608 3.35465
# Velocity P-wave (km/s) = 6.34181 6.38535 6.36361
#
# Compressibility (1/GPa) = 0.02032890
#
# Stress axis : x y z
#
# Youngs Moduli (GPa) = 63.59298 60.75907 63.96691
#
# Poissons Ratio (x) = 0.36144 0.27190
# Poissons Ratio (y) = 0.37830 0.22673
# Poissons Ratio (z) = 0.27031 0.21536
#
# Static dielectric constant tensor:
#      x y z
#    x 3.344310 0.000000 0.000000 
#    y 0.000000 3.767020 0.000000 
#    z 0.000000 0.000000 3.506130 
# 
# 
# High freq. dielectric constant tensor:
#      x y z
#    x 1.726610 0.000000 0.000000 
#    y 0.000000 1.760830 0.000000 
#    z 0.000000 0.000000 1.748440 
# 
# From -- ./inp_files/29052.got.cif
#   From: 2010.03.12/outbox.cif.g09.slc.cpg/sg66_15_cif.got.tgz:29052.got - 2010.04.10 21:57:39.
