data_PCOD8276106
_publ_section_title
;
Structure prediction by ZEFSAII (Michael W. Deem and Ramdas Pophale) SiO2 
 PCOD8276106
Probable space group: C C C M
;
_chemical_formula_sum "Si O2"
_cell_formula_units_Z 88
_cell_length_a 17.821475
_cell_length_b 15.144733
_cell_length_c 17.962925
_cell_angle_alpha 90.000000
_cell_angle_beta 90.000000
_cell_angle_gamma 90.000000
_cell_volume 4848.220052
_symmetry_space_group_name_H-M "C C C M"
_symmetry_group_IT_number 66
_symmetry_cell_setting 'orthorhombic'
loop_
_space_group_symop_operation_xyz
x,y,z
-x,-y,z
x,-y,1/2-z
-x,y,1/2-z
-x,-y,-z
x,y,-z
-x,y,1/2+z
x,-y,1/2+z
1/2+x,1/2+y,z
1/2-x,1/2-y,z
1/2+x,1/2-y,1/2-z
1/2-x,1/2+y,1/2-z
1/2-x,1/2-y,-z
1/2+x,1/2+y,-z
1/2-x,1/2+y,1/2+z
1/2+x,1/2-y,1/2+z
loop_
_atom_site_type_symbol
_atom_site_label
_atom_site_fract_x
_atom_site_fract_y
_atom_site_fract_z
Si Si1 0.375222 0.163747 0.086249
Si Si2 0.727292 0.587959 0.289796
Si Si3 0.455766 0.171438 0.415237
Si Si4 0.113142 0.480692 0.330964
Si Si5 0.327183 0.303231 0.414714
Si Si6 0.750000 0.250000 0.681067
O O1 0.458969 0.203840 0.094616
O O2 0.320658 0.229984 0.128713
O O3 0.369610 0.067110 0.121472
O O4 0.351872 0.156985 0.000000
O O5 0.695540 0.500000 0.250000
O O6 0.810082 0.572881 0.321397
O O7 0.674779 0.612149 0.360312
O O8 0.727787 0.667122 0.231099
O O9 0.436000 0.148915 0.500000
O O10 0.447817 0.080146 0.371048
O O11 0.397931 0.245563 0.387191
O O12 0.079035 0.500000 0.250000
O O13 0.337074 0.334711 0.500000
O O14 0.250000 0.250000 0.404323
#
# Coordination Sequence:
#
# PCOD8276106 Si02
#       6
#    16  16  16  16  16   8
#     4  11  24  38  57  85 118 157 193 234 292 353
#     4  11  21  38  58  88 119 152 193 245 281 336
#     4  10  21  37  57  87 121 148 189 245 290 344
#     4  11  20  36  54  87 123 151 183 233 298 358
#     4  10  19  34  60  85 113 154 194 232 285 343
#     4  12  21  42  59  78 118 162 198 234 285 344
#
# _framework density 18.150991999999999
#
# number of rings (size 3 to 8) (size 9 to 14) (size 15 to 20)
#    0.000    1.273    6.364    1.364    0.000    3.636 
#    0.000    0.000    0.000    2.182    0.000    3.818 
#    0.000    0.000    0.000    0.000    0.000    0.000 
#
# Total GULP energy -545661.883119 kJ/mol
# GULP energy per Si atom -12401.406435 kJ/mol
# Density = 1.810968 g / cm^3
# Si number density = 18.150992 Si / 1000 Ang^3
#
#
#
# Elastic Constant Matrix: (Units=GPa)
#
#
# Indices 1 2 3 4 5 6 
#
# 1 91.9992 45.2596 45.8614 0.0000 0.0000 0.0000
# 2 45.2596 111.0841 64.7606 0.0000 0.0000 0.0000
# 3 45.8614 64.7606 112.0656 0.0000 0.0000 0.0000
# 4 0.0000 0.0000 0.0000 44.1084 0.0000 0.0000
# 5 0.0000 0.0000 0.0000 0.0000 22.4852 0.0000
# 6 0.0000 0.0000 0.0000 0.0000 0.0000 24.0134
#
#
#
# Elastic Compliance Matrix: (Units=1/GPa)
#
#
# Indices 1 2 3 4 5 6 
#
# 1 0.014608 -0.003720 -0.003829 0.000000 0.000000 0.000000
# 2 -0.003720 0.014523 -0.006870 0.000000 0.000000 0.000000
# 3 -0.003829 -0.006870 0.014460 0.000000 0.000000 0.000000
# 4 0.000000 0.000000 0.000000 0.022671 0.000000 0.000000
# 5 0.000000 0.000000 0.000000 0.000000 0.044474 0.000000
# 6 0.000000 0.000000 0.000000 0.000000 0.000000 0.041643
#
#
# Mechanical properties :
#
#
# Convention : Reuss Voigt Hill
#
# Bulk Modulus (GPa) = 67.77758 69.65688 68.71723
# Shear Modulus (GPa) = 26.86210 28.73922 27.80066
#
# Velocity S-wave (km/s) = 3.85115 3.98344 3.91785
# Velocity P-wave (km/s) = 7.56288 7.72119 7.64244
#
# Compressibility (1/GPa) = 0.01475414
#
# Stress axis : x y z
#
# Youngs Moduli (GPa) = 68.45460 68.85573 69.15453
#
# Poissons Ratio (x) = 0.25614 0.26476
# Poissons Ratio (y) = 0.25464 0.47511
# Poissons Ratio (z) = 0.26208 0.47306
#
# Static dielectric constant tensor:
#      x y z
#    x 3.359490 0.000000 0.000000 
#    y 0.000000 3.306660 0.000000 
#    z 0.000000 0.000000 3.668800 
# 
# 
# High freq. dielectric constant tensor:
#      x y z
#    x 1.692990 0.000000 0.000000 
#    y 0.000000 1.686050 0.000000 
#    z 0.000000 0.000000 1.723840 
# 
# From -- ./inp_files/40312.got.cif
#   From: 2010.03.12/outbox.cif.g09.slc.cpg/sg66_21_cif.got.tgz:40312.got - 2010.04.10 21:57:39.
