data_PCOD8276923
_publ_section_title
;
Structure prediction by ZEFSAII (Michael W. Deem and Ramdas Pophale) SiO2 
 PCOD8276923
Probable space group: C C C M
;
_chemical_formula_sum "Si O2"
_cell_formula_units_Z 80
_cell_length_a 17.972714
_cell_length_b 16.873480
_cell_length_c 13.812536
_cell_angle_alpha 90.000000
_cell_angle_beta 90.000000
_cell_angle_gamma 90.000000
_cell_volume 4188.820472
_symmetry_space_group_name_H-M "C C C M"
_symmetry_group_IT_number 66
_symmetry_cell_setting 'orthorhombic'
loop_
_space_group_symop_operation_xyz
x,y,z
-x,-y,z
x,-y,1/2-z
-x,y,1/2-z
-x,-y,-z
x,y,-z
-x,y,1/2+z
x,-y,1/2+z
1/2+x,1/2+y,z
1/2-x,1/2-y,z
1/2+x,1/2-y,1/2-z
1/2-x,1/2+y,1/2-z
1/2-x,1/2-y,-z
1/2+x,1/2+y,-z
1/2-x,1/2+y,1/2+z
1/2+x,1/2-y,1/2+z
loop_
_atom_site_type_symbol
_atom_site_label
_atom_site_fract_x
_atom_site_fract_y
_atom_site_fract_z
Si Si1 0.348405 0.121910 0.231204
Si Si2 0.080424 0.224300 0.705051
Si Si3 0.692488 0.583166 0.704283
Si Si4 0.627853 0.765229 0.500000
Si Si5 0.240867 0.121314 0.500000
Si Si6 0.587125 0.992713 0.390062
O O1 0.375713 0.212220 0.229464
O O2 0.259107 0.121893 0.234038
O O3 0.381361 0.076920 0.324190
O O4 0.375467 0.077096 0.135069
O O5 0.121922 0.140477 0.707992
O O6 0.075861 0.257623 0.594985
O O7 0.000000 0.210832 0.750000
O O8 0.667780 0.500000 0.750000
O O9 0.722877 0.569164 0.594937
O O10 0.673686 0.847816 0.500000
O O11 0.688052 0.696670 0.500000
O O12 0.606807 0.971812 0.500000
O O13 0.500000 0.000000 0.371976
#
# Coordination Sequence:
#
# PCOD8276923 Si02
#       6
#    16  16  16   8   8  16
#     4  11  20  36  58  87 116 154 198 241 296 352
#     4  11  23  39  61  89 122 154 200 249 301 352
#     4  11  22  38  63  90 118 155 199 252 298 350
#     4   9  18  36  65  88 111 148 201 257 292 333
#     4   9  18  36  63  92 109 144 207 255 288 339
#     4  10  21  35  55  86 123 157 190 237 300 363
#
# _framework density 19.098455999999999
#
# number of rings (size 3 to 8) (size 9 to 14) (size 15 to 20)
#    0.000    1.600    4.000    3.000    2.800    0.400 
#    1.800    1.000    0.000    4.800    0.000    0.000 
#    0.000    0.000    0.000    0.000    0.000    0.000 
#
# Total GULP energy -495975.591863 kJ/mol
# GULP energy per Si atom -12399.389797 kJ/mol
# Density = 1.905499 g / cm^3
# Si number density = 19.098456 Si / 1000 Ang^3
#
#
#
# Elastic Constant Matrix: (Units=GPa)
#
#
# Indices 1 2 3 4 5 6 
#
# 1 103.3777 37.4310 41.7481 0.0000 0.0000 0.0000
# 2 37.4310 106.2627 24.8572 0.0000 0.0000 0.0000
# 3 41.7481 24.8572 54.6813 0.0000 0.0000 0.0000
# 4 0.0000 0.0000 0.0000 27.0191 0.0000 0.0000
# 5 0.0000 0.0000 0.0000 0.0000 28.2145 0.0000
# 6 0.0000 0.0000 0.0000 0.0000 0.0000 22.3391
#
#
#
# Elastic Compliance Matrix: (Units=1/GPa)
#
#
# Indices 1 2 3 4 5 6 
#
# 1 0.014724 -0.002861 -0.009941 0.000000 0.000000 0.000000
# 2 -0.002861 0.011086 -0.002855 0.000000 0.000000 0.000000
# 3 -0.009941 -0.002855 0.027175 0.000000 0.000000 0.000000
# 4 0.000000 0.000000 0.000000 0.037011 0.000000 0.000000
# 5 0.000000 0.000000 0.000000 0.000000 0.035443 0.000000
# 6 0.000000 0.000000 0.000000 0.000000 0.000000 0.044765
#
#
# Mechanical properties :
#
#
# Convention : Reuss Voigt Hill
#
# Bulk Modulus (GPa) = 46.14409 52.48825 49.31617
# Shear Modulus (GPa) = 23.95313 26.20024 25.07669
#
# Velocity S-wave (km/s) = 3.54530 3.70787 3.62750
# Velocity P-wave (km/s) = 6.40097 6.77301 6.58962
#
# Compressibility (1/GPa) = 0.02167125
#
# Stress axis : x y z
#
# Youngs Moduli (GPa) = 67.91821 90.20092 36.79830
#
# Poissons Ratio (x) = 0.25807 0.36580
# Poissons Ratio (y) = 0.19432 0.10507
# Poissons Ratio (z) = 0.67515 0.25755
#
# Static dielectric constant tensor:
#      x y z
#    x 3.474160 0.000000 0.000000 
#    y 0.000000 3.436540 0.000000 
#    z 0.000000 0.000000 3.711490 
# 
# 
# High freq. dielectric constant tensor:
#      x y z
#    x 1.737790 0.000000 0.000000 
#    y 0.000000 1.738610 0.000000 
#    z 0.000000 0.000000 1.736660 
# 
# From -- ./inp_files/29994.got.cif
#   From: 2010.03.12/outbox.cif.g09.slc.cpg/sg66_15_cif.got.tgz:29994.got - 2010.04.10 21:57:39.
