data_PCOD8276682
_publ_section_title
;
Structure prediction by ZEFSAII (Michael W. Deem and Ramdas Pophale) SiO2 
 PCOD8276682
Probable space group: C C C M
;
_chemical_formula_sum "Si O2"
_cell_formula_units_Z 64
_cell_length_a 20.880471
_cell_length_b 9.029261
_cell_length_c 15.828004
_cell_angle_alpha 90.000000
_cell_angle_beta 90.000000
_cell_angle_gamma 90.000000
_cell_volume 2984.136255
_symmetry_space_group_name_H-M "C C C M"
_symmetry_group_IT_number 66
_symmetry_cell_setting 'orthorhombic'
loop_
_space_group_symop_operation_xyz
x,y,z
-x,-y,z
x,-y,1/2-z
-x,y,1/2-z
-x,-y,-z
x,y,-z
-x,y,1/2+z
x,-y,1/2+z
1/2+x,1/2+y,z
1/2-x,1/2-y,z
1/2+x,1/2-y,1/2-z
1/2-x,1/2+y,1/2-z
1/2-x,1/2-y,-z
1/2+x,1/2+y,-z
1/2-x,1/2+y,1/2+z
1/2+x,1/2-y,1/2+z
loop_
_atom_site_type_symbol
_atom_site_label
_atom_site_fract_x
_atom_site_fract_y
_atom_site_fract_z
Si Si1 0.940226 0.606088 0.900682
Si Si2 0.437873 0.571286 0.342269
Si Si3 0.323313 0.085265 0.399632
Si Si4 0.817241 0.087687 0.902209
O O1 0.947530 0.752879 0.844173
O O2 0.876854 0.525729 0.864421
O O3 0.000000 0.500000 0.883701
O O4 0.935652 0.648153 0.000000
O O5 0.500000 0.500000 0.389035
O O6 0.434136 0.500000 0.250000
O O7 0.371262 0.534446 0.387815
O O8 0.330143 0.082411 0.500000
O O9 0.252419 0.034327 0.367726
O O10 0.336664 0.251813 0.364204
O O11 0.806541 0.113763 0.000000
#
# Coordination Sequence:
#
# PCOD8276682 Si02
#       4
#    16  16  16  16
#     4  10  20  36  62  91 114 143 189 241 290 341
#     4  11  24  39  52  76 115 152 190 233 283 342
#     4   8  16  32  56  87 115 140 179 233 285 327
#     4   9  17  34  59  82 111 149 186 228 278 334
#
# _framework density 21.446740999999999
#
# number of rings (size 3 to 8) (size 9 to 14) (size 15 to 20)
#    0.000    2.500    0.000    3.750    0.000    5.000 
#    0.000   17.500    0.000    0.000    0.000    0.000 
#    0.000    0.000    0.000    0.000    0.000    0.000 
#
# Total GULP energy -396557.796275 kJ/mol
# GULP energy per Si atom -12392.431134 kJ/mol
# Density = 2.139793 g / cm^3
# Si number density = 21.446741 Si / 1000 Ang^3
#
#
#
# Elastic Constant Matrix: (Units=GPa)
#
#
# Indices 1 2 3 4 5 6 
#
# 1 189.7005 95.1202 13.4006 0.0000 0.0000 0.0000
# 2 95.1202 169.0381 30.5240 0.0000 0.0000 0.0000
# 3 13.4006 30.5240 30.0293 0.0000 0.0000 0.0000
# 4 0.0000 0.0000 0.0000 26.4538 0.0000 0.0000
# 5 0.0000 0.0000 0.0000 0.0000 1.4708 0.0000
# 6 0.0000 0.0000 0.0000 0.0000 0.0000 46.5896
#
#
#
# Elastic Compliance Matrix: (Units=1/GPa)
#
#
# Indices 1 2 3 4 5 6 
#
# 1 0.007375 -0.004355 0.001136 0.000000 0.000000 0.000000
# 2 -0.004355 0.009818 -0.008036 0.000000 0.000000 0.000000
# 3 0.001136 -0.008036 0.040962 0.000000 0.000000 0.000000
# 4 0.000000 0.000000 0.000000 0.037802 0.000000 0.000000
# 5 0.000000 0.000000 0.000000 0.000000 0.679903 0.000000
# 6 0.000000 0.000000 0.000000 0.000000 0.000000 0.021464
#
#
# Mechanical properties :
#
#
# Convention : Reuss Voigt Hill
#
# Bulk Modulus (GPa) = 28.05491 74.09530 51.07510
# Shear Modulus (GPa) = 6.01168 31.55105 18.78136
#
# Velocity S-wave (km/s) = 1.67605 3.83970 2.96247
# Velocity P-wave (km/s) = 4.10550 7.36758 5.96391
#
# Compressibility (1/GPa) = 0.03564438
#
# Stress axis : x y z
#
# Youngs Moduli (GPa) = 135.59354 101.85815 24.41274
#
# Poissons Ratio (x) = 0.44360 -0.02773
# Poissons Ratio (y) = 0.59052 0.19618
# Poissons Ratio (z) = -0.15400 0.81852
#
# Static dielectric constant tensor:
#      x y z
#    x 4.581090 0.000000 0.000000 
#    y 0.000000 3.912450 0.000000 
#    z 0.000000 0.000000 3.299410 
# 
# 
# High freq. dielectric constant tensor:
#      x y z
#    x 1.867200 0.000000 0.000000 
#    y 0.000000 1.838380 0.000000 
#    z 0.000000 0.000000 1.792260 
# 
# From -- ./inp_files/31890.got.cif
#   From: 2010.03.12/outbox.cif.g09.slc.cpg/sg66_16_cif.got.tgz:31890.got - 2010.04.10 21:57:39.
