data_PCOD8276821
_publ_section_title
;
Structure prediction by ZEFSAII (Michael W. Deem and Ramdas Pophale) SiO2 
 PCOD8276821
Probable space group: C C C M
;
_chemical_formula_sum "Si O2"
_cell_formula_units_Z 52
_cell_length_a 10.480845
_cell_length_b 24.866224
_cell_length_c 9.443707
_cell_angle_alpha 90.000000
_cell_angle_beta 90.000000
_cell_angle_gamma 90.000000
_cell_volume 2461.209847
_symmetry_space_group_name_H-M "C C C M"
_symmetry_group_IT_number 66
_symmetry_cell_setting 'orthorhombic'
loop_
_space_group_symop_operation_xyz
x,y,z
-x,-y,z
x,-y,1/2-z
-x,y,1/2-z
-x,-y,-z
x,y,-z
-x,y,1/2+z
x,-y,1/2+z
1/2+x,1/2+y,z
1/2-x,1/2-y,z
1/2+x,1/2-y,1/2-z
1/2-x,1/2+y,1/2-z
1/2-x,1/2-y,-z
1/2+x,1/2+y,-z
1/2-x,1/2+y,1/2+z
1/2+x,1/2-y,1/2+z
loop_
_atom_site_type_symbol
_atom_site_label
_atom_site_fract_x
_atom_site_fract_y
_atom_site_fract_z
Si Si1 0.048427 0.256314 0.000000
Si Si2 0.062475 0.430052 0.500000
Si Si3 0.133865 0.829720 0.276792
Si Si4 0.207874 0.318479 0.500000
Si Si5 0.689473 0.868582 0.000000
Si Si6 0.500000 0.000000 0.750000
O O1 0.092837 0.223993 0.137914
O O2 0.121743 0.311641 0.000000
O O3 0.897581 0.271105 0.000000
O O4 0.147845 0.377598 0.500000
O O5 0.088048 0.463614 0.355320
O O6 0.911082 0.416588 0.500000
O O7 0.222906 0.871423 0.360800
O O8 0.000000 0.860824 0.250000
O O9 0.202530 0.811094 0.134873
#
# Coordination Sequence:
#
# PCOD8276821 Si02
#       6
#     8   8  16   8   8   4
#     4  10  25  36  54  80 118 164 216 254 283 332
#     4  10  21  40  66  95 119 146 184 256 320 374
#     4  11  23  37  55  82 119 172 211 250 275 343
#     4  11  24  40  61  85 124 167 205 248 309 339
#     4  10  22  40  53  83 123 156 196 251 307 347
#     4  10  20  38  68 102 114 130 192 250 332 384
#
# _framework density 21.127821000000001
#
# number of rings (size 3 to 8) (size 9 to 14) (size 15 to 20)
#    0.000    1.538    0.000    5.538    8.615    3.692 
#    0.000    0.000    0.000    0.000    0.000   75.385 
#    0.000    0.000    0.000    0.000    0.000    0.000 
#
# Total GULP energy -322277.073309 kJ/mol
# GULP energy per Si atom -12395.272050 kJ/mol
# Density = 2.107973 g / cm^3
# Si number density = 21.127821 Si / 1000 Ang^3
#
#
#
# Elastic Constant Matrix: (Units=GPa)
#
#
# Indices 1 2 3 4 5 6 
#
# 1 152.3907 29.2004 71.0375 0.0000 0.0000 0.0000
# 2 29.2004 91.1651 47.2223 0.0000 0.0000 0.0000
# 3 71.0375 47.2223 188.4773 0.0000 0.0000 0.0000
# 4 0.0000 0.0000 0.0000 20.4842 0.0000 0.0000
# 5 0.0000 0.0000 0.0000 0.0000 39.3905 0.0000
# 6 0.0000 0.0000 0.0000 0.0000 0.0000 18.9134
#
#
#
# Elastic Compliance Matrix: (Units=1/GPa)
#
#
# Indices 1 2 3 4 5 6 
#
# 1 0.008066 -0.001159 -0.002750 0.000000 0.000000 0.000000
# 2 -0.001159 0.012772 -0.002763 0.000000 0.000000 0.000000
# 3 -0.002750 -0.002763 0.007034 0.000000 0.000000 0.000000
# 4 0.000000 0.000000 0.000000 0.048818 0.000000 0.000000
# 5 0.000000 0.000000 0.000000 0.000000 0.025387 0.000000
# 6 0.000000 0.000000 0.000000 0.000000 0.000000 0.052873
#
#
# Mechanical properties :
#
#
# Convention : Reuss Voigt Hill
#
# Bulk Modulus (GPa) = 68.83197 80.77259 74.80228
# Shear Modulus (GPa) = 28.87909 34.72916 31.80413
#
# Velocity S-wave (km/s) = 3.70114 4.05873 3.88405
# Velocity P-wave (km/s) = 7.13541 7.76388 7.45627
#
# Compressibility (1/GPa) = 0.01452813
#
# Stress axis : x y z
#
# Youngs Moduli (GPa) = 123.97778 78.29875 142.16129
#
# Poissons Ratio (x) = 0.09077 0.39089
# Poissons Ratio (y) = 0.14372 0.39278
# Poissons Ratio (z) = 0.34089 0.21633
#
# Static dielectric constant tensor:
#      x y z
#    x 4.451450 0.000000 0.000000 
#    y 0.000000 3.537300 0.000000 
#    z 0.000000 0.000000 4.168970 
# 
# 
# High freq. dielectric constant tensor:
#      x y z
#    x 1.834790 0.000000 0.000000 
#    y 0.000000 1.789670 0.000000 
#    z 0.000000 0.000000 1.855680 
# 
# From -- ./inp_files/3684.got.cif
#   From: 2010.03.12/outbox.cif.g09.slc.cpg/sg66_2_cif.got.tgz:3684.got - 2010.04.10 21:57:39.
