data_PCOD8276434
_publ_section_title
;
Structure prediction by ZEFSAII (Michael W. Deem and Ramdas Pophale) SiO2 
 PCOD8276434
Probable space group: C C C M
;
_chemical_formula_sum "Si O2"
_cell_formula_units_Z 104
_cell_length_a 20.954390
_cell_length_b 27.473296
_cell_length_c 9.020381
_cell_angle_alpha 90.000000
_cell_angle_beta 90.000000
_cell_angle_gamma 90.000000
_cell_volume 5192.908490
_symmetry_space_group_name_H-M "C C C M"
_symmetry_group_IT_number 66
_symmetry_cell_setting 'orthorhombic'
loop_
_space_group_symop_operation_xyz
x,y,z
-x,-y,z
x,-y,1/2-z
-x,y,1/2-z
-x,-y,-z
x,y,-z
-x,y,1/2+z
x,-y,1/2+z
1/2+x,1/2+y,z
1/2-x,1/2-y,z
1/2+x,1/2-y,1/2-z
1/2-x,1/2+y,1/2-z
1/2-x,1/2-y,-z
1/2+x,1/2+y,-z
1/2-x,1/2+y,1/2+z
1/2+x,1/2-y,1/2+z
loop_
_atom_site_type_symbol
_atom_site_label
_atom_site_fract_x
_atom_site_fract_y
_atom_site_fract_z
Si Si1 0.191370 0.642726 0.326667
Si Si2 0.088619 0.857862 0.336758
Si Si3 0.117514 0.285225 0.663103
Si Si4 0.393996 0.449676 0.326468
Si Si5 0.197990 0.193247 0.668976
Si Si6 0.744368 0.950126 0.672234
Si Si7 0.000000 0.220428 0.750000
O O1 0.190496 0.632545 0.500000
O O2 0.125235 0.669899 0.278355
O O3 0.246056 0.680822 0.282334
O O4 0.201186 0.592156 0.242294
O O5 0.118404 0.868149 0.500000
O O6 0.065738 0.908445 0.261664
O O7 0.137441 0.837886 0.216441
O O8 0.033473 0.817331 0.363742
O O9 0.118403 0.308383 0.500000
O O10 0.179331 0.249962 0.679412
O O11 0.052066 0.255638 0.677862
O O12 0.413570 0.500000 0.250000
O O13 0.411903 0.450739 0.500000
O O14 0.318856 0.438887 0.301278
O O15 0.216318 0.178543 0.500000
O O16 0.728289 0.954544 0.500000
O O17 0.724116 0.000000 0.750000
#
# Coordination Sequence:
#
# PCOD8276434 Si02
#       7
#    16  16  16  16  16  16   8
#     4  12  23  34  54  85 118 149 187 231 280 338
#     4  11  21  35  58  83 110 146 190 239 286 338
#     4  10  22  39  58  78 109 149 190 237 287 339
#     4  10  20  34  55  81 112 149 188 233 284 337
#     4  10  20  35  54  79 112 150 187 228 284 342
#     4  10  20  35  56  83 119 155 187 225 278 339
#     4  10  24  42  61  82 107 146 196 242 288 336
#
# _framework density 20.027311999999998
#
# number of rings (size 3 to 8) (size 9 to 14) (size 15 to 20)
#    0.000    1.538    1.538    4.154    0.000    8.615 
#    0.000    0.385    0.000    1.846    0.000    0.538 
#    0.000    3.692    0.000    0.000    0.000    0.000 
#
# Total GULP energy -644503.740174 kJ/mol
# GULP energy per Si atom -12394.302696 kJ/mol
# Density = 1.998173 g / cm^3
# Si number density = 20.027312 Si / 1000 Ang^3
#
#
#
# Elastic Constant Matrix: (Units=GPa)
#
#
# Indices 1 2 3 4 5 6 
#
# 1 49.5618 46.5268 22.2943 0.0000 0.0000 0.0000
# 2 46.5268 119.4783 63.1337 0.0000 0.0000 0.0000
# 3 22.2943 63.1337 149.1932 0.0000 0.0000 0.0000
# 4 0.0000 0.0000 0.0000 31.0240 0.0000 0.0000
# 5 0.0000 0.0000 0.0000 0.0000 11.2328 0.0000
# 6 0.0000 0.0000 0.0000 0.0000 0.0000 25.2475
#
#
#
# Elastic Compliance Matrix: (Units=1/GPa)
#
#
# Indices 1 2 3 4 5 6 
#
# 1 0.031849 -0.012735 0.000630 0.000000 0.000000 0.000000
# 2 -0.012735 0.015873 -0.004814 0.000000 0.000000 0.000000
# 3 0.000630 -0.004814 0.008646 0.000000 0.000000 0.000000
# 4 0.000000 0.000000 0.000000 0.032233 0.000000 0.000000
# 5 0.000000 0.000000 0.000000 0.000000 0.089025 0.000000
# 6 0.000000 0.000000 0.000000 0.000000 0.000000 0.039608
#
#
# Mechanical properties :
#
#
# Convention : Reuss Voigt Hill
#
# Bulk Modulus (GPa) = 44.38742 64.68255 54.53498
# Shear Modulus (GPa) = 19.33630 25.91942 22.62786
#
# Velocity S-wave (km/s) = 3.11061 3.60141 3.36497
# Velocity P-wave (km/s) = 5.92560 7.04704 6.51051
#
# Compressibility (1/GPa) = 0.02252891
#
# Stress axis : x y z
#
# Youngs Moduli (GPa) = 31.39825 63.00123 115.66569
#
# Poissons Ratio (x) = 0.80234 -0.07286
# Poissons Ratio (y) = 0.39987 0.55678
# Poissons Ratio (z) = -0.01978 0.30327
#
# Static dielectric constant tensor:
#      x y z
#    x 3.457620 0.000000 0.000000 
#    y 0.000000 3.767560 0.000000 
#    z 0.000000 0.000000 3.661820 
# 
# 
# High freq. dielectric constant tensor:
#      x y z
#    x 1.740460 0.000000 0.000000 
#    y 0.000000 1.786310 0.000000 
#    z 0.000000 0.000000 1.791490 
# 
# From -- ./inp_files/8125.got.cif
#   From: 2010.03.12/outbox.cif.g09.slc.cpg/sg66_5_cif.got.tgz:8125.got - 2010.04.10 21:57:39.
