data_PCOD8276183
_publ_section_title
;
Structure prediction by ZEFSAII (Michael W. Deem and Ramdas Pophale) SiO2 
 PCOD8276183
Probable space group: C C C M
;
_chemical_formula_sum "Si O2"
_cell_formula_units_Z 104
_cell_length_a 28.212146
_cell_length_b 20.770087
_cell_length_c 8.925393
_cell_angle_alpha 90.000000
_cell_angle_beta 90.000000
_cell_angle_gamma 90.000000
_cell_volume 5230.001173
_symmetry_space_group_name_H-M "C C C M"
_symmetry_group_IT_number 66
_symmetry_cell_setting 'orthorhombic'
loop_
_space_group_symop_operation_xyz
x,y,z
-x,-y,z
x,-y,1/2-z
-x,y,1/2-z
-x,-y,-z
x,y,-z
-x,y,1/2+z
x,-y,1/2+z
1/2+x,1/2+y,z
1/2-x,1/2-y,z
1/2+x,1/2-y,1/2-z
1/2-x,1/2+y,1/2-z
1/2-x,1/2-y,-z
1/2+x,1/2+y,-z
1/2-x,1/2+y,1/2+z
1/2+x,1/2-y,1/2+z
loop_
_atom_site_type_symbol
_atom_site_label
_atom_site_fract_x
_atom_site_fract_y
_atom_site_fract_z
Si Si1 0.952148 0.892411 0.335414
Si Si2 0.949771 0.567700 0.819759
Si Si3 0.687991 0.602714 0.164818
Si Si4 0.615367 0.500000 0.750000
Si Si5 0.292278 0.066522 0.821356
Si Si6 0.869645 0.651701 0.321386
Si Si7 0.373987 0.300064 0.675991
O O1 0.968211 0.871650 0.500000
O O2 0.918713 0.955291 0.349839
O O3 0.922103 0.833787 0.259640
O O4 0.000000 0.908470 0.250000
O O5 0.933162 0.500000 0.750000
O O6 0.912988 0.620877 0.767617
O O7 0.000000 0.587609 0.750000
O O8 0.952559 0.563230 0.000000
O O9 0.649393 0.545664 0.152474
O O10 0.737676 0.575602 0.225845
O O11 0.672090 0.662234 0.266440
O O12 0.695915 0.631080 0.000000
O O13 0.320949 0.123934 0.743241
O O14 0.310837 0.000000 0.750000
O O15 0.300666 0.065626 0.000000
O O16 0.873659 0.640771 0.500000
O O17 0.871226 0.726392 0.276642
O O18 0.374305 0.309221 0.500000
#
# Coordination Sequence:
#
# PCOD8276183 Si02
#       7
#    16  16  16   8  16  16  16
#     4  10  21  36  56  83 115 150 193 241 289 345
#     4  11  22  39  63  91 120 153 192 240 293 352
#     4  10  21  37  60  86 114 151 197 244 291 349
#     4  10  19  36  58  84 116 156 195 238 294 348
#     4  11  23  39  60  90 120 152 194 243 298 353
#     4  11  23  41  61  85 118 157 198 242 295 353
#     4   9  22  41  59  80 113 156 198 240 292 355
#
# _framework density 19.885270999999999
#
# number of rings (size 3 to 8) (size 9 to 14) (size 15 to 20)
#    0.000    1.692    0.769    3.923    0.000    8.000 
#    0.000    4.615    0.000    0.000    0.000    0.000 
#    0.000    0.000    0.000    0.000    0.000    0.000 
#
# Total GULP energy -644685.359578 kJ/mol
# GULP energy per Si atom -12397.795376 kJ/mol
# Density = 1.984001 g / cm^3
# Si number density = 19.885271 Si / 1000 Ang^3
#
#
#
# Elastic Constant Matrix: (Units=GPa)
#
#
# Indices 1 2 3 4 5 6 
#
# 1 122.1643 72.8605 41.6466 0.0000 0.0000 0.0000
# 2 72.8605 144.2796 47.7326 0.0000 0.0000 0.0000
# 3 41.6466 47.7326 95.7330 0.0000 0.0000 0.0000
# 4 0.0000 0.0000 0.0000 28.8179 0.0000 0.0000
# 5 0.0000 0.0000 0.0000 0.0000 30.3355 0.0000
# 6 0.0000 0.0000 0.0000 0.0000 0.0000 24.8686
#
#
#
# Elastic Compliance Matrix: (Units=1/GPa)
#
#
# Indices 1 2 3 4 5 6 
#
# 1 0.012267 -0.005304 -0.002692 0.000000 0.000000 0.000000
# 2 -0.005304 0.010594 -0.002975 0.000000 0.000000 0.000000
# 3 -0.002692 -0.002975 0.013100 0.000000 0.000000 0.000000
# 4 0.000000 0.000000 0.000000 0.034701 0.000000 0.000000
# 5 0.000000 0.000000 0.000000 0.000000 0.032965 0.000000
# 6 0.000000 0.000000 0.000000 0.000000 0.000000 0.040211
#
#
# Mechanical properties :
#
#
# Convention : Reuss Voigt Hill
#
# Bulk Modulus (GPa) = 71.32992 76.29514 73.81253
# Shear Modulus (GPa) = 29.33393 30.13354 29.73373
#
# Velocity S-wave (km/s) = 3.84495 3.89700 3.87106
# Velocity P-wave (km/s) = 7.46057 7.66158 7.56174
#
# Compressibility (1/GPa) = 0.01401936
#
# Stress axis : x y z
#
# Youngs Moduli (GPa) = 81.52084 94.39629 76.33699
#
# Poissons Ratio (x) = 0.50069 0.20548
# Poissons Ratio (y) = 0.43240 0.22707
# Poissons Ratio (z) = 0.21943 0.28079
#
# Static dielectric constant tensor:
#      x y z
#    x 3.712010 0.000000 0.000000 
#    y 0.000000 3.700250 0.000000 
#    z 0.000000 0.000000 3.559090 
# 
# 
# High freq. dielectric constant tensor:
#      x y z
#    x 1.784870 0.000000 0.000000 
#    y 0.000000 1.774160 0.000000 
#    z 0.000000 0.000000 1.775730 
# 
# From -- ./inp_files/8320.got.cif
#   From: 2010.03.12/outbox.cif.g09.slc.cpg/sg66_5_cif.got.tgz:8320.got - 2010.04.10 21:57:39.
