data_PCOD8276329
_publ_section_title
;
Structure prediction by ZEFSAII (Michael W. Deem and Ramdas Pophale) SiO2 
 PCOD8276329
Probable space group: C C C M
;
_chemical_formula_sum "Si O2"
_cell_formula_units_Z 80
_cell_length_a 17.374552
_cell_length_b 28.074414
_cell_length_c 8.958538
_cell_angle_alpha 90.000000
_cell_angle_beta 90.000000
_cell_angle_gamma 90.000000
_cell_volume 4369.798944
_symmetry_space_group_name_H-M "C C C M"
_symmetry_group_IT_number 66
_symmetry_cell_setting 'orthorhombic'
loop_
_space_group_symop_operation_xyz
x,y,z
-x,-y,z
x,-y,1/2-z
-x,y,1/2-z
-x,-y,-z
x,y,-z
-x,y,1/2+z
x,-y,1/2+z
1/2+x,1/2+y,z
1/2-x,1/2-y,z
1/2+x,1/2-y,1/2-z
1/2-x,1/2+y,1/2-z
1/2-x,1/2-y,-z
1/2+x,1/2+y,-z
1/2-x,1/2+y,1/2+z
1/2+x,1/2-y,1/2+z
loop_
_atom_site_type_symbol
_atom_site_label
_atom_site_fract_x
_atom_site_fract_y
_atom_site_fract_z
Si Si1 0.070768 0.449323 0.828037
Si Si2 0.818569 0.712770 0.832446
Si Si3 0.785320 0.858460 0.325860
Si Si4 0.742402 0.050936 0.673370
Si Si5 0.079580 0.785256 0.174598
O O1 0.073406 0.500000 0.750000
O O2 0.155801 0.427805 0.805673
O O3 0.000000 0.419667 0.750000
O O4 0.050275 0.455022 0.000000
O O5 0.750000 0.750000 0.838596
O O6 0.789815 0.666494 0.744399
O O7 0.890533 0.736063 0.746790
O O8 0.843990 0.698160 0.000000
O O9 0.770032 0.864842 0.500000
O O10 0.797657 0.910130 0.250305
O O11 0.861610 0.828130 0.293652
O O12 0.763473 0.045357 0.500000
O O13 0.754564 0.000000 0.750000
O O14 0.000000 0.800398 0.250000
O O15 0.068005 0.776535 0.000000
#
# Coordination Sequence:
#
# PCOD8276329 Si02
#       5
#    16  16  16  16  16
#     4   9  16  26  42  63  87 117 154 197 243 290
#     4   9  17  31  52  76 102 132 165 203 250 304
#     4  10  20  34  53  77 105 137 174 215 259 308
#     4  10  20  33  50  73 101 136 179 222 264 310
#     4  10  20  34  54  80 108 137 170 210 258 313
#
# _framework density 18.307478
#
# number of rings (size 3 to 8) (size 9 to 14) (size 15 to 20)
#    0.000    2.400    0.000    3.600    0.000    7.200 
#    0.000    1.000    0.000    3.000    0.000    4.200 
#    0.000    0.000    0.000    0.000    0.000    0.000 
#
# Total GULP energy -495799.631483 kJ/mol
# GULP energy per Si atom -12394.990787 kJ/mol
# Density = 1.826581 g / cm^3
# Si number density = 18.307478 Si / 1000 Ang^3
#
#
#
# Elastic Constant Matrix: (Units=GPa)
#
#
# Indices 1 2 3 4 5 6 
#
# 1 75.3504 38.6085 58.2177 0.0000 0.0000 0.0000
# 2 38.6085 100.3802 63.4211 0.0000 0.0000 0.0000
# 3 58.2177 63.4211 161.9462 0.0000 0.0000 0.0000
# 4 0.0000 0.0000 0.0000 30.5907 0.0000 0.0000
# 5 0.0000 0.0000 0.0000 0.0000 42.9887 0.0000
# 6 0.0000 0.0000 0.0000 0.0000 0.0000 14.9315
#
#
#
# Elastic Compliance Matrix: (Units=1/GPa)
#
#
# Indices 1 2 3 4 5 6 
#
# 1 0.019564 -0.004094 -0.005430 0.000000 0.000000 0.000000
# 2 -0.004094 0.014094 -0.004048 0.000000 0.000000 0.000000
# 3 -0.005430 -0.004048 0.009712 0.000000 0.000000 0.000000
# 4 0.000000 0.000000 0.000000 0.032690 0.000000 0.000000
# 5 0.000000 0.000000 0.000000 0.000000 0.023262 0.000000
# 6 0.000000 0.000000 0.000000 0.000000 0.000000 0.066973
#
#
# Mechanical properties :
#
#
# Convention : Reuss Voigt Hill
#
# Bulk Modulus (GPa) = 61.62550 73.13014 67.37782
# Shear Modulus (GPa) = 25.14489 29.53080 27.33785
#
# Velocity S-wave (km/s) = 3.71007 4.02063 3.86847
# Velocity P-wave (km/s) = 7.21715 7.84769 7.53901
#
# Compressibility (1/GPa) = 0.01622705
#
# Stress axis : x y z
#
# Youngs Moduli (GPa) = 51.11337 70.95074 102.96569
#
# Poissons Ratio (x) = 0.29050 0.55908
# Poissons Ratio (y) = 0.20928 0.41678
# Poissons Ratio (z) = 0.27753 0.28719
#
# Static dielectric constant tensor:
#      x y z
#    x 3.765630 0.000000 0.000000 
#    y 0.000000 3.137710 0.000000 
#    z 0.000000 0.000000 3.587950 
# 
# 
# High freq. dielectric constant tensor:
#      x y z
#    x 1.688200 0.000000 0.000000 
#    y 0.000000 1.687510 0.000000 
#    z 0.000000 0.000000 1.731930 
# 
# From -- ./inp_files/6711.got.cif
#   From: 2010.03.12/outbox.cif.g09.slc.cpg/sg66_4_cif.got.tgz:6711.got - 2010.04.10 21:57:39.
