data_PCOD8276081
_publ_section_title
;
Structure prediction by ZEFSAII (Michael W. Deem and Ramdas Pophale) SiO2 
 PCOD8276081
Probable space group: C C C M
;
_chemical_formula_sum "Si O2"
_cell_formula_units_Z 80
_cell_length_a 12.571288
_cell_length_b 21.930863
_cell_length_c 13.357391
_cell_angle_alpha 90.000000
_cell_angle_beta 90.000000
_cell_angle_gamma 90.000000
_cell_volume 3682.621944
_symmetry_space_group_name_H-M "C C C M"
_symmetry_group_IT_number 66
_symmetry_cell_setting 'orthorhombic'
loop_
_space_group_symop_operation_xyz
x,y,z
-x,-y,z
x,-y,1/2-z
-x,y,1/2-z
-x,-y,-z
x,y,-z
-x,y,1/2+z
x,-y,1/2+z
1/2+x,1/2+y,z
1/2-x,1/2-y,z
1/2+x,1/2-y,1/2-z
1/2-x,1/2+y,1/2-z
1/2-x,1/2-y,-z
1/2+x,1/2+y,-z
1/2-x,1/2+y,1/2+z
1/2+x,1/2-y,1/2+z
loop_
_atom_site_type_symbol
_atom_site_label
_atom_site_fract_x
_atom_site_fract_y
_atom_site_fract_z
Si Si1 0.306956 0.539772 0.391032
Si Si2 0.499588 0.377764 0.387849
Si Si3 0.216812 0.090494 0.311431
Si Si4 0.657367 0.794176 0.684613
Si Si5 0.567852 0.245013 0.387159
O O1 0.262598 0.560546 0.500000
O O2 0.429753 0.560907 0.379924
O O3 0.294623 0.466874 0.385261
O O4 0.244648 0.570630 0.299605
O O5 0.451401 0.372717 0.500000
O O6 0.401605 0.379184 0.308923
O O7 0.570389 0.317601 0.366448
O O8 0.306919 0.137532 0.345857
O O9 0.750000 0.750000 0.646977
O O10 0.551812 0.779520 0.623876
O O11 0.642600 0.787488 0.805231
O O12 0.608380 0.230120 0.500000
#
# Coordination Sequence:
#
# PCOD8276081 Si02
#       5
#    16  16  16  16  16
#     4  10  22  36  54  85 120 158 203 250 304 365
#     4  10  19  34  57  86 122 158 197 246 306 373
#     4  11  21  35  58  85 120 162 201 246 305 374
#     4  11  22  38  61  88 126 167 210 256 312 378
#     4  10  23  39  59  91 126 164 210 260 314 373
#
# _framework density 21.723652999999999
#
# number of rings (size 3 to 8) (size 9 to 14) (size 15 to 20)
#    0.000    1.600    2.000    3.000    2.800    6.400 
#    0.000    0.000    0.000    9.600    0.000   11.200 
#    0.000    0.000    0.000    0.000    0.000    0.000 
#
# Total GULP energy -495847.641233 kJ/mol
# GULP energy per Si atom -12396.191031 kJ/mol
# Density = 2.167421 g / cm^3
# Si number density = 21.723653 Si / 1000 Ang^3
#
#
#
# Elastic Constant Matrix: (Units=GPa)
#
#
# Indices 1 2 3 4 5 6 
#
# 1 50.0178 40.9510 -13.4800 0.0000 0.0000 0.0000
# 2 40.9510 132.1416 22.0549 0.0000 0.0000 0.0000
# 3 -13.4800 22.0549 97.7972 0.0000 0.0000 0.0000
# 4 0.0000 0.0000 0.0000 26.9843 0.0000 0.0000
# 5 0.0000 0.0000 0.0000 0.0000 18.0939 0.0000
# 6 0.0000 0.0000 0.0000 0.0000 0.0000 40.6045
#
#
#
# Elastic Compliance Matrix: (Units=1/GPa)
#
#
# Indices 1 2 3 4 5 6 
#
# 1 0.030356 -0.010501 0.006552 0.000000 0.000000 0.000000
# 2 -0.010501 0.011496 -0.004040 0.000000 0.000000 0.000000
# 3 0.006552 -0.004040 0.012039 0.000000 0.000000 0.000000
# 4 0.000000 0.000000 0.000000 0.037059 0.000000 0.000000
# 5 0.000000 0.000000 0.000000 0.000000 0.055267 0.000000
# 6 0.000000 0.000000 0.000000 0.000000 0.000000 0.024628
#
#
# Mechanical properties :
#
#
# Convention : Reuss Voigt Hill
#
# Bulk Modulus (GPa) = 26.37512 42.11204 34.24358
# Shear Modulus (GPa) = 25.06751 32.49859 28.78305
#
# Velocity S-wave (km/s) = 3.40064 3.87201 3.64395
# Velocity P-wave (km/s) = 5.25230 6.27833 5.78809
#
# Compressibility (1/GPa) = 0.03791452
#
# Stress axis : x y z
#
# Youngs Moduli (GPa) = 32.94208 86.98486 83.06002
#
# Poissons Ratio (x) = 0.91344 -0.54424
# Poissons Ratio (y) = 0.34593 0.33556
# Poissons Ratio (z) = -0.21585 0.35142
#
# Static dielectric constant tensor:
#      x y z
#    x 3.465320 0.000000 0.000000 
#    y 0.000000 3.947370 0.000000 
#    z 0.000000 0.000000 4.126340 
# 
# 
# High freq. dielectric constant tensor:
#      x y z
#    x 1.798100 0.000000 0.000000 
#    y 0.000000 1.853920 0.000000 
#    z 0.000000 0.000000 1.872790 
# 
# From -- ./inp_files/26355.got.cif
#   From: 2010.03.12/outbox.cif.g09.slc.cpg/sg66_14_cif.got.tgz:26355.got - 2010.04.10 21:57:39.
