data_PCOD8276212
_publ_section_title
;
Structure prediction by ZEFSAII (Michael W. Deem and Ramdas Pophale) SiO2 
 PCOD8276212
Probable space group: C C C M
;
_chemical_formula_sum "Si O2"
_cell_formula_units_Z 112
_cell_length_a 24.508846
_cell_length_b 12.762552
_cell_length_c 18.268512
_cell_angle_alpha 90.000000
_cell_angle_beta 90.000000
_cell_angle_gamma 90.000000
_cell_volume 5714.306912
_symmetry_space_group_name_H-M "C C C M"
_symmetry_group_IT_number 66
_symmetry_cell_setting 'orthorhombic'
loop_
_space_group_symop_operation_xyz
x,y,z
-x,-y,z
x,-y,1/2-z
-x,y,1/2-z
-x,-y,-z
x,y,-z
-x,y,1/2+z
x,-y,1/2+z
1/2+x,1/2+y,z
1/2-x,1/2-y,z
1/2+x,1/2-y,1/2-z
1/2-x,1/2+y,1/2-z
1/2-x,1/2-y,-z
1/2+x,1/2+y,-z
1/2-x,1/2+y,1/2+z
1/2+x,1/2-y,1/2+z
loop_
_atom_site_type_symbol
_atom_site_label
_atom_site_fract_x
_atom_site_fract_y
_atom_site_fract_z
Si Si1 0.893850 0.132199 0.586730
Si Si2 0.312671 0.230303 0.331201
Si Si3 0.312131 0.785911 0.339007
Si Si4 0.344979 0.988190 0.829192
Si Si5 0.009209 0.787084 0.917168
Si Si6 0.117952 0.099765 0.416893
Si Si7 0.533015 0.911919 0.674078
O O1 0.897844 0.126762 0.500000
O O2 0.847735 0.210669 0.611626
O O3 0.952660 0.170559 0.617336
O O4 0.876734 0.017247 0.615850
O O5 0.250000 0.250000 0.343063
O O6 0.329531 0.225667 0.245723
O O7 0.322279 0.116343 0.369065
O O8 0.347992 0.320886 0.367513
O O9 0.250000 0.750000 0.351271
O O10 0.327312 0.903388 0.369336
O O11 0.408445 0.965195 0.815945
O O12 0.316172 0.000000 0.750000
O O13 0.053372 0.878994 0.915155
O O14 0.035651 0.694848 0.869859
O O15 0.999910 0.746732 0.000000
O O16 0.140153 0.108354 0.500000
O O17 0.500000 0.893288 0.750000
O O18 0.500000 0.000000 0.628082
#
# Coordination Sequence:
#
# PCOD8276212 Si02
#       7
#    16  16  16  16  16  16  16
#     4  10  22  39  60  84 116 156 195 238 289 345
#     4  10  22  38  61  88 115 150 195 242 290 345
#     4  10  23  40  61  86 115 155 195 240 286 344
#     4  10  19  37  57  86 118 148 188 235 293 342
#     4  10  21  37  57  84 117 149 191 238 291 346
#     4  10  21  39  61  85 117 153 192 239 293 348
#     4  11  20  32  57  85 112 155 187 231 285 347
#
# _framework density 19.599927999999998
#
# number of rings (size 3 to 8) (size 9 to 14) (size 15 to 20)
#    0.000    1.857    2.857    1.286    4.000    3.143 
#    0.000    1.429    0.000    2.571    0.000    0.000 
#    0.000    0.000    0.000    0.000    0.000    0.000 
#
# Total GULP energy -693889.738277 kJ/mol
# GULP energy per Si atom -12390.888184 kJ/mol
# Density = 1.955532 g / cm^3
# Si number density = 19.599928 Si / 1000 Ang^3
#
#
#
# Elastic Constant Matrix: (Units=GPa)
#
#
# Indices 1 2 3 4 5 6 
#
# 1 100.4152 50.1179 10.6783 0.0000 0.0000 0.0000
# 2 50.1179 171.6346 18.8882 0.0000 0.0000 0.0000
# 3 10.6783 18.8882 14.8908 0.0000 0.0000 0.0000
# 4 0.0000 0.0000 0.0000 25.5526 0.0000 0.0000
# 5 0.0000 0.0000 0.0000 0.0000 39.9833 0.0000
# 6 0.0000 0.0000 0.0000 0.0000 0.0000 28.4776
#
#
#
# Elastic Compliance Matrix: (Units=1/GPa)
#
#
# Indices 1 2 3 4 5 6 
#
# 1 0.011947 -0.002959 -0.004814 0.000000 0.000000 0.000000
# 2 -0.002959 0.007504 -0.007397 0.000000 0.000000 0.000000
# 3 -0.004814 -0.007397 0.079991 0.000000 0.000000 0.000000
# 4 0.000000 0.000000 0.000000 0.039135 0.000000 0.000000
# 5 0.000000 0.000000 0.000000 0.000000 0.025010 0.000000
# 6 0.000000 0.000000 0.000000 0.000000 0.000000 0.035115
#
#
# Mechanical properties :
#
#
# Convention : Reuss Voigt Hill
#
# Bulk Modulus (GPa) = 14.47139 49.58995 32.03067
# Shear Modulus (GPa) = 19.83512 32.61976 26.22744
#
# Velocity S-wave (km/s) = 3.18465 4.08398 3.66203
# Velocity P-wave (km/s) = 4.57406 6.89888 5.85306
#
# Compressibility (1/GPa) = 0.06910186
#
# Stress axis : x y z
#
# Youngs Moduli (GPa) = 83.70011 133.25558 12.50143
#
# Poissons Ratio (x) = 0.39429 0.06019
# Poissons Ratio (y) = 0.24766 0.09247
# Poissons Ratio (z) = 0.40297 0.98570
#
# Static dielectric constant tensor:
#      x y z
#    x 3.574290 0.000000 0.000000 
#    y 0.000000 3.921380 0.000000 
#    z 0.000000 0.000000 3.280810 
# 
# 
# High freq. dielectric constant tensor:
#      x y z
#    x 1.772730 0.000000 0.000000 
#    y 0.000000 1.785050 0.000000 
#    z 0.000000 0.000000 1.726020 
# 
# From -- ./inp_files/52582.got.cif
#   From: 2010.03.12/outbox.cif.g09.slc.cpg/sg66_27_cif.got.tgz:52582.got - 2010.04.10 21:57:39.
