data_PCOD8276334
_publ_section_title
;
Structure prediction by ZEFSAII (Michael W. Deem and Ramdas Pophale) SiO2 
 PCOD8276334
Probable space group: C C C M
;
_chemical_formula_sum "Si O2"
_cell_formula_units_Z 96
_cell_length_a 24.677448
_cell_length_b 8.809116
_cell_length_c 23.189882
_cell_angle_alpha 90.000000
_cell_angle_beta 90.000000
_cell_angle_gamma 90.000000
_cell_volume 5041.167330
_symmetry_space_group_name_H-M "C C C M"
_symmetry_group_IT_number 66
_symmetry_cell_setting 'orthorhombic'
loop_
_space_group_symop_operation_xyz
x,y,z
-x,-y,z
x,-y,1/2-z
-x,y,1/2-z
-x,-y,-z
x,y,-z
-x,y,1/2+z
x,-y,1/2+z
1/2+x,1/2+y,z
1/2-x,1/2-y,z
1/2+x,1/2-y,1/2-z
1/2-x,1/2+y,1/2-z
1/2-x,1/2-y,-z
1/2+x,1/2+y,-z
1/2-x,1/2+y,1/2+z
1/2+x,1/2-y,1/2+z
loop_
_atom_site_type_symbol
_atom_site_label
_atom_site_fract_x
_atom_site_fract_y
_atom_site_fract_z
Si Si1 0.936684 0.676333 0.257998
Si Si2 0.114641 0.544814 0.565116
Si Si3 0.403525 0.640097 0.128318
Si Si4 0.687312 0.239349 0.932721
Si Si5 0.922346 0.208796 0.639135
Si Si6 0.018125 0.675011 0.064771
O O1 0.921489 0.500000 0.250000
O O2 0.914972 0.750743 0.316795
O O3 0.908269 0.761792 0.205376
O O4 0.000000 0.703265 0.250000
O O5 0.126090 0.589428 0.500000
O O6 0.159092 0.421721 0.584516
O O7 0.122485 0.698901 0.601767
O O8 0.049411 0.491343 0.571574
O O9 0.340211 0.638076 0.110189
O O10 0.423576 0.470485 0.134319
O O11 0.431331 0.710816 0.071325
O O12 0.750000 0.250000 0.916948
O O13 0.678080 0.275588 0.000000
O O14 0.979928 0.274541 0.617808
O O15 0.993766 0.696073 0.000000
#
# Coordination Sequence:
#
# PCOD8276334 Si02
#       6
#    16  16  16  16  16  16
#     4  11  23  37  56  77 109 155 200 230 270 340
#     4   9  19  34  54  82 113 148 192 230 278 345
#     4  11  22  36  54  82 116 145 187 238 287 339
#     4   9  19  39  64  84 108 147 193 240 288 339
#     4  12  22  32  53  80 118 149 182 234 284 340
#     4  10  20  33  50  75 113 156 188 219 269 344
#
# _framework density 19.043209000000001
#
# number of rings (size 3 to 8) (size 9 to 14) (size 15 to 20)
#    0.000    1.667    1.667    5.500    2.333    5.333 
#    0.000    0.833    0.000    9.000    0.000    0.000 
#    0.000    0.000    0.000    0.000    0.000    0.000 
#
# Total GULP energy -594684.225608 kJ/mol
# GULP energy per Si atom -12389.254700 kJ/mol
# Density = 1.899987 g / cm^3
# Si number density = 19.043209 Si / 1000 Ang^3
#
#
#
# Elastic Constant Matrix: (Units=GPa)
#
#
# Indices 1 2 3 4 5 6 
#
# 1 82.0553 18.7871 38.0488 0.0000 0.0000 0.0000
# 2 18.7871 121.8769 50.4187 0.0000 0.0000 0.0000
# 3 38.0488 50.4187 93.7901 0.0000 0.0000 0.0000
# 4 0.0000 0.0000 0.0000 22.2781 0.0000 0.0000
# 5 0.0000 0.0000 0.0000 0.0000 19.7456 0.0000
# 6 0.0000 0.0000 0.0000 0.0000 0.0000 6.5586
#
#
#
# Elastic Compliance Matrix: (Units=1/GPa)
#
#
# Indices 1 2 3 4 5 6 
#
# 1 0.015017 0.000264 -0.006234 0.000000 0.000000 0.000000
# 2 0.000264 0.010556 -0.005782 0.000000 0.000000 0.000000
# 3 -0.006234 -0.005782 0.016299 0.000000 0.000000 0.000000
# 4 0.000000 0.000000 0.000000 0.044887 0.000000 0.000000
# 5 0.000000 0.000000 0.000000 0.000000 0.050644 0.000000
# 6 0.000000 0.000000 0.000000 0.000000 0.000000 0.152471
#
#
# Mechanical properties :
#
#
# Convention : Reuss Voigt Hill
#
# Bulk Modulus (GPa) = 54.43977 56.91463 55.67720
# Shear Modulus (GPa) = 15.64938 22.41431 19.03184
#
# Velocity S-wave (km/s) = 2.86978 3.43450 3.16476
# Velocity P-wave (km/s) = 6.29527 6.75868 6.53109
#
# Compressibility (1/GPa) = 0.01836892
#
# Stress axis : x y z
#
# Youngs Moduli (GPa) = 66.59037 94.73171 61.35238
#
# Poissons Ratio (x) = -0.02502 0.38248
# Poissons Ratio (y) = -0.01759 0.35473
# Poissons Ratio (z) = 0.41513 0.54772
#
# Static dielectric constant tensor:
#      x y z
#    x 3.367950 0.000000 0.000000 
#    y 0.000000 3.572070 0.000000 
#    z 0.000000 0.000000 3.558050 
# 
# 
# High freq. dielectric constant tensor:
#      x y z
#    x 1.701210 0.000000 0.000000 
#    y 0.000000 1.743720 0.000000 
#    z 0.000000 0.000000 1.748820 
# 
# From -- ./inp_files/59803.got.cif
#   From: 2010.03.12/outbox.cif.g09.slc.cpg/sg66_30_cif.got.tgz:59803.got - 2010.04.10 21:57:39.
