data_PCOD8276026
_publ_section_title
;
Structure prediction by ZEFSAII (Michael W. Deem and Ramdas Pophale) SiO2 
 PCOD8276026
Probable space group: C C C M
;
_chemical_formula_sum "Si O2"
_cell_formula_units_Z 56
_cell_length_a 4.904346
_cell_length_b 25.339824
_cell_length_c 20.667870
_cell_angle_alpha 90.000000
_cell_angle_beta 90.000000
_cell_angle_gamma 90.000000
_cell_volume 2568.505010
_symmetry_space_group_name_H-M "C C C M"
_symmetry_group_IT_number 66
_symmetry_cell_setting 'orthorhombic'
loop_
_space_group_symop_operation_xyz
x,y,z
-x,-y,z
x,-y,1/2-z
-x,y,1/2-z
-x,-y,-z
x,y,-z
-x,y,1/2+z
x,-y,1/2+z
1/2+x,1/2+y,z
1/2-x,1/2-y,z
1/2+x,1/2-y,1/2-z
1/2-x,1/2+y,1/2-z
1/2-x,1/2-y,-z
1/2+x,1/2+y,-z
1/2-x,1/2+y,1/2+z
1/2+x,1/2-y,1/2+z
loop_
_atom_site_type_symbol
_atom_site_label
_atom_site_fract_x
_atom_site_fract_y
_atom_site_fract_z
Si Si1 0.368360 0.697094 0.182378
Si Si2 0.000000 0.381730 0.250000
Si Si3 0.359192 0.054413 0.425798
Si Si4 0.662854 0.603478 0.135399
O O1 0.500000 0.715915 0.250000
O O2 0.250000 0.750000 0.148177
O O3 0.583234 0.665990 0.136806
O O4 0.136978 0.654021 0.195076
O O5 0.223215 0.414280 0.207510
O O6 0.262892 0.052335 0.500000
O O7 0.595376 0.098191 0.416973
O O8 0.094047 0.066243 0.382262
O O9 0.500000 0.000000 0.402998
#
# Coordination Sequence:
#
# PCOD8276026 Si02
#       4
#    16   8  16  16
#     4  10  19  33  62  92 129 168 207 249 306 390
#     4  10  20  38  61  98 132 166 199 250 324 390
#     4  11  24  44  69  91 117 168 231 274 309 367
#     4  11  22  39  65  96 131 158 211 267 322 375
#
# _framework density 21.802564
#
# number of rings (size 3 to 8) (size 9 to 14) (size 15 to 20)
#    0.000    1.429    4.286    1.714    0.000    2.286 
#    0.000    0.714   12.571    5.143    0.000    0.000 
#    0.000    0.000    0.000    0.000    0.000    0.000 
#
# Total GULP energy -346894.873195 kJ/mol
# GULP energy per Si atom -12389.102614 kJ/mol
# Density = 2.175294 g / cm^3
# Si number density = 21.802564 Si / 1000 Ang^3
#
#
#
# Elastic Constant Matrix: (Units=GPa)
#
#
# Indices 1 2 3 4 5 6 
#
# 1 157.3061 51.7116 60.0423 0.0000 0.0000 0.0000
# 2 51.7116 85.2468 63.7819 0.0000 0.0000 0.0000
# 3 60.0423 63.7819 83.0050 0.0000 0.0000 0.0000
# 4 0.0000 0.0000 0.0000 20.2699 0.0000 0.0000
# 5 0.0000 0.0000 0.0000 0.0000 42.3780 0.0000
# 6 0.0000 0.0000 0.0000 0.0000 0.0000 34.6175
#
#
#
# Elastic Compliance Matrix: (Units=1/GPa)
#
#
# Indices 1 2 3 4 5 6 
#
# 1 0.008848 -0.001361 -0.005355 0.000000 0.000000 0.000000
# 2 -0.001361 0.027806 -0.020382 0.000000 0.000000 0.000000
# 3 -0.005355 -0.020382 0.031582 0.000000 0.000000 0.000000
# 4 0.000000 0.000000 0.000000 0.049334 0.000000 0.000000
# 5 0.000000 0.000000 0.000000 0.000000 0.023597 0.000000
# 6 0.000000 0.000000 0.000000 0.000000 0.000000 0.028887
#
#
# Mechanical properties :
#
#
# Convention : Reuss Voigt Hill
#
# Bulk Modulus (GPa) = 71.21714 75.18105 73.19910
# Shear Modulus (GPa) = 21.84062 29.45455 25.64758
#
# Velocity S-wave (km/s) = 3.16847 3.67954 3.43353
# Velocity P-wave (km/s) = 6.79125 7.25324 7.02604
#
# Compressibility (1/GPa) = 0.01404156
#
# Stress axis : x y z
#
# Youngs Moduli (GPa) = 113.01654 35.96323 31.66321
#
# Poissons Ratio (x) = 0.04895 0.16954
# Poissons Ratio (y) = 0.15384 0.64536
# Poissons Ratio (z) = 0.60515 0.73300
#
# Static dielectric constant tensor:
#      x y z
#    x 4.479480 0.000000 0.000000 
#    y 0.000000 3.822420 0.000000 
#    z 0.000000 0.000000 3.631460 
# 
# 
# High freq. dielectric constant tensor:
#      x y z
#    x 1.893770 0.000000 0.000000 
#    y 0.000000 1.831030 0.000000 
#    z 0.000000 0.000000 1.807920 
# 
# From -- ./inp_files/45647.got.cif
#   From: 2010.03.12/outbox.cif.g09.slc.cpg/sg66_23_cif.got.tgz:45647.got - 2010.04.10 21:57:39.
