data_PCOD8276113
_publ_section_title
;
Structure prediction by ZEFSAII (Michael W. Deem and Ramdas Pophale) SiO2 
 PCOD8276113
Probable space group: C C C M
;
_chemical_formula_sum "Si O2"
_cell_formula_units_Z 104
_cell_length_a 23.167710
_cell_length_b 7.981387
_cell_length_c 23.843096
_cell_angle_alpha 90.000000
_cell_angle_beta 90.000000
_cell_angle_gamma 90.000000
_cell_volume 4408.837835
_symmetry_space_group_name_H-M "C C C M"
_symmetry_group_IT_number 66
_symmetry_cell_setting 'orthorhombic'
loop_
_space_group_symop_operation_xyz
x,y,z
-x,-y,z
x,-y,1/2-z
-x,y,1/2-z
-x,-y,-z
x,y,-z
-x,y,1/2+z
x,-y,1/2+z
1/2+x,1/2+y,z
1/2-x,1/2-y,z
1/2+x,1/2-y,1/2-z
1/2-x,1/2+y,1/2-z
1/2-x,1/2-y,-z
1/2+x,1/2+y,-z
1/2-x,1/2+y,1/2+z
1/2+x,1/2-y,1/2+z
loop_
_atom_site_type_symbol
_atom_site_label
_atom_site_fract_x
_atom_site_fract_y
_atom_site_fract_z
Si Si1 0.898253 0.167248 0.500000
Si Si2 0.777187 0.563597 0.122135
Si Si3 0.178115 0.060163 0.689448
Si Si4 0.295016 0.898972 0.500000
Si Si5 0.085058 0.911380 0.379380
Si Si6 0.029518 0.255137 0.378748
Si Si7 0.621079 0.075220 0.188722
Si Si8 0.519960 0.185643 0.000000
O O1 0.861113 0.336099 0.500000
O O2 0.885726 0.070101 0.441543
O O3 0.966406 0.189274 0.500000
O O4 0.750000 0.750000 0.126247
O O5 0.735335 0.430711 0.151721
O O6 0.784882 0.500289 0.057685
O O7 0.839970 0.553460 0.152255
O O8 0.150685 0.243145 0.690923
O O9 0.198293 0.000000 0.750000
O O10 0.136795 0.911261 0.665361
O O11 0.250000 0.750000 0.500000
O O12 0.041534 0.749292 0.375214
O O13 0.049694 0.073427 0.360949
O O14 0.057622 0.398792 0.339700
O O15 0.053882 0.283088 0.442230
O O16 0.611194 0.000000 0.250000
O O17 0.500000 0.000000 0.000000
#
# Coordination Sequence:
#
# PCOD8276113 Si02
#       8
#     8  16  16   8  16  16  16   8
#     4  10  19  34  62  94 127 163 207 251 322 392
#     4  11  23  41  66  93 130 166 212 264 327 397
#     4  11  23  42  67  91 123 169 219 268 322 388
#     4  10  22  37  59  93 127 160 198 259 324 387
#     4   9  18  38  65  91 122 162 208 262 315 382
#     4   9  20  38  62  92 124 160 210 262 317 379
#     4  11  24  42  65  93 129 169 219 271 325 383
#     4  10  21  35  58  89 125 169 204 248 311 386
#
# _framework density 23.588981
#
# number of rings (size 3 to 8) (size 9 to 14) (size 15 to 20)
#    0.000    1.846    0.000    4.154    2.154    1.846 
#    2.769    9.231    0.000    0.000    0.000    0.000 
#    0.000    0.000    0.000    0.000    0.000    0.000 
#
# Total GULP energy -644257.698773 kJ/mol
# GULP energy per Si atom -12389.571130 kJ/mol
# Density = 2.353529 g / cm^3
# Si number density = 23.588981 Si / 1000 Ang^3
#
#
#
# Elastic Constant Matrix: (Units=GPa)
#
#
# Indices 1 2 3 4 5 6 
#
# 1 111.1324 22.0405 72.8525 0.0000 0.0000 0.0000
# 2 22.0405 67.5280 35.1695 0.0000 0.0000 0.0000
# 3 72.8525 35.1695 211.7532 0.0000 0.0000 0.0000
# 4 0.0000 0.0000 0.0000 21.9513 0.0000 0.0000
# 5 0.0000 0.0000 0.0000 0.0000 -45.4126 0.0000
# 6 0.0000 0.0000 0.0000 0.0000 0.0000 27.7057
#
#
#
# Elastic Compliance Matrix: (Units=1/GPa)
#
#
# Indices 1 2 3 4 5 6 
#
# 1 0.011839 -0.001908 -0.003756 0.000000 0.000000 0.000000
# 2 -0.001908 0.016518 -0.002087 0.000000 0.000000 0.000000
# 3 -0.003756 -0.002087 0.006361 0.000000 0.000000 0.000000
# 4 0.000000 0.000000 0.000000 0.045555 0.000000 0.000000
# 5 0.000000 0.000000 0.000000 0.000000 -0.022020 0.000000
# 6 0.000000 0.000000 0.000000 0.000000 0.000000 0.036094
#
#
# Mechanical properties :
#
#
# Convention : Reuss Voigt Hill
#
# Bulk Modulus (GPa) = 52.03884 72.28208 62.16046
# Shear Modulus (GPa) = 43.00871 18.20563 30.60717
#
# Velocity S-wave (km/s) = 4.27459 2.78112 3.60602
# Velocity P-wave (km/s) = 6.81699 6.40481 6.61411
#
# Compressibility (1/GPa) = 0.01921642
#
# Stress axis : x y z
#
# Youngs Moduli (GPa) = 84.46597 60.53865 157.19669
#
# Poissons Ratio (x) = 0.11550 0.59048
# Poissons Ratio (y) = 0.16115 0.32809
# Poissons Ratio (z) = 0.31728 0.12635
#
# Static dielectric constant tensor:
#      x y z
#    x 4.879170 0.000000 0.000000 
#    y 0.000000 4.715380 0.000000 
#    z 0.000000 0.000000 4.610710 
# 
# 
# High freq. dielectric constant tensor:
#      x y z
#    x 1.934560 0.000000 0.000000 
#    y 0.000000 1.913770 0.000000 
#    z 0.000000 0.000000 1.940830 
# 
# From -- ./inp_files/53081.got.cif
#   From: 2010.03.12/outbox.cif.g09.slc.cpg/sg66_27_cif.got.tgz:53081.got - 2010.04.10 21:57:39.
