data_PCOD8276477
_publ_section_title
;
Structure prediction by ZEFSAII (Michael W. Deem and Ramdas Pophale) SiO2 
 PCOD8276477
Probable space group: C C C M
;
_chemical_formula_sum "Si O2"
_cell_formula_units_Z 96
_cell_length_a 24.086401
_cell_length_b 24.310301
_cell_length_c 8.675864
_cell_angle_alpha 90.000000
_cell_angle_beta 90.000000
_cell_angle_gamma 90.000000
_cell_volume 5080.131849
_symmetry_space_group_name_H-M "C C C M"
_symmetry_group_IT_number 66
_symmetry_cell_setting 'orthorhombic'
loop_
_space_group_symop_operation_xyz
x,y,z
-x,-y,z
x,-y,1/2-z
-x,y,1/2-z
-x,-y,-z
x,y,-z
-x,y,1/2+z
x,-y,1/2+z
1/2+x,1/2+y,z
1/2-x,1/2-y,z
1/2+x,1/2-y,1/2-z
1/2-x,1/2+y,1/2-z
1/2-x,1/2-y,-z
1/2+x,1/2+y,-z
1/2-x,1/2+y,1/2+z
1/2+x,1/2-y,1/2+z
loop_
_atom_site_type_symbol
_atom_site_label
_atom_site_fract_x
_atom_site_fract_y
_atom_site_fract_z
Si Si1 0.649944 0.441785 0.318358
Si Si2 0.132764 0.224198 0.180830
Si Si3 0.939778 0.559064 0.184440
Si Si4 0.355183 0.847784 0.318383
Si Si5 0.060285 0.131904 0.319181
Si Si6 0.232434 0.152442 0.819172
O O1 0.666010 0.500000 0.250000
O O2 0.643742 0.445080 0.500000
O O3 0.592365 0.420333 0.249509
O O4 0.699219 0.401417 0.266777
O O5 0.121081 0.287543 0.221715
O O6 0.089057 0.189338 0.277052
O O7 0.195933 0.206286 0.227261
O O8 0.123865 0.211504 0.000000
O O9 0.920640 0.500000 0.250000
O O10 0.895960 0.604783 0.245881
O O11 0.000000 0.575207 0.250000
O O12 0.942659 0.556530 0.000000
O O13 0.351071 0.855644 0.500000
O O14 0.293548 0.850511 0.241969
O O15 0.057186 0.125230 0.500000
O O16 0.000000 0.131866 0.250000
O O17 0.242052 0.153842 0.000000
#
# Coordination Sequence:
#
# PCOD8276477 Si02
#       6
#    16  16  16  16  16  16
#     4  10  20  35  55  79 107 140 177 217 263 311
#     4   9  17  32  54  79 107 138 172 211 256 306
#     4  10  20  35  53  72  99 132 169 212 259 306
#     4   9  17  30  53  82 105 134 176 214 251 306
#     4  11  22  37  55  76 105 139 177 219 264 312
#     4   8  15  29  51  78 107 137 170 208 251 302
#
# _framework density 18.897148000000001
#
# number of rings (size 3 to 8) (size 9 to 14) (size 15 to 20)
#    0.000    2.500    0.000    4.500    0.000    3.667 
#    0.000    5.000    0.000   18.000    0.000    0.000 
#    0.000    0.000    0.000    0.000    0.000    0.000 
#
# Total GULP energy -595038.007789 kJ/mol
# GULP energy per Si atom -12396.625162 kJ/mol
# Density = 1.885414 g / cm^3
# Si number density = 18.897148 Si / 1000 Ang^3
#
#
#
# Elastic Constant Matrix: (Units=GPa)
#
#
# Indices 1 2 3 4 5 6 
#
# 1 76.9018 36.7476 6.5193 0.0000 0.0000 0.0000
# 2 36.7476 122.7468 21.3492 0.0000 0.0000 0.0000
# 3 6.5193 21.3492 84.2983 0.0000 0.0000 0.0000
# 4 0.0000 0.0000 0.0000 27.0708 0.0000 0.0000
# 5 0.0000 0.0000 0.0000 0.0000 17.1925 0.0000
# 6 0.0000 0.0000 0.0000 0.0000 0.0000 26.8321
#
#
#
# Elastic Compliance Matrix: (Units=1/GPa)
#
#
# Indices 1 2 3 4 5 6 
#
# 1 0.015174 -0.004539 -0.000024 0.000000 0.000000 0.000000
# 2 -0.004539 0.009880 -0.002151 0.000000 0.000000 0.000000
# 3 -0.000024 -0.002151 0.012409 0.000000 0.000000 0.000000
# 4 0.000000 0.000000 0.000000 0.036940 0.000000 0.000000
# 5 0.000000 0.000000 0.000000 0.000000 0.058165 0.000000
# 6 0.000000 0.000000 0.000000 0.000000 0.000000 0.037269
#
#
# Mechanical properties :
#
#
# Convention : Reuss Voigt Hill
#
# Bulk Modulus (GPa) = 41.60473 45.90878 43.75675
# Shear Modulus (GPa) = 26.14009 28.84113 27.49061
#
# Velocity S-wave (km/s) = 3.72329 3.91092 3.81826
# Velocity P-wave (km/s) = 6.36773 6.68883 6.53026
#
# Compressibility (1/GPa) = 0.02403573
#
# Stress axis : x y z
#
# Youngs Moduli (GPa) = 65.90019 101.21679 80.58483
#
# Poissons Ratio (x) = 0.45939 0.00194
# Poissons Ratio (y) = 0.29910 0.17335
# Poissons Ratio (z) = 0.00159 0.21773
#
# Static dielectric constant tensor:
#      x y z
#    x 3.700760 0.000000 0.000000 
#    y 0.000000 3.349040 0.000000 
#    z 0.000000 0.000000 3.193560 
# 
# 
# High freq. dielectric constant tensor:
#      x y z
#    x 1.738830 0.000000 0.000000 
#    y 0.000000 1.741310 0.000000 
#    z 0.000000 0.000000 1.706160 
# 
# From -- ./inp_files/9127.got.cif
#   From: 2010.03.12/outbox.cif.g09.slc.cpg/sg66_5_cif.got.tgz:9127.got - 2010.04.10 21:57:39.
