data_PCOD8276368
_publ_section_title
;
Structure prediction by ZEFSAII (Michael W. Deem and Ramdas Pophale) SiO2 
 PCOD8276368
Probable space group: C C C M
;
_chemical_formula_sum "Si O2"
_cell_formula_units_Z 120
_cell_length_a 25.768124
_cell_length_b 7.289185
_cell_length_c 25.962841
_cell_angle_alpha 90.000000
_cell_angle_beta 90.000000
_cell_angle_gamma 90.000000
_cell_volume 4876.564673
_symmetry_space_group_name_H-M "C C C M"
_symmetry_group_IT_number 66
_symmetry_cell_setting 'orthorhombic'
loop_
_space_group_symop_operation_xyz
x,y,z
-x,-y,z
x,-y,1/2-z
-x,y,1/2-z
-x,-y,-z
x,y,-z
-x,y,1/2+z
x,-y,1/2+z
1/2+x,1/2+y,z
1/2-x,1/2-y,z
1/2+x,1/2-y,1/2-z
1/2-x,1/2+y,1/2-z
1/2-x,1/2-y,-z
1/2+x,1/2+y,-z
1/2-x,1/2+y,1/2+z
1/2+x,1/2-y,1/2+z
loop_
_atom_site_type_symbol
_atom_site_label
_atom_site_fract_x
_atom_site_fract_y
_atom_site_fract_z
Si Si1 0.410712 0.314331 0.941629
Si Si2 0.124359 0.602026 0.058458
Si Si3 0.119533 0.838254 0.283893
Si Si4 0.181048 0.907471 0.623049
Si Si5 0.988427 0.787993 0.806493
Si Si6 0.017108 0.694427 0.911157
Si Si7 0.209621 0.494893 0.367054
Si Si8 0.676634 0.000000 0.250000
O O1 0.369001 0.448529 0.912916
O O2 0.471324 0.342750 0.924280
O O3 0.396122 0.102961 0.932438
O O4 0.405841 0.375037 0.000000
O O5 0.074760 0.740119 0.067036
O O6 0.169835 0.639252 0.101433
O O7 0.145619 0.628449 0.000000
O O8 0.164828 0.927458 0.317531
O O9 0.073030 0.757471 0.319085
O O10 0.141380 0.679452 0.247932
O O11 0.094215 0.000000 0.250000
O O12 0.197714 0.698429 0.613324
O O13 0.230356 0.045113 0.615716
O O14 0.000000 0.706219 0.750000
O O15 0.021887 0.680059 0.848953
O O16 0.000000 0.000000 0.810689
O O17 0.000000 0.500000 0.935335
O O18 0.208021 0.486818 0.304249
#
# Coordination Sequence:
#
# PCOD8276368 Si02
#       8
#    16  16  16  16  16  16  16   8
#     4   9  16  30  53  82 114 153 203 254 311 373
#     4   9  18  31  51  82 118 158 201 258 318 367
#     4  11  22  40  61  85 125 166 204 256 317 380
#     4   9  18  34  54  82 117 157 201 258 309 370
#     4  11  23  38  53  82 121 154 198 255 312 386
#     4  10  20  33  55  83 117 155 202 252 309 383
#     4   9  19  34  53  83 122 153 206 266 304 374
#     4  10  24  38  61  90 122 164 215 256 314 390
#
# _framework density 24.607486000000002
#
# number of rings (size 3 to 8) (size 9 to 14) (size 15 to 20)
#    0.000    2.267    2.667    0.400    4.667    2.400 
#    0.000    2.667    0.000    1.600    0.000    0.000 
#    0.000    3.200    0.000    0.267    0.000    0.000 
#
# Total GULP energy -743360.472420 kJ/mol
# GULP energy per Si atom -12389.341207 kJ/mol
# Density = 2.455148 g / cm^3
# Si number density = 24.607486 Si / 1000 Ang^3
#
#
#
# Elastic Constant Matrix: (Units=GPa)
#
#
# Indices 1 2 3 4 5 6 
#
# 1 203.2018 31.2577 78.8532 0.0000 0.0000 0.0000
# 2 31.2577 11.2617 17.2282 0.0000 0.0000 0.0000
# 3 78.8532 17.2282 147.2298 0.0000 0.0000 0.0000
# 4 0.0000 0.0000 0.0000 18.2207 0.0000 0.0000
# 5 0.0000 0.0000 0.0000 0.0000 128.6427 0.0000
# 6 0.0000 0.0000 0.0000 0.0000 0.0000 31.7964
#
#
#
# Elastic Compliance Matrix: (Units=1/GPa)
#
#
# Indices 1 2 3 4 5 6 
#
# 1 0.009219 -0.021966 -0.002367 0.000000 0.000000 0.000000
# 2 -0.021966 0.160499 -0.007016 0.000000 0.000000 0.000000
# 3 -0.002367 -0.007016 0.008881 0.000000 0.000000 0.000000
# 4 0.000000 0.000000 0.000000 0.054882 0.000000 0.000000
# 5 0.000000 0.000000 0.000000 0.000000 0.007773 0.000000
# 6 0.000000 0.000000 0.000000 0.000000 0.000000 0.031450
#
#
# Mechanical properties :
#
#
# Convention : Reuss Voigt Hill
#
# Bulk Modulus (GPa) = 8.62818 68.48573 38.55695
# Shear Modulus (GPa) = 13.36770 51.35558 32.36164
#
# Velocity S-wave (km/s) = 2.33327 4.57331 3.63038
# Velocity P-wave (km/s) = 3.28220 7.46851 5.76851
#
# Compressibility (1/GPa) = 0.11589931
#
# Stress axis : x y z
#
# Youngs Moduli (GPa) = 108.47534 6.23059 112.60250
#
# Poissons Ratio (x) = 0.13686 0.26652
# Poissons Ratio (y) = 2.38279 0.79005
# Poissons Ratio (z) = 0.25676 0.04372
#
# Static dielectric constant tensor:
#      x y z
#    x 4.837800 0.000000 0.000000 
#    y 0.000000 3.730300 0.000000 
#    z 0.000000 0.000000 4.297090 
# 
# 
# High freq. dielectric constant tensor:
#      x y z
#    x 1.987480 0.000000 0.000000 
#    y 0.000000 1.947340 0.000000 
#    z 0.000000 0.000000 1.971100 
# 
# From -- ./inp_files/66346.got.cif
#   From: 2010.03.12/outbox.cif.g09.slc.cpg/sg66_34_cif.got.tgz:66346.got - 2010.04.10 21:57:39.
