data_PCOD8276376
_publ_section_title
;
Structure prediction by ZEFSAII (Michael W. Deem and Ramdas Pophale) SiO2 
 PCOD8276376
Probable space group: C C C M
;
_chemical_formula_sum "Si O2"
_cell_formula_units_Z 96
_cell_length_a 24.499375
_cell_length_b 24.175379
_cell_length_c 8.902774
_cell_angle_alpha 90.000000
_cell_angle_beta 90.000000
_cell_angle_gamma 90.000000
_cell_volume 5272.949905
_symmetry_space_group_name_H-M "C C C M"
_symmetry_group_IT_number 66
_symmetry_cell_setting 'orthorhombic'
loop_
_space_group_symop_operation_xyz
x,y,z
-x,-y,z
x,-y,1/2-z
-x,y,1/2-z
-x,-y,-z
x,y,-z
-x,y,1/2+z
x,-y,1/2+z
1/2+x,1/2+y,z
1/2-x,1/2-y,z
1/2+x,1/2-y,1/2-z
1/2-x,1/2+y,1/2-z
1/2-x,1/2-y,-z
1/2+x,1/2+y,-z
1/2-x,1/2+y,1/2+z
1/2+x,1/2-y,1/2+z
loop_
_atom_site_type_symbol
_atom_site_label
_atom_site_fract_x
_atom_site_fract_y
_atom_site_fract_z
Si Si1 0.726903 0.363423 0.821252
Si Si2 0.442038 0.059380 0.680858
Si Si3 0.133560 0.058073 0.324651
Si Si4 0.847760 0.356415 0.178369
Si Si5 0.348075 0.267357 0.678723
Si Si6 0.443021 0.654920 0.174824
O O1 0.687212 0.411304 0.758323
O O2 0.788183 0.377196 0.766084
O O3 0.705398 0.302526 0.767505
O O4 0.723749 0.363356 0.000000
O O5 0.500000 0.078783 0.750000
O O6 0.446113 0.055370 0.500000
O O7 0.395957 0.103200 0.735363
O O8 0.425896 0.000000 0.750000
O O9 0.140999 0.049196 0.500000
O O10 0.080118 0.094213 0.288033
O O11 0.124632 0.000000 0.250000
O O12 0.852283 0.294434 0.245887
O O13 0.850293 0.354777 0.000000
O O14 0.346831 0.263922 0.500000
O O15 0.401374 0.299283 0.737035
O O16 0.500000 0.665016 0.250000
O O17 0.450817 0.662992 0.000000
#
# Coordination Sequence:
#
# PCOD8276376 Si02
#       6
#    16  16  16  16  16  16
#     4   8  14  26  44  67  95 121 146 183 229 271
#     4  10  20  34  50  68  93 122 153 188 226 268
#     4   9  18  31  46  66  92 121 153 189 228 269
#     4   9  16  26  46  73  93 116 152 187 221 269
#     4   8  14  26  44  67  95 121 146 183 229 271
#     4   9  18  31  46  66  92 121 153 189 228 269
#
# _framework density 18.206128
#
# number of rings (size 3 to 8) (size 9 to 14) (size 15 to 20)
#    0.000    3.167    0.000    3.500    0.000    4.333 
#    0.000    1.667    0.000    2.000    0.000    0.000 
#    0.000   10.667    0.000    0.000    0.000    0.000 
#
# Total GULP energy -594740.105159 kJ/mol
# GULP energy per Si atom -12390.418857 kJ/mol
# Density = 1.816469 g / cm^3
# Si number density = 18.206128 Si / 1000 Ang^3
#
#
#
# Elastic Constant Matrix: (Units=GPa)
#
#
# Indices 1 2 3 4 5 6 
#
# 1 124.0389 23.5354 16.6855 0.0000 0.0000 0.0000
# 2 23.5354 50.1996 8.4525 0.0000 0.0000 0.0000
# 3 16.6855 8.4525 18.1228 0.0000 0.0000 0.0000
# 4 0.0000 0.0000 0.0000 16.1178 0.0000 0.0000
# 5 0.0000 0.0000 0.0000 0.0000 19.7935 0.0000
# 6 0.0000 0.0000 0.0000 0.0000 0.0000 27.6731
#
#
#
# Elastic Compliance Matrix: (Units=1/GPa)
#
#
# Indices 1 2 3 4 5 6 
#
# 1 0.009679 -0.003296 -0.007374 0.000000 0.000000 0.000000
# 2 -0.003296 0.022741 -0.007571 0.000000 0.000000 0.000000
# 3 -0.007374 -0.007571 0.065500 0.000000 0.000000 0.000000
# 4 0.000000 0.000000 0.000000 0.062043 0.000000 0.000000
# 5 0.000000 0.000000 0.000000 0.000000 0.050522 0.000000
# 6 0.000000 0.000000 0.000000 0.000000 0.000000 0.036136
#
#
# Mechanical properties :
#
#
# Convention : Reuss Voigt Hill
#
# Bulk Modulus (GPa) = 16.27716 32.18981 24.23348
# Shear Modulus (GPa) = 16.46990 22.29606 19.38298
#
# Velocity S-wave (km/s) = 3.01098 3.50329 3.26642
# Velocity P-wave (km/s) = 4.58780 5.83808 5.25029
#
# Compressibility (1/GPa) = 0.06143577
#
# Stress axis : x y z
#
# Youngs Moduli (GPa) = 103.31189 43.97379 15.26723
#
# Poissons Ratio (x) = 0.14495 0.11259
# Poissons Ratio (y) = 0.34056 0.11559
# Poissons Ratio (z) = 0.76185 0.33294
#
# Static dielectric constant tensor:
#      x y z
#    x 3.341790 0.000000 0.000000 
#    y 0.000000 3.316160 0.000000 
#    z 0.000000 0.000000 2.829500 
# 
# 
# High freq. dielectric constant tensor:
#      x y z
#    x 1.715830 0.000000 0.000000 
#    y 0.000000 1.710460 0.000000 
#    z 0.000000 0.000000 1.649270 
# 
# From -- ./inp_files/9116.got.cif
#   From: 2010.03.12/outbox.cif.g09.slc.cpg/sg66_5_cif.got.tgz:9116.got - 2010.04.10 21:57:39.
