data_PCOD8276083
_publ_section_title
;
Structure prediction by ZEFSAII (Michael W. Deem and Ramdas Pophale) SiO2 
 PCOD8276083
Probable space group: C C C M
;
_chemical_formula_sum "Si O2"
_cell_formula_units_Z 80
_cell_length_a 16.494399
_cell_length_b 11.612213
_cell_length_c 19.357586
_cell_angle_alpha 90.000000
_cell_angle_beta 90.000000
_cell_angle_gamma 90.000000
_cell_volume 3707.683777
_symmetry_space_group_name_H-M "C C C M"
_symmetry_group_IT_number 66
_symmetry_cell_setting 'orthorhombic'
loop_
_space_group_symop_operation_xyz
x,y,z
-x,-y,z
x,-y,1/2-z
-x,y,1/2-z
-x,-y,-z
x,y,-z
-x,y,1/2+z
x,-y,1/2+z
1/2+x,1/2+y,z
1/2-x,1/2-y,z
1/2+x,1/2-y,1/2-z
1/2-x,1/2+y,1/2-z
1/2-x,1/2-y,-z
1/2+x,1/2+y,-z
1/2-x,1/2+y,1/2+z
1/2+x,1/2-y,1/2+z
loop_
_atom_site_type_symbol
_atom_site_label
_atom_site_fract_x
_atom_site_fract_y
_atom_site_fract_z
Si Si1 0.702781 0.435927 0.641171
Si Si2 0.141844 0.817446 0.144129
Si Si3 0.045031 0.305503 0.000000
Si Si4 0.135303 0.314909 0.500000
Si Si5 0.750000 0.250000 0.744198
Si Si6 0.972037 0.119762 0.613243
Si Si7 0.290248 0.055555 0.000000
O O1 0.703621 0.573587 0.649278
O O2 0.753398 0.366096 0.698135
O O3 0.609925 0.399132 0.655301
O O4 0.738554 0.402874 0.565972
O O5 0.149839 0.763165 0.067731
O O6 0.171435 0.735648 0.206005
O O7 0.048314 0.846569 0.161265
O O8 0.050676 0.223654 0.064823
O O9 0.119141 0.393499 0.000000
O O10 0.956517 0.366773 0.000000
O O11 0.199578 0.417878 0.500000
O O12 0.000000 0.000000 0.574793
#
# Coordination Sequence:
#
# PCOD8276083 Si02
#       7
#    16  16   8   8   8  16   8
#     4  11  23  38  61  91 121 155 197 249 306 361
#     4  10  22  41  64  87 117 157 203 249 297 360
#     4  10  19  34  57  90 124 156 196 248 306 365
#     4  10  22  41  64  85 114 163 213 247 293 364
#     4  12  24  38  56  88 124 152 190 242 304 364
#     4   9  19  37  60  86 117 156 201 250 303 360
#     4  12  23  37  60  90 126 159 197 252 307 360
#
# _framework density 21.576813000000001
#
# number of rings (size 3 to 8) (size 9 to 14) (size 15 to 20)
#    0.000    1.600    0.000    4.800    0.000    6.400 
#    0.000    3.000    0.000    0.000    0.000    2.800 
#    0.000    0.000    0.000    0.000    0.000    0.000 
#
# Total GULP energy -495593.010094 kJ/mol
# GULP energy per Si atom -12389.825252 kJ/mol
# Density = 2.152770 g / cm^3
# Si number density = 21.576813 Si / 1000 Ang^3
#
#
#
# Elastic Constant Matrix: (Units=GPa)
#
#
# Indices 1 2 3 4 5 6 
#
# 1 132.2343 57.9990 66.1949 0.0000 0.0000 0.0000
# 2 57.9990 95.2229 51.6928 0.0000 0.0000 0.0000
# 3 66.1949 51.6928 141.4575 0.0000 0.0000 0.0000
# 4 0.0000 0.0000 0.0000 38.6397 0.0000 0.0000
# 5 0.0000 0.0000 0.0000 0.0000 16.6614 0.0000
# 6 0.0000 0.0000 0.0000 0.0000 0.0000 40.0967
#
#
#
# Elastic Compliance Matrix: (Units=1/GPa)
#
#
# Indices 1 2 3 4 5 6 
#
# 1 0.011590 -0.005133 -0.003548 0.000000 0.000000 0.000000
# 2 -0.005133 0.015374 -0.003216 0.000000 0.000000 0.000000
# 3 -0.003548 -0.003216 0.009905 0.000000 0.000000 0.000000
# 4 0.000000 0.000000 0.000000 0.025880 0.000000 0.000000
# 5 0.000000 0.000000 0.000000 0.000000 0.060019 0.000000
# 6 0.000000 0.000000 0.000000 0.000000 0.000000 0.024940
#
#
# Mechanical properties :
#
#
# Convention : Reuss Voigt Hill
#
# Bulk Modulus (GPa) = 76.48385 80.07647 78.28016
# Shear Modulus (GPa) = 28.43181 31.94809 30.18995
#
# Velocity S-wave (km/s) = 3.63395 3.85212 3.74463
# Velocity P-wave (km/s) = 7.28915 7.54837 7.41989
#
# Compressibility (1/GPa) = 0.01307466
#
# Stress axis : x y z
#
# Youngs Moduli (GPa) = 86.28356 65.04406 100.96359
#
# Poissons Ratio (x) = 0.33389 0.35817
# Poissons Ratio (y) = 0.44292 0.32470
# Poissons Ratio (z) = 0.30609 0.20919
#
# Static dielectric constant tensor:
#      x y z
#    x 4.215200 0.000000 0.000000 
#    y 0.000000 3.951490 0.000000 
#    z 0.000000 0.000000 3.744920 
# 
# 
# High freq. dielectric constant tensor:
#      x y z
#    x 1.858190 0.000000 0.000000 
#    y 0.000000 1.844570 0.000000 
#    z 0.000000 0.000000 1.831220 
# 
# From -- ./inp_files/50865.got.cif
#   From: 2010.03.12/outbox.cif.g09.slc.cpg/sg66_26_cif.got.tgz:50865.got - 2010.04.10 21:57:39.
