data_PCOD8276916
_publ_section_title
;
Structure prediction by ZEFSAII (Michael W. Deem and Ramdas Pophale) SiO2 
 PCOD8276916
Probable space group: C C C M
;
_chemical_formula_sum "Si O2"
_cell_formula_units_Z 96
_cell_length_a 19.955048
_cell_length_b 27.536750
_cell_length_c 9.885716
_cell_angle_alpha 90.000000
_cell_angle_beta 90.000000
_cell_angle_gamma 90.000000
_cell_volume 5432.172946
_symmetry_space_group_name_H-M "C C C M"
_symmetry_group_IT_number 66
_symmetry_cell_setting 'orthorhombic'
loop_
_space_group_symop_operation_xyz
x,y,z
-x,-y,z
x,-y,1/2-z
-x,y,1/2-z
-x,-y,-z
x,y,-z
-x,y,1/2+z
x,-y,1/2+z
1/2+x,1/2+y,z
1/2-x,1/2-y,z
1/2+x,1/2-y,1/2-z
1/2-x,1/2+y,1/2-z
1/2-x,1/2-y,-z
1/2+x,1/2+y,-z
1/2-x,1/2+y,1/2+z
1/2+x,1/2-y,1/2+z
loop_
_atom_site_type_symbol
_atom_site_label
_atom_site_fract_x
_atom_site_fract_y
_atom_site_fract_z
Si Si1 0.087272 0.750928 0.500000
Si Si2 0.197789 0.294991 0.500000
Si Si3 0.556406 0.576634 0.846955
Si Si4 0.097841 0.179507 0.246637
Si Si5 0.560372 0.736858 0.500000
Si Si6 0.214422 0.300970 0.000000
Si Si7 0.242598 0.147307 0.735352
Si Si8 0.707412 0.454075 0.338705
O O1 0.108532 0.781010 0.368610
O O2 0.133643 0.703148 0.500000
O O3 0.009856 0.733815 0.500000
O O4 0.250000 0.250000 0.500000
O O5 0.122743 0.273610 0.500000
O O6 0.205679 0.331155 0.626625
O O7 0.500000 0.552723 0.750000
O O8 0.560056 0.633750 0.815974
O O9 0.627658 0.551613 0.823793
O O10 0.531637 0.569383 0.000000
O O11 0.056068 0.202590 0.368923
O O12 0.168739 0.163685 0.310374
O O13 0.250000 0.250000 0.000000
O O14 0.239609 0.330638 0.124037
O O15 0.245423 0.089551 0.760718
O O16 0.730370 0.500000 0.250000
O O17 0.726186 0.457821 0.500000
#
# Coordination Sequence:
#
# PCOD8276916 Si02
#       8
#     8   8  16  16   8   8  16  16
#     4  12  22  32  52  78 110 152 187 227 274 312
#     4  12  22  38  55  82 117 154 190 229 274 337
#     4  10  21  35  52  76 107 146 190 233 285 334
#     4  11  20  34  50  74 110 150 193 235 267 318
#     4  12  24  34  48  78 118 150 191 229 270 324
#     4  12  20  34  61  80 109 152 190 229 270 335
#     4  11  21  38  58  83 108 148 196 233 275 335
#     4  10  23  41  60  82 108 139 185 245 297 337
#
# _framework density 17.672485999999999
#
# number of rings (size 3 to 8) (size 9 to 14) (size 15 to 20)
#    0.000    1.000    5.000    3.000    2.333    1.000 
#    0.000    1.667    0.000    0.000    0.000    0.000 
#    0.000    4.000    0.000    0.000    0.000    0.000 
#
# Total GULP energy -595072.482119 kJ/mol
# GULP energy per Si atom -12397.343377 kJ/mol
# Density = 1.763226 g / cm^3
# Si number density = 17.672486 Si / 1000 Ang^3
#
#
#
# Elastic Constant Matrix: (Units=GPa)
#
#
# Indices 1 2 3 4 5 6 
#
# 1 60.4265 26.6148 -1.0394 0.0000 0.0000 0.0000
# 2 26.6148 97.5524 38.8454 0.0000 0.0000 0.0000
# 3 -1.0394 38.8454 104.3015 0.0000 0.0000 0.0000
# 4 0.0000 0.0000 0.0000 30.1334 0.0000 0.0000
# 5 0.0000 0.0000 0.0000 0.0000 25.5662 0.0000
# 6 0.0000 0.0000 0.0000 0.0000 0.0000 11.1418
#
#
#
# Elastic Compliance Matrix: (Units=1/GPa)
#
#
# Indices 1 2 3 4 5 6 
#
# 1 0.019365 -0.006293 0.002537 0.000000 0.000000 0.000000
# 2 -0.006293 0.014081 -0.005307 0.000000 0.000000 0.000000
# 3 0.002537 -0.005307 0.011589 0.000000 0.000000 0.000000
# 4 0.000000 0.000000 0.000000 0.033186 0.000000 0.000000
# 5 0.000000 0.000000 0.000000 0.000000 0.039114 0.000000
# 6 0.000000 0.000000 0.000000 0.000000 0.000000 0.089752
#
#
# Mechanical properties :
#
#
# Convention : Reuss Voigt Hill
#
# Bulk Modulus (GPa) = 37.16357 43.45799 40.31078
# Shear Modulus (GPa) = 21.35076 26.55891 23.95483
#
# Velocity S-wave (km/s) = 3.47960 3.88085 3.68569
# Velocity P-wave (km/s) = 6.10067 6.68771 6.40092
#
# Compressibility (1/GPa) = 0.02690807
#
# Stress axis : x y z
#
# Youngs Moduli (GPa) = 51.64075 71.01709 86.28597
#
# Poissons Ratio (x) = 0.44693 -0.21889
# Poissons Ratio (y) = 0.32499 0.45792
# Poissons Ratio (z) = -0.13100 0.37689
#
# Static dielectric constant tensor:
#      x y z
#    x 3.282420 0.000000 0.000000 
#    y 0.000000 2.467530 0.000000 
#    z 0.000000 0.000000 1.826380 
# 
# 
# High freq. dielectric constant tensor:
#      x y z
#    x 1.658710 0.000000 0.000000 
#    y 0.000000 1.661800 0.000000 
#    z 0.000000 0.000000 1.704960 
# 
# From -- ./inp_files/9203.got.cif
#   From: 2010.03.12/outbox.cif.g09.slc.cpg/sg66_5_cif.got.tgz:9203.got - 2010.04.10 21:57:39.
