data_PCOD8276625
_publ_section_title
;
Structure prediction by ZEFSAII (Michael W. Deem and Ramdas Pophale) SiO2 
 PCOD8276625
Probable space group: C C C M
;
_chemical_formula_sum "Si O2"
_cell_formula_units_Z 104
_cell_length_a 22.251916
_cell_length_b 9.918170
_cell_length_c 23.998005
_cell_angle_alpha 90.000000
_cell_angle_beta 90.000000
_cell_angle_gamma 90.000000
_cell_volume 5296.318564
_symmetry_space_group_name_H-M "C C C M"
_symmetry_group_IT_number 66
_symmetry_cell_setting 'orthorhombic'
loop_
_space_group_symop_operation_xyz
x,y,z
-x,-y,z
x,-y,1/2-z
-x,y,1/2-z
-x,-y,-z
x,y,-z
-x,y,1/2+z
x,-y,1/2+z
1/2+x,1/2+y,z
1/2-x,1/2-y,z
1/2+x,1/2-y,1/2-z
1/2-x,1/2+y,1/2-z
1/2-x,1/2-y,-z
1/2+x,1/2+y,-z
1/2-x,1/2+y,1/2+z
1/2+x,1/2-y,1/2+z
loop_
_atom_site_type_symbol
_atom_site_label
_atom_site_fract_x
_atom_site_fract_y
_atom_site_fract_z
Si Si1 0.815296 0.798739 0.064624
Si Si2 0.800798 0.348678 0.745206
Si Si3 0.000000 0.000000 0.875731
Si Si4 0.623149 0.424969 0.935100
Si Si5 0.615501 0.113913 0.356608
Si Si6 0.499905 0.231038 0.815808
Si Si7 0.632870 0.185793 0.855989
O O1 0.750000 0.750000 0.086967
O O2 0.867246 0.717382 0.095409
O O3 0.828001 0.956767 0.075743
O O4 0.821336 0.763756 0.000000
O O5 0.774699 0.500000 0.750000
O O6 0.750000 0.250000 0.721635
O O7 0.855388 0.346368 0.702292
O O8 0.822476 0.290734 0.804449
O O9 0.020456 0.120590 0.835246
O O10 0.943313 0.036767 0.914314
O O11 0.649028 0.292629 0.904057
O O12 0.618415 0.390478 0.000000
O O13 0.544359 0.121942 0.344570
O O14 0.637355 0.967567 0.377763
O O15 0.500000 0.217278 0.750000
O O16 0.565685 0.204389 0.836719
#
# Coordination Sequence:
#
# PCOD8276625 Si02
#       7
#    16  16   8  16  16  16  16
#     4  10  22  41  64  88 116 158 208 250 295 353
#     4  10  22  39  56  83 115 156 195 243 300 358
#     4  10  20  36  58  90 120 156 196 246 300 360
#     4  10  21  39  61  86 119 157 198 248 302 354
#     4  11  21  38  60  87 120 157 197 246 302 361
#     4  11  20  36  59  89 124 156 197 242 299 365
#     4  10  23  36  58  88 120 155 195 241 306 362
#
# _framework density 19.636281
#
# number of rings (size 3 to 8) (size 9 to 14) (size 15 to 20)
#    0.000    1.692    3.077    1.385    0.000    4.923 
#    0.000    0.000    0.000    6.000    0.000    0.000 
#    0.000    0.000    0.000    0.000    0.000    0.000 
#
# Total GULP energy -644855.155541 kJ/mol
# GULP energy per Si atom -12401.060683 kJ/mol
# Density = 1.959159 g / cm^3
# Si number density = 19.636281 Si / 1000 Ang^3
#
#
#
# Elastic Constant Matrix: (Units=GPa)
#
#
# Indices 1 2 3 4 5 6 
#
# 1 74.4035 36.1245 24.1236 0.0000 0.0000 0.0000
# 2 36.1245 105.0783 52.2219 0.0000 0.0000 0.0000
# 3 24.1236 52.2219 88.5091 0.0000 0.0000 0.0000
# 4 0.0000 0.0000 0.0000 33.7259 0.0000 0.0000
# 5 0.0000 0.0000 0.0000 0.0000 19.0113 0.0000
# 6 0.0000 0.0000 0.0000 0.0000 0.0000 31.1377
#
#
#
# Elastic Compliance Matrix: (Units=1/GPa)
#
#
# Indices 1 2 3 4 5 6 
#
# 1 0.016293 -0.004803 -0.001607 0.000000 0.000000 0.000000
# 2 -0.004803 0.014881 -0.007471 0.000000 0.000000 0.000000
# 3 -0.001607 -0.007471 0.016144 0.000000 0.000000 0.000000
# 4 0.000000 0.000000 0.000000 0.029651 0.000000 0.000000
# 5 0.000000 0.000000 0.000000 0.000000 0.052600 0.000000
# 6 0.000000 0.000000 0.000000 0.000000 0.000000 0.032115
#
#
# Mechanical properties :
#
#
# Convention : Reuss Voigt Hill
#
# Bulk Modulus (GPa) = 51.13326 54.77011 52.95169
# Shear Modulus (GPa) = 25.51481 27.14304 26.32893
#
# Velocity S-wave (km/s) = 3.60859 3.72195 3.66571
# Velocity P-wave (km/s) = 6.59237 6.81347 6.70383
#
# Compressibility (1/GPa) = 0.01955674
#
# Stress axis : x y z
#
# Youngs Moduli (GPa) = 61.37571 67.20128 61.94150
#
# Poissons Ratio (x) = 0.32274 0.09955
# Poissons Ratio (y) = 0.29476 0.46276
# Poissons Ratio (z) = 0.09864 0.50205
#
# Static dielectric constant tensor:
#      x y z
#    x 3.510720 0.000000 0.000000 
#    y 0.000000 3.942060 0.000000 
#    z 0.000000 0.000000 5.826040 
# 
# 
# High freq. dielectric constant tensor:
#      x y z
#    x 1.764710 0.000000 0.000000 
#    y 0.000000 1.773820 0.000000 
#    z 0.000000 0.000000 1.761710 
# 
# From -- ./inp_files/66062.got.cif
#   From: 2010.03.12/outbox.cif.g09.slc.cpg/sg66_34_cif.got.tgz:66062.got - 2010.04.10 21:57:39.
