data_PCOD8276033
_publ_section_title
;
Structure prediction by ZEFSAII (Michael W. Deem and Ramdas Pophale) SiO2 
 PCOD8276033
Probable space group: C C C M
;
_chemical_formula_sum "Si O2"
_cell_formula_units_Z 104
_cell_length_a 25.452146
_cell_length_b 23.325243
_cell_length_c 8.915954
_cell_angle_alpha 90.000000
_cell_angle_beta 90.000000
_cell_angle_gamma 90.000000
_cell_volume 5293.201195
_symmetry_space_group_name_H-M "C C C M"
_symmetry_group_IT_number 66
_symmetry_cell_setting 'orthorhombic'
loop_
_space_group_symop_operation_xyz
x,y,z
-x,-y,z
x,-y,1/2-z
-x,y,1/2-z
-x,-y,-z
x,y,-z
-x,y,1/2+z
x,-y,1/2+z
1/2+x,1/2+y,z
1/2-x,1/2-y,z
1/2+x,1/2-y,1/2-z
1/2-x,1/2+y,1/2-z
1/2-x,1/2-y,-z
1/2+x,1/2+y,-z
1/2-x,1/2+y,1/2+z
1/2+x,1/2-y,1/2+z
loop_
_atom_site_type_symbol
_atom_site_label
_atom_site_fract_x
_atom_site_fract_y
_atom_site_fract_z
Si Si1 0.422347 0.945751 0.665464
Si Si2 0.556660 0.342442 0.820130
Si Si3 0.752591 0.940207 0.826688
Si Si4 0.500000 0.145159 0.250000
Si Si5 0.907660 0.721845 0.666026
Si Si6 0.164342 0.376474 0.678978
Si Si7 0.874975 0.940044 0.825249
O O1 0.402887 0.963058 0.500000
O O2 0.465155 0.895532 0.644142
O O3 0.372748 0.927580 0.765458
O O4 0.447997 0.000000 0.750000
O O5 0.500000 0.353224 0.750000
O O6 0.580501 0.282521 0.753780
O O7 0.594670 0.392045 0.765913
O O8 0.552019 0.341721 0.000000
O O9 0.721780 0.887353 0.748723
O O10 0.813672 0.926984 0.804897
O O11 0.736837 0.000000 0.750000
O O12 0.736925 0.944101 0.000000
O O13 0.461139 0.184928 0.345712
O O14 0.888880 0.736902 0.500000
O O15 0.860503 0.684063 0.740041
O O16 0.166971 0.376556 0.500000
O O17 0.890375 0.000000 0.750000
O O18 0.891188 0.940781 0.000000
#
# Coordination Sequence:
#
# PCOD8276033 Si02
#       7
#    16  16  16   8  16  16  16
#     4  11  22  33  48  71 104 144 188 240 293 342
#     4  11  22  39  63  90 120 153 190 232 282 340
#     4  10  20  36  59  85 115 150 191 237 289 345
#     4  10  19  34  52  72 101 140 190 236 288 338
#     4   9  19  35  54  79 110 147 191 235 280 333
#     4  10  20  35  55  79 111 149 194 240 282 334
#     4  10  22  41  64  92 121 150 185 229 283 343
#
# _framework density 19.647846000000001
#
# number of rings (size 3 to 8) (size 9 to 14) (size 15 to 20)
#    0.000    1.846    0.769    3.462    0.000    4.615 
#    0.000    4.615    0.000    4.615    0.000    0.000 
#    0.000    0.000    0.000    0.000    0.000    0.000 
#
# Total GULP energy -644577.161116 kJ/mol
# GULP energy per Si atom -12395.714637 kJ/mol
# Density = 1.960313 g / cm^3
# Si number density = 19.647846 Si / 1000 Ang^3
#
#
#
# Elastic Constant Matrix: (Units=GPa)
#
#
# Indices 1 2 3 4 5 6 
#
# 1 87.0969 65.4271 42.2471 0.0000 0.0000 0.0000
# 2 65.4271 137.9180 49.1706 0.0000 0.0000 0.0000
# 3 42.2471 49.1706 113.6649 0.0000 0.0000 0.0000
# 4 0.0000 0.0000 0.0000 22.6217 0.0000 0.0000
# 5 0.0000 0.0000 0.0000 0.0000 27.4216 0.0000
# 6 0.0000 0.0000 0.0000 0.0000 0.0000 24.1504
#
#
#
# Elastic Compliance Matrix: (Units=1/GPa)
#
#
# Indices 1 2 3 4 5 6 
#
# 1 0.019108 -0.007724 -0.003761 0.000000 0.000000 0.000000
# 2 -0.007724 0.011695 -0.002188 0.000000 0.000000 0.000000
# 3 -0.003761 -0.002188 0.011142 0.000000 0.000000 0.000000
# 4 0.000000 0.000000 0.000000 0.044205 0.000000 0.000000
# 5 0.000000 0.000000 0.000000 0.000000 0.036468 0.000000
# 6 0.000000 0.000000 0.000000 0.000000 0.000000 0.041407
#
#
# Mechanical properties :
#
#
# Convention : Reuss Voigt Hill
#
# Bulk Modulus (GPa) = 68.49692 72.48550 70.49121
# Shear Modulus (GPa) = 25.47935 26.96105 26.22020
#
# Velocity S-wave (km/s) = 3.60502 3.70836 3.65705
# Velocity P-wave (km/s) = 7.22954 7.43696 7.33398
#
# Compressibility (1/GPa) = 0.01459920
#
# Stress axis : x y z
#
# Youngs Moduli (GPa) = 52.33488 85.50690 89.74832
#
# Poissons Ratio (x) = 0.66043 0.33752
# Poissons Ratio (y) = 0.40422 0.19640
# Poissons Ratio (z) = 0.19682 0.18712
#
# Static dielectric constant tensor:
#      x y z
#    x 3.506640 0.000000 0.000000 
#    y 0.000000 3.662870 0.000000 
#    z 0.000000 0.000000 3.483310 
# 
# 
# High freq. dielectric constant tensor:
#      x y z
#    x 1.758190 0.000000 0.000000 
#    y 0.000000 1.762020 0.000000 
#    z 0.000000 0.000000 1.763310 
# 
# From -- ./inp_files/10533.got.cif
#   From: 2010.03.12/outbox.cif.g09.slc.cpg/sg66_6_cif.got.tgz:10533.got - 2010.04.10 21:57:39.
