data_PCOD8276094
_publ_section_title
;
Structure prediction by ZEFSAII (Michael W. Deem and Ramdas Pophale) SiO2 
 PCOD8276094
Probable space group: C C C M
;
_chemical_formula_sum "Si O2"
_cell_formula_units_Z 112
_cell_length_a 22.057627
_cell_length_b 15.712657
_cell_length_c 14.879905
_cell_angle_alpha 90.000000
_cell_angle_beta 90.000000
_cell_angle_gamma 90.000000
_cell_volume 5157.135913
_symmetry_space_group_name_H-M "C C C M"
_symmetry_group_IT_number 66
_symmetry_cell_setting 'orthorhombic'
loop_
_space_group_symop_operation_xyz
x,y,z
-x,-y,z
x,-y,1/2-z
-x,y,1/2-z
-x,-y,-z
x,y,-z
-x,y,1/2+z
x,-y,1/2+z
1/2+x,1/2+y,z
1/2-x,1/2-y,z
1/2+x,1/2-y,1/2-z
1/2-x,1/2+y,1/2-z
1/2-x,1/2-y,-z
1/2+x,1/2+y,-z
1/2-x,1/2+y,1/2+z
1/2+x,1/2-y,1/2+z
loop_
_atom_site_type_symbol
_atom_site_label
_atom_site_fract_x
_atom_site_fract_y
_atom_site_fract_z
Si Si1 0.914753 0.871741 0.664934
Si Si2 0.868702 0.597322 0.226497
Si Si3 0.894286 0.309362 0.100962
Si Si4 0.548894 0.644991 0.866259
Si Si5 0.741102 0.152013 0.606638
Si Si6 0.347709 0.529411 0.402343
Si Si7 0.966735 0.336378 0.401664
O O1 0.889022 0.792405 0.609041
O O2 0.923502 0.845235 0.767120
O O3 0.866716 0.949426 0.659817
O O4 0.981646 0.896140 0.628432
O O5 0.865760 0.500000 0.250000
O O6 0.855376 0.647736 0.319576
O O7 0.819084 0.619689 0.153017
O O8 0.933120 0.617211 0.179965
O O9 0.962038 0.343457 0.117503
O O10 0.871775 0.334350 0.000000
O O11 0.592621 0.584751 0.921898
O O12 0.550842 0.737779 0.908633
O O13 0.733558 0.145449 0.500000
O O14 0.750000 0.250000 0.635843
O O15 0.795880 0.090380 0.640331
O O16 0.326306 0.494932 0.500000
O O17 0.951365 0.376744 0.500000
#
# Coordination Sequence:
#
# PCOD8276094 Si02
#       7
#    16  16  16  16  16  16  16
#     4  10  20  35  58  91 136 174 208 251 316 396
#     4  12  25  42  65  94 126 166 215 277 328 384
#     4  10  22  40  63  95 133 172 209 254 326 404
#     4  10  19  34  58  92 132 174 211 254 311 389
#     4  10  24  47  70  92 120 164 226 282 329 382
#     4  11  22  35  58  92 126 164 215 271 321 379
#     4  10  20  38  65  94 128 171 216 263 318 383
#
# _framework density 21.717479999999998
#
# number of rings (size 3 to 8) (size 9 to 14) (size 15 to 20)
#    0.000    1.571    1.429    3.429    0.000    8.000 
#    0.000    1.429    0.000    0.429    0.000    0.000 
#    0.000    0.000    0.000    0.000    0.000    0.000 
#
# Total GULP energy -694177.382925 kJ/mol
# GULP energy per Si atom -12396.024695 kJ/mol
# Density = 2.166805 g / cm^3
# Si number density = 21.717480 Si / 1000 Ang^3
#
#
#
# Elastic Constant Matrix: (Units=GPa)
#
#
# Indices 1 2 3 4 5 6 
#
# 1 65.7807 36.0732 16.7541 0.0000 0.0000 0.0000
# 2 36.0732 88.6134 30.8303 0.0000 0.0000 0.0000
# 3 16.7541 30.8303 85.8490 0.0000 0.0000 0.0000
# 4 0.0000 0.0000 0.0000 54.8723 0.0000 0.0000
# 5 0.0000 0.0000 0.0000 0.0000 18.1493 0.0000
# 6 0.0000 0.0000 0.0000 0.0000 0.0000 21.1490
#
#
#
# Elastic Compliance Matrix: (Units=1/GPa)
#
#
# Indices 1 2 3 4 5 6 
#
# 1 0.019662 -0.007621 -0.001100 0.000000 0.000000 0.000000
# 2 -0.007621 0.015850 -0.004205 0.000000 0.000000 0.000000
# 3 -0.001100 -0.004205 0.013373 0.000000 0.000000 0.000000
# 4 0.000000 0.000000 0.000000 0.018224 0.000000 0.000000
# 5 0.000000 0.000000 0.000000 0.000000 0.055099 0.000000
# 6 0.000000 0.000000 0.000000 0.000000 0.000000 0.047283
#
#
# Mechanical properties :
#
#
# Convention : Reuss Voigt Hill
#
# Bulk Modulus (GPa) = 43.41666 45.28425 44.35046
# Shear Modulus (GPa) = 24.62792 29.27313 26.95052
#
# Velocity S-wave (km/s) = 3.37117 3.67537 3.52655
# Velocity P-wave (km/s) = 5.93195 6.23762 6.08670
#
# Compressibility (1/GPa) = 0.02303263
#
# Stress axis : x y z
#
# Youngs Moduli (GPa) = 50.86054 63.08977 74.77666
#
# Poissons Ratio (x) = 0.48082 0.08227
# Poissons Ratio (y) = 0.38762 0.31443
# Poissons Ratio (z) = 0.05596 0.26529
#
# Static dielectric constant tensor:
#      x y z
#    x 3.906740 0.000000 0.000000 
#    y 0.000000 3.862100 0.000000 
#    z 0.000000 0.000000 4.637270 
# 
# 
# High freq. dielectric constant tensor:
#      x y z
#    x 1.825240 0.000000 0.000000 
#    y 0.000000 1.843770 0.000000 
#    z 0.000000 0.000000 1.869700 
# 
# From -- ./inp_files/32492.got.cif
#   From: 2010.03.12/outbox.cif.g09.slc.cpg/sg66_17_cif.got.tgz:32492.got - 2010.04.10 21:57:39.
