data_PCOD8276562
_publ_section_title
;
Structure prediction by ZEFSAII (Michael W. Deem and Ramdas Pophale) SiO2 
 PCOD8276562
Probable space group: C C C M
;
_chemical_formula_sum "Si O2"
_cell_formula_units_Z 120
_cell_length_a 12.093658
_cell_length_b 26.219038
_cell_length_c 18.639320
_cell_angle_alpha 90.000000
_cell_angle_beta 90.000000
_cell_angle_gamma 90.000000
_cell_volume 5910.231609
_symmetry_space_group_name_H-M "C C C M"
_symmetry_group_IT_number 66
_symmetry_cell_setting 'orthorhombic'
loop_
_space_group_symop_operation_xyz
x,y,z
-x,-y,z
x,-y,1/2-z
-x,y,1/2-z
-x,-y,-z
x,y,-z
-x,y,1/2+z
x,-y,1/2+z
1/2+x,1/2+y,z
1/2-x,1/2-y,z
1/2+x,1/2-y,1/2-z
1/2-x,1/2+y,1/2-z
1/2-x,1/2-y,-z
1/2+x,1/2+y,-z
1/2-x,1/2+y,1/2+z
1/2+x,1/2-y,1/2+z
loop_
_atom_site_type_symbol
_atom_site_label
_atom_site_fract_x
_atom_site_fract_y
_atom_site_fract_z
Si Si1 0.071132 0.670498 0.374230
Si Si2 0.021311 0.774905 0.077139
Si Si3 0.916288 0.413010 0.810512
Si Si4 0.081267 0.851725 0.688023
Si Si5 0.869295 0.494487 0.079607
Si Si6 0.796293 0.323612 0.757230
Si Si7 0.740584 0.597466 0.918375
Si Si8 0.250000 0.250000 0.622296
O O1 0.111485 0.694988 0.299140
O O2 0.176744 0.645556 0.413936
O O3 0.023717 0.717191 0.419181
O O4 0.979793 0.626701 0.362198
O O5 0.154789 0.774841 0.074639
O O6 0.985158 0.812511 0.139235
O O7 0.981536 0.796540 0.000000
O O8 0.848848 0.453722 0.857840
O O9 0.818114 0.383663 0.769835
O O10 0.000000 0.436682 0.750000
O O11 0.173073 0.817422 0.727464
O O12 0.138369 0.895146 0.637596
O O13 0.000000 0.875130 0.750000
O O14 0.807990 0.546402 0.102369
O O15 0.000000 0.500000 0.076921
O O16 0.828260 0.476889 0.000000
O O17 0.812979 0.291405 0.828679
O O18 0.695407 0.593831 0.000000
#
# Coordination Sequence:
#
# PCOD8276562 Si02
#       8
#    16  16  16  16  16  16  16   8
#     4  10  20  35  58  88 127 162 199 249 309 367
#     4  12  25  38  58  88 122 163 209 256 313 371
#     4  10  20  36  58  93 130 161 199 252 312 374
#     4  11  23  42  63  84 117 168 213 260 311 359
#     4  10  20  36  60  92 129 167 195 242 320 384
#     4  10  21  36  59  89 115 156 208 254 302 361
#     4  10  21  39  62  93 127 160 207 254 306 378
#     4  12  21  38  58  84 121 158 210 256 307 364
#
# _framework density 20.303771999999999
#
# number of rings (size 3 to 8) (size 9 to 14) (size 15 to 20)
#    0.000    1.467    4.000    1.800    0.000    2.400 
#    0.000    3.333    0.000    1.600    0.000    1.867 
#    0.000    0.000    0.000    0.000    0.000    0.000 
#
# Total GULP energy -743634.960202 kJ/mol
# GULP energy per Si atom -12393.916003 kJ/mol
# Density = 2.025756 g / cm^3
# Si number density = 20.303772 Si / 1000 Ang^3
#
#
#
# Elastic Constant Matrix: (Units=GPa)
#
#
# Indices 1 2 3 4 5 6 
#
# 1 90.5812 35.6973 38.1308 0.0000 0.0000 0.0000
# 2 35.6973 84.5180 48.7001 0.0000 0.0000 0.0000
# 3 38.1308 48.7001 118.5053 0.0000 0.0000 0.0000
# 4 0.0000 0.0000 0.0000 34.0441 0.0000 0.0000
# 5 0.0000 0.0000 0.0000 0.0000 20.1209 0.0000
# 6 0.0000 0.0000 0.0000 0.0000 0.0000 25.0468
#
#
#
# Elastic Compliance Matrix: (Units=1/GPa)
#
#
# Indices 1 2 3 4 5 6 
#
# 1 0.013871 -0.004307 -0.002693 0.000000 0.000000 0.000000
# 2 -0.004307 0.016840 -0.005535 0.000000 0.000000 0.000000
# 3 -0.002693 -0.005535 0.011580 0.000000 0.000000 0.000000
# 4 0.000000 0.000000 0.000000 0.029374 0.000000 0.000000
# 5 0.000000 0.000000 0.000000 0.000000 0.049700 0.000000
# 6 0.000000 0.000000 0.000000 0.000000 0.000000 0.039925
#
#
# Mechanical properties :
#
#
# Convention : Reuss Voigt Hill
#
# Bulk Modulus (GPa) = 58.06858 59.85121 58.95989
# Shear Modulus (GPa) = 26.02834 27.24745 26.63789
#
# Velocity S-wave (km/s) = 3.58431 3.66729 3.62604
# Velocity P-wave (km/s) = 6.76696 6.89013 6.82882
#
# Compressibility (1/GPa) = 0.01722102
#
# Stress axis : x y z
#
# Youngs Moduli (GPa) = 72.09400 59.38280 86.35913
#
# Poissons Ratio (x) = 0.25574 0.23259
# Poissons Ratio (y) = 0.31048 0.47797
# Poissons Ratio (z) = 0.19417 0.32867
#
# Static dielectric constant tensor:
#      x y z
#    x 3.581770 0.000000 0.000000 
#    y 0.000000 3.485830 0.000000 
#    z 0.000000 0.000000 3.951600 
# 
# 
# High freq. dielectric constant tensor:
#      x y z
#    x 1.777730 0.000000 0.000000 
#    y 0.000000 1.764200 0.000000 
#    z 0.000000 0.000000 1.809350 
# 
# From -- ./inp_files/49079.got.cif
#   From: 2010.03.12/outbox.cif.g09.slc.cpg/sg66_25_cif.got.tgz:49079.got - 2010.04.10 21:57:39.
