data_PCOD8276549
_publ_section_title
;
Structure prediction by ZEFSAII (Michael W. Deem and Ramdas Pophale) SiO2 
 PCOD8276549
Probable space group: C C C M
;
_chemical_formula_sum "Si O2"
_cell_formula_units_Z 112
_cell_length_a 23.945900
_cell_length_b 15.926277
_cell_length_c 13.904359
_cell_angle_alpha 90.000000
_cell_angle_beta 90.000000
_cell_angle_gamma 90.000000
_cell_volume 5302.691994
_symmetry_space_group_name_H-M "C C C M"
_symmetry_group_IT_number 66
_symmetry_cell_setting 'orthorhombic'
loop_
_space_group_symop_operation_xyz
x,y,z
-x,-y,z
x,-y,1/2-z
-x,y,1/2-z
-x,-y,-z
x,y,-z
-x,y,1/2+z
x,-y,1/2+z
1/2+x,1/2+y,z
1/2-x,1/2-y,z
1/2+x,1/2-y,1/2-z
1/2-x,1/2+y,1/2-z
1/2-x,1/2-y,-z
1/2+x,1/2+y,-z
1/2-x,1/2+y,1/2+z
1/2+x,1/2-y,1/2+z
loop_
_atom_site_type_symbol
_atom_site_label
_atom_site_fract_x
_atom_site_fract_y
_atom_site_fract_z
Si Si1 0.116010 0.528932 0.112407
Si Si2 0.339634 0.554358 0.844793
Si Si3 0.555128 0.462885 0.607141
Si Si4 0.763839 0.539049 0.104422
Si Si5 0.063812 0.621833 0.721639
Si Si6 0.897607 0.786065 0.114027
Si Si7 0.208440 0.180515 0.221634
O O1 0.180567 0.509863 0.134917
O O2 0.099513 0.608042 0.180058
O O3 0.079076 0.448380 0.142476
O O4 0.105517 0.550116 0.000000
O O5 0.342893 0.500000 0.750000
O O6 0.398108 0.536542 0.897598
O O7 0.287022 0.526408 0.908459
O O8 0.329958 0.650793 0.811874
O O9 0.500000 0.500000 0.661022
O O10 0.537219 0.438662 0.500000
O O11 0.577592 0.375496 0.652406
O O12 0.748913 0.606790 0.184604
O O13 0.773499 0.582131 0.000000
O O14 0.073906 0.712787 0.675342
O O15 0.000000 0.612519 0.750000
O O16 0.831211 0.786762 0.135500
O O17 0.906076 0.772206 0.000000
O O18 0.250000 0.250000 0.261395
#
# Coordination Sequence:
#
# PCOD8276549 Si02
#       7
#    16  16  16  16  16  16  16
#     4  10  22  40  66  93 125 171 216 262 320 389
#     4  10  20  35  57  90 120 162 199 255 305 374
#     4  10  21  40  66  91 121 165 212 259 314 381
#     4  10  20  36  61  88 119 158 202 256 314 373
#     4  11  25  40  62  95 127 169 213 267 323 377
#     4  11  23  41  62  94 130 163 211 271 322 371
#     4  11  23  35  58  92 125 163 201 260 323 377
#
# _framework density 21.121347
#
# number of rings (size 3 to 8) (size 9 to 14) (size 15 to 20)
#    0.000    1.571    2.857    3.000    8.000    5.429 
#    0.000    0.000    0.000    3.429    0.000    0.000 
#    0.000    0.571    0.000    0.000    0.000    0.000 
#
# Total GULP energy -693997.616006 kJ/mol
# GULP energy per Si atom -12392.814572 kJ/mol
# Density = 2.107327 g / cm^3
# Si number density = 21.121347 Si / 1000 Ang^3
#
#
#
# Elastic Constant Matrix: (Units=GPa)
#
#
# Indices 1 2 3 4 5 6 
#
# 1 168.5560 61.5029 24.8738 0.0000 0.0000 0.0000
# 2 61.5029 105.0334 35.6117 0.0000 0.0000 0.0000
# 3 24.8738 35.6117 87.1797 0.0000 0.0000 0.0000
# 4 0.0000 0.0000 0.0000 30.1223 0.0000 0.0000
# 5 0.0000 0.0000 0.0000 0.0000 20.9254 0.0000
# 6 0.0000 0.0000 0.0000 0.0000 0.0000 25.8337
#
#
#
# Elastic Compliance Matrix: (Units=1/GPa)
#
#
# Indices 1 2 3 4 5 6 
#
# 1 0.007557 -0.004288 -0.000405 0.000000 0.000000 0.000000
# 2 -0.004288 0.013484 -0.004285 0.000000 0.000000 0.000000
# 3 -0.000405 -0.004285 0.013336 0.000000 0.000000 0.000000
# 4 0.000000 0.000000 0.000000 0.033198 0.000000 0.000000
# 5 0.000000 0.000000 0.000000 0.000000 0.047789 0.000000
# 6 0.000000 0.000000 0.000000 0.000000 0.000000 0.038709
#
#
# Mechanical properties :
#
#
# Convention : Reuss Voigt Hill
#
# Bulk Modulus (GPa) = 60.88971 67.19397 64.04184
# Shear Modulus (GPa) = 28.16863 31.29499 29.73181
#
# Velocity S-wave (km/s) = 3.65589 3.85343 3.75596
# Velocity P-wave (km/s) = 6.83460 7.18894 7.01401
#
# Compressibility (1/GPa) = 0.01642314
#
# Stress axis : x y z
#
# Youngs Moduli (GPa) = 132.32731 74.16018 74.98352
#
# Poissons Ratio (x) = 0.31799 0.03034
# Poissons Ratio (y) = 0.56740 0.32129
# Poissons Ratio (z) = 0.05354 0.31776
#
# Static dielectric constant tensor:
#      x y z
#    x 4.245890 0.000000 0.000000 
#    y 0.000000 3.988430 0.000000 
#    z 0.000000 0.000000 3.876720 
# 
# 
# High freq. dielectric constant tensor:
#      x y z
#    x 1.840510 0.000000 0.000000 
#    y 0.000000 1.803260 0.000000 
#    z 0.000000 0.000000 1.823050 
# 
# From -- ./inp_files/32470.got.cif
#   From: 2010.03.12/outbox.cif.g09.slc.cpg/sg66_17_cif.got.tgz:32470.got - 2010.04.10 21:57:39.
