data_PCOD8276762
_publ_section_title
;
Structure prediction by ZEFSAII (Michael W. Deem and Ramdas Pophale) SiO2 
 PCOD8276762
Probable space group: C C C M
;
_chemical_formula_sum "Si O2"
_cell_formula_units_Z 128
_cell_length_a 11.373158
_cell_length_b 21.877355
_cell_length_c 25.220813
_cell_angle_alpha 90.000000
_cell_angle_beta 90.000000
_cell_angle_gamma 90.000000
_cell_volume 6275.306878
_symmetry_space_group_name_H-M "C C C M"
_symmetry_group_IT_number 66
_symmetry_cell_setting 'orthorhombic'
loop_
_space_group_symop_operation_xyz
x,y,z
-x,-y,z
x,-y,1/2-z
-x,y,1/2-z
-x,-y,-z
x,y,-z
-x,y,1/2+z
x,-y,1/2+z
1/2+x,1/2+y,z
1/2-x,1/2-y,z
1/2+x,1/2-y,1/2-z
1/2-x,1/2+y,1/2-z
1/2-x,1/2-y,-z
1/2+x,1/2+y,-z
1/2-x,1/2+y,1/2+z
1/2+x,1/2-y,1/2+z
loop_
_atom_site_type_symbol
_atom_site_label
_atom_site_fract_x
_atom_site_fract_y
_atom_site_fract_z
Si Si1 0.190454 0.449442 0.708681
Si Si2 0.870914 0.853759 0.252378
Si Si3 0.319832 0.596950 0.557063
Si Si4 0.877260 0.232351 0.854209
Si Si5 0.246785 0.679561 0.349054
Si Si6 0.003855 0.348665 0.689496
Si Si7 0.863861 0.980737 0.382938
Si Si8 0.579755 0.637004 0.558854
O O1 0.141493 0.500000 0.750000
O O2 0.269106 0.402097 0.740854
O O3 0.078666 0.412284 0.683620
O O4 0.278740 0.481772 0.667821
O O5 0.868085 0.803780 0.298827
O O6 0.850052 0.823874 0.194862
O O7 0.000000 0.884730 0.250000
O O8 0.255231 0.603092 0.500000
O O9 0.271448 0.646464 0.596567
O O10 0.304134 0.528286 0.577454
O O11 0.456200 0.606889 0.548390
O O12 0.750000 0.250000 0.874915
O O13 0.944768 0.295447 0.846830
O O14 0.935035 0.195343 0.902758
O O15 0.250000 0.750000 0.364281
O O16 0.130353 0.645436 0.328284
O O17 0.000000 0.326856 0.750000
O O18 0.846816 0.914123 0.409129
O O19 0.000000 0.000000 0.368445
O O20 0.633855 0.652759 0.500000
#
# Coordination Sequence:
#
# PCOD8276762 Si02
#       8
#    16  16  16  16  16  16  16  16
#     4  12  26  40  61  95 132 175 217 269 325 388
#     4  12  23  38  62  94 129 163 209 268 327 396
#     4  10  22  41  63  91 124 166 218 271 328 386
#     4  12  21  39  62  88 125 167 213 264 328 397
#     4  12  24  41  66  96 125 171 219 267 329 397
#     4  12  24  44  61  90 131 174 216 261 327 412
#     4  10  21  39  63  93 129 168 215 267 327 389
#     4  10  20  37  63  95 127 163 210 272 336 391
#
# _framework density 20.397409
#
# number of rings (size 3 to 8) (size 9 to 14) (size 15 to 20)
#    0.000    0.750    3.750    4.875    3.500    2.250 
#    0.000    0.625    0.000    2.250    0.000    0.000 
#    0.000    0.000    0.000    0.000    0.000    0.000 
#
# Total GULP energy -793199.555979 kJ/mol
# GULP energy per Si atom -12393.743062 kJ/mol
# Density = 2.035098 g / cm^3
# Si number density = 20.397409 Si / 1000 Ang^3
#
#
#
# Elastic Constant Matrix: (Units=GPa)
#
#
# Indices 1 2 3 4 5 6 
#
# 1 68.0014 32.1787 23.1276 0.0000 0.0000 0.0000
# 2 32.1787 105.0261 59.6116 0.0000 0.0000 0.0000
# 3 23.1276 59.6116 151.3848 0.0000 0.0000 0.0000
# 4 0.0000 0.0000 0.0000 -79.0080 0.0000 0.0000
# 5 0.0000 0.0000 0.0000 0.0000 13.6213 0.0000
# 6 0.0000 0.0000 0.0000 0.0000 0.0000 0.9364
#
#
#
# Elastic Compliance Matrix: (Units=1/GPa)
#
#
# Indices 1 2 3 4 5 6 
#
# 1 0.017259 -0.004883 -0.000714 0.000000 0.000000 0.000000
# 2 -0.004883 0.013643 -0.004626 0.000000 0.000000 0.000000
# 3 -0.000714 -0.004626 0.008537 0.000000 0.000000 0.000000
# 4 0.000000 0.000000 0.000000 -0.012657 0.000000 0.000000
# 5 0.000000 0.000000 0.000000 0.000000 0.073414 0.000000
# 6 0.000000 0.000000 0.000000 0.000000 0.000000 1.067878
#
#
# Mechanical properties :
#
#
# Convention : Reuss Voigt Hill
#
# Bulk Modulus (GPa) = 52.65231 61.58312 57.11771
# Shear Modulus (GPa) = 4.18462 1.07624 2.63043
#
# Velocity S-wave (km/s) = 1.43388 0.72717 1.13683
# Velocity P-wave (km/s) = 5.34889 5.56437 5.45769
#
# Compressibility (1/GPa) = 0.01899252
#
# Stress axis : x y z
#
# Youngs Moduli (GPa) = 57.94108 73.29572 117.14318
#
# Poissons Ratio (x) = 0.35788 0.08365
# Poissons Ratio (y) = 0.28290 0.54196
# Poissons Ratio (z) = 0.04137 0.33910
#
# Static dielectric constant tensor:
#      x y z
#    x 3.816820 0.000000 0.000000 
#    y 0.000000 3.802260 0.000000 
#    z 0.000000 0.000000 4.126120 
# 
# 
# High freq. dielectric constant tensor:
#      x y z
#    x 1.786330 0.000000 0.000000 
#    y 0.000000 1.803350 0.000000 
#    z 0.000000 0.000000 1.794340 
# 
# From -- ./inp_files/57360.got.cif
#   From: 2010.03.12/outbox.cif.g09.slc.cpg/sg66_29_cif.got.tgz:57360.got - 2010.04.10 21:57:39.
