data_PCOD8276910
_publ_section_title
;
Structure prediction by ZEFSAII (Michael W. Deem and Ramdas Pophale) SiO2 
 PCOD8276910
Probable space group: C C C M
;
_chemical_formula_sum "Si O2"
_cell_formula_units_Z 88
_cell_length_a 19.441157
_cell_length_b 10.515720
_cell_length_c 20.252597
_cell_angle_alpha 90.000000
_cell_angle_beta 90.000000
_cell_angle_gamma 90.000000
_cell_volume 4140.395636
_symmetry_space_group_name_H-M "C C C M"
_symmetry_group_IT_number 66
_symmetry_cell_setting 'orthorhombic'
loop_
_space_group_symop_operation_xyz
x,y,z
-x,-y,z
x,-y,1/2-z
-x,y,1/2-z
-x,-y,-z
x,y,-z
-x,y,1/2+z
x,-y,1/2+z
1/2+x,1/2+y,z
1/2-x,1/2-y,z
1/2+x,1/2-y,1/2-z
1/2-x,1/2+y,1/2-z
1/2-x,1/2-y,-z
1/2+x,1/2+y,-z
1/2-x,1/2+y,1/2+z
1/2+x,1/2-y,1/2+z
loop_
_atom_site_type_symbol
_atom_site_label
_atom_site_fract_x
_atom_site_fract_y
_atom_site_fract_z
Si Si1 0.069657 0.661002 0.000000
Si Si2 0.602256 0.281842 0.623136
Si Si3 0.948816 0.207928 0.869455
Si Si4 0.250000 0.750000 0.185008
Si Si5 0.836554 0.974738 0.672525
Si Si6 0.387351 0.147754 0.257022
Si Si7 0.406865 0.877946 0.500000
O O1 0.090356 0.740563 0.934924
O O2 0.111562 0.527580 0.000000
O O3 0.988671 0.634412 0.000000
O O4 0.525396 0.335422 0.609881
O O5 0.659940 0.392308 0.632339
O O6 0.588452 0.200379 0.687736
O O7 0.626319 0.190767 0.563755
O O8 0.911216 0.086445 0.838572
O O9 0.943061 0.319560 0.814002
O O10 0.223047 0.876744 0.145079
O O11 0.313926 0.788539 0.229640
O O12 0.823969 0.000000 0.750000
O O13 0.378067 0.000000 0.250000
#
# Coordination Sequence:
#
# PCOD8276910 Si02
#       7
#     8  16  16   8  16  16   8
#     4   9  18  37  55  83 129 172 195 242 300 385
#     4  11  21  36  59  91 122 161 196 254 309 367
#     4  10  21  34  58  90 124 160 198 241 322 365
#     4  10  22  40  56  84 110 158 208 246 324 346
#     4  11  21  38  59  88 119 158 196 263 301 368
#     4  11  22  34  58  88 115 160 203 263 296 370
#     4   9  20  35  57  84 128 166 204 242 301 375
#
# _framework density 21.254006
#
# number of rings (size 3 to 8) (size 9 to 14) (size 15 to 20)
#    0.000    1.636    3.636    2.727    0.000    4.364 
#    0.000    2.727    0.000   14.182    0.000    0.000 
#    0.000    0.000    0.000    0.000    0.000    0.000 
#
# Total GULP energy -545208.557512 kJ/mol
# GULP energy per Si atom -12391.103580 kJ/mol
# Density = 2.120563 g / cm^3
# Si number density = 21.254006 Si / 1000 Ang^3
#
#
#
# Elastic Constant Matrix: (Units=GPa)
#
#
# Indices 1 2 3 4 5 6 
#
# 1 53.3649 21.0738 2.7390 0.0000 0.0000 0.0000
# 2 21.0738 123.2788 40.3541 0.0000 0.0000 0.0000
# 3 2.7390 40.3541 124.6563 0.0000 0.0000 0.0000
# 4 0.0000 0.0000 0.0000 24.5856 0.0000 0.0000
# 5 0.0000 0.0000 0.0000 0.0000 8.2423 0.0000
# 6 0.0000 0.0000 0.0000 0.0000 0.0000 27.4290
#
#
#
# Elastic Compliance Matrix: (Units=1/GPa)
#
#
# Indices 1 2 3 4 5 6 
#
# 1 0.020158 -0.003692 0.000752 0.000000 0.000000 0.000000
# 2 -0.003692 0.009749 -0.003075 0.000000 0.000000 0.000000
# 3 0.000752 -0.003075 0.009001 0.000000 0.000000 0.000000
# 4 0.000000 0.000000 0.000000 0.040674 0.000000 0.000000
# 5 0.000000 0.000000 0.000000 0.000000 0.121325 0.000000
# 6 0.000000 0.000000 0.000000 0.000000 0.000000 0.036458
#
#
# Mechanical properties :
#
#
# Convention : Reuss Voigt Hill
#
# Bulk Modulus (GPa) = 37.20378 47.73710 42.47044
# Shear Modulus (GPa) = 19.35319 27.86025 23.60672
#
# Velocity S-wave (km/s) = 3.02083 3.62446 3.33632
# Velocity P-wave (km/s) = 5.45065 6.32650 5.90484
#
# Compressibility (1/GPa) = 0.02687899
#
# Stress axis : x y z
#
# Youngs Moduli (GPa) = 49.60721 102.57008 111.09916
#
# Poissons Ratio (x) = 0.37871 -0.08358
# Poissons Ratio (y) = 0.18316 0.34163
# Poissons Ratio (z) = -0.03732 0.31540
#
# Static dielectric constant tensor:
#      x y z
#    x 3.612610 0.000000 0.000000 
#    y 0.000000 4.373470 0.000000 
#    z 0.000000 0.000000 3.985950 
# 
# 
# High freq. dielectric constant tensor:
#      x y z
#    x 1.804070 0.000000 0.000000 
#    y 0.000000 1.848540 0.000000 
#    z 0.000000 0.000000 1.813990 
# 
# From -- ./inp_files/42824.got.cif
#   From: 2010.03.12/outbox.cif.g09.slc.cpg/sg66_22_cif.got.tgz:42824.got - 2010.04.10 21:57:39.
