data_PCOD8276135
_publ_section_title
;
Structure prediction by ZEFSAII (Michael W. Deem and Ramdas Pophale) SiO2 
 PCOD8276135
Probable space group: C C C M
;
_chemical_formula_sum "Si O2"
_cell_formula_units_Z 116
_cell_length_a 29.105389
_cell_length_b 23.917717
_cell_length_c 9.039470
_cell_angle_alpha 90.000000
_cell_angle_beta 90.000000
_cell_angle_gamma 90.000000
_cell_volume 6292.686543
_symmetry_space_group_name_H-M "C C C M"
_symmetry_group_IT_number 66
_symmetry_cell_setting 'orthorhombic'
loop_
_space_group_symop_operation_xyz
x,y,z
-x,-y,z
x,-y,1/2-z
-x,y,1/2-z
-x,-y,-z
x,y,-z
-x,y,1/2+z
x,-y,1/2+z
1/2+x,1/2+y,z
1/2-x,1/2-y,z
1/2+x,1/2-y,1/2-z
1/2-x,1/2+y,1/2-z
1/2-x,1/2-y,-z
1/2+x,1/2+y,-z
1/2-x,1/2+y,1/2+z
1/2+x,1/2-y,1/2+z
loop_
_atom_site_type_symbol
_atom_site_label
_atom_site_fract_x
_atom_site_fract_y
_atom_site_fract_z
Si Si1 0.364424 0.342892 0.329116
Si Si2 0.500000 0.500000 0.250000
Si Si3 0.875091 0.444099 0.668406
Si Si4 0.395184 0.221032 0.666757
Si Si5 0.185802 0.640786 0.825544
Si Si6 0.090159 0.946897 0.666888
Si Si7 0.730674 0.689420 0.824482
Si Si8 0.543821 0.857332 0.835807
O O1 0.354500 0.358783 0.500000
O O2 0.395104 0.287471 0.318949
O O3 0.394408 0.391350 0.252966
O O4 0.317282 0.328361 0.247198
O O5 0.465561 0.542088 0.339308
O O6 0.889946 0.500000 0.750000
O O7 0.858256 0.454408 0.500000
O O8 0.835412 0.416682 0.766901
O O9 0.919392 0.405793 0.669150
O O10 0.404634 0.201165 0.500000
O O11 0.346755 0.193475 0.717134
O O12 0.436712 0.199627 0.766448
O O13 0.233008 0.645200 0.736640
O O14 0.195269 0.637493 0.000000
O O15 0.108739 0.942731 0.500000
O O16 0.113545 0.000000 0.750000
O O17 0.750000 0.750000 0.774300
O O18 0.725653 0.685757 0.000000
O O19 0.500000 0.879996 0.750000
O O20 0.528585 0.842028 0.000000
#
# Coordination Sequence:
#
# PCOD8276135 Si02
#       8
#    16   4  16  16  16  16  16  16
#     4  11  22  37  59  88 120 153 193 240 288 343
#     4   8  22  40  70  88 114 156 198 244 292 356
#     4  10  21  37  57  82 109 144 188 235 283 337
#     4   9  19  35  55  80 112 149 186 229 282 339
#     4  10  19  35  58  82 112 150 189 232 279 333
#     4  10  21  39  63  89 117 152 195 240 291 347
#     4  11  22  35  56  86 120 156 193 233 279 338
#     4  10  21  36  55  78 109 146 186 233 286 341
#
# _framework density 18.434099
#
# number of rings (size 3 to 8) (size 9 to 14) (size 15 to 20)
#    0.414    1.517    1.379    2.690    0.000    4.138 
#    1.241    2.069    0.000    0.000    0.000    0.000 
#    0.000    0.000    0.000    0.000    0.000    0.000 
#
# Total GULP energy -718944.876590 kJ/mol
# GULP energy per Si atom -12395.601321 kJ/mol
# Density = 1.839214 g / cm^3
# Si number density = 18.434099 Si / 1000 Ang^3
#
#
#
# Elastic Constant Matrix: (Units=GPa)
#
#
# Indices 1 2 3 4 5 6 
#
# 1 81.2434 32.8116 43.8364 0.0000 0.0000 0.0000
# 2 32.8116 95.7136 52.1314 0.0000 0.0000 0.0000
# 3 43.8364 52.1314 124.9214 0.0000 0.0000 0.0000
# 4 0.0000 0.0000 0.0000 31.1200 0.0000 0.0000
# 5 0.0000 0.0000 0.0000 0.0000 31.7729 0.0000
# 6 0.0000 0.0000 0.0000 0.0000 0.0000 17.9012
#
#
#
# Elastic Compliance Matrix: (Units=1/GPa)
#
#
# Indices 1 2 3 4 5 6 
#
# 1 0.015870 -0.003115 -0.004269 0.000000 0.000000 0.000000
# 2 -0.003115 0.014133 -0.004805 0.000000 0.000000 0.000000
# 3 -0.004269 -0.004805 0.011508 0.000000 0.000000 0.000000
# 4 0.000000 0.000000 0.000000 0.032134 0.000000 0.000000
# 5 0.000000 0.000000 0.000000 0.000000 0.031473 0.000000
# 6 0.000000 0.000000 0.000000 0.000000 0.000000 0.055862
#
#
# Mechanical properties :
#
#
# Convention : Reuss Voigt Hill
#
# Bulk Modulus (GPa) = 58.36604 62.15971 60.26287
# Shear Modulus (GPa) = 26.16854 27.69875 26.93364
#
# Velocity S-wave (km/s) = 3.77181 3.88052 3.82655
# Velocity P-wave (km/s) = 7.12035 7.33969 7.23086
#
# Compressibility (1/GPa) = 0.01713325
#
# Stress axis : x y z
#
# Youngs Moduli (GPa) = 63.01081 70.75817 86.89548
#
# Poissons Ratio (x) = 0.22044 0.37096
# Poissons Ratio (y) = 0.19630 0.41749
# Poissons Ratio (z) = 0.26899 0.33996
#
# Static dielectric constant tensor:
#      x y z
#    x 3.237510 0.000000 0.000000 
#    y 0.000000 3.302090 0.000000 
#    z 0.000000 0.000000 3.578140 
# 
# 
# High freq. dielectric constant tensor:
#      x y z
#    x 1.702920 0.000000 0.000000 
#    y 0.000000 1.705870 0.000000 
#    z 0.000000 0.000000 1.731060 
# 
# From -- ./inp_files/11718.got.cif
#   From: 2010.03.12/outbox.cif.g09.slc.cpg/sg66_6_cif.got.tgz:11718.got - 2010.04.10 21:57:39.
