data_PCOD8276722
_publ_section_title
;
Structure prediction by ZEFSAII (Michael W. Deem and Ramdas Pophale) SiO2 
 PCOD8276722
Probable space group: C C C M
;
_chemical_formula_sum "Si O2"
_cell_formula_units_Z 64
_cell_length_a 15.510607
_cell_length_b 8.720638
_cell_length_c 25.710372
_cell_angle_alpha 90.000000
_cell_angle_beta 90.000000
_cell_angle_gamma 90.000000
_cell_volume 3477.646334
_symmetry_space_group_name_H-M "C C C M"
_symmetry_group_IT_number 66
_symmetry_cell_setting 'orthorhombic'
loop_
_space_group_symop_operation_xyz
x,y,z
-x,-y,z
x,-y,1/2-z
-x,y,1/2-z
-x,-y,-z
x,y,-z
-x,y,1/2+z
x,-y,1/2+z
1/2+x,1/2+y,z
1/2-x,1/2-y,z
1/2+x,1/2-y,1/2-z
1/2-x,1/2+y,1/2-z
1/2-x,1/2-y,-z
1/2+x,1/2+y,-z
1/2-x,1/2+y,1/2+z
1/2+x,1/2-y,1/2+z
loop_
_atom_site_type_symbol
_atom_site_label
_atom_site_fract_x
_atom_site_fract_y
_atom_site_fract_z
Si Si1 0.246505 0.427989 0.142240
Si Si2 0.911146 0.065235 0.192790
Si Si3 0.319512 0.115786 0.441705
Si Si4 0.414965 0.101366 0.657614
O O1 0.250000 0.250000 0.154102
O O2 0.334777 0.511554 0.155953
O O3 0.227495 0.462779 0.081110
O O4 0.167833 0.500950 0.175928
O O5 0.918995 0.249534 0.194177
O O6 0.894493 0.000000 0.250000
O O7 0.000000 0.000000 0.169492
O O8 0.353720 0.085649 0.500000
O O9 0.250000 0.250000 0.440669
O O10 0.400320 0.153527 0.403130
O O11 0.500000 0.000000 0.663920
#
# Coordination Sequence:
#
# PCOD8276722 Si02
#       4
#    16  16  16  16
#     4  10  20  37  59  89 121 161 189 250 295 347
#     4  11  23  40  60  85 113 156 205 253 298 357
#     4   9  18  36  64  90 122 162 199 239 299 355
#     4  10  20  39  62  87 123 156 196 246 298 355
#
# _framework density 18.403251000000001
#
# number of rings (size 3 to 8) (size 9 to 14) (size 15 to 20)
#    1.500    0.500    2.500    2.250    0.000    3.000 
#    0.000    7.500    0.000    1.500    0.000    0.000 
#    0.000    0.000    0.000    0.000    0.000    0.000 
#
# Total GULP energy -396453.237319 kJ/mol
# GULP energy per Si atom -12389.163666 kJ/mol
# Density = 1.836136 g / cm^3
# Si number density = 18.403251 Si / 1000 Ang^3
#
#
#
# Elastic Constant Matrix: (Units=GPa)
#
#
# Indices 1 2 3 4 5 6 
#
# 1 109.1951 51.2167 19.6350 0.0000 0.0000 0.0000
# 2 51.2167 155.4024 35.8765 0.0000 0.0000 0.0000
# 3 19.6350 35.8765 83.6049 0.0000 0.0000 0.0000
# 4 0.0000 0.0000 0.0000 26.4516 0.0000 0.0000
# 5 0.0000 0.0000 0.0000 0.0000 18.5904 0.0000
# 6 0.0000 0.0000 0.0000 0.0000 0.0000 38.7934
#
#
#
# Elastic Compliance Matrix: (Units=1/GPa)
#
#
# Indices 1 2 3 4 5 6 
#
# 1 0.010928 -0.003340 -0.001133 0.000000 0.000000 0.000000
# 2 -0.003340 0.008163 -0.002719 0.000000 0.000000 0.000000
# 3 -0.001133 -0.002719 0.013394 0.000000 0.000000 0.000000
# 4 0.000000 0.000000 0.000000 0.037805 0.000000 0.000000
# 5 0.000000 0.000000 0.000000 0.000000 0.053791 0.000000
# 6 0.000000 0.000000 0.000000 0.000000 0.000000 0.025778
#
#
# Mechanical properties :
#
#
# Convention : Reuss Voigt Hill
#
# Bulk Modulus (GPa) = 55.24396 62.40653 58.82524
# Shear Modulus (GPa) = 29.36395 32.86538 31.11467
#
# Velocity S-wave (km/s) = 3.99881 4.23051 4.11629
# Velocity P-wave (km/s) = 7.16969 7.60573 7.39093
#
# Compressibility (1/GPa) = 0.01810153
#
# Stress axis : x y z
#
# Youngs Moduli (GPa) = 91.50538 122.49899 74.66149
#
# Poissons Ratio (x) = 0.40916 0.08461
# Poissons Ratio (y) = 0.30563 0.20298
# Poissons Ratio (z) = 0.10370 0.33303
#
# Static dielectric constant tensor:
#      x y z
#    x 3.402040 0.000000 0.000000 
#    y 0.000000 3.571050 0.000000 
#    z 0.000000 0.000000 3.263240 
# 
# 
# High freq. dielectric constant tensor:
#      x y z
#    x 1.716460 0.000000 0.000000 
#    y 0.000000 1.717340 0.000000 
#    z 0.000000 0.000000 1.691080 
# 
# From -- ./inp_files/69384.got.cif
#   From: 2010.03.12/outbox.cif.g09.slc.cpg/sg66_35_cif.got.tgz:69384.got - 2010.04.10 21:57:39.
