data_PCOD8276941
_publ_section_title
;
Structure prediction by ZEFSAII (Michael W. Deem and Ramdas Pophale) SiO2 
 PCOD8276941
Probable space group: C C C M
;
_chemical_formula_sum "Si O2"
_cell_formula_units_Z 88
_cell_length_a 13.115760
_cell_length_b 17.801535
_cell_length_c 19.142245
_cell_angle_alpha 90.000000
_cell_angle_beta 90.000000
_cell_angle_gamma 90.000000
_cell_volume 4469.344010
_symmetry_space_group_name_H-M "C C C M"
_symmetry_group_IT_number 66
_symmetry_cell_setting 'orthorhombic'
loop_
_space_group_symop_operation_xyz
x,y,z
-x,-y,z
x,-y,1/2-z
-x,y,1/2-z
-x,-y,-z
x,y,-z
-x,y,1/2+z
x,-y,1/2+z
1/2+x,1/2+y,z
1/2-x,1/2-y,z
1/2+x,1/2-y,1/2-z
1/2-x,1/2+y,1/2-z
1/2-x,1/2-y,-z
1/2+x,1/2+y,-z
1/2-x,1/2+y,1/2+z
1/2+x,1/2-y,1/2+z
loop_
_atom_site_type_symbol
_atom_site_label
_atom_site_fract_x
_atom_site_fract_y
_atom_site_fract_z
Si Si1 0.548060 0.660866 0.916966
Si Si2 0.540170 0.083704 0.579154
Si Si3 0.665611 0.600213 0.579813
Si Si4 0.533459 0.790594 0.328471
Si Si5 0.750000 0.750000 0.632028
Si Si6 0.765050 0.057029 0.582898
O O1 0.449490 0.612902 0.893520
O O2 0.543285 0.737158 0.872219
O O3 0.648373 0.615824 0.893863
O O4 0.546817 0.679335 0.000000
O O5 0.534163 0.115805 0.500000
O O6 0.467892 0.131000 0.630212
O O7 0.655693 0.086344 0.609240
O O8 0.500000 0.000000 0.580035
O O9 0.658073 0.578610 0.500000
O O10 0.735686 0.674400 0.586590
O O11 0.712147 0.525585 0.616578
O O12 0.500000 0.802424 0.250000
O O13 0.648470 0.759452 0.322360
O O14 0.760297 0.050921 0.500000
#
# Coordination Sequence:
#
# PCOD8276941 Si02
#       6
#    16  16  16  16   8  16
#     4   9  18  33  55  82 109 140 181 226 270 318
#     4  10  21  37  57  82 111 142 179 222 269 325
#     4   9  16  29  53  84 113 140 179 228 271 317
#     4  11  24  39  56  78 108 142 181 224 268 323
#     4  10  21  36  54  76 105 146 186 220 270 324
#     4   9  17  30  53  83 112 143 178 223 277 322
#
# _framework density 19.689689999999999
#
# number of rings (size 3 to 8) (size 9 to 14) (size 15 to 20)
#    0.000    2.364    0.000    2.455    0.000    8.364 
#    0.000    2.727    0.000   13.091    0.000    0.000 
#    0.000    0.000    0.000    0.000    0.000    0.000 
#
# Total GULP energy -545364.753239 kJ/mol
# GULP energy per Si atom -12394.653483 kJ/mol
# Density = 1.964488 g / cm^3
# Si number density = 19.689690 Si / 1000 Ang^3
#
#
#
# Elastic Constant Matrix: (Units=GPa)
#
#
# Indices 1 2 3 4 5 6 
#
# 1 116.7066 33.9825 26.7661 0.0000 0.0000 0.0000
# 2 33.9825 95.1155 36.4715 0.0000 0.0000 0.0000
# 3 26.7661 36.4715 70.7019 0.0000 0.0000 0.0000
# 4 0.0000 0.0000 0.0000 4.8393 0.0000 0.0000
# 5 0.0000 0.0000 0.0000 0.0000 10.0807 0.0000
# 6 0.0000 0.0000 0.0000 0.0000 0.0000 28.2354
#
#
#
# Elastic Compliance Matrix: (Units=1/GPa)
#
#
# Indices 1 2 3 4 5 6 
#
# 1 0.009878 -0.002612 -0.002392 0.000000 0.000000 0.000000
# 2 -0.002612 0.013796 -0.006128 0.000000 0.000000 0.000000
# 3 -0.002392 -0.006128 0.018211 0.000000 0.000000 0.000000
# 4 0.000000 0.000000 0.000000 0.206644 0.000000 0.000000
# 5 0.000000 0.000000 0.000000 0.000000 0.099200 0.000000
# 6 0.000000 0.000000 0.000000 0.000000 0.000000 0.035417
#
#
# Mechanical properties :
#
#
# Convention : Reuss Voigt Hill
#
# Bulk Modulus (GPa) = 50.96672 52.99602 51.98137
# Shear Modulus (GPa) = 12.13743 20.98466 16.56104
#
# Velocity S-wave (km/s) = 2.48551 3.26815 2.90332
# Velocity P-wave (km/s) = 5.84621 6.41990 6.13976
#
# Compressibility (1/GPa) = 0.01962065
#
# Stress axis : x y z
#
# Youngs Moduli (GPa) = 101.23895 72.48231 54.91271
#
# Poissons Ratio (x) = 0.18931 0.13136
# Poissons Ratio (y) = 0.26441 0.33651
# Poissons Ratio (z) = 0.24218 0.44418
#
# Static dielectric constant tensor:
#      x y z
#    x 3.853200 0.000000 0.000000 
#    y 0.000000 3.772830 0.000000 
#    z 0.000000 0.000000 3.053000 
# 
# 
# High freq. dielectric constant tensor:
#      x y z
#    x 1.781420 0.000000 0.000000 
#    y 0.000000 1.778170 0.000000 
#    z 0.000000 0.000000 1.708380 
# 
# From -- ./inp_files/48550.got.cif
#   From: 2010.03.12/outbox.cif.g09.slc.cpg/sg66_25_cif.got.tgz:48550.got - 2010.04.10 21:57:39.
