data_PCOD8276450
_publ_section_title
;
Structure prediction by ZEFSAII (Michael W. Deem and Ramdas Pophale) SiO2 
 PCOD8276450
Probable space group: C C C M
;
_chemical_formula_sum "Si O2"
_cell_formula_units_Z 116
_cell_length_a 25.749399
_cell_length_b 24.725887
_cell_length_c 9.121036
_cell_angle_alpha 90.000000
_cell_angle_beta 90.000000
_cell_angle_gamma 90.000000
_cell_volume 5807.151375
_symmetry_space_group_name_H-M "C C C M"
_symmetry_group_IT_number 66
_symmetry_cell_setting 'orthorhombic'
loop_
_space_group_symop_operation_xyz
x,y,z
-x,-y,z
x,-y,1/2-z
-x,y,1/2-z
-x,-y,-z
x,y,-z
-x,y,1/2+z
x,-y,1/2+z
1/2+x,1/2+y,z
1/2-x,1/2-y,z
1/2+x,1/2-y,1/2-z
1/2-x,1/2+y,1/2-z
1/2-x,1/2-y,-z
1/2+x,1/2+y,-z
1/2-x,1/2+y,1/2+z
1/2+x,1/2-y,1/2+z
loop_
_atom_site_type_symbol
_atom_site_label
_atom_site_fract_x
_atom_site_fract_y
_atom_site_fract_z
Si Si1 0.601478 0.450303 0.162400
Si Si2 0.231343 0.651779 0.327510
Si Si3 0.549048 0.160818 0.328211
Si Si4 0.645141 0.764172 0.168773
Si Si5 0.841765 0.843057 0.326050
Si Si6 0.500000 0.500000 0.250000
Si Si7 0.932024 0.449256 0.163357
Si Si8 0.689571 0.949078 0.663480
O O1 0.628034 0.500000 0.250000
O O2 0.619835 0.392072 0.224864
O O3 0.538361 0.459179 0.160706
O O4 0.623426 0.454701 0.000000
O O5 0.237883 0.641775 0.500000
O O6 0.201005 0.708200 0.298964
O O7 0.286668 0.651506 0.251138
O O8 0.197925 0.604198 0.258455
O O9 0.500000 0.190176 0.250000
O O10 0.538977 0.156399 0.500000
O O11 0.600860 0.193286 0.292668
O O12 0.553907 0.102000 0.259792
O O13 0.633916 0.713035 0.271767
O O14 0.642679 0.745294 0.000000
O O15 0.834867 0.841628 0.500000
O O16 0.956130 0.500000 0.250000
O O17 0.871062 0.457570 0.146601
O O18 0.956375 0.444162 0.000000
O O19 0.714737 0.944446 0.500000
O O20 0.714597 0.000000 0.750000
#
# Coordination Sequence:
#
# PCOD8276450 Si02
#       8
#    16  16  16  16  16   4  16  16
#     4   9  20  38  63  93 124 158 197 243 295 357
#     4  11  22  39  62  87 120 163 209 255 309 366
#     4  11  23  41  62  86 118 154 200 253 307 361
#     4  10  23  43  63  85 117 161 207 252 307 370
#     4  11  24  40  60  93 128 157 202 253 302 362
#     4   8  18  40  70  92 126 160 206 236 298 356
#     4  10  20  35  58  86 116 151 195 244 299 358
#     4  10  20  34  56  86 119 157 202 246 300 360
#
# _framework density 19.975372
#
# number of rings (size 3 to 8) (size 9 to 14) (size 15 to 20)
#    0.414    1.379    1.379    2.690    0.000    6.897 
#    1.241    2.759    0.000    0.000    0.000    0.000 
#    0.000    0.000    0.000    0.000    0.000    0.000 
#
# Total GULP energy -718899.731128 kJ/mol
# GULP energy per Si atom -12394.822950 kJ/mol
# Density = 1.992991 g / cm^3
# Si number density = 19.975372 Si / 1000 Ang^3
#
#
#
# Elastic Constant Matrix: (Units=GPa)
#
#
# Indices 1 2 3 4 5 6 
#
# 1 92.2229 46.4162 47.8126 0.0000 0.0000 0.0000
# 2 46.4162 141.4805 75.8487 0.0000 0.0000 0.0000
# 3 47.8126 75.8487 128.2263 0.0000 0.0000 0.0000
# 4 0.0000 0.0000 0.0000 37.0757 0.0000 0.0000
# 5 0.0000 0.0000 0.0000 0.0000 19.4545 0.0000
# 6 0.0000 0.0000 0.0000 0.0000 0.0000 75.4078
#
#
#
# Elastic Compliance Matrix: (Units=1/GPa)
#
#
# Indices 1 2 3 4 5 6 
#
# 1 0.014086 -0.002644 -0.003689 0.000000 0.000000 0.000000
# 2 -0.002644 0.010847 -0.005430 0.000000 0.000000 0.000000
# 3 -0.003689 -0.005430 0.012386 0.000000 0.000000 0.000000
# 4 0.000000 0.000000 0.000000 0.026972 0.000000 0.000000
# 5 0.000000 0.000000 0.000000 0.000000 0.051402 0.000000
# 6 0.000000 0.000000 0.000000 0.000000 0.000000 0.013261
#
#
# Mechanical properties :
#
#
# Convention : Reuss Voigt Hill
#
# Bulk Modulus (GPa) = 72.49598 78.00939 75.25269
# Shear Modulus (GPa) = 31.83147 39.17775 35.50461
#
# Velocity S-wave (km/s) = 3.99624 4.43346 4.22052
# Velocity P-wave (km/s) = 7.59373 8.08363 7.84251
#
# Compressibility (1/GPa) = 0.01379387
#
# Stress axis : x y z
#
# Youngs Moduli (GPa) = 70.99109 92.19409 80.73529
#
# Poissons Ratio (x) = 0.24375 0.29779
# Poissons Ratio (y) = 0.18769 0.43841
# Poissons Ratio (z) = 0.26185 0.50063
#
# Static dielectric constant tensor:
#      x y z
#    x 3.765130 0.000000 0.000000 
#    y 0.000000 3.811560 0.000000 
#    z 0.000000 0.000000 2.970180 
# 
# 
# High freq. dielectric constant tensor:
#      x y z
#    x 1.774590 0.000000 0.000000 
#    y 0.000000 1.777480 0.000000 
#    z 0.000000 0.000000 1.789790 
# 
# From -- ./inp_files/11722.got.cif
#   From: 2010.03.12/outbox.cif.g09.slc.cpg/sg66_6_cif.got.tgz:11722.got - 2010.04.10 21:57:39.
