data_PCOD8276986
_publ_section_title
;
Structure prediction by ZEFSAII (Michael W. Deem and Ramdas Pophale) SiO2 
 PCOD8276986
Probable space group: C C C M
;
_chemical_formula_sum "Si O2"
_cell_formula_units_Z 80
_cell_length_a 23.818146
_cell_length_b 9.873993
_cell_length_c 18.231101
_cell_angle_alpha 90.000000
_cell_angle_beta 90.000000
_cell_angle_gamma 90.000000
_cell_volume 4287.594105
_symmetry_space_group_name_H-M "C C C M"
_symmetry_group_IT_number 66
_symmetry_cell_setting 'orthorhombic'
loop_
_space_group_symop_operation_xyz
x,y,z
-x,-y,z
x,-y,1/2-z
-x,y,1/2-z
-x,-y,-z
x,y,-z
-x,y,1/2+z
x,-y,1/2+z
1/2+x,1/2+y,z
1/2-x,1/2-y,z
1/2+x,1/2-y,1/2-z
1/2-x,1/2+y,1/2-z
1/2-x,1/2-y,-z
1/2+x,1/2+y,-z
1/2-x,1/2+y,1/2+z
1/2+x,1/2-y,1/2+z
loop_
_atom_site_type_symbol
_atom_site_label
_atom_site_fract_x
_atom_site_fract_y
_atom_site_fract_z
Si Si1 0.166572 0.981098 0.418554
Si Si2 0.986534 0.353579 0.412634
Si Si3 0.734589 0.091876 0.680159
Si Si4 0.549524 0.404650 0.087206
Si Si5 0.862745 0.672907 0.080931
O O1 0.180252 0.041691 0.500000
O O2 0.217904 0.994667 0.362557
O O3 0.158599 0.823071 0.428590
O O4 0.111191 0.053089 0.383425
O O5 0.986439 0.351767 0.500000
O O6 0.924610 0.317609 0.383646
O O7 0.000000 0.500000 0.379874
O O8 0.033667 0.246687 0.385869
O O9 0.750000 0.250000 0.698161
O O10 0.678300 0.086642 0.631915
O O11 0.721699 0.000000 0.750000
O O12 0.500000 0.500000 0.118509
O O13 0.551432 0.420037 0.000000
O O14 0.864248 0.603350 0.000000
#
# Coordination Sequence:
#
# PCOD8276986 Si02
#       5
#    16  16  16  16  16
#     4   9  16  29  54  82 101 126 173 223 259 301
#     4   9  16  26  43  74 109 133 157 197 258 316
#     4  10  21  37  54  73 100 140 178 215 261 313
#     4   9  14  24  45  74 105 129 155 203 256 299
#     4   9  16  30  54  79 102 131 172 217 256 306
#
# _framework density 18.658483
#
# number of rings (size 3 to 8) (size 9 to 14) (size 15 to 20)
#    0.000    2.800    2.000    0.600    0.000    2.400 
#    3.600    0.000    0.000    2.400    0.000    0.000 
#    0.000    0.000    0.000    0.000    0.000    0.000 
#
# Total GULP energy -495597.991049 kJ/mol
# GULP energy per Si atom -12389.949776 kJ/mol
# Density = 1.861602 g / cm^3
# Si number density = 18.658483 Si / 1000 Ang^3
#
#
#
# Elastic Constant Matrix: (Units=GPa)
#
#
# Indices 1 2 3 4 5 6 
#
# 1 126.9577 35.2365 46.7264 0.0000 0.0000 0.0000
# 2 35.2365 79.1919 28.8778 0.0000 0.0000 0.0000
# 3 46.7264 28.8778 60.1834 0.0000 0.0000 0.0000
# 4 0.0000 0.0000 0.0000 13.7129 0.0000 0.0000
# 5 0.0000 0.0000 0.0000 0.0000 3.8017 0.0000
# 6 0.0000 0.0000 0.0000 0.0000 0.0000 32.6617
#
#
#
# Elastic Compliance Matrix: (Units=1/GPa)
#
#
# Indices 1 2 3 4 5 6 
#
# 1 0.011342 -0.002225 -0.007739 0.000000 0.000000 0.000000
# 2 -0.002225 0.015742 -0.005826 0.000000 0.000000 0.000000
# 3 -0.007739 -0.005826 0.025420 0.000000 0.000000 0.000000
# 4 0.000000 0.000000 0.000000 0.072924 0.000000 0.000000
# 5 0.000000 0.000000 0.000000 0.000000 0.263043 0.000000
# 6 0.000000 0.000000 0.000000 0.000000 0.000000 0.030617
#
#
# Mechanical properties :
#
#
# Convention : Reuss Voigt Hill
#
# Bulk Modulus (GPa) = 47.79005 54.22381 51.00693
# Shear Modulus (GPa) = 10.92557 20.40141 15.66349
#
# Velocity S-wave (km/s) = 2.42245 3.31027 2.90053
# Velocity P-wave (km/s) = 5.78731 6.61323 6.21401
#
# Compressibility (1/GPa) = 0.02092486
#
# Stress axis : x y z
#
# Youngs Moduli (GPa) = 88.16549 63.52419 39.33957
#
# Poissons Ratio (x) = 0.14133 0.30443
# Poissons Ratio (y) = 0.19615 0.22920
# Poissons Ratio (z) = 0.68228 0.37010
#
# Static dielectric constant tensor:
#      x y z
#    x 3.743250 0.000000 0.000000 
#    y 0.000000 3.370160 0.000000 
#    z 0.000000 0.000000 3.151530 
# 
# 
# High freq. dielectric constant tensor:
#      x y z
#    x 1.735930 0.000000 0.000000 
#    y 0.000000 1.707650 0.000000 
#    z 0.000000 0.000000 1.669150 
# 
# From -- ./inp_files/26385.got.cif
#   From: 2010.03.12/outbox.cif.g09.slc.cpg/sg66_14_cif.got.tgz:26385.got - 2010.04.10 21:57:39.
