data_PCOD8276899
_publ_section_title
;
Structure prediction by ZEFSAII (Michael W. Deem and Ramdas Pophale) SiO2 
 PCOD8276899
Probable space group: C C C M
;
_chemical_formula_sum "Si O2"
_cell_formula_units_Z 72
_cell_length_a 24.935498
_cell_length_b 16.378751
_cell_length_c 9.323367
_cell_angle_alpha 90.000000
_cell_angle_beta 90.000000
_cell_angle_gamma 90.000000
_cell_volume 3807.777880
_symmetry_space_group_name_H-M "C C C M"
_symmetry_group_IT_number 66
_symmetry_cell_setting 'orthorhombic'
loop_
_space_group_symop_operation_xyz
x,y,z
-x,-y,z
x,-y,1/2-z
-x,y,1/2-z
-x,-y,-z
x,y,-z
-x,y,1/2+z
x,-y,1/2+z
1/2+x,1/2+y,z
1/2-x,1/2-y,z
1/2+x,1/2-y,1/2-z
1/2-x,1/2+y,1/2-z
1/2-x,1/2-y,-z
1/2+x,1/2+y,-z
1/2-x,1/2+y,1/2+z
1/2+x,1/2-y,1/2+z
loop_
_atom_site_type_symbol
_atom_site_label
_atom_site_fract_x
_atom_site_fract_y
_atom_site_fract_z
Si Si1 0.711389 0.625884 0.662055
Si Si2 0.552177 0.363743 0.657838
Si Si3 0.627535 0.500000 0.250000
Si Si4 0.854828 0.751422 0.834057
Si Si5 0.815694 0.423551 0.332661
O O1 0.730840 0.644264 0.500000
O O2 0.664213 0.558775 0.652971
O O3 0.691094 0.709677 0.734538
O O4 0.758577 0.591786 0.760092
O O5 0.500000 0.378639 0.750000
O O6 0.530654 0.345654 0.500000
O O7 0.589670 0.443741 0.651920
O O8 0.587026 0.286100 0.712783
O O9 0.854556 0.654091 0.813272
O O10 0.842883 0.775247 0.000000
O O11 0.842940 0.500000 0.250000
O O12 0.806687 0.444403 0.500000
#
# Coordination Sequence:
#
# PCOD8276899 Si02
#       5
#    16  16   8  16  16
#     4  11  21  33  53  80 111 147 185 220 259 319
#     4  10  21  37  56  78 106 142 183 225 272 322
#     4  10  21  34  52  78 118 152 179 214 262 320
#     4   9  21  39  55  74 107 146 179 221 279 328
#     4  11  22  36  55  78 107 143 181 224 273 325
#
# _framework density 18.908667000000001
#
# number of rings (size 3 to 8) (size 9 to 14) (size 15 to 20)
#    0.000    1.778    1.111    3.000    0.000   11.556 
#    0.000    0.000    0.000    0.667    0.000    4.667 
#    0.000    0.000    0.000    0.000    0.000    0.000 
#
# Total GULP energy -446345.450631 kJ/mol
# GULP energy per Si atom -12398.484740 kJ/mol
# Density = 1.886563 g / cm^3
# Si number density = 18.908667 Si / 1000 Ang^3
#
#
#
# Elastic Constant Matrix: (Units=GPa)
#
#
# Indices 1 2 3 4 5 6 
#
# 1 61.5037 31.2016 18.0783 0.0000 0.0000 0.0000
# 2 31.2016 124.6430 38.8347 0.0000 0.0000 0.0000
# 3 18.0783 38.8347 97.9980 0.0000 0.0000 0.0000
# 4 0.0000 0.0000 0.0000 27.7422 0.0000 0.0000
# 5 0.0000 0.0000 0.0000 0.0000 13.1561 0.0000
# 6 0.0000 0.0000 0.0000 0.0000 0.0000 15.8919
#
#
#
# Elastic Compliance Matrix: (Units=1/GPa)
#
#
# Indices 1 2 3 4 5 6 
#
# 1 0.018911 -0.004161 -0.001840 0.000000 0.000000 0.000000
# 2 -0.004161 0.010068 -0.003222 0.000000 0.000000 0.000000
# 3 -0.001840 -0.003222 0.011821 0.000000 0.000000 0.000000
# 4 0.000000 0.000000 0.000000 0.036046 0.000000 0.000000
# 5 0.000000 0.000000 0.000000 0.000000 0.076010 0.000000
# 6 0.000000 0.000000 0.000000 0.000000 0.000000 0.062925
#
#
# Mechanical properties :
#
#
# Convention : Reuss Voigt Hill
#
# Bulk Modulus (GPa) = 44.73443 51.15266 47.94355
# Shear Modulus (GPa) = 20.68864 24.42672 22.55768
#
# Velocity S-wave (km/s) = 3.31136 3.59810 3.45770
# Velocity P-wave (km/s) = 6.19110 6.66130 6.43050
#
# Compressibility (1/GPa) = 0.02235415
#
# Stress axis : x y z
#
# Youngs Moduli (GPa) = 52.88002 99.32038 84.59774
#
# Poissons Ratio (x) = 0.41324 0.15564
# Poissons Ratio (y) = 0.22002 0.27261
# Poissons Ratio (z) = 0.09729 0.32005
#
# Static dielectric constant tensor:
#      x y z
#    x 3.226130 0.000000 0.000000 
#    y 0.000000 3.737450 0.000000 
#    z 0.000000 0.000000 3.474970 
# 
# 
# High freq. dielectric constant tensor:
#      x y z
#    x 1.702700 0.000000 0.000000 
#    y 0.000000 1.739910 0.000000 
#    z 0.000000 0.000000 1.739000 
# 
# From -- ./inp_files/5358.got.cif
#   From: 2010.03.12/outbox.cif.g09.slc.cpg/sg66_3_cif.got.tgz:5358.got - 2010.04.10 21:57:39.
