data_PCOD8276452
_publ_section_title
;
Structure prediction by ZEFSAII (Michael W. Deem and Ramdas Pophale) SiO2 
 PCOD8276452
Probable space group: C C C M
;
_chemical_formula_sum "Si O2"
_cell_formula_units_Z 88
_cell_length_a 26.905311
_cell_length_b 8.372150
_cell_length_c 18.835411
_cell_angle_alpha 90.000000
_cell_angle_beta 90.000000
_cell_angle_gamma 90.000000
_cell_volume 4242.776146
_symmetry_space_group_name_H-M "C C C M"
_symmetry_group_IT_number 66
_symmetry_cell_setting 'orthorhombic'
loop_
_space_group_symop_operation_xyz
x,y,z
-x,-y,z
x,-y,1/2-z
-x,y,1/2-z
-x,-y,-z
x,y,-z
-x,y,1/2+z
x,-y,1/2+z
1/2+x,1/2+y,z
1/2-x,1/2-y,z
1/2+x,1/2-y,1/2-z
1/2-x,1/2+y,1/2-z
1/2-x,1/2-y,-z
1/2+x,1/2+y,-z
1/2-x,1/2+y,1/2+z
1/2+x,1/2-y,1/2+z
loop_
_atom_site_type_symbol
_atom_site_label
_atom_site_fract_x
_atom_site_fract_y
_atom_site_fract_z
Si Si1 0.329239 0.282666 0.500000
Si Si2 0.256219 0.012222 0.000000
Si Si3 0.988450 0.170050 0.831883
Si Si4 0.572563 0.105750 0.678116
Si Si5 0.750000 0.750000 0.874091
Si Si6 0.842624 0.817184 0.772104
Si Si7 0.117082 0.302131 0.637431
O O1 0.300110 0.449477 0.500000
O O2 0.364044 0.280837 0.567440
O O3 0.293530 0.132677 0.500000
O O4 0.265391 0.106824 0.926776
O O5 0.930864 0.202538 0.840144
O O6 0.000000 0.153045 0.750000
O O7 0.022225 0.322183 0.857520
O O8 0.000000 0.000000 0.870404
O O9 0.607439 0.260063 0.688762
O O10 0.562230 0.000000 0.750000
O O11 0.601393 0.986717 0.624359
O O12 0.795429 0.791060 0.822363
O O13 0.840399 0.712467 0.699007
O O14 0.847114 0.000000 0.750000
#
# Coordination Sequence:
#
# PCOD8276452 Si02
#       7
#     8   8  16  16   8  16  16
#     4  11  24  46  64  88 123 175 217 253 321 381
#     4  10  24  46  66  84 128 173 201 258 323 385
#     4  11  20  35  59  90 128 165 199 251 319 372
#     4  10  20  34  56  87 124 160 200 249 311 367
#     4  11  24  42  66  95 122 162 208 259 326 382
#     4  11  22  36  60  95 124 153 206 265 311 367
#     4  11  23  37  63  91 126 165 212 261 307 372
#
# _framework density 20.741136999999998
#
# number of rings (size 3 to 8) (size 9 to 14) (size 15 to 20)
#    0.000    1.273    3.636    3.818    0.000    5.091 
#    0.000    2.273    0.000    0.000    0.000    0.000 
#    0.000    0.000    0.000    0.000    0.000    0.000 
#
# Total GULP energy -545264.760268 kJ/mol
# GULP energy per Si atom -12392.380915 kJ/mol
# Density = 2.069393 g / cm^3
# Si number density = 20.741137 Si / 1000 Ang^3
#
#
#
# Elastic Constant Matrix: (Units=GPa)
#
#
# Indices 1 2 3 4 5 6 
#
# 1 99.3981 41.3494 45.2683 0.0000 0.0000 0.0000
# 2 41.3494 135.9250 20.3186 0.0000 0.0000 0.0000
# 3 45.2683 20.3186 83.3622 0.0000 0.0000 0.0000
# 4 0.0000 0.0000 0.0000 8.0729 0.0000 0.0000
# 5 0.0000 0.0000 0.0000 0.0000 49.3242 0.0000
# 6 0.0000 0.0000 0.0000 0.0000 0.0000 -79.0154
#
#
#
# Elastic Compliance Matrix: (Units=1/GPa)
#
#
# Indices 1 2 3 4 5 6 
#
# 1 0.014749 -0.003414 -0.007177 0.000000 0.000000 0.000000
# 2 -0.003414 0.008425 -0.000200 0.000000 0.000000 0.000000
# 3 -0.007177 -0.000200 0.015942 0.000000 0.000000 0.000000
# 4 0.000000 0.000000 0.000000 0.123872 0.000000 0.000000
# 5 0.000000 0.000000 0.000000 0.000000 0.020274 0.000000
# 6 0.000000 0.000000 0.000000 0.000000 0.000000 -0.012656
#
#
# Mechanical properties :
#
#
# Convention : Reuss Voigt Hill
#
# Bulk Modulus (GPa) = 57.02909 59.17312 58.10110
# Shear Modulus (GPa) = 25.24817 9.79294 17.52055
#
# Velocity S-wave (km/s) = 3.49277 2.17526 2.90957
# Velocity P-wave (km/s) = 6.61976 5.90765 6.27382
#
# Compressibility (1/GPa) = 0.01753491
#
# Stress axis : x y z
#
# Youngs Moduli (GPa) = 67.79891 118.68854 62.72723
#
# Poissons Ratio (x) = 0.40520 0.45021
# Poissons Ratio (y) = 0.23147 0.01253
# Poissons Ratio (z) = 0.48661 0.02370
#
# Static dielectric constant tensor:
#      x y z
#    x 3.946930 0.000000 0.000000 
#    y 0.000000 4.360380 0.000000 
#    z 0.000000 0.000000 3.615280 
# 
# 
# High freq. dielectric constant tensor:
#      x y z
#    x 1.818590 0.000000 0.000000 
#    y 0.000000 1.834180 0.000000 
#    z 0.000000 0.000000 1.766930 
# 
# From -- ./inp_files/52445.got.cif
#   From: 2010.03.12/outbox.cif.g09.slc.cpg/sg66_27_cif.got.tgz:52445.got - 2010.04.10 21:57:39.
