data_PCOD8276897
_publ_section_title
;
Structure prediction by ZEFSAII (Michael W. Deem and Ramdas Pophale) SiO2 
 PCOD8276897
Probable space group: C C C M
;
_chemical_formula_sum "Si O2"
_cell_formula_units_Z 104
_cell_length_a 29.774153
_cell_length_b 19.958164
_cell_length_c 9.453652
_cell_angle_alpha 90.000000
_cell_angle_beta 90.000000
_cell_angle_gamma 90.000000
_cell_volume 5617.713855
_symmetry_space_group_name_H-M "C C C M"
_symmetry_group_IT_number 66
_symmetry_cell_setting 'orthorhombic'
loop_
_space_group_symop_operation_xyz
x,y,z
-x,-y,z
x,-y,1/2-z
-x,y,1/2-z
-x,-y,-z
x,y,-z
-x,y,1/2+z
x,-y,1/2+z
1/2+x,1/2+y,z
1/2-x,1/2-y,z
1/2+x,1/2-y,1/2-z
1/2-x,1/2+y,1/2-z
1/2-x,1/2-y,-z
1/2+x,1/2+y,-z
1/2-x,1/2+y,1/2+z
1/2+x,1/2-y,1/2+z
loop_
_atom_site_type_symbol
_atom_site_label
_atom_site_fract_x
_atom_site_fract_y
_atom_site_fract_z
Si Si1 0.591985 0.895658 0.500000
Si Si2 0.573276 0.048357 0.500000
Si Si3 0.861314 0.612720 0.211633
Si Si4 0.763624 0.565294 0.833497
Si Si5 0.719129 0.685196 0.335843
Si Si6 0.138000 0.764968 0.340194
Si Si7 0.504168 0.155938 0.500000
Si Si8 0.962485 0.775672 0.153264
O O1 0.626160 0.881364 0.374269
O O2 0.550049 0.844565 0.500000
O O3 0.570109 0.968899 0.500000
O O4 0.598378 0.073391 0.361050
O O5 0.523483 0.080433 0.500000
O O6 0.816934 0.569580 0.185738
O O7 0.853399 0.685922 0.148111
O O8 0.746075 0.500000 0.750000
O O9 0.740585 0.628250 0.759880
O O10 0.750918 0.561438 0.000000
O O11 0.714690 0.663109 0.500000
O O12 0.750000 0.750000 0.322111
O O13 0.670215 0.700206 0.272590
O O14 0.144993 0.793356 0.500000
O O15 0.087550 0.779420 0.283292
O O16 0.522748 0.197236 0.364033
O O17 0.000000 0.812031 0.250000
O O18 0.963171 0.811806 0.000000
#
# Coordination Sequence:
#
# PCOD8276897 Si02
#       8
#     8   8  16  16  16  16   8  16
#     4  12  27  32  50  75 103 150 196 258 305 351
#     4  12  21  40  48  70 101 144 203 253 301 365
#     4  12  23  38  54  76 106 146 199 245 302 350
#     4  12  25  42  65  87 119 158 197 249 303 363
#     4  11  25  40  60  91 119 148 195 248 301 366
#     4  11  20  38  59  78 109 149 188 240 294 351
#     4  10  21  34  52  67 103 139 198 252 308 344
#     4   9  18  32  51  74 102 139 185 234 288 349
#
# _framework density 18.512869999999999
#
# number of rings (size 3 to 8) (size 9 to 14) (size 15 to 20)
#    0.462    0.462    4.615    3.462    3.231    1.231 
#    0.000    1.538    0.000    0.000    0.000    0.000 
#    0.000    0.615    0.000    6.462    0.000    3.538 
#
# Total GULP energy -644634.888170 kJ/mol
# GULP energy per Si atom -12396.824772 kJ/mol
# Density = 1.847073 g / cm^3
# Si number density = 18.512870 Si / 1000 Ang^3
#
#
#
# Elastic Constant Matrix: (Units=GPa)
#
#
# Indices 1 2 3 4 5 6 
#
# 1 67.5875 23.7024 58.3711 0.0000 0.0000 0.0000
# 2 23.7024 47.9830 31.5165 0.0000 0.0000 0.0000
# 3 58.3711 31.5165 140.8907 0.0000 0.0000 0.0000
# 4 0.0000 0.0000 0.0000 25.9428 0.0000 0.0000
# 5 0.0000 0.0000 0.0000 0.0000 31.2013 0.0000
# 6 0.0000 0.0000 0.0000 0.0000 0.0000 18.2390
#
#
#
# Elastic Compliance Matrix: (Units=1/GPa)
#
#
# Indices 1 2 3 4 5 6 
#
# 1 0.024609 -0.006400 -0.008764 0.000000 0.000000 0.000000
# 2 -0.006400 0.026095 -0.003186 0.000000 0.000000 0.000000
# 3 -0.008764 -0.003186 0.011441 0.000000 0.000000 0.000000
# 4 0.000000 0.000000 0.000000 0.038546 0.000000 0.000000
# 5 0.000000 0.000000 0.000000 0.000000 0.032050 0.000000
# 6 0.000000 0.000000 0.000000 0.000000 0.000000 0.054828
#
#
# Mechanical properties :
#
#
# Convention : Reuss Voigt Hill
#
# Bulk Modulus (GPa) = 39.29936 53.73794 46.51865
# Shear Modulus (GPa) = 21.48235 24.60136 23.04186
#
# Velocity S-wave (km/s) = 3.41016 3.64933 3.53177
# Velocity P-wave (km/s) = 6.06464 6.84450 6.46634
#
# Compressibility (1/GPa) = 0.02544571
#
# Stress axis : x y z
#
# Youngs Moduli (GPa) = 40.63592 38.32214 87.40343
#
# Poissons Ratio (x) = 0.24525 0.76599
# Poissons Ratio (y) = 0.26006 0.27845
# Poissons Ratio (z) = 0.35613 0.12209
#
# Static dielectric constant tensor:
#      x y z
#    x 3.417300 0.000000 0.000000 
#    y 0.000000 3.479400 0.000000 
#    z 0.000000 0.000000 3.368190 
# 
# 
# High freq. dielectric constant tensor:
#      x y z
#    x 1.719180 0.000000 0.000000 
#    y 0.000000 1.665320 0.000000 
#    z 0.000000 0.000000 1.735080 
# 
# From -- ./inp_files/11604.got.cif
#   From: 2010.03.12/outbox.cif.g09.slc.cpg/sg66_6_cif.got.tgz:11604.got - 2010.04.10 21:57:39.
