data_PCOD8276851
_publ_section_title
;
Structure prediction by ZEFSAII (Michael W. Deem and Ramdas Pophale) SiO2 
 PCOD8276851
Probable space group: C C C M
;
_chemical_formula_sum "Si O2"
_cell_formula_units_Z 112
_cell_length_a 22.181747
_cell_length_b 14.977124
_cell_length_c 16.783013
_cell_angle_alpha 90.000000
_cell_angle_beta 90.000000
_cell_angle_gamma 90.000000
_cell_volume 5575.632026
_symmetry_space_group_name_H-M "C C C M"
_symmetry_group_IT_number 66
_symmetry_cell_setting 'orthorhombic'
loop_
_space_group_symop_operation_xyz
x,y,z
-x,-y,z
x,-y,1/2-z
-x,y,1/2-z
-x,-y,-z
x,y,-z
-x,y,1/2+z
x,-y,1/2+z
1/2+x,1/2+y,z
1/2-x,1/2-y,z
1/2+x,1/2-y,1/2-z
1/2-x,1/2+y,1/2-z
1/2-x,1/2-y,-z
1/2+x,1/2+y,-z
1/2-x,1/2+y,1/2+z
1/2+x,1/2-y,1/2+z
loop_
_atom_site_type_symbol
_atom_site_label
_atom_site_fract_x
_atom_site_fract_y
_atom_site_fract_z
Si Si1 0.989492 0.361991 0.156897
Si Si2 0.333236 0.422723 0.185875
Si Si3 0.699215 0.069868 0.679676
Si Si4 0.433619 0.483019 0.593186
Si Si5 0.407736 0.279730 0.407111
Si Si6 0.680151 0.756676 0.272488
Si Si7 0.587114 0.016854 0.591874
O O1 0.970210 0.269112 0.115773
O O2 0.937048 0.435912 0.145950
O O3 0.000000 0.346368 0.250000
O O4 0.050124 0.393929 0.113285
O O5 0.333875 0.500000 0.250000
O O6 0.266822 0.416779 0.144830
O O7 0.385704 0.443775 0.123210
O O8 0.346693 0.328551 0.226998
O O9 0.669955 0.159979 0.714404
O O10 0.657420 0.033811 0.608733
O O11 0.702303 0.000000 0.750000
O O12 0.500000 0.500000 0.630952
O O13 0.437622 0.497198 0.500000
O O14 0.412299 0.383671 0.615202
O O15 0.392871 0.265936 0.500000
O O16 0.354913 0.233227 0.355856
O O17 0.750000 0.750000 0.295323
O O18 0.578230 0.991272 0.500000
#
# Coordination Sequence:
#
# PCOD8276851 Si02
#       7
#    16  16  16  16  16  16  16
#     4  11  22  37  57  83 120 159 200 247 301 365
#     4  10  20  40  61  85 115 155 201 248 298 360
#     4  10  21  37  60  85 120 155 197 250 300 363
#     4  10  23  41  60  85 121 158 197 253 313 361
#     4  11  22  38  59  88 122 155 199 255 313 369
#     4  10  21  38  61  88 119 157 203 251 302 366
#     4  11  21  36  57  84 118 159 201 247 304 361
#
# _framework density 20.087409000000001
#
# number of rings (size 3 to 8) (size 9 to 14) (size 15 to 20)
#    0.000    1.571    1.429    5.143    0.000    3.429 
#    0.000    2.143    0.000    2.571    0.000    0.000 
#    0.000    0.000    0.000    0.000    0.000    0.000 
#
# Total GULP energy -694455.513671 kJ/mol
# GULP energy per Si atom -12400.991316 kJ/mol
# Density = 2.004169 g / cm^3
# Si number density = 20.087409 Si / 1000 Ang^3
#
#
#
# Elastic Constant Matrix: (Units=GPa)
#
#
# Indices 1 2 3 4 5 6 
#
# 1 118.6525 27.8388 42.7290 0.0000 0.0000 0.0000
# 2 27.8388 99.4878 31.6965 0.0000 0.0000 0.0000
# 3 42.7290 31.6965 63.5426 0.0000 0.0000 0.0000
# 4 0.0000 0.0000 0.0000 24.1428 0.0000 0.0000
# 5 0.0000 0.0000 0.0000 0.0000 28.9331 0.0000
# 6 0.0000 0.0000 0.0000 0.0000 0.0000 35.3674
#
#
#
# Elastic Compliance Matrix: (Units=1/GPa)
#
#
# Indices 1 2 3 4 5 6 
#
# 1 0.011184 -0.000872 -0.007086 0.000000 0.000000 0.000000
# 2 -0.000872 0.012019 -0.005409 0.000000 0.000000 0.000000
# 3 -0.007086 -0.005409 0.023200 0.000000 0.000000 0.000000
# 4 0.000000 0.000000 0.000000 0.041420 0.000000 0.000000
# 5 0.000000 0.000000 0.000000 0.000000 0.034562 0.000000
# 6 0.000000 0.000000 0.000000 0.000000 0.000000 0.028275
#
#
# Mechanical properties :
#
#
# Convention : Reuss Voigt Hill
#
# Bulk Modulus (GPa) = 50.83888 54.02348 52.43118
# Shear Modulus (GPa) = 27.18117 29.64991 28.41554
#
# Velocity S-wave (km/s) = 3.68250 3.84610 3.76519
# Velocity P-wave (km/s) = 6.59127 6.83198 6.71270
#
# Compressibility (1/GPa) = 0.01966998
#
# Stress axis : x y z
#
# Youngs Moduli (GPa) = 89.41080 83.20348 43.10278
#
# Poissons Ratio (x) = 0.07256 0.30542
# Poissons Ratio (y) = 0.07797 0.23313
# Poissons Ratio (z) = 0.63355 0.45003
#
# Static dielectric constant tensor:
#      x y z
#    x 3.956040 0.000000 0.000000 
#    y 0.000000 3.574910 0.000000 
#    z 0.000000 0.000000 3.400760 
# 
# 
# High freq. dielectric constant tensor:
#      x y z
#    x 1.791490 0.000000 0.000000 
#    y 0.000000 1.791170 0.000000 
#    z 0.000000 0.000000 1.766670 
# 
# From -- ./inp_files/32509.got.cif
#   From: 2010.03.12/outbox.cif.g09.slc.cpg/sg66_17_cif.got.tgz:32509.got - 2010.04.10 21:57:39.
