data_PCOD8276920
_publ_section_title
;
Structure prediction by ZEFSAII (Michael W. Deem and Ramdas Pophale) SiO2 
 PCOD8276920
Probable space group: C C C M
;
_chemical_formula_sum "Si O2"
_cell_formula_units_Z 104
_cell_length_a 18.068918
_cell_length_b 22.654062
_cell_length_c 14.250837
_cell_angle_alpha 90.000000
_cell_angle_beta 90.000000
_cell_angle_gamma 90.000000
_cell_volume 5833.357651
_symmetry_space_group_name_H-M "C C C M"
_symmetry_group_IT_number 66
_symmetry_cell_setting 'orthorhombic'
loop_
_space_group_symop_operation_xyz
x,y,z
-x,-y,z
x,-y,1/2-z
-x,y,1/2-z
-x,-y,-z
x,y,-z
-x,y,1/2+z
x,-y,1/2+z
1/2+x,1/2+y,z
1/2-x,1/2-y,z
1/2+x,1/2-y,1/2-z
1/2-x,1/2+y,1/2-z
1/2-x,1/2-y,-z
1/2+x,1/2+y,-z
1/2-x,1/2+y,1/2+z
1/2+x,1/2-y,1/2+z
loop_
_atom_site_type_symbol
_atom_site_label
_atom_site_fract_x
_atom_site_fract_y
_atom_site_fract_z
Si Si1 0.842362 0.500000 0.250000
Si Si2 0.534162 0.140246 0.347054
Si Si3 0.422790 0.264951 0.774127
Si Si4 0.826928 0.281254 0.891635
Si Si5 0.386046 0.095321 0.602238
Si Si6 0.704056 0.692888 0.108804
Si Si7 0.690400 0.087188 0.393462
O O1 0.889131 0.546349 0.314589
O O2 0.789961 0.465983 0.323394
O O3 0.500000 0.117094 0.250000
O O4 0.559472 0.208277 0.340000
O O5 0.465292 0.127856 0.415516
O O6 0.604196 0.102635 0.380652
O O7 0.500000 0.297685 0.750000
O O8 0.388810 0.246028 0.675117
O O9 0.370989 0.309798 0.831213
O O10 0.750000 0.250000 0.864025
O O11 0.826286 0.352543 0.873813
O O12 0.846509 0.267513 0.000000
O O13 0.366165 0.066613 0.500000
O O14 0.750000 0.750000 0.138259
O O15 0.756135 0.639411 0.137060
O O16 0.682597 0.693439 0.000000
O O17 0.705517 0.068275 0.500000
#
# Coordination Sequence:
#
# PCOD8276920 Si02
#       7
#     8  16  16  16  16  16  16
#     4  12  24  39  54  78 107 156 200 234 269 318
#     4  11  19  34  51  79 104 151 186 227 269 318
#     4  11  20  32  55  83 113 143 174 222 280 339
#     4  10  21  35  54  79 108 142 178 222 278 335
#     4  11  23  38  54  75 111 151 191 233 272 322
#     4  10  21  35  57  84 110 144 184 231 284 335
#     4  11  23  38  56  79 108 146 191 235 277 321
#
# _framework density 17.828496000000001
#
# number of rings (size 3 to 8) (size 9 to 14) (size 15 to 20)
#    0.000    1.231    6.154    1.385    2.154    2.462 
#    0.000    1.538    0.000    0.000    0.000    0.538 
#    0.000    2.462    0.000    0.000    0.000    0.000 
#
# Total GULP energy -644317.116336 kJ/mol
# GULP energy per Si atom -12390.713776 kJ/mol
# Density = 1.778792 g / cm^3
# Si number density = 17.828496 Si / 1000 Ang^3
#
#
#
# Elastic Constant Matrix: (Units=GPa)
#
#
# Indices 1 2 3 4 5 6 
#
# 1 96.1917 54.5220 45.3590 0.0000 0.0000 0.0000
# 2 54.5220 90.1498 49.9303 0.0000 0.0000 0.0000
# 3 45.3590 49.9303 93.6089 0.0000 0.0000 0.0000
# 4 0.0000 0.0000 0.0000 31.8654 0.0000 0.0000
# 5 0.0000 0.0000 0.0000 0.0000 25.5703 0.0000
# 6 0.0000 0.0000 0.0000 0.0000 0.0000 19.3920
#
#
#
# Elastic Compliance Matrix: (Units=1/GPa)
#
#
# Indices 1 2 3 4 5 6 
#
# 1 0.016741 -0.007994 -0.003848 0.000000 0.000000 0.000000
# 2 -0.007994 0.019560 -0.006560 0.000000 0.000000 0.000000
# 3 -0.003848 -0.006560 0.016047 0.000000 0.000000 0.000000
# 4 0.000000 0.000000 0.000000 0.031382 0.000000 0.000000
# 5 0.000000 0.000000 0.000000 0.000000 0.039108 0.000000
# 6 0.000000 0.000000 0.000000 0.000000 0.000000 0.051568
#
#
# Mechanical properties :
#
#
# Convention : Reuss Voigt Hill
#
# Bulk Modulus (GPa) = 64.33226 64.39701 64.36463
# Shear Modulus (GPa) = 23.10626 24.04151 23.57388
#
# Velocity S-wave (km/s) = 3.60395 3.67616 3.64023
# Velocity P-wave (km/s) = 7.31302 7.36326 7.33818
#
# Compressibility (1/GPa) = 0.01554430
#
# Stress axis : x y z
#
# Youngs Moduli (GPa) = 59.73194 51.12356 62.31837
#
# Poissons Ratio (x) = 0.40866 0.23983
# Poissons Ratio (y) = 0.47747 0.40881
# Poissons Ratio (z) = 0.22988 0.33537
#
# Static dielectric constant tensor:
#      x y z
#    x 3.382420 0.000000 0.000000 
#    y 0.000000 3.273590 0.000000 
#    z 0.000000 0.000000 3.557190 
# 
# 
# High freq. dielectric constant tensor:
#      x y z
#    x 1.666930 0.000000 0.000000 
#    y 0.000000 1.656030 0.000000 
#    z 0.000000 0.000000 1.716840 
# 
# From -- ./inp_files/30199.got.cif
#   From: 2010.03.12/outbox.cif.g09.slc.cpg/sg66_16_cif.got.tgz:30199.got - 2010.04.10 21:57:39.
