data_PCOD8276375
_publ_section_title
;
Structure prediction by ZEFSAII (Michael W. Deem and Ramdas Pophale) SiO2 
 PCOD8276375
Probable space group: C C C M
;
_chemical_formula_sum "Si O2"
_cell_formula_units_Z 128
_cell_length_a 11.044735
_cell_length_b 27.884530
_cell_length_c 23.023544
_cell_angle_alpha 90.000000
_cell_angle_beta 90.000000
_cell_angle_gamma 90.000000
_cell_volume 7090.727639
_symmetry_space_group_name_H-M "C C C M"
_symmetry_group_IT_number 66
_symmetry_cell_setting 'orthorhombic'
loop_
_space_group_symop_operation_xyz
x,y,z
-x,-y,z
x,-y,1/2-z
-x,y,1/2-z
-x,-y,-z
x,y,-z
-x,y,1/2+z
x,-y,1/2+z
1/2+x,1/2+y,z
1/2-x,1/2-y,z
1/2+x,1/2-y,1/2-z
1/2-x,1/2+y,1/2-z
1/2-x,1/2-y,-z
1/2+x,1/2+y,-z
1/2-x,1/2+y,1/2+z
1/2+x,1/2-y,1/2+z
loop_
_atom_site_type_symbol
_atom_site_label
_atom_site_fract_x
_atom_site_fract_y
_atom_site_fract_z
Si Si1 0.132382 0.681653 0.267849
Si Si2 0.057815 0.766969 0.342736
Si Si3 0.346585 0.459119 0.567729
Si Si4 0.302094 0.300431 0.338489
Si Si5 0.756784 0.152769 0.377753
Si Si6 0.210658 0.367601 0.432913
Si Si7 0.972102 0.686807 0.065221
Si Si8 0.886411 0.063605 0.431095
O O1 0.121426 0.736639 0.291278
O O2 0.223299 0.678870 0.214213
O O3 0.184019 0.646508 0.317364
O O4 0.000000 0.662543 0.250000
O O5 0.152843 0.802500 0.371826
O O6 0.006882 0.730636 0.391294
O O7 0.941801 0.795611 0.318133
O O8 0.364172 0.464933 0.500000
O O9 0.235981 0.423450 0.583873
O O10 0.474050 0.437499 0.589732
O O11 0.323656 0.513479 0.589576
O O12 0.250000 0.250000 0.359503
O O13 0.298048 0.335317 0.393672
O O14 0.661054 0.164452 0.428320
O O15 0.825052 0.104677 0.393337
O O16 0.247145 0.358803 0.500000
O O17 0.070661 0.354782 0.421261
O O18 0.988135 0.706171 0.000000
O O19 0.871610 0.073780 0.500000
#
# Coordination Sequence:
#
# PCOD8276375 Si02
#       8
#    16  16  16  16  16  16  16  16
#     4  11  22  36  53  71 105 144 182 221 260 311
#     4  11  23  34  51  78 103 142 184 223 264 317
#     4   8  16  33  57  82 109 142 176 216 272 330
#     4  12  20  34  54  76 105 140 179 222 270 309
#     4  11  22  34  51  79 104 136 185 227 264 320
#     4  10  20  34  53  80 110 141 178 220 270 331
#     4  10  20  34  49  71 111 147 171 210 269 327
#     4   9  17  33  57  83 111 140 174 223 276 325
#
# _framework density 18.051743999999999
#
# number of rings (size 3 to 8) (size 9 to 14) (size 15 to 20)
#    0.000    1.750    2.500    4.875    0.000    2.250 
#    0.000    0.625    0.000    3.750    0.000    4.375 
#    0.000    0.000    0.000    0.000    0.000    0.000 
#
# Total GULP energy -793394.984438 kJ/mol
# GULP energy per Si atom -12396.796632 kJ/mol
# Density = 1.801066 g / cm^3
# Si number density = 18.051744 Si / 1000 Ang^3
#
#
#
# Elastic Constant Matrix: (Units=GPa)
#
#
# Indices 1 2 3 4 5 6 
#
# 1 108.6369 42.5937 31.8795 0.0000 0.0000 0.0000
# 2 42.5937 93.2486 36.3182 0.0000 0.0000 0.0000
# 3 31.8795 36.3182 70.9887 0.0000 0.0000 0.0000
# 4 0.0000 0.0000 0.0000 18.1068 0.0000 0.0000
# 5 0.0000 0.0000 0.0000 0.0000 29.2865 0.0000
# 6 0.0000 0.0000 0.0000 0.0000 0.0000 32.3593
#
#
#
# Elastic Compliance Matrix: (Units=1/GPa)
#
#
# Indices 1 2 3 4 5 6 
#
# 1 0.011755 -0.004138 -0.003162 0.000000 0.000000 0.000000
# 2 -0.004138 0.014849 -0.005739 0.000000 0.000000 0.000000
# 3 -0.003162 -0.005739 0.018443 0.000000 0.000000 0.000000
# 4 0.000000 0.000000 0.000000 0.055228 0.000000 0.000000
# 5 0.000000 0.000000 0.000000 0.000000 0.034145 0.000000
# 6 0.000000 0.000000 0.000000 0.000000 0.000000 0.030903
#
#
# Mechanical properties :
#
#
# Convention : Reuss Voigt Hill
#
# Bulk Modulus (GPa) = 52.71527 54.93965 53.82746
# Shear Modulus (GPa) = 25.28779 26.75606 26.02193
#
# Velocity S-wave (km/s) = 3.74685 3.85410 3.80085
# Velocity P-wave (km/s) = 6.92707 7.09267 7.01036
#
# Compressibility (1/GPa) = 0.01896984
#
# Stress axis : x y z
#
# Youngs Moduli (GPa) = 85.06829 67.34364 54.22209
#
# Poissons Ratio (x) = 0.27867 0.17145
# Poissons Ratio (y) = 0.35201 0.31116
# Poissons Ratio (z) = 0.26899 0.38646
#
# Static dielectric constant tensor:
#      x y z
#    x 3.526440 0.000000 0.000000 
#    y 0.000000 3.284230 0.000000 
#    z 0.000000 0.000000 3.289000 
# 
# 
# High freq. dielectric constant tensor:
#      x y z
#    x 1.711350 0.000000 0.000000 
#    y 0.000000 1.671800 0.000000 
#    z 0.000000 0.000000 1.687710 
# 
# From -- ./inp_files/57344.got.cif
#   From: 2010.03.12/outbox.cif.g09.slc.cpg/sg66_29_cif.got.tgz:57344.got - 2010.04.10 21:57:39.
