data_PCOD8276768
_publ_section_title
;
Structure prediction by ZEFSAII (Michael W. Deem and Ramdas Pophale) SiO2 
 PCOD8276768
Probable space group: C C C M
;
_chemical_formula_sum "Si O2"
_cell_formula_units_Z 56
_cell_length_a 5.164765
_cell_length_b 19.837716
_cell_length_c 26.039554
_cell_angle_alpha 90.000000
_cell_angle_beta 90.000000
_cell_angle_gamma 90.000000
_cell_volume 2667.938263
_symmetry_space_group_name_H-M "C C C M"
_symmetry_group_IT_number 66
_symmetry_cell_setting 'orthorhombic'
loop_
_space_group_symop_operation_xyz
x,y,z
-x,-y,z
x,-y,1/2-z
-x,y,1/2-z
-x,-y,-z
x,y,-z
-x,y,1/2+z
x,-y,1/2+z
1/2+x,1/2+y,z
1/2-x,1/2-y,z
1/2+x,1/2-y,1/2-z
1/2-x,1/2+y,1/2-z
1/2-x,1/2-y,-z
1/2+x,1/2+y,-z
1/2-x,1/2+y,1/2+z
1/2+x,1/2-y,1/2+z
loop_
_atom_site_type_symbol
_atom_site_label
_atom_site_fract_x
_atom_site_fract_y
_atom_site_fract_z
Si Si1 0.436316 0.353150 0.609444
Si Si2 0.250000 0.750000 0.179942
Si Si3 0.496779 0.704445 0.000000
Si Si4 0.423194 0.076666 0.148153
Si Si5 0.500000 0.141733 0.750000
O O1 0.470769 0.282640 0.642118
O O2 0.481741 0.342437 0.549588
O O3 0.645951 0.409555 0.623065
O O4 0.144101 0.377605 0.621671
O O5 0.311380 0.810927 0.217919
O O6 0.750000 0.750000 0.000000
O O7 0.250000 0.750000 0.000000
O O8 0.369678 0.092978 0.208145
O O9 0.500000 0.000000 0.140185
#
# Coordination Sequence:
#
# PCOD8276768 Si02
#       5
#    16   8   8  16   8
#     4  11  24  41  66  96 129 162 213 269 323 378
#     4  10  20  37  64  98 132 159 212 268 340 366
#     4  12  24  42  69 100 127 160 204 263 333 392
#     4  11  24  43  63  91 131 177 217 256 304 377
#     4  10  21  36  64  92 129 170 214 260 314 380
#
# _framework density 20.989991
#
# number of rings (size 3 to 8) (size 9 to 14) (size 15 to 20)
#    0.000    1.143    1.429    4.714    4.000    3.429 
#    0.000   10.000    0.000    0.000    0.000    0.000 
#    0.000    0.000    0.000    0.000    0.000    0.000 
#
# Total GULP energy -346934.382086 kJ/mol
# GULP energy per Si atom -12390.513646 kJ/mol
# Density = 2.094222 g / cm^3
# Si number density = 20.989991 Si / 1000 Ang^3
#
#
#
# Elastic Constant Matrix: (Units=GPa)
#
#
# Indices 1 2 3 4 5 6 
#
# 1 93.5238 25.8521 32.8428 0.0000 0.0000 0.0000
# 2 25.8521 104.9136 49.7672 0.0000 0.0000 0.0000
# 3 32.8428 49.7672 179.6539 0.0000 0.0000 0.0000
# 4 0.0000 0.0000 0.0000 7.4163 0.0000 0.0000
# 5 0.0000 0.0000 0.0000 0.0000 23.6345 0.0000
# 6 0.0000 0.0000 0.0000 0.0000 0.0000 42.5154
#
#
#
# Elastic Compliance Matrix: (Units=1/GPa)
#
#
# Indices 1 2 3 4 5 6 
#
# 1 0.011843 -0.002177 -0.001562 0.000000 0.000000 0.000000
# 2 -0.002177 0.011374 -0.002753 0.000000 0.000000 0.000000
# 3 -0.001562 -0.002753 0.006614 0.000000 0.000000 0.000000
# 4 0.000000 0.000000 0.000000 0.134839 0.000000 0.000000
# 5 0.000000 0.000000 0.000000 0.000000 0.042311 0.000000
# 6 0.000000 0.000000 0.000000 0.000000 0.000000 0.023521
#
#
# Mechanical properties :
#
#
# Convention : Reuss Voigt Hill
#
# Bulk Modulus (GPa) = 59.35681 66.11284 62.73483
# Shear Modulus (GPa) = 20.07212 32.68849 26.38031
#
# Velocity S-wave (km/s) = 3.09572 3.95059 3.54899
# Velocity P-wave (km/s) = 6.41233 7.23708 6.83715
#
# Compressibility (1/GPa) = 0.01684727
#
# Stress axis : x y z
#
# Youngs Moduli (GPa) = 84.43945 87.91992 151.18671
#
# Poissons Ratio (x) = 0.19143 0.23613
# Poissons Ratio (y) = 0.18385 0.41618
# Poissons Ratio (z) = 0.13188 0.24202
#
# Static dielectric constant tensor:
#      x y z
#    x 3.685100 0.000000 0.000000 
#    y 0.000000 4.113380 0.000000 
#    z 0.000000 0.000000 4.157010 
# 
# 
# High freq. dielectric constant tensor:
#      x y z
#    x 1.811820 0.000000 0.000000 
#    y 0.000000 1.821150 0.000000 
#    z 0.000000 0.000000 1.839910 
# 
# From -- ./inp_files/53918.got.cif
#   From: 2010.03.12/outbox.cif.g09.slc.cpg/sg66_27_cif.got.tgz:53918.got - 2010.04.10 21:57:39.
