data_PCOD8276699
_publ_section_title
;
Structure prediction by ZEFSAII (Michael W. Deem and Ramdas Pophale) SiO2 
 PCOD8276699
Probable space group: C C C M
;
_chemical_formula_sum "Si O2"
_cell_formula_units_Z 104
_cell_length_a 10.622605
_cell_length_b 20.645651
_cell_length_c 26.453483
_cell_angle_alpha 90.000000
_cell_angle_beta 90.000000
_cell_angle_gamma 90.000000
_cell_volume 5801.529111
_symmetry_space_group_name_H-M "C C C M"
_symmetry_group_IT_number 66
_symmetry_cell_setting 'orthorhombic'
loop_
_space_group_symop_operation_xyz
x,y,z
-x,-y,z
x,-y,1/2-z
-x,y,1/2-z
-x,-y,-z
x,y,-z
-x,y,1/2+z
x,-y,1/2+z
1/2+x,1/2+y,z
1/2-x,1/2-y,z
1/2+x,1/2-y,1/2-z
1/2-x,1/2+y,1/2-z
1/2-x,1/2-y,-z
1/2+x,1/2+y,-z
1/2-x,1/2+y,1/2+z
1/2+x,1/2-y,1/2+z
loop_
_atom_site_type_symbol
_atom_site_label
_atom_site_fract_x
_atom_site_fract_y
_atom_site_fract_z
Si Si1 0.561421 0.212302 0.941788
Si Si2 0.913140 0.305002 0.341587
Si Si3 0.723562 0.570671 0.734539
Si Si4 0.500000 0.885364 0.250000
Si Si5 0.322947 0.650424 0.943359
Si Si6 0.858259 0.838858 0.820558
Si Si7 0.937030 0.930086 0.361712
O O1 0.460779 0.192896 0.899307
O O2 0.607330 0.283817 0.926901
O O3 0.674086 0.160954 0.937135
O O4 0.508430 0.210610 0.000000
O O5 0.907740 0.234142 0.316301
O O6 0.777672 0.338482 0.346924
O O7 0.997763 0.343906 0.301592
O O8 0.673605 0.500000 0.750000
O O9 0.874228 0.572093 0.742698
O O10 0.653937 0.627421 0.765743
O O11 0.676415 0.579561 0.677790
O O12 0.369126 0.587274 0.913779
O O13 0.358532 0.633840 0.000000
O O14 0.951455 0.879345 0.854887
O O15 0.000000 0.000000 0.362647
#
# Coordination Sequence:
#
# PCOD8276699 Si02
#       7
#    16  16  16   8  16  16  16
#     4   9  17  34  59  81 107 140 180 229 276 328
#     4  10  20  37  54  80 113 141 175 227 280 323
#     4  11  22  38  55  78 107 145 185 220 260 324
#     4  10  23  36  56  82 109 140 176 228 282 316
#     4   9  19  34  55  84 108 135 181 231 274 319
#     4  10  22  35  51  79 115 139 180 224 262 324
#     4  12  22  35  58  78 107 151 184 216 265 325
#
# _framework density 17.926309
#
# number of rings (size 3 to 8) (size 9 to 14) (size 15 to 20)
#    0.000    1.846    3.077    2.538    2.154    0.308 
#    0.000    2.308    0.000    0.000    0.000    2.154 
#    0.000    0.000    0.000    0.000    0.000    0.000 
#
# Total GULP energy -644514.084424 kJ/mol
# GULP energy per Si atom -12394.501624 kJ/mol
# Density = 1.788551 g / cm^3
# Si number density = 17.926309 Si / 1000 Ang^3
#
#
#
# Elastic Constant Matrix: (Units=GPa)
#
#
# Indices 1 2 3 4 5 6 
#
# 1 63.6627 34.6699 39.9422 0.0000 0.0000 0.0000
# 2 34.6699 76.0378 39.8106 0.0000 0.0000 0.0000
# 3 39.9422 39.8106 114.4871 0.0000 0.0000 0.0000
# 4 0.0000 0.0000 0.0000 27.3887 0.0000 0.0000
# 5 0.0000 0.0000 0.0000 0.0000 30.4928 0.0000
# 6 0.0000 0.0000 0.0000 0.0000 0.0000 18.0544
#
#
#
# Elastic Compliance Matrix: (Units=1/GPa)
#
#
# Indices 1 2 3 4 5 6 
#
# 1 0.023373 -0.007810 -0.005439 0.000000 0.000000 0.000000
# 2 -0.007810 0.018688 -0.003774 0.000000 0.000000 0.000000
# 3 -0.005439 -0.003774 0.011944 0.000000 0.000000 0.000000
# 4 0.000000 0.000000 0.000000 0.036511 0.000000 0.000000
# 5 0.000000 0.000000 0.000000 0.000000 0.032795 0.000000
# 6 0.000000 0.000000 0.000000 0.000000 0.000000 0.055388
#
#
# Mechanical properties :
#
#
# Convention : Reuss Voigt Hill
#
# Bulk Modulus (GPa) = 50.09723 53.67034 51.88378
# Shear Modulus (GPa) = 22.78969 24.50485 23.64727
#
# Velocity S-wave (km/s) = 3.56940 3.70128 3.63593
# Velocity P-wave (km/s) = 6.70778 6.94769 6.82879
#
# Compressibility (1/GPa) = 0.01996118
#
# Stress axis : x y z
#
# Youngs Moduli (GPa) = 42.78432 53.51029 83.72166
#
# Poissons Ratio (x) = 0.41789 0.45534
# Poissons Ratio (y) = 0.33413 0.31595
# Poissons Ratio (z) = 0.23269 0.20194
#
# Static dielectric constant tensor:
#      x y z
#    x 3.347980 0.000000 0.000000 
#    y 0.000000 3.319690 0.000000 
#    z 0.000000 0.000000 3.253500 
# 
# 
# High freq. dielectric constant tensor:
#      x y z
#    x 1.696710 0.000000 0.000000 
#    y 0.000000 1.687570 0.000000 
#    z 0.000000 0.000000 1.690590 
# 
# From -- ./inp_files/63795.got.cif
#   From: 2010.03.12/outbox.cif.g09.slc.cpg/sg66_32_cif.got.tgz:63795.got - 2010.04.10 21:57:39.
