data_PCOD8276894
_publ_section_title
;
Structure prediction by ZEFSAII (Michael W. Deem and Ramdas Pophale) SiO2 
 PCOD8276894
Probable space group: C C C M
;
_chemical_formula_sum "Si O2"
_cell_formula_units_Z 68
_cell_length_a 7.874455
_cell_length_b 20.290436
_cell_length_c 22.759920
_cell_angle_alpha 90.000000
_cell_angle_beta 90.000000
_cell_angle_gamma 90.000000
_cell_volume 3636.491828
_symmetry_space_group_name_H-M "C C C M"
_symmetry_group_IT_number 66
_symmetry_cell_setting 'orthorhombic'
loop_
_space_group_symop_operation_xyz
x,y,z
-x,-y,z
x,-y,1/2-z
-x,y,1/2-z
-x,-y,-z
x,y,-z
-x,y,1/2+z
x,-y,1/2+z
1/2+x,1/2+y,z
1/2-x,1/2-y,z
1/2+x,1/2-y,1/2-z
1/2-x,1/2+y,1/2-z
1/2-x,1/2-y,-z
1/2+x,1/2+y,-z
1/2-x,1/2+y,1/2+z
1/2+x,1/2-y,1/2+z
loop_
_atom_site_type_symbol
_atom_site_label
_atom_site_fract_x
_atom_site_fract_y
_atom_site_fract_z
Si Si1 0.237559 0.389759 0.216663
Si Si2 0.000000 0.500000 0.250000
Si Si3 0.578018 0.219740 0.353260
Si Si4 0.422516 0.644320 0.833911
Si Si5 0.804234 0.325053 0.935116
O O1 0.122916 0.455001 0.209763
O O2 0.123812 0.326997 0.200994
O O3 0.400457 0.395785 0.172983
O O4 0.294412 0.379525 0.283749
O O5 0.750000 0.250000 0.381665
O O6 0.458393 0.277406 0.327272
O O7 0.486050 0.175440 0.402705
O O8 0.333675 0.632973 0.897216
O O9 0.750000 0.250000 0.941780
O O10 0.819168 0.357444 0.000000
#
# Coordination Sequence:
#
# PCOD8276894 Si02
#       5
#    16   4  16  16  16
#     4  10  21  34  50  76 102 131 167 207 258 309
#     4  12  24  34  48  72 106 134 160 210 268 312
#     4   9  18  31  51  78 105 133 166 208 254 301
#     4   9  19  33  53  76 102 133 166 206 251 306
#     4   9  17  29  46  73 108 139 165 198 248 304
#
# _framework density 18.699341
#
# number of rings (size 3 to 8) (size 9 to 14) (size 15 to 20)
#    0.000    2.588    0.000    1.412    0.000   24.000 
#    0.000    3.529    0.000    0.000    0.000   27.176 
#    0.000    0.000    0.000    0.000    0.000    0.000 
#
# Total GULP energy -421363.244762 kJ/mol
# GULP energy per Si atom -12393.036611 kJ/mol
# Density = 1.865678 g / cm^3
# Si number density = 18.699341 Si / 1000 Ang^3
#
#
#
# Elastic Constant Matrix: (Units=GPa)
#
#
# Indices 1 2 3 4 5 6 
#
# 1 125.3963 50.9418 60.1777 0.0000 0.0000 0.0000
# 2 50.9418 59.9872 33.6028 0.0000 0.0000 0.0000
# 3 60.1777 33.6028 103.5754 0.0000 0.0000 0.0000
# 4 0.0000 0.0000 0.0000 1.7466 0.0000 0.0000
# 5 0.0000 0.0000 0.0000 0.0000 19.4410 0.0000
# 6 0.0000 0.0000 0.0000 0.0000 0.0000 39.4814
#
#
#
# Elastic Compliance Matrix: (Units=1/GPa)
#
#
# Indices 1 2 3 4 5 6 
#
# 1 0.014220 -0.009102 -0.005309 0.000000 0.000000 0.000000
# 2 -0.009102 0.026199 -0.003211 0.000000 0.000000 0.000000
# 3 -0.005309 -0.003211 0.013781 0.000000 0.000000 0.000000
# 4 0.000000 0.000000 0.000000 0.572532 0.000000 0.000000
# 5 0.000000 0.000000 0.000000 0.000000 0.051438 0.000000
# 6 0.000000 0.000000 0.000000 0.000000 0.000000 0.025328
#
#
# Mechanical properties :
#
#
# Convention : Reuss Voigt Hill
#
# Bulk Modulus (GPa) = 52.75551 64.26703 58.51127
# Shear Modulus (GPa) = 6.71086 21.74958 14.23022
#
# Velocity S-wave (km/s) = 1.89647 3.41415 2.76162
# Velocity P-wave (km/s) = 5.75058 7.07002 6.44416
#
# Compressibility (1/GPa) = 0.01895537
#
# Stress axis : x y z
#
# Youngs Moduli (GPa) = 70.32265 38.17005 72.56270
#
# Poissons Ratio (x) = 0.34742 0.38524
# Poissons Ratio (y) = 0.64008 0.23302
# Poissons Ratio (z) = 0.37334 0.12257
#
# Static dielectric constant tensor:
#      x y z
#    x 3.860680 0.000000 0.000000 
#    y 0.000000 3.085100 0.000000 
#    z 0.000000 0.000000 3.460070 
# 
# 
# High freq. dielectric constant tensor:
#      x y z
#    x 1.751290 0.000000 0.000000 
#    y 0.000000 1.675780 0.000000 
#    z 0.000000 0.000000 1.696770 
# 
# From -- ./inp_files/46717.got.cif
#   From: 2010.03.12/outbox.cif.g09.slc.cpg/sg66_24_cif.got.tgz:46717.got - 2010.04.10 21:57:39.
