data_PCOD8276938
_publ_section_title
;
Structure prediction by ZEFSAII (Michael W. Deem and Ramdas Pophale) SiO2 
 PCOD8276938
Probable space group: C C C M
;
_chemical_formula_sum "Si O2"
_cell_formula_units_Z 116
_cell_length_a 26.627488
_cell_length_b 26.688602
_cell_length_c 9.002225
_cell_angle_alpha 90.000000
_cell_angle_beta 90.000000
_cell_angle_gamma 90.000000
_cell_volume 6397.435063
_symmetry_space_group_name_H-M "C C C M"
_symmetry_group_IT_number 66
_symmetry_cell_setting 'orthorhombic'
loop_
_space_group_symop_operation_xyz
x,y,z
-x,-y,z
x,-y,1/2-z
-x,y,1/2-z
-x,-y,-z
x,y,-z
-x,y,1/2+z
x,-y,1/2+z
1/2+x,1/2+y,z
1/2-x,1/2-y,z
1/2+x,1/2-y,1/2-z
1/2-x,1/2+y,1/2-z
1/2-x,1/2-y,-z
1/2+x,1/2+y,-z
1/2-x,1/2+y,1/2+z
1/2+x,1/2-y,1/2+z
loop_
_atom_site_type_symbol
_atom_site_label
_atom_site_fract_x
_atom_site_fract_y
_atom_site_fract_z
Si Si1 0.677650 0.083790 0.674887
Si Si2 0.135899 0.251609 0.828587
Si Si3 0.790344 0.318525 0.175895
Si Si4 0.286867 0.451874 0.830024
Si Si5 0.809504 0.156427 0.670012
Si Si6 0.000000 0.500000 0.750000
Si Si7 0.417596 0.925105 0.165161
Si Si8 0.448440 0.185426 0.324138
O O1 0.675558 0.094318 0.500000
O O2 0.675859 0.135428 0.766593
O O3 0.728624 0.055131 0.719108
O O4 0.627366 0.054436 0.728071
O O5 0.188911 0.270408 0.763123
O O6 0.140483 0.190631 0.814148
O O7 0.091540 0.273672 0.730197
O O8 0.128748 0.267535 0.000000
O O9 0.732450 0.324911 0.215977
O O10 0.796873 0.311854 0.000000
O O11 0.310438 0.500000 0.750000
O O12 0.319835 0.402213 0.793023
O O13 0.289305 0.465548 0.000000
O O14 0.788506 0.159437 0.500000
O O15 0.036106 0.536120 0.844826
O O16 0.435558 0.871115 0.227125
O O17 0.395686 0.919212 0.000000
O O18 0.500000 0.202072 0.250000
O O19 0.453142 0.188850 0.500000
#
# Coordination Sequence:
#
# PCOD8276938 Si02
#       8
#    16  16  16  16  16   4  16  16
#     4  10  21  36  54  73  99 135 175 218 268 324
#     4  11  21  35  56  78 104 140 176 214 266 321
#     4  11  20  31  50  78 108 137 172 216 264 318
#     4   9  19  35  52  75 104 139 175 211 254 304
#     4   9  20  36  52  75 108 142 177 214 257 316
#     4  12  26  44  56  74  98 132 180 230 292 336
#     4  11  24  40  57  75  97 128 173 230 281 324
#     4  11  23  40  59  80 105 134 174 222 275 329
#
# _framework density 18.132266000000001
#
# number of rings (size 3 to 8) (size 9 to 14) (size 15 to 20)
#    0.000    1.655    2.069    3.931    0.966    7.172 
#    0.000    0.000    0.000    0.000    0.000    0.000 
#    0.000    0.552    0.000    6.345    0.000    1.931 
#
# Total GULP energy -718940.493948 kJ/mol
# GULP energy per Si atom -12395.525758 kJ/mol
# Density = 1.809100 g / cm^3
# Si number density = 18.132266 Si / 1000 Ang^3
#
#
#
# Elastic Constant Matrix: (Units=GPa)
#
#
# Indices 1 2 3 4 5 6 
#
# 1 51.5081 40.6467 19.5864 0.0000 0.0000 0.0000
# 2 40.6467 120.5472 34.3490 0.0000 0.0000 0.0000
# 3 19.5864 34.3490 77.1957 0.0000 0.0000 0.0000
# 4 0.0000 0.0000 0.0000 21.5599 0.0000 0.0000
# 5 0.0000 0.0000 0.0000 0.0000 20.4156 0.0000
# 6 0.0000 0.0000 0.0000 0.0000 0.0000 25.3628
#
#
#
# Elastic Compliance Matrix: (Units=1/GPa)
#
#
# Indices 1 2 3 4 5 6 
#
# 1 0.027135 -0.008232 -0.003222 0.000000 0.000000 0.000000
# 2 -0.008232 0.011997 -0.003250 0.000000 0.000000 0.000000
# 3 -0.003222 -0.003250 0.015218 0.000000 0.000000 0.000000
# 4 0.000000 0.000000 0.000000 0.046382 0.000000 0.000000
# 5 0.000000 0.000000 0.000000 0.000000 0.048982 0.000000
# 6 0.000000 0.000000 0.000000 0.000000 0.000000 0.039428
#
#
# Mechanical properties :
#
#
# Convention : Reuss Voigt Hill
#
# Bulk Modulus (GPa) = 40.09096 48.71282 44.40189
# Shear Modulus (GPa) = 22.03967 23.77893 22.90930
#
# Velocity S-wave (km/s) = 3.49018 3.62528 3.55837
# Velocity P-wave (km/s) = 6.19678 6.66686 6.43611
#
# Compressibility (1/GPa) = 0.02494328
#
# Stress axis : x y z
#
# Youngs Moduli (GPa) = 36.85213 83.35399 65.71332
#
# Poissons Ratio (x) = 0.68613 0.21174
# Poissons Ratio (y) = 0.30335 0.21355
# Poissons Ratio (z) = 0.11875 0.27087
#
# Static dielectric constant tensor:
#      x y z
#    x 3.073320 0.000000 0.000000 
#    y 0.000000 3.509440 0.000000 
#    z 0.000000 0.000000 3.291830 
# 
# 
# High freq. dielectric constant tensor:
#      x y z
#    x 1.659690 0.000000 0.000000 
#    y 0.000000 1.699980 0.000000 
#    z 0.000000 0.000000 1.709700 
# 
# From -- ./inp_files/10751.got.cif
#   From: 2010.03.12/outbox.cif.g09.slc.cpg/sg66_6_cif.got.tgz:10751.got - 2010.04.10 21:57:39.
