data_PCOD8276054
_publ_section_title
;
Structure prediction by ZEFSAII (Michael W. Deem and Ramdas Pophale) SiO2 
 PCOD8276054
Probable space group: C C C M
;
_chemical_formula_sum "Si O2"
_cell_formula_units_Z 80
_cell_length_a 19.463489
_cell_length_b 25.556839
_cell_length_c 8.726319
_cell_angle_alpha 90.000000
_cell_angle_beta 90.000000
_cell_angle_gamma 90.000000
_cell_volume 4340.691452
_symmetry_space_group_name_H-M "C C C M"
_symmetry_group_IT_number 66
_symmetry_cell_setting 'orthorhombic'
loop_
_space_group_symop_operation_xyz
x,y,z
-x,-y,z
x,-y,1/2-z
-x,y,1/2-z
-x,-y,-z
x,y,-z
-x,y,1/2+z
x,-y,1/2+z
1/2+x,1/2+y,z
1/2-x,1/2-y,z
1/2+x,1/2-y,1/2-z
1/2-x,1/2+y,1/2-z
1/2-x,1/2-y,-z
1/2+x,1/2+y,-z
1/2-x,1/2+y,1/2+z
1/2+x,1/2-y,1/2+z
loop_
_atom_site_type_symbol
_atom_site_label
_atom_site_fract_x
_atom_site_fract_y
_atom_site_fract_z
Si Si1 0.072748 0.944994 0.818839
Si Si2 0.668998 0.141339 0.820951
Si Si3 0.327388 0.647165 0.178744
Si Si4 0.927018 0.555620 0.818639
Si Si5 0.331518 0.752581 0.672487
O O1 0.128976 0.902691 0.769371
O O2 0.000000 0.927637 0.750000
O O3 0.097310 0.000000 0.750000
O O4 0.065786 0.950305 0.000000
O O5 0.748807 0.136051 0.775478
O O6 0.629644 0.098117 0.723743
O O7 0.641666 0.198933 0.774251
O O8 0.655903 0.132265 0.000000
O O9 0.359546 0.697763 0.262457
O O10 0.333245 0.658585 0.000000
O O11 0.903957 0.500000 0.750000
O O12 0.000000 0.573290 0.750000
O O13 0.933572 0.550556 0.000000
O O14 0.358335 0.760360 0.500000
O O15 0.250000 0.750000 0.680677
#
# Coordination Sequence:
#
# PCOD8276054 Si02
#       5
#    16  16  16  16  16
#     4  10  20  35  53  74 101 135 173 211 257 308
#     4  10  19  34  55  79 107 138 172 213 259 307
#     4   9  19  34  53  77 105 137 173 214 261 311
#     4  11  22  38  57  78 105 138 175 213 258 310
#     4   9  17  30  50  77 106 136 171 212 259 309
#
# _framework density 18.430243999999998
#
# number of rings (size 3 to 8) (size 9 to 14) (size 15 to 20)
#    0.000    2.200    0.000    4.800    0.000    5.600 
#    0.000    3.000    0.000    2.400    0.000    0.000 
#    0.000    0.000    0.000    0.000    0.000    0.000 
#
# Total GULP energy -496076.313235 kJ/mol
# GULP energy per Si atom -12401.907831 kJ/mol
# Density = 1.838830 g / cm^3
# Si number density = 18.430244 Si / 1000 Ang^3
#
#
#
# Elastic Constant Matrix: (Units=GPa)
#
#
# Indices 1 2 3 4 5 6 
#
# 1 68.3789 72.7748 39.5357 0.0000 0.0000 0.0000
# 2 72.7748 150.3467 62.1434 0.0000 0.0000 0.0000
# 3 39.5357 62.1434 111.2070 0.0000 0.0000 0.0000
# 4 0.0000 0.0000 0.0000 36.2618 0.0000 0.0000
# 5 0.0000 0.0000 0.0000 0.0000 22.3256 0.0000
# 6 0.0000 0.0000 0.0000 0.0000 0.0000 14.9291
#
#
#
# Elastic Compliance Matrix: (Units=1/GPa)
#
#
# Indices 1 2 3 4 5 6 
#
# 1 0.031146 -0.013653 -0.003444 0.000000 0.000000 0.000000
# 2 -0.013653 0.014634 -0.003324 0.000000 0.000000 0.000000
# 3 -0.003444 -0.003324 0.012074 0.000000 0.000000 0.000000
# 4 0.000000 0.000000 0.000000 0.027577 0.000000 0.000000
# 5 0.000000 0.000000 0.000000 0.000000 0.044792 0.000000
# 6 0.000000 0.000000 0.000000 0.000000 0.000000 0.066983
#
#
# Mechanical properties :
#
#
# Convention : Reuss Voigt Hill
#
# Bulk Modulus (GPa) = 58.77726 75.42671 67.10198
# Shear Modulus (GPa) = 20.51567 25.06855 22.79211
#
# Velocity S-wave (km/s) = 3.34001 3.69207 3.52045
# Velocity P-wave (km/s) = 6.84363 7.69347 7.28096
#
# Compressibility (1/GPa) = 0.01701338
#
# Stress axis : x y z
#
# Youngs Moduli (GPa) = 32.10709 68.33587 82.82426
#
# Poissons Ratio (x) = 0.93297 0.28521
# Poissons Ratio (y) = 0.43835 0.27528
# Poissons Ratio (z) = 0.11056 0.22712
#
# Static dielectric constant tensor:
#      x y z
#    x 3.192370 0.000000 0.000000 
#    y 0.000000 3.578440 0.000000 
#    z 0.000000 0.000000 3.483830 
# 
# 
# High freq. dielectric constant tensor:
#      x y z
#    x 1.686890 0.000000 0.000000 
#    y 0.000000 1.727600 0.000000 
#    z 0.000000 0.000000 1.728750 
# 
# From -- ./inp_files/6722.got.cif
#   From: 2010.03.12/outbox.cif.g09.slc.cpg/sg66_4_cif.got.tgz:6722.got - 2010.04.10 21:57:39.
