data_PCOD8276747
_publ_section_title
;
Structure prediction by ZEFSAII (Michael W. Deem and Ramdas Pophale) SiO2 
 PCOD8276747
Probable space group: C C C M
;
_chemical_formula_sum "Si O2"
_cell_formula_units_Z 88
_cell_length_a 17.998758
_cell_length_b 14.786107
_cell_length_c 15.764209
_cell_angle_alpha 90.000000
_cell_angle_beta 90.000000
_cell_angle_gamma 90.000000
_cell_volume 4195.353559
_symmetry_space_group_name_H-M "C C C M"
_symmetry_group_IT_number 66
_symmetry_cell_setting 'orthorhombic'
loop_
_space_group_symop_operation_xyz
x,y,z
-x,-y,z
x,-y,1/2-z
-x,y,1/2-z
-x,-y,-z
x,y,-z
-x,y,1/2+z
x,-y,1/2+z
1/2+x,1/2+y,z
1/2-x,1/2-y,z
1/2+x,1/2-y,1/2-z
1/2-x,1/2+y,1/2-z
1/2-x,1/2-y,-z
1/2+x,1/2+y,-z
1/2-x,1/2+y,1/2+z
1/2+x,1/2-y,1/2+z
loop_
_atom_site_type_symbol
_atom_site_label
_atom_site_fract_x
_atom_site_fract_y
_atom_site_fract_z
Si Si1 0.167113 0.785338 0.500000
Si Si2 0.686464 0.508500 0.000000
Si Si3 0.197799 0.506532 0.849860
Si Si4 0.113713 0.669471 0.648839
Si Si5 0.962872 0.095050 0.000000
Si Si6 0.980504 0.213962 0.159317
Si Si7 0.673099 0.796167 0.674182
O O1 0.250000 0.750000 0.500000
O O2 0.151648 0.891849 0.500000
O O3 0.128516 0.744869 0.580742
O O4 0.733137 0.505503 0.912680
O O5 0.626156 0.426813 0.000000
O O6 0.222220 0.500000 0.750000
O O7 0.132562 0.434496 0.874746
O O8 0.165083 0.605471 0.868750
O O9 0.168773 0.693797 0.725096
O O10 0.026307 0.689835 0.664699
O O11 0.995904 0.147256 0.081617
O O12 0.000000 0.000000 0.000000
O O13 0.894291 0.234899 0.143459
O O14 0.000000 0.165255 0.250000
O O15 0.750000 0.750000 0.646793
#
# Coordination Sequence:
#
# PCOD8276747 Si02
#       7
#     8   8  16  16   8  16  16
#     4  12  20  36  63  92 121 161 210 277 323 372
#     4  12  24  40  64  95 132 167 212 270 324 379
#     4  10  22  38  61  97 129 162 214 268 317 380
#     4  10  20  37  61  92 125 162 218 264 322 378
#     4  12  26  46  59  93 127 164 220 258 316 395
#     4  10  23  43  66  89 127 175 209 263 325 383
#     4  10  21  38  61  91 127 171 213 253 324 391
#
# _framework density 20.975587000000001
#
# number of rings (size 3 to 8) (size 9 to 14) (size 15 to 20)
#    0.000    1.455    1.818    3.273    2.545    1.818 
#    3.273    5.455    0.000    3.273    0.000    0.000 
#    0.000    0.000    0.000    0.000    0.000    0.000 
#
# Total GULP energy -545090.682264 kJ/mol
# GULP energy per Si atom -12388.424597 kJ/mol
# Density = 2.092785 g / cm^3
# Si number density = 20.975587 Si / 1000 Ang^3
#
#
#
# Elastic Constant Matrix: (Units=GPa)
#
#
# Indices 1 2 3 4 5 6 
#
# 1 119.0305 45.9615 31.8468 0.0000 0.0000 0.0000
# 2 45.9615 144.2477 60.1870 0.0000 0.0000 0.0000
# 3 31.8468 60.1870 118.5015 0.0000 0.0000 0.0000
# 4 0.0000 0.0000 0.0000 36.6791 0.0000 0.0000
# 5 0.0000 0.0000 0.0000 0.0000 27.9276 0.0000
# 6 0.0000 0.0000 0.0000 0.0000 0.0000 38.5426
#
#
#
# Elastic Compliance Matrix: (Units=1/GPa)
#
#
# Indices 1 2 3 4 5 6 
#
# 1 0.009740 -0.002552 -0.001321 0.000000 0.000000 0.000000
# 2 -0.002552 0.009465 -0.004122 0.000000 0.000000 0.000000
# 3 -0.001321 -0.004122 0.010887 0.000000 0.000000 0.000000
# 4 0.000000 0.000000 0.000000 0.027263 0.000000 0.000000
# 5 0.000000 0.000000 0.000000 0.000000 0.035807 0.000000
# 6 0.000000 0.000000 0.000000 0.000000 0.000000 0.025945
#
#
# Mechanical properties :
#
#
# Convention : Reuss Voigt Hill
#
# Bulk Modulus (GPa) = 70.90940 73.08558 71.99749
# Shear Modulus (GPa) = 35.76546 36.88217 36.32381
#
# Velocity S-wave (km/s) = 4.13376 4.19780 4.16591
# Velocity P-wave (km/s) = 7.52749 7.64292 7.58542
#
# Compressibility (1/GPa) = 0.01410250
#
# Stress axis : x y z
#
# Youngs Moduli (GPa) = 102.66701 105.64742 91.85095
#
# Poissons Ratio (x) = 0.26963 0.12137
# Poissons Ratio (y) = 0.26202 0.37857
# Poissons Ratio (z) = 0.13566 0.43544
#
# Static dielectric constant tensor:
#      x y z
#    x 13.332000 0.000000 0.000000 
#    y 0.000000 4.092350 0.000000 
#    z 0.000000 0.000000 3.851430 
# 
# 
# High freq. dielectric constant tensor:
#      x y z
#    x 1.821330 0.000000 0.000000 
#    y 0.000000 1.820700 0.000000 
#    z 0.000000 0.000000 1.827050 
# 
# From -- ./inp_files/41608.got.cif
#   From: 2010.03.12/outbox.cif.g09.slc.cpg/sg66_21_cif.got.tgz:41608.got - 2010.04.10 21:57:39.
