data_PCOD8276735
_publ_section_title
;
Structure prediction by ZEFSAII (Michael W. Deem and Ramdas Pophale) SiO2 
 PCOD8276735
Probable space group: C C C M
;
_chemical_formula_sum "Si O2"
_cell_formula_units_Z 96
_cell_length_a 22.248228
_cell_length_b 9.829926
_cell_length_c 22.941887
_cell_angle_alpha 90.000000
_cell_angle_beta 90.000000
_cell_angle_gamma 90.000000
_cell_volume 5017.354780
_symmetry_space_group_name_H-M "C C C M"
_symmetry_group_IT_number 66
_symmetry_cell_setting 'orthorhombic'
loop_
_space_group_symop_operation_xyz
x,y,z
-x,-y,z
x,-y,1/2-z
-x,y,1/2-z
-x,-y,-z
x,y,-z
-x,y,1/2+z
x,-y,1/2+z
1/2+x,1/2+y,z
1/2-x,1/2-y,z
1/2+x,1/2-y,1/2-z
1/2-x,1/2+y,1/2-z
1/2-x,1/2-y,-z
1/2+x,1/2+y,-z
1/2-x,1/2+y,1/2+z
1/2+x,1/2-y,1/2+z
loop_
_atom_site_type_symbol
_atom_site_label
_atom_site_fract_x
_atom_site_fract_y
_atom_site_fract_z
Si Si1 0.068963 0.699677 0.566546
Si Si2 0.129153 0.545319 0.127225
Si Si3 0.876936 0.018890 0.432460
Si Si4 0.403457 0.000000 0.250000
Si Si5 0.953036 0.199164 0.127347
Si Si6 0.250342 0.095556 0.431486
Si Si7 0.000000 0.721939 0.250000
O O1 0.067486 0.650983 0.500000
O O2 0.083264 0.569347 0.605443
O O3 0.004725 0.759720 0.582958
O O4 0.117944 0.819200 0.575498
O O5 0.139688 0.531429 0.196154
O O6 0.100308 0.692779 0.117020
O O7 0.192664 0.521765 0.096624
O O8 0.887323 0.975580 0.500000
O O9 0.926555 0.946788 0.391406
O O10 0.810342 0.978510 0.411336
O O11 0.444526 0.872394 0.268763
O O12 0.978772 0.189893 0.193779
O O13 0.259146 0.086757 0.500000
O O14 0.250000 0.250000 0.409316
#
# Coordination Sequence:
#
# PCOD8276735 Si02
#       7
#    16  16  16   8  16  16   8
#     4  11  23  36  55  90 124 149 186 240 296 345
#     4  11  21  36  64  85 111 154 196 244 279 345
#     4  10  22  39  58  83 124 161 184 232 299 347
#     4   9  18  36  58  84 116 148 189 238 300 330
#     4  11  20  36  61  85 116 156 195 233 290 344
#     4  10  20  37  61  87 113 148 195 239 285 344
#     4   9  18  34  59  84 114 153 191 236 290 341
#
# _framework density 19.133588
#
# number of rings (size 3 to 8) (size 9 to 14) (size 15 to 20)
#    0.000    1.667    3.333    2.000    0.000    4.667 
#    0.000    4.167    7.333    0.000    0.000    0.000 
#    0.000    0.000    0.000    0.000    0.000    0.000 
#
# Total GULP energy -595247.786270 kJ/mol
# GULP energy per Si atom -12400.995547 kJ/mol
# Density = 1.909004 g / cm^3
# Si number density = 19.133588 Si / 1000 Ang^3
#
#
#
# Elastic Constant Matrix: (Units=GPa)
#
#
# Indices 1 2 3 4 5 6 
#
# 1 76.2670 -5.5370 24.4330 0.0000 0.0000 0.0000
# 2 -5.5370 39.2783 22.1961 0.0000 0.0000 0.0000
# 3 24.4330 22.1961 76.7332 0.0000 0.0000 0.0000
# 4 0.0000 0.0000 0.0000 24.8456 0.0000 0.0000
# 5 0.0000 0.0000 0.0000 0.0000 25.0972 0.0000
# 6 0.0000 0.0000 0.0000 0.0000 0.0000 13.3351
#
#
#
# Elastic Compliance Matrix: (Units=1/GPa)
#
#
# Indices 1 2 3 4 5 6 
#
# 1 0.015710 0.006027 -0.006746 0.000000 0.000000 0.000000
# 2 0.006027 0.032746 -0.011391 0.000000 0.000000 0.000000
# 3 -0.006746 -0.011391 0.018475 0.000000 0.000000 0.000000
# 4 0.000000 0.000000 0.000000 0.040249 0.000000 0.000000
# 5 0.000000 0.000000 0.000000 0.000000 0.039845 0.000000
# 6 0.000000 0.000000 0.000000 0.000000 0.000000 0.074990
#
#
# Mechanical properties :
#
#
# Convention : Reuss Voigt Hill
#
# Bulk Modulus (GPa) = 23.41308 30.49586 26.95447
# Shear Modulus (GPa) = 19.19584 22.73468 20.96526
#
# Velocity S-wave (km/s) = 3.17085 3.45078 3.31377
# Velocity P-wave (km/s) = 5.06645 5.64359 5.36279
#
# Compressibility (1/GPa) = 0.04271116
#
# Stress axis : x y z
#
# Youngs Moduli (GPa) = 63.65191 30.53795 54.12665
#
# Poissons Ratio (x) = -0.18404 0.36512
# Poissons Ratio (y) = -0.38361 0.61657
# Poissons Ratio (z) = 0.42938 0.34787
#
# Static dielectric constant tensor:
#      x y z
#    x 3.380790 0.000000 0.000000 
#    y 0.000000 3.449370 0.000000 
#    z 0.000000 0.000000 3.473370 
# 
# 
# High freq. dielectric constant tensor:
#      x y z
#    x 1.737120 0.000000 0.000000 
#    y 0.000000 1.739550 0.000000 
#    z 0.000000 0.000000 1.741470 
# 
# From -- ./inp_files/51830.got.cif
#   From: 2010.03.12/outbox.cif.g09.slc.cpg/sg66_26_cif.got.tgz:51830.got - 2010.04.10 21:57:39.
