data_PCOD8276767
_publ_section_title
;
Structure prediction by ZEFSAII (Michael W. Deem and Ramdas Pophale) SiO2 
 PCOD8276767
Probable space group: C C C M
;
_chemical_formula_sum "Si O2"
_cell_formula_units_Z 120
_cell_length_a 24.291881
_cell_length_b 11.592555
_cell_length_c 19.426175
_cell_angle_alpha 90.000000
_cell_angle_beta 90.000000
_cell_angle_gamma 90.000000
_cell_volume 5470.507361
_symmetry_space_group_name_H-M "C C C M"
_symmetry_group_IT_number 66
_symmetry_cell_setting 'orthorhombic'
loop_
_space_group_symop_operation_xyz
x,y,z
-x,-y,z
x,-y,1/2-z
-x,y,1/2-z
-x,-y,-z
x,y,-z
-x,y,1/2+z
x,-y,1/2+z
1/2+x,1/2+y,z
1/2-x,1/2-y,z
1/2+x,1/2-y,1/2-z
1/2-x,1/2+y,1/2-z
1/2-x,1/2-y,-z
1/2+x,1/2+y,-z
1/2-x,1/2+y,1/2+z
1/2+x,1/2-y,1/2+z
loop_
_atom_site_type_symbol
_atom_site_label
_atom_site_fract_x
_atom_site_fract_y
_atom_site_fract_z
Si Si1 0.028320 0.760166 0.419889
Si Si2 0.701001 0.158737 0.134708
Si Si3 0.226319 0.572223 0.423950
Si Si4 0.365683 0.182376 0.152176
Si Si5 0.170659 0.500000 0.750000
Si Si6 0.177835 0.920553 0.317689
Si Si7 0.411495 0.484924 0.075862
Si Si8 0.409783 0.250792 0.577330
O O1 0.035714 0.733319 0.500000
O O2 0.073558 0.693076 0.376524
O O3 0.038337 0.897950 0.405390
O O4 0.969232 0.705008 0.396184
O O5 0.750000 0.250000 0.128052
O O6 0.641195 0.220394 0.126992
O O7 0.707290 0.061805 0.075856
O O8 0.707048 0.095022 0.208822
O O9 0.251319 0.598254 0.500000
O O10 0.175876 0.660581 0.411765
O O11 0.264982 0.592979 0.358038
O O12 0.368058 0.067218 0.197377
O O13 0.346128 0.292763 0.197971
O O14 0.137434 0.982516 0.370003
O O15 0.184015 0.000000 0.250000
O O16 0.429238 0.616450 0.075049
O O17 0.388608 0.449984 0.000000
O O18 0.394479 0.209487 0.500000
#
# Coordination Sequence:
#
# PCOD8276767 Si02
#       8
#    16  16  16  16   8  16  16  16
#     4   9  18  37  66  95 127 164 212 272 327 384
#     4  11  25  42  65  90 130 169 219 270 327 392
#     4  11  24  41  62  94 132 170 218 274 327 390
#     4  10  23  42  63  91 127 169 224 261 331 379
#     4  10  26  44  63  88 120 180 217 264 316 392
#     4  11  24  37  63  97 129 171 214 267 329 396
#     4   9  18  35  61  96 132 165 207 261 327 392
#     4  10  20  37  64  98 129 165 210 266 331 386
#
# _framework density 21.935808999999999
#
# number of rings (size 3 to 8) (size 9 to 14) (size 15 to 20)
#    0.000    1.867    0.000    2.800    7.467    5.867 
#    0.000    4.000    0.000    8.000    0.000    0.000 
#    0.000    0.000    0.000    0.000    0.000    0.000 
#
# Total GULP energy -743292.026543 kJ/mol
# GULP energy per Si atom -12388.200442 kJ/mol
# Density = 2.188588 g / cm^3
# Si number density = 21.935809 Si / 1000 Ang^3
#
#
#
# Elastic Constant Matrix: (Units=GPa)
#
#
# Indices 1 2 3 4 5 6 
#
# 1 141.7175 38.2188 43.4194 0.0000 0.0000 0.0000
# 2 38.2188 82.4580 24.1169 0.0000 0.0000 0.0000
# 3 43.4194 24.1169 108.4290 0.0000 0.0000 0.0000
# 4 0.0000 0.0000 0.0000 27.0232 0.0000 0.0000
# 5 0.0000 0.0000 0.0000 0.0000 3.8719 0.0000
# 6 0.0000 0.0000 0.0000 0.0000 0.0000 16.5434
#
#
#
# Elastic Compliance Matrix: (Units=1/GPa)
#
#
# Indices 1 2 3 4 5 6 
#
# 1 0.008791 -0.003257 -0.002796 0.000000 0.000000 0.000000
# 2 -0.003257 0.014178 -0.001849 0.000000 0.000000 0.000000
# 3 -0.002796 -0.001849 0.010754 0.000000 0.000000 0.000000
# 4 0.000000 0.000000 0.000000 0.037005 0.000000 0.000000
# 5 0.000000 0.000000 0.000000 0.000000 0.258268 0.000000
# 6 0.000000 0.000000 0.000000 0.000000 0.000000 0.060447
#
#
# Mechanical properties :
#
#
# Convention : Reuss Voigt Hill
#
# Bulk Modulus (GPa) = 55.80874 60.45719 58.13296
# Shear Modulus (GPa) = 12.15893 24.61100 18.38497
#
# Velocity S-wave (km/s) = 2.35690 3.35319 2.89818
# Velocity P-wave (km/s) = 5.73618 6.52784 6.14477
#
# Compressibility (1/GPa) = 0.01791834
#
# Stress axis : x y z
#
# Youngs Moduli (GPa) = 113.74931 70.53269 92.99249
#
# Poissons Ratio (x) = 0.22972 0.26000
# Poissons Ratio (y) = 0.37048 0.17196
# Poissons Ratio (z) = 0.31804 0.13043
#
# Static dielectric constant tensor:
#      x y z
#    x 3.873940 0.000000 0.000000 
#    y 0.000000 4.133920 0.000000 
#    z 0.000000 0.000000 3.852340 
# 
# 
# High freq. dielectric constant tensor:
#      x y z
#    x 1.858350 0.000000 0.000000 
#    y 0.000000 1.866360 0.000000 
#    z 0.000000 0.000000 1.850190 
# 
# From -- ./inp_files/53177.got.cif
#   From: 2010.03.12/outbox.cif.g09.slc.cpg/sg66_27_cif.got.tgz:53177.got - 2010.04.10 21:57:39.
