data_PCOD8276003
_publ_section_title
;
Structure prediction by ZEFSAII (Michael W. Deem and Ramdas Pophale) SiO2 
 PCOD8276003
Probable space group: C C C M
;
_chemical_formula_sum "Si O2"
_cell_formula_units_Z 64
_cell_length_a 4.962210
_cell_length_b 34.822075
_cell_length_c 16.485132
_cell_angle_alpha 90.000000
_cell_angle_beta 90.000000
_cell_angle_gamma 90.000000
_cell_volume 2848.539297
_symmetry_space_group_name_H-M "C C C M"
_symmetry_group_IT_number 66
_symmetry_cell_setting 'orthorhombic'
loop_
_space_group_symop_operation_xyz
x,y,z
-x,-y,z
x,-y,1/2-z
-x,y,1/2-z
-x,-y,-z
x,y,-z
-x,y,1/2+z
x,-y,1/2+z
1/2+x,1/2+y,z
1/2-x,1/2-y,z
1/2+x,1/2-y,1/2-z
1/2-x,1/2+y,1/2-z
1/2-x,1/2-y,-z
1/2+x,1/2+y,-z
1/2-x,1/2+y,1/2+z
1/2+x,1/2-y,1/2+z
loop_
_atom_site_type_symbol
_atom_site_label
_atom_site_fract_x
_atom_site_fract_y
_atom_site_fract_z
Si Si1 0.516746 0.091148 0.407850
Si Si2 0.408907 0.829016 0.340421
Si Si3 0.967950 0.041686 0.908080
Si Si4 0.886516 0.788928 0.407404
O O1 0.464854 0.105770 0.500000
O O2 0.636485 0.125757 0.353275
O O3 0.738040 0.058672 0.405844
O O4 0.248640 0.071418 0.368570
O O5 0.500000 0.819381 0.250000
O O6 0.653625 0.820513 0.401890
O O7 0.147197 0.802820 0.357560
O O8 0.862679 0.035204 0.000000
O O9 0.000000 0.000000 0.864537
O O10 0.979394 0.782973 0.500000
O O11 0.750000 0.750000 0.371854
#
# Coordination Sequence:
#
# PCOD8276003 Si02
#       4
#    16  16  16  16
#     4  10  19  33  56  83 116 159 204 251 304 366
#     4  12  25  41  63  94 131 166 205 256 314 376
#     4   9  17  30  52  83 114 149 202 262 308 351
#     4  11  24  44  69  94 123 162 209 258 310 374
#
# _framework density 22.467656999999999
#
# number of rings (size 3 to 8) (size 9 to 14) (size 15 to 20)
#    0.000    1.500    0.000    6.000    0.000    9.000 
#    0.000    0.000    0.000    4.500    0.000    0.000 
#    0.000    0.000    0.000    0.000    0.000    0.000 
#
# Total GULP energy -396682.654619 kJ/mol
# GULP energy per Si atom -12396.332957 kJ/mol
# Density = 2.241652 g / cm^3
# Si number density = 22.467657 Si / 1000 Ang^3
#
#
#
# Elastic Constant Matrix: (Units=GPa)
#
#
# Indices 1 2 3 4 5 6 
#
# 1 150.9070 53.4708 36.2950 0.0000 0.0000 0.0000
# 2 53.4708 130.1258 53.9890 0.0000 0.0000 0.0000
# 3 36.2950 53.9890 49.1825 0.0000 0.0000 0.0000
# 4 0.0000 0.0000 0.0000 48.3386 0.0000 0.0000
# 5 0.0000 0.0000 0.0000 0.0000 20.9167 0.0000
# 6 0.0000 0.0000 0.0000 0.0000 0.0000 46.3480
#
#
#
# Elastic Compliance Matrix: (Units=1/GPa)
#
#
# Indices 1 2 3 4 5 6 
#
# 1 0.008230 -0.001583 -0.004336 0.000000 0.000000 0.000000
# 2 -0.001583 0.014417 -0.014657 0.000000 0.000000 0.000000
# 3 -0.004336 -0.014657 0.039622 0.000000 0.000000 0.000000
# 4 0.000000 0.000000 0.000000 0.020687 0.000000 0.000000
# 5 0.000000 0.000000 0.000000 0.000000 0.047809 0.000000
# 6 0.000000 0.000000 0.000000 0.000000 0.000000 0.021576
#
#
# Mechanical properties :
#
#
# Convention : Reuss Voigt Hill
#
# Bulk Modulus (GPa) = 47.35674 68.63609 57.99641
# Shear Modulus (GPa) = 24.93356 35.55137 30.24246
#
# Velocity S-wave (km/s) = 3.33491 3.98217 3.67283
# Velocity P-wave (km/s) = 5.99603 7.19436 6.62235
#
# Compressibility (1/GPa) = 0.02111632
#
# Stress axis : x y z
#
# Youngs Moduli (GPa) = 121.50128 69.36412 25.23838
#
# Poissons Ratio (x) = 0.10980 0.10944
# Poissons Ratio (y) = 0.19233 0.36993
# Poissons Ratio (z) = 0.52684 1.01670
#
# Static dielectric constant tensor:
#      x y z
#    x 4.034310 0.000000 0.000000 
#    y 0.000000 4.179640 0.000000 
#    z 0.000000 0.000000 3.596150 
# 
# 
# High freq. dielectric constant tensor:
#      x y z
#    x 1.900560 0.000000 0.000000 
#    y 0.000000 1.902830 0.000000 
#    z 0.000000 0.000000 1.835240 
# 
# From -- ./inp_files/35038.got.cif
#   From: 2010.03.12/outbox.cif.g09.slc.cpg/sg66_18_cif.got.tgz:35038.got - 2010.04.10 21:57:39.
