data_PCOD8276419
_publ_section_title
;
Structure prediction by ZEFSAII (Michael W. Deem and Ramdas Pophale) SiO2 
 PCOD8276419
Probable space group: C C C M
;
_chemical_formula_sum "Si O2"
_cell_formula_units_Z 112
_cell_length_a 17.033508
_cell_length_b 18.305542
_cell_length_c 19.326890
_cell_angle_alpha 90.000000
_cell_angle_beta 90.000000
_cell_angle_gamma 90.000000
_cell_volume 6026.271111
_symmetry_space_group_name_H-M "C C C M"
_symmetry_group_IT_number 66
_symmetry_cell_setting 'orthorhombic'
loop_
_space_group_symop_operation_xyz
x,y,z
-x,-y,z
x,-y,1/2-z
-x,y,1/2-z
-x,-y,-z
x,y,-z
-x,y,1/2+z
x,-y,1/2+z
1/2+x,1/2+y,z
1/2-x,1/2-y,z
1/2+x,1/2-y,1/2-z
1/2-x,1/2+y,1/2-z
1/2-x,1/2-y,-z
1/2+x,1/2+y,-z
1/2-x,1/2+y,1/2+z
1/2+x,1/2-y,1/2+z
loop_
_atom_site_type_symbol
_atom_site_label
_atom_site_fract_x
_atom_site_fract_y
_atom_site_fract_z
Si Si1 0.032133 0.074253 0.081100
Si Si2 0.271077 0.614535 0.919740
Si Si3 0.346017 0.912535 0.330638
Si Si4 0.998462 0.676305 0.826409
Si Si5 0.075146 0.797978 0.081938
Si Si6 0.792680 0.054372 0.579487
Si Si7 0.137673 0.577299 0.174205
O O1 0.123004 0.088247 0.096718
O O2 0.984118 0.141513 0.111507
O O3 0.014669 0.069578 0.000000
O O4 0.000000 0.000000 0.116084
O O5 0.336934 0.674500 0.898309
O O6 0.299459 0.532034 0.903373
O O7 0.191126 0.627044 0.876816
O O8 0.250617 0.624591 0.000000
O O9 0.411009 0.850228 0.348883
O O10 0.267444 0.898004 0.374747
O O11 0.323801 0.913610 0.249886
O O12 0.370926 0.994458 0.352509
O O13 0.000000 0.713793 0.750000
O O14 0.045036 0.725127 0.881330
O O15 0.048362 0.602521 0.821549
O O16 0.068908 0.785728 0.000000
O O17 0.768699 0.065372 0.500000
#
# Coordination Sequence:
#
# PCOD8276419 Si02
#       7
#    16  16  16  16  16  16  16
#     4   9  15  29  54  78  99 132 172 205 250 310
#     4   9  17  31  53  81 105 128 166 215 264 308
#     4   9  18  34  55  77  99 134 178 219 256 304
#     4  10  21  37  52  71 104 143 177 210 258 311
#     4  10  20  34  54  78 105 137 173 212 257 316
#     4   9  16  29  53  82 106 128 166 217 261 301
#     4   9  18  34  56  76  98 134 178 219 257 308
#
# _framework density 18.585291000000002
#
# number of rings (size 3 to 8) (size 9 to 14) (size 15 to 20)
#    0.000    2.714    1.429    0.429    0.000    3.429 
#    2.571    2.143    0.000    7.286    0.000    0.000 
#    0.000    0.000    0.000    0.000    0.000    0.000 
#
# Total GULP energy -693972.903840 kJ/mol
# GULP energy per Si atom -12392.373283 kJ/mol
# Density = 1.854299 g / cm^3
# Si number density = 18.585291 Si / 1000 Ang^3
#
#
#
# Elastic Constant Matrix: (Units=GPa)
#
#
# Indices 1 2 3 4 5 6 
#
# 1 74.8297 30.9837 39.8234 0.0000 0.0000 0.0000
# 2 30.9837 52.6524 25.8675 0.0000 0.0000 0.0000
# 3 39.8234 25.8675 57.6977 0.0000 0.0000 0.0000
# 4 0.0000 0.0000 0.0000 20.3484 0.0000 0.0000
# 5 0.0000 0.0000 0.0000 0.0000 23.1001 0.0000
# 6 0.0000 0.0000 0.0000 0.0000 0.0000 25.6326
#
#
#
# Elastic Compliance Matrix: (Units=1/GPa)
#
#
# Indices 1 2 3 4 5 6 
#
# 1 0.023178 -0.007413 -0.012674 0.000000 0.000000 0.000000
# 2 -0.007413 0.026728 -0.006867 0.000000 0.000000 0.000000
# 3 -0.012674 -0.006867 0.029158 0.000000 0.000000 0.000000
# 4 0.000000 0.000000 0.000000 0.049144 0.000000 0.000000
# 5 0.000000 0.000000 0.000000 0.000000 0.043290 0.000000
# 6 0.000000 0.000000 0.000000 0.000000 0.000000 0.039013
#
#
# Mechanical properties :
#
#
# Convention : Reuss Voigt Hill
#
# Bulk Modulus (GPa) = 39.75048 42.05879 40.90463
# Shear Modulus (GPa) = 18.32818 19.71656 19.02237
#
# Velocity S-wave (km/s) = 3.14374 3.26063 3.20272
# Velocity P-wave (km/s) = 5.88320 6.07082 5.97775
#
# Compressibility (1/GPa) = 0.02515693
#
# Stress axis : x y z
#
# Youngs Moduli (GPa) = 43.14429 37.41399 34.29565
#
# Poissons Ratio (x) = 0.27733 0.43468
# Poissons Ratio (y) = 0.31981 0.23550
# Poissons Ratio (z) = 0.54683 0.25691
#
# Static dielectric constant tensor:
#      x y z
#    x 3.499100 0.000000 0.000000 
#    y 0.000000 3.270850 0.000000 
#    z 0.000000 0.000000 3.295510 
# 
# 
# High freq. dielectric constant tensor:
#      x y z
#    x 1.728750 0.000000 0.000000 
#    y 0.000000 1.702720 0.000000 
#    z 0.000000 0.000000 1.697660 
# 
# From -- ./inp_files/51263.got.cif
#   From: 2010.03.12/outbox.cif.g09.slc.cpg/sg66_26_cif.got.tgz:51263.got - 2010.04.10 21:57:39.
