data_PCOD8276592
_publ_section_title
;
Structure prediction by ZEFSAII (Michael W. Deem and Ramdas Pophale) SiO2 
 PCOD8276592
Probable space group: C C C M
;
_chemical_formula_sum "Si O2"
_cell_formula_units_Z 80
_cell_length_a 26.019704
_cell_length_b 19.344270
_cell_length_c 8.726590
_cell_angle_alpha 90.000000
_cell_angle_beta 90.000000
_cell_angle_gamma 90.000000
_cell_volume 4392.373564
_symmetry_space_group_name_H-M "C C C M"
_symmetry_group_IT_number 66
_symmetry_cell_setting 'orthorhombic'
loop_
_space_group_symop_operation_xyz
x,y,z
-x,-y,z
x,-y,1/2-z
-x,y,1/2-z
-x,-y,-z
x,y,-z
-x,y,1/2+z
x,-y,1/2+z
1/2+x,1/2+y,z
1/2-x,1/2-y,z
1/2+x,1/2-y,1/2-z
1/2-x,1/2+y,1/2-z
1/2-x,1/2-y,-z
1/2+x,1/2+y,-z
1/2-x,1/2+y,1/2+z
1/2+x,1/2-y,1/2+z
loop_
_atom_site_type_symbol
_atom_site_label
_atom_site_fract_x
_atom_site_fract_y
_atom_site_fract_z
Si Si1 0.254269 0.424901 0.820496
Si Si2 0.141412 0.575137 0.320630
Si Si3 0.143932 0.076538 0.318609
Si Si4 0.053287 0.324977 0.819363
Si Si5 0.446082 0.666789 0.681402
O O1 0.250561 0.500000 0.750000
O O2 0.198127 0.391566 0.787922
O O3 0.302246 0.387419 0.736560
O O4 0.266532 0.428391 0.000000
O O5 0.133458 0.500000 0.250000
O O6 0.133744 0.565568 0.500000
O O7 0.099479 0.628166 0.252899
O O8 0.141963 0.072681 0.500000
O O9 0.097867 0.121987 0.257242
O O10 0.139403 0.000000 0.250000
O O11 0.063661 0.246099 0.770409
O O12 0.000000 0.352428 0.750000
O O13 0.049538 0.331484 0.000000
O O14 0.500000 0.640902 0.750000
O O15 0.446117 0.656272 0.500000
#
# Coordination Sequence:
#
# PCOD8276592 Si02
#       5
#    16  16  16  16  16
#     4   9  16  29  49  72 100 132 165 202 247 294
#     4   9  18  32  51  76 103 133 169 208 249 294
#     4  11  21  34  53  77 103 130 164 204 247 296
#     4   9  19  35  53  73 100 134 170 207 250 299
#     4  10  20  36  55  74  99 132 168 206 250 297
#
# _framework density 18.213387000000001
#
# number of rings (size 3 to 8) (size 9 to 14) (size 15 to 20)
#    0.000    2.400    0.000    4.200    0.000    3.200 
#    0.000    5.000    0.000    6.000    0.000    0.000 
#    0.000    0.000    0.000    0.000    0.000    0.000 
#
# Total GULP energy -495781.895654 kJ/mol
# GULP energy per Si atom -12394.547391 kJ/mol
# Density = 1.817193 g / cm^3
# Si number density = 18.213387 Si / 1000 Ang^3
#
#
#
# Elastic Constant Matrix: (Units=GPa)
#
#
# Indices 1 2 3 4 5 6 
#
# 1 205.1639 79.8783 65.1280 0.0000 0.0000 0.0000
# 2 79.8783 66.6260 34.4880 0.0000 0.0000 0.0000
# 3 65.1280 34.4880 91.2821 0.0000 0.0000 0.0000
# 4 0.0000 0.0000 0.0000 17.4837 0.0000 0.0000
# 5 0.0000 0.0000 0.0000 0.0000 33.5065 0.0000
# 6 0.0000 0.0000 0.0000 0.0000 0.0000 -12.6574
#
#
#
# Elastic Compliance Matrix: (Units=1/GPa)
#
#
# Indices 1 2 3 4 5 6 
#
# 1 0.009833 -0.010141 -0.003184 0.000000 0.000000 0.000000
# 2 -0.010141 0.029116 -0.003765 0.000000 0.000000 0.000000
# 3 -0.003184 -0.003765 0.014650 0.000000 0.000000 0.000000
# 4 0.000000 0.000000 0.000000 0.057196 0.000000 0.000000
# 5 0.000000 0.000000 0.000000 0.000000 0.029845 0.000000
# 6 0.000000 0.000000 0.000000 0.000000 0.000000 -0.079005
#
#
# Mechanical properties :
#
#
# Convention : Reuss Voigt Hill
#
# Bulk Modulus (GPa) = 51.49889 80.22894 65.86391
# Shear Modulus (GPa) = 48.88131 19.90507 34.39319
#
# Velocity S-wave (km/s) = 5.18617 3.30946 4.35023
# Velocity P-wave (km/s) = 8.01240 7.66475 7.84050
#
# Compressibility (1/GPa) = 0.01941790
#
# Stress axis : x y z
#
# Youngs Moduli (GPa) = 101.69623 34.34541 68.26074
#
# Poissons Ratio (x) = 0.34829 0.21737
# Poissons Ratio (y) = 1.03127 0.25702
# Poissons Ratio (z) = 0.32385 0.12932
#
# Static dielectric constant tensor:
#      x y z
#    x 5.430070 0.000000 0.000000 
#    y 0.000000 3.194680 0.000000 
#    z 0.000000 0.000000 3.510480 
# 
# 
# High freq. dielectric constant tensor:
#      x y z
#    x 1.730450 0.000000 0.000000 
#    y 0.000000 1.670780 0.000000 
#    z 0.000000 0.000000 1.713390 
# 
# From -- ./inp_files/6714.got.cif
#   From: 2010.03.12/outbox.cif.g09.slc.cpg/sg66_4_cif.got.tgz:6714.got - 2010.04.10 21:57:39.
