data_PCOD8276258
_publ_section_title
;
Structure prediction by ZEFSAII (Michael W. Deem and Ramdas Pophale) SiO2 
 PCOD8276258
Probable space group: C C C M
;
_chemical_formula_sum "Si O2"
_cell_formula_units_Z 64
_cell_length_a 9.488921
_cell_length_b 16.191211
_cell_length_c 19.957370
_cell_angle_alpha 90.000000
_cell_angle_beta 90.000000
_cell_angle_gamma 90.000000
_cell_volume 3066.192891
_symmetry_space_group_name_H-M "C C C M"
_symmetry_group_IT_number 66
_symmetry_cell_setting 'orthorhombic'
loop_
_space_group_symop_operation_xyz
x,y,z
-x,-y,z
x,-y,1/2-z
-x,y,1/2-z
-x,-y,-z
x,y,-z
-x,y,1/2+z
x,-y,1/2+z
1/2+x,1/2+y,z
1/2-x,1/2-y,z
1/2+x,1/2-y,1/2-z
1/2-x,1/2+y,1/2-z
1/2-x,1/2-y,-z
1/2+x,1/2+y,-z
1/2-x,1/2+y,1/2+z
1/2+x,1/2-y,1/2+z
loop_
_atom_site_type_symbol
_atom_site_label
_atom_site_fract_x
_atom_site_fract_y
_atom_site_fract_z
Si Si1 0.946680 0.693670 0.500000
Si Si2 0.357095 0.618124 0.000000
Si Si3 0.391324 0.801429 0.633704
Si Si4 0.000000 0.197937 0.750000
Si Si5 0.500000 0.500000 0.105149
Si Si6 0.283845 0.576212 0.293837
O O1 0.810059 0.634674 0.500000
O O2 0.926005 0.791876 0.500000
O O3 0.034570 0.671260 0.565694
O O4 0.406892 0.565226 0.063643
O O5 0.250000 0.750000 0.617811
O O6 0.497440 0.751693 0.682017
O O7 0.353159 0.886006 0.671582
O O8 0.858405 0.142947 0.755115
O O9 0.397121 0.446383 0.150126
O O10 0.232169 0.500000 0.250000
#
# Coordination Sequence:
#
# PCOD8276258 Si02
#       6
#     8   8  16   8   8  16
#     4  11  23  45  63  97 131 173 224 264 328 396
#     4  10  24  39  67  94 123 170 219 269 314 401
#     4  10  23  39  66  96 132 174 213 277 335 391
#     4  10  19  40  61  98 122 162 224 266 321 388
#     4  11  21  42  64  96 125 169 216 266 336 388
#     4  11  21  39  67  94 128 167 216 277 324 392
#
# _framework density 20.872790999999999
#
# number of rings (size 3 to 8) (size 9 to 14) (size 15 to 20)
#    0.000    1.500    2.500    3.375    0.000    4.000 
#   13.500    5.625    0.000    0.000    0.000    0.000 
#    0.000    0.000    0.000    0.000    0.000    0.000 
#
# Total GULP energy -396835.334738 kJ/mol
# GULP energy per Si atom -12401.104211 kJ/mol
# Density = 2.082528 g / cm^3
# Si number density = 20.872791 Si / 1000 Ang^3
#
#
#
# Elastic Constant Matrix: (Units=GPa)
#
#
# Indices 1 2 3 4 5 6 
#
# 1 109.6697 72.0609 78.7908 0.0000 0.0000 0.0000
# 2 72.0609 136.3210 79.7135 0.0000 0.0000 0.0000
# 3 78.7908 79.7135 153.6246 0.0000 0.0000 0.0000
# 4 0.0000 0.0000 0.0000 62.4017 0.0000 0.0000
# 5 0.0000 0.0000 0.0000 0.0000 236.6582 0.0000
# 6 0.0000 0.0000 0.0000 0.0000 0.0000 29.8034
#
#
#
# Elastic Compliance Matrix: (Units=1/GPa)
#
#
# Indices 1 2 3 4 5 6 
#
# 1 0.016943 -0.005563 -0.005803 0.000000 0.000000 0.000000
# 2 -0.005563 0.012357 -0.003559 0.000000 0.000000 0.000000
# 3 -0.005803 -0.003559 0.011332 0.000000 0.000000 0.000000
# 4 0.000000 0.000000 0.000000 0.016025 0.000000 0.000000
# 5 0.000000 0.000000 0.000000 0.000000 0.004226 0.000000
# 6 0.000000 0.000000 0.000000 0.000000 0.000000 0.033553
#
#
# Mechanical properties :
#
#
# Convention : Reuss Voigt Hill
#
# Bulk Modulus (GPa) = 92.74190 95.63841 94.19015
# Shear Modulus (GPa) = 39.09924 77.04268 58.07096
#
# Velocity S-wave (km/s) = 4.33276 6.08200 5.28032
# Velocity P-wave (km/s) = 8.34019 9.75910 9.07741
#
# Compressibility (1/GPa) = 0.01078261
#
# Stress axis : x y z
#
# Youngs Moduli (GPa) = 59.02314 80.92420 88.24286
#
# Poissons Ratio (x) = 0.45015 0.51208
# Poissons Ratio (y) = 0.32833 0.31406
# Poissons Ratio (z) = 0.34252 0.28801
#
# Static dielectric constant tensor:
#      x y z
#    x 3.712540 0.000000 0.000000 
#    y 0.000000 3.948150 0.000000 
#    z 0.000000 0.000000 3.849000 
# 
# 
# High freq. dielectric constant tensor:
#      x y z
#    x 1.802010 0.000000 0.000000 
#    y 0.000000 1.826940 0.000000 
#    z 0.000000 0.000000 1.825750 
# 
# From -- ./inp_files/46693.got.cif
#   From: 2010.03.12/outbox.cif.g09.slc.cpg/sg66_24_cif.got.tgz:46693.got - 2010.04.10 21:57:39.
