data_PCOD8276760
_publ_section_title
;
Structure prediction by ZEFSAII (Michael W. Deem and Ramdas Pophale) SiO2 
 PCOD8276760
Probable space group: C C C M
;
_chemical_formula_sum "Si O2"
_cell_formula_units_Z 64
_cell_length_a 17.837609
_cell_length_b 9.834631
_cell_length_c 16.936335
_cell_angle_alpha 90.000000
_cell_angle_beta 90.000000
_cell_angle_gamma 90.000000
_cell_volume 2971.078626
_symmetry_space_group_name_H-M "C C C M"
_symmetry_group_IT_number 66
_symmetry_cell_setting 'orthorhombic'
loop_
_space_group_symop_operation_xyz
x,y,z
-x,-y,z
x,-y,1/2-z
-x,y,1/2-z
-x,-y,-z
x,y,-z
-x,y,1/2+z
x,-y,1/2+z
1/2+x,1/2+y,z
1/2-x,1/2-y,z
1/2+x,1/2-y,1/2-z
1/2-x,1/2+y,1/2-z
1/2-x,1/2-y,-z
1/2+x,1/2+y,-z
1/2-x,1/2+y,1/2+z
1/2+x,1/2-y,1/2+z
loop_
_atom_site_type_symbol
_atom_site_label
_atom_site_fract_x
_atom_site_fract_y
_atom_site_fract_z
Si Si1 0.277896 0.594552 0.173656
Si Si2 0.468676 0.138944 0.905966
Si Si3 0.936436 0.109797 0.907741
Si Si4 0.803116 0.633176 0.907153
O O1 0.270168 0.500000 0.250000
O O2 0.250000 0.750000 0.186327
O O3 0.362791 0.585934 0.143456
O O4 0.224347 0.520320 0.110078
O O5 0.527107 0.251143 0.877857
O O6 0.385485 0.161566 0.871036
O O7 0.500000 0.000000 0.870826
O O8 0.463995 0.136474 0.000000
O O9 0.913940 0.110680 0.000000
O O10 0.000000 0.000000 0.890440
O O11 0.750000 0.750000 0.869624
O O12 0.806090 0.651450 0.000000
#
# Coordination Sequence:
#
# PCOD8276760 Si02
#       4
#    16  16  16  16
#     4  12  26  42  60  86 125 169 212 254 300 360
#     4   9  17  31  55  88 119 145 182 236 295 352
#     4  10  21  39  65  94 120 151 197 253 310 367
#     4  10  20  37  63  92 122 156 196 247 306 364
#
# _framework density 21.540997999999998
#
# number of rings (size 3 to 8) (size 9 to 14) (size 15 to 20)
#    0.000    1.750    0.000    4.500    0.000    8.500 
#    0.000    0.000    0.000    5.250    0.000    0.000 
#    0.000    0.000    0.000    0.000    0.000    0.000 
#
# Total GULP energy -396694.132200 kJ/mol
# GULP energy per Si atom -12396.691631 kJ/mol
# Density = 2.149197 g / cm^3
# Si number density = 21.540998 Si / 1000 Ang^3
#
#
#
# Elastic Constant Matrix: (Units=GPa)
#
#
# Indices 1 2 3 4 5 6 
#
# 1 126.0103 24.5259 29.5519 0.0000 0.0000 0.0000
# 2 24.5259 138.9990 25.6858 0.0000 0.0000 0.0000
# 3 29.5519 25.6858 21.0757 0.0000 0.0000 0.0000
# 4 0.0000 0.0000 0.0000 -20.9902 0.0000 0.0000
# 5 0.0000 0.0000 0.0000 0.0000 1011.4776 0.0000
# 6 0.0000 0.0000 0.0000 0.0000 0.0000 36.4952
#
#
#
# Elastic Compliance Matrix: (Units=1/GPa)
#
#
# Indices 1 2 3 4 5 6 
#
# 1 0.011998 0.001280 -0.018383 0.000000 0.000000 0.000000
# 2 0.001280 0.009422 -0.013278 0.000000 0.000000 0.000000
# 3 -0.018383 -0.013278 0.089408 0.000000 0.000000 0.000000
# 4 0.000000 0.000000 0.000000 -0.047641 0.000000 0.000000
# 5 0.000000 0.000000 0.000000 0.000000 0.000989 0.000000
# 6 0.000000 0.000000 0.000000 0.000000 0.000000 0.027401
#
#
# Mechanical properties :
#
#
# Convention : Reuss Voigt Hill
#
# Bulk Modulus (GPa) = 19.97410 49.51245 34.74328
# Shear Modulus (GPa) = 29.58106 219.15126 124.36616
#
# Velocity S-wave (km/s) = 3.70975 10.09741 7.60657
# Velocity P-wave (km/s) = 5.25760 12.60868 9.65974
#
# Compressibility (1/GPa) = 0.05006482
#
# Stress axis : x y z
#
# Youngs Moduli (GPa) = 83.34719 106.13367 11.18474
#
# Poissons Ratio (x) = -0.13586 0.20561
# Poissons Ratio (y) = -0.10669 0.14851
# Poissons Ratio (z) = 1.53221 1.40924
#
# Static dielectric constant tensor:
#      x y z
#    x 4.141130 0.000000 0.000000 
#    y 0.000000 4.187470 0.000000 
#    z 0.000000 0.000000 3.514830 
# 
# 
# High freq. dielectric constant tensor:
#      x y z
#    x 1.864940 0.000000 0.000000 
#    y 0.000000 1.862520 0.000000 
#    z 0.000000 0.000000 1.808290 
# 
# From -- ./inp_files/50502.got.cif
#   From: 2010.03.12/outbox.cif.g09.slc.cpg/sg66_26_cif.got.tgz:50502.got - 2010.04.10 21:57:39.
