data_PCOD8276782
_publ_section_title
;
Structure prediction by ZEFSAII (Michael W. Deem and Ramdas Pophale) SiO2 
 PCOD8276782
Probable space group: C C C M
;
_chemical_formula_sum "Si O2"
_cell_formula_units_Z 104
_cell_length_a 12.335109
_cell_length_b 15.842531
_cell_length_c 25.783399
_cell_angle_alpha 90.000000
_cell_angle_beta 90.000000
_cell_angle_gamma 90.000000
_cell_volume 5038.574989
_symmetry_space_group_name_H-M "C C C M"
_symmetry_group_IT_number 66
_symmetry_cell_setting 'orthorhombic'
loop_
_space_group_symop_operation_xyz
x,y,z
-x,-y,z
x,-y,1/2-z
-x,y,1/2-z
-x,-y,-z
x,y,-z
-x,y,1/2+z
x,-y,1/2+z
1/2+x,1/2+y,z
1/2-x,1/2-y,z
1/2+x,1/2-y,1/2-z
1/2-x,1/2+y,1/2-z
1/2-x,1/2-y,-z
1/2+x,1/2+y,-z
1/2-x,1/2+y,1/2+z
1/2+x,1/2-y,1/2+z
loop_
_atom_site_type_symbol
_atom_site_label
_atom_site_fract_x
_atom_site_fract_y
_atom_site_fract_z
Si Si1 0.500000 0.000000 0.392369
Si Si2 0.124752 0.643158 0.558484
Si Si3 0.315815 0.405976 0.560050
Si Si4 0.331148 0.821851 0.860355
Si Si5 0.178048 0.073830 0.120967
Si Si6 0.318755 0.978478 0.192923
Si Si7 0.494239 0.292603 0.900673
O O1 0.523891 0.081316 0.427774
O O2 0.400101 0.012107 0.354735
O O3 0.162763 0.625158 0.500000
O O4 0.225289 0.628780 0.596700
O O5 0.086308 0.740590 0.562040
O O6 0.288404 0.417535 0.500000
O O7 0.205445 0.373612 0.587657
O O8 0.352765 0.496276 0.583086
O O9 0.411705 0.337911 0.566569
O O10 0.250000 0.750000 0.848907
O O11 0.307157 0.877633 0.808825
O O12 0.451324 0.779719 0.863649
O O13 0.074737 0.135518 0.129841
O O14 0.213274 0.034546 0.177256
O O15 0.361922 0.000000 0.250000
#
# Coordination Sequence:
#
# PCOD8276782 Si02
#       7
#     8  16  16  16  16  16  16
#     4  10  20  38  58  86 110 152 194 248 296 346
#     4  11  22  35  56  86 124 159 194 231 287 355
#     4  10  21  37  58  86 121 165 206 235 279 348
#     4   9  20  38  60  86 117 150 196 251 294 342
#     4  10  23  38  57  86 124 158 191 245 298 354
#     4  10  20  40  65  83 107 150 199 248 305 362
#     4  11  21  37  58  86 122 158 200 240 291 340
#
# _framework density 20.640758000000002
#
# number of rings (size 3 to 8) (size 9 to 14) (size 15 to 20)
#    0.000    1.846    1.538    2.308    0.000    7.077 
#    0.000    3.077    0.000   15.692    0.000    0.000 
#    0.000    0.000    0.000    0.000    0.000    0.000 
#
# Total GULP energy -644183.085614 kJ/mol
# GULP energy per Si atom -12388.136262 kJ/mol
# Density = 2.059378 g / cm^3
# Si number density = 20.640758 Si / 1000 Ang^3
#
#
#
# Elastic Constant Matrix: (Units=GPa)
#
#
# Indices 1 2 3 4 5 6 
#
# 1 80.6380 41.7242 20.9775 0.0000 0.0000 0.0000
# 2 41.7242 84.3631 32.6322 0.0000 0.0000 0.0000
# 3 20.9775 32.6322 82.3549 0.0000 0.0000 0.0000
# 4 0.0000 0.0000 0.0000 24.9508 0.0000 0.0000
# 5 0.0000 0.0000 0.0000 0.0000 5.0524 0.0000
# 6 0.0000 0.0000 0.0000 0.0000 0.0000 77.5270
#
#
#
# Elastic Compliance Matrix: (Units=1/GPa)
#
#
# Indices 1 2 3 4 5 6 
#
# 1 0.016760 -0.007839 -0.001163 0.000000 0.000000 0.000000
# 2 -0.007839 0.017666 -0.005003 0.000000 0.000000 0.000000
# 3 -0.001163 -0.005003 0.014421 0.000000 0.000000 0.000000
# 4 0.000000 0.000000 0.000000 0.040079 0.000000 0.000000
# 5 0.000000 0.000000 0.000000 0.000000 0.197925 0.000000
# 6 0.000000 0.000000 0.000000 0.000000 0.000000 0.012899
#
#
# Mechanical properties :
#
#
# Convention : Reuss Voigt Hill
#
# Bulk Modulus (GPa) = 47.99270 48.66932 48.33101
# Shear Modulus (GPa) = 14.93848 31.64082 23.28965
#
# Velocity S-wave (km/s) = 2.69315 3.91951 3.36271
# Velocity P-wave (km/s) = 5.74218 6.64183 6.20832
#
# Compressibility (1/GPa) = 0.02083650
#
# Stress axis : x y z
#
# Youngs Moduli (GPa) = 59.66631 56.60618 69.34235
#
# Poissons Ratio (x) = 0.44375 0.08063
# Poissons Ratio (y) = 0.46774 0.34693
# Poissons Ratio (z) = 0.06938 0.28321
#
# Static dielectric constant tensor:
#      x y z
#    x 3.783180 0.000000 0.000000 
#    y 0.000000 4.148480 0.000000 
#    z 0.000000 0.000000 3.361580 
# 
# 
# High freq. dielectric constant tensor:
#      x y z
#    x 1.808180 0.000000 0.000000 
#    y 0.000000 1.837100 0.000000 
#    z 0.000000 0.000000 1.758220 
# 
# From -- ./inp_files/63783.got.cif
#   From: 2010.03.12/outbox.cif.g09.slc.cpg/sg66_32_cif.got.tgz:63783.got - 2010.04.10 21:57:39.
