data_PCOD8276710
_publ_section_title
;
Structure prediction by ZEFSAII (Michael W. Deem and Ramdas Pophale) SiO2 
 PCOD8276710
Probable space group: C C C M
;
_chemical_formula_sum "Si O2"
_cell_formula_units_Z 80
_cell_length_a 17.983925
_cell_length_b 9.176946
_cell_length_c 25.250029
_cell_angle_alpha 90.000000
_cell_angle_beta 90.000000
_cell_angle_gamma 90.000000
_cell_volume 4167.201878
_symmetry_space_group_name_H-M "C C C M"
_symmetry_group_IT_number 66
_symmetry_cell_setting 'orthorhombic'
loop_
_space_group_symop_operation_xyz
x,y,z
-x,-y,z
x,-y,1/2-z
-x,y,1/2-z
-x,-y,-z
x,y,-z
-x,y,1/2+z
x,-y,1/2+z
1/2+x,1/2+y,z
1/2-x,1/2-y,z
1/2+x,1/2-y,1/2-z
1/2-x,1/2+y,1/2-z
1/2-x,1/2-y,-z
1/2+x,1/2+y,-z
1/2-x,1/2+y,1/2+z
1/2+x,1/2-y,1/2+z
loop_
_atom_site_type_symbol
_atom_site_label
_atom_site_fract_x
_atom_site_fract_y
_atom_site_fract_z
Si Si1 0.077837 0.578553 0.060506
Si Si2 0.827668 0.173869 0.250185
Si Si3 0.920678 0.184883 0.150357
Si Si4 0.590380 0.356622 0.647150
Si Si5 0.830711 0.699474 0.060141
O O1 0.094124 0.709937 0.100666
O O2 0.149731 0.471857 0.065288
O O3 0.000000 0.500000 0.075636
O O4 0.072272 0.637400 0.000000
O O5 0.750000 0.250000 0.241972
O O6 0.879538 0.238086 0.203505
O O7 0.860487 0.218215 0.307098
O O8 0.821176 0.000000 0.250000
O O9 0.006619 0.171237 0.164714
O O10 0.889728 0.024998 0.136861
O O11 0.604733 0.280293 0.591583
O O12 0.750000 0.750000 0.082636
O O13 0.837005 0.752449 0.000000
#
# Coordination Sequence:
#
# PCOD8276710 Si02
#       5
#    16  16  16  16  16
#     4  10  20  37  58  84 118 150 188 242 295 344
#     4  10  22  39  57  81 115 152 190 237 292 345
#     4  10  21  36  59  86 112 149 193 239 287 349
#     4  10  20  37  59  83 115 152 191 237 291 346
#     4  10  21  37  58  84 117 154 191 235 291 351
#
# _framework density 19.197534999999998
#
# number of rings (size 3 to 8) (size 9 to 14) (size 15 to 20)
#    0.000    2.000    2.000    1.200    0.000    8.000 
#    0.000    2.000    0.000    4.200    0.000    0.000 
#    0.000    0.000    0.000    0.000    0.000    0.000 
#
# Total GULP energy -495884.366615 kJ/mol
# GULP energy per Si atom -12397.109165 kJ/mol
# Density = 1.915384 g / cm^3
# Si number density = 19.197535 Si / 1000 Ang^3
#
#
#
# Elastic Constant Matrix: (Units=GPa)
#
#
# Indices 1 2 3 4 5 6 
#
# 1 98.7743 35.9933 49.7814 0.0000 0.0000 0.0000
# 2 35.9933 67.6426 62.6870 0.0000 0.0000 0.0000
# 3 49.7814 62.6870 127.2909 0.0000 0.0000 0.0000
# 4 0.0000 0.0000 0.0000 27.1990 0.0000 0.0000
# 5 0.0000 0.0000 0.0000 0.0000 29.8592 0.0000
# 6 0.0000 0.0000 0.0000 0.0000 0.0000 33.7915
#
#
#
# Elastic Compliance Matrix: (Units=1/GPa)
#
#
# Indices 1 2 3 4 5 6 
#
# 1 0.013206 -0.004122 -0.003135 0.000000 0.000000 0.000000
# 2 -0.004122 0.028482 -0.012414 0.000000 0.000000 0.000000
# 3 -0.003135 -0.012414 0.015196 0.000000 0.000000 0.000000
# 4 0.000000 0.000000 0.000000 0.036766 0.000000 0.000000
# 5 0.000000 0.000000 0.000000 0.000000 0.033490 0.000000
# 6 0.000000 0.000000 0.000000 0.000000 0.000000 0.029593
#
#
# Mechanical properties :
#
#
# Convention : Reuss Voigt Hill
#
# Bulk Modulus (GPa) = 57.00826 65.62568 61.31697
# Shear Modulus (GPa) = 24.76194 27.85301 26.30747
#
# Velocity S-wave (km/s) = 3.59534 3.81315 3.70585
# Velocity P-wave (km/s) = 6.85532 7.32431 7.09369
#
# Compressibility (1/GPa) = 0.01754132
#
# Stress axis : x y z
#
# Youngs Moduli (GPa) = 75.72318 35.10999 65.80816
#
# Poissons Ratio (x) = 0.14472 0.20629
# Poissons Ratio (y) = 0.31213 0.81697
# Poissons Ratio (z) = 0.23737 0.43587
#
# Static dielectric constant tensor:
#      x y z
#    x 3.558100 0.000000 0.000000 
#    y 0.000000 3.394600 0.000000 
#    z 0.000000 0.000000 3.586780 
# 
# 
# High freq. dielectric constant tensor:
#      x y z
#    x 1.749210 0.000000 0.000000 
#    y 0.000000 1.731020 0.000000 
#    z 0.000000 0.000000 1.757940 
# 
# From -- ./inp_files/65041.got.cif
#   From: 2010.03.12/outbox.cif.g09.slc.cpg/sg66_33_cif.got.tgz:65041.got - 2010.04.10 21:57:39.
