data_PCOD8276999
_publ_section_title
;
Structure prediction by ZEFSAII (Michael W. Deem and Ramdas Pophale) SiO2 
 PCOD8276999
Probable space group: C C C M
;
_chemical_formula_sum "Si O2"
_cell_formula_units_Z 104
_cell_length_a 21.485981
_cell_length_b 26.598945
_cell_length_c 9.089085
_cell_angle_alpha 90.000000
_cell_angle_beta 90.000000
_cell_angle_gamma 90.000000
_cell_volume 5194.452314
_symmetry_space_group_name_H-M "C C C M"
_symmetry_group_IT_number 66
_symmetry_cell_setting 'orthorhombic'
loop_
_space_group_symop_operation_xyz
x,y,z
-x,-y,z
x,-y,1/2-z
-x,y,1/2-z
-x,-y,-z
x,y,-z
-x,y,1/2+z
x,-y,1/2+z
1/2+x,1/2+y,z
1/2-x,1/2-y,z
1/2+x,1/2-y,1/2-z
1/2-x,1/2+y,1/2-z
1/2-x,1/2-y,-z
1/2+x,1/2+y,-z
1/2-x,1/2+y,1/2+z
1/2+x,1/2-y,1/2+z
loop_
_atom_site_type_symbol
_atom_site_label
_atom_site_fract_x
_atom_site_fract_y
_atom_site_fract_z
Si Si1 0.104963 0.951098 0.667042
Si Si2 0.250000 0.250000 0.755911
Si Si3 0.064487 0.673540 0.329043
Si Si4 0.747768 0.051326 0.669278
Si Si5 0.310037 0.853245 0.831473
Si Si6 0.879756 0.221099 0.657172
Si Si7 0.940446 0.855586 0.670927
O O1 0.081072 0.951491 0.500000
O O2 0.178447 0.945511 0.674647
O O3 0.071020 0.908267 0.755808
O O4 0.081715 0.000000 0.750000
O O5 0.271171 0.199601 0.666830
O O6 0.191437 0.237984 0.857680
O O7 0.063027 0.656187 0.500000
O O8 0.122777 0.648788 0.246211
O O9 0.073159 0.733207 0.316978
O O10 0.000000 0.657914 0.250000
O O11 0.724121 0.050427 0.500000
O O12 0.725737 0.101646 0.750643
O O13 0.724627 0.000000 0.750000
O O14 0.320406 0.868726 0.000000
O O15 0.896326 0.195145 0.500000
O O16 0.884223 0.182490 0.792824
O O17 0.949706 0.861918 0.500000
O O18 0.000000 0.830637 0.750000
#
# Coordination Sequence:
#
# PCOD8276999 Si02
#       7
#    16   8  16  16  16  16  16
#     4  10  21  38  59  82 109 141 181 230 283 336
#     4  10  22  36  58  88 122 156 192 234 286 346
#     4  10  21  37  57  81 111 148 189 231 278 335
#     4  10  21  38  61  88 118 152 191 237 289 344
#     4  11  22  36  57  86 120 156 194 237 285 339
#     4  10  21  37  57  81 111 147 186 229 279 334
#     4  12  25  39  56  78 107 145 189 234 281 334
#
# _framework density 20.021362
#
# number of rings (size 3 to 8) (size 9 to 14) (size 15 to 20)
#    0.000    1.538    0.000    5.077    0.000   11.385 
#    0.000    1.538    0.000    0.462    0.000    3.231 
#    0.000    0.000    0.000    0.000    0.000    0.000 
#
# Total GULP energy -644488.028291 kJ/mol
# GULP energy per Si atom -12394.000544 kJ/mol
# Density = 1.997579 g / cm^3
# Si number density = 20.021362 Si / 1000 Ang^3
#
#
#
# Elastic Constant Matrix: (Units=GPa)
#
#
# Indices 1 2 3 4 5 6 
#
# 1 50.5304 23.7966 32.3171 0.0000 0.0000 0.0000
# 2 23.7966 101.7486 57.9101 0.0000 0.0000 0.0000
# 3 32.3171 57.9101 190.0411 0.0000 0.0000 0.0000
# 4 0.0000 0.0000 0.0000 33.3989 0.0000 0.0000
# 5 0.0000 0.0000 0.0000 0.0000 23.5002 0.0000
# 6 0.0000 0.0000 0.0000 0.0000 0.0000 25.5512
#
#
#
# Elastic Compliance Matrix: (Units=1/GPa)
#
#
# Indices 1 2 3 4 5 6 
#
# 1 0.023408 -0.003882 -0.002798 0.000000 0.000000 0.000000
# 2 -0.003882 0.012534 -0.003159 0.000000 0.000000 0.000000
# 3 -0.002798 -0.003159 0.006700 0.000000 0.000000 0.000000
# 4 0.000000 0.000000 0.000000 0.029941 0.000000 0.000000
# 5 0.000000 0.000000 0.000000 0.000000 0.042553 0.000000
# 6 0.000000 0.000000 0.000000 0.000000 0.000000 0.039137
#
#
# Mechanical properties :
#
#
# Convention : Reuss Voigt Hill
#
# Bulk Modulus (GPa) = 43.54625 63.37418 53.46022
# Shear Modulus (GPa) = 27.53211 31.70981 29.62096
#
# Velocity S-wave (km/s) = 3.71231 3.98401 3.85056
# Velocity P-wave (km/s) = 6.33814 7.27222 6.82119
#
# Compressibility (1/GPa) = 0.02296409
#
# Stress axis : x y z
#
# Youngs Moduli (GPa) = 42.72130 79.78163 149.24364
#
# Poissons Ratio (x) = 0.30973 0.41751
# Poissons Ratio (y) = 0.16586 0.47150
# Poissons Ratio (z) = 0.11951 0.25205
#
# Static dielectric constant tensor:
#      x y z
#    x 3.029110 0.000000 0.000000 
#    y 0.000000 3.535200 0.000000 
#    z 0.000000 0.000000 3.766980 
# 
# 
# High freq. dielectric constant tensor:
#      x y z
#    x 1.779300 0.000000 0.000000 
#    y 0.000000 1.771390 0.000000 
#    z 0.000000 0.000000 1.795780 
# 
# From -- ./inp_files/8152.got.cif
#   From: 2010.03.12/outbox.cif.g09.slc.cpg/sg66_5_cif.got.tgz:8152.got - 2010.04.10 21:57:39.
