data_PCOD8276118
_publ_section_title
;
Structure prediction by ZEFSAII (Michael W. Deem and Ramdas Pophale) SiO2 
 PCOD8276118
Probable space group: C C C M
;
_chemical_formula_sum "Si O2"
_cell_formula_units_Z 96
_cell_length_a 25.834203
_cell_length_b 11.356387
_cell_length_c 16.659231
_cell_angle_alpha 90.000000
_cell_angle_beta 90.000000
_cell_angle_gamma 90.000000
_cell_volume 4887.538619
_symmetry_space_group_name_H-M "C C C M"
_symmetry_group_IT_number 66
_symmetry_cell_setting 'orthorhombic'
loop_
_space_group_symop_operation_xyz
x,y,z
-x,-y,z
x,-y,1/2-z
-x,y,1/2-z
-x,-y,-z
x,y,-z
-x,y,1/2+z
x,-y,1/2+z
1/2+x,1/2+y,z
1/2-x,1/2-y,z
1/2+x,1/2-y,1/2-z
1/2-x,1/2+y,1/2-z
1/2-x,1/2-y,-z
1/2+x,1/2+y,-z
1/2-x,1/2+y,1/2+z
1/2+x,1/2-y,1/2+z
loop_
_atom_site_type_symbol
_atom_site_label
_atom_site_fract_x
_atom_site_fract_y
_atom_site_fract_z
Si Si1 0.676972 0.964629 0.840913
Si Si2 0.651293 0.570141 0.331762
Si Si3 0.219228 0.099542 0.908786
Si Si4 0.442997 0.457919 0.094206
Si Si5 0.377139 0.758241 0.406479
Si Si6 0.190837 0.282521 0.591446
O O1 0.729164 0.887636 0.855609
O O2 0.626399 0.884414 0.862054
O O3 0.672641 0.000000 0.750000
O O4 0.679623 0.079496 0.896409
O O5 0.665601 0.500000 0.250000
O O6 0.692834 0.527985 0.398802
O O7 0.592530 0.545164 0.355365
O O8 0.658420 0.711379 0.338939
O O9 0.174701 0.189192 0.880624
O O10 0.236246 0.120860 0.000000
O O11 0.500000 0.500000 0.118393
O O12 0.427483 0.322106 0.117749
O O13 0.432624 0.475139 0.000000
O O14 0.378546 0.784132 0.500000
O O15 0.173432 0.252600 0.500000
O O16 0.250000 0.250000 0.605680
#
# Coordination Sequence:
#
# PCOD8276118 Si02
#       6
#    16  16  16  16  16  16
#     4  12  24  32  51  80 121 163 203 242 288 349
#     4  11  22  35  57  84 116 147 190 249 296 345
#     4  10  19  35  55  76 110 157 202 241 286 343
#     4   9  19  38  65  88 107 137 183 243 306 365
#     4   9  19  35  57  81 112 149 196 248 302 361
#     4  11  23  37  54  77 118 169 209 239 284 356
#
# _framework density 19.641787999999998
#
# number of rings (size 3 to 8) (size 9 to 14) (size 15 to 20)
#    0.000    1.667    1.667    5.000    4.667    1.667 
#    0.000    0.000    0.000    1.000    0.000    5.833 
#    0.000    0.000    0.000    0.000    0.000    0.000 
#
# Total GULP energy -594715.258447 kJ/mol
# GULP energy per Si atom -12389.901218 kJ/mol
# Density = 1.959708 g / cm^3
# Si number density = 19.641788 Si / 1000 Ang^3
#
#
#
# Elastic Constant Matrix: (Units=GPa)
#
#
# Indices 1 2 3 4 5 6 
#
# 1 97.3273 57.3012 40.2559 0.0000 0.0000 0.0000
# 2 57.3012 110.7617 40.6476 0.0000 0.0000 0.0000
# 3 40.2559 40.6476 75.2264 0.0000 0.0000 0.0000
# 4 0.0000 0.0000 0.0000 1253.7566 0.0000 0.0000
# 5 0.0000 0.0000 0.0000 0.0000 17.4704 0.0000
# 6 0.0000 0.0000 0.0000 0.0000 0.0000 19.8784
#
#
#
# Elastic Compliance Matrix: (Units=1/GPa)
#
#
# Indices 1 2 3 4 5 6 
#
# 1 0.016246 -0.006504 -0.005179 0.000000 0.000000 0.000000
# 2 -0.006504 0.013865 -0.004011 0.000000 0.000000 0.000000
# 3 -0.005179 -0.004011 0.018232 0.000000 0.000000 0.000000
# 4 0.000000 0.000000 0.000000 0.000798 0.000000 0.000000
# 5 0.000000 0.000000 0.000000 0.000000 0.057240 0.000000
# 6 0.000000 0.000000 0.000000 0.000000 0.000000 0.050306
#
#
# Mechanical properties :
#
#
# Convention : Reuss Voigt Hill
#
# Bulk Modulus (GPa) = 58.98286 62.19164 60.58725
# Shear Modulus (GPa) = 25.80936 267.89510 146.85223
#
# Velocity S-wave (km/s) = 3.62885 11.69130 8.65607
# Velocity P-wave (km/s) = 6.90308 14.62807 11.43750
#
# Compressibility (1/GPa) = 0.01695408
#
# Stress axis : x y z
#
# Youngs Moduli (GPa) = 61.55332 72.12270 54.84733
#
# Poissons Ratio (x) = 0.46908 0.28408
# Poissons Ratio (y) = 0.40034 0.22002
# Poissons Ratio (z) = 0.31881 0.28932
#
# Static dielectric constant tensor:
#      x y z
#    x 3.321400 0.000000 0.000000 
#    y 0.000000 3.965260 0.000000 
#    z 0.000000 0.000000 3.520260 
# 
# 
# High freq. dielectric constant tensor:
#      x y z
#    x 1.718750 0.000000 0.000000 
#    y 0.000000 1.773730 0.000000 
#    z 0.000000 0.000000 1.763740 
# 
# From -- ./inp_files/43574.got.cif
#   From: 2010.03.12/outbox.cif.g09.slc.cpg/sg66_22_cif.got.tgz:43574.got - 2010.04.10 21:57:39.
