data_PCOD8276661
_publ_section_title
;
Structure prediction by ZEFSAII (Michael W. Deem and Ramdas Pophale) SiO2 
 PCOD8276661
Probable space group: C C C M
;
_chemical_formula_sum "Si O2"
_cell_formula_units_Z 96
_cell_length_a 14.603734
_cell_length_b 17.891454
_cell_length_c 15.201497
_cell_angle_alpha 90.000000
_cell_angle_beta 90.000000
_cell_angle_gamma 90.000000
_cell_volume 3971.878073
_symmetry_space_group_name_H-M "C C C M"
_symmetry_group_IT_number 66
_symmetry_cell_setting 'orthorhombic'
loop_
_space_group_symop_operation_xyz
x,y,z
-x,-y,z
x,-y,1/2-z
-x,y,1/2-z
-x,-y,-z
x,y,-z
-x,y,1/2+z
x,-y,1/2+z
1/2+x,1/2+y,z
1/2-x,1/2-y,z
1/2+x,1/2-y,1/2-z
1/2-x,1/2+y,1/2-z
1/2-x,1/2-y,-z
1/2+x,1/2+y,-z
1/2-x,1/2+y,1/2+z
1/2+x,1/2-y,1/2+z
loop_
_atom_site_type_symbol
_atom_site_label
_atom_site_fract_x
_atom_site_fract_y
_atom_site_fract_z
Si Si1 0.737401 0.911021 0.097739
Si Si2 0.105332 0.638235 0.270288
Si Si3 0.664433 0.195800 0.098480
Si Si4 0.134042 0.776439 0.399091
Si Si5 0.399557 0.484141 0.350454
Si Si6 0.553592 0.667512 0.598920
O O1 0.655887 0.924482 0.168490
O O2 0.772120 0.824119 0.112264
O O3 0.818029 0.971794 0.102748
O O4 0.696140 0.917535 0.000000
O O5 0.161888 0.635866 0.177444
O O6 0.116766 0.715524 0.323790
O O7 0.000000 0.616968 0.250000
O O8 0.750000 0.250000 0.102275
O O9 0.577478 0.247368 0.124357
O O10 0.655514 0.159706 0.000000
O O11 0.126294 0.744389 0.500000
O O12 0.055260 0.840030 0.385474
O O13 0.500000 0.500000 0.394402
O O14 0.400459 0.500000 0.250000
O O15 0.385587 0.394377 0.351783
O O16 0.584343 0.654285 0.500000
#
# Coordination Sequence:
#
# PCOD8276661 Si02
#       6
#    16  16  16  16  16  16
#     4  11  24  41  63  96 137 183 230 275 336 413
#     4  12  24  37  62  91 133 176 220 278 337 397
#     4  10  22  38  59  87 121 164 217 271 329 394
#     4  10  20  36  60  92 134 179 220 269 330 403
#     4  11  24  37  61  95 135 177 218 267 329 400
#     4  10  20  36  60  90 128 173 219 268 327 394
#
# _framework density 24.169927999999999
#
# number of rings (size 3 to 8) (size 9 to 14) (size 15 to 20)
#    0.000    1.333    3.333    2.500    4.667    2.667 
#    0.000    0.000    0.000    0.500    0.000    1.167 
#    0.000    0.000    0.000    0.000    0.000    0.000 
#
# Total GULP energy -594740.577426 kJ/mol
# GULP energy per Si atom -12390.428696 kJ/mol
# Density = 2.411492 g / cm^3
# Si number density = 24.169928 Si / 1000 Ang^3
#
#
#
# Elastic Constant Matrix: (Units=GPa)
#
#
# Indices 1 2 3 4 5 6 
#
# 1 130.9452 6.0093 63.8028 0.0000 0.0000 0.0000
# 2 6.0093 30.9678 23.0417 0.0000 0.0000 0.0000
# 3 63.8028 23.0417 162.5917 0.0000 0.0000 0.0000
# 4 0.0000 0.0000 0.0000 13.9944 0.0000 0.0000
# 5 0.0000 0.0000 0.0000 0.0000 41.5311 0.0000
# 6 0.0000 0.0000 0.0000 0.0000 0.0000 30.6011
#
#
#
# Elastic Compliance Matrix: (Units=1/GPa)
#
#
# Indices 1 2 3 4 5 6 
#
# 1 0.009472 0.001037 -0.003864 0.000000 0.000000 0.000000
# 2 0.001037 0.036211 -0.005539 0.000000 0.000000 0.000000
# 3 -0.003864 -0.005539 0.008451 0.000000 0.000000 0.000000
# 4 0.000000 0.000000 0.000000 0.071457 0.000000 0.000000
# 5 0.000000 0.000000 0.000000 0.000000 0.024078 0.000000
# 6 0.000000 0.000000 0.000000 0.000000 0.000000 0.032679
#
#
# Mechanical properties :
#
#
# Convention : Reuss Voigt Hill
#
# Bulk Modulus (GPa) = 26.73531 56.69024 41.71277
# Shear Modulus (GPa) = 23.63536 32.66873 28.15204
#
# Velocity S-wave (km/s) = 3.13050 3.68044 3.41655
# Velocity P-wave (km/s) = 4.91448 6.44722 5.73231
#
# Compressibility (1/GPa) = 0.03740372
#
# Stress axis : x y z
#
# Youngs Moduli (GPa) = 105.57634 27.61558 118.32260
#
# Poissons Ratio (x) = -0.02863 0.45717
# Poissons Ratio (y) = -0.10947 0.65534
# Poissons Ratio (z) = 0.40792 0.15295
#
# Static dielectric constant tensor:
#      x y z
#    x 6.743320 0.000000 0.000000 
#    y 0.000000 5.507530 0.000000 
#    z 0.000000 0.000000 4.474630 
# 
# 
# High freq. dielectric constant tensor:
#      x y z
#    x 1.965380 0.000000 0.000000 
#    y 0.000000 1.915260 0.000000 
#    z 0.000000 0.000000 1.971310 
# 
# From -- ./inp_files/28363.got.cif
#   From: 2010.03.12/outbox.cif.g09.slc.cpg/sg66_15_cif.got.tgz:28363.got - 2010.04.10 21:57:39.
