data_PCOD8276023
_publ_section_title
;
Structure prediction by ZEFSAII (Michael W. Deem and Ramdas Pophale) SiO2 
 PCOD8276023
Probable space group: C C C M
;
_chemical_formula_sum "Si O2"
_cell_formula_units_Z 96
_cell_length_a 10.548022
_cell_length_b 24.700409
_cell_length_c 18.590451
_cell_angle_alpha 90.000000
_cell_angle_beta 90.000000
_cell_angle_gamma 90.000000
_cell_volume 4843.564609
_symmetry_space_group_name_H-M "C C C M"
_symmetry_group_IT_number 66
_symmetry_cell_setting 'orthorhombic'
loop_
_space_group_symop_operation_xyz
x,y,z
-x,-y,z
x,-y,1/2-z
-x,y,1/2-z
-x,-y,-z
x,y,-z
-x,y,1/2+z
x,-y,1/2+z
1/2+x,1/2+y,z
1/2-x,1/2-y,z
1/2+x,1/2-y,1/2-z
1/2-x,1/2+y,1/2-z
1/2-x,1/2-y,-z
1/2+x,1/2+y,-z
1/2-x,1/2+y,1/2+z
1/2+x,1/2-y,1/2+z
loop_
_atom_site_type_symbol
_atom_site_label
_atom_site_fract_x
_atom_site_fract_y
_atom_site_fract_z
Si Si1 0.619288 0.190663 0.783632
Si Si2 0.016299 0.348229 0.418916
Si Si3 0.134367 0.019550 0.084523
Si Si4 0.282175 0.640916 0.417304
Si Si5 0.629655 0.310906 0.723065
Si Si6 0.615042 0.965836 0.584121
O O1 0.500000 0.157189 0.750000
O O2 0.586157 0.196167 0.868393
O O3 0.624354 0.247963 0.743184
O O4 0.752899 0.161374 0.766602
O O5 0.037026 0.328421 0.500000
O O6 0.868072 0.356976 0.403238
O O7 0.091846 0.403005 0.402005
O O8 0.162808 0.082110 0.101468
O O9 0.249535 0.983768 0.117692
O O10 0.128102 0.009652 0.000000
O O11 0.000000 0.000000 0.118812
O O12 0.312942 0.657220 0.500000
O O13 0.351262 0.682655 0.363028
O O14 0.500000 0.339331 0.750000
O O15 0.618200 0.980016 0.500000
O O16 0.500000 0.000000 0.619502
#
# Coordination Sequence:
#
# PCOD8276023 Si02
#       6
#    16  16  16  16  16  16
#     4  10  20  39  60  81 113 154 195 235 303 365
#     4  10  19  33  61  93 115 147 203 254 283 336
#     4   9  17  29  50  83 123 156 183 232 299 350
#     4  10  19  35  61  91 115 149 205 251 282 341
#     4  10  22  39  59  82 115 158 195 236 308 370
#     4   9  15  27  49  82 119 150 183 234 292 338
#
# _framework density 19.820114
#
# number of rings (size 3 to 8) (size 9 to 14) (size 15 to 20)
#    0.000    2.333    3.333    0.000    0.000    1.333 
#    0.000    9.167    0.000    6.000    0.000    0.000 
#    0.000    0.000    0.000    0.000    0.000    0.000 
#
# Total GULP energy -594664.647876 kJ/mol
# GULP energy per Si atom -12388.846831 kJ/mol
# Density = 1.977500 g / cm^3
# Si number density = 19.820114 Si / 1000 Ang^3
#
#
#
# Elastic Constant Matrix: (Units=GPa)
#
#
# Indices 1 2 3 4 5 6 
#
# 1 187.3197 41.9471 68.4851 0.0000 0.0000 0.0000
# 2 41.9471 59.9220 43.8658 0.0000 0.0000 0.0000
# 3 68.4851 43.8658 120.6412 0.0000 0.0000 0.0000
# 4 0.0000 0.0000 0.0000 14.7793 0.0000 0.0000
# 5 0.0000 0.0000 0.0000 0.0000 28.4399 0.0000
# 6 0.0000 0.0000 0.0000 0.0000 0.0000 22.0140
#
#
#
# Elastic Compliance Matrix: (Units=1/GPa)
#
#
# Indices 1 2 3 4 5 6 
#
# 1 0.007050 -0.002733 -0.003009 0.000000 0.000000 0.000000
# 2 -0.002733 0.023801 -0.007103 0.000000 0.000000 0.000000
# 3 -0.003009 -0.007103 0.012580 0.000000 0.000000 0.000000
# 4 0.000000 0.000000 0.000000 0.067662 0.000000 0.000000
# 5 0.000000 0.000000 0.000000 0.000000 0.035162 0.000000
# 6 0.000000 0.000000 0.000000 0.000000 0.000000 0.045426
#
#
# Mechanical properties :
#
#
# Convention : Reuss Voigt Hill
#
# Bulk Modulus (GPa) = 56.36242 75.16432 65.76337
# Shear Modulus (GPa) = 22.39302 27.28564 24.83933
#
# Velocity S-wave (km/s) = 3.36492 3.71437 3.54395
# Velocity P-wave (km/s) = 6.60270 7.51006 7.07095
#
# Compressibility (1/GPa) = 0.01774232
#
# Stress axis : x y z
#
# Youngs Moduli (GPa) = 141.83482 42.01476 79.49403
#
# Poissons Ratio (x) = 0.11483 0.23917
# Poissons Ratio (y) = 0.38764 0.56463
# Poissons Ratio (z) = 0.42673 0.29842
#
# Static dielectric constant tensor:
#      x y z
#    x 5.242120 0.000000 0.000000 
#    y 0.000000 3.223830 0.000000 
#    z 0.000000 0.000000 3.423450 
# 
# 
# High freq. dielectric constant tensor:
#      x y z
#    x 1.798110 0.000000 0.000000 
#    y 0.000000 1.736470 0.000000 
#    z 0.000000 0.000000 1.742490 
# 
# From -- ./inp_files/38890.got.cif
#   From: 2010.03.12/outbox.cif.g09.slc.cpg/sg66_20_cif.got.tgz:38890.got - 2010.04.10 21:57:39.
