data_PCOD8276665
_publ_section_title
;
Structure prediction by ZEFSAII (Michael W. Deem and Ramdas Pophale) SiO2 
 PCOD8276665
Probable space group: C C C M
;
_chemical_formula_sum "Si O2"
_cell_formula_units_Z 116
_cell_length_a 22.411565
_cell_length_b 25.939599
_cell_length_c 9.479391
_cell_angle_alpha 90.000000
_cell_angle_beta 90.000000
_cell_angle_gamma 90.000000
_cell_volume 5510.815606
_symmetry_space_group_name_H-M "C C C M"
_symmetry_group_IT_number 66
_symmetry_cell_setting 'orthorhombic'
loop_
_space_group_symop_operation_xyz
x,y,z
-x,-y,z
x,-y,1/2-z
-x,y,1/2-z
-x,-y,-z
x,y,-z
-x,y,1/2+z
x,-y,1/2+z
1/2+x,1/2+y,z
1/2-x,1/2-y,z
1/2+x,1/2-y,1/2-z
1/2-x,1/2+y,1/2-z
1/2-x,1/2-y,-z
1/2+x,1/2+y,-z
1/2-x,1/2+y,1/2+z
1/2+x,1/2-y,1/2+z
loop_
_atom_site_type_symbol
_atom_site_label
_atom_site_fract_x
_atom_site_fract_y
_atom_site_fract_z
Si Si1 0.279098 0.899999 0.162195
Si Si2 0.000000 0.500000 0.250000
Si Si3 0.946124 0.874341 0.337343
Si Si4 0.159832 0.047813 0.338793
Si Si5 0.056592 0.684108 0.664087
Si Si6 0.911566 0.585998 0.343069
Si Si7 0.759090 0.806761 0.161174
Si Si8 0.106184 0.790611 0.341876
O O1 0.225379 0.935928 0.217234
O O2 0.342141 0.929761 0.181776
O O3 0.279435 0.847140 0.249996
O O4 0.266895 0.885188 0.000000
O O5 0.955431 0.536649 0.338282
O O6 0.964275 0.869422 0.500000
O O7 0.886031 0.906135 0.316624
O O8 0.936426 0.817558 0.271881
O O9 0.000000 0.901113 0.250000
O O10 0.163119 0.030175 0.500000
O O11 0.136225 0.000000 0.250000
O O12 0.041324 0.674947 0.500000
O O13 0.073900 0.628725 0.727021
O O14 0.107335 0.728344 0.683309
O O15 0.000000 0.705231 0.750000
O O16 0.917997 0.609869 0.500000
O O17 0.750000 0.750000 0.224650
O O18 0.829406 0.816987 0.171868
O O19 0.735916 0.809643 0.000000
O O20 0.081231 0.800723 0.500000
#
# Coordination Sequence:
#
# PCOD8276665 Si02
#       8
#    16   4  16  16  16  16  16  16
#     4  10  22  42  64  93 129 165 211 262 320 384
#     4  12  26  44  72  98 130 168 220 272 332 388
#     4  11  23  40  63  92 127 166 210 260 313 374
#     4  10  23  42  64  91 126 164 210 265 319 378
#     4  11  23  40  62  90 128 167 212 264 319 384
#     4  11  25  44  67  94 127 166 212 268 325 386
#     4  10  20  36  60  93 131 167 209 258 311 376
#     4  10  21  37  60  92 129 170 211 258 314 377
#
# _framework density 21.049516000000001
#
# number of rings (size 3 to 8) (size 9 to 14) (size 15 to 20)
#    0.000    1.517    2.069    2.276    0.966    6.621 
#    0.000    1.379    0.000    0.000    0.000    0.000 
#    0.000    0.000    0.000    0.000    0.000    0.000 
#
# Total GULP energy -719061.416875 kJ/mol
# GULP energy per Si atom -12397.610636 kJ/mol
# Density = 2.100161 g / cm^3
# Si number density = 21.049516 Si / 1000 Ang^3
#
#
#
# Elastic Constant Matrix: (Units=GPa)
#
#
# Indices 1 2 3 4 5 6 
#
# 1 110.6931 35.2828 44.6608 0.0000 0.0000 0.0000
# 2 35.2828 99.5039 52.9536 0.0000 0.0000 0.0000
# 3 44.6608 52.9536 118.1280 0.0000 0.0000 0.0000
# 4 0.0000 0.0000 0.0000 30.0089 0.0000 0.0000
# 5 0.0000 0.0000 0.0000 0.0000 15.0701 0.0000
# 6 0.0000 0.0000 0.0000 0.0000 0.0000 32.6827
#
#
#
# Elastic Compliance Matrix: (Units=1/GPa)
#
#
# Indices 1 2 3 4 5 6 
#
# 1 0.011021 -0.002220 -0.003172 0.000000 0.000000 0.000000
# 2 -0.002220 0.013646 -0.005278 0.000000 0.000000 0.000000
# 3 -0.003172 -0.005278 0.012030 0.000000 0.000000 0.000000
# 4 0.000000 0.000000 0.000000 0.033323 0.000000 0.000000
# 5 0.000000 0.000000 0.000000 0.000000 0.066356 0.000000
# 6 0.000000 0.000000 0.000000 0.000000 0.000000 0.030597
#
#
# Mechanical properties :
#
#
# Convention : Reuss Voigt Hill
#
# Bulk Modulus (GPa) = 65.11035 66.01326 65.56181
# Shear Modulus (GPa) = 25.84879 28.58087 27.21483
#
# Velocity S-wave (km/s) = 3.50808 3.68882 3.59959
# Velocity P-wave (km/s) = 6.88535 7.04075 6.96348
#
# Compressibility (1/GPa) = 0.01535854
#
# Stress axis : x y z
#
# Youngs Moduli (GPa) = 90.73355 73.28299 83.12341
#
# Poissons Ratio (x) = 0.16270 0.26363
# Poissons Ratio (y) = 0.20144 0.43869
# Poissons Ratio (z) = 0.28777 0.38676
#
# Static dielectric constant tensor:
#      x y z
#    x 4.049000 0.000000 0.000000 
#    y 0.000000 3.550880 0.000000 
#    z 0.000000 0.000000 3.761290 
# 
# 
# High freq. dielectric constant tensor:
#      x y z
#    x 1.840080 0.000000 0.000000 
#    y 0.000000 1.809490 0.000000 
#    z 0.000000 0.000000 1.822620 
# 
# From -- ./inp_files/9465.got.cif
#   From: 2010.03.12/outbox.cif.g09.slc.cpg/sg66_5_cif.got.tgz:9465.got - 2010.04.10 21:57:39.
