data_PCOD8276498
_publ_section_title
;
Structure prediction by ZEFSAII (Michael W. Deem and Ramdas Pophale) SiO2 
 PCOD8276498
Probable space group: C C C M
;
_chemical_formula_sum "Si O2"
_cell_formula_units_Z 104
_cell_length_a 27.189840
_cell_length_b 12.591528
_cell_length_c 14.827099
_cell_angle_alpha 90.000000
_cell_angle_beta 90.000000
_cell_angle_gamma 90.000000
_cell_volume 5076.229807
_symmetry_space_group_name_H-M "C C C M"
_symmetry_group_IT_number 66
_symmetry_cell_setting 'orthorhombic'
loop_
_space_group_symop_operation_xyz
x,y,z
-x,-y,z
x,-y,1/2-z
-x,y,1/2-z
-x,-y,-z
x,y,-z
-x,y,1/2+z
x,-y,1/2+z
1/2+x,1/2+y,z
1/2-x,1/2-y,z
1/2+x,1/2-y,1/2-z
1/2-x,1/2+y,1/2-z
1/2-x,1/2-y,-z
1/2+x,1/2+y,-z
1/2-x,1/2+y,1/2+z
1/2+x,1/2-y,1/2+z
loop_
_atom_site_type_symbol
_atom_site_label
_atom_site_fract_x
_atom_site_fract_y
_atom_site_fract_z
Si Si1 0.695830 0.500000 0.750000
Si Si2 0.552951 0.977789 0.603487
Si Si3 0.244191 0.373270 0.897169
Si Si4 0.367058 0.858358 0.396009
Si Si5 0.114300 0.842001 0.272035
Si Si6 0.531605 0.240312 0.166199
Si Si7 0.036601 0.086111 0.101456
O O1 0.728040 0.540508 0.834611
O O2 0.660780 0.399814 0.774268
O O3 0.551698 0.009468 0.500000
O O4 0.561426 0.852696 0.615781
O O5 0.500000 0.000000 0.648936
O O6 0.595851 0.052052 0.644512
O O7 0.250000 0.250000 0.865138
O O8 0.187346 0.407150 0.893180
O O9 0.264495 0.383183 0.000000
O O10 0.379549 0.824147 0.500000
O O11 0.368715 0.760240 0.328274
O O12 0.074980 0.819021 0.194554
O O13 0.087289 0.918691 0.343656
O O14 0.500000 0.195932 0.250000
O O15 0.491357 0.299705 0.103878
O O16 0.050231 0.055992 0.000000
O O17 0.000000 0.000000 0.144659
#
# Coordination Sequence:
#
# PCOD8276498 Si02
#       7
#     8  16  16  16  16  16  16
#     4  12  24  40  67  98 119 154 206 272 334 376
#     4  10  20  35  56  83 116 153 198 247 296 358
#     4  10  22  44  69  93 125 164 214 271 327 399
#     4  10  21  39  63  89 116 159 211 260 314 384
#     4  11  22  35  56  88 119 151 200 263 312 376
#     4  10  21  34  51  80 123 162 198 248 309 373
#     4  10  20  35  55  78 115 169 214 251 307 382
#
# _framework density 20.487646000000002
#
# number of rings (size 3 to 8) (size 9 to 14) (size 15 to 20)
#    0.000    1.692    1.538    3.692    0.000    7.385 
#    0.000    1.538    0.000    0.462    0.000    0.000 
#    0.000    0.000    0.000    0.000    0.000    0.000 
#
# Total GULP energy -644422.071399 kJ/mol
# GULP energy per Si atom -12392.732142 kJ/mol
# Density = 2.044102 g / cm^3
# Si number density = 20.487646 Si / 1000 Ang^3
#
#
#
# Elastic Constant Matrix: (Units=GPa)
#
#
# Indices 1 2 3 4 5 6 
#
# 1 122.9407 46.3193 34.3478 0.0000 0.0000 0.0000
# 2 46.3193 104.9245 26.1452 0.0000 0.0000 0.0000
# 3 34.3478 26.1452 55.9259 0.0000 0.0000 0.0000
# 4 0.0000 0.0000 0.0000 23.2600 0.0000 0.0000
# 5 0.0000 0.0000 0.0000 0.0000 21.6372 0.0000
# 6 0.0000 0.0000 0.0000 0.0000 0.0000 40.5517
#
#
#
# Elastic Compliance Matrix: (Units=1/GPa)
#
#
# Indices 1 2 3 4 5 6 
#
# 1 0.010874 -0.003550 -0.005019 0.000000 0.000000 0.000000
# 2 -0.003550 0.011946 -0.003405 0.000000 0.000000 0.000000
# 3 -0.005019 -0.003405 0.022555 0.000000 0.000000 0.000000
# 4 0.000000 0.000000 0.000000 0.042992 0.000000 0.000000
# 5 0.000000 0.000000 0.000000 0.000000 0.046217 0.000000
# 6 0.000000 0.000000 0.000000 0.000000 0.000000 0.024660
#
#
# Mechanical properties :
#
#
# Convention : Reuss Voigt Hill
#
# Bulk Modulus (GPa) = 46.66714 55.26841 50.96778
# Shear Modulus (GPa) = 26.26989 28.88836 27.57912
#
# Velocity S-wave (km/s) = 3.58471 3.75912 3.67295
# Velocity P-wave (km/s) = 6.32148 6.77321 6.55124
#
# Compressibility (1/GPa) = 0.02142835
#
# Stress axis : x y z
#
# Youngs Moduli (GPa) = 91.96664 83.70990 44.33637
#
# Poissons Ratio (x) = 0.29713 0.22251
# Poissons Ratio (y) = 0.32644 0.15095
# Poissons Ratio (z) = 0.46156 0.28501
#
# Static dielectric constant tensor:
#      x y z
#    x 3.976330 0.000000 0.000000 
#    y 0.000000 3.683680 0.000000 
#    z 0.000000 0.000000 3.561000 
# 
# 
# High freq. dielectric constant tensor:
#      x y z
#    x 1.802280 0.000000 0.000000 
#    y 0.000000 1.797180 0.000000 
#    z 0.000000 0.000000 1.784520 
# 
# From -- ./inp_files/44322.got.cif
#   From: 2010.03.12/outbox.cif.g09.slc.cpg/sg66_23_cif.got.tgz:44322.got - 2010.04.10 21:57:39.
