data_PCOD8276343
_publ_section_title
;
Structure prediction by ZEFSAII (Michael W. Deem and Ramdas Pophale) SiO2 
 PCOD8276343
Probable space group: C C C M
;
_chemical_formula_sum "Si O2"
_cell_formula_units_Z 96
_cell_length_a 25.738812
_cell_length_b 14.291850
_cell_length_c 14.545511
_cell_angle_alpha 90.000000
_cell_angle_beta 90.000000
_cell_angle_gamma 90.000000
_cell_volume 5350.642444
_symmetry_space_group_name_H-M "C C C M"
_symmetry_group_IT_number 66
_symmetry_cell_setting 'orthorhombic'
loop_
_space_group_symop_operation_xyz
x,y,z
-x,-y,z
x,-y,1/2-z
-x,y,1/2-z
-x,-y,-z
x,y,-z
-x,y,1/2+z
x,-y,1/2+z
1/2+x,1/2+y,z
1/2-x,1/2-y,z
1/2+x,1/2-y,1/2-z
1/2-x,1/2+y,1/2-z
1/2-x,1/2-y,-z
1/2+x,1/2+y,-z
1/2-x,1/2+y,1/2+z
1/2+x,1/2-y,1/2+z
loop_
_atom_site_type_symbol
_atom_site_label
_atom_site_fract_x
_atom_site_fract_y
_atom_site_fract_z
Si Si1 0.439508 0.605932 0.105164
Si Si2 0.665908 0.903636 0.199530
Si Si3 0.799046 0.141428 0.500000
Si Si4 0.060084 0.105180 0.105692
Si Si5 0.712556 0.593531 0.198837
Si Si6 0.376364 0.284950 0.251075
Si Si7 0.676702 0.846076 0.000000
O O1 0.499817 0.630639 0.117264
O O2 0.429499 0.500488 0.141885
O O3 0.405665 0.682668 0.157721
O O4 0.422732 0.612712 0.000000
O O5 0.726982 0.882792 0.209734
O O6 0.629844 0.826978 0.249625
O O7 0.650984 0.000000 0.250000
O O8 0.654054 0.900364 0.089561
O O9 0.808811 0.083097 0.406312
O O10 0.738203 0.160499 0.500000
O O11 0.835800 0.234526 0.500000
O O12 0.092204 0.179746 0.162848
O O13 0.077756 0.112468 0.000000
O O14 0.696768 0.500000 0.250000
O O15 0.682350 0.677003 0.248696
#
# Coordination Sequence:
#
# PCOD8276343 Si02
#       7
#    16  16   8  16  16  16   8
#     4   9  19  37  52  77 116 143 163 205 271 329
#     4  10  22  37  52  75 107 142 181 224 268 304
#     4   9  16  30  54  75  99 136 175 221 262 297
#     4   9  19  33  56  83 109 136 169 212 263 328
#     4  10  20  33  51  80 113 140 171 218 266 312
#     4  12  20  31  55  81 103 139 180 219 253 314
#     4   9  16  34  56  69  95 137 182 227 261 298
#
# _framework density 17.941770999999999
#
# number of rings (size 3 to 8) (size 9 to 14) (size 15 to 20)
#    0.000    2.167    1.667    3.500    2.333    1.333 
#    3.000    0.000    0.000    3.000    0.000    2.333 
#    0.000    0.000    0.000    0.000    0.000    0.000 
#
# Total GULP energy -594923.012739 kJ/mol
# GULP energy per Si atom -12394.229432 kJ/mol
# Density = 1.790093 g / cm^3
# Si number density = 17.941771 Si / 1000 Ang^3
#
#
#
# Elastic Constant Matrix: (Units=GPa)
#
#
# Indices 1 2 3 4 5 6 
#
# 1 45.7613 45.4601 34.7858 0.0000 0.0000 0.0000
# 2 45.4601 133.1561 73.3515 0.0000 0.0000 0.0000
# 3 34.7858 73.3515 120.2505 0.0000 0.0000 0.0000
# 4 0.0000 0.0000 0.0000 27.4029 0.0000 0.0000
# 5 0.0000 0.0000 0.0000 0.0000 24.3779 0.0000
# 6 0.0000 0.0000 0.0000 0.0000 0.0000 26.0968
#
#
#
# Elastic Compliance Matrix: (Units=1/GPa)
#
#
# Indices 1 2 3 4 5 6 
#
# 1 0.034421 -0.009438 -0.004200 0.000000 0.000000 0.000000
# 2 -0.009438 0.013898 -0.005748 0.000000 0.000000 0.000000
# 3 -0.004200 -0.005748 0.013037 0.000000 0.000000 0.000000
# 4 0.000000 0.000000 0.000000 0.036493 0.000000 0.000000
# 5 0.000000 0.000000 0.000000 0.000000 0.041021 0.000000
# 6 0.000000 0.000000 0.000000 0.000000 0.000000 0.038319
#
#
# Mechanical properties :
#
#
# Convention : Reuss Voigt Hill
#
# Bulk Modulus (GPa) = 44.27731 67.37365 55.82548
# Shear Modulus (GPa) = 22.37255 25.28022 23.82638
#
# Velocity S-wave (km/s) = 3.53505 3.75776 3.64810
# Velocity P-wave (km/s) = 6.43382 7.51402 6.99480
#
# Compressibility (1/GPa) = 0.02258493
#
# Stress axis : x y z
#
# Youngs Moduli (GPa) = 29.05202 71.95150 76.70436
#
# Poissons Ratio (x) = 0.67905 0.32219
# Poissons Ratio (y) = 0.27418 0.44087
# Poissons Ratio (z) = 0.12203 0.41355
#
# Static dielectric constant tensor:
#      x y z
#    x 3.241440 0.000000 0.000000 
#    y 0.000000 3.221300 0.000000 
#    z 0.000000 0.000000 3.533920 
# 
# 
# High freq. dielectric constant tensor:
#      x y z
#    x 1.686640 0.000000 0.000000 
#    y 0.000000 1.665470 0.000000 
#    z 0.000000 0.000000 1.701610 
# 
# From -- ./inp_files/33277.got.cif
#   From: 2010.03.12/outbox.cif.g09.slc.cpg/sg66_17_cif.got.tgz:33277.got - 2010.04.10 21:57:39.
