data_PCOD8276891
_publ_section_title
;
Structure prediction by ZEFSAII (Michael W. Deem and Ramdas Pophale) SiO2 
 PCOD8276891
Probable space group: C C C M
;
_chemical_formula_sum "Si O2"
_cell_formula_units_Z 112
_cell_length_a 17.632791
_cell_length_b 36.922286
_cell_length_c 9.973183
_cell_angle_alpha 90.000000
_cell_angle_beta 90.000000
_cell_angle_gamma 90.000000
_cell_volume 6492.970504
_symmetry_space_group_name_H-M "C C C M"
_symmetry_group_IT_number 66
_symmetry_cell_setting 'orthorhombic'
loop_
_space_group_symop_operation_xyz
x,y,z
-x,-y,z
x,-y,1/2-z
-x,y,1/2-z
-x,-y,-z
x,y,-z
-x,y,1/2+z
x,-y,1/2+z
1/2+x,1/2+y,z
1/2-x,1/2-y,z
1/2+x,1/2-y,1/2-z
1/2-x,1/2+y,1/2-z
1/2-x,1/2-y,-z
1/2+x,1/2+y,-z
1/2-x,1/2+y,1/2+z
1/2+x,1/2-y,1/2+z
loop_
_atom_site_type_symbol
_atom_site_label
_atom_site_fract_x
_atom_site_fract_y
_atom_site_fract_z
Si Si1 0.350167 0.692148 0.152685
Si Si2 0.435746 0.443972 0.846278
Si Si3 0.767480 0.032054 0.344076
Si Si4 0.112553 0.134672 0.146906
Si Si5 0.428731 0.766585 0.845700
Si Si6 0.784802 0.609602 0.851443
Si Si7 0.818371 0.668828 0.345694
O O1 0.402150 0.665687 0.243061
O O2 0.371990 0.733410 0.181652
O O3 0.261577 0.687951 0.187338
O O4 0.366780 0.681090 0.000000
O O5 0.500000 0.461124 0.750000
O O6 0.354711 0.460254 0.805940
O O7 0.436893 0.400727 0.822823
O O8 0.455588 0.453274 0.000000
O O9 0.760786 0.021143 0.500000
O O10 0.715337 0.067099 0.313310
O O11 0.736590 0.000000 0.250000
O O12 0.199253 0.122867 0.148310
O O13 0.091775 0.150445 0.000000
O O14 0.500000 0.763096 0.750000
O O15 0.384433 0.803176 0.810230
O O16 0.455981 0.766647 0.000000
O O17 0.832092 0.632992 0.744013
O O18 0.820232 0.615054 0.000000
O O19 0.821531 0.656680 0.500000
#
# Coordination Sequence:
#
# PCOD8276891 Si02
#       7
#    16  16  16  16  16  16  16
#     4   9  17  30  48  67  87 116 155 196 235 271
#     4   9  18  30  41  55  79 113 151 188 225 266
#     4   9  18  31  45  63  88 114 140 177 224 268
#     4   8  15  28  43  59  81 108 142 187 231 266
#     4  10  21  34  46  65  95 125 152 187 231 275
#     4   8  15  29  47  66  87 110 139 178 222 264
#     4   9  17  31  51  70  88 116 156 195 227 265
#
# _framework density 17.249424000000001
#
# number of rings (size 3 to 8) (size 9 to 14) (size 15 to 20)
#    0.000    3.143    0.000    2.143    0.000    5.429 
#    0.000    7.143    0.000    4.286    0.000    0.000 
#    0.000    0.571    0.000    6.286    0.000    4.571 
#
# Total GULP energy -694209.123401 kJ/mol
# GULP energy per Si atom -12396.591489 kJ/mol
# Density = 1.721016 g / cm^3
# Si number density = 17.249424 Si / 1000 Ang^3
#
#
#
# Elastic Constant Matrix: (Units=GPa)
#
#
# Indices 1 2 3 4 5 6 
#
# 1 25.2055 13.8958 21.8852 0.0000 0.0000 0.0000
# 2 13.8958 103.0241 63.5014 0.0000 0.0000 0.0000
# 3 21.8852 63.5014 87.1385 0.0000 0.0000 0.0000
# 4 0.0000 0.0000 0.0000 32.0679 0.0000 0.0000
# 5 0.0000 0.0000 0.0000 0.0000 20.1131 0.0000
# 6 0.0000 0.0000 0.0000 0.0000 0.0000 12.1662
#
#
#
# Elastic Compliance Matrix: (Units=1/GPa)
#
#
# Indices 1 2 3 4 5 6 
#
# 1 0.050930 0.001842 -0.014134 0.000000 0.000000 0.000000
# 2 0.001842 0.017688 -0.013353 0.000000 0.000000 0.000000
# 3 -0.014134 -0.013353 0.024757 0.000000 0.000000 0.000000
# 4 0.000000 0.000000 0.000000 0.031184 0.000000 0.000000
# 5 0.000000 0.000000 0.000000 0.000000 0.049719 0.000000
# 6 0.000000 0.000000 0.000000 0.000000 0.000000 0.082195
#
#
# Mechanical properties :
#
#
# Convention : Reuss Voigt Hill
#
# Bulk Modulus (GPa) = 23.76075 45.99258 34.87666
# Shear Modulus (GPa) = 15.53803 20.60848 18.07326
#
# Velocity S-wave (km/s) = 3.00456 3.46024 3.24042
# Velocity P-wave (km/s) = 5.08343 6.53341 5.85349
#
# Compressibility (1/GPa) = 0.04208621
#
# Stress axis : x y z
#
# Youngs Moduli (GPa) = 19.63465 56.53421 40.39314
#
# Poissons Ratio (x) = -0.10416 0.57092
# Poissons Ratio (y) = -0.03617 0.53937
# Poissons Ratio (z) = 0.27752 0.75490
#
# Static dielectric constant tensor:
#      x y z
#    x 2.769860 0.000000 0.000000 
#    y 0.000000 3.289160 0.000000 
#    z 0.000000 0.000000 3.407060 
# 
# 
# High freq. dielectric constant tensor:
#      x y z
#    x 1.614970 0.000000 0.000000 
#    y 0.000000 1.664710 0.000000 
#    z 0.000000 0.000000 1.671430 
# 
# From -- ./inp_files/16792.got.cif
#   From: 2010.03.12/outbox.cif.g09.slc.cpg/sg66_9_cif.got.tgz:16792.got - 2010.04.10 21:57:39.
