data_PCOD8276293
_publ_section_title
;
Structure prediction by ZEFSAII (Michael W. Deem and Ramdas Pophale) SiO2 
 PCOD8276293
Probable space group: C C C M
;
_chemical_formula_sum "Si O2"
_cell_formula_units_Z 80
_cell_length_a 18.438225
_cell_length_b 26.981549
_cell_length_c 8.983634
_cell_angle_alpha 90.000000
_cell_angle_beta 90.000000
_cell_angle_gamma 90.000000
_cell_volume 4469.284890
_symmetry_space_group_name_H-M "C C C M"
_symmetry_group_IT_number 66
_symmetry_cell_setting 'orthorhombic'
loop_
_space_group_symop_operation_xyz
x,y,z
-x,-y,z
x,-y,1/2-z
-x,y,1/2-z
-x,-y,-z
x,y,-z
-x,y,1/2+z
x,-y,1/2+z
1/2+x,1/2+y,z
1/2-x,1/2-y,z
1/2+x,1/2-y,1/2-z
1/2-x,1/2+y,1/2-z
1/2-x,1/2-y,-z
1/2+x,1/2+y,-z
1/2-x,1/2+y,1/2+z
1/2+x,1/2-y,1/2+z
loop_
_atom_site_type_symbol
_atom_site_label
_atom_site_fract_x
_atom_site_fract_y
_atom_site_fract_z
Si Si1 0.426433 0.349857 0.327726
Si Si2 0.071724 0.448343 0.173222
Si Si3 0.722972 0.695862 0.673792
Si Si4 0.279733 0.897721 0.327617
Si Si5 0.348749 0.449468 0.676224
O O1 0.500000 0.332690 0.250000
O O2 0.443431 0.349529 0.500000
O O3 0.362286 0.311110 0.288057
O O4 0.402931 0.405135 0.277292
O O5 0.092190 0.500000 0.250000
O O6 0.136527 0.410094 0.198358
O O7 0.000000 0.425469 0.250000
O O8 0.056715 0.457793 0.000000
O O9 0.736120 0.684674 0.500000
O O10 0.750000 0.750000 0.719517
O O11 0.770002 0.657803 0.768975
O O12 0.257490 0.901176 0.500000
O O13 0.231088 0.936773 0.236814
O O14 0.377841 0.500000 0.750000
O O15 0.344094 0.455947 0.500000
#
# Coordination Sequence:
#
# PCOD8276293 Si02
#       5
#    16  16  16  16  16
#     4   9  19  34  52  75 102 133 167 204 249 298
#     4  10  20  32  48  71 100 134 170 206 249 299
#     4   9  19  37  58  77  99 131 169 207 253 305
#     4  10  20  33  51  76 102 130 168 212 255 300
#     4  10  20  33  50  74 103 137 174 207 246 296
#
# _framework density 17.899954999999999
#
# number of rings (size 3 to 8) (size 9 to 14) (size 15 to 20)
#    0.000    2.400    0.000    4.200    0.000    9.600 
#    0.000    3.000    0.000    4.800    0.000    0.000 
#    0.000    0.000    0.000    0.000    0.000    0.000 
#
# Total GULP energy -496029.628446 kJ/mol
# GULP energy per Si atom -12400.740711 kJ/mol
# Density = 1.785921 g / cm^3
# Si number density = 17.899955 Si / 1000 Ang^3
#
#
#
# Elastic Constant Matrix: (Units=GPa)
#
#
# Indices 1 2 3 4 5 6 
#
# 1 125.5077 56.0100 50.5556 0.0000 0.0000 0.0000
# 2 56.0100 97.8837 35.2620 0.0000 0.0000 0.0000
# 3 50.5556 35.2620 80.7441 0.0000 0.0000 0.0000
# 4 0.0000 0.0000 0.0000 13.2089 0.0000 0.0000
# 5 0.0000 0.0000 0.0000 0.0000 30.7621 0.0000
# 6 0.0000 0.0000 0.0000 0.0000 0.0000 19.4321
#
#
#
# Elastic Compliance Matrix: (Units=1/GPa)
#
#
# Indices 1 2 3 4 5 6 
#
# 1 0.012516 -0.005149 -0.005588 0.000000 0.000000 0.000000
# 2 -0.005149 0.014242 -0.002996 0.000000 0.000000 0.000000
# 3 -0.005588 -0.002996 0.017192 0.000000 0.000000 0.000000
# 4 0.000000 0.000000 0.000000 0.075707 0.000000 0.000000
# 5 0.000000 0.000000 0.000000 0.000000 0.032507 0.000000
# 6 0.000000 0.000000 0.000000 0.000000 0.000000 0.051461
#
#
# Mechanical properties :
#
#
# Convention : Reuss Voigt Hill
#
# Bulk Modulus (GPa) = 60.66325 65.31009 62.98667
# Shear Modulus (GPa) = 21.13400 23.50115 22.31757
#
# Velocity S-wave (km/s) = 3.43982 3.62735 3.53483
# Velocity P-wave (km/s) = 7.05268 7.35588 7.20587
#
# Compressibility (1/GPa) = 0.01648444
#
# Stress axis : x y z
#
# Youngs Moduli (GPa) = 79.89528 70.21670 58.16679
#
# Poissons Ratio (x) = 0.36154 0.32505
# Poissons Ratio (y) = 0.41137 0.17425
# Poissons Ratio (z) = 0.44647 0.21035
#
# Static dielectric constant tensor:
#      x y z
#    x 3.316380 0.000000 0.000000 
#    y 0.000000 3.212680 0.000000 
#    z 0.000000 0.000000 3.378620 
# 
# 
# High freq. dielectric constant tensor:
#      x y z
#    x 1.692630 0.000000 0.000000 
#    y 0.000000 1.676090 0.000000 
#    z 0.000000 0.000000 1.702660 
# 
# From -- ./inp_files/6682.got.cif
#   From: 2010.03.12/outbox.cif.g09.slc.cpg/sg66_4_cif.got.tgz:6682.got - 2010.04.10 21:57:39.
