data_PCOD8276550
_publ_section_title
;
Structure prediction by ZEFSAII (Michael W. Deem and Ramdas Pophale) SiO2 
 PCOD8276550
Probable space group: C C C M
;
_chemical_formula_sum "Si O2"
_cell_formula_units_Z 112
_cell_length_a 23.858939
_cell_length_b 16.105655
_cell_length_c 14.087345
_cell_angle_alpha 90.000000
_cell_angle_beta 90.000000
_cell_angle_gamma 90.000000
_cell_volume 5413.257288
_symmetry_space_group_name_H-M "C C C M"
_symmetry_group_IT_number 66
_symmetry_cell_setting 'orthorhombic'
loop_
_space_group_symop_operation_xyz
x,y,z
-x,-y,z
x,-y,1/2-z
-x,y,1/2-z
-x,-y,-z
x,y,-z
-x,y,1/2+z
x,-y,1/2+z
1/2+x,1/2+y,z
1/2-x,1/2-y,z
1/2+x,1/2-y,1/2-z
1/2-x,1/2+y,1/2-z
1/2-x,1/2-y,-z
1/2+x,1/2+y,-z
1/2-x,1/2+y,1/2+z
1/2+x,1/2-y,1/2+z
loop_
_atom_site_type_symbol
_atom_site_label
_atom_site_fract_x
_atom_site_fract_y
_atom_site_fract_z
Si Si1 0.642869 0.080894 0.391127
Si Si2 0.621790 0.501895 0.112875
Si Si3 0.751522 0.989918 0.611038
Si Si4 0.901715 0.305283 0.769444
Si Si5 0.564506 0.620139 0.751260
Si Si6 0.551941 0.055493 0.890888
Si Si7 0.295883 0.820244 0.107561
O O1 0.637780 0.109923 0.500000
O O2 0.707673 0.063125 0.362686
O O3 0.617059 0.154067 0.329408
O O4 0.609543 0.994740 0.375840
O O5 0.686421 0.510933 0.147074
O O6 0.590962 0.583620 0.151991
O O7 0.595314 0.419340 0.159588
O O8 0.615031 0.496067 0.000000
O O9 0.754238 0.975762 0.500000
O O10 0.729490 0.903442 0.655403
O O11 0.931162 0.218902 0.747163
O O12 0.945944 0.363235 0.825253
O O13 0.848344 0.287736 0.834148
O O14 0.500000 0.593832 0.750000
O O15 0.500000 0.000000 0.856535
O O16 0.543436 0.082561 0.000000
O O17 0.250000 0.750000 0.110148
O O18 0.316326 0.837530 0.000000
#
# Coordination Sequence:
#
# PCOD8276550 Si02
#       7
#    16  16  16  16  16  16  16
#     4  10  22  39  58  90 130 171 213 252 301 371
#     4  10  22  46  73  90 118 165 207 264 337 388
#     4   9  18  36  63  92 122 161 212 258 310 383
#     4  12  24  37  62  93 129 171 209 258 315 377
#     4  11  27  44  61  97 128 154 214 275 313 385
#     4  10  22  40  62  90 126 171 219 256 298 367
#     4  10  20  35  57  91 130 159 201 265 321 377
#
# _framework density 20.689945999999999
#
# number of rings (size 3 to 8) (size 9 to 14) (size 15 to 20)
#    0.000    1.714    1.429    2.571    2.000    8.000 
#    0.000    0.000    0.000    3.000    0.000    0.000 
#    0.000    0.000    0.000    0.000    0.000    0.000 
#
# Total GULP energy -694488.990497 kJ/mol
# GULP energy per Si atom -12401.589116 kJ/mol
# Density = 2.064285 g / cm^3
# Si number density = 20.689946 Si / 1000 Ang^3
#
#
#
# Elastic Constant Matrix: (Units=GPa)
#
#
# Indices 1 2 3 4 5 6 
#
# 1 132.1024 42.8152 33.7973 0.0000 0.0000 0.0000
# 2 42.8152 126.0327 52.6890 0.0000 0.0000 0.0000
# 3 33.7973 52.6890 109.3617 0.0000 0.0000 0.0000
# 4 0.0000 0.0000 0.0000 29.0538 0.0000 0.0000
# 5 0.0000 0.0000 0.0000 0.0000 23.7093 0.0000
# 6 0.0000 0.0000 0.0000 0.0000 0.0000 30.2593
#
#
#
# Elastic Compliance Matrix: (Units=1/GPa)
#
#
# Indices 1 2 3 4 5 6 
#
# 1 0.008721 -0.002299 -0.001588 0.000000 0.000000 0.000000
# 2 -0.002299 0.010542 -0.004368 0.000000 0.000000 0.000000
# 3 -0.001588 -0.004368 0.011739 0.000000 0.000000 0.000000
# 4 0.000000 0.000000 0.000000 0.034419 0.000000 0.000000
# 5 0.000000 0.000000 0.000000 0.000000 0.042178 0.000000
# 6 0.000000 0.000000 0.000000 0.000000 0.000000 0.033048
#
#
# Mechanical properties :
#
#
# Convention : Reuss Voigt Hill
#
# Bulk Modulus (GPa) = 69.00265 69.56663 69.28464
# Shear Modulus (GPa) = 30.86673 32.48418 31.67546
#
# Velocity S-wave (km/s) = 3.86666 3.96668 3.91699
# Velocity P-wave (km/s) = 7.30466 7.39431 7.34962
#
# Compressibility (1/GPa) = 0.01449220
#
# Stress axis : x y z
#
# Youngs Moduli (GPa) = 114.66343 94.86153 85.18461
#
# Poissons Ratio (x) = 0.21809 0.13524
# Poissons Ratio (y) = 0.26361 0.37212
# Poissons Ratio (z) = 0.18204 0.41439
#
# Static dielectric constant tensor:
#      x y z
#    x 3.964580 0.000000 0.000000 
#    y 0.000000 3.496360 0.000000 
#    z 0.000000 0.000000 3.751280 
# 
# 
# High freq. dielectric constant tensor:
#      x y z
#    x 1.824620 0.000000 0.000000 
#    y 0.000000 1.792560 0.000000 
#    z 0.000000 0.000000 1.813550 
# 
# From -- ./inp_files/32471.got.cif
#   From: 2010.03.12/outbox.cif.g09.slc.cpg/sg66_17_cif.got.tgz:32471.got - 2010.04.10 21:57:39.
