data_PCOD8276749
_publ_section_title
;
Structure prediction by ZEFSAII (Michael W. Deem and Ramdas Pophale) SiO2 
 PCOD8276749
Probable space group: C C C M
;
_chemical_formula_sum "Si O2"
_cell_formula_units_Z 80
_cell_length_a 25.879104
_cell_length_b 8.869321
_cell_length_c 16.217250
_cell_angle_alpha 90.000000
_cell_angle_beta 90.000000
_cell_angle_gamma 90.000000
_cell_volume 3722.346699
_symmetry_space_group_name_H-M "C C C M"
_symmetry_group_IT_number 66
_symmetry_cell_setting 'orthorhombic'
loop_
_space_group_symop_operation_xyz
x,y,z
-x,-y,z
x,-y,1/2-z
-x,y,1/2-z
-x,-y,-z
x,y,-z
-x,y,1/2+z
x,-y,1/2+z
1/2+x,1/2+y,z
1/2-x,1/2-y,z
1/2+x,1/2-y,1/2-z
1/2-x,1/2+y,1/2-z
1/2-x,1/2-y,-z
1/2+x,1/2+y,-z
1/2-x,1/2+y,1/2+z
1/2+x,1/2-y,1/2+z
loop_
_atom_site_type_symbol
_atom_site_label
_atom_site_fract_x
_atom_site_fract_y
_atom_site_fract_z
Si Si1 0.145214 0.062672 0.338209
Si Si2 0.349753 0.890892 0.097417
Si Si3 0.548413 0.412338 0.594773
Si Si4 0.752522 0.077449 0.403877
Si Si5 0.448477 0.921149 0.401937
O O1 0.150313 0.242239 0.346438
O O2 0.126895 0.000000 0.250000
O O3 0.101256 0.006462 0.400788
O O4 0.201098 0.996797 0.355499
O O5 0.299814 0.990642 0.118539
O O6 0.398825 0.986055 0.127270
O O7 0.351288 0.849532 0.000000
O O8 0.500000 0.500000 0.636872
O O9 0.534276 0.386350 0.500000
O O10 0.554818 0.247303 0.635810
O O11 0.764833 0.066236 0.500000
O O12 0.750000 0.250000 0.375018
O O13 0.448844 0.916461 0.500000
O O14 0.500000 0.000000 0.367332
#
# Coordination Sequence:
#
# PCOD8276749 Si02
#       5
#    16  16  16  16  16
#     4  12  25  38  55  83 120 159 194 237 292 355
#     4  10  20  37  62  88 116 152 197 246 293 346
#     4  10  20  37  62  87 114 151 196 246 294 343
#     4  10  21  39  63  88 114 148 196 251 298 346
#     4   9  17  32  58  90 115 140 185 244 299 347
#
# _framework density 21.491820000000001
#
# number of rings (size 3 to 8) (size 9 to 14) (size 15 to 20)
#    0.000    1.800    0.000    4.800    0.000   10.000 
#    0.000    3.000    0.000    1.200    0.000    0.000 
#    0.000    0.000    0.000    0.000    0.000    0.000 
#
# Total GULP energy -496056.026918 kJ/mol
# GULP energy per Si atom -12401.400673 kJ/mol
# Density = 2.144290 g / cm^3
# Si number density = 21.491820 Si / 1000 Ang^3
#
#
#
# Elastic Constant Matrix: (Units=GPa)
#
#
# Indices 1 2 3 4 5 6 
#
# 1 164.4432 76.6465 17.0084 0.0000 0.0000 0.0000
# 2 76.6465 207.3530 35.4881 0.0000 0.0000 0.0000
# 3 17.0084 35.4881 30.5212 0.0000 0.0000 0.0000
# 4 0.0000 0.0000 0.0000 -3.6896 0.0000 0.0000
# 5 0.0000 0.0000 0.0000 0.0000 540.6802 0.0000
# 6 0.0000 0.0000 0.0000 0.0000 0.0000 44.2053
#
#
#
# Elastic Compliance Matrix: (Units=1/GPa)
#
#
# Indices 1 2 3 4 5 6 
#
# 1 0.007380 -0.002527 -0.001174 0.000000 0.000000 0.000000
# 2 -0.002527 0.006886 -0.006599 0.000000 0.000000 0.000000
# 3 -0.001174 -0.006599 0.041091 0.000000 0.000000 0.000000
# 4 0.000000 0.000000 0.000000 -0.271032 0.000000 0.000000
# 5 0.000000 0.000000 0.000000 0.000000 0.001850 0.000000
# 6 0.000000 0.000000 0.000000 0.000000 0.000000 0.022622
#
#
# Mechanical properties :
#
#
# Convention : Reuss Voigt Hill
#
# Bulk Modulus (GPa) = 28.77089 73.40036 51.08562
# Shear Modulus (GPa) = -31.44309 134.45080 51.50386
#
# Velocity S-wave (km/s) = -3.82910 7.91801 4.90066
# Velocity P-wave (km/s) = 2.47657 10.85449 7.47284
#
# Compressibility (1/GPa) = 0.03475736
#
# Stress axis : x y z
#
# Youngs Moduli (GPa) = 135.49229 145.21893 24.33624
#
# Poissons Ratio (x) = 0.36699 0.02858
# Poissons Ratio (y) = 0.34241 0.16058
# Poissons Ratio (z) = 0.15913 0.95823
#
# Static dielectric constant tensor:
#      x y z
#    x 3.966430 0.000000 0.000000 
#    y 0.000000 4.327200 0.000000 
#    z 0.000000 0.000000 3.363180 
# 
# 
# High freq. dielectric constant tensor:
#      x y z
#    x 1.862210 0.000000 0.000000 
#    y 0.000000 1.862990 0.000000 
#    z 0.000000 0.000000 1.797870 
# 
# From -- ./inp_files/44104.got.cif
#   From: 2010.03.12/outbox.cif.g09.slc.cpg/sg66_23_cif.got.tgz:44104.got - 2010.04.10 21:57:39.
