data_PCOD8276134
_publ_section_title
;
Structure prediction by ZEFSAII (Michael W. Deem and Ramdas Pophale) SiO2 
 PCOD8276134
Probable space group: C C C M
;
_chemical_formula_sum "Si O2"
_cell_formula_units_Z 96
_cell_length_a 18.820299
_cell_length_b 11.171303
_cell_length_c 25.775045
_cell_angle_alpha 90.000000
_cell_angle_beta 90.000000
_cell_angle_gamma 90.000000
_cell_volume 5419.132657
_symmetry_space_group_name_H-M "C C C M"
_symmetry_group_IT_number 66
_symmetry_cell_setting 'orthorhombic'
loop_
_space_group_symop_operation_xyz
x,y,z
-x,-y,z
x,-y,1/2-z
-x,y,1/2-z
-x,-y,-z
x,y,-z
-x,y,1/2+z
x,-y,1/2+z
1/2+x,1/2+y,z
1/2-x,1/2-y,z
1/2+x,1/2-y,1/2-z
1/2-x,1/2+y,1/2-z
1/2-x,1/2-y,-z
1/2+x,1/2+y,-z
1/2-x,1/2+y,1/2+z
1/2+x,1/2-y,1/2+z
loop_
_atom_site_type_symbol
_atom_site_label
_atom_site_fract_x
_atom_site_fract_y
_atom_site_fract_z
Si Si1 0.963877 0.780838 0.194259
Si Si2 0.099884 0.169988 0.560062
Si Si3 0.500000 0.500000 0.877185
Si Si4 0.461986 0.884514 0.114763
Si Si5 0.819600 0.323318 0.278106
Si Si6 0.750000 0.750000 0.392835
Si Si7 0.176907 0.562815 0.828905
O O1 0.969715 0.898063 0.159675
O O2 0.880110 0.761662 0.199610
O O3 0.000000 0.800188 0.250000
O O4 0.997502 0.666262 0.165359
O O5 0.098573 0.137902 0.500000
O O6 0.047616 0.281682 0.571688
O O7 0.180495 0.209761 0.574603
O O8 0.066378 0.053988 0.589381
O O9 0.387080 0.936408 0.131449
O O10 0.500000 0.000000 0.089809
O O11 0.750000 0.250000 0.265904
O O12 0.848432 0.377281 0.224539
O O13 0.798728 0.426998 0.318941
O O14 0.759973 0.635602 0.355826
#
# Coordination Sequence:
#
# PCOD8276134 Si02
#       7
#    16  16   8  16  16   8  16
#     4  11  21  36  55  82 116 152 190 221 270 339
#     4  10  22  40  62  82 106 143 190 245 302 345
#     4  10  24  38  58  84 112 150 188 240 284 336
#     4  10  19  35  58  82 108 140 186 232 278 332
#     4  11  22  32  52  78 117 155 189 218 267 324
#     4  10  21  38  58  84 112 140 192 238 291 338
#     4  10  20  35  51  80 112 152 183 227 264 333
#
# _framework density 17.715012999999999
#
# number of rings (size 3 to 8) (size 9 to 14) (size 15 to 20)
#    0.000    1.667    4.167    0.750    2.333    0.667 
#    3.000    0.000    0.000    0.000    0.000    1.167 
#    0.000    0.000    0.000    0.000    0.000    0.000 
#
# Total GULP energy -594954.487984 kJ/mol
# GULP energy per Si atom -12394.885166 kJ/mol
# Density = 1.767469 g / cm^3
# Si number density = 17.715013 Si / 1000 Ang^3
#
#
#
# Elastic Constant Matrix: (Units=GPa)
#
#
# Indices 1 2 3 4 5 6 
#
# 1 94.1055 39.9796 31.9814 0.0000 0.0000 0.0000
# 2 39.9796 105.8479 40.7657 0.0000 0.0000 0.0000
# 3 31.9814 40.7657 89.9785 0.0000 0.0000 0.0000
# 4 0.0000 0.0000 0.0000 16.5114 0.0000 0.0000
# 5 0.0000 0.0000 0.0000 0.0000 17.1872 0.0000
# 6 0.0000 0.0000 0.0000 0.0000 0.0000 27.4032
#
#
#
# Elastic Compliance Matrix: (Units=1/GPa)
#
#
# Indices 1 2 3 4 5 6 
#
# 1 0.013280 -0.003874 -0.002965 0.000000 0.000000 0.000000
# 2 -0.003874 0.012575 -0.004320 0.000000 0.000000 0.000000
# 3 -0.002965 -0.004320 0.014125 0.000000 0.000000 0.000000
# 4 0.000000 0.000000 0.000000 0.060564 0.000000 0.000000
# 5 0.000000 0.000000 0.000000 0.000000 0.058183 0.000000
# 6 0.000000 0.000000 0.000000 0.000000 0.000000 0.036492
#
#
# Mechanical properties :
#
#
# Convention : Reuss Voigt Hill
#
# Bulk Modulus (GPa) = 56.62129 57.26504 56.94317
# Shear Modulus (GPa) = 22.37905 24.03406 23.20656
#
# Velocity S-wave (km/s) = 3.55812 3.68734 3.62331
# Velocity P-wave (km/s) = 6.99371 7.10806 7.05112
#
# Compressibility (1/GPa) = 0.01766120
#
# Stress axis : x y z
#
# Youngs Moduli (GPa) = 75.30228 79.52555 70.79709
#
# Poissons Ratio (x) = 0.30808 0.20991
# Poissons Ratio (y) = 0.29172 0.30585
# Poissons Ratio (z) = 0.22327 0.34356
#
# Static dielectric constant tensor:
#      x y z
#    x 3.327910 0.000000 0.000000 
#    y 0.000000 3.493500 0.000000 
#    z 0.000000 0.000000 3.138270 
# 
# 
# High freq. dielectric constant tensor:
#      x y z
#    x 1.686540 0.000000 0.000000 
#    y 0.000000 1.693160 0.000000 
#    z 0.000000 0.000000 1.669210 
# 
# From -- ./inp_files/58809.got.cif
#   From: 2010.03.12/outbox.cif.g09.slc.cpg/sg66_30_cif.got.tgz:58809.got - 2010.04.10 21:57:39.
