data_PCOD8276739
_publ_section_title
;
Structure prediction by ZEFSAII (Michael W. Deem and Ramdas Pophale) SiO2 
 PCOD8276739
Probable space group: C C C M
;
_chemical_formula_sum "Si O2"
_cell_formula_units_Z 96
_cell_length_a 23.876532
_cell_length_b 14.342182
_cell_length_c 14.990715
_cell_angle_alpha 90.000000
_cell_angle_beta 90.000000
_cell_angle_gamma 90.000000
_cell_volume 5133.443942
_symmetry_space_group_name_H-M "C C C M"
_symmetry_group_IT_number 66
_symmetry_cell_setting 'orthorhombic'
loop_
_space_group_symop_operation_xyz
x,y,z
-x,-y,z
x,-y,1/2-z
-x,y,1/2-z
-x,-y,-z
x,y,-z
-x,y,1/2+z
x,-y,1/2+z
1/2+x,1/2+y,z
1/2-x,1/2-y,z
1/2+x,1/2-y,1/2-z
1/2-x,1/2+y,1/2-z
1/2-x,1/2-y,-z
1/2+x,1/2+y,-z
1/2-x,1/2+y,1/2+z
1/2+x,1/2-y,1/2+z
loop_
_atom_site_type_symbol
_atom_site_label
_atom_site_fract_x
_atom_site_fract_y
_atom_site_fract_z
Si Si1 0.269543 0.995867 0.000000
Si Si2 0.500456 0.242694 0.148685
Si Si3 0.477720 0.897125 0.500000
Si Si4 0.879014 0.194360 0.647361
Si Si5 0.621189 0.690823 0.352262
Si Si6 0.146212 0.663121 0.500000
Si Si7 0.822431 0.998837 0.146877
Si Si8 0.688528 0.205895 0.000000
O O1 0.233232 0.993228 0.910649
O O2 0.309665 0.905997 0.000000
O O3 0.303335 0.091417 0.000000
O O4 0.500000 0.206671 0.250000
O O5 0.501788 0.151697 0.087870
O O6 0.445738 0.305373 0.128319
O O7 0.555062 0.304181 0.128085
O O8 0.410710 0.895895 0.500000
O O9 0.500000 0.000000 0.500000
O O10 0.865262 0.217100 0.750047
O O11 0.848835 0.272511 0.587749
O O12 0.856555 0.093216 0.620155
O O13 0.637789 0.585611 0.375568
O O14 0.655679 0.762933 0.411867
O O15 0.804286 0.000000 0.250000
O O16 0.750000 0.250000 0.000000
#
# Coordination Sequence:
#
# PCOD8276739 Si02
#       8
#     8  16   8  16  16   8  16   8
#     4  12  25  39  55  80 111 152 200 241 275 327
#     4   9  19  36  59  86 116 145 178 227 290 347
#     4  10  21  36  57  79 108 148 191 234 280 331
#     4   9  20  39  59  86 120 146 183 232 284 351
#     4  10  20  37  61  88 114 149 185 233 290 339
#     4  10  23  40  55  82 112 151 195 235 280 331
#     4  10  21  37  59  86 115 147 187 229 280 343
#     4  12  23  39  59  80 115 152 197 246 281 327
#
# _framework density 18.700896
#
# number of rings (size 3 to 8) (size 9 to 14) (size 15 to 20)
#    0.000    2.000    1.667    1.000    2.333    3.667 
#    0.000    3.333    0.000    5.000    0.000    0.000 
#    0.000    0.000    0.000    0.000    0.000    0.000 
#
# Total GULP energy -595338.245475 kJ/mol
# GULP energy per Si atom -12402.880114 kJ/mol
# Density = 1.865833 g / cm^3
# Si number density = 18.700896 Si / 1000 Ang^3
#
#
#
# Elastic Constant Matrix: (Units=GPa)
#
#
# Indices 1 2 3 4 5 6 
#
# 1 111.5621 77.7705 63.6542 0.0000 0.0000 0.0000
# 2 77.7705 163.8523 72.1459 0.0000 0.0000 0.0000
# 3 63.6542 72.1459 109.5637 0.0000 0.0000 0.0000
# 4 0.0000 0.0000 0.0000 36.9752 0.0000 0.0000
# 5 0.0000 0.0000 0.0000 0.0000 30.2430 0.0000
# 6 0.0000 0.0000 0.0000 0.0000 0.0000 37.1859
#
#
#
# Elastic Compliance Matrix: (Units=1/GPa)
#
#
# Indices 1 2 3 4 5 6 
#
# 1 0.015740 -0.004851 -0.005951 0.000000 0.000000 0.000000
# 2 -0.004851 0.010090 -0.003826 0.000000 0.000000 0.000000
# 3 -0.005951 -0.003826 0.015104 0.000000 0.000000 0.000000
# 4 0.000000 0.000000 0.000000 0.027045 0.000000 0.000000
# 5 0.000000 0.000000 0.000000 0.000000 0.033066 0.000000
# 6 0.000000 0.000000 0.000000 0.000000 0.000000 0.026892
#
#
# Mechanical properties :
#
#
# Convention : Reuss Voigt Hill
#
# Bulk Modulus (GPa) = 85.62165 90.23547 87.92856
# Shear Modulus (GPa) = 31.03961 32.30799 31.67380
#
# Velocity S-wave (km/s) = 4.07847 4.16097 4.11993
# Velocity P-wave (km/s) = 8.25002 8.45231 8.35178
#
# Compressibility (1/GPa) = 0.01167929
#
# Stress axis : x y z
#
# Youngs Moduli (GPa) = 63.53061 99.10761 66.20951
#
# Poissons Ratio (x) = 0.48076 0.39399
# Poissons Ratio (y) = 0.30818 0.25331
# Poissons Ratio (z) = 0.37805 0.37917
#
# Static dielectric constant tensor:
#      x y z
#    x 3.486680 0.000000 0.000000 
#    y 0.000000 3.375730 0.000000 
#    z 0.000000 0.000000 3.673060 
# 
# 
# High freq. dielectric constant tensor:
#      x y z
#    x 1.727940 0.000000 0.000000 
#    y 0.000000 1.720700 0.000000 
#    z 0.000000 0.000000 1.743740 
# 
# From -- ./inp_files/32408.got.cif
#   From: 2010.03.12/outbox.cif.g09.slc.cpg/sg66_17_cif.got.tgz:32408.got - 2010.04.10 21:57:39.
