data_PCOD8276242
_publ_section_title
;
Structure prediction by ZEFSAII (Michael W. Deem and Ramdas Pophale) SiO2 
 PCOD8276242
Probable space group: C C C M
;
_chemical_formula_sum "Si O2"
_cell_formula_units_Z 112
_cell_length_a 14.703727
_cell_length_b 15.134729
_cell_length_c 27.021511
_cell_angle_alpha 90.000000
_cell_angle_beta 90.000000
_cell_angle_gamma 90.000000
_cell_volume 6013.283925
_symmetry_space_group_name_H-M "C C C M"
_symmetry_group_IT_number 66
_symmetry_cell_setting 'orthorhombic'
loop_
_space_group_symop_operation_xyz
x,y,z
-x,-y,z
x,-y,1/2-z
-x,y,1/2-z
-x,-y,-z
x,y,-z
-x,y,1/2+z
x,-y,1/2+z
1/2+x,1/2+y,z
1/2-x,1/2-y,z
1/2+x,1/2-y,1/2-z
1/2-x,1/2+y,1/2-z
1/2-x,1/2-y,-z
1/2+x,1/2+y,-z
1/2-x,1/2+y,1/2+z
1/2+x,1/2-y,1/2+z
loop_
_atom_site_type_symbol
_atom_site_label
_atom_site_fract_x
_atom_site_fract_y
_atom_site_fract_z
Si Si1 0.207767 0.654759 0.942177
Si Si2 0.427008 0.371494 0.055746
Si Si3 0.072638 0.573573 0.868069
Si Si4 0.672587 0.678730 0.149733
Si Si5 0.200776 0.455717 0.801318
Si Si6 0.949418 0.309716 0.299543
Si Si7 0.115613 0.924839 0.944688
O O1 0.250000 0.750000 0.930248
O O2 0.116037 0.627537 0.913675
O O3 0.286830 0.591093 0.919727
O O4 0.185150 0.642139 0.000000
O O5 0.357872 0.324855 0.092590
O O6 0.403094 0.473187 0.054100
O O7 0.530709 0.368022 0.077275
O O8 0.418124 0.331273 0.000000
O O9 0.151491 0.527729 0.835729
O O10 0.000000 0.500000 0.887159
O O11 0.020145 0.647362 0.837233
O O12 0.750000 0.750000 0.151349
O O13 0.710254 0.585437 0.171037
O O14 0.588120 0.715826 0.181095
O O15 0.233374 0.500000 0.750000
O O16 0.130793 0.378330 0.787765
O O17 0.000000 0.284551 0.250000
O O18 0.125340 0.886627 0.000000
#
# Coordination Sequence:
#
# PCOD8276242 Si02
#       7
#    16  16  16  16  16  16  16
#     4  10  21  36  53  84 125 150 183 241 288 333
#     4   9  17  33  57  78 106 153 193 221 273 349
#     4  10  21  36  63  86 105 153 205 228 276 352
#     4  10  22  35  53  86 119 139 178 243 291 324
#     4  10  19  38  61  80 108 149 195 236 280 346
#     4  10  20  38  58  81 113 148 187 236 289 344
#     4   8  16  32  54  74 102 150 193 222 264 328
#
# _framework density 18.625430000000001
#
# number of rings (size 3 to 8) (size 9 to 14) (size 15 to 20)
#    0.000    2.429    1.429    1.714    2.000    0.571 
#    2.571    2.857    0.000    5.143    0.000    0.000 
#    0.000    0.000    0.000    0.000    0.000    0.000 
#
# Total GULP energy -693816.909724 kJ/mol
# GULP energy per Si atom -12389.587674 kJ/mol
# Density = 1.858304 g / cm^3
# Si number density = 18.625430 Si / 1000 Ang^3
#
#
#
# Elastic Constant Matrix: (Units=GPa)
#
#
# Indices 1 2 3 4 5 6 
#
# 1 103.8435 44.1122 62.1465 0.0000 0.0000 0.0000
# 2 44.1122 59.7698 41.2151 0.0000 0.0000 0.0000
# 3 62.1465 41.2151 110.0023 0.0000 0.0000 0.0000
# 4 0.0000 0.0000 0.0000 -24.1226 0.0000 0.0000
# 5 0.0000 0.0000 0.0000 0.0000 22.1559 0.0000
# 6 0.0000 0.0000 0.0000 0.0000 0.0000 22.7438
#
#
#
# Elastic Compliance Matrix: (Units=1/GPa)
#
#
# Indices 1 2 3 4 5 6 
#
# 1 0.016964 -0.007971 -0.006598 0.000000 0.000000 0.000000
# 2 -0.007971 0.026304 -0.005353 0.000000 0.000000 0.000000
# 3 -0.006598 -0.005353 0.014824 0.000000 0.000000 0.000000
# 4 0.000000 0.000000 0.000000 -0.041455 0.000000 0.000000
# 5 0.000000 0.000000 0.000000 0.000000 0.045135 0.000000
# 6 0.000000 0.000000 0.000000 0.000000 0.000000 0.043968
#
#
# Mechanical properties :
#
#
# Convention : Reuss Voigt Hill
#
# Bulk Modulus (GPa) = 54.79299 63.17369 58.98334
# Shear Modulus (GPa) = 32.96732 12.56486 22.76609
#
# Velocity S-wave (km/s) = 4.21172 2.60014 3.49995
# Velocity P-wave (km/s) = 7.28929 6.55789 6.93324
#
# Compressibility (1/GPa) = 0.01825051
#
# Stress axis : x y z
#
# Youngs Moduli (GPa) = 58.94756 38.01643 67.46025
#
# Poissons Ratio (x) = 0.30302 0.44508
# Poissons Ratio (y) = 0.46985 0.36108
# Poissons Ratio (z) = 0.38891 0.20348
#
# Static dielectric constant tensor:
#      x y z
#    x 3.993090 0.000000 0.000000 
#    y 0.000000 3.501080 0.000000 
#    z 0.000000 0.000000 3.347790 
# 
# 
# High freq. dielectric constant tensor:
#      x y z
#    x 1.731640 0.000000 0.000000 
#    y 0.000000 1.713370 0.000000 
#    z 0.000000 0.000000 1.705700 
# 
# From -- ./inp_files/58226.got.cif
#   From: 2010.03.12/outbox.cif.g09.slc.cpg/sg66_30_cif.got.tgz:58226.got - 2010.04.10 21:57:39.
