data_PCOD8276283
_publ_section_title
;
Structure prediction by ZEFSAII (Michael W. Deem and Ramdas Pophale) SiO2 
 PCOD8276283
Probable space group: C C C M
;
_chemical_formula_sum "Si O2"
_cell_formula_units_Z 80
_cell_length_a 5.116369
_cell_length_b 25.866288
_cell_length_c 36.572382
_cell_angle_alpha 90.000000
_cell_angle_beta 90.000000
_cell_angle_gamma 90.000000
_cell_volume 4840.042944
_symmetry_space_group_name_H-M "C C C M"
_symmetry_group_IT_number 66
_symmetry_cell_setting 'orthorhombic'
loop_
_space_group_symop_operation_xyz
x,y,z
-x,-y,z
x,-y,1/2-z
-x,y,1/2-z
-x,-y,-z
x,y,-z
-x,y,1/2+z
x,-y,1/2+z
1/2+x,1/2+y,z
1/2-x,1/2-y,z
1/2+x,1/2-y,1/2-z
1/2-x,1/2+y,1/2-z
1/2-x,1/2-y,-z
1/2+x,1/2+y,-z
1/2-x,1/2+y,1/2+z
1/2+x,1/2-y,1/2+z
loop_
_atom_site_type_symbol
_atom_site_label
_atom_site_fract_x
_atom_site_fract_y
_atom_site_fract_z
Si Si1 0.734371 0.532902 0.908265
Si Si2 0.747987 0.307131 0.957539
Si Si3 0.486592 0.938224 0.208339
Si Si4 0.976928 0.941729 0.169928
Si Si5 0.239292 0.129142 0.957494
O O1 0.500000 0.500000 0.927047
O O2 0.590632 0.558018 0.873041
O O3 0.814696 0.577228 0.936236
O O4 0.000000 0.500000 0.898532
O O5 0.750000 0.250000 0.939356
O O6 0.522943 0.344457 0.941133
O O7 0.029875 0.330742 0.950714
O O8 0.677679 0.301180 0.000000
O O9 0.500000 0.919101 0.250000
O O10 0.741664 0.912877 0.190185
O O11 0.246616 0.915510 0.183825
O O12 0.500000 0.000000 0.205767
O O13 0.000000 0.000000 0.184557
O O14 0.210488 0.114378 0.000000
#
# Coordination Sequence:
#
# PCOD8276283 Si02
#       5
#    16  16  16  16  16
#     4  11  21  32  44  59  87 126 162 193 219 253
#     4   9  17  31  50  69  87 105 133 185 247 296
#     4   9  15  23  37  55  73  95 132 182 219 246
#     4   9  16  26  37  52  75 106 142 176 210 249
#     4  10  20  32  47  67  87 113 154 195 232 274
#
# _framework density 16.528779
#
# number of rings (size 3 to 8) (size 9 to 14) (size 15 to 20)
#    0.000    2.400    0.000    5.400    0.000    5.600 
#    0.000    0.000    0.000    0.000    0.000    0.000 
#    0.000    0.000    0.000    0.000    0.000   56.000 
#
# Total GULP energy -495531.121016 kJ/mol
# GULP energy per Si atom -12388.278025 kJ/mol
# Density = 1.649116 g / cm^3
# Si number density = 16.528779 Si / 1000 Ang^3
#
#
#
# Elastic Constant Matrix: (Units=GPa)
#
#
# Indices 1 2 3 4 5 6 
#
# 1 117.7842 16.8891 41.1615 0.0000 0.0000 0.0000
# 2 16.8891 46.5592 33.9073 0.0000 0.0000 0.0000
# 3 41.1615 33.9073 68.1529 0.0000 0.0000 0.0000
# 4 0.0000 0.0000 0.0000 0.0273 0.0000 0.0000
# 5 0.0000 0.0000 0.0000 0.0000 21.5912 0.0000
# 6 0.0000 0.0000 0.0000 0.0000 0.0000 15.6934
#
#
#
# Elastic Compliance Matrix: (Units=1/GPa)
#
#
# Indices 1 2 3 4 5 6 
#
# 1 0.010812 0.001307 -0.007180 0.000000 0.000000 0.000000
# 2 0.001307 0.033840 -0.017625 0.000000 0.000000 0.000000
# 3 -0.007180 -0.017625 0.027778 0.000000 0.000000 0.000000
# 4 0.000000 0.000000 0.000000 36.659018 0.000000 0.000000
# 5 0.000000 0.000000 0.000000 0.000000 0.046315 0.000000
# 6 0.000000 0.000000 0.000000 0.000000 0.000000 0.063721
#
#
# Mechanical properties :
#
#
# Convention : Reuss Voigt Hill
#
# Bulk Modulus (GPa) = 39.31880 46.26802 42.79341
# Shear Modulus (GPa) = 0.13551 16.83160 8.48356
#
# Velocity S-wave (km/s) = 0.28664 3.19458 2.26798
# Velocity P-wave (km/s) = 4.89380 6.45448 5.72754
#
# Compressibility (1/GPa) = 0.02543312
#
# Stress axis : x y z
#
# Youngs Moduli (GPa) = 92.49047 29.55104 35.99921
#
# Poissons Ratio (x) = -0.03863 0.25848
# Poissons Ratio (y) = -0.12090 0.63450
# Poissons Ratio (z) = 0.66411 0.52085
#
# Static dielectric constant tensor:
#      x y z
#    x 3.570830 0.000000 0.000000 
#    y 0.000000 2.687420 0.000000 
#    z 0.000000 0.000000 2.890250 
# 
# 
# High freq. dielectric constant tensor:
#      x y z
#    x 1.669510 0.000000 0.000000 
#    y 0.000000 1.567600 0.000000 
#    z 0.000000 0.000000 1.611730 
# 
# From -- ./inp_files/67185.got.cif
#   From: 2010.03.12/outbox.cif.g09.slc.cpg/sg66_34_cif.got.tgz:67185.got - 2010.04.10 21:57:39.
