data_PCOD8276981
_publ_section_title
;
Structure prediction by ZEFSAII (Michael W. Deem and Ramdas Pophale) SiO2 
 PCOD8276981
Probable space group: C C C M
;
_chemical_formula_sum "Si O2"
_cell_formula_units_Z 48
_cell_length_a 18.941996
_cell_length_b 8.779367
_cell_length_c 15.199326
_cell_angle_alpha 90.000000
_cell_angle_beta 90.000000
_cell_angle_gamma 90.000000
_cell_volume 2527.628681
_symmetry_space_group_name_H-M "C C C M"
_symmetry_group_IT_number 66
_symmetry_cell_setting 'orthorhombic'
loop_
_space_group_symop_operation_xyz
x,y,z
-x,-y,z
x,-y,1/2-z
-x,y,1/2-z
-x,-y,-z
x,y,-z
-x,y,1/2+z
x,-y,1/2+z
1/2+x,1/2+y,z
1/2-x,1/2-y,z
1/2+x,1/2-y,1/2-z
1/2-x,1/2+y,1/2-z
1/2-x,1/2-y,-z
1/2+x,1/2+y,-z
1/2-x,1/2+y,1/2+z
1/2+x,1/2-y,1/2+z
loop_
_atom_site_type_symbol
_atom_site_label
_atom_site_fract_x
_atom_site_fract_y
_atom_site_fract_z
Si Si1 0.922275 0.066388 0.500000
Si Si2 0.819772 0.606171 0.402300
Si Si3 0.668249 0.434184 0.156342
Si Si4 0.424297 0.924983 0.500000
O O1 0.881262 0.014464 0.413989
O O2 0.929891 0.246386 0.500000
O O3 0.000000 0.000000 0.500000
O O4 0.801301 0.669577 0.500000
O O5 0.750523 0.526473 0.361643
O O6 0.843473 0.751263 0.344312
O O7 0.882345 0.481405 0.411732
O O8 0.645528 0.500000 0.250000
O O9 0.500000 0.000000 0.500000
#
# Coordination Sequence:
#
# PCOD8276981 Si02
#       4
#     8  16  16   8
#     4  12  23  40  61  87 121 159 209 256 299 366
#     4   9  19  40  61  83 129 158 195 249 311 355
#     4  11  21  37  65  91 119 159 201 251 302 363
#     4  10  21  36  63  85 115 169 201 242 311 366
#
# _framework density 18.990130000000001
#
# number of rings (size 3 to 8) (size 9 to 14) (size 15 to 20)
#    1.000    0.667    3.333    3.000    0.000    8.667 
#    0.000    0.000    0.000    7.000    0.000    0.000 
#    0.000    0.000    0.000    0.000    0.000    0.000 
#
# Total GULP energy -297448.136957 kJ/mol
# GULP energy per Si atom -12393.672373 kJ/mol
# Density = 1.894691 g / cm^3
# Si number density = 18.990130 Si / 1000 Ang^3
#
#
#
# Elastic Constant Matrix: (Units=GPa)
#
#
# Indices 1 2 3 4 5 6 
#
# 1 152.7416 92.5577 50.6496 0.0000 0.0000 0.0000
# 2 92.5577 151.0454 53.2630 0.0000 0.0000 0.0000
# 3 50.6496 53.2630 136.4544 0.0000 0.0000 0.0000
# 4 0.0000 0.0000 0.0000 6.0183 0.0000 0.0000
# 5 0.0000 0.0000 0.0000 0.0000 -14.2817 0.0000
# 6 0.0000 0.0000 0.0000 0.0000 0.0000 37.9551
#
#
#
# Elastic Compliance Matrix: (Units=1/GPa)
#
#
# Indices 1 2 3 4 5 6 
#
# 1 0.010722 -0.005991 -0.001641 0.000000 0.000000 0.000000
# 2 -0.005991 0.011025 -0.002080 0.000000 0.000000 0.000000
# 3 -0.001641 -0.002080 0.008749 0.000000 0.000000 0.000000
# 4 0.000000 0.000000 0.000000 0.166160 0.000000 0.000000
# 5 0.000000 0.000000 0.000000 0.000000 -0.070019 0.000000
# 6 0.000000 0.000000 0.000000 0.000000 0.000000 0.026347
#
#
# Mechanical properties :
#
#
# Convention : Reuss Voigt Hill
#
# Bulk Modulus (GPa) = 90.31669 92.57577 91.44623
# Shear Modulus (GPa) = 28.39310 22.18975 25.29142
#
# Velocity S-wave (km/s) = 3.87091 3.42202 3.65337
# Velocity P-wave (km/s) = 8.22446 8.02925 8.12744
#
# Compressibility (1/GPa) = 0.01107215
#
# Stress axis : x y z
#
# Youngs Moduli (GPa) = 93.26732 90.70036 114.29401
#
# Poissons Ratio (x) = 0.54343 0.18757
# Poissons Ratio (y) = 0.55881 0.23769
# Poissons Ratio (z) = 0.15306 0.18862
#
# Static dielectric constant tensor:
#      x y z
#    x 3.517250 0.000000 0.000000 
#    y 0.000000 3.762090 0.000000 
#    z 0.000000 0.000000 3.273820 
# 
# 
# High freq. dielectric constant tensor:
#      x y z
#    x 1.741030 0.000000 0.000000 
#    y 0.000000 1.740800 0.000000 
#    z 0.000000 0.000000 1.717540 
# 
# From -- ./inp_files/39519.got.cif
#   From: 2010.03.12/outbox.cif.g09.slc.cpg/sg66_20_cif.got.tgz:39519.got - 2010.04.10 21:57:39.
