data_PCOD8276797
_publ_section_title
;
Structure prediction by ZEFSAII (Michael W. Deem and Ramdas Pophale) SiO2 
 PCOD8276797
Probable space group: C C C M
;
_chemical_formula_sum "Si O2"
_cell_formula_units_Z 40
_cell_length_a 22.288838
_cell_length_b 4.827381
_cell_length_c 17.528900
_cell_angle_alpha 90.000000
_cell_angle_beta 90.000000
_cell_angle_gamma 90.000000
_cell_volume 1886.052024
_symmetry_space_group_name_H-M "C C C M"
_symmetry_group_IT_number 66
_symmetry_cell_setting 'orthorhombic'
loop_
_space_group_symop_operation_xyz
x,y,z
-x,-y,z
x,-y,1/2-z
-x,y,1/2-z
-x,-y,-z
x,y,-z
-x,y,1/2+z
x,-y,1/2+z
1/2+x,1/2+y,z
1/2-x,1/2-y,z
1/2+x,1/2-y,1/2-z
1/2-x,1/2+y,1/2-z
1/2-x,1/2-y,-z
1/2+x,1/2+y,-z
1/2-x,1/2+y,1/2+z
1/2+x,1/2-y,1/2+z
loop_
_atom_site_type_symbol
_atom_site_label
_atom_site_fract_x
_atom_site_fract_y
_atom_site_fract_z
Si Si1 0.430820 0.072693 0.913216
Si Si2 0.375069 0.417552 0.336027
Si Si3 0.250000 0.750000 0.799920
O O1 0.411506 0.387361 0.894441
O O2 0.500000 0.000000 0.901922
O O3 0.395525 0.892128 0.852401
O O4 0.411505 0.011365 0.000000
O O5 0.391071 0.500000 0.250000
O O6 0.302649 0.401923 0.348507
O O7 0.220388 0.500000 0.750000
#
# Coordination Sequence:
#
# PCOD8276797 Si02
#       3
#    16  16   8
#     4  11  24  41  59  85 125 163 196 247 312 363
#     4  11  22  39  64  90 116 156 206 250 297 362
#     4  10  20  38  61  90 125 156 194 256 320 358
#
# _framework density 21.208324000000001
#
# number of rings (size 3 to 8) (size 9 to 14) (size 15 to 20)
#    0.000    1.200    0.000    8.400    0.000    8.000 
#    0.000    6.000    0.000    0.000    0.000    0.000 
#    0.000    0.000    0.000    0.000    0.000    0.000 
#
# Total GULP energy -247868.910505 kJ/mol
# GULP energy per Si atom -12393.445525 kJ/mol
# Density = 2.116005 g / cm^3
# Si number density = 21.208324 Si / 1000 Ang^3
#
#
#
# Elastic Constant Matrix: (Units=GPa)
#
#
# Indices 1 2 3 4 5 6 
#
# 1 122.7733 31.3643 49.2474 0.0000 0.0000 0.0000
# 2 31.3643 87.1619 11.9124 0.0000 0.0000 0.0000
# 3 49.2474 11.9124 88.5998 0.0000 0.0000 0.0000
# 4 0.0000 0.0000 0.0000 30.1351 0.0000 0.0000
# 5 0.0000 0.0000 0.0000 0.0000 20.7620 0.0000
# 6 0.0000 0.0000 0.0000 0.0000 0.0000 51.2969
#
#
#
# Elastic Compliance Matrix: (Units=1/GPa)
#
#
# Indices 1 2 3 4 5 6 
#
# 1 0.011332 -0.003277 -0.005858 0.000000 0.000000 0.000000
# 2 -0.003277 0.012635 0.000123 0.000000 0.000000 0.000000
# 3 -0.005858 0.000123 0.014526 0.000000 0.000000 0.000000
# 4 0.000000 0.000000 0.000000 0.033184 0.000000 0.000000
# 5 0.000000 0.000000 0.000000 0.000000 0.048165 0.000000
# 6 0.000000 0.000000 0.000000 0.000000 0.000000 0.019494
#
#
# Mechanical properties :
#
#
# Convention : Reuss Voigt Hill
#
# Bulk Modulus (GPa) = 48.85516 53.73145 51.29330
# Shear Modulus (GPa) = 30.45337 34.17285 32.31311
#
# Velocity S-wave (km/s) = 3.79346 4.01845 3.90757
# Velocity P-wave (km/s) = 6.50177 6.84986 6.67808
#
# Compressibility (1/GPa) = 0.02046867
#
# Stress axis : x y z
#
# Youngs Moduli (GPa) = 88.24426 79.14288 68.83981
#
# Poissons Ratio (x) = 0.25936 0.40328
# Poissons Ratio (y) = 0.28919 -0.00845
# Poissons Ratio (z) = 0.51696 -0.00971
#
# Static dielectric constant tensor:
#      x y z
#    x 3.881150 0.000000 0.000000 
#    y 0.000000 4.039410 0.000000 
#    z 0.000000 0.000000 3.605710 
# 
# 
# High freq. dielectric constant tensor:
#      x y z
#    x 1.836670 0.000000 0.000000 
#    y 0.000000 1.856790 0.000000 
#    z 0.000000 0.000000 1.806820 
# 
# From -- ./inp_files/32771.got.cif
#   From: 2010.03.12/outbox.cif.g09.slc.cpg/sg66_17_cif.got.tgz:32771.got - 2010.04.10 21:57:39.
