data_PCOD8276631
_publ_section_title
;
Structure prediction by ZEFSAII (Michael W. Deem and Ramdas Pophale) SiO2 
 PCOD8276631
Probable space group: C C C M
;
_chemical_formula_sum "Si O2"
_cell_formula_units_Z 112
_cell_length_a 25.609150
_cell_length_b 13.111407
_cell_length_c 17.531175
_cell_angle_alpha 90.000000
_cell_angle_beta 90.000000
_cell_angle_gamma 90.000000
_cell_volume 5886.477492
_symmetry_space_group_name_H-M "C C C M"
_symmetry_group_IT_number 66
_symmetry_cell_setting 'orthorhombic'
loop_
_space_group_symop_operation_xyz
x,y,z
-x,-y,z
x,-y,1/2-z
-x,y,1/2-z
-x,-y,-z
x,y,-z
-x,y,1/2+z
x,-y,1/2+z
1/2+x,1/2+y,z
1/2-x,1/2-y,z
1/2+x,1/2-y,1/2-z
1/2-x,1/2+y,1/2-z
1/2-x,1/2-y,-z
1/2+x,1/2+y,-z
1/2-x,1/2+y,1/2+z
1/2+x,1/2-y,1/2+z
loop_
_atom_site_type_symbol
_atom_site_label
_atom_site_fract_x
_atom_site_fract_y
_atom_site_fract_z
Si Si1 0.352100 0.604770 0.213947
Si Si2 0.997646 0.381171 0.912356
Si Si3 0.402551 0.806831 0.184780
Si Si4 0.891734 0.354982 0.356726
Si Si5 0.695946 0.693197 0.858185
Si Si6 0.283891 0.480513 0.414820
Si Si7 0.334080 0.054223 0.410190
O O1 0.375409 0.500000 0.250000
O O2 0.398391 0.684693 0.197624
O O3 0.310448 0.652920 0.272253
O O4 0.321688 0.587123 0.135938
O O5 0.053653 0.329599 0.897591
O O6 0.000000 0.500000 0.891390
O O7 0.956812 0.326826 0.856977
O O8 0.980584 0.364760 0.000000
O O9 0.400127 0.863339 0.266071
O O10 0.353838 0.845377 0.133906
O O11 0.851531 0.266814 0.381440
O O12 0.872051 0.462732 0.387355
O O13 0.750000 0.750000 0.865220
O O14 0.697611 0.597793 0.915239
O O15 0.287838 0.437021 0.500000
O O16 0.224640 0.471578 0.384140
O O17 0.337934 0.073869 0.500000
#
# Coordination Sequence:
#
# PCOD8276631 Si02
#       7
#    16  16  16  16  16  16  16
#     4   9  22  40  60  84 119 152 205 255 299 342
#     4  11  23  39  58  87 127 159 190 243 303 361
#     4  11  23  37  62  86 112 158 208 241 296 359
#     4  11  22  36  59  86 119 157 201 244 290 355
#     4  10  20  36  59  85 113 155 201 244 294 350
#     4  10  22  36  55  83 121 159 199 247 298 357
#     4  11  22  34  51  87 127 160 194 239 298 359
#
# _framework density 19.02666
#
# number of rings (size 3 to 8) (size 9 to 14) (size 15 to 20)
#    0.000    1.571    2.857    1.714    4.000    4.286 
#    0.000    1.429    0.000   14.571    0.000   10.000 
#    0.000    0.000    0.000    0.000    0.000    0.000 
#
# Total GULP energy -694560.532323 kJ/mol
# GULP energy per Si atom -12402.866649 kJ/mol
# Density = 1.898335 g / cm^3
# Si number density = 19.026660 Si / 1000 Ang^3
#
#
#
# Elastic Constant Matrix: (Units=GPa)
#
#
# Indices 1 2 3 4 5 6 
#
# 1 106.4782 35.3725 27.4434 0.0000 0.0000 0.0000
# 2 35.3725 65.8056 20.4462 0.0000 0.0000 0.0000
# 3 27.4434 20.4462 76.7158 0.0000 0.0000 0.0000
# 4 0.0000 0.0000 0.0000 21.6331 0.0000 0.0000
# 5 0.0000 0.0000 0.0000 0.0000 28.5768 0.0000
# 6 0.0000 0.0000 0.0000 0.0000 0.0000 29.7811
#
#
#
# Elastic Compliance Matrix: (Units=1/GPa)
#
#
# Indices 1 2 3 4 5 6 
#
# 1 0.011959 -0.005560 -0.002796 0.000000 0.000000 0.000000
# 2 -0.005560 0.019153 -0.003116 0.000000 0.000000 0.000000
# 3 -0.002796 -0.003116 0.014866 0.000000 0.000000 0.000000
# 4 0.000000 0.000000 0.000000 0.046225 0.000000 0.000000
# 5 0.000000 0.000000 0.000000 0.000000 0.034993 0.000000
# 6 0.000000 0.000000 0.000000 0.000000 0.000000 0.033578
#
#
# Mechanical properties :
#
#
# Convention : Reuss Voigt Hill
#
# Bulk Modulus (GPa) = 43.41336 46.16934 44.79135
# Shear Modulus (GPa) = 26.12372 27.04736 26.58554
#
# Velocity S-wave (km/s) = 3.70943 3.77444 3.74207
# Velocity P-wave (km/s) = 6.41975 6.58129 6.50102
#
# Compressibility (1/GPa) = 0.02303438
#
# Stress axis : x y z
#
# Youngs Moduli (GPa) = 83.61719 52.21161 67.26807
#
# Poissons Ratio (x) = 0.29028 0.18811
# Poissons Ratio (y) = 0.46488 0.20959
# Poissons Ratio (z) = 0.23383 0.16268
#
# Static dielectric constant tensor:
#      x y z
#    x 3.443700 0.000000 0.000000 
#    y 0.000000 3.538280 0.000000 
#    z 0.000000 0.000000 3.566290 
# 
# 
# High freq. dielectric constant tensor:
#      x y z
#    x 1.732150 0.000000 0.000000 
#    y 0.000000 1.732240 0.000000 
#    z 0.000000 0.000000 1.750970 
# 
# From -- ./inp_files/32496.got.cif
#   From: 2010.03.12/outbox.cif.g09.slc.cpg/sg66_17_cif.got.tgz:32496.got - 2010.04.10 21:57:39.
