data_PCOD8276517
_publ_section_title
;
Structure prediction by ZEFSAII (Michael W. Deem and Ramdas Pophale) SiO2 
 PCOD8276517
Probable space group: C C C M
;
_chemical_formula_sum "Si O2"
_cell_formula_units_Z 96
_cell_length_a 31.473679
_cell_length_b 8.783519
_cell_length_c 17.590316
_cell_angle_alpha 90.000000
_cell_angle_beta 90.000000
_cell_angle_gamma 90.000000
_cell_volume 4862.836833
_symmetry_space_group_name_H-M "C C C M"
_symmetry_group_IT_number 66
_symmetry_cell_setting 'orthorhombic'
loop_
_space_group_symop_operation_xyz
x,y,z
-x,-y,z
x,-y,1/2-z
-x,y,1/2-z
-x,-y,-z
x,y,-z
-x,y,1/2+z
x,-y,1/2+z
1/2+x,1/2+y,z
1/2-x,1/2-y,z
1/2+x,1/2-y,1/2-z
1/2-x,1/2+y,1/2-z
1/2-x,1/2-y,-z
1/2+x,1/2+y,-z
1/2-x,1/2+y,1/2+z
1/2+x,1/2-y,1/2+z
loop_
_atom_site_type_symbol
_atom_site_label
_atom_site_fract_x
_atom_site_fract_y
_atom_site_fract_z
Si Si1 0.296790 0.930121 0.669725
Si Si2 0.960833 0.613685 0.589338
Si Si3 0.296775 0.570668 0.669420
Si Si4 0.379951 0.580618 0.410971
Si Si5 0.958162 0.069912 0.164676
Si Si6 0.120240 0.420344 0.911176
O O1 0.296512 0.750398 0.677733
O O2 0.250001 0.985820 0.641466
O O3 0.334046 0.986996 0.613971
O O4 0.308039 0.000000 0.750000
O O5 0.959236 0.667051 0.500000
O O6 0.964355 0.749284 0.651137
O O7 0.917817 0.528439 0.614190
O O8 0.000000 0.500000 0.601243
O O9 0.308660 0.500000 0.750000
O O10 0.332900 0.519333 0.610018
O O11 0.385266 0.574826 0.500000
O O12 0.414848 0.470603 0.376516
O O13 0.387045 0.750631 0.377434
O O14 0.956220 0.000000 0.250000
O O15 0.000000 0.000000 0.124481
O O16 0.121674 0.403440 0.000000
#
# Coordination Sequence:
#
# PCOD8276517 Si02
#       6
#    16  16  16  16  16  16
#     4   9  18  32  52  76 104 144 182 221 275 329
#     4  10  21  39  63  87 113 148 189 234 284 337
#     4   9  18  33  52  76 107 141 182 226 271 328
#     4  10  20  35  56  81 110 146 186 229 279 332
#     4  11  24  40  57  83 115 147 185 228 279 336
#     4   9  19  34  53  80 110 141 183 231 276 325
#
# _framework density 19.741561999999998
#
# number of rings (size 3 to 8) (size 9 to 14) (size 15 to 20)
#    0.000    2.333    0.000    2.000    0.000    7.333 
#    0.000    8.333    0.000    0.000    0.000    8.167 
#    0.000    0.000    0.000    0.000    0.000    0.000 
#
# Total GULP energy -594794.245625 kJ/mol
# GULP energy per Si atom -12391.546784 kJ/mol
# Density = 1.969663 g / cm^3
# Si number density = 19.741562 Si / 1000 Ang^3
#
#
#
# Elastic Constant Matrix: (Units=GPa)
#
#
# Indices 1 2 3 4 5 6 
#
# 1 155.1895 58.0152 36.2560 0.0000 0.0000 0.0000
# 2 58.0152 75.1606 37.8474 0.0000 0.0000 0.0000
# 3 36.2560 37.8474 47.0251 0.0000 0.0000 0.0000
# 4 0.0000 0.0000 0.0000 29.9967 0.0000 0.0000
# 5 0.0000 0.0000 0.0000 0.0000 32.2234 0.0000
# 6 0.0000 0.0000 0.0000 0.0000 0.0000 30.4971
#
#
#
# Elastic Compliance Matrix: (Units=1/GPa)
#
#
# Indices 1 2 3 4 5 6 
#
# 1 0.009205 -0.005938 -0.002318 0.000000 0.000000 0.000000
# 2 -0.005938 0.026202 -0.016510 0.000000 0.000000 0.000000
# 3 -0.002318 -0.016510 0.036340 0.000000 0.000000 0.000000
# 4 0.000000 0.000000 0.000000 0.033337 0.000000 0.000000
# 5 0.000000 0.000000 0.000000 0.000000 0.031033 0.000000
# 6 0.000000 0.000000 0.000000 0.000000 0.000000 0.032790
#
#
# Mechanical properties :
#
#
# Convention : Reuss Voigt Hill
#
# Bulk Modulus (GPa) = 45.01416 60.17915 52.59666
# Shear Modulus (GPa) = 22.13906 28.22719 25.18313
#
# Velocity S-wave (km/s) = 3.35243 3.78542 3.57549
# Velocity P-wave (km/s) = 6.15112 7.04667 6.61407
#
# Compressibility (1/GPa) = 0.02221523
#
# Stress axis : x y z
#
# Youngs Moduli (GPa) = 108.63519 38.16489 27.51773
#
# Poissons Ratio (x) = 0.22663 0.06378
# Poissons Ratio (y) = 0.64509 0.45432
# Poissons Ratio (z) = 0.25180 0.63011
#
# Static dielectric constant tensor:
#      x y z
#    x 4.198630 0.000000 0.000000 
#    y 0.000000 3.619180 0.000000 
#    z 0.000000 0.000000 3.398600 
# 
# 
# High freq. dielectric constant tensor:
#      x y z
#    x 1.797680 0.000000 0.000000 
#    y 0.000000 1.759500 0.000000 
#    z 0.000000 0.000000 1.747490 
# 
# From -- ./inp_files/52985.got.cif
#   From: 2010.03.12/outbox.cif.g09.slc.cpg/sg66_27_cif.got.tgz:52985.got - 2010.04.10 21:57:39.
