data_PCOD8276107
_publ_section_title
;
Structure prediction by ZEFSAII (Michael W. Deem and Ramdas Pophale) SiO2 
 PCOD8276107
Probable space group: C C C M
;
_chemical_formula_sum "Si O2"
_cell_formula_units_Z 104
_cell_length_a 8.844481
_cell_length_b 28.805923
_cell_length_c 21.306892
_cell_angle_alpha 90.000000
_cell_angle_beta 90.000000
_cell_angle_gamma 90.000000
_cell_volume 5428.430142
_symmetry_space_group_name_H-M "C C C M"
_symmetry_group_IT_number 66
_symmetry_cell_setting 'orthorhombic'
loop_
_space_group_symop_operation_xyz
x,y,z
-x,-y,z
x,-y,1/2-z
-x,y,1/2-z
-x,-y,-z
x,y,-z
-x,y,1/2+z
x,-y,1/2+z
1/2+x,1/2+y,z
1/2-x,1/2-y,z
1/2+x,1/2-y,1/2-z
1/2-x,1/2+y,1/2-z
1/2-x,1/2-y,-z
1/2+x,1/2+y,-z
1/2-x,1/2+y,1/2+z
1/2+x,1/2-y,1/2+z
loop_
_atom_site_type_symbol
_atom_site_label
_atom_site_fract_x
_atom_site_fract_y
_atom_site_fract_z
Si Si1 0.661331 0.482906 0.427914
Si Si2 0.000375 0.626395 0.678759
Si Si3 0.080932 0.154461 0.430522
Si Si4 0.760290 0.803179 0.319677
Si Si5 0.500000 0.361695 0.750000
Si Si6 0.323193 0.611460 0.636948
Si Si7 0.676186 0.076772 0.070683
O O1 0.500000 0.500000 0.401977
O O2 0.643842 0.467336 0.500000
O O3 0.719073 0.439176 0.388400
O O4 0.786104 0.522816 0.420189
O O5 0.906700 0.674386 0.677617
O O6 0.934940 0.590703 0.627088
O O7 0.000000 0.605353 0.750000
O O8 0.171529 0.637510 0.658782
O O9 0.088768 0.175150 0.500000
O O10 0.156360 0.193322 0.386757
O O11 0.169159 0.105743 0.424022
O O12 0.905932 0.144032 0.414190
O O13 0.750000 0.750000 0.299508
O O14 0.858738 0.829841 0.268446
O O15 0.556994 0.394388 0.693940
O O16 0.606156 0.084541 0.000000
#
# Coordination Sequence:
#
# PCOD8276107 Si02
#       7
#    16  16  16  16   8  16  16
#     4  10  19  34  60  88 114 153 209 248 276 338
#     4  11  23  40  58  85 126 154 192 250 310 360
#     4   9  18  36  61  87 118 153 196 241 292 357
#     4  10  22  39  64  88 112 153 196 244 302 365
#     4  10  22  38  57  82 114 150 202 235 292 366
#     4  11  21  35  58  83 117 157 196 248 293 349
#     4   9  19  37  59  85 119 160 202 241 288 346
#
# _framework density 19.158393
#
# number of rings (size 3 to 8) (size 9 to 14) (size 15 to 20)
#    0.000    2.000    3.077    0.462    1.077    2.154 
#    0.000    7.308    0.000    0.923    0.000    0.000 
#    0.000    0.000    0.000    0.000    0.000    0.000 
#
# Total GULP energy -644725.455404 kJ/mol
# GULP energy per Si atom -12398.566450 kJ/mol
# Density = 1.911479 g / cm^3
# Si number density = 19.158393 Si / 1000 Ang^3
#
#
#
# Elastic Constant Matrix: (Units=GPa)
#
#
# Indices 1 2 3 4 5 6 
#
# 1 101.0242 24.6877 32.5844 0.0000 0.0000 0.0000
# 2 24.6877 78.2177 29.0471 0.0000 0.0000 0.0000
# 3 32.5844 29.0471 118.0489 0.0000 0.0000 0.0000
# 4 0.0000 0.0000 0.0000 15.9524 0.0000 0.0000
# 5 0.0000 0.0000 0.0000 0.0000 32.5328 0.0000
# 6 0.0000 0.0000 0.0000 0.0000 0.0000 18.3139
#
#
#
# Elastic Compliance Matrix: (Units=1/GPa)
#
#
# Indices 1 2 3 4 5 6 
#
# 1 0.011348 -0.002662 -0.002477 0.000000 0.000000 0.000000
# 2 -0.002662 0.014695 -0.002881 0.000000 0.000000 0.000000
# 3 -0.002477 -0.002881 0.009864 0.000000 0.000000 0.000000
# 4 0.000000 0.000000 0.000000 0.062687 0.000000 0.000000
# 5 0.000000 0.000000 0.000000 0.000000 0.030738 0.000000
# 6 0.000000 0.000000 0.000000 0.000000 0.000000 0.054603
#
#
# Mechanical properties :
#
#
# Convention : Reuss Voigt Hill
#
# Bulk Modulus (GPa) = 50.33657 52.21435 51.27546
# Shear Modulus (GPa) = 24.20163 27.42460 25.81311
#
# Velocity S-wave (km/s) = 3.55806 3.78758 3.67461
# Velocity P-wave (km/s) = 6.57348 6.81475 6.69520
#
# Compressibility (1/GPa) = 0.01986627
#
# Stress axis : x y z
#
# Youngs Moduli (GPa) = 88.12008 68.05083 101.38063
#
# Poissons Ratio (x) = 0.18114 0.25116
# Poissons Ratio (y) = 0.23456 0.29209
# Poissons Ratio (z) = 0.21831 0.19606
#
# Static dielectric constant tensor:
#      x y z
#    x 3.530930 0.000000 0.000000 
#    y 0.000000 3.099320 0.000000 
#    z 0.000000 0.000000 3.738190 
# 
# 
# High freq. dielectric constant tensor:
#      x y z
#    x 1.748730 0.000000 0.000000 
#    y 0.000000 1.710010 0.000000 
#    z 0.000000 0.000000 1.756790 
# 
# From -- ./inp_files/47535.got.cif
#   From: 2010.03.12/outbox.cif.g09.slc.cpg/sg66_24_cif.got.tgz:47535.got - 2010.04.10 21:57:39.
