data_PCOD8276677
_publ_section_title
;
Structure prediction by ZEFSAII (Michael W. Deem and Ramdas Pophale) SiO2 
 PCOD8276677
Probable space group: C C C M
;
_chemical_formula_sum "Si O2"
_cell_formula_units_Z 40
_cell_length_a 9.596624
_cell_length_b 11.681491
_cell_length_c 13.475652
_cell_angle_alpha 90.000000
_cell_angle_beta 90.000000
_cell_angle_gamma 90.000000
_cell_volume 1510.659357
_symmetry_space_group_name_H-M "C C C M"
_symmetry_group_IT_number 66
_symmetry_cell_setting 'orthorhombic'
loop_
_space_group_symop_operation_xyz
x,y,z
-x,-y,z
x,-y,1/2-z
-x,y,1/2-z
-x,-y,-z
x,y,-z
-x,y,1/2+z
x,-y,1/2+z
1/2+x,1/2+y,z
1/2-x,1/2-y,z
1/2+x,1/2-y,1/2-z
1/2-x,1/2+y,1/2-z
1/2-x,1/2-y,-z
1/2+x,1/2+y,-z
1/2-x,1/2+y,1/2+z
1/2+x,1/2-y,1/2+z
loop_
_atom_site_type_symbol
_atom_site_label
_atom_site_fract_x
_atom_site_fract_y
_atom_site_fract_z
Si Si1 0.174862 0.000000 0.750000
Si Si2 0.396309 0.894838 0.887197
Si Si3 0.100805 0.805416 0.615158
O O1 0.265892 0.086679 0.683654
O O2 0.079923 0.078937 0.821548
O O3 0.477064 0.780512 0.854577
O O4 0.500000 0.000000 0.875777
O O5 0.342136 0.885386 0.000000
O O6 0.092009 0.838217 0.500000
O O7 0.250000 0.750000 0.638305
#
# Coordination Sequence:
#
# PCOD8276677 Si02
#       3
#     8  16  16
#     4  12  21  36  70 101 130 181 226 264 329 404
#     4  10  20  36  62 100 137 172 218 273 334 395
#     4  10  21  36  60 100 140 173 220 280 333 390
#
# _framework density 26.478504999999998
#
# number of rings (size 3 to 8) (size 9 to 14) (size 15 to 20)
#    0.000    1.600    4.000    1.800    0.000    0.000 
#    0.000    0.000    0.000   21.600    0.000   33.600 
#    0.000    0.000    0.000    0.000    0.000    0.000 
#
# Total GULP energy -248139.839007 kJ/mol
# GULP energy per Si atom -12406.991950 kJ/mol
# Density = 2.641824 g / cm^3
# Si number density = 26.478505 Si / 1000 Ang^3
#
#
#
# Elastic Constant Matrix: (Units=GPa)
#
#
# Indices 1 2 3 4 5 6 
#
# 1 100.4425 75.6566 60.0200 0.0000 0.0000 0.0000
# 2 75.6566 212.7573 108.9553 0.0000 0.0000 0.0000
# 3 60.0200 108.9553 143.0767 0.0000 0.0000 0.0000
# 4 0.0000 0.0000 0.0000 61.0835 0.0000 0.0000
# 5 0.0000 0.0000 0.0000 0.0000 7.6008 0.0000
# 6 0.0000 0.0000 0.0000 0.0000 0.0000 37.3336
#
#
#
# Elastic Compliance Matrix: (Units=1/GPa)
#
#
# Indices 1 2 3 4 5 6 
#
# 1 0.014630 -0.003376 -0.003566 0.000000 0.000000 0.000000
# 2 -0.003376 0.008484 -0.005045 0.000000 0.000000 0.000000
# 3 -0.003566 -0.005045 0.012327 0.000000 0.000000 0.000000
# 4 0.000000 0.000000 0.000000 0.016371 0.000000 0.000000
# 5 0.000000 0.000000 0.000000 0.000000 0.131565 0.000000
# 6 0.000000 0.000000 0.000000 0.000000 0.000000 0.026786
#
#
# Mechanical properties :
#
#
# Convention : Reuss Voigt Hill
#
# Bulk Modulus (GPa) = 87.20610 105.06004 96.13307
# Shear Modulus (GPa) = 21.01208 35.31322 28.16265
#
# Velocity S-wave (km/s) = 2.82006 3.65589 3.26483
# Velocity P-wave (km/s) = 6.60377 7.58843 7.11316
#
# Compressibility (1/GPa) = 0.01146709
#
# Stress axis : x y z
#
# Youngs Moduli (GPa) = 68.35284 117.86771 81.12438
#
# Poissons Ratio (x) = 0.39794 0.28931
# Poissons Ratio (y) = 0.23077 0.40923
# Poissons Ratio (z) = 0.24376 0.59458
#
# Static dielectric constant tensor:
#      x y z
#    x 4.630780 0.000000 0.000000 
#    y 0.000000 5.342730 0.000000 
#    z 0.000000 0.000000 5.178630 
# 
# 
# High freq. dielectric constant tensor:
#      x y z
#    x 2.058610 0.000000 0.000000 
#    y 0.000000 2.069560 0.000000 
#    z 0.000000 0.000000 2.089540 
# 
# From -- ./inp_files/25007.got.cif
#   From: 2010.03.12/outbox.cif.g09.slc.cpg/sg66_13_cif.got.tgz:25007.got - 2010.04.10 21:57:39.
