data_PCOD8276750
_publ_section_title
;
Structure prediction by ZEFSAII (Michael W. Deem and Ramdas Pophale) SiO2 
 PCOD8276750
Probable space group: C C C M
;
_chemical_formula_sum "Si O2"
_cell_formula_units_Z 120
_cell_length_a 14.686788
_cell_length_b 28.435468
_cell_length_c 14.911487
_cell_angle_alpha 90.000000
_cell_angle_beta 90.000000
_cell_angle_gamma 90.000000
_cell_volume 6227.420050
_symmetry_space_group_name_H-M "C C C M"
_symmetry_group_IT_number 66
_symmetry_cell_setting 'orthorhombic'
loop_
_space_group_symop_operation_xyz
x,y,z
-x,-y,z
x,-y,1/2-z
-x,y,1/2-z
-x,-y,-z
x,y,-z
-x,y,1/2+z
x,-y,1/2+z
1/2+x,1/2+y,z
1/2-x,1/2-y,z
1/2+x,1/2-y,1/2-z
1/2-x,1/2+y,1/2-z
1/2-x,1/2-y,-z
1/2+x,1/2+y,-z
1/2-x,1/2+y,1/2+z
1/2+x,1/2-y,1/2+z
loop_
_atom_site_type_symbol
_atom_site_label
_atom_site_fract_x
_atom_site_fract_y
_atom_site_fract_z
Si Si1 0.994330 0.599459 0.104673
Si Si2 0.803561 0.101887 0.743143
Si Si3 0.433264 0.804130 0.103604
Si Si4 0.686515 0.051668 0.603818
Si Si5 0.439728 0.300068 0.396996
Si Si6 0.000000 0.869084 0.250000
Si Si7 0.753877 0.198042 0.199022
Si Si8 0.815386 0.440999 0.895657
O O1 0.905568 0.574410 0.146050
O O2 0.992929 0.655332 0.127721
O O3 0.087564 0.577045 0.141551
O O4 0.991234 0.589018 0.000000
O O5 0.770899 0.072654 0.657944
O O6 0.912638 0.097103 0.746177
O O7 0.778334 0.157251 0.729752
O O8 0.764044 0.082529 0.837055
O O9 0.475094 0.752971 0.125351
O O10 0.341777 0.815520 0.156461
O O11 0.406089 0.807432 0.000000
O O12 0.699257 0.065098 0.500000
O O13 0.685040 0.996454 0.618785
O O14 0.456759 0.313256 0.500000
O O15 0.497462 0.335924 0.337565
O O16 0.331777 0.301749 0.377521
O O17 0.750000 0.250000 0.244830
O O18 0.799457 0.427566 0.000000
#
# Coordination Sequence:
#
# PCOD8276750 Si02
#       8
#    16  16  16  16  16   8  16  16
#     4   9  17  32  55  85 119 149 179 218 270 336
#     4  11  22  39  59  81 110 149 192 238 289 337
#     4   9  15  28  52  84 115 145 181 226 277 329
#     4  10  22  39  57  82 118 155 187 222 274 345
#     4   9  18  33  54  78 111 151 188 236 289 332
#     4  10  24  40  55  80 108 146 195 244 286 340
#     4   9  17  31  52  84 113 143 186 239 285 328
#     4  10  20  37  62  88 114 143 182 236 291 344
#
# _framework density 19.269615999999999
#
# number of rings (size 3 to 8) (size 9 to 14) (size 15 to 20)
#    0.000    2.400    1.333    1.200    0.000    6.400 
#    7.200    2.667    0.000    2.000    0.000    0.000 
#    0.000    0.000    0.000    0.000    0.000    0.000 
#
# Total GULP energy -743845.001559 kJ/mol
# GULP energy per Si atom -12397.416693 kJ/mol
# Density = 1.922576 g / cm^3
# Si number density = 19.269616 Si / 1000 Ang^3
#
#
#
# Elastic Constant Matrix: (Units=GPa)
#
#
# Indices 1 2 3 4 5 6 
#
# 1 116.4830 48.6459 35.0740 0.0000 0.0000 0.0000
# 2 48.6459 102.4740 35.8339 0.0000 0.0000 0.0000
# 3 35.0740 35.8339 71.7950 0.0000 0.0000 0.0000
# 4 0.0000 0.0000 0.0000 26.5200 0.0000 0.0000
# 5 0.0000 0.0000 0.0000 0.0000 19.7113 0.0000
# 6 0.0000 0.0000 0.0000 0.0000 0.0000 26.7425
#
#
#
# Elastic Compliance Matrix: (Units=1/GPa)
#
#
# Indices 1 2 3 4 5 6 
#
# 1 0.011379 -0.004189 -0.003468 0.000000 0.000000 0.000000
# 2 -0.004189 0.013364 -0.004624 0.000000 0.000000 0.000000
# 3 -0.003468 -0.004624 0.017931 0.000000 0.000000 0.000000
# 4 0.000000 0.000000 0.000000 0.037707 0.000000 0.000000
# 5 0.000000 0.000000 0.000000 0.000000 0.050732 0.000000
# 6 0.000000 0.000000 0.000000 0.000000 0.000000 0.037394
#
#
# Mechanical properties :
#
#
# Convention : Reuss Voigt Hill
#
# Bulk Modulus (GPa) = 55.21272 58.87331 57.04301
# Shear Modulus (GPa) = 25.11236 26.00796 25.56016
#
# Velocity S-wave (km/s) = 3.61392 3.67779 3.64600
# Velocity P-wave (km/s) = 6.79182 6.97522 6.88413
#
# Compressibility (1/GPa) = 0.01811177
#
# Stress axis : x y z
#
# Youngs Moduli (GPa) = 87.88462 74.82815 55.77062
#
# Poissons Ratio (x) = 0.31344 0.19342
# Poissons Ratio (y) = 0.36813 0.25787
# Poissons Ratio (z) = 0.30479 0.34599
#
# Static dielectric constant tensor:
#      x y z
#    x 3.404400 0.000000 0.000000 
#    y 0.000000 3.767800 0.000000 
#    z 0.000000 0.000000 3.275240 
# 
# 
# High freq. dielectric constant tensor:
#      x y z
#    x 1.730200 0.000000 0.000000 
#    y 0.000000 1.761880 0.000000 
#    z 0.000000 0.000000 1.729630 
# 
# From -- ./inp_files/29056.got.cif
#   From: 2010.03.12/outbox.cif.g09.slc.cpg/sg66_15_cif.got.tgz:29056.got - 2010.04.10 21:57:39.
