data_PCOD8276497
_publ_section_title
;
Structure prediction by ZEFSAII (Michael W. Deem and Ramdas Pophale) SiO2 
 PCOD8276497
Probable space group: C C C M
;
_chemical_formula_sum "Si O2"
_cell_formula_units_Z 96
_cell_length_a 23.765364
_cell_length_b 23.934280
_cell_length_c 8.940953
_cell_angle_alpha 90.000000
_cell_angle_beta 90.000000
_cell_angle_gamma 90.000000
_cell_volume 5085.675547
_symmetry_space_group_name_H-M "C C C M"
_symmetry_group_IT_number 66
_symmetry_cell_setting 'orthorhombic'
loop_
_space_group_symop_operation_xyz
x,y,z
-x,-y,z
x,-y,1/2-z
-x,y,1/2-z
-x,-y,-z
x,y,-z
-x,y,1/2+z
x,-y,1/2+z
1/2+x,1/2+y,z
1/2-x,1/2-y,z
1/2+x,1/2-y,1/2-z
1/2-x,1/2+y,1/2-z
1/2-x,1/2-y,-z
1/2+x,1/2+y,-z
1/2-x,1/2+y,1/2+z
1/2+x,1/2-y,1/2+z
loop_
_atom_site_type_symbol
_atom_site_label
_atom_site_fract_x
_atom_site_fract_y
_atom_site_fract_z
Si Si1 0.647564 0.442786 0.175481
Si Si2 0.059358 0.441394 0.321339
Si Si3 0.270818 0.657332 0.173935
Si Si4 0.357177 0.842823 0.824404
Si Si5 0.357657 0.269830 0.827389
Si Si6 0.559103 0.629232 0.174033
O O1 0.667341 0.500000 0.250000
O O2 0.696295 0.398994 0.214331
O O3 0.588924 0.423445 0.248288
O O4 0.638699 0.450623 0.000000
O O5 0.079036 0.500000 0.250000
O O6 0.053421 0.447405 0.500000
O O7 0.105542 0.395566 0.274634
O O8 0.000000 0.423018 0.250000
O O9 0.207080 0.647577 0.227432
O O10 0.298540 0.710189 0.256773
O O11 0.274240 0.671370 0.000000
O O12 0.380100 0.787080 0.746192
O O13 0.361703 0.833821 0.000000
O O14 0.405241 0.315328 0.796716
O O15 0.346808 0.259202 0.000000
O O16 0.500000 0.639788 0.250000
O O17 0.551686 0.615955 0.000000
#
# Coordination Sequence:
#
# PCOD8276497 Si02
#       6
#    16  16  16  16  16  16
#     4  10  20  35  55  78 106 140 177 218 265 313
#     4  10  21  38  58  79 106 139 175 217 265 313
#     4   9  19  36  55  76 107 144 177 213 261 314
#     4  10  21  36  56  81 107 140 179 214 256 316
#     4  10  21  35  53  80 111 140 173 218 266 309
#     4  10  21  37  55  77 106 139 178 221 265 312
#
# _framework density 18.876549000000001
#
# number of rings (size 3 to 8) (size 9 to 14) (size 15 to 20)
#    0.000    2.167    0.000    3.000    0.000    8.333 
#    0.000    5.000    0.000    0.000    0.000    0.000 
#    0.000    0.000    0.000    0.000    0.000    0.000 
#
# Total GULP energy -595376.653747 kJ/mol
# GULP energy per Si atom -12403.680286 kJ/mol
# Density = 1.883358 g / cm^3
# Si number density = 18.876549 Si / 1000 Ang^3
#
#
#
# Elastic Constant Matrix: (Units=GPa)
#
#
# Indices 1 2 3 4 5 6 
#
# 1 82.3065 41.0691 30.2382 0.0000 0.0000 0.0000
# 2 41.0691 120.9581 48.0306 0.0000 0.0000 0.0000
# 3 30.2382 48.0306 71.9804 0.0000 0.0000 0.0000
# 4 0.0000 0.0000 0.0000 37.6130 0.0000 0.0000
# 5 0.0000 0.0000 0.0000 0.0000 23.3150 0.0000
# 6 0.0000 0.0000 0.0000 0.0000 0.0000 26.5928
#
#
#
# Elastic Compliance Matrix: (Units=1/GPa)
#
#
# Indices 1 2 3 4 5 6 
#
# 1 0.015457 -0.003632 -0.004070 0.000000 0.000000 0.000000
# 2 -0.003632 0.012101 -0.006549 0.000000 0.000000 0.000000
# 3 -0.004070 -0.006549 0.019972 0.000000 0.000000 0.000000
# 4 0.000000 0.000000 0.000000 0.026587 0.000000 0.000000
# 5 0.000000 0.000000 0.000000 0.000000 0.042891 0.000000
# 6 0.000000 0.000000 0.000000 0.000000 0.000000 0.037604
#
#
# Mechanical properties :
#
#
# Convention : Reuss Voigt Hill
#
# Bulk Modulus (GPa) = 52.55170 57.10231 54.82700
# Shear Modulus (GPa) = 26.39128 27.89798 27.14463
#
# Velocity S-wave (km/s) = 3.74317 3.84854 3.79622
# Velocity P-wave (km/s) = 6.82509 7.07562 6.95149
#
# Compressibility (1/GPa) = 0.01902888
#
# Stress axis : x y z
#
# Youngs Moduli (GPa) = 64.69448 82.63778 50.06960
#
# Poissons Ratio (x) = 0.30016 0.20377
# Poissons Ratio (y) = 0.23498 0.32790
# Poissons Ratio (z) = 0.26329 0.54118
#
# Static dielectric constant tensor:
#      x y z
#    x 3.520730 0.000000 0.000000 
#    y 0.000000 3.523470 0.000000 
#    z 0.000000 0.000000 3.516780 
# 
# 
# High freq. dielectric constant tensor:
#      x y z
#    x 1.732100 0.000000 0.000000 
#    y 0.000000 1.739030 0.000000 
#    z 0.000000 0.000000 1.741040 
# 
# From -- ./inp_files/9102.got.cif
#   From: 2010.03.12/outbox.cif.g09.slc.cpg/sg66_5_cif.got.tgz:9102.got - 2010.04.10 21:57:39.
