data_PCOD8276786
_publ_section_title
;
Structure prediction by ZEFSAII (Michael W. Deem and Ramdas Pophale) SiO2 
 PCOD8276786
Probable space group: C C C M
;
_chemical_formula_sum "Si O2"
_cell_formula_units_Z 80
_cell_length_a 24.581429
_cell_length_b 9.119847
_cell_length_c 18.848244
_cell_angle_alpha 90.000000
_cell_angle_beta 90.000000
_cell_angle_gamma 90.000000
_cell_volume 4225.378070
_symmetry_space_group_name_H-M "C C C M"
_symmetry_group_IT_number 66
_symmetry_cell_setting 'orthorhombic'
loop_
_space_group_symop_operation_xyz
x,y,z
-x,-y,z
x,-y,1/2-z
-x,y,1/2-z
-x,-y,-z
x,y,-z
-x,y,1/2+z
x,-y,1/2+z
1/2+x,1/2+y,z
1/2-x,1/2-y,z
1/2+x,1/2-y,1/2-z
1/2-x,1/2+y,1/2-z
1/2-x,1/2-y,-z
1/2+x,1/2+y,-z
1/2-x,1/2+y,1/2+z
1/2+x,1/2-y,1/2+z
loop_
_atom_site_type_symbol
_atom_site_label
_atom_site_fract_x
_atom_site_fract_y
_atom_site_fract_z
Si Si1 0.086716 0.839477 0.418465
Si Si2 0.788525 0.109823 0.810787
Si Si3 0.291066 0.365442 0.080490
Si Si4 0.000706 0.662835 0.833146
Si Si5 0.912054 0.902126 0.682527
O O1 0.065724 0.834742 0.500000
O O2 0.149557 0.791401 0.413224
O O3 0.051990 0.737327 0.367027
O O4 0.084341 0.003811 0.389030
O O5 0.750000 0.250000 0.813221
O O6 0.851566 0.153883 0.796938
O O7 0.767941 0.000000 0.750000
O O8 0.785617 0.024235 0.884579
O O9 0.250000 0.250000 0.117010
O O10 0.273967 0.393358 0.000000
O O11 0.054165 0.761246 0.843376
O O12 0.000000 0.500000 0.867751
O O13 0.000000 0.645642 0.750000
O O14 0.934692 0.000000 0.750000
#
# Coordination Sequence:
#
# PCOD8276786 Si02
#       5
#    16  16  16  16  16
#     4  10  21  37  61  87 112 151 198 236 273 338
#     4  10  21  36  55  84 114 147 189 237 281 331
#     4   9  19  37  60  85 116 152 189 229 283 342
#     4  11  23  37  55  83 115 150 190 235 291 340
#     4  10  20  38  59  79 111 153 191 231 282 345
#
# _framework density 18.933216999999999
#
# number of rings (size 3 to 8) (size 9 to 14) (size 15 to 20)
#    0.000    2.000    2.000    1.200    0.000    4.000 
#    3.600    0.000    0.000    0.000    0.000    0.000 
#    0.000    0.000    0.000    0.000    0.000    0.000 
#
# Total GULP energy -495628.778674 kJ/mol
# GULP energy per Si atom -12390.719467 kJ/mol
# Density = 1.889012 g / cm^3
# Si number density = 18.933217 Si / 1000 Ang^3
#
#
#
# Elastic Constant Matrix: (Units=GPa)
#
#
# Indices 1 2 3 4 5 6 
#
# 1 106.1143 81.0346 36.2113 0.0000 0.0000 0.0000
# 2 81.0346 127.8945 34.4777 0.0000 0.0000 0.0000
# 3 36.2113 34.4777 82.8774 0.0000 0.0000 0.0000
# 4 0.0000 0.0000 0.0000 47.9409 0.0000 0.0000
# 5 0.0000 0.0000 0.0000 0.0000 26.0728 0.0000
# 6 0.0000 0.0000 0.0000 0.0000 0.0000 40.7694
#
#
#
# Elastic Compliance Matrix: (Units=1/GPa)
#
#
# Indices 1 2 3 4 5 6 
#
# 1 0.019244 -0.011180 -0.003757 0.000000 0.000000 0.000000
# 2 -0.011180 0.015302 -0.001481 0.000000 0.000000 0.000000
# 3 -0.003757 -0.001481 0.014324 0.000000 0.000000 0.000000
# 4 0.000000 0.000000 0.000000 0.020859 0.000000 0.000000
# 5 0.000000 0.000000 0.000000 0.000000 0.038354 0.000000
# 6 0.000000 0.000000 0.000000 0.000000 0.000000 0.024528
#
#
# Mechanical properties :
#
#
# Convention : Reuss Voigt Hill
#
# Bulk Modulus (GPa) = 62.37051 68.92595 65.64823
# Shear Modulus (GPa) = 29.27562 33.96745 31.62153
#
# Velocity S-wave (km/s) = 3.93651 4.24024 4.09119
# Velocity P-wave (km/s) = 7.32635 7.77539 7.55420
#
# Compressibility (1/GPa) = 0.01603322
#
# Stress axis : x y z
#
# Youngs Moduli (GPa) = 51.96553 65.35156 69.81472
#
# Poissons Ratio (x) = 0.73063 0.26230
# Poissons Ratio (y) = 0.58097 0.10339
# Poissons Ratio (z) = 0.19524 0.09678
#
# Static dielectric constant tensor:
#      x y z
#    x 3.605490 0.000000 0.000000 
#    y 0.000000 3.703080 0.000000 
#    z 0.000000 0.000000 3.454630 
# 
# 
# High freq. dielectric constant tensor:
#      x y z
#    x 1.739500 0.000000 0.000000 
#    y 0.000000 1.723170 0.000000 
#    z 0.000000 0.000000 1.739360 
# 
# From -- ./inp_files/44122.got.cif
#   From: 2010.03.12/outbox.cif.g09.slc.cpg/sg66_23_cif.got.tgz:44122.got - 2010.04.10 21:57:39.
