data_PCOD8276381
_publ_section_title
;
Structure prediction by ZEFSAII (Michael W. Deem and Ramdas Pophale) SiO2 
 PCOD8276381
Probable space group: C C C M
;
_chemical_formula_sum "Si O2"
_cell_formula_units_Z 88
_cell_length_a 5.040935
_cell_length_b 28.505032
_cell_length_c 32.223713
_cell_angle_alpha 90.000000
_cell_angle_beta 90.000000
_cell_angle_gamma 90.000000
_cell_volume 4630.290203
_symmetry_space_group_name_H-M "C C C M"
_symmetry_group_IT_number 66
_symmetry_cell_setting 'orthorhombic'
loop_
_space_group_symop_operation_xyz
x,y,z
-x,-y,z
x,-y,1/2-z
-x,y,1/2-z
-x,-y,-z
x,y,-z
-x,y,1/2+z
x,-y,1/2+z
1/2+x,1/2+y,z
1/2-x,1/2-y,z
1/2+x,1/2-y,1/2-z
1/2-x,1/2+y,1/2-z
1/2-x,1/2-y,-z
1/2+x,1/2+y,-z
1/2-x,1/2+y,1/2+z
1/2+x,1/2-y,1/2+z
loop_
_atom_site_type_symbol
_atom_site_label
_atom_site_fract_x
_atom_site_fract_y
_atom_site_fract_z
Si Si1 0.947836 0.831968 0.329079
Si Si2 0.937883 0.648694 0.881895
Si Si3 0.931582 0.549633 0.848143
Si Si4 0.992412 0.281377 0.952534
Si Si5 0.250000 0.750000 0.225643
Si Si6 0.943797 0.930943 0.296629
O O1 0.684749 0.838362 0.354583
O O2 0.915584 0.786881 0.300939
O O3 0.009254 0.875720 0.299230
O O4 0.186047 0.825797 0.361578
O O5 0.914181 0.591615 0.882221
O O6 0.977275 0.669646 0.927827
O O7 0.647467 0.542007 0.826588
O O8 0.000000 0.500000 0.870595
O O9 0.143924 0.560002 0.811605
O O10 0.750000 0.250000 0.935198
O O11 0.250000 0.250000 0.947662
O O12 0.939656 0.296060 0.000000
O O13 0.500000 0.774068 0.250000
O O14 0.000000 0.948359 0.250000
#
# Coordination Sequence:
#
# PCOD8276381 Si02
#       6
#    16  16  16  16   8  16
#     4  10  22  35  52  75 101 144 183 221 265 317
#     4  10  21  37  55  78 108 140 174 218 266 319
#     4  10  21  35  52  76 101 135 180 221 271 318
#     4  10  21  36  58  87 114 140 170 212 263 320
#     4  12  24  36  50  72 103 144 193 234 266 306
#     4  10  20  34  51  71 102 134 175 230 276 315
#
# _framework density 19.005289999999999
#
# number of rings (size 3 to 8) (size 9 to 14) (size 15 to 20)
#    0.000    1.818    0.000    3.818    3.818    5.091 
#    0.000    0.000    0.000    0.545    0.000    0.000 
#    0.000   13.091    0.000    0.000    0.000    2.182 
#
# Total GULP energy -545467.194431 kJ/mol
# GULP energy per Si atom -12396.981692 kJ/mol
# Density = 1.896203 g / cm^3
# Si number density = 19.005290 Si / 1000 Ang^3
#
#
#
# Elastic Constant Matrix: (Units=GPa)
#
#
# Indices 1 2 3 4 5 6 
#
# 1 122.8018 22.5107 23.8928 0.0000 0.0000 0.0000
# 2 22.5107 119.5517 51.6497 0.0000 0.0000 0.0000
# 3 23.8928 51.6497 79.8021 0.0000 0.0000 0.0000
# 4 0.0000 0.0000 0.0000 2.0298 0.0000 0.0000
# 5 0.0000 0.0000 0.0000 0.0000 77.6967 0.0000
# 6 0.0000 0.0000 0.0000 0.0000 0.0000 29.3830
#
#
#
# Elastic Compliance Matrix: (Units=1/GPa)
#
#
# Indices 1 2 3 4 5 6 
#
# 1 0.008690 -0.000711 -0.002142 0.000000 0.000000 0.000000
# 2 -0.000711 0.011669 -0.007340 0.000000 0.000000 0.000000
# 3 -0.002142 -0.007340 0.017923 0.000000 0.000000 0.000000
# 4 0.000000 0.000000 0.000000 0.492658 0.000000 0.000000
# 5 0.000000 0.000000 0.000000 0.000000 0.012871 0.000000
# 6 0.000000 0.000000 0.000000 0.000000 0.000000 0.034033
#
#
# Mechanical properties :
#
#
# Convention : Reuss Voigt Hill
#
# Bulk Modulus (GPa) = 55.87427 57.58465 56.72946
# Shear Modulus (GPa) = 8.27547 36.76207 22.51877
#
# Velocity S-wave (km/s) = 2.08896 4.40285 3.44593
# Velocity P-wave (km/s) = 5.93982 7.49745 6.76363
#
# Compressibility (1/GPa) = 0.01789733
#
# Stress axis : x y z
#
# Youngs Moduli (GPa) = 115.07170 85.69357 55.79504
#
# Poissons Ratio (x) = 0.06093 0.11949
# Poissons Ratio (y) = 0.08182 0.40953
# Poissons Ratio (z) = 0.24644 0.62898
#
# Static dielectric constant tensor:
#      x y z
#    x 2.865700 0.000000 0.000000 
#    y 0.000000 4.070940 0.000000 
#    z 0.000000 0.000000 3.190820 
# 
# 
# High freq. dielectric constant tensor:
#      x y z
#    x 1.768590 0.000000 0.000000 
#    y 0.000000 1.740690 0.000000 
#    z 0.000000 0.000000 1.693780 
# 
# From -- ./inp_files/67398.got.cif
#   From: 2010.03.12/outbox.cif.g09.slc.cpg/sg66_34_cif.got.tgz:67398.got - 2010.04.10 21:57:39.
