data_PCOD8276314
_publ_section_title
;
Structure prediction by ZEFSAII (Michael W. Deem and Ramdas Pophale) SiO2 
 PCOD8276314
Probable space group: C C C M
;
_chemical_formula_sum "Si O2"
_cell_formula_units_Z 68
_cell_length_a 17.565907
_cell_length_b 10.301130
_cell_length_c 19.742722
_cell_angle_alpha 90.000000
_cell_angle_beta 90.000000
_cell_angle_gamma 90.000000
_cell_volume 3572.419714
_symmetry_space_group_name_H-M "C C C M"
_symmetry_group_IT_number 66
_symmetry_cell_setting 'orthorhombic'
loop_
_space_group_symop_operation_xyz
x,y,z
-x,-y,z
x,-y,1/2-z
-x,y,1/2-z
-x,-y,-z
x,y,-z
-x,y,1/2+z
x,-y,1/2+z
1/2+x,1/2+y,z
1/2-x,1/2-y,z
1/2+x,1/2-y,1/2-z
1/2-x,1/2+y,1/2-z
1/2-x,1/2-y,-z
1/2+x,1/2+y,-z
1/2-x,1/2+y,1/2+z
1/2+x,1/2-y,1/2+z
loop_
_atom_site_type_symbol
_atom_site_label
_atom_site_fract_x
_atom_site_fract_y
_atom_site_fract_z
Si Si1 0.921836 0.941098 0.380311
Si Si2 0.099580 0.654438 0.858654
Si Si3 0.164787 0.000000 0.250000
Si Si4 0.000000 0.500000 0.250000
Si Si5 0.817273 0.914753 0.500000
Si Si6 0.750000 0.750000 0.291623
Si Si7 0.148903 0.610800 0.000000
O O1 0.942031 0.790273 0.369955
O O2 0.856322 0.972826 0.433799
O O3 0.891875 0.007529 0.312658
O O4 0.000000 0.000000 0.406380
O O5 0.186930 0.683995 0.839107
O O6 0.101858 0.576045 0.930849
O O7 0.055170 0.581482 0.798899
O O8 0.215142 0.867898 0.252486
O O9 0.830799 0.761721 0.500000
O O10 0.729888 0.962550 0.500000
#
# Coordination Sequence:
#
# PCOD8276314 Si02
#       7
#    16  16   8   4   8   8   8
#     4  10  20  33  55  83 111 148 184 237 288 347
#     4  10  22  36  59  83 116 148 196 234 291 338
#     4  10  20  32  56  80 112 150 196 234 297 345
#     4  12  26  38  54  94 124 152 184 254 294 354
#     4   9  17  32  58  84 108 138 196 239 271 334
#     4  10  20  37  56  87 112 158 196 250 286 359
#     4   9  16  35  58  81 106 149 192 229 274 348
#
# _framework density 19.034716
#
# number of rings (size 3 to 8) (size 9 to 14) (size 15 to 20)
#    0.000    2.118    0.000    5.647    6.588    0.471 
#    0.000    0.000    0.000    0.706    0.000    0.000 
#    0.000    0.000    0.000    0.000    0.000    0.000 
#
# Total GULP energy -421389.849671 kJ/mol
# GULP energy per Si atom -12393.819108 kJ/mol
# Density = 1.899139 g / cm^3
# Si number density = 19.034716 Si / 1000 Ang^3
#
#
#
# Elastic Constant Matrix: (Units=GPa)
#
#
# Indices 1 2 3 4 5 6 
#
# 1 113.0005 37.8870 61.4020 0.0000 0.0000 0.0000
# 2 37.8870 60.8808 37.8325 0.0000 0.0000 0.0000
# 3 61.4020 37.8325 166.2445 0.0000 0.0000 0.0000
# 4 0.0000 0.0000 0.0000 10.0249 0.0000 0.0000
# 5 0.0000 0.0000 0.0000 0.0000 28.5890 0.0000
# 6 0.0000 0.0000 0.0000 0.0000 0.0000 28.5022
#
#
#
# Elastic Compliance Matrix: (Units=1/GPa)
#
#
# Indices 1 2 3 4 5 6 
#
# 1 0.012597 -0.005763 -0.003341 0.000000 0.000000 0.000000
# 2 -0.005763 0.021768 -0.002825 0.000000 0.000000 0.000000
# 3 -0.003341 -0.002825 0.007892 0.000000 0.000000 0.000000
# 4 0.000000 0.000000 0.000000 0.099752 0.000000 0.000000
# 5 0.000000 0.000000 0.000000 0.000000 0.034978 0.000000
# 6 0.000000 0.000000 0.000000 0.000000 0.000000 0.035085
#
#
# Mechanical properties :
#
#
# Convention : Reuss Voigt Hill
#
# Bulk Modulus (GPa) = 54.35327 68.26319 61.30823
# Shear Modulus (GPa) = 20.65567 26.95684 23.80625
#
# Velocity S-wave (km/s) = 3.29775 3.76732 3.54033
# Velocity P-wave (km/s) = 6.56635 7.40702 6.99932
#
# Compressibility (1/GPa) = 0.01839816
#
# Stress axis : x y z
#
# Youngs Moduli (GPa) = 79.38149 45.93984 126.70680
#
# Poissons Ratio (x) = 0.26476 0.42336
# Poissons Ratio (y) = 0.45749 0.35795
# Poissons Ratio (z) = 0.26524 0.12978
#
# Static dielectric constant tensor:
#      x y z
#    x 3.508440 0.000000 0.000000 
#    y 0.000000 3.315890 0.000000 
#    z 0.000000 0.000000 3.755920 
# 
# 
# High freq. dielectric constant tensor:
#      x y z
#    x 1.745200 0.000000 0.000000 
#    y 0.000000 1.701810 0.000000 
#    z 0.000000 0.000000 1.756430 
# 
# From -- ./inp_files/38418.got.cif
#   From: 2010.03.12/outbox.cif.g09.slc.cpg/sg66_20_cif.got.tgz:38418.got - 2010.04.10 21:57:39.
