data_PCOD8276989
_publ_section_title
;
Structure prediction by ZEFSAII (Michael W. Deem and Ramdas Pophale) SiO2 
 PCOD8276989
Probable space group: C C C M
;
_chemical_formula_sum "Si O2"
_cell_formula_units_Z 100
_cell_length_a 10.403433
_cell_length_b 16.311208
_cell_length_c 32.118486
_cell_angle_alpha 90.000000
_cell_angle_beta 90.000000
_cell_angle_gamma 90.000000
_cell_volume 5450.268099
_symmetry_space_group_name_H-M "C C C M"
_symmetry_group_IT_number 66
_symmetry_cell_setting 'orthorhombic'
loop_
_space_group_symop_operation_xyz
x,y,z
-x,-y,z
x,-y,1/2-z
-x,y,1/2-z
-x,-y,-z
x,y,-z
-x,y,1/2+z
x,-y,1/2+z
1/2+x,1/2+y,z
1/2-x,1/2-y,z
1/2+x,1/2-y,1/2-z
1/2-x,1/2+y,1/2-z
1/2-x,1/2-y,-z
1/2+x,1/2+y,-z
1/2-x,1/2+y,1/2+z
1/2+x,1/2-y,1/2+z
loop_
_atom_site_type_symbol
_atom_site_label
_atom_site_fract_x
_atom_site_fract_y
_atom_site_fract_z
Si Si1 0.873219 0.445660 0.546087
Si Si2 0.628029 0.303879 0.141764
Si Si3 0.684451 0.920912 0.816935
Si Si4 0.532242 0.590146 0.797667
Si Si5 0.500000 0.000000 0.250000
Si Si6 0.530937 0.159779 0.386451
Si Si7 0.285189 0.947768 0.884936
O O1 0.816993 0.427465 0.500000
O O2 0.898153 0.358390 0.569528
O O3 0.769866 0.495879 0.573956
O O4 0.000000 0.500000 0.541466
O O5 0.750000 0.250000 0.157529
O O6 0.552954 0.339589 0.180977
O O7 0.531102 0.249898 0.113654
O O8 0.676721 0.377829 0.112553
O O9 0.818337 0.885212 0.800411
O O10 0.623485 0.851584 0.846707
O O11 0.589671 0.942451 0.778739
O O12 0.724726 0.001596 0.842502
O O13 0.500000 0.500000 0.816793
O O14 0.500000 0.590368 0.750000
O O15 0.426403 0.089059 0.382525
#
# Coordination Sequence:
#
# PCOD8276989 Si02
#       7
#    16  16  16  16   4  16  16
#     4   8  14  27  52  83 113 141 182 231 269 326
#     4  10  21  37  55  75 113 149 175 230 293 327
#     4  11  20  33  57  78 104 143 192 228 270 333
#     4  11  23  39  55  77 106 144 196 239 270 323
#     4  12  20  32  58  84 106 148 194 238 280 320
#     4   9  18  33  51  79 111 144 181 221 286 337
#     4   9  16  33  52  78 108 146 185 221 272 336
#
# _framework density 18.347722000000001
#
# number of rings (size 3 to 8) (size 9 to 14) (size 15 to 20)
#    0.000    2.240    3.200    1.920    0.000    0.640 
#    4.320    0.800    0.000    4.800    0.000   17.920 
#    0.000    0.000    0.000    0.000    0.000    0.000 
#
# Total GULP energy -619691.918073 kJ/mol
# GULP energy per Si atom -12393.838361 kJ/mol
# Density = 1.830596 g / cm^3
# Si number density = 18.347722 Si / 1000 Ang^3
#
#
#
# Elastic Constant Matrix: (Units=GPa)
#
#
# Indices 1 2 3 4 5 6 
#
# 1 101.4401 43.0360 51.1768 0.0000 0.0000 0.0000
# 2 43.0360 99.7408 49.8852 0.0000 0.0000 0.0000
# 3 51.1768 49.8852 128.5463 0.0000 0.0000 0.0000
# 4 0.0000 0.0000 0.0000 -9.0046 0.0000 0.0000
# 5 0.0000 0.0000 0.0000 0.0000 12.5424 0.0000
# 6 0.0000 0.0000 0.0000 0.0000 0.0000 30.8753
#
#
#
# Elastic Compliance Matrix: (Units=1/GPa)
#
#
# Indices 1 2 3 4 5 6 
#
# 1 0.013444 -0.003876 -0.003848 0.000000 0.000000 0.000000
# 2 -0.003876 0.013558 -0.003718 0.000000 0.000000 0.000000
# 3 -0.003848 -0.003718 0.010754 0.000000 0.000000 0.000000
# 4 0.000000 0.000000 0.000000 -0.111055 0.000000 0.000000
# 5 0.000000 0.000000 0.000000 0.000000 0.079730 0.000000
# 6 0.000000 0.000000 0.000000 0.000000 0.000000 0.032388
#
#
# Mechanical properties :
#
#
# Convention : Reuss Voigt Hill
#
# Bulk Modulus (GPa) = 67.24410 68.65813 67.95111
# Shear Modulus (GPa) = 75.00579 19.25790 47.13185
#
# Velocity S-wave (km/s) = 6.40070 3.24328 5.07384
# Velocity P-wave (km/s) = 9.55796 7.17822 8.45226
#
# Compressibility (1/GPa) = 0.01487119
#
# Stress axis : x y z
#
# Youngs Moduli (GPa) = 74.38357 73.75612 92.98622
#
# Poissons Ratio (x) = 0.28589 0.35781
# Poissons Ratio (y) = 0.28832 0.34576
# Poissons Ratio (z) = 0.28623 0.27425
#
# Static dielectric constant tensor:
#      x y z
#    x 3.412550 0.000000 0.000000 
#    y 0.000000 3.384190 0.000000 
#    z 0.000000 0.000000 3.440210 
# 
# 
# High freq. dielectric constant tensor:
#      x y z
#    x 1.703350 0.000000 0.000000 
#    y 0.000000 1.697850 0.000000 
#    z 0.000000 0.000000 1.695040 
# 
# From -- ./inp_files/69029.got.cif
#   From: 2010.03.12/outbox.cif.g09.slc.cpg/sg66_35_cif.got.tgz:69029.got - 2010.04.10 21:57:39.
