data_PCOD8276347
_publ_section_title
;
Structure prediction by ZEFSAII (Michael W. Deem and Ramdas Pophale) SiO2 
 PCOD8276347
Probable space group: C C C M
;
_chemical_formula_sum "Si O2"
_cell_formula_units_Z 80
_cell_length_a 18.242224
_cell_length_b 25.989118
_cell_length_c 8.958938
_cell_angle_alpha 90.000000
_cell_angle_beta 90.000000
_cell_angle_gamma 90.000000
_cell_volume 4247.426343
_symmetry_space_group_name_H-M "C C C M"
_symmetry_group_IT_number 66
_symmetry_cell_setting 'orthorhombic'
loop_
_space_group_symop_operation_xyz
x,y,z
-x,-y,z
x,-y,1/2-z
-x,y,1/2-z
-x,-y,-z
x,y,-z
-x,y,1/2+z
x,-y,1/2+z
1/2+x,1/2+y,z
1/2-x,1/2-y,z
1/2+x,1/2-y,1/2-z
1/2-x,1/2+y,1/2-z
1/2-x,1/2-y,-z
1/2+x,1/2+y,-z
1/2-x,1/2+y,1/2+z
1/2+x,1/2-y,1/2+z
loop_
_atom_site_type_symbol
_atom_site_label
_atom_site_fract_x
_atom_site_fract_y
_atom_site_fract_z
Si Si1 0.149448 0.452005 0.172612
Si Si2 0.576419 0.737729 0.825550
Si Si3 0.806164 0.047617 0.827028
Si Si4 0.687101 0.661849 0.672499
Si Si5 0.157954 0.339640 0.826935
O O1 0.105559 0.500000 0.250000
O O2 0.230150 0.449982 0.239912
O O3 0.116960 0.394722 0.201800
O O4 0.152659 0.465152 0.000000
O O5 0.500000 0.724424 0.750000
O O6 0.637782 0.698765 0.770312
O O7 0.600069 0.795714 0.784329
O O8 0.566701 0.730126 0.000000
O O9 0.843770 0.103426 0.807167
O O10 0.851606 0.000000 0.750000
O O11 0.793070 0.035337 0.000000
O O12 0.683591 0.678443 0.500000
O O13 0.770794 0.666983 0.724909
O O14 0.182595 0.335462 0.000000
#
# Coordination Sequence:
#
# PCOD8276347 Si02
#       5
#    16  16  16  16  16
#     4   9  15  25  43  69 100 129 159 197 243 291
#     4  11  23  38  54  72  98 133 171 210 255 302
#     4   9  16  26  43  70 102 131 160 196 240 288
#     4  10  20  33  52  79 106 132 166 207 248 294
#     4   9  19  34  52  75 103 134 167 206 250 296
#
# _framework density 18.834935999999999
#
# number of rings (size 3 to 8) (size 9 to 14) (size 15 to 20)
#    0.000    2.400    0.000    4.200    0.000    7.200 
#    0.000    0.000    0.000    1.200    0.000    8.400 
#    0.000    0.000    0.000    0.000    0.000    0.000 
#
# Total GULP energy -495620.753113 kJ/mol
# GULP energy per Si atom -12390.518828 kJ/mol
# Density = 1.879207 g / cm^3
# Si number density = 18.834936 Si / 1000 Ang^3
#
#
#
# Elastic Constant Matrix: (Units=GPa)
#
#
# Indices 1 2 3 4 5 6 
#
# 1 19.3943 -2.7557 13.1492 0.0000 0.0000 0.0000
# 2 -2.7557 101.2533 42.9731 0.0000 0.0000 0.0000
# 3 13.1492 42.9731 100.2172 0.0000 0.0000 0.0000
# 4 0.0000 0.0000 0.0000 37.0318 0.0000 0.0000
# 5 0.0000 0.0000 0.0000 0.0000 15.0860 0.0000
# 6 0.0000 0.0000 0.0000 0.0000 0.0000 -0.8706
#
#
#
# Elastic Compliance Matrix: (Units=1/GPa)
#
#
# Indices 1 2 3 4 5 6 
#
# 1 0.059459 0.006026 -0.010385 0.000000 0.000000 0.000000
# 2 0.006026 0.012684 -0.006230 0.000000 0.000000 0.000000
# 3 -0.010385 -0.006230 0.014012 0.000000 0.000000 0.000000
# 4 0.000000 0.000000 0.000000 0.027004 0.000000 0.000000
# 5 0.000000 0.000000 0.000000 0.000000 0.066287 0.000000
# 6 0.000000 0.000000 0.000000 0.000000 0.000000 -1.148621
#
#
# Mechanical properties :
#
#
# Convention : Reuss Voigt Hill
#
# Bulk Modulus (GPa) = 15.39000 36.39977 25.89488
# Shear Modulus (GPa) = -5.39760 21.41599 8.00919
#
# Velocity S-wave (km/s) = -1.69469 3.37565 2.06435
# Velocity P-wave (km/s) = 2.08793 5.87886 4.41137
#
# Compressibility (1/GPa) = 0.06497727
#
# Stress axis : x y z
#
# Youngs Moduli (GPa) = 16.81832 78.83864 71.36639
#
# Poissons Ratio (x) = -0.47507 0.74116
# Poissons Ratio (y) = -0.10135 0.44458
# Poissons Ratio (z) = 0.17466 0.49113
#
# Static dielectric constant tensor:
#      x y z
#    x 2.804940 0.000000 0.000000 
#    y 0.000000 4.803040 0.000000 
#    z 0.000000 0.000000 3.591970 
# 
# 
# High freq. dielectric constant tensor:
#      x y z
#    x 1.658370 0.000000 0.000000 
#    y 0.000000 1.766510 0.000000 
#    z 0.000000 0.000000 1.748360 
# 
# From -- ./inp_files/6677.got.cif
#   From: 2010.03.12/outbox.cif.g09.slc.cpg/sg66_4_cif.got.tgz:6677.got - 2010.04.10 21:57:39.
