data_PCOD8276193
_publ_section_title
;
Structure prediction by ZEFSAII (Michael W. Deem and Ramdas Pophale) SiO2 
 PCOD8276193
Probable space group: C C C M
;
_chemical_formula_sum "Si O2"
_cell_formula_units_Z 120
_cell_length_a 24.419821
_cell_length_b 12.090933
_cell_length_c 21.073721
_cell_angle_alpha 90.000000
_cell_angle_beta 90.000000
_cell_angle_gamma 90.000000
_cell_volume 6222.193557
_symmetry_space_group_name_H-M "C C C M"
_symmetry_group_IT_number 66
_symmetry_cell_setting 'orthorhombic'
loop_
_space_group_symop_operation_xyz
x,y,z
-x,-y,z
x,-y,1/2-z
-x,y,1/2-z
-x,-y,-z
x,y,-z
-x,y,1/2+z
x,-y,1/2+z
1/2+x,1/2+y,z
1/2-x,1/2-y,z
1/2+x,1/2-y,1/2-z
1/2-x,1/2+y,1/2-z
1/2-x,1/2-y,-z
1/2+x,1/2+y,-z
1/2-x,1/2+y,1/2+z
1/2+x,1/2-y,1/2+z
loop_
_atom_site_type_symbol
_atom_site_label
_atom_site_fract_x
_atom_site_fract_y
_atom_site_fract_z
Si Si1 0.369602 0.500000 0.250000
Si Si2 0.448038 0.308514 0.704477
Si Si3 0.907394 0.137128 0.926327
Si Si4 0.782027 0.478259 0.431586
Si Si5 0.311971 0.779726 0.350806
Si Si6 0.335024 0.548711 0.384438
Si Si7 0.369375 0.128493 0.266838
Si Si8 0.310223 0.799851 0.111951
O O1 0.404626 0.394143 0.268704
O O2 0.331185 0.529730 0.308857
O O3 0.500000 0.324563 0.750000
O O4 0.454302 0.334417 0.627445
O O5 0.427064 0.182011 0.710641
O O6 0.854265 0.211352 0.911744
O O7 0.887781 0.009674 0.916762
O O8 0.927788 0.153211 0.000000
O O9 0.782584 0.421639 0.500000
O O10 0.814261 0.395332 0.386818
O O11 0.719806 0.503091 0.412174
O O12 0.812036 0.596427 0.435619
O O13 0.250000 0.750000 0.330796
O O14 0.336790 0.681522 0.394944
O O15 0.350658 0.796402 0.291357
O O16 0.323666 0.146480 0.320050
O O17 0.377594 0.000000 0.250000
O O18 0.250000 0.750000 0.115222
#
# Coordination Sequence:
#
# PCOD8276193 Si02
#       8
#     8  16  16  16  16  16  16  16
#     4  10  19  36  60  84 110 142 188 230 299 342
#     4  10  22  39  63  89 111 145 188 244 305 356
#     4  10  21  36  58  89 120 154 191 236 284 342
#     4  11  22  33  49  75 115 163 197 225 269 330
#     4  10  21  35  51  78 115 156 192 236 272 328
#     4  10  20  32  54  80 114 152 189 233 270 336
#     4  11  21  37  58  84 113 143 194 245 291 339
#     4  11  21  33  53  86 119 158 191 232 278 334
#
# _framework density 19.285803000000001
#
# number of rings (size 3 to 8) (size 9 to 14) (size 15 to 20)
#    0.000    1.600    4.000    1.400    0.000    5.867 
#    0.000    0.000    0.000    8.000    0.000    1.867 
#    0.000    0.000    0.000    0.000    0.000    0.000 
#
# Total GULP energy -743481.186190 kJ/mol
# GULP energy per Si atom -12391.353103 kJ/mol
# Density = 1.924191 g / cm^3
# Si number density = 19.285803 Si / 1000 Ang^3
#
#
#
# Elastic Constant Matrix: (Units=GPa)
#
#
# Indices 1 2 3 4 5 6 
#
# 1 39.0239 12.3153 24.0366 0.0000 0.0000 0.0000
# 2 12.3153 105.9812 12.2688 0.0000 0.0000 0.0000
# 3 24.0366 12.2688 123.6084 0.0000 0.0000 0.0000
# 4 0.0000 0.0000 0.0000 18.6085 0.0000 0.0000
# 5 0.0000 0.0000 0.0000 0.0000 12.5529 0.0000
# 6 0.0000 0.0000 0.0000 0.0000 0.0000 -2.3558
#
#
#
# Elastic Compliance Matrix: (Units=1/GPa)
#
#
# Indices 1 2 3 4 5 6 
#
# 1 0.029932 -0.002837 -0.005539 0.000000 0.000000 0.000000
# 2 -0.002837 0.009814 -0.000422 0.000000 0.000000 0.000000
# 3 -0.005539 -0.000422 0.009209 0.000000 0.000000 0.000000
# 4 0.000000 0.000000 0.000000 0.053739 0.000000 0.000000
# 5 0.000000 0.000000 0.000000 0.000000 0.079663 0.000000
# 6 0.000000 0.000000 0.000000 0.000000 0.000000 -0.424490
#
#
# Mechanical properties :
#
#
# Convention : Reuss Voigt Hill
#
# Bulk Modulus (GPa) = 31.88897 40.65055 36.26976
# Shear Modulus (GPa) = -23.35542 20.42732 -1.46405
#
# Velocity S-wave (km/s) = -3.48374 3.25805 -0.87223
# Velocity P-wave (km/s) = 0.62362 5.93944 4.22290
#
# Compressibility (1/GPa) = 0.03135881
#
# Stress axis : x y z
#
# Youngs Moduli (GPa) = 33.40865 101.89314 108.58840
#
# Poissons Ratio (x) = 0.28907 0.60147
# Poissons Ratio (y) = 0.09478 0.04587
# Poissons Ratio (z) = 0.18505 0.04304
#
# Static dielectric constant tensor:
#      x y z
#    x 3.124080 0.000000 0.000000 
#    y 0.000000 3.745210 0.000000 
#    z 0.000000 0.000000 3.859660 
# 
# 
# High freq. dielectric constant tensor:
#      x y z
#    x 1.698130 0.000000 0.000000 
#    y 0.000000 1.771140 0.000000 
#    z 0.000000 0.000000 1.756320 
# 
# From -- ./inp_files/53184.got.cif
#   From: 2010.03.12/outbox.cif.g09.slc.cpg/sg66_27_cif.got.tgz:53184.got - 2010.04.10 21:57:39.
