data_PCOD8276062
_publ_section_title
;
Structure prediction by ZEFSAII (Michael W. Deem and Ramdas Pophale) SiO2 
 PCOD8276062
Probable space group: C C C M
;
_chemical_formula_sum "Si O2"
_cell_formula_units_Z 72
_cell_length_a 10.198756
_cell_length_b 13.829948
_cell_length_c 25.607289
_cell_angle_alpha 90.000000
_cell_angle_beta 90.000000
_cell_angle_gamma 90.000000
_cell_volume 3611.863689
_symmetry_space_group_name_H-M "C C C M"
_symmetry_group_IT_number 66
_symmetry_cell_setting 'orthorhombic'
loop_
_space_group_symop_operation_xyz
x,y,z
-x,-y,z
x,-y,1/2-z
-x,y,1/2-z
-x,-y,-z
x,y,-z
-x,y,1/2+z
x,-y,1/2+z
1/2+x,1/2+y,z
1/2-x,1/2-y,z
1/2+x,1/2-y,1/2-z
1/2-x,1/2+y,1/2-z
1/2-x,1/2-y,-z
1/2+x,1/2+y,-z
1/2-x,1/2+y,1/2+z
1/2+x,1/2-y,1/2+z
loop_
_atom_site_type_symbol
_atom_site_label
_atom_site_fract_x
_atom_site_fract_y
_atom_site_fract_z
Si Si1 0.319224 0.353074 0.557917
Si Si2 0.619051 0.927738 0.632021
Si Si3 0.800521 0.092896 0.776401
Si Si4 0.020405 0.213042 0.351614
Si Si5 0.250000 0.250000 0.802108
O O1 0.361882 0.387530 0.500000
O O2 0.250000 0.250000 0.554844
O O3 0.215748 0.430102 0.581869
O O4 0.448019 0.346445 0.595176
O O5 0.698900 0.956580 0.683484
O O6 0.575707 0.819181 0.642207
O O7 0.500000 0.000000 0.621351
O O8 0.910100 0.160004 0.803046
O O9 0.720120 0.157695 0.734558
O O10 0.869870 0.000000 0.750000
O O11 0.867276 0.220684 0.340721
#
# Coordination Sequence:
#
# PCOD8276062 Si02
#       5
#    16  16  16  16   8
#     4   8  16  34  57  78 108 146 187 249 310 348
#     4  10  19  34  55  85 114 143 195 247 292 348
#     4  11  22  36  56  80 113 158 192 239 291 347
#     4  10  21  36  52  81 113 149 197 241 288 359
#     4  12  22  34  53  76 115 156 192 234 282 356
#
# _framework density 19.934307
#
# number of rings (size 3 to 8) (size 9 to 14) (size 15 to 20)
#    0.000    2.000    2.222    3.333    0.000    4.444 
#    0.000    0.556    0.000    0.000    0.000   20.222 
#    0.000    0.000    0.000    0.000    0.000    0.000 
#
# Total GULP energy -446193.415075 kJ/mol
# GULP energy per Si atom -12394.261530 kJ/mol
# Density = 1.988894 g / cm^3
# Si number density = 19.934307 Si / 1000 Ang^3
#
#
#
# Elastic Constant Matrix: (Units=GPa)
#
#
# Indices 1 2 3 4 5 6 
#
# 1 133.8347 35.8486 81.1314 0.0000 0.0000 0.0000
# 2 35.8486 102.3434 51.8771 0.0000 0.0000 0.0000
# 3 81.1314 51.8771 159.0965 0.0000 0.0000 0.0000
# 4 0.0000 0.0000 0.0000 13.6003 0.0000 0.0000
# 5 0.0000 0.0000 0.0000 0.0000 17.1940 0.0000
# 6 0.0000 0.0000 0.0000 0.0000 0.0000 33.5646
#
#
#
# Elastic Compliance Matrix: (Units=1/GPa)
#
#
# Indices 1 2 3 4 5 6 
#
# 1 0.010937 -0.001203 -0.005185 0.000000 0.000000 0.000000
# 2 -0.001203 0.011838 -0.003247 0.000000 0.000000 0.000000
# 3 -0.005185 -0.003247 0.009988 0.000000 0.000000 0.000000
# 4 0.000000 0.000000 0.000000 0.073528 0.000000 0.000000
# 5 0.000000 0.000000 0.000000 0.000000 0.058160 0.000000
# 6 0.000000 0.000000 0.000000 0.000000 0.000000 0.029793
#
#
# Mechanical properties :
#
#
# Convention : Reuss Voigt Hill
#
# Bulk Modulus (GPa) = 74.10548 81.44319 77.77433
# Shear Modulus (GPa) = 22.93447 27.96630 25.45038
#
# Velocity S-wave (km/s) = 3.39559 3.74962 3.57699
# Velocity P-wave (km/s) = 7.25458 7.72598 7.49398
#
# Compressibility (1/GPa) = 0.01349428
#
# Stress axis : x y z
#
# Youngs Moduli (GPa) = 91.42874 84.47333 100.11544
#
# Poissons Ratio (x) = 0.10160 0.51914
# Poissons Ratio (y) = 0.10996 0.32505
# Poissons Ratio (z) = 0.47409 0.27426
#
# Static dielectric constant tensor:
#      x y z
#    x 3.648310 0.000000 0.000000 
#    y 0.000000 3.416580 0.000000 
#    z 0.000000 0.000000 4.054790 
# 
# 
# High freq. dielectric constant tensor:
#      x y z
#    x 1.761000 0.000000 0.000000 
#    y 0.000000 1.770530 0.000000 
#    z 0.000000 0.000000 1.773910 
# 
# From -- ./inp_files/62165.got.cif
#   From: 2010.03.12/outbox.cif.g09.slc.cpg/sg66_32_cif.got.tgz:62165.got - 2010.04.10 21:57:39.
