data_PCOD8276527
_publ_section_title
;
Structure prediction by ZEFSAII (Michael W. Deem and Ramdas Pophale) SiO2 
 PCOD8276527
Probable space group: C C C M
;
_chemical_formula_sum "Si O2"
_cell_formula_units_Z 108
_cell_length_a 6.461656
_cell_length_b 29.619958
_cell_length_c 27.127311
_cell_angle_alpha 90.000000
_cell_angle_beta 90.000000
_cell_angle_gamma 90.000000
_cell_volume 5192.004001
_symmetry_space_group_name_H-M "C C C M"
_symmetry_group_IT_number 66
_symmetry_cell_setting 'orthorhombic'
loop_
_space_group_symop_operation_xyz
x,y,z
-x,-y,z
x,-y,1/2-z
-x,y,1/2-z
-x,-y,-z
x,y,-z
-x,y,1/2+z
x,-y,1/2+z
1/2+x,1/2+y,z
1/2-x,1/2-y,z
1/2+x,1/2-y,1/2-z
1/2-x,1/2+y,1/2-z
1/2-x,1/2-y,-z
1/2+x,1/2+y,-z
1/2-x,1/2+y,1/2+z
1/2+x,1/2-y,1/2+z
loop_
_atom_site_type_symbol
_atom_site_label
_atom_site_fract_x
_atom_site_fract_y
_atom_site_fract_z
Si Si1 0.193828 0.529092 0.174023
Si Si2 0.203585 0.846119 0.621843
Si Si3 0.955062 0.375015 0.192575
Si Si4 0.433062 0.595540 0.945590
Si Si5 0.810916 0.200875 0.144308
Si Si6 0.000000 0.000000 0.093550
Si Si7 0.411264 0.162806 0.444152
Si Si8 0.000000 0.000000 0.250000
O O1 0.128793 0.580601 0.164379
O O2 0.293453 0.503239 0.127206
O O3 0.360424 0.532988 0.217457
O O4 0.000000 0.500000 0.191956
O O5 0.323512 0.864027 0.669192
O O6 0.358554 0.834249 0.577544
O O7 0.052520 0.884030 0.600693
O O8 0.060428 0.804626 0.641033
O O9 0.791924 0.335101 0.181890
O O10 0.000000 0.382927 0.250000
O O11 0.477662 0.542527 0.942378
O O12 0.192229 0.612256 0.941286
O O13 0.513735 0.610940 0.000000
O O14 0.750000 0.250000 0.164845
O O15 0.728204 0.196180 0.088433
O O16 0.418079 0.180640 0.500000
#
# Coordination Sequence:
#
# PCOD8276527 Si02
#       8
#    16  16  16  16  16   8  16   4
#     4  11  22  37  58  84 118 153 200 253 306 366
#     4  10  20  39  63  82 117 157 196 249 307 363
#     4  11  24  41  61  89 117 157 206 254 311 375
#     4  10  20  35  56  85 121 160 202 244 294 361
#     4  10  23  42  60  88 122 155 198 258 310 369
#     4  11  21  33  53  84 118 160 197 247 305 357
#     4   9  19  36  60  89 119 157 201 243 295 367
#     4  10  22  36  58  86 118 152 192 252 312 360
#
# _framework density 20.801217000000001
#
# number of rings (size 3 to 8) (size 9 to 14) (size 15 to 20)
#    0.000    1.778    0.000    5.333    0.000    7.407 
#    2.667    0.741    0.000    4.444    0.000    0.000 
#    0.000    0.000    0.000    0.000    0.000    0.000 
#
# Total GULP energy -669210.061423 kJ/mol
# GULP energy per Si atom -12392.778915 kJ/mol
# Density = 2.075387 g / cm^3
# Si number density = 20.801217 Si / 1000 Ang^3
#
#
#
# Elastic Constant Matrix: (Units=GPa)
#
#
# Indices 1 2 3 4 5 6 
#
# 1 134.4217 42.6221 29.4006 0.0000 0.0000 0.0000
# 2 42.6221 117.9730 3.1079 0.0000 0.0000 0.0000
# 3 29.4006 3.1079 89.6931 0.0000 0.0000 0.0000
# 4 0.0000 0.0000 0.0000 17.2708 0.0000 0.0000
# 5 0.0000 0.0000 0.0000 0.0000 26.4229 0.0000
# 6 0.0000 0.0000 0.0000 0.0000 0.0000 28.4744
#
#
#
# Elastic Compliance Matrix: (Units=1/GPa)
#
#
# Indices 1 2 3 4 5 6 
#
# 1 0.009083 -0.003206 -0.002866 0.000000 0.000000 0.000000
# 2 -0.003206 0.009616 0.000718 0.000000 0.000000 0.000000
# 3 -0.002866 0.000718 0.012064 0.000000 0.000000 0.000000
# 4 0.000000 0.000000 0.000000 0.057901 0.000000 0.000000
# 5 0.000000 0.000000 0.000000 0.000000 0.037846 0.000000
# 6 0.000000 0.000000 0.000000 0.000000 0.000000 0.035119
#
#
# Mechanical properties :
#
#
# Convention : Reuss Voigt Hill
#
# Bulk Modulus (GPa) = 49.86656 54.70545 52.28601
# Shear Modulus (GPa) = 27.92953 32.23077 30.08015
#
# Velocity S-wave (km/s) = 3.66824 3.94060 3.80686
# Velocity P-wave (km/s) = 6.47814 6.86008 6.67184
#
# Compressibility (1/GPa) = 0.02005352
#
# Stress axis : x y z
#
# Youngs Moduli (GPa) = 110.09952 103.99471 82.89295
#
# Poissons Ratio (x) = 0.33340 0.23758
# Poissons Ratio (y) = 0.35297 -0.05949
# Poissons Ratio (z) = 0.31556 -0.07464
#
# Static dielectric constant tensor:
#      x y z
#    x 4.001350 0.000000 0.000000 
#    y 0.000000 3.559090 0.000000 
#    z 0.000000 0.000000 3.756830 
# 
# 
# High freq. dielectric constant tensor:
#      x y z
#    x 1.821600 0.000000 0.000000 
#    y 0.000000 1.791810 0.000000 
#    z 0.000000 0.000000 1.818470 
# 
# From -- ./inp_files/67551.got.cif
#   From: 2010.03.12/outbox.cif.g09.slc.cpg/sg66_34_cif.got.tgz:67551.got - 2010.04.10 21:57:39.
