data_PCOD8276035
_publ_section_title
;
Structure prediction by ZEFSAII (Michael W. Deem and Ramdas Pophale) SiO2 
 PCOD8276035
Probable space group: C C C M
;
_chemical_formula_sum "Si O2"
_cell_formula_units_Z 116
_cell_length_a 22.053831
_cell_length_b 31.181546
_cell_length_c 8.900375
_cell_angle_alpha 90.000000
_cell_angle_beta 90.000000
_cell_angle_gamma 90.000000
_cell_volume 6120.543535
_symmetry_space_group_name_H-M "C C C M"
_symmetry_group_IT_number 66
_symmetry_cell_setting 'orthorhombic'
loop_
_space_group_symop_operation_xyz
x,y,z
-x,-y,z
x,-y,1/2-z
-x,y,1/2-z
-x,-y,-z
x,y,-z
-x,y,1/2+z
x,-y,1/2+z
1/2+x,1/2+y,z
1/2-x,1/2-y,z
1/2+x,1/2-y,1/2-z
1/2-x,1/2+y,1/2-z
1/2-x,1/2-y,-z
1/2+x,1/2+y,-z
1/2-x,1/2+y,1/2+z
1/2+x,1/2-y,1/2+z
loop_
_atom_site_type_symbol
_atom_site_label
_atom_site_fract_x
_atom_site_fract_y
_atom_site_fract_z
Si Si1 0.323920 0.603447 0.824203
Si Si2 0.562486 0.544967 0.323108
Si Si3 0.500000 0.000000 0.750000
Si Si4 0.096921 0.566319 0.333252
Si Si5 0.301788 0.309727 0.822128
Si Si6 0.561536 0.842041 0.179158
Si Si7 0.830091 0.284023 0.322641
Si Si8 0.271985 0.043590 0.821384
O O1 0.385903 0.579197 0.785657
O O2 0.332959 0.652010 0.769165
O O3 0.268159 0.583242 0.732780
O O4 0.309046 0.601553 0.000000
O O5 0.582035 0.500000 0.250000
O O6 0.500000 0.561687 0.250000
O O7 0.553260 0.538526 0.500000
O O8 0.455621 0.969579 0.654794
O O9 0.116001 0.579725 0.500000
O O10 0.073317 0.609881 0.255232
O O11 0.159103 0.549608 0.257584
O O12 0.232413 0.305065 0.765984
O O13 0.336326 0.265825 0.776261
O O14 0.305983 0.318514 0.000000
O O15 0.500000 0.824318 0.250000
O O16 0.614096 0.811155 0.242189
O O17 0.556404 0.841277 0.000000
O O18 0.828910 0.286825 0.500000
O O19 0.245639 0.000000 0.750000
O O20 0.269021 0.039724 0.000000
#
# Coordination Sequence:
#
# PCOD8276035 Si02
#       8
#    16  16   4  16  16  16  16  16
#     4  11  23  37  54  84 117 145 175 221 274 327
#     4  10  21  37  58  81 109 142 181 217 259 315
#     4  12  18  36  52  74 108 148 192 236 274 312
#     4  10  21  34  52  75 106 147 190 231 275 318
#     4   9  17  34  60  83 101 136 178 220 271 327
#     4  10  19  34  52  75 104 138 178 223 268 321
#     4   8  16  33  58  81 103 132 178 226 270 325
#     4  11  22  37  55  79 109 147 189 233 275 322
#
# _framework density 18.952566000000001
#
# number of rings (size 3 to 8) (size 9 to 14) (size 15 to 20)
#    0.000    2.069    1.379    3.931    0.000    5.517 
#    0.000    6.207    0.000    3.310    0.000    0.000 
#    0.000    0.000    0.000    0.000    0.000    0.000 
#
# Total GULP energy -719073.747896 kJ/mol
# GULP energy per Si atom -12397.823240 kJ/mol
# Density = 1.890943 g / cm^3
# Si number density = 18.952566 Si / 1000 Ang^3
#
#
#
# Elastic Constant Matrix: (Units=GPa)
#
#
# Indices 1 2 3 4 5 6 
#
# 1 121.5590 78.5073 37.4990 0.0000 0.0000 0.0000
# 2 78.5073 145.6892 36.1484 0.0000 0.0000 0.0000
# 3 37.4990 36.1484 64.5855 0.0000 0.0000 0.0000
# 4 0.0000 0.0000 0.0000 27.3183 0.0000 0.0000
# 5 0.0000 0.0000 0.0000 0.0000 24.0446 0.0000
# 6 0.0000 0.0000 0.0000 0.0000 0.0000 30.1224
#
#
#
# Elastic Compliance Matrix: (Units=1/GPa)
#
#
# Indices 1 2 3 4 5 6 
#
# 1 0.013621 -0.006245 -0.004413 0.000000 0.000000 0.000000
# 2 -0.006245 0.010834 -0.002438 0.000000 0.000000 0.000000
# 3 -0.004413 -0.002438 0.019410 0.000000 0.000000 0.000000
# 4 0.000000 0.000000 0.000000 0.036606 0.000000 0.000000
# 5 0.000000 0.000000 0.000000 0.000000 0.041589 0.000000
# 6 0.000000 0.000000 0.000000 0.000000 0.000000 0.033198
#
#
# Mechanical properties :
#
#
# Convention : Reuss Voigt Hill
#
# Bulk Modulus (GPa) = 56.58308 70.68255 63.63282
# Shear Modulus (GPa) = 26.68925 28.27567 27.48246
#
# Velocity S-wave (km/s) = 3.75669 3.86673 3.81210
# Velocity P-wave (km/s) = 6.98118 7.57039 7.28175
#
# Compressibility (1/GPa) = 0.01767313
#
# Stress axis : x y z
#
# Youngs Moduli (GPa) = 73.41549 92.30171 51.51925
#
# Poissons Ratio (x) = 0.57642 0.22737
# Poissons Ratio (y) = 0.45848 0.12560
# Poissons Ratio (z) = 0.32400 0.22502
#
# Static dielectric constant tensor:
#      x y z
#    x 3.627670 0.000000 0.000000 
#    y 0.000000 3.619050 0.000000 
#    z 0.000000 0.000000 3.151840 
# 
# 
# High freq. dielectric constant tensor:
#      x y z
#    x 1.737300 0.000000 0.000000 
#    y 0.000000 1.742010 0.000000 
#    z 0.000000 0.000000 1.711860 
# 
# From -- ./inp_files/9609.got.cif
#   From: 2010.03.12/outbox.cif.g09.slc.cpg/sg66_5_cif.got.tgz:9609.got - 2010.04.10 21:57:39.
