data_PCOD8276029
_publ_section_title
;
Structure prediction by ZEFSAII (Michael W. Deem and Ramdas Pophale) SiO2 
 PCOD8276029
Probable space group: C C C M
;
_chemical_formula_sum "Si O2"
_cell_formula_units_Z 120
_cell_length_a 26.419708
_cell_length_b 27.781794
_cell_length_c 9.176062
_cell_angle_alpha 90.000000
_cell_angle_beta 90.000000
_cell_angle_gamma 90.000000
_cell_volume 6735.109166
_symmetry_space_group_name_H-M "C C C M"
_symmetry_group_IT_number 66
_symmetry_cell_setting 'orthorhombic'
loop_
_space_group_symop_operation_xyz
x,y,z
-x,-y,z
x,-y,1/2-z
-x,y,1/2-z
-x,-y,-z
x,y,-z
-x,y,1/2+z
x,-y,1/2+z
1/2+x,1/2+y,z
1/2-x,1/2-y,z
1/2+x,1/2-y,1/2-z
1/2-x,1/2+y,1/2-z
1/2-x,1/2-y,-z
1/2+x,1/2+y,-z
1/2-x,1/2+y,1/2+z
1/2+x,1/2-y,1/2+z
loop_
_atom_site_type_symbol
_atom_site_label
_atom_site_fract_x
_atom_site_fract_y
_atom_site_fract_z
Si Si1 0.247212 0.856742 0.166729
Si Si2 0.150128 0.312480 0.669340
Si Si3 0.191320 0.951718 0.171484
Si Si4 0.500000 0.378637 0.750000
Si Si5 0.178945 0.784098 0.673038
Si Si6 0.570981 0.298307 0.339599
Si Si7 0.422485 0.455321 0.661358
Si Si8 0.950461 0.694363 0.825159
O O1 0.308226 0.855263 0.177804
O O2 0.226809 0.908066 0.224354
O O3 0.225301 0.814300 0.265752
O O4 0.229249 0.848728 0.000000
O O5 0.136985 0.300986 0.500000
O O6 0.176084 0.266957 0.747032
O O7 0.100270 0.329730 0.757980
O O8 0.133057 0.940114 0.219495
O O9 0.210372 0.000000 0.250000
O O10 0.195919 0.959671 0.000000
O O11 0.533445 0.343462 0.651156
O O12 0.461349 0.410865 0.658499
O O13 0.186595 0.776933 0.500000
O O14 0.126880 0.812773 0.717101
O O15 0.580177 0.278439 0.500000
O O16 0.549959 0.249995 0.263401
O O17 0.445517 0.500000 0.750000
O O18 0.416757 0.475320 0.500000
O O19 0.000000 0.670508 0.750000
O O20 0.952511 0.687390 0.000000
#
# Coordination Sequence:
#
# PCOD8276029 Si02
#       8
#    16  16  16   8  16  16  16  16
#     4  10  20  34  52  74 100 128 165 207 252 310
#     4  10  20  33  50  73 101 135 169 206 250 296
#     4   9  19  37  55  73  95 124 162 207 258 314
#     4  12  19  30  48  66  88 118 160 208 251 294
#     4  10  20  33  48  69 100 134 168 210 256 304
#     4   9  19  31  43  65  92 120 158 201 244 286
#     4  10  22  36  50  65  85 115 153 199 256 309
#     4  10  19  34  51  71 100 134 169 202 236 280
#
# _framework density 17.817084000000001
#
# number of rings (size 3 to 8) (size 9 to 14) (size 15 to 20)
#    0.000    2.133    0.667    3.800    0.000    4.800 
#    0.000    4.000    0.000    0.000    0.000    0.000 
#    0.000    0.533    0.000    6.133    0.000    1.867 
#
# Total GULP energy -743422.391163 kJ/mol
# GULP energy per Si atom -12390.373186 kJ/mol
# Density = 1.777653 g / cm^3
# Si number density = 17.817084 Si / 1000 Ang^3
#
#
#
# Elastic Constant Matrix: (Units=GPa)
#
#
# Indices 1 2 3 4 5 6 
#
# 1 120.7569 40.7563 38.4960 0.0000 0.0000 0.0000
# 2 40.7563 51.5804 17.3932 0.0000 0.0000 0.0000
# 3 38.4960 17.3932 81.8948 0.0000 0.0000 0.0000
# 4 0.0000 0.0000 0.0000 18.2278 0.0000 0.0000
# 5 0.0000 0.0000 0.0000 0.0000 24.2721 0.0000
# 6 0.0000 0.0000 0.0000 0.0000 0.0000 31.0605
#
#
#
# Elastic Compliance Matrix: (Units=1/GPa)
#
#
# Indices 1 2 3 4 5 6 
#
# 1 0.012423 -0.008452 -0.004045 0.000000 0.000000 0.000000
# 2 -0.008452 0.026634 -0.001683 0.000000 0.000000 0.000000
# 3 -0.004045 -0.001683 0.014470 0.000000 0.000000 0.000000
# 4 0.000000 0.000000 0.000000 0.054861 0.000000 0.000000
# 5 0.000000 0.000000 0.000000 0.000000 0.041200 0.000000
# 6 0.000000 0.000000 0.000000 0.000000 0.000000 0.032195
#
#
# Mechanical properties :
#
#
# Convention : Reuss Voigt Hill
#
# Bulk Modulus (GPa) = 39.73678 49.72480 44.73079
# Shear Modulus (GPa) = 22.87998 25.21783 24.04891
#
# Velocity S-wave (km/s) = 3.58741 3.76623 3.67790
# Velocity P-wave (km/s) = 6.28573 6.84702 6.57237
#
# Compressibility (1/GPa) = 0.02516560
#
# Stress axis : x y z
#
# Youngs Moduli (GPa) = 80.49459 37.54669 69.11074
#
# Poissons Ratio (x) = 0.31736 0.27952
# Poissons Ratio (y) = 0.68037 0.11634
# Poissons Ratio (z) = 0.32557 0.06321
#
# Static dielectric constant tensor:
#      x y z
#    x 3.512980 0.000000 0.000000 
#    y 0.000000 2.947200 0.000000 
#    z 0.000000 0.000000 3.214090 
# 
# 
# High freq. dielectric constant tensor:
#      x y z
#    x 1.697770 0.000000 0.000000 
#    y 0.000000 1.641050 0.000000 
#    z 0.000000 0.000000 1.689820 
# 
# From -- ./inp_files/10758.got.cif
#   From: 2010.03.12/outbox.cif.g09.slc.cpg/sg66_6_cif.got.tgz:10758.got - 2010.04.10 21:57:39.
