data_PCOD8276251
_publ_section_title
;
Structure prediction by ZEFSAII (Michael W. Deem and Ramdas Pophale) SiO2 
 PCOD8276251
Probable space group: C C C M
;
_chemical_formula_sum "Si O2"
_cell_formula_units_Z 104
_cell_length_a 19.447119
_cell_length_b 8.954192
_cell_length_c 29.368719
_cell_angle_alpha 90.000000
_cell_angle_beta 90.000000
_cell_angle_gamma 90.000000
_cell_volume 5114.070117
_symmetry_space_group_name_H-M "C C C M"
_symmetry_group_IT_number 66
_symmetry_cell_setting 'orthorhombic'
loop_
_space_group_symop_operation_xyz
x,y,z
-x,-y,z
x,-y,1/2-z
-x,y,1/2-z
-x,-y,-z
x,y,-z
-x,y,1/2+z
x,-y,1/2+z
1/2+x,1/2+y,z
1/2-x,1/2-y,z
1/2+x,1/2-y,1/2-z
1/2-x,1/2+y,1/2-z
1/2-x,1/2-y,-z
1/2+x,1/2+y,-z
1/2-x,1/2+y,1/2+z
1/2+x,1/2-y,1/2+z
loop_
_atom_site_type_symbol
_atom_site_label
_atom_site_fract_x
_atom_site_fract_y
_atom_site_fract_z
Si Si1 0.750000 0.750000 0.834994
Si Si2 0.453179 0.144498 0.376411
Si Si3 0.325863 0.760814 0.163778
Si Si4 0.467249 0.656492 0.687202
Si Si5 0.856728 0.042171 0.374864
Si Si6 0.640543 0.164681 0.738629
Si Si7 0.065300 0.105440 0.550981
O O1 0.784750 0.871319 0.868585
O O2 0.693620 0.833893 0.803776
O O3 0.372586 0.113335 0.362807
O O4 0.476298 0.226148 0.329793
O O5 0.454844 0.245580 0.421516
O O6 0.500000 0.000000 0.385743
O O7 0.250000 0.750000 0.141497
O O8 0.361085 0.600563 0.157742
O O9 0.317915 0.782576 0.217447
O O10 0.500000 0.500000 0.702949
O O11 0.419500 0.643481 0.642345
O O12 0.424304 0.726114 0.729308
O O13 0.870965 0.986410 0.426436
O O14 0.612403 0.000000 0.750000
O O15 0.087598 0.151065 0.500000
O O16 0.000000 0.000000 0.550100
#
# Coordination Sequence:
#
# PCOD8276251 Si02
#       7
#     8  16  16  16  16  16  16
#     4  10  22  32  61  84 124 162 209 248 296 372
#     4  11  22  39  62  90 126 158 199 258 315 370
#     4  11  22  39  57  83 123 166 207 242 310 364
#     4  11  20  41  61  85 115 158 211 255 304 368
#     4  10  20  39  60  88 115 158 198 251 305 370
#     4  11  23  37  56  87 123 160 213 261 299 352
#     4  10  19  38  67  92 118 151 197 254 315 382
#
# _framework density 20.336054000000001
#
# number of rings (size 3 to 8) (size 9 to 14) (size 15 to 20)
#    0.000    1.385    5.385    1.846    0.000    4.000 
#    2.769    1.923    0.000    7.385    0.000    0.000 
#    0.000    0.000    0.000    0.000    0.000    0.000 
#
# Total GULP energy -644506.267628 kJ/mol
# GULP energy per Si atom -12394.351301 kJ/mol
# Density = 2.028977 g / cm^3
# Si number density = 20.336054 Si / 1000 Ang^3
#
#
#
# Elastic Constant Matrix: (Units=GPa)
#
#
# Indices 1 2 3 4 5 6 
#
# 1 119.8675 52.4785 45.9901 0.0000 0.0000 0.0000
# 2 52.4785 109.3114 53.1182 0.0000 0.0000 0.0000
# 3 45.9901 53.1182 120.9219 0.0000 0.0000 0.0000
# 4 0.0000 0.0000 0.0000 20.4787 0.0000 0.0000
# 5 0.0000 0.0000 0.0000 0.0000 23.6506 0.0000
# 6 0.0000 0.0000 0.0000 0.0000 0.0000 39.5072
#
#
#
# Elastic Compliance Matrix: (Units=1/GPa)
#
#
# Indices 1 2 3 4 5 6 
#
# 1 0.011079 -0.004159 -0.002387 0.000000 0.000000 0.000000
# 2 -0.004159 0.013192 -0.004213 0.000000 0.000000 0.000000
# 3 -0.002387 -0.004213 0.011028 0.000000 0.000000 0.000000
# 4 0.000000 0.000000 0.000000 0.048831 0.000000 0.000000
# 5 0.000000 0.000000 0.000000 0.000000 0.042282 0.000000
# 6 0.000000 0.000000 0.000000 0.000000 0.000000 0.025312
#
#
# Mechanical properties :
#
#
# Convention : Reuss Voigt Hill
#
# Bulk Modulus (GPa) = 72.56051 72.58603 72.57327
# Shear Modulus (GPa) = 28.11563 29.96156 29.03860
#
# Velocity S-wave (km/s) = 3.72230 3.84255 3.78290
# Velocity P-wave (km/s) = 7.36425 7.44699 7.40574
#
# Compressibility (1/GPa) = 0.01378160
#
# Stress axis : x y z
#
# Youngs Moduli (GPa) = 90.25969 75.80213 90.67578
#
# Poissons Ratio (x) = 0.31527 0.21642
# Poissons Ratio (y) = 0.37540 0.38204
# Poissons Ratio (z) = 0.21542 0.31937
#
# Static dielectric constant tensor:
#      x y z
#    x 3.951660 0.000000 0.000000 
#    y 0.000000 3.661230 0.000000 
#    z 0.000000 0.000000 3.611090 
# 
# 
# High freq. dielectric constant tensor:
#      x y z
#    x 1.806200 0.000000 0.000000 
#    y 0.000000 1.790250 0.000000 
#    z 0.000000 0.000000 1.761710 
# 
# From -- ./inp_files/70203.got.cif
#   From: 2010.03.12/outbox.cif.g09.slc.cpg/sg66_36_cif.got.tgz:70203.got - 2010.04.10 21:57:39.
