data_PCOD8276671
_publ_section_title
;
Structure prediction by ZEFSAII (Michael W. Deem and Ramdas Pophale) SiO2 
 PCOD8276671
Probable space group: C C C M
;
_chemical_formula_sum "Si O2"
_cell_formula_units_Z 112
_cell_length_a 15.706553
_cell_length_b 22.444333
_cell_length_c 14.505928
_cell_angle_alpha 90.000000
_cell_angle_beta 90.000000
_cell_angle_gamma 90.000000
_cell_volume 5113.674791
_symmetry_space_group_name_H-M "C C C M"
_symmetry_group_IT_number 66
_symmetry_cell_setting 'orthorhombic'
loop_
_space_group_symop_operation_xyz
x,y,z
-x,-y,z
x,-y,1/2-z
-x,y,1/2-z
-x,-y,-z
x,y,-z
-x,y,1/2+z
x,-y,1/2+z
1/2+x,1/2+y,z
1/2-x,1/2-y,z
1/2+x,1/2-y,1/2-z
1/2-x,1/2+y,1/2-z
1/2-x,1/2-y,-z
1/2+x,1/2+y,-z
1/2-x,1/2+y,1/2+z
1/2+x,1/2-y,1/2+z
loop_
_atom_site_type_symbol
_atom_site_label
_atom_site_fract_x
_atom_site_fract_y
_atom_site_fract_z
Si Si1 0.146212 0.364998 0.211070
Si Si2 0.129711 0.850886 0.898887
Si Si3 0.517706 0.565577 0.142548
Si Si4 0.803293 0.413276 0.101909
Si Si5 0.348124 0.264886 0.768035
Si Si6 0.679152 0.635515 0.105887
Si Si7 0.910884 0.482030 0.645156
O O1 0.139929 0.383082 0.318880
O O2 0.106639 0.298482 0.209278
O O3 0.242601 0.370575 0.175463
O O4 0.095677 0.409961 0.143268
O O5 0.204432 0.898888 0.874815
O O6 0.119343 0.798435 0.823784
O O7 0.042422 0.887093 0.906932
O O8 0.146491 0.822100 0.000000
O O9 0.500000 0.500000 0.103059
O O10 0.500000 0.568651 0.250000
O O11 0.615667 0.580194 0.118745
O O12 0.828648 0.484224 0.100547
O O13 0.824851 0.387581 0.000000
O O14 0.250000 0.250000 0.750336
O O15 0.367338 0.304200 0.858833
O O16 0.708356 0.642357 0.000000
O O17 0.913615 0.500000 0.750000
O O18 0.000000 0.500000 0.595481
#
# Coordination Sequence:
#
# PCOD8276671 Si02
#       7
#    16  16  16  16  16  16  16
#     4  10  21  40  66  90 124 167 212 257 318 376
#     4  11  22  38  62  94 130 168 209 256 317 381
#     4  11  23  41  65  92 131 172 211 260 319 381
#     4  10  20  36  61  90 125 162 204 256 314 378
#     4  10  20  40  62  89 121 165 210 261 307 366
#     4  11  23  40  62  92 127 166 214 264 312 374
#     4   9  20  39  61  88 121 160 206 261 316 369
#
# _framework density 21.902059000000001
#
# number of rings (size 3 to 8) (size 9 to 14) (size 15 to 20)
#    0.000    1.714    4.286    0.429    2.000    5.429 
#    0.000    5.714    0.000    1.714    0.000    0.000 
#    0.000    0.000    0.000    0.000    0.000    0.000 
#
# Total GULP energy -693800.051707 kJ/mol
# GULP energy per Si atom -12389.286638 kJ/mol
# Density = 2.185221 g / cm^3
# Si number density = 21.902059 Si / 1000 Ang^3
#
#
#
# Elastic Constant Matrix: (Units=GPa)
#
#
# Indices 1 2 3 4 5 6 
#
# 1 74.0410 45.3712 12.5994 0.0000 0.0000 0.0000
# 2 45.3712 169.9614 36.3832 0.0000 0.0000 0.0000
# 3 12.5994 36.3832 122.1480 0.0000 0.0000 0.0000
# 4 0.0000 0.0000 0.0000 7.3651 0.0000 0.0000
# 5 0.0000 0.0000 0.0000 0.0000 9.1710 0.0000
# 6 0.0000 0.0000 0.0000 0.0000 0.0000 29.5829
#
#
#
# Elastic Compliance Matrix: (Units=1/GPa)
#
#
# Indices 1 2 3 4 5 6 
#
# 1 0.016166 -0.004228 -0.000408 0.000000 0.000000 0.000000
# 2 -0.004228 0.007390 -0.001765 0.000000 0.000000 0.000000
# 3 -0.000408 -0.001765 0.008755 0.000000 0.000000 0.000000
# 4 0.000000 0.000000 0.000000 0.135776 0.000000 0.000000
# 5 0.000000 0.000000 0.000000 0.000000 0.109040 0.000000
# 6 0.000000 0.000000 0.000000 0.000000 0.000000 0.033803
#
#
# Mechanical properties :
#
#
# Convention : Reuss Voigt Hill
#
# Bulk Modulus (GPa) = 51.26002 61.65087 56.45544
# Shear Modulus (GPa) = 15.14065 27.34356 21.24210
#
# Velocity S-wave (km/s) = 2.63209 3.53717 3.11765
# Velocity P-wave (km/s) = 5.71771 6.70012 6.22832
#
# Compressibility (1/GPa) = 0.01950838
#
# Stress axis : x y z
#
# Youngs Moduli (GPa) = 61.85632 135.31274 114.22494
#
# Poissons Ratio (x) = 0.57214 0.04662
# Poissons Ratio (y) = 0.26155 0.20162
# Poissons Ratio (z) = 0.02524 0.23885
#
# Static dielectric constant tensor:
#      x y z
#    x 3.975710 0.000000 0.000000 
#    y 0.000000 4.631210 0.000000 
#    z 0.000000 0.000000 3.980130 
# 
# 
# High freq. dielectric constant tensor:
#      x y z
#    x 1.837050 0.000000 0.000000 
#    y 0.000000 1.855890 0.000000 
#    z 0.000000 0.000000 1.864210 
# 
# From -- ./inp_files/28698.got.cif
#   From: 2010.03.12/outbox.cif.g09.slc.cpg/sg66_15_cif.got.tgz:28698.got - 2010.04.10 21:57:39.
