data_PCOD8276927
_publ_section_title
;
Structure prediction by ZEFSAII (Michael W. Deem and Ramdas Pophale) SiO2 
 PCOD8276927
Probable space group: C C C M
;
_chemical_formula_sum "Si O2"
_cell_formula_units_Z 88
_cell_length_a 13.367285
_cell_length_b 12.698711
_cell_length_c 21.873442
_cell_angle_alpha 90.000000
_cell_angle_beta 90.000000
_cell_angle_gamma 90.000000
_cell_volume 3712.957482
_symmetry_space_group_name_H-M "C C C M"
_symmetry_group_IT_number 66
_symmetry_cell_setting 'orthorhombic'
loop_
_space_group_symop_operation_xyz
x,y,z
-x,-y,z
x,-y,1/2-z
-x,y,1/2-z
-x,-y,-z
x,y,-z
-x,y,1/2+z
x,-y,1/2+z
1/2+x,1/2+y,z
1/2-x,1/2-y,z
1/2+x,1/2-y,1/2-z
1/2-x,1/2+y,1/2-z
1/2-x,1/2-y,-z
1/2+x,1/2+y,-z
1/2-x,1/2+y,1/2+z
1/2+x,1/2-y,1/2+z
loop_
_atom_site_type_symbol
_atom_site_label
_atom_site_fract_x
_atom_site_fract_y
_atom_site_fract_z
Si Si1 0.395030 0.957860 0.681667
Si Si2 0.361195 0.197823 0.500000
Si Si3 0.752070 0.516786 0.000000
Si Si4 0.852339 0.202606 0.871227
Si Si5 0.918417 0.312530 0.500000
Si Si6 0.925413 0.237054 0.364319
Si Si7 0.184488 0.971691 0.628244
O O1 0.381158 0.831837 0.676026
O O2 0.299251 0.999802 0.645715
O O3 0.500000 0.000000 0.651941
O O4 0.388896 0.000000 0.750000
O O5 0.344618 0.275274 0.556847
O O6 0.469178 0.144674 0.500000
O O7 0.280910 0.105180 0.500000
O O8 0.682022 0.547251 0.056230
O O9 0.851317 0.585616 0.000000
O O10 0.750000 0.250000 0.839948
O O11 0.956970 0.249617 0.847456
O O12 0.871021 0.079804 0.856081
O O13 0.900859 0.247025 0.437060
O O14 0.871953 0.128556 0.341114
#
# Coordination Sequence:
#
# PCOD8276927 Si02
#       7
#    16   8   8  16   8  16  16
#     4  11  26  48  70  96 128 174 234 291 347 408
#     4  10  21  35  56  99 146 195 226 272 316 403
#     4  12  21  34  65 104 147 180 225 275 338 414
#     4  11  21  39  64  98 140 187 230 270 329 407
#     4  10  22  34  63 101 145 182 224 273 345 404
#     4  11  24  43  67 103 145 179 224 284 348 413
#     4  12  24  40  71 103 142 180 222 282 345 419
#
# _framework density 23.700782
#
# number of rings (size 3 to 8) (size 9 to 14) (size 15 to 20)
#    0.000    0.909    3.636    3.818    2.545    0.727 
#    0.000   12.727    0.000    1.091    0.000    0.000 
#    0.000    0.000    0.000    0.000    0.000    0.000 
#
# Total GULP energy -545082.076927 kJ/mol
# GULP energy per Si atom -12388.229021 kJ/mol
# Density = 2.364684 g / cm^3
# Si number density = 23.700782 Si / 1000 Ang^3
#
#
#
# Elastic Constant Matrix: (Units=GPa)
#
#
# Indices 1 2 3 4 5 6 
#
# 1 78.5582 14.8650 10.8156 0.0000 0.0000 0.0000
# 2 14.8650 150.8130 20.7871 0.0000 0.0000 0.0000
# 3 10.8156 20.7871 54.0171 0.0000 0.0000 0.0000
# 4 0.0000 0.0000 0.0000 20.7238 0.0000 0.0000
# 5 0.0000 0.0000 0.0000 0.0000 19.8425 0.0000
# 6 0.0000 0.0000 0.0000 0.0000 0.0000 48.3000
#
#
#
# Elastic Compliance Matrix: (Units=1/GPa)
#
#
# Indices 1 2 3 4 5 6 
#
# 1 0.013229 -0.000991 -0.002267 0.000000 0.000000 0.000000
# 2 -0.000991 0.007076 -0.002525 0.000000 0.000000 0.000000
# 3 -0.002267 -0.002525 0.019938 0.000000 0.000000 0.000000
# 4 0.000000 0.000000 0.000000 0.048254 0.000000 0.000000
# 5 0.000000 0.000000 0.000000 0.000000 0.050397 0.000000
# 6 0.000000 0.000000 0.000000 0.000000 0.000000 0.020704
#
#
# Mechanical properties :
#
#
# Convention : Reuss Voigt Hill
#
# Bulk Modulus (GPa) = 34.87115 41.81373 38.34244
# Shear Modulus (GPa) = 27.66649 33.56798 30.61724
#
# Velocity S-wave (km/s) = 3.42032 3.76749 3.59809
# Velocity P-wave (km/s) = 5.50846 6.05029 5.78572
#
# Compressibility (1/GPa) = 0.02867700
#
# Stress axis : x y z
#
# Youngs Moduli (GPa) = 75.59059 141.31412 50.15505
#
# Poissons Ratio (x) = 0.14010 0.11372
# Poissons Ratio (y) = 0.07494 0.12662
# Poissons Ratio (z) = 0.17138 0.35677
#
# Static dielectric constant tensor:
#      x y z
#    x 4.585250 0.000000 0.000000 
#    y 0.000000 4.189180 0.000000 
#    z 0.000000 0.000000 3.960350 
# 
# 
# High freq. dielectric constant tensor:
#      x y z
#    x 1.955610 0.000000 0.000000 
#    y 0.000000 1.951340 0.000000 
#    z 0.000000 0.000000 1.891620 
# 
# From -- ./inp_files/56785.got.cif
#   From: 2010.03.12/outbox.cif.g09.slc.cpg/sg66_29_cif.got.tgz:56785.got - 2010.04.10 21:57:39.
