data_PCOD8276165
_publ_section_title
;
Structure prediction by ZEFSAII (Michael W. Deem and Ramdas Pophale) SiO2 
 PCOD8276165
Probable space group: C C C M
;
_chemical_formula_sum "Si O2"
_cell_formula_units_Z 68
_cell_length_a 9.483486
_cell_length_b 17.827668
_cell_length_c 17.620295
_cell_angle_alpha 90.000000
_cell_angle_beta 90.000000
_cell_angle_gamma 90.000000
_cell_volume 2979.035786
_symmetry_space_group_name_H-M "C C C M"
_symmetry_group_IT_number 66
_symmetry_cell_setting 'orthorhombic'
loop_
_space_group_symop_operation_xyz
x,y,z
-x,-y,z
x,-y,1/2-z
-x,y,1/2-z
-x,-y,-z
x,y,-z
-x,y,1/2+z
x,-y,1/2+z
1/2+x,1/2+y,z
1/2-x,1/2-y,z
1/2+x,1/2-y,1/2-z
1/2-x,1/2+y,1/2-z
1/2-x,1/2-y,-z
1/2+x,1/2+y,-z
1/2-x,1/2+y,1/2+z
1/2+x,1/2-y,1/2+z
loop_
_atom_site_type_symbol
_atom_site_label
_atom_site_fract_x
_atom_site_fract_y
_atom_site_fract_z
Si Si1 0.000000 0.000000 0.250000
Si Si2 0.967789 0.198236 0.587938
Si Si3 0.985096 0.626741 0.911870
Si Si4 0.740986 0.663326 0.342762
Si Si5 0.228824 0.106203 0.821747
O O1 0.890733 0.044337 0.304493
O O2 0.994533 0.186051 0.500000
O O3 0.965819 0.285680 0.608574
O O4 0.819544 0.164595 0.613677
O O5 0.080950 0.145659 0.633076
O O6 0.876699 0.577318 0.859677
O O7 0.147723 0.610860 0.888233
O O8 0.962015 0.606941 0.000000
O O9 0.750000 0.750000 0.366842
O O10 0.764998 0.651423 0.254122
#
# Coordination Sequence:
#
# PCOD8276165 Si02
#       5
#     4  16  16  16  16
#     4  12  28  44  60  80 120 176 228 270 300 344
#     4  10  19  35  62  95 131 159 189 249 319 380
#     4  10  21  36  62 100 128 151 192 256 329 384
#     4  10  19  35  62  96 129 157 190 248 319 382
#     4  12  22  40  60  82 120 167 221 253 296 361
#
# _framework density 22.826177999999999
#
# number of rings (size 3 to 8) (size 9 to 14) (size 15 to 20)
#    0.000    1.412    2.353    4.235    0.000    8.471 
#    0.000    4.706    0.000    1.412    0.000    0.000 
#    0.000    0.000    0.000    0.000    0.000    0.000 
#
# Total GULP energy -421265.129840 kJ/mol
# GULP energy per Si atom -12390.150878 kJ/mol
# Density = 2.277422 g / cm^3
# Si number density = 22.826178 Si / 1000 Ang^3
#
#
#
# Elastic Constant Matrix: (Units=GPa)
#
#
# Indices 1 2 3 4 5 6 
#
# 1 129.6526 17.1270 46.4572 0.0000 0.0000 0.0000
# 2 17.1270 33.7105 8.6797 0.0000 0.0000 0.0000
# 3 46.4572 8.6797 115.5641 0.0000 0.0000 0.0000
# 4 0.0000 0.0000 0.0000 13.1798 0.0000 0.0000
# 5 0.0000 0.0000 0.0000 0.0000 36.2908 0.0000
# 6 0.0000 0.0000 0.0000 0.0000 0.0000 10.9620
#
#
#
# Elastic Compliance Matrix: (Units=1/GPa)
#
#
# Indices 1 2 3 4 5 6 
#
# 1 0.009492 -0.003916 -0.003522 0.000000 0.000000 0.000000
# 2 -0.003916 0.031865 -0.000819 0.000000 0.000000 0.000000
# 3 -0.003522 -0.000819 0.010130 0.000000 0.000000 0.000000
# 4 0.000000 0.000000 0.000000 0.075874 0.000000 0.000000
# 5 0.000000 0.000000 0.000000 0.000000 0.027555 0.000000
# 6 0.000000 0.000000 0.000000 0.000000 0.000000 0.091224
#
#
# Mechanical properties :
#
#
# Convention : Reuss Voigt Hill
#
# Bulk Modulus (GPa) = 28.59266 47.05056 37.82161
# Shear Modulus (GPa) = 18.22743 25.86407 22.04575
#
# Velocity S-wave (km/s) = 2.82890 3.36979 3.11112
# Velocity P-wave (km/s) = 4.81909 5.98314 5.43238
#
# Compressibility (1/GPa) = 0.03497401
#
# Stress axis : x y z
#
# Youngs Moduli (GPa) = 105.35067 31.38264 98.71187
#
# Poissons Ratio (x) = 0.12289 0.34764
# Poissons Ratio (y) = 0.41253 0.08086
# Poissons Ratio (z) = 0.37102 0.02571
#
# Static dielectric constant tensor:
#      x y z
#    x 4.651160 0.000000 0.000000 
#    y 0.000000 3.639190 0.000000 
#    z 0.000000 0.000000 3.871110 
# 
# 
# High freq. dielectric constant tensor:
#      x y z
#    x 1.932390 0.000000 0.000000 
#    y 0.000000 1.850420 0.000000 
#    z 0.000000 0.000000 1.902180 
# 
# From -- ./inp_files/36478.got.cif
#   From: 2010.03.12/outbox.cif.g09.slc.cpg/sg66_19_cif.got.tgz:36478.got - 2010.04.10 21:57:39.
