data_PCOD8276791
_publ_section_title
;
Structure prediction by ZEFSAII (Michael W. Deem and Ramdas Pophale) SiO2 
 PCOD8276791
Probable space group: C C C M
;
_chemical_formula_sum "Si O2"
_cell_formula_units_Z 80
_cell_length_a 14.538866
_cell_length_b 11.213091
_cell_length_c 23.663299
_cell_angle_alpha 90.000000
_cell_angle_beta 90.000000
_cell_angle_gamma 90.000000
_cell_volume 3857.724168
_symmetry_space_group_name_H-M "C C C M"
_symmetry_group_IT_number 66
_symmetry_cell_setting 'orthorhombic'
loop_
_space_group_symop_operation_xyz
x,y,z
-x,-y,z
x,-y,1/2-z
-x,y,1/2-z
-x,-y,-z
x,y,-z
-x,y,1/2+z
x,-y,1/2+z
1/2+x,1/2+y,z
1/2-x,1/2-y,z
1/2+x,1/2-y,1/2-z
1/2-x,1/2+y,1/2-z
1/2-x,1/2-y,-z
1/2+x,1/2+y,-z
1/2-x,1/2+y,1/2+z
1/2+x,1/2-y,1/2+z
loop_
_atom_site_type_symbol
_atom_site_label
_atom_site_fract_x
_atom_site_fract_y
_atom_site_fract_z
Si Si1 0.000000 0.699806 0.250000
Si Si2 0.648377 0.277596 0.935923
Si Si3 0.204410 0.372952 0.855167
Si Si4 0.357243 0.555377 0.435784
Si Si5 0.026561 0.758013 0.371103
Si Si6 0.352332 0.000000 0.250000
O O1 0.012663 0.784598 0.304391
O O2 0.087643 0.616822 0.237610
O O3 0.750000 0.250000 0.910887
O O4 0.623230 0.416171 0.933522
O O5 0.569058 0.213428 0.899195
O O6 0.644219 0.228785 0.000000
O O7 0.250000 0.250000 0.833092
O O8 0.257111 0.420916 0.909867
O O9 0.099579 0.350537 0.875487
O O10 0.210134 0.470439 0.804848
O O11 0.358406 0.602786 0.500000
O O12 0.435934 0.622992 0.400823
#
# Coordination Sequence:
#
# PCOD8276791 Si02
#       6
#     8  16  16  16  16   8
#     4   9  20  36  59  86 118 155 202 242 297 362
#     4  10  22  39  58  85 117 155 202 248 299 355
#     4   9  20  37  60  92 118 154 200 238 295 364
#     4  10  21  39  60  88 121 156 198 247 301 358
#     4  10  20  38  60  85 117 155 197 244 295 357
#     4   9  18  38  58  80 127 158 186 249 300 348
#
# _framework density 20.737615999999999
#
# number of rings (size 3 to 8) (size 9 to 14) (size 15 to 20)
#    0.000    2.400    0.000    1.200    2.800    6.000 
#   10.800    1.000    0.000    3.600    0.000    0.000 
#    0.000    0.000    0.000    0.000    0.000    0.000 
#
# Total GULP energy -495939.569644 kJ/mol
# GULP energy per Si atom -12398.489241 kJ/mol
# Density = 2.069042 g / cm^3
# Si number density = 20.737616 Si / 1000 Ang^3
#
#
#
# Elastic Constant Matrix: (Units=GPa)
#
#
# Indices 1 2 3 4 5 6 
#
# 1 146.9298 15.1664 74.3553 0.0000 0.0000 0.0000
# 2 15.1664 50.1169 47.8879 0.0000 0.0000 0.0000
# 3 74.3553 47.8879 160.8522 0.0000 0.0000 0.0000
# 4 0.0000 0.0000 0.0000 30.1670 0.0000 0.0000
# 5 0.0000 0.0000 0.0000 0.0000 34.4674 0.0000
# 6 0.0000 0.0000 0.0000 0.0000 0.0000 16.8718
#
#
#
# Elastic Compliance Matrix: (Units=1/GPa)
#
#
# Indices 1 2 3 4 5 6 
#
# 1 0.008993 0.001748 -0.004677 0.000000 0.000000 0.000000
# 2 0.001748 0.028226 -0.009211 0.000000 0.000000 0.000000
# 3 -0.004677 -0.009211 0.011121 0.000000 0.000000 0.000000
# 4 0.000000 0.000000 0.000000 0.033149 0.000000 0.000000
# 5 0.000000 0.000000 0.000000 0.000000 0.029013 0.000000
# 6 0.000000 0.000000 0.000000 0.000000 0.000000 0.059271
#
#
# Mechanical properties :
#
#
# Convention : Reuss Voigt Hill
#
# Bulk Modulus (GPa) = 41.56520 70.30200 55.93360
# Shear Modulus (GPa) = 24.74356 31.00052 27.87204
#
# Velocity S-wave (km/s) = 3.45798 3.87058 3.67008
# Velocity P-wave (km/s) = 6.00253 7.34503 6.70745
#
# Compressibility (1/GPa) = 0.02405859
#
# Stress axis : x y z
#
# Youngs Moduli (GPa) = 111.20367 35.42844 89.91766
#
# Poissons Ratio (x) = -0.06193 0.42057
# Poissons Ratio (y) = -0.19437 0.82825
# Poissons Ratio (z) = 0.52013 0.32634
#
# Static dielectric constant tensor:
#      x y z
#    x 3.953540 0.000000 0.000000 
#    y 0.000000 3.477150 0.000000 
#    z 0.000000 0.000000 3.911170 
# 
# 
# High freq. dielectric constant tensor:
#      x y z
#    x 1.822320 0.000000 0.000000 
#    y 0.000000 1.783110 0.000000 
#    z 0.000000 0.000000 1.812360 
# 
# From -- ./inp_files/57942.got.cif
#   From: 2010.03.12/outbox.cif.g09.slc.cpg/sg66_29_cif.got.tgz:57942.got - 2010.04.10 21:57:39.
