data_PCOD8276432
_publ_section_title
;
Structure prediction by ZEFSAII (Michael W. Deem and Ramdas Pophale) SiO2 
 PCOD8276432
Probable space group: C C C M
;
_chemical_formula_sum "Si O2"
_cell_formula_units_Z 48
_cell_length_a 15.595392
_cell_length_b 8.816416
_cell_length_c 18.888645
_cell_angle_alpha 90.000000
_cell_angle_beta 90.000000
_cell_angle_gamma 90.000000
_cell_volume 2597.103000
_symmetry_space_group_name_H-M "C C C M"
_symmetry_group_IT_number 66
_symmetry_cell_setting 'orthorhombic'
loop_
_space_group_symop_operation_xyz
x,y,z
-x,-y,z
x,-y,1/2-z
-x,y,1/2-z
-x,-y,-z
x,y,-z
-x,y,1/2+z
x,-y,1/2+z
1/2+x,1/2+y,z
1/2-x,1/2-y,z
1/2+x,1/2-y,1/2-z
1/2-x,1/2+y,1/2-z
1/2-x,1/2-y,-z
1/2+x,1/2+y,-z
1/2-x,1/2+y,1/2+z
1/2+x,1/2-y,1/2+z
loop_
_atom_site_type_symbol
_atom_site_label
_atom_site_fract_x
_atom_site_fract_y
_atom_site_fract_z
Si Si1 0.518413 0.675465 0.918573
Si Si2 0.918955 0.610490 0.674622
Si Si3 0.844591 0.687746 0.179891
O O1 0.500000 0.500000 0.908536
O O2 0.437912 0.771184 0.887860
O O3 0.606111 0.713220 0.878284
O O4 0.529619 0.720792 0.000000
O O5 0.894812 0.704004 0.745264
O O6 0.841950 0.491299 0.656714
O O7 0.000000 0.500000 0.686690
O O8 0.750000 0.750000 0.187950
#
# Coordination Sequence:
#
# PCOD8276432 Si02
#       3
#    16  16  16
#     4  10  21  36  54  77 105 140 180 217 259 315
#     4   9  19  37  56  77 104 140 182 215 258 322
#     4  10  20  34  55  81 107 134 171 220 268 314
#
# _framework density 18.482130999999999
#
# number of rings (size 3 to 8) (size 9 to 14) (size 15 to 20)
#    0.000    2.333    0.000    7.000    0.000   14.667 
#    0.000    0.000    0.000    5.000    0.000    0.000 
#    0.000    0.000    0.000    0.000    0.000    0.000 
#
# Total GULP energy -297371.155702 kJ/mol
# GULP energy per Si atom -12390.464821 kJ/mol
# Density = 1.844006 g / cm^3
# Si number density = 18.482131 Si / 1000 Ang^3
#
#
#
# Elastic Constant Matrix: (Units=GPa)
#
#
# Indices 1 2 3 4 5 6 
#
# 1 101.2786 56.6833 64.5997 0.0000 0.0000 0.0000
# 2 56.6833 104.4048 80.9614 0.0000 0.0000 0.0000
# 3 64.5997 80.9614 154.6887 0.0000 0.0000 0.0000
# 4 0.0000 0.0000 0.0000 31.7549 0.0000 0.0000
# 5 0.0000 0.0000 0.0000 0.0000 7.7690 0.0000
# 6 0.0000 0.0000 0.0000 0.0000 0.0000 35.4753
#
#
#
# Elastic Compliance Matrix: (Units=1/GPa)
#
#
# Indices 1 2 3 4 5 6 
#
# 1 0.015182 -0.005598 -0.003410 0.000000 0.000000 0.000000
# 2 -0.005598 0.018185 -0.007180 0.000000 0.000000 0.000000
# 3 -0.003410 -0.007180 0.011647 0.000000 0.000000 0.000000
# 4 0.000000 0.000000 0.000000 0.031491 0.000000 0.000000
# 5 0.000000 0.000000 0.000000 0.000000 0.128717 0.000000
# 6 0.000000 0.000000 0.000000 0.000000 0.000000 0.028189
#
#
# Mechanical properties :
#
#
# Convention : Reuss Voigt Hill
#
# Bulk Modulus (GPa) = 79.13142 84.98453 82.05797
# Shear Modulus (GPa) = 18.51851 25.54167 22.03009
#
# Velocity S-wave (km/s) = 3.16882 3.72151 3.45623
# Velocity P-wave (km/s) = 7.50311 8.03418 7.77318
#
# Compressibility (1/GPa) = 0.01263721
#
# Stress axis : x y z
#
# Youngs Moduli (GPa) = 65.86702 54.98974 85.86185
#
# Poissons Ratio (x) = 0.30784 0.29281
# Poissons Ratio (y) = 0.36873 0.61649
# Poissons Ratio (z) = 0.22462 0.39482
#
# Static dielectric constant tensor:
#      x y z
#    x 3.480090 0.000000 0.000000 
#    y 0.000000 4.010570 0.000000 
#    z 0.000000 0.000000 3.411150 
# 
# 
# High freq. dielectric constant tensor:
#      x y z
#    x 1.696000 0.000000 0.000000 
#    y 0.000000 1.724600 0.000000 
#    z 0.000000 0.000000 1.714570 
# 
# From -- ./inp_files/23634.got.cif
#   From: 2010.03.12/outbox.cif.g09.slc.cpg/sg66_12_cif.got.tgz:23634.got - 2010.04.10 21:57:39.
