data_PCOD8276700
_publ_section_title
;
Structure prediction by ZEFSAII (Michael W. Deem and Ramdas Pophale) SiO2 
 PCOD8276700
Probable space group: C C C M
;
_chemical_formula_sum "Si O2"
_cell_formula_units_Z 96
_cell_length_a 9.555153
_cell_length_b 30.580295
_cell_length_c 17.273717
_cell_angle_alpha 90.000000
_cell_angle_beta 90.000000
_cell_angle_gamma 90.000000
_cell_volume 5047.369700
_symmetry_space_group_name_H-M "C C C M"
_symmetry_group_IT_number 66
_symmetry_cell_setting 'orthorhombic'
loop_
_space_group_symop_operation_xyz
x,y,z
-x,-y,z
x,-y,1/2-z
-x,y,1/2-z
-x,-y,-z
x,y,-z
-x,y,1/2+z
x,-y,1/2+z
1/2+x,1/2+y,z
1/2-x,1/2-y,z
1/2+x,1/2-y,1/2-z
1/2-x,1/2+y,1/2-z
1/2-x,1/2-y,-z
1/2+x,1/2+y,-z
1/2-x,1/2+y,1/2+z
1/2+x,1/2-y,1/2+z
loop_
_atom_site_type_symbol
_atom_site_label
_atom_site_fract_x
_atom_site_fract_y
_atom_site_fract_z
Si Si1 0.254356 0.298504 0.090994
Si Si2 0.475973 0.358615 0.163552
Si Si3 0.747873 0.095659 0.862444
Si Si4 0.745355 0.072059 0.315159
Si Si5 0.163485 0.996069 0.086391
Si Si6 0.955500 0.627657 0.909886
O O1 0.250000 0.250000 0.128323
O O2 0.399027 0.320678 0.116741
O O3 0.116811 0.326409 0.116632
O O4 0.258506 0.294589 0.000000
O O5 0.500000 0.341348 0.250000
O O6 0.625242 0.370374 0.127462
O O7 0.385039 0.402644 0.160005
O O8 0.723782 0.077356 0.776072
O O9 0.779141 0.053411 0.914406
O O10 0.619841 0.125279 0.892580
O O11 0.610183 0.089360 0.359391
O O12 0.759990 0.022371 0.344678
O O13 0.194306 0.015094 0.000000
O O14 0.000000 0.000000 0.104509
O O15 0.924484 0.619538 0.000000
#
# Coordination Sequence:
#
# PCOD8276700 Si02
#       6
#    16  16  16  16  16  16
#     4   9  19  38  62  83 109 147 185 219 273 349
#     4   9  19  35  56  82 110 142 184 227 277 332
#     4  11  21  35  56  83 113 145 187 237 282 321
#     4  10  20  37  56  76 109 154 190 221 277 338
#     4  11  22  34  53  82 113 147 193 238 276 321
#     4  10  21  37  56  81 112 143 181 231 281 331
#
# _framework density 19.019808000000001
#
# number of rings (size 3 to 8) (size 9 to 14) (size 15 to 20)
#    0.000    2.000    1.667    2.000    0.000    3.333 
#    0.000    9.167    0.000    3.000    0.000    0.000 
#    0.000    0.000    0.000    0.000    0.000    0.000 
#
# Total GULP energy -595049.243467 kJ/mol
# GULP energy per Si atom -12396.859239 kJ/mol
# Density = 1.897652 g / cm^3
# Si number density = 19.019808 Si / 1000 Ang^3
#
#
#
# Elastic Constant Matrix: (Units=GPa)
#
#
# Indices 1 2 3 4 5 6 
#
# 1 120.3571 49.3994 18.4552 0.0000 0.0000 0.0000
# 2 49.3994 117.3031 23.6594 0.0000 0.0000 0.0000
# 3 18.4552 23.6594 50.8939 0.0000 0.0000 0.0000
# 4 0.0000 0.0000 0.0000 12.4385 0.0000 0.0000
# 5 0.0000 0.0000 0.0000 0.0000 30.9422 0.0000
# 6 0.0000 0.0000 0.0000 0.0000 0.0000 17.1387
#
#
#
# Elastic Compliance Matrix: (Units=1/GPa)
#
#
# Indices 1 2 3 4 5 6 
#
# 1 0.010205 -0.003919 -0.001879 0.000000 0.000000 0.000000
# 2 -0.003919 0.010912 -0.003652 0.000000 0.000000 0.000000
# 3 -0.001879 -0.003652 0.022028 0.000000 0.000000 0.000000
# 4 0.000000 0.000000 0.000000 0.080396 0.000000 0.000000
# 5 0.000000 0.000000 0.000000 0.000000 0.032318 0.000000
# 6 0.000000 0.000000 0.000000 0.000000 0.000000 0.058348
#
#
# Mechanical properties :
#
#
# Convention : Reuss Voigt Hill
#
# Bulk Modulus (GPa) = 41.24380 52.39802 46.82091
# Shear Modulus (GPa) = 20.73085 25.23986 22.98536
#
# Velocity S-wave (km/s) = 3.30504 3.64679 3.48011
# Velocity P-wave (km/s) = 6.02462 6.73358 6.38895
#
# Compressibility (1/GPa) = 0.02424607
#
# Stress axis : x y z
#
# Youngs Moduli (GPa) = 97.99027 91.64480 45.39760
#
# Poissons Ratio (x) = 0.35913 0.08530
# Poissons Ratio (y) = 0.38399 0.16577
# Poissons Ratio (z) = 0.18411 0.33465
#
# Static dielectric constant tensor:
#      x y z
#    x 3.543610 0.000000 0.000000 
#    y 0.000000 3.467320 0.000000 
#    z 0.000000 0.000000 3.461320 
# 
# 
# High freq. dielectric constant tensor:
#      x y z
#    x 1.740120 0.000000 0.000000 
#    y 0.000000 1.720040 0.000000 
#    z 0.000000 0.000000 1.742480 
# 
# From -- ./inp_files/47329.got.cif
#   From: 2010.03.12/outbox.cif.g09.slc.cpg/sg66_24_cif.got.tgz:47329.got - 2010.04.10 21:57:39.
