data_PCOD8276852
_publ_section_title
;
Structure prediction by ZEFSAII (Michael W. Deem and Ramdas Pophale) SiO2 
 PCOD8276852
Probable space group: C C C M
;
_chemical_formula_sum "Si O2"
_cell_formula_units_Z 104
_cell_length_a 18.860489
_cell_length_b 9.328916
_cell_length_c 28.697339
_cell_angle_alpha 90.000000
_cell_angle_beta 90.000000
_cell_angle_gamma 90.000000
_cell_volume 5049.237038
_symmetry_space_group_name_H-M "C C C M"
_symmetry_group_IT_number 66
_symmetry_cell_setting 'orthorhombic'
loop_
_space_group_symop_operation_xyz
x,y,z
-x,-y,z
x,-y,1/2-z
-x,y,1/2-z
-x,-y,-z
x,y,-z
-x,y,1/2+z
x,-y,1/2+z
1/2+x,1/2+y,z
1/2-x,1/2-y,z
1/2+x,1/2-y,1/2-z
1/2-x,1/2+y,1/2-z
1/2-x,1/2-y,-z
1/2+x,1/2+y,-z
1/2-x,1/2+y,1/2+z
1/2+x,1/2-y,1/2+z
loop_
_atom_site_type_symbol
_atom_site_label
_atom_site_fract_x
_atom_site_fract_y
_atom_site_fract_z
Si Si1 0.750000 0.750000 0.819668
Si Si2 0.467050 0.154148 0.379098
Si Si3 0.330033 0.750286 0.146853
Si Si4 0.473792 0.659179 0.696636
Si Si5 0.854719 0.071611 0.370617
Si Si6 0.630558 0.164294 0.752105
Si Si7 0.953092 0.140984 0.553306
O O1 0.777570 0.874627 0.854442
O O2 0.687944 0.816651 0.788727
O O3 0.380932 0.146301 0.384867
O O4 0.469667 0.236831 0.328737
O O5 0.504847 0.229378 0.422450
O O6 0.500000 0.000000 0.372334
O O7 0.250000 0.750000 0.127208
O O8 0.362887 0.593929 0.140186
O O9 0.329191 0.797384 0.200626
O O10 0.500000 0.500000 0.708613
O O11 0.412612 0.657518 0.658531
O O12 0.437974 0.728827 0.743872
O O13 0.875586 0.109812 0.424053
O O14 0.604145 0.000000 0.750000
O O15 0.940612 0.183877 0.500000
O O16 0.000000 0.000000 0.559237
#
# Coordination Sequence:
#
# PCOD8276852 Si02
#       7
#     8  16  16  16  16  16  16
#     4  10  22  34  61  86 134 170 215 262 316 390
#     4  11  22  40  63  94 128 161 207 267 324 384
#     4  12  23  38  60  86 129 171 216 256 322 387
#     4  10  20  41  62  83 116 163 217 266 315 369
#     4  10  20  40  62  91 118 162 214 260 318 382
#     4  11  23  38  55  89 127 172 220 270 320 368
#     4  10  20  41  72  96 120 158 210 267 328 395
#
# _framework density 20.597170999999999
#
# number of rings (size 3 to 8) (size 9 to 14) (size 15 to 20)
#    0.000    1.385    3.846    2.769    0.000    5.231 
#    5.538    1.923    0.000    1.846    0.000    0.000 
#    0.000    0.000    0.000    0.000    0.000    0.000 
#
# Total GULP energy -644691.579586 kJ/mol
# GULP energy per Si atom -12397.914992 kJ/mol
# Density = 2.055029 g / cm^3
# Si number density = 20.597171 Si / 1000 Ang^3
#
#
#
# Elastic Constant Matrix: (Units=GPa)
#
#
# Indices 1 2 3 4 5 6 
#
# 1 111.6174 53.8538 30.7740 0.0000 0.0000 0.0000
# 2 53.8538 136.0599 45.5479 0.0000 0.0000 0.0000
# 3 30.7740 45.5479 123.4273 0.0000 0.0000 0.0000
# 4 0.0000 0.0000 0.0000 10.3701 0.0000 0.0000
# 5 0.0000 0.0000 0.0000 0.0000 18.5758 0.0000
# 6 0.0000 0.0000 0.0000 0.0000 0.0000 33.2932
#
#
#
# Elastic Compliance Matrix: (Units=1/GPa)
#
#
# Indices 1 2 3 4 5 6 
#
# 1 0.011261 -0.004013 -0.001327 0.000000 0.000000 0.000000
# 2 -0.004013 0.009816 -0.002622 0.000000 0.000000 0.000000
# 3 -0.001327 -0.002622 0.009400 0.000000 0.000000 0.000000
# 4 0.000000 0.000000 0.000000 0.096432 0.000000 0.000000
# 5 0.000000 0.000000 0.000000 0.000000 0.053834 0.000000
# 6 0.000000 0.000000 0.000000 0.000000 0.000000 0.030036
#
#
# Mechanical properties :
#
#
# Convention : Reuss Voigt Hill
#
# Bulk Modulus (GPa) = 68.70964 70.16177 69.43570
# Shear Modulus (GPa) = 21.59331 28.50973 25.05152
#
# Velocity S-wave (km/s) = 3.24136 3.72446 3.49128
# Velocity P-wave (km/s) = 6.88765 7.25488 7.07365
#
# Compressibility (1/GPa) = 0.01455400
#
# Stress axis : x y z
#
# Youngs Moduli (GPa) = 88.79986 101.87666 106.38050
#
# Poissons Ratio (x) = 0.40885 0.14115
# Poissons Ratio (y) = 0.35637 0.27890
# Poissons Ratio (z) = 0.11782 0.26709
#
# Static dielectric constant tensor:
#      x y z
#    x 4.131470 0.000000 0.000000 
#    y 0.000000 3.759870 0.000000 
#    z 0.000000 0.000000 3.690870 
# 
# 
# High freq. dielectric constant tensor:
#      x y z
#    x 1.819960 0.000000 0.000000 
#    y 0.000000 1.808130 0.000000 
#    z 0.000000 0.000000 1.778830 
# 
# From -- ./inp_files/70202.got.cif
#   From: 2010.03.12/outbox.cif.g09.slc.cpg/sg66_36_cif.got.tgz:70202.got - 2010.04.10 21:57:39.
