data_PCOD8276008
_publ_section_title
;
Structure prediction by ZEFSAII (Michael W. Deem and Ramdas Pophale) SiO2 
 PCOD8276008
Probable space group: C C C M
;
_chemical_formula_sum "Si O2"
_cell_formula_units_Z 112
_cell_length_a 19.583026
_cell_length_b 13.099216
_cell_length_c 22.377796
_cell_angle_alpha 90.000000
_cell_angle_beta 90.000000
_cell_angle_gamma 90.000000
_cell_volume 5740.403419
_symmetry_space_group_name_H-M "C C C M"
_symmetry_group_IT_number 66
_symmetry_cell_setting 'orthorhombic'
loop_
_space_group_symop_operation_xyz
x,y,z
-x,-y,z
x,-y,1/2-z
-x,y,1/2-z
-x,-y,-z
x,y,-z
-x,y,1/2+z
x,-y,1/2+z
1/2+x,1/2+y,z
1/2-x,1/2-y,z
1/2+x,1/2-y,1/2-z
1/2-x,1/2+y,1/2-z
1/2-x,1/2-y,-z
1/2+x,1/2+y,-z
1/2-x,1/2+y,1/2+z
1/2+x,1/2-y,1/2+z
loop_
_atom_site_type_symbol
_atom_site_label
_atom_site_fract_x
_atom_site_fract_y
_atom_site_fract_z
Si Si1 0.201069 0.663479 0.431436
Si Si2 0.579982 0.114695 0.745742
Si Si3 0.800360 0.440487 0.070093
Si Si4 0.154235 0.119437 0.431652
Si Si5 0.932631 0.278870 0.623874
Si Si6 0.411475 0.194426 0.628764
Si Si7 0.434439 0.568670 0.567904
O O1 0.222981 0.657280 0.500000
O O2 0.250000 0.750000 0.400749
O O3 0.211973 0.552515 0.401248
O O4 0.120586 0.688134 0.426967
O O5 0.500000 0.100950 0.750000
O O6 0.598597 0.178896 0.686302
O O7 0.605092 0.182677 0.801248
O O8 0.612740 0.000000 0.750000
O O9 0.734292 0.371009 0.084613
O O10 0.869164 0.391017 0.094313
O O11 0.810526 0.452372 0.000000
O O12 0.141087 0.153994 0.500000
O O13 0.110353 0.192182 0.389443
O O14 0.132085 0.001887 0.422887
O O15 0.935337 0.155849 0.618705
O O16 0.008537 0.323828 0.613565
O O17 0.500000 0.500000 0.578389
O O18 0.434948 0.614038 0.500000
#
# Coordination Sequence:
#
# PCOD8276008 Si02
#       7
#    16  16  16  16  16  16  16
#     4  10  21  37  56  80 112 149 186 231 287 349
#     4   9  20  38  57  78 110 151 193 237 289 339
#     4  10  21  35  54  83 117 152 186 229 290 352
#     4  10  20  36  57  83 121 158 187 226 286 354
#     4  11  21  36  60  84 110 147 196 238 286 340
#     4  11  21  35  57  83 111 144 193 239 287 341
#     4  10  19  33  56  88 121 153 187 229 286 349
#
# _framework density 19.510825000000001
#
# number of rings (size 3 to 8) (size 9 to 14) (size 15 to 20)
#    0.000    1.857    1.429    3.000    0.000    6.857 
#    0.000    3.571    0.000    1.714    0.000    0.000 
#    0.000    0.000    0.000    0.000    0.000    0.000 
#
# Total GULP energy -694102.864936 kJ/mol
# GULP energy per Si atom -12394.694017 kJ/mol
# Density = 1.946642 g / cm^3
# Si number density = 19.510825 Si / 1000 Ang^3
#
#
#
# Elastic Constant Matrix: (Units=GPa)
#
#
# Indices 1 2 3 4 5 6 
#
# 1 104.1676 34.1788 29.3348 0.0000 0.0000 0.0000
# 2 34.1788 122.4444 54.3434 0.0000 0.0000 0.0000
# 3 29.3348 54.3434 66.4774 0.0000 0.0000 0.0000
# 4 0.0000 0.0000 0.0000 26.9438 0.0000 0.0000
# 5 0.0000 0.0000 0.0000 0.0000 16.6245 0.0000
# 6 0.0000 0.0000 0.0000 0.0000 0.0000 26.7721
#
#
#
# Elastic Compliance Matrix: (Units=1/GPa)
#
#
# Indices 1 2 3 4 5 6 
#
# 1 0.011125 -0.001454 -0.003720 0.000000 0.000000 0.000000
# 2 -0.001454 0.013007 -0.009991 0.000000 0.000000 0.000000
# 3 -0.003720 -0.009991 0.024852 0.000000 0.000000 0.000000
# 4 0.000000 0.000000 0.000000 0.037114 0.000000 0.000000
# 5 0.000000 0.000000 0.000000 0.000000 0.060152 0.000000
# 6 0.000000 0.000000 0.000000 0.000000 0.000000 0.037352
#
#
# Mechanical properties :
#
#
# Convention : Reuss Voigt Hill
#
# Bulk Modulus (GPa) = 53.61265 58.75592 56.18428
# Shear Modulus (GPa) = 22.71159 25.75025 24.23092
#
# Velocity S-wave (km/s) = 3.41552 3.63684 3.52791
# Velocity P-wave (km/s) = 6.56448 6.91486 6.74195
#
# Compressibility (1/GPa) = 0.01865231
#
# Stress axis : x y z
#
# Youngs Moduli (GPa) = 89.88985 76.88005 40.23814
#
# Poissons Ratio (x) = 0.11180 0.14970
# Poissons Ratio (y) = 0.13072 0.40203
# Poissons Ratio (z) = 0.33442 0.76814
#
# Static dielectric constant tensor:
#      x y z
#    x 3.620340 0.000000 0.000000 
#    y 0.000000 3.773680 0.000000 
#    z 0.000000 0.000000 3.453800 
# 
# 
# High freq. dielectric constant tensor:
#      x y z
#    x 1.762450 0.000000 0.000000 
#    y 0.000000 1.771590 0.000000 
#    z 0.000000 0.000000 1.722010 
# 
# From -- ./inp_files/57159.got.cif
#   From: 2010.03.12/outbox.cif.g09.slc.cpg/sg66_29_cif.got.tgz:57159.got - 2010.04.10 21:57:39.
