data_PCOD8276338
_publ_section_title
;
Structure prediction by ZEFSAII (Michael W. Deem and Ramdas Pophale) SiO2 
 PCOD8276338
Probable space group: C C C M
;
_chemical_formula_sum "Si O2"
_cell_formula_units_Z 80
_cell_length_a 19.695388
_cell_length_b 25.834693
_cell_length_c 8.745353
_cell_angle_alpha 90.000000
_cell_angle_beta 90.000000
_cell_angle_gamma 90.000000
_cell_volume 4449.848140
_symmetry_space_group_name_H-M "C C C M"
_symmetry_group_IT_number 66
_symmetry_cell_setting 'orthorhombic'
loop_
_space_group_symop_operation_xyz
x,y,z
-x,-y,z
x,-y,1/2-z
-x,y,1/2-z
-x,-y,-z
x,y,-z
-x,y,1/2+z
x,-y,1/2+z
1/2+x,1/2+y,z
1/2-x,1/2-y,z
1/2+x,1/2-y,1/2-z
1/2-x,1/2+y,1/2-z
1/2-x,1/2-y,-z
1/2+x,1/2+y,-z
1/2-x,1/2+y,1/2+z
1/2+x,1/2-y,1/2+z
loop_
_atom_site_type_symbol
_atom_site_label
_atom_site_fract_x
_atom_site_fract_y
_atom_site_fract_z
Si Si1 0.820163 0.054828 0.817762
Si Si2 0.175631 0.554347 0.680996
Si Si3 0.426146 0.753379 0.820692
Si Si4 0.073515 0.139556 0.679130
Si Si5 0.925793 0.355200 0.320219
O O1 0.747102 0.070980 0.753507
O O2 0.873776 0.097330 0.758645
O O3 0.843719 0.000000 0.750000
O O4 0.816875 0.051668 0.000000
O O5 0.150613 0.500000 0.750000
O O6 0.184287 0.549019 0.500000
O O7 0.120566 0.596789 0.728414
O O8 0.500000 0.753490 0.750000
O O9 0.395144 0.696715 0.782502
O O10 0.388883 0.802600 0.742881
O O11 0.429334 0.763355 0.000000
O O12 0.063345 0.133750 0.500000
O O13 0.000000 0.130065 0.750000
O O14 0.933074 0.350623 0.500000
O O15 0.000000 0.363831 0.250000
#
# Coordination Sequence:
#
# PCOD8276338 Si02
#       5
#    16  16  16  16  16
#     4  10  20  35  53  73  99 131 167 204 246 294
#     4  10  21  36  53  73  98 130 166 202 245 294
#     4   9  16  29  49  72  99 130 162 197 242 290
#     4   9  19  33  51  76 102 130 165 204 244 289
#     4  10  20  33  51  76 102 128 162 202 244 291
#
# _framework density 17.978141999999998
#
# number of rings (size 3 to 8) (size 9 to 14) (size 15 to 20)
#    0.000    2.400    0.000    4.800    0.000    6.400 
#    0.000    5.000    0.000    6.000    0.000    0.000 
#    0.000    0.000    0.000    0.000    0.000    0.000 
#
# Total GULP energy -495769.923055 kJ/mol
# GULP energy per Si atom -12394.248076 kJ/mol
# Density = 1.793722 g / cm^3
# Si number density = 17.978142 Si / 1000 Ang^3
#
#
#
# Elastic Constant Matrix: (Units=GPa)
#
#
# Indices 1 2 3 4 5 6 
#
# 1 89.0551 98.2384 40.6206 0.0000 0.0000 0.0000
# 2 98.2384 187.6438 64.4176 0.0000 0.0000 0.0000
# 3 40.6206 64.4176 79.6120 0.0000 0.0000 0.0000
# 4 0.0000 0.0000 0.0000 66.8801 0.0000 0.0000
# 5 0.0000 0.0000 0.0000 0.0000 15.4966 0.0000
# 6 0.0000 0.0000 0.0000 0.0000 0.0000 11.7212
#
#
#
# Elastic Compliance Matrix: (Units=1/GPa)
#
#
# Indices 1 2 3 4 5 6 
#
# 1 0.027176 -0.013109 -0.003259 0.000000 0.000000 0.000000
# 2 -0.013109 0.013702 -0.004398 0.000000 0.000000 0.000000
# 3 -0.003259 -0.004398 0.017783 0.000000 0.000000 0.000000
# 4 0.000000 0.000000 0.000000 0.014952 0.000000 0.000000
# 5 0.000000 0.000000 0.000000 0.000000 0.064530 0.000000
# 6 0.000000 0.000000 0.000000 0.000000 0.000000 0.085316
#
#
# Mechanical properties :
#
#
# Convention : Reuss Voigt Hill
#
# Bulk Modulus (GPa) = 58.38335 84.76267 71.57301
# Shear Modulus (GPa) = 18.47047 29.02186 23.74616
#
# Velocity S-wave (km/s) = 3.20876 4.02218 3.63827
# Velocity P-wave (km/s) = 6.80245 8.29581 7.58597
#
# Compressibility (1/GPa) = 0.01712817
#
# Stress axis : x y z
#
# Youngs Moduli (GPa) = 36.79675 72.98086 56.23380
#
# Poissons Ratio (x) = 0.95670 0.18328
# Poissons Ratio (y) = 0.48237 0.24734
# Poissons Ratio (z) = 0.11993 0.32101
#
# Static dielectric constant tensor:
#      x y z
#    x 3.127840 0.000000 0.000000 
#    y 0.000000 4.247570 0.000000 
#    z 0.000000 0.000000 3.441900 
# 
# 
# High freq. dielectric constant tensor:
#      x y z
#    x 1.664240 0.000000 0.000000 
#    y 0.000000 1.717450 0.000000 
#    z 0.000000 0.000000 1.709650 
# 
# From -- ./inp_files/6672.got.cif
#   From: 2010.03.12/outbox.cif.g09.slc.cpg/sg66_4_cif.got.tgz:6672.got - 2010.04.10 21:57:39.
