data_PCOD8276630
_publ_section_title
;
Structure prediction by ZEFSAII (Michael W. Deem and Ramdas Pophale) SiO2 
 PCOD8276630
Probable space group: C C C M
;
_chemical_formula_sum "Si O2"
_cell_formula_units_Z 68
_cell_length_a 5.049448
_cell_length_b 38.076488
_cell_length_c 18.962325
_cell_angle_alpha 90.000000
_cell_angle_beta 90.000000
_cell_angle_gamma 90.000000
_cell_volume 3645.796084
_symmetry_space_group_name_H-M "C C C M"
_symmetry_group_IT_number 66
_symmetry_cell_setting 'orthorhombic'
loop_
_space_group_symop_operation_xyz
x,y,z
-x,-y,z
x,-y,1/2-z
-x,y,1/2-z
-x,-y,-z
x,y,-z
-x,y,1/2+z
x,-y,1/2+z
1/2+x,1/2+y,z
1/2-x,1/2-y,z
1/2+x,1/2-y,1/2-z
1/2-x,1/2+y,1/2-z
1/2-x,1/2-y,-z
1/2+x,1/2+y,-z
1/2-x,1/2+y,1/2+z
1/2+x,1/2-y,1/2+z
loop_
_atom_site_type_symbol
_atom_site_label
_atom_site_fract_x
_atom_site_fract_y
_atom_site_fract_z
Si Si1 0.263993 0.932513 0.206335
Si Si2 0.996135 0.227240 0.332535
Si Si3 0.339786 0.115917 0.578467
Si Si4 0.332321 0.661635 0.578091
Si Si5 0.000000 0.500000 0.250000
O O1 0.500000 0.914177 0.250000
O O2 0.287950 0.917575 0.127860
O O3 0.000000 0.923408 0.250000
O O4 0.312614 0.974828 0.201939
O O5 0.750000 0.250000 0.355524
O O6 0.960590 0.190642 0.371603
O O7 0.000000 0.218779 0.250000
O O8 0.250000 0.250000 0.356286
O O9 0.430954 0.103422 0.500000
O O10 0.561270 0.143643 0.607630
O O11 0.053144 0.132393 0.573014
O O12 0.274987 0.677503 0.500000
#
# Coordination Sequence:
#
# PCOD8276630 Si02
#       5
#    16  16  16  16   4
#     4  10  20  36  59  84 112 149 187 224 279 328
#     4  10  21  36  53  76 108 144 184 234 281 331
#     4  10  21  37  56  83 116 146 184 236 279 326
#     4  10  21  36  55  80 111 145 186 232 279 330
#     4   8  22  36  60  84 118 144 184 232 266 324
#
# _framework density 18.651620000000001
#
# number of rings (size 3 to 8) (size 9 to 14) (size 15 to 20)
#    0.706    1.412    0.000    3.176    0.000    3.765 
#    0.000    0.588    0.000    1.412    0.000    0.000 
#    0.000    0.000    0.000    0.000    0.000    0.000 
#
# Total GULP energy -421197.617783 kJ/mol
# GULP energy per Si atom -12388.165229 kJ/mol
# Density = 1.860917 g / cm^3
# Si number density = 18.651620 Si / 1000 Ang^3
#
#
#
# Elastic Constant Matrix: (Units=GPa)
#
#
# Indices 1 2 3 4 5 6 
#
# 1 127.0677 28.2622 33.4847 0.0000 0.0000 0.0000
# 2 28.2622 99.0319 66.7938 0.0000 0.0000 0.0000
# 3 33.4847 66.7938 94.1440 0.0000 0.0000 0.0000
# 4 0.0000 0.0000 0.0000 18.0274 0.0000 0.0000
# 5 0.0000 0.0000 0.0000 0.0000 26.0196 0.0000
# 6 0.0000 0.0000 0.0000 0.0000 0.0000 13.3110
#
#
#
# Elastic Compliance Matrix: (Units=1/GPa)
#
#
# Indices 1 2 3 4 5 6 
#
# 1 0.008713 -0.000760 -0.002560 0.000000 0.000000 0.000000
# 2 -0.000760 0.019430 -0.013515 0.000000 0.000000 0.000000
# 3 -0.002560 -0.013515 0.021121 0.000000 0.000000 0.000000
# 4 0.000000 0.000000 0.000000 0.055471 0.000000 0.000000
# 5 0.000000 0.000000 0.000000 0.000000 0.038433 0.000000
# 6 0.000000 0.000000 0.000000 0.000000 0.000000 0.075126
#
#
# Mechanical properties :
#
#
# Convention : Reuss Voigt Hill
#
# Bulk Modulus (GPa) = 64.12415 64.14724 64.13570
# Shear Modulus (GPa) = 19.44296 24.25181 21.84738
#
# Velocity S-wave (km/s) = 3.23217 3.60981 3.42620
# Velocity P-wave (km/s) = 6.95584 7.20009 7.07902
#
# Compressibility (1/GPa) = 0.01559475
#
# Stress axis : x y z
#
# Youngs Moduli (GPa) = 114.76501 51.46634 47.34573
#
# Poissons Ratio (x) = 0.03912 0.12120
# Poissons Ratio (y) = 0.08724 0.63988
# Poissons Ratio (z) = 0.29378 0.69557
#
# Static dielectric constant tensor:
#      x y z
#    x 3.656040 0.000000 0.000000 
#    y 0.000000 3.116110 0.000000 
#    z 0.000000 0.000000 3.513030 
# 
# 
# High freq. dielectric constant tensor:
#      x y z
#    x 1.747890 0.000000 0.000000 
#    y 0.000000 1.703850 0.000000 
#    z 0.000000 0.000000 1.711860 
# 
# From -- ./inp_files/45874.got.cif
#   From: 2010.03.12/outbox.cif.g09.slc.cpg/sg66_23_cif.got.tgz:45874.got - 2010.04.10 21:57:39.
