data_PCOD8276239
_publ_section_title
;
Structure prediction by ZEFSAII (Michael W. Deem and Ramdas Pophale) SiO2 
 PCOD8276239
Probable space group: C C C M
;
_chemical_formula_sum "Si O2"
_cell_formula_units_Z 112
_cell_length_a 16.456117
_cell_length_b 14.122796
_cell_length_c 22.301700
_cell_angle_alpha 90.000000
_cell_angle_beta 90.000000
_cell_angle_gamma 90.000000
_cell_volume 5183.057439
_symmetry_space_group_name_H-M "C C C M"
_symmetry_group_IT_number 66
_symmetry_cell_setting 'orthorhombic'
loop_
_space_group_symop_operation_xyz
x,y,z
-x,-y,z
x,-y,1/2-z
-x,y,1/2-z
-x,-y,-z
x,y,-z
-x,y,1/2+z
x,-y,1/2+z
1/2+x,1/2+y,z
1/2-x,1/2-y,z
1/2+x,1/2-y,1/2-z
1/2-x,1/2+y,1/2-z
1/2-x,1/2-y,-z
1/2+x,1/2+y,-z
1/2-x,1/2+y,1/2+z
1/2+x,1/2-y,1/2+z
loop_
_atom_site_type_symbol
_atom_site_label
_atom_site_fract_x
_atom_site_fract_y
_atom_site_fract_z
Si Si1 0.779411 0.466096 0.168654
Si Si2 0.181068 0.174222 0.736571
Si Si3 0.955703 0.589382 0.312642
Si Si4 0.208165 0.153608 0.867979
Si Si5 0.560462 0.283887 0.861134
Si Si6 0.947576 0.094944 0.569337
Si Si7 0.709860 0.349249 0.935248
O O1 0.710972 0.430121 0.215923
O O2 0.863485 0.440674 0.200585
O O3 0.775600 0.578095 0.154421
O O4 0.767828 0.411873 0.105928
O O5 0.250000 0.250000 0.714613
O O6 0.162356 0.184276 0.806836
O O7 0.094328 0.194511 0.705403
O O8 0.956465 0.671889 0.362314
O O9 0.000000 0.500000 0.343140
O O10 0.000000 0.616512 0.250000
O O11 0.250000 0.250000 0.895604
O O12 0.148950 0.095181 0.913769
O O13 0.476120 0.329347 0.881311
O O14 0.621766 0.329038 0.908771
O O15 0.956483 0.126208 0.500000
O O16 0.000000 0.000000 0.580843
O O17 0.750000 0.250000 0.945929
O O18 0.697834 0.400427 0.000000
#
# Coordination Sequence:
#
# PCOD8276239 Si02
#       7
#    16  16  16  16  16  16  16
#     4  11  21  42  61  94 130 164 214 264 316 391
#     4  10  20  37  65  99 130 163 209 270 324 391
#     4  11  26  36  63  95 133 176 204 252 324 403
#     4  11  27  40  66  93 131 176 219 267 326 401
#     4  11  21  40  67  97 130 163 213 271 322 386
#     4  11  26  47  67  92 129 177 228 275 333 392
#     4  10  19  37  68  97 120 160 214 273 323 361
#
# _framework density 21.608867
#
# number of rings (size 3 to 8) (size 9 to 14) (size 15 to 20)
#    0.000    1.286    2.857    3.429    8.000    2.000 
#    0.000    0.714    0.000    2.143    0.000    0.000 
#    0.000    0.000    0.000    0.000    0.000    0.000 
#
# Total GULP energy -693851.997282 kJ/mol
# GULP energy per Si atom -12390.214237 kJ/mol
# Density = 2.155968 g / cm^3
# Si number density = 21.608867 Si / 1000 Ang^3
#
#
#
# Elastic Constant Matrix: (Units=GPa)
#
#
# Indices 1 2 3 4 5 6 
#
# 1 83.9165 35.8389 36.3000 0.0000 0.0000 0.0000
# 2 35.8389 124.8569 27.3989 0.0000 0.0000 0.0000
# 3 36.3000 27.3989 110.5483 0.0000 0.0000 0.0000
# 4 0.0000 0.0000 0.0000 25.0977 0.0000 0.0000
# 5 0.0000 0.0000 0.0000 0.0000 28.7309 0.0000
# 6 0.0000 0.0000 0.0000 0.0000 0.0000 38.3389
#
#
#
# Elastic Compliance Matrix: (Units=1/GPa)
#
#
# Indices 1 2 3 4 5 6 
#
# 1 0.015176 -0.003450 -0.004128 0.000000 0.000000 0.000000
# 2 -0.003450 0.009254 -0.001161 0.000000 0.000000 0.000000
# 3 -0.004128 -0.001161 0.010689 0.000000 0.000000 0.000000
# 4 0.000000 0.000000 0.000000 0.039844 0.000000 0.000000
# 5 0.000000 0.000000 0.000000 0.000000 0.034806 0.000000
# 6 0.000000 0.000000 0.000000 0.000000 0.000000 0.026083
#
#
# Mechanical properties :
#
#
# Convention : Reuss Voigt Hill
#
# Bulk Modulus (GPa) = 56.68576 57.59970 57.14273
# Shear Modulus (GPa) = 31.40497 33.08576 32.24537
#
# Velocity S-wave (km/s) = 3.81640 3.91720 3.86713
# Velocity P-wave (km/s) = 6.76088 6.86824 6.81477
#
# Compressibility (1/GPa) = 0.01764112
#
# Stress axis : x y z
#
# Youngs Moduli (GPa) = 65.89443 108.05885 93.55421
#
# Poissons Ratio (x) = 0.37282 0.38620
# Poissons Ratio (y) = 0.22735 0.10859
# Poissons Ratio (z) = 0.27202 0.12542
#
# Static dielectric constant tensor:
#      x y z
#    x 3.744700 0.000000 0.000000 
#    y 0.000000 4.080930 0.000000 
#    z 0.000000 0.000000 4.009880 
# 
# 
# High freq. dielectric constant tensor:
#      x y z
#    x 1.840060 0.000000 0.000000 
#    y 0.000000 1.855170 0.000000 
#    z 0.000000 0.000000 1.836020 
# 
# From -- ./inp_files/58248.got.cif
#   From: 2010.03.12/outbox.cif.g09.slc.cpg/sg66_30_cif.got.tgz:58248.got - 2010.04.10 21:57:39.
