data_PCOD8276277
_publ_section_title
;
Structure prediction by ZEFSAII (Michael W. Deem and Ramdas Pophale) SiO2 
 PCOD8276277
Probable space group: C C C M
;
_chemical_formula_sum "Si O2"
_cell_formula_units_Z 112
_cell_length_a 24.357194
_cell_length_b 14.248632
_cell_length_c 18.134568
_cell_angle_alpha 90.000000
_cell_angle_beta 90.000000
_cell_angle_gamma 90.000000
_cell_volume 6293.723215
_symmetry_space_group_name_H-M "C C C M"
_symmetry_group_IT_number 66
_symmetry_cell_setting 'orthorhombic'
loop_
_space_group_symop_operation_xyz
x,y,z
-x,-y,z
x,-y,1/2-z
-x,y,1/2-z
-x,-y,-z
x,y,-z
-x,y,1/2+z
x,-y,1/2+z
1/2+x,1/2+y,z
1/2-x,1/2-y,z
1/2+x,1/2-y,1/2-z
1/2-x,1/2+y,1/2-z
1/2-x,1/2-y,-z
1/2+x,1/2+y,-z
1/2-x,1/2+y,1/2+z
1/2+x,1/2-y,1/2+z
loop_
_atom_site_type_symbol
_atom_site_label
_atom_site_fract_x
_atom_site_fract_y
_atom_site_fract_z
Si Si1 0.400494 0.670437 0.674349
Si Si2 0.696376 0.809846 0.587459
Si Si3 0.501611 0.609263 0.586485
Si Si4 0.173429 0.000254 0.330357
Si Si5 0.310877 0.216164 0.085381
Si Si6 0.777182 0.514743 0.084597
Si Si7 0.389753 0.316638 0.343890
O O1 0.457693 0.671989 0.631018
O O2 0.380564 0.563516 0.670221
O O3 0.356447 0.738823 0.637197
O O4 0.409086 0.699238 0.759587
O O5 0.688307 0.804799 0.500000
O O6 0.750000 0.750000 0.611500
O O7 0.701554 0.916657 0.618518
O O8 0.640395 0.775478 0.625812
O O9 0.500000 0.500000 0.611001
O O10 0.488944 0.618077 0.500000
O O11 0.559671 0.655908 0.604442
O O12 0.201320 0.000000 0.250000
O O13 0.217278 0.957759 0.385959
O O14 0.156250 0.103897 0.353132
O O15 0.250000 0.250000 0.108435
O O16 0.316706 0.103650 0.098094
O O17 0.321969 0.242505 0.000000
O O18 0.767849 0.495171 0.000000
#
# Coordination Sequence:
#
# PCOD8276277 Si02
#       7
#    16  16  16  16  16  16  16
#     4  11  22  36  54  79 113 148 181 222 272 324
#     4  10  20  34  54  80 110 145 185 226 270 323
#     4  11  23  37  57  82 109 144 183 223 270 326
#     4  10  20  31  49  78 112 145 178 219 266 323
#     4  10  20  34  54  80 110 145 185 226 270 323
#     4  10  20  34  53  78 111 148 183 225 271 317
#     4  11  22  36  54  79 113 148 181 222 272 324
#
# _framework density 17.795508000000002
#
# number of rings (size 3 to 8) (size 9 to 14) (size 15 to 20)
#    0.000    1.571    4.286    1.286    0.000    3.429 
#    0.000    0.000    0.000    0.857    0.000    6.000 
#    0.000    0.000    0.000    0.000    0.000    0.000 
#
# Total GULP energy -694359.180951 kJ/mol
# GULP energy per Si atom -12399.271088 kJ/mol
# Density = 1.775500 g / cm^3
# Si number density = 17.795508 Si / 1000 Ang^3
#
#
#
# Elastic Constant Matrix: (Units=GPa)
#
#
# Indices 1 2 3 4 5 6 
#
# 1 80.6509 26.4665 33.5727 0.0000 0.0000 0.0000
# 2 26.4665 82.3254 29.3016 0.0000 0.0000 0.0000
# 3 33.5727 29.3016 56.8781 0.0000 0.0000 0.0000
# 4 0.0000 0.0000 0.0000 23.1164 0.0000 0.0000
# 5 0.0000 0.0000 0.0000 0.0000 29.7982 0.0000
# 6 0.0000 0.0000 0.0000 0.0000 0.0000 -14.1724
#
#
#
# Elastic Compliance Matrix: (Units=1/GPa)
#
#
# Indices 1 2 3 4 5 6 
#
# 1 0.016783 -0.002289 -0.008727 0.000000 0.000000 0.000000
# 2 -0.002289 0.015187 -0.006472 0.000000 0.000000 0.000000
# 3 -0.008727 -0.006472 0.026067 0.000000 0.000000 0.000000
# 4 0.000000 0.000000 0.000000 0.043259 0.000000 0.000000
# 5 0.000000 0.000000 0.000000 0.000000 0.033559 0.000000
# 6 0.000000 0.000000 0.000000 0.000000 0.000000 -0.070560
#
#
# Mechanical properties :
#
#
# Convention : Reuss Voigt Hill
#
# Bulk Modulus (GPa) = 43.36629 44.28178 43.82404
# Shear Modulus (GPa) = 46.74674 16.44934 31.59804
#
# Velocity S-wave (km/s) = 5.13087 3.04362 4.21838
# Velocity P-wave (km/s) = 7.71513 6.10649 6.95746
#
# Compressibility (1/GPa) = 0.02305939
#
# Stress axis : x y z
#
# Youngs Moduli (GPa) = 59.58327 65.84771 38.36283
#
# Poissons Ratio (x) = 0.15075 0.33479
# Poissons Ratio (y) = 0.13641 0.24829
# Poissons Ratio (z) = 0.51998 0.42618
#
# Static dielectric constant tensor:
#      x y z
#    x 3.074700 0.000000 0.000000 
#    y 0.000000 2.991340 0.000000 
#    z 0.000000 0.000000 3.336050 
# 
# 
# High freq. dielectric constant tensor:
#      x y z
#    x 1.669890 0.000000 0.000000 
#    y 0.000000 1.681830 0.000000 
#    z 0.000000 0.000000 1.693180 
# 
# From -- ./inp_files/28686.got.cif
#   From: 2010.03.12/outbox.cif.g09.slc.cpg/sg66_15_cif.got.tgz:28686.got - 2010.04.10 21:57:39.
