data_PCOD8276061
_publ_section_title
;
Structure prediction by ZEFSAII (Michael W. Deem and Ramdas Pophale) SiO2 
 PCOD8276061
Probable space group: C C C M
;
_chemical_formula_sum "Si O2"
_cell_formula_units_Z 80
_cell_length_a 8.559835
_cell_length_b 28.570292
_cell_length_c 16.958903
_cell_angle_alpha 90.000000
_cell_angle_beta 90.000000
_cell_angle_gamma 90.000000
_cell_volume 4147.418194
_symmetry_space_group_name_H-M "C C C M"
_symmetry_group_IT_number 66
_symmetry_cell_setting 'orthorhombic'
loop_
_space_group_symop_operation_xyz
x,y,z
-x,-y,z
x,-y,1/2-z
-x,y,1/2-z
-x,-y,-z
x,y,-z
-x,y,1/2+z
x,-y,1/2+z
1/2+x,1/2+y,z
1/2-x,1/2-y,z
1/2+x,1/2-y,1/2-z
1/2-x,1/2+y,1/2-z
1/2-x,1/2-y,-z
1/2+x,1/2+y,-z
1/2-x,1/2+y,1/2+z
1/2+x,1/2-y,1/2+z
loop_
_atom_site_type_symbol
_atom_site_label
_atom_site_fract_x
_atom_site_fract_y
_atom_site_fract_z
Si Si1 0.396110 0.132470 0.675960
Si Si2 0.180582 0.052487 0.338725
Si Si3 0.820446 0.199039 0.728292
Si Si4 0.329075 0.552599 0.652819
Si Si5 0.806650 0.643296 0.089914
O O1 0.500000 0.113944 0.750000
O O2 0.306072 0.090258 0.630767
O O3 0.273740 0.171571 0.704020
O O4 0.513822 0.155112 0.612283
O O5 0.177303 0.061837 0.245494
O O6 0.008334 0.060134 0.374889
O O7 0.232501 0.000104 0.362555
O O8 0.750000 0.250000 0.719154
O O9 0.810255 0.172893 0.644387
O O10 0.000000 0.202093 0.750000
O O11 0.220882 0.587916 0.604322
O O12 0.774723 0.657019 0.000000
#
# Coordination Sequence:
#
# PCOD8276061 Si02
#       5
#    16  16  16  16  16
#     4  10  19  34  55  82 114 151 193 238 279 338
#     4   9  16  31  55  81 107 148 205 245 276 330
#     4  11  22  41  68  91 111 144 197 244 284 340
#     4   9  17  31  54  81 111 150 196 244 284 333
#     4  11  23  38  55  86 128 157 186 235 299 349
#
# _framework density 19.289107999999999
#
# number of rings (size 3 to 8) (size 9 to 14) (size 15 to 20)
#    0.000    2.000    4.000    4.200    0.000    1.200 
#    0.000    8.000    0.000    2.400    0.000    0.000 
#    0.000    0.000    0.000    0.000    0.000    0.000 
#
# Total GULP energy -495892.928862 kJ/mol
# GULP energy per Si atom -12397.323222 kJ/mol
# Density = 1.924521 g / cm^3
# Si number density = 19.289108 Si / 1000 Ang^3
#
#
#
# Elastic Constant Matrix: (Units=GPa)
#
#
# Indices 1 2 3 4 5 6 
#
# 1 96.7835 38.5979 37.7962 0.0000 0.0000 0.0000
# 2 38.5979 107.3988 34.8293 0.0000 0.0000 0.0000
# 3 37.7962 34.8293 85.6235 0.0000 0.0000 0.0000
# 4 0.0000 0.0000 0.0000 10.5328 0.0000 0.0000
# 5 0.0000 0.0000 0.0000 0.0000 10.0207 0.0000
# 6 0.0000 0.0000 0.0000 0.0000 0.0000 39.2299
#
#
#
# Elastic Compliance Matrix: (Units=1/GPa)
#
#
# Indices 1 2 3 4 5 6 
#
# 1 0.013456 -0.003352 -0.004576 0.000000 0.000000 0.000000
# 2 -0.003352 0.011561 -0.003223 0.000000 0.000000 0.000000
# 3 -0.004576 -0.003223 0.015010 0.000000 0.000000 0.000000
# 4 0.000000 0.000000 0.000000 0.094942 0.000000 0.000000
# 5 0.000000 0.000000 0.000000 0.000000 0.099794 0.000000
# 6 0.000000 0.000000 0.000000 0.000000 0.000000 0.025491
#
#
# Mechanical properties :
#
#
# Convention : Reuss Voigt Hill
#
# Bulk Modulus (GPa) = 56.41865 56.91698 56.66781
# Shear Modulus (GPa) = 17.33315 23.86217 20.59766
#
# Velocity S-wave (km/s) = 3.00091 3.52103 3.27133
# Velocity P-wave (km/s) = 6.42805 6.78981 6.61141
#
# Compressibility (1/GPa) = 0.01772463
#
# Stress axis : x y z
#
# Youngs Moduli (GPa) = 74.31456 86.49792 66.62111
#
# Poissons Ratio (x) = 0.28993 0.30489
# Poissons Ratio (y) = 0.24910 0.21473
# Poissons Ratio (z) = 0.34010 0.27879
#
# Static dielectric constant tensor:
#      x y z
#    x 3.868150 0.000000 0.000000 
#    y 0.000000 3.656900 0.000000 
#    z 0.000000 0.000000 3.102630 
# 
# 
# High freq. dielectric constant tensor:
#      x y z
#    x 1.759810 0.000000 0.000000 
#    y 0.000000 1.751510 0.000000 
#    z 0.000000 0.000000 1.697890 
# 
# From -- ./inp_files/36961.got.cif
#   From: 2010.03.12/outbox.cif.g09.slc.cpg/sg66_19_cif.got.tgz:36961.got - 2010.04.10 21:57:39.
