data_PCOD8276913
_publ_section_title
;
Structure prediction by ZEFSAII (Michael W. Deem and Ramdas Pophale) SiO2 
 PCOD8276913
Probable space group: C C C M
;
_chemical_formula_sum "Si O2"
_cell_formula_units_Z 116
_cell_length_a 17.725648
_cell_length_b 37.037647
_cell_length_c 9.941303
_cell_angle_alpha 90.000000
_cell_angle_beta 90.000000
_cell_angle_gamma 90.000000
_cell_volume 6526.627398
_symmetry_space_group_name_H-M "C C C M"
_symmetry_group_IT_number 66
_symmetry_cell_setting 'orthorhombic'
loop_
_space_group_symop_operation_xyz
x,y,z
-x,-y,z
x,-y,1/2-z
-x,y,1/2-z
-x,-y,-z
x,y,-z
-x,y,1/2+z
x,-y,1/2+z
1/2+x,1/2+y,z
1/2-x,1/2-y,z
1/2+x,1/2-y,1/2-z
1/2-x,1/2+y,1/2-z
1/2-x,1/2-y,-z
1/2+x,1/2+y,-z
1/2-x,1/2+y,1/2+z
1/2+x,1/2-y,1/2+z
loop_
_atom_site_type_symbol
_atom_site_label
_atom_site_fract_x
_atom_site_fract_y
_atom_site_fract_z
Si Si1 0.834387 0.311038 0.153257
Si Si2 0.878299 0.552203 0.847374
Si Si3 0.500000 0.000000 0.250000
Si Si4 0.815157 0.111499 0.648822
Si Si5 0.139208 0.628789 0.650834
Si Si6 0.216617 0.968490 0.657969
Si Si7 0.836737 0.172386 0.845042
Si Si8 0.569639 0.258102 0.154607
O O1 0.880197 0.338523 0.249152
O O2 0.745793 0.311553 0.187565
O O3 0.864509 0.270955 0.179645
O O4 0.848788 0.323227 0.000000
O O5 0.900241 0.592051 0.790663
O O6 0.802348 0.535717 0.783600
O O7 0.948207 0.525051 0.842096
O O8 0.855394 0.560074 0.000000
O O9 0.847916 0.119700 0.500000
O O10 0.727397 0.120359 0.651414
O O11 0.827706 0.069139 0.683156
O O12 0.856736 0.137099 0.756574
O O13 0.111554 0.639116 0.500000
O O14 0.213976 0.979346 0.500000
O O15 0.179307 0.000000 0.750000
O O16 0.897253 0.202883 0.808236
O O17 0.842340 0.160763 0.000000
O O18 0.500000 0.249061 0.250000
O O19 0.542433 0.256911 0.000000
#
# Coordination Sequence:
#
# PCOD8276913 Si02
#       8
#    16  16   4  16  16  16  16  16
#     4   9  17  32  53  74  93 118 159 202 241 282
#     4   9  18  30  41  56  79 110 149 194 239 280
#     4  12  18  28  44  54  76 112 162 200 240 280
#     4   8  15  27  45  67  92 118 148 189 236 281
#     4   8  15  30  47  62  86 115 146 191 244 284
#     4   9  16  28  43  62  88 117 146 184 235 280
#     4   9  17  31  52  74  95 122 160 202 239 277
#     4  10  21  35  50  71 101 131 157 192 237 285
#
# _framework density 17.773346
#
# number of rings (size 3 to 8) (size 9 to 14) (size 15 to 20)
#    0.000    3.034    0.690    2.276    0.000    3.310 
#    1.241    3.448    0.000    4.138    0.000    0.000 
#    0.000    0.552    0.000    6.069    0.000    4.414 
#
# Total GULP energy -718801.657414 kJ/mol
# GULP energy per Si atom -12393.132024 kJ/mol
# Density = 1.773289 g / cm^3
# Si number density = 17.773346 Si / 1000 Ang^3
#
#
#
# Elastic Constant Matrix: (Units=GPa)
#
#
# Indices 1 2 3 4 5 6 
#
# 1 21.6551 11.4044 16.2865 0.0000 0.0000 0.0000
# 2 11.4044 116.9296 63.1218 0.0000 0.0000 0.0000
# 3 16.2865 63.1218 83.8974 0.0000 0.0000 0.0000
# 4 0.0000 0.0000 0.0000 35.8623 0.0000 0.0000
# 5 0.0000 0.0000 0.0000 0.0000 16.4287 0.0000
# 6 0.0000 0.0000 0.0000 0.0000 0.0000 21.3228
#
#
#
# Elastic Compliance Matrix: (Units=1/GPa)
#
#
# Indices 1 2 3 4 5 6 
#
# 1 0.054103 0.000662 -0.011000 0.000000 0.000000 0.000000
# 2 0.000662 0.014409 -0.010969 0.000000 0.000000 0.000000
# 3 -0.011000 -0.010969 0.022308 0.000000 0.000000 0.000000
# 4 0.000000 0.000000 0.000000 0.027884 0.000000 0.000000
# 5 0.000000 0.000000 0.000000 0.000000 0.060869 0.000000
# 6 0.000000 0.000000 0.000000 0.000000 0.000000 0.046898
#
#
# Mechanical properties :
#
#
# Convention : Reuss Voigt Hill
#
# Bulk Modulus (GPa) = 20.74532 44.90083 32.82308
# Shear Modulus (GPa) = 17.53422 23.50074 20.51748
#
# Velocity S-wave (km/s) = 3.14434 3.64022 3.40133
# Velocity P-wave (km/s) = 4.98798 6.55638 5.82521
#
# Compressibility (1/GPa) = 0.04820364
#
# Stress axis : x y z
#
# Youngs Moduli (GPa) = 18.48313 69.39980 44.82723
#
# Poissons Ratio (x) = -0.04591 0.49312
# Poissons Ratio (y) = -0.01223 0.49173
# Poissons Ratio (z) = 0.20332 0.76128
#
# Static dielectric constant tensor:
#      x y z
#    x 2.774280 0.000000 0.000000 
#    y 0.000000 3.533610 0.000000 
#    z 0.000000 0.000000 3.305960 
# 
# 
# High freq. dielectric constant tensor:
#      x y z
#    x 1.632000 0.000000 0.000000 
#    y 0.000000 1.700430 0.000000 
#    z 0.000000 0.000000 1.679930 
# 
# From -- ./inp_files/18144.got.cif
#   From: 2010.03.12/outbox.cif.g09.slc.cpg/sg66_10_cif.got.tgz:18144.got - 2010.04.10 21:57:39.
