data_PCOD8276431
_publ_section_title
;
Structure prediction by ZEFSAII (Michael W. Deem and Ramdas Pophale) SiO2 
 PCOD8276431
Probable space group: C C C M
;
_chemical_formula_sum "Si O2"
_cell_formula_units_Z 116
_cell_length_a 28.476054
_cell_length_b 22.631604
_cell_length_c 8.896953
_cell_angle_alpha 90.000000
_cell_angle_beta 90.000000
_cell_angle_gamma 90.000000
_cell_volume 5733.719455
_symmetry_space_group_name_H-M "C C C M"
_symmetry_group_IT_number 66
_symmetry_cell_setting 'orthorhombic'
loop_
_space_group_symop_operation_xyz
x,y,z
-x,-y,z
x,-y,1/2-z
-x,y,1/2-z
-x,-y,-z
x,y,-z
-x,y,1/2+z
x,-y,1/2+z
1/2+x,1/2+y,z
1/2-x,1/2-y,z
1/2+x,1/2-y,1/2-z
1/2-x,1/2+y,1/2-z
1/2-x,1/2-y,-z
1/2+x,1/2+y,-z
1/2-x,1/2+y,1/2+z
1/2+x,1/2-y,1/2+z
loop_
_atom_site_type_symbol
_atom_site_label
_atom_site_fract_x
_atom_site_fract_y
_atom_site_fract_z
Si Si1 0.622062 0.824185 0.176670
Si Si2 0.500000 0.500000 0.750000
Si Si3 0.953875 0.228055 0.322835
Si Si4 0.695718 0.248641 0.823499
Si Si5 0.571092 0.398503 0.668790
Si Si6 0.329548 0.366264 0.824516
Si Si7 0.260782 0.059434 0.177362
Si Si8 0.860332 0.438421 0.178983
O O1 0.588009 0.771158 0.225280
O O2 0.673879 0.806562 0.234189
O O3 0.606946 0.884941 0.261061
O O4 0.622661 0.836023 0.000000
O O5 0.536520 0.455682 0.669211
O O6 0.959868 0.227304 0.500000
O O7 0.947694 0.161419 0.251493
O O8 0.000000 0.255899 0.250000
O O9 0.750000 0.250000 0.777237
O O10 0.667959 0.307087 0.772319
O O11 0.688804 0.239222 0.000000
O O12 0.575089 0.378099 0.500000
O O13 0.625500 0.408543 0.722474
O O14 0.280082 0.394930 0.786065
O O15 0.332461 0.349435 0.000000
O O16 0.308227 0.077035 0.262191
O O17 0.241118 0.000000 0.250000
O O18 0.270632 0.052306 0.000000
O O19 0.878129 0.500000 0.250000
O O20 0.861398 0.442904 0.000000
#
# Coordination Sequence:
#
# PCOD8276431 Si02
#       8
#    16   4  16  16  16  16  16  16
#     4  11  22  39  62  87 118 159 200 243 303 364
#     4  12  22  36  64  86 116 152 208 268 322 364
#     4  10  21  40  64  88 119 154 196 250 303 367
#     4  11  23  36  54  85 120 153 197 253 306 361
#     4  10  21  39  57  81 113 151 199 252 310 365
#     4  10  21  38  55  75 112 156 200 247 304 369
#     4  10  20  34  55  80 113 158 203 247 297 357
#     4  11  22  38  61  89 124 158 197 243 286 350
#
# _framework density 20.231196000000001
#
# number of rings (size 3 to 8) (size 9 to 14) (size 15 to 20)
#    0.000    1.517    2.069    4.345    0.966    5.517 
#    0.000    1.379    0.000    0.414    0.000    2.897 
#    0.000    0.000    0.000    0.000    0.000    0.000 
#
# Total GULP energy -718572.335108 kJ/mol
# GULP energy per Si atom -12389.178192 kJ/mol
# Density = 2.018515 g / cm^3
# Si number density = 20.231196 Si / 1000 Ang^3
#
#
#
# Elastic Constant Matrix: (Units=GPa)
#
#
# Indices 1 2 3 4 5 6 
#
# 1 73.3290 40.9881 22.9802 0.0000 0.0000 0.0000
# 2 40.9881 139.8946 44.1167 0.0000 0.0000 0.0000
# 3 22.9802 44.1167 76.7036 0.0000 0.0000 0.0000
# 4 0.0000 0.0000 0.0000 31.5426 0.0000 0.0000
# 5 0.0000 0.0000 0.0000 0.0000 23.1768 0.0000
# 6 0.0000 0.0000 0.0000 0.0000 0.0000 31.7972
#
#
#
# Elastic Compliance Matrix: (Units=1/GPa)
#
#
# Indices 1 2 3 4 5 6 
#
# 1 0.016748 -0.004061 -0.002682 0.000000 0.000000 0.000000
# 2 -0.004061 0.009717 -0.004372 0.000000 0.000000 0.000000
# 3 -0.002682 -0.004372 0.016355 0.000000 0.000000 0.000000
# 4 0.000000 0.000000 0.000000 0.031703 0.000000 0.000000
# 5 0.000000 0.000000 0.000000 0.000000 0.043147 0.000000
# 6 0.000000 0.000000 0.000000 0.000000 0.000000 0.031449
#
#
# Mechanical properties :
#
#
# Convention : Reuss Voigt Hill
#
# Bulk Modulus (GPa) = 48.56759 56.23304 52.40031
# Shear Modulus (GPa) = 28.05648 29.42614 28.74131
#
# Velocity S-wave (km/s) = 3.72801 3.81792 3.77323
# Velocity P-wave (km/s) = 6.52603 6.87684 6.70373
#
# Compressibility (1/GPa) = 0.02058986
#
# Stress axis : x y z
#
# Youngs Moduli (GPa) = 59.70984 102.91351 61.14253
#
# Poissons Ratio (x) = 0.41796 0.16397
# Poissons Ratio (y) = 0.24250 0.26732
# Poissons Ratio (z) = 0.16012 0.44994
#
# Static dielectric constant tensor:
#      x y z
#    x 3.714970 0.000000 0.000000 
#    y 0.000000 3.573220 0.000000 
#    z 0.000000 0.000000 3.517490 
# 
# 
# High freq. dielectric constant tensor:
#      x y z
#    x 1.780640 0.000000 0.000000 
#    y 0.000000 1.798180 0.000000 
#    z 0.000000 0.000000 1.778750 
# 
# From -- ./inp_files/11711.got.cif
#   From: 2010.03.12/outbox.cif.g09.slc.cpg/sg66_6_cif.got.tgz:11711.got - 2010.04.10 21:57:39.
