data_PCOD8276493
_publ_section_title
;
Structure prediction by ZEFSAII (Michael W. Deem and Ramdas Pophale) SiO2 
 PCOD8276493
Probable space group: C C C M
;
_chemical_formula_sum "Si O2"
_cell_formula_units_Z 116
_cell_length_a 26.233816
_cell_length_b 26.414564
_cell_length_c 9.066849
_cell_angle_alpha 90.000000
_cell_angle_beta 90.000000
_cell_angle_gamma 90.000000
_cell_volume 6282.916641
_symmetry_space_group_name_H-M "C C C M"
_symmetry_group_IT_number 66
_symmetry_cell_setting 'orthorhombic'
loop_
_space_group_symop_operation_xyz
x,y,z
-x,-y,z
x,-y,1/2-z
-x,y,1/2-z
-x,-y,-z
x,y,-z
-x,y,1/2+z
x,-y,1/2+z
1/2+x,1/2+y,z
1/2-x,1/2-y,z
1/2+x,1/2-y,1/2-z
1/2-x,1/2+y,1/2-z
1/2-x,1/2-y,-z
1/2+x,1/2+y,-z
1/2-x,1/2+y,1/2+z
1/2+x,1/2-y,1/2+z
loop_
_atom_site_type_symbol
_atom_site_label
_atom_site_fract_x
_atom_site_fract_y
_atom_site_fract_z
Si Si1 0.318785 0.074948 0.167860
Si Si2 0.582423 0.923867 0.336291
Si Si3 0.551911 0.812303 0.325182
Si Si4 0.818412 0.842477 0.328817
Si Si5 0.367414 0.257552 0.831282
Si Si6 0.279232 0.182408 0.836691
Si Si7 0.284063 0.548431 0.173126
Si Si8 0.000000 0.500000 0.250000
O O1 0.372547 0.055400 0.231894
O O2 0.318584 0.135834 0.179062
O O3 0.272519 0.052511 0.261088
O O4 0.313977 0.055832 0.000000
O O5 0.604830 0.916449 0.500000
O O6 0.563090 0.869848 0.275313
O O7 0.536070 0.963695 0.346548
O O8 0.500000 0.794189 0.250000
O O9 0.547080 0.807511 0.500000
O O10 0.595232 0.774771 0.268788
O O11 0.828756 0.832633 0.500000
O O12 0.862340 0.814369 0.234621
O O13 0.762974 0.820253 0.289447
O O14 0.818288 0.902283 0.290524
O O15 0.310831 0.233875 0.820401
O O16 0.386831 0.259519 0.000000
O O17 0.253355 0.180018 0.000000
O O18 0.310971 0.500000 0.250000
O O19 0.279446 0.539885 0.000000
#
# Coordination Sequence:
#
# PCOD8276493 Si02
#       8
#    16  16  16  16  16  16  16   4
#     4  10  20  35  55  75 101 136 177 223 273 327
#     4  11  24  40  57  75  98 131 177 233 289 337
#     4  11  23  40  60  80 104 138 180 228 282 337
#     4  10  21  34  51  79 111 142 178 221 264 320
#     4  11  21  35  55  80 108 141 177 219 272 330
#     4   9  18  32  50  75 105 140 175 214 264 324
#     4  10  21  37  55  77 108 144 183 221 264 314
#     4  12  26  44  56  74  98 136 184 242 296 336
#
# _framework density 18.462764
#
# number of rings (size 3 to 8) (size 9 to 14) (size 15 to 20)
#    0.000    1.655    2.069    2.690    0.966    6.621 
#    0.000    0.000    0.000    0.000    0.000    0.000 
#    0.000    0.552    0.000    5.793    0.000    3.172 
#
# Total GULP energy -719232.294704 kJ/mol
# GULP energy per Si atom -12400.556805 kJ/mol
# Density = 1.842074 g / cm^3
# Si number density = 18.462764 Si / 1000 Ang^3
#
#
#
# Elastic Constant Matrix: (Units=GPa)
#
#
# Indices 1 2 3 4 5 6 
#
# 1 42.6041 35.3800 25.8356 0.0000 0.0000 0.0000
# 2 35.3800 121.0265 51.1213 0.0000 0.0000 0.0000
# 3 25.8356 51.1213 98.1899 0.0000 0.0000 0.0000
# 4 0.0000 0.0000 0.0000 25.2602 0.0000 0.0000
# 5 0.0000 0.0000 0.0000 0.0000 28.0156 0.0000
# 6 0.0000 0.0000 0.0000 0.0000 0.0000 25.4636
#
#
#
# Elastic Compliance Matrix: (Units=1/GPa)
#
#
# Indices 1 2 3 4 5 6 
#
# 1 0.032560 -0.007563 -0.004630 0.000000 0.000000 0.000000
# 2 -0.007563 0.012349 -0.004439 0.000000 0.000000 0.000000
# 3 -0.004630 -0.004439 0.013714 0.000000 0.000000 0.000000
# 4 0.000000 0.000000 0.000000 0.039588 0.000000 0.000000
# 5 0.000000 0.000000 0.000000 0.000000 0.035694 0.000000
# 6 0.000000 0.000000 0.000000 0.000000 0.000000 0.039272
#
#
# Mechanical properties :
#
#
# Convention : Reuss Voigt Hill
#
# Bulk Modulus (GPa) = 39.43395 54.05493 46.74444
# Shear Modulus (GPa) = 23.26745 25.71344 24.49044
#
# Velocity S-wave (km/s) = 3.55383 3.73596 3.64604
# Velocity P-wave (km/s) = 6.18422 6.92469 6.56490
#
# Compressibility (1/GPa) = 0.02535886
#
# Stress axis : x y z
#
# Youngs Moduli (GPa) = 30.71276 80.98076 72.91955
#
# Poissons Ratio (x) = 0.61243 0.33759
# Poissons Ratio (y) = 0.23227 0.32371
# Poissons Ratio (z) = 0.14219 0.35949
#
# Static dielectric constant tensor:
#      x y z
#    x 3.003140 0.000000 0.000000 
#    y 0.000000 3.640360 0.000000 
#    z 0.000000 0.000000 3.440380 
# 
# 
# High freq. dielectric constant tensor:
#      x y z
#    x 1.668190 0.000000 0.000000 
#    y 0.000000 1.721450 0.000000 
#    z 0.000000 0.000000 1.728360 
# 
# From -- ./inp_files/9408.got.cif
#   From: 2010.03.12/outbox.cif.g09.slc.cpg/sg66_5_cif.got.tgz:9408.got - 2010.04.10 21:57:39.
