data_PCOD8276197
_publ_section_title
;
Structure prediction by ZEFSAII (Michael W. Deem and Ramdas Pophale) SiO2 
 PCOD8276197
Probable space group: C C C M
;
_chemical_formula_sum "Si O2"
_cell_formula_units_Z 88
_cell_length_a 11.644631
_cell_length_b 17.447150
_cell_length_c 20.879415
_cell_angle_alpha 90.000000
_cell_angle_beta 90.000000
_cell_angle_gamma 90.000000
_cell_volume 4241.979372
_symmetry_space_group_name_H-M "C C C M"
_symmetry_group_IT_number 66
_symmetry_cell_setting 'orthorhombic'
loop_
_space_group_symop_operation_xyz
x,y,z
-x,-y,z
x,-y,1/2-z
-x,y,1/2-z
-x,-y,-z
x,y,-z
-x,y,1/2+z
x,-y,1/2+z
1/2+x,1/2+y,z
1/2-x,1/2-y,z
1/2+x,1/2-y,1/2-z
1/2-x,1/2+y,1/2-z
1/2-x,1/2-y,-z
1/2+x,1/2+y,-z
1/2-x,1/2+y,1/2+z
1/2+x,1/2-y,1/2+z
loop_
_atom_site_type_symbol
_atom_site_label
_atom_site_fract_x
_atom_site_fract_y
_atom_site_fract_z
Si Si1 0.677023 0.872386 0.000000
Si Si2 0.228879 0.085674 0.765106
Si Si3 0.592853 0.701551 0.000000
Si Si4 0.874695 0.531026 0.120422
Si Si5 0.207874 0.630715 0.870238
Si Si6 0.000000 0.824701 0.250000
Si Si7 0.570390 0.725297 0.615723
O O1 0.619844 0.914324 0.059831
O O2 0.648171 0.784145 0.000000
O O3 0.816678 0.869685 0.000000
O O4 0.315019 0.083736 0.825441
O O5 0.297511 0.126294 0.707206
O O6 0.107928 0.126946 0.776370
O O7 0.192570 0.000000 0.750000
O O8 0.521698 0.695404 0.934658
O O9 0.802584 0.454950 0.101745
O O10 0.000000 0.500000 0.142506
O O11 0.327959 0.664612 0.893032
O O12 0.108739 0.686891 0.897492
O O13 0.029673 0.772940 0.189135
#
# Coordination Sequence:
#
# PCOD8276197 Si02
#       7
#     8  16   8  16  16   8  16
#     4  11  25  41  59  86 116 152 200 241 298 365
#     4   9  19  35  57  86 116 150 194 245 297 350
#     4  11  24  42  61  85 116 152 194 249 305 356
#     4  11  22  38  60  86 121 158 195 244 298 356
#     4   9  21  37  57  87 114 149 199 241 293 355
#     4  10  19  36  60  84 117 156 198 244 296 356
#     4  10  21  38  59  84 116 155 197 245 296 352
#
# _framework density 20.745032999999999
#
# number of rings (size 3 to 8) (size 9 to 14) (size 15 to 20)
#    0.000    2.000    0.000    2.727    0.000    9.091 
#    0.000    7.273    0.000    0.000    0.000    0.000 
#    0.000    0.000    0.000    0.000    0.000    0.000 
#
# Total GULP energy -545344.614816 kJ/mol
# GULP energy per Si atom -12394.195791 kJ/mol
# Density = 2.069782 g / cm^3
# Si number density = 20.745033 Si / 1000 Ang^3
#
#
#
# Elastic Constant Matrix: (Units=GPa)
#
#
# Indices 1 2 3 4 5 6 
#
# 1 107.4302 19.8959 40.8362 0.0000 0.0000 0.0000
# 2 19.8959 64.5640 13.2668 0.0000 0.0000 0.0000
# 3 40.8362 13.2668 88.6948 0.0000 0.0000 0.0000
# 4 0.0000 0.0000 0.0000 8.4288 0.0000 0.0000
# 5 0.0000 0.0000 0.0000 0.0000 31.5654 0.0000
# 6 0.0000 0.0000 0.0000 0.0000 0.0000 19.6121
#
#
#
# Elastic Compliance Matrix: (Units=1/GPa)
#
#
# Indices 1 2 3 4 5 6 
#
# 1 0.011683 -0.002574 -0.004994 0.000000 0.000000 0.000000
# 2 -0.002574 0.016547 -0.001290 0.000000 0.000000 0.000000
# 3 -0.004994 -0.001290 0.013767 0.000000 0.000000 0.000000
# 4 0.000000 0.000000 0.000000 0.118641 0.000000 0.000000
# 5 0.000000 0.000000 0.000000 0.000000 0.031680 0.000000
# 6 0.000000 0.000000 0.000000 0.000000 0.000000 0.050989
#
#
# Mechanical properties :
#
#
# Convention : Reuss Voigt Hill
#
# Bulk Modulus (GPa) = 41.18476 45.40964 43.29720
# Shear Modulus (GPa) = 18.57924 24.36726 21.47325
#
# Velocity S-wave (km/s) = 2.99590 3.43097 3.22079
# Velocity P-wave (km/s) = 5.64475 6.13452 5.89472
#
# Compressibility (1/GPa) = 0.02428083
#
# Stress axis : x y z
#
# Youngs Moduli (GPa) = 85.59091 60.43468 72.63774
#
# Poissons Ratio (x) = 0.15557 0.36277
# Poissons Ratio (y) = 0.22032 0.09369
# Poissons Ratio (z) = 0.42746 0.07795
#
# Static dielectric constant tensor:
#      x y z
#    x 3.891280 0.000000 0.000000 
#    y 0.000000 3.890630 0.000000 
#    z 0.000000 0.000000 3.738840 
# 
# 
# High freq. dielectric constant tensor:
#      x y z
#    x 1.818650 0.000000 0.000000 
#    y 0.000000 1.815370 0.000000 
#    z 0.000000 0.000000 1.804610 
# 
# From -- ./inp_files/48601.got.cif
#   From: 2010.03.12/outbox.cif.g09.slc.cpg/sg66_25_cif.got.tgz:48601.got - 2010.04.10 21:57:39.
