data_PCOD8276939
_publ_section_title
;
Structure prediction by ZEFSAII (Michael W. Deem and Ramdas Pophale) SiO2 
 PCOD8276939
Probable space group: C C C M
;
_chemical_formula_sum "Si O2"
_cell_formula_units_Z 64
_cell_length_a 14.553433
_cell_length_b 27.442847
_cell_length_c 8.568885
_cell_angle_alpha 90.000000
_cell_angle_beta 90.000000
_cell_angle_gamma 90.000000
_cell_volume 3422.306716
_symmetry_space_group_name_H-M "C C C M"
_symmetry_group_IT_number 66
_symmetry_cell_setting 'orthorhombic'
loop_
_space_group_symop_operation_xyz
x,y,z
-x,-y,z
x,-y,1/2-z
-x,y,1/2-z
-x,-y,-z
x,y,-z
-x,y,1/2+z
x,-y,1/2+z
1/2+x,1/2+y,z
1/2-x,1/2-y,z
1/2+x,1/2-y,1/2-z
1/2-x,1/2+y,1/2-z
1/2-x,1/2-y,-z
1/2+x,1/2+y,-z
1/2-x,1/2+y,1/2+z
1/2+x,1/2-y,1/2+z
loop_
_atom_site_type_symbol
_atom_site_label
_atom_site_fract_x
_atom_site_fract_y
_atom_site_fract_z
Si Si1 0.402503 0.051996 0.817578
Si Si2 0.906436 0.823811 0.319231
Si Si3 0.097892 0.281017 0.815901
Si Si4 0.785402 0.364749 0.179278
O O1 0.500000 0.069836 0.750000
O O2 0.323936 0.090877 0.780038
O O3 0.372529 0.000000 0.750000
O O4 0.413983 0.046546 0.000000
O O5 0.920816 0.809756 0.500000
O O6 0.882514 0.774918 0.224927
O O7 0.824795 0.862730 0.298304
O O8 0.000000 0.847174 0.250000
O O9 0.175550 0.313338 0.735791
O O10 0.000000 0.298321 0.750000
O O11 0.100895 0.289103 0.000000
O O12 0.812076 0.373347 0.000000
#
# Coordination Sequence:
#
# PCOD8276939 Si02
#       4
#    16  16  16  16
#     4  11  22  38  59  83 111 140 171 211 260 314
#     4  10  21  36  54  75 105 142 179 221 264 309
#     4  11  21  33  51  76 108 143 179 219 262 312
#     4  11  22  36  54  78 107 140 178 218 263 313
#
# _framework density 18.700838000000001
#
# number of rings (size 3 to 8) (size 9 to 14) (size 15 to 20)
#    0.000    1.250    0.000    9.750    0.000    7.000 
#    0.000    0.000    0.000    0.750    0.000    5.250 
#    0.000    0.000    0.000    0.000    0.000    0.000 
#
# Total GULP energy -396948.216875 kJ/mol
# GULP energy per Si atom -12404.631777 kJ/mol
# Density = 1.865827 g / cm^3
# Si number density = 18.700838 Si / 1000 Ang^3
#
#
#
# Elastic Constant Matrix: (Units=GPa)
#
#
# Indices 1 2 3 4 5 6 
#
# 1 109.7966 49.7537 39.4746 0.0000 0.0000 0.0000
# 2 49.7537 69.4589 25.5996 0.0000 0.0000 0.0000
# 3 39.4746 25.5996 122.4763 0.0000 0.0000 0.0000
# 4 0.0000 0.0000 0.0000 19.9874 0.0000 0.0000
# 5 0.0000 0.0000 0.0000 0.0000 30.8171 0.0000
# 6 0.0000 0.0000 0.0000 0.0000 0.0000 28.1452
#
#
#
# Elastic Compliance Matrix: (Units=1/GPa)
#
#
# Indices 1 2 3 4 5 6 
#
# 1 0.014244 -0.009221 -0.002663 0.000000 0.000000 0.000000
# 2 -0.009221 0.021568 -0.001536 0.000000 0.000000 0.000000
# 3 -0.002663 -0.001536 0.009344 0.000000 0.000000 0.000000
# 4 0.000000 0.000000 0.000000 0.050031 0.000000 0.000000
# 5 0.000000 0.000000 0.000000 0.000000 0.032449 0.000000
# 6 0.000000 0.000000 0.000000 0.000000 0.000000 0.035530
#
#
# Mechanical properties :
#
#
# Convention : Reuss Voigt Hill
#
# Bulk Modulus (GPa) = 54.60029 59.04307 56.82168
# Shear Modulus (GPa) = 25.49532 28.25021 26.87277
#
# Velocity S-wave (km/s) = 3.69633 3.89091 3.79487
# Velocity P-wave (km/s) = 6.89037 7.19907 7.04641
#
# Compressibility (1/GPa) = 0.01831492
#
# Stress axis : x y z
#
# Youngs Moduli (GPa) = 70.20536 46.36410 107.01649
#
# Poissons Ratio (x) = 0.42754 0.28503
# Poissons Ratio (y) = 0.64739 0.16439
# Poissons Ratio (z) = 0.18699 0.07122
#
# Static dielectric constant tensor:
#      x y z
#    x 3.563300 0.000000 0.000000 
#    y 0.000000 3.157680 0.000000 
#    z 0.000000 0.000000 3.632130 
# 
# 
# High freq. dielectric constant tensor:
#      x y z
#    x 1.727690 0.000000 0.000000 
#    y 0.000000 1.697710 0.000000 
#    z 0.000000 0.000000 1.749990 
# 
# From -- ./inp_files/5067.got.cif
#   From: 2010.03.12/outbox.cif.g09.slc.cpg/sg66_3_cif.got.tgz:5067.got - 2010.04.10 21:57:39.
