data_PCOD8276692
_publ_section_title
;
Structure prediction by ZEFSAII (Michael W. Deem and Ramdas Pophale) SiO2 
 PCOD8276692
Probable space group: C C C M
;
_chemical_formula_sum "Si O2"
_cell_formula_units_Z 56
_cell_length_a 19.345977
_cell_length_b 14.613512
_cell_length_c 9.467018
_cell_angle_alpha 90.000000
_cell_angle_beta 90.000000
_cell_angle_gamma 90.000000
_cell_volume 2676.445908
_symmetry_space_group_name_H-M "C C C M"
_symmetry_group_IT_number 66
_symmetry_cell_setting 'orthorhombic'
loop_
_space_group_symop_operation_xyz
x,y,z
-x,-y,z
x,-y,1/2-z
-x,y,1/2-z
-x,-y,-z
x,y,-z
-x,y,1/2+z
x,-y,1/2+z
1/2+x,1/2+y,z
1/2-x,1/2-y,z
1/2+x,1/2-y,1/2-z
1/2-x,1/2+y,1/2-z
1/2-x,1/2-y,-z
1/2+x,1/2+y,-z
1/2-x,1/2+y,1/2+z
1/2+x,1/2-y,1/2+z
loop_
_atom_site_type_symbol
_atom_site_label
_atom_site_fract_x
_atom_site_fract_y
_atom_site_fract_z
Si Si1 0.802981 0.329769 0.840310
Si Si2 0.910214 0.077647 0.345748
Si Si3 0.932727 0.283018 0.669453
Si Si4 0.722542 0.500000 0.250000
O O1 0.750000 0.250000 0.794006
O O2 0.865963 0.334841 0.729784
O O3 0.768164 0.429463 0.839352
O O4 0.829448 0.310289 0.000000
O O5 0.942946 0.070479 0.500000
O O6 0.925199 0.177438 0.283250
O O7 0.827312 0.059589 0.353039
O O8 0.946649 0.000000 0.250000
O O9 0.937586 0.296511 0.500000
O O10 0.000000 0.322918 0.750000
#
# Coordination Sequence:
#
# PCOD8276692 Si02
#       4
#    16  16  16   8
#     4  11  22  40  66  94 128 168 210 259 312 374
#     4   9  19  35  57  86 121 158 200 252 311 373
#     4  11  24  41  61  88 125 168 212 258 313 375
#     4  10  20  36  64  96 126 154 208 256 312 370
#
# _framework density 20.923271
#
# number of rings (size 3 to 8) (size 9 to 14) (size 15 to 20)
#    0.857    0.857    2.857    1.714    0.000    5.714 
#    0.000    3.571    0.000    3.429    0.000    0.000 
#    0.000    0.000    0.000    0.000    0.000    0.000 
#
# Total GULP energy -347022.262341 kJ/mol
# GULP energy per Si atom -12393.652226 kJ/mol
# Density = 2.087565 g / cm^3
# Si number density = 20.923271 Si / 1000 Ang^3
#
#
#
# Elastic Constant Matrix: (Units=GPa)
#
#
# Indices 1 2 3 4 5 6 
#
# 1 131.7941 24.3434 52.6698 0.0000 0.0000 0.0000
# 2 24.3434 56.6363 14.5458 0.0000 0.0000 0.0000
# 3 52.6698 14.5458 104.1804 0.0000 0.0000 0.0000
# 4 0.0000 0.0000 0.0000 25.7811 0.0000 0.0000
# 5 0.0000 0.0000 0.0000 0.0000 30.6886 0.0000
# 6 0.0000 0.0000 0.0000 0.0000 0.0000 -9.1344
#
#
#
# Elastic Compliance Matrix: (Units=1/GPa)
#
#
# Indices 1 2 3 4 5 6 
#
# 1 0.010012 -0.003115 -0.004627 0.000000 0.000000 0.000000
# 2 -0.003115 0.019282 -0.001117 0.000000 0.000000 0.000000
# 3 -0.004627 -0.001117 0.012094 0.000000 0.000000 0.000000
# 4 0.000000 0.000000 0.000000 0.038788 0.000000 0.000000
# 5 0.000000 0.000000 0.000000 0.000000 0.032585 0.000000
# 6 0.000000 0.000000 0.000000 0.000000 0.000000 -0.109476
#
#
# Mechanical properties :
#
#
# Convention : Reuss Voigt Hill
#
# Bulk Modulus (GPa) = 42.24784 52.85876 47.55330
# Shear Modulus (GPa) = 173.04457 22.87051 97.95754
#
# Velocity S-wave (km/s) = 9.10406 3.30974 6.84976
# Velocity P-wave (km/s) = 11.43449 6.31853 9.23773
#
# Compressibility (1/GPa) = 0.02366985
#
# Stress axis : x y z
#
# Youngs Moduli (GPa) = 99.88012 51.86078 82.68651
#
# Poissons Ratio (x) = 0.16155 0.38257
# Poissons Ratio (y) = 0.31113 0.09239
# Poissons Ratio (z) = 0.46212 0.05795
#
# Static dielectric constant tensor:
#      x y z
#    x 3.662930 0.000000 0.000000 
#    y 0.000000 3.540620 0.000000 
#    z 0.000000 0.000000 3.633440 
# 
# 
# High freq. dielectric constant tensor:
#      x y z
#    x 1.818900 0.000000 0.000000 
#    y 0.000000 1.796730 0.000000 
#    z 0.000000 0.000000 1.815340 
# 
# From -- ./inp_files/7370.got.cif
#   From: 2010.03.12/outbox.cif.g09.slc.cpg/sg66_4_cif.got.tgz:7370.got - 2010.04.10 21:57:39.
