data_PCOD8276824
_publ_section_title
;
Structure prediction by ZEFSAII (Michael W. Deem and Ramdas Pophale) SiO2 
 PCOD8276824
Probable space group: C C C M
;
_chemical_formula_sum "Si O2"
_cell_formula_units_Z 112
_cell_length_a 14.506340
_cell_length_b 23.882900
_cell_length_c 13.241702
_cell_angle_alpha 90.000000
_cell_angle_beta 90.000000
_cell_angle_gamma 90.000000
_cell_volume 4587.633575
_symmetry_space_group_name_H-M "C C C M"
_symmetry_group_IT_number 66
_symmetry_cell_setting 'orthorhombic'
loop_
_space_group_symop_operation_xyz
x,y,z
-x,-y,z
x,-y,1/2-z
-x,y,1/2-z
-x,-y,-z
x,y,-z
-x,y,1/2+z
x,-y,1/2+z
1/2+x,1/2+y,z
1/2-x,1/2-y,z
1/2+x,1/2-y,1/2-z
1/2-x,1/2+y,1/2-z
1/2-x,1/2-y,-z
1/2+x,1/2+y,-z
1/2-x,1/2+y,1/2+z
1/2+x,1/2-y,1/2+z
loop_
_atom_site_type_symbol
_atom_site_label
_atom_site_fract_x
_atom_site_fract_y
_atom_site_fract_z
Si Si1 0.846616 0.870339 0.621745
Si Si2 0.953563 0.109145 0.384774
Si Si3 0.051192 0.372287 0.613674
Si Si4 0.263615 0.425388 0.881015
Si Si5 0.137865 0.334482 0.197038
Si Si6 0.397670 0.285187 0.778518
Si Si7 0.805096 0.541009 0.616428
O O1 0.843507 0.860291 0.500000
O O2 0.840150 0.811070 0.682238
O O3 0.767516 0.913114 0.659935
O O4 0.944777 0.896072 0.666392
O O5 0.978982 0.101345 0.500000
O O6 0.872558 0.065281 0.355268
O O7 0.908989 0.169959 0.367437
O O8 0.070647 0.352778 0.500000
O O9 0.113316 0.332877 0.683909
O O10 0.090281 0.436143 0.630162
O O11 0.943431 0.367835 0.637846
O O12 0.229894 0.368329 0.827613
O O13 0.207916 0.478929 0.835164
O O14 0.247976 0.417782 0.000000
O O15 0.152725 0.269067 0.171785
O O16 0.500000 0.263777 0.750000
O O17 0.778373 0.533258 0.500000
#
# Coordination Sequence:
#
# PCOD8276824 Si02
#       7
#    16  16  16  16  16  16  16
#     4   9  19  38  64  91 124 166 206 253 315 373
#     4   9  20  37  60  90 123 162 205 250 311 373
#     4  10  22  41  63  90 123 160 208 256 308 372
#     4  10  22  40  62  93 127 161 207 261 313 373
#     4  11  23  40  61  93 123 165 208 254 319 371
#     4  10  20  39  58  87 123 159 204 257 307 369
#     4   9  20  40  64  91 125 161 207 261 309 369
#
# _framework density 24.413457000000001
#
# number of rings (size 3 to 8) (size 9 to 14) (size 15 to 20)
#    0.000    2.286    1.429    0.429    2.000    4.000 
#    0.000    7.857    0.000    5.143    0.000    0.000 
#    0.000    0.000    0.000    0.000    0.000    0.000 
#
# Total GULP energy -693774.449348 kJ/mol
# GULP energy per Si atom -12388.829453 kJ/mol
# Density = 2.435789 g / cm^3
# Si number density = 24.413457 Si / 1000 Ang^3
#
#
#
# Elastic Constant Matrix: (Units=GPa)
#
#
# Indices 1 2 3 4 5 6 
#
# 1 90.7661 36.0352 17.0680 0.0000 0.0000 0.0000
# 2 36.0352 119.2515 0.8943 0.0000 0.0000 0.0000
# 3 17.0680 0.8943 28.6332 0.0000 0.0000 0.0000
# 4 0.0000 0.0000 0.0000 20.6117 0.0000 0.0000
# 5 0.0000 0.0000 0.0000 0.0000 26.0276 0.0000
# 6 0.0000 0.0000 0.0000 0.0000 0.0000 35.2939
#
#
#
# Elastic Compliance Matrix: (Units=1/GPa)
#
#
# Indices 1 2 3 4 5 6 
#
# 1 0.014282 -0.004253 -0.008380 0.000000 0.000000 0.000000
# 2 -0.004253 0.009654 0.002234 0.000000 0.000000 0.000000
# 3 -0.008380 0.002234 0.039850 0.000000 0.000000 0.000000
# 4 0.000000 0.000000 0.000000 0.048516 0.000000 0.000000
# 5 0.000000 0.000000 0.000000 0.000000 0.038421 0.000000
# 6 0.000000 0.000000 0.000000 0.000000 0.000000 0.028334
#
#
# Mechanical properties :
#
#
# Convention : Reuss Voigt Hill
#
# Bulk Modulus (GPa) = 23.26302 38.51619 30.88960
# Shear Modulus (GPa) = 23.34440 28.69685 26.02062
#
# Velocity S-wave (km/s) = 3.09562 3.43221 3.26825
# Velocity P-wave (km/s) = 4.72510 5.61405 5.18865
#
# Compressibility (1/GPa) = 0.04298668
#
# Stress axis : x y z
#
# Youngs Moduli (GPa) = 70.02027 103.58427 25.09397
#
# Poissons Ratio (x) = 0.44052 0.21030
# Poissons Ratio (y) = 0.29778 -0.05605
# Poissons Ratio (z) = 0.58679 -0.23136
#
# Static dielectric constant tensor:
#      x y z
#    x 4.534140 0.000000 0.000000 
#    y 0.000000 4.213930 0.000000 
#    z 0.000000 0.000000 4.530200 
# 
# 
# High freq. dielectric constant tensor:
#      x y z
#    x 1.977000 0.000000 0.000000 
#    y 0.000000 1.941880 0.000000 
#    z 0.000000 0.000000 1.981850 
# 
# From -- ./inp_files/28718.got.cif
#   From: 2010.03.12/outbox.cif.g09.slc.cpg/sg66_15_cif.got.tgz:28718.got - 2010.04.10 21:57:39.
