data_PCOD8276853
_publ_section_title
;
Structure prediction by ZEFSAII (Michael W. Deem and Ramdas Pophale) SiO2 
 PCOD8276853
Probable space group: C C C M
;
_chemical_formula_sum "Si O2"
_cell_formula_units_Z 112
_cell_length_a 11.964374
_cell_length_b 16.382756
_cell_length_c 28.635416
_cell_angle_alpha 90.000000
_cell_angle_beta 90.000000
_cell_angle_gamma 90.000000
_cell_volume 5612.811280
_symmetry_space_group_name_H-M "C C C M"
_symmetry_group_IT_number 66
_symmetry_cell_setting 'orthorhombic'
loop_
_space_group_symop_operation_xyz
x,y,z
-x,-y,z
x,-y,1/2-z
-x,y,1/2-z
-x,-y,-z
x,y,-z
-x,y,1/2+z
x,-y,1/2+z
1/2+x,1/2+y,z
1/2-x,1/2-y,z
1/2+x,1/2-y,1/2-z
1/2-x,1/2+y,1/2-z
1/2-x,1/2-y,-z
1/2+x,1/2+y,-z
1/2-x,1/2+y,1/2+z
1/2+x,1/2-y,1/2+z
loop_
_atom_site_type_symbol
_atom_site_label
_atom_site_fract_x
_atom_site_fract_y
_atom_site_fract_z
Si Si1 0.168751 0.504323 0.389154
Si Si2 0.909305 0.063410 0.107951
Si Si3 0.730571 0.055347 0.294912
Si Si4 0.125256 0.227319 0.444764
Si Si5 0.000674 0.366181 0.104130
Si Si6 0.035994 0.120009 0.197049
Si Si7 0.435131 0.807534 0.297503
O O1 0.296267 0.486939 0.400418
O O2 0.156180 0.509063 0.333144
O O3 0.095257 0.430742 0.407952
O O4 0.120584 0.591359 0.409299
O O5 0.908706 0.139370 0.073580
O O6 0.936701 0.095762 0.160972
O O7 0.000000 0.000000 0.089987
O O8 0.858366 0.061697 0.313163
O O9 0.683588 0.147606 0.288868
O O10 0.720973 0.000000 0.250000
O O11 0.123815 0.227675 0.500000
O O12 0.250000 0.250000 0.426055
O O13 0.028023 0.288045 0.427001
O O14 0.997175 0.344285 0.158866
O O15 0.078636 0.212212 0.191273
O O16 0.000000 0.103288 0.250000
O O17 0.500000 0.822202 0.250000
#
# Coordination Sequence:
#
# PCOD8276853 Si02
#       7
#    16  16  16  16  16  16  16
#     4  10  21  35  61  93 126 167 212 258 325 379
#     4  12  23  41  65  97 130 171 209 264 325 386
#     4  11  21  35  53  82 126 171 214 262 311 376
#     4  11  24  45  72  97 126 165 216 274 337 401
#     4  10  20  40  62  92 127 164 212 270 319 384
#     4  11  23  35  55  86 126 168 216 259 308 378
#     4  10  21  36  55  86 120 169 214 262 316 371
#
# _framework density 19.954350000000002
#
# number of rings (size 3 to 8) (size 9 to 14) (size 15 to 20)
#    0.000    1.286    4.286    2.143    0.000    1.714 
#    0.000    4.286    0.000    0.857    0.000    0.000 
#    0.000    0.000    0.000    0.000    0.000    0.000 
#
# Total GULP energy -694004.977057 kJ/mol
# GULP energy per Si atom -12392.946019 kJ/mol
# Density = 1.990893 g / cm^3
# Si number density = 19.954350 Si / 1000 Ang^3
#
#
#
# Elastic Constant Matrix: (Units=GPa)
#
#
# Indices 1 2 3 4 5 6 
#
# 1 121.2586 65.9854 34.8513 0.0000 0.0000 0.0000
# 2 65.9854 139.5024 38.5511 0.0000 0.0000 0.0000
# 3 34.8513 38.5511 69.1226 0.0000 0.0000 0.0000
# 4 0.0000 0.0000 0.0000 15.6022 0.0000 0.0000
# 5 0.0000 0.0000 0.0000 0.0000 20.4858 0.0000
# 6 0.0000 0.0000 0.0000 0.0000 0.0000 38.3959
#
#
#
# Elastic Compliance Matrix: (Units=1/GPa)
#
#
# Indices 1 2 3 4 5 6 
#
# 1 0.011720 -0.004623 -0.003331 0.000000 0.000000 0.000000
# 2 -0.004623 0.010298 -0.003413 0.000000 0.000000 0.000000
# 3 -0.003331 -0.003413 0.018050 0.000000 0.000000 0.000000
# 4 0.000000 0.000000 0.000000 0.064093 0.000000 0.000000
# 5 0.000000 0.000000 0.000000 0.000000 0.048814 0.000000
# 6 0.000000 0.000000 0.000000 0.000000 0.000000 0.026044
#
#
# Mechanical properties :
#
#
# Convention : Reuss Voigt Hill
#
# Bulk Modulus (GPa) = 57.68700 67.62879 62.65790
# Shear Modulus (GPa) = 24.09279 27.59650 25.84464
#
# Velocity S-wave (km/s) = 3.47853 3.72288 3.60278
# Velocity P-wave (km/s) = 6.71609 7.24190 6.98394
#
# Compressibility (1/GPa) = 0.01733493
#
# Stress axis : x y z
#
# Youngs Moduli (GPa) = 85.32495 97.10492 55.40288
#
# Poissons Ratio (x) = 0.44893 0.18453
# Poissons Ratio (y) = 0.39447 0.18906
# Poissons Ratio (z) = 0.28419 0.33137
#
# Static dielectric constant tensor:
#      x y z
#    x 3.767930 0.000000 0.000000 
#    y 0.000000 3.915190 0.000000 
#    z 0.000000 0.000000 3.323540 
# 
# 
# High freq. dielectric constant tensor:
#      x y z
#    x 1.777830 0.000000 0.000000 
#    y 0.000000 1.799300 0.000000 
#    z 0.000000 0.000000 1.749010 
# 
# From -- ./inp_files/69074.got.cif
#   From: 2010.03.12/outbox.cif.g09.slc.cpg/sg66_35_cif.got.tgz:69074.got - 2010.04.10 21:57:39.
