data_PCOD8276150
_publ_section_title
;
Structure prediction by ZEFSAII (Michael W. Deem and Ramdas Pophale) SiO2 
 PCOD8276150
Probable space group: C C C M
;
_chemical_formula_sum "Si O2"
_cell_formula_units_Z 104
_cell_length_a 19.659098
_cell_length_b 9.161329
_cell_length_c 27.767123
_cell_angle_alpha 90.000000
_cell_angle_beta 90.000000
_cell_angle_gamma 90.000000
_cell_volume 5000.955055
_symmetry_space_group_name_H-M "C C C M"
_symmetry_group_IT_number 66
_symmetry_cell_setting 'orthorhombic'
loop_
_space_group_symop_operation_xyz
x,y,z
-x,-y,z
x,-y,1/2-z
-x,y,1/2-z
-x,-y,-z
x,y,-z
-x,y,1/2+z
x,-y,1/2+z
1/2+x,1/2+y,z
1/2-x,1/2-y,z
1/2+x,1/2-y,1/2-z
1/2-x,1/2+y,1/2-z
1/2-x,1/2-y,-z
1/2+x,1/2+y,-z
1/2-x,1/2+y,1/2+z
1/2+x,1/2-y,1/2+z
loop_
_atom_site_type_symbol
_atom_site_label
_atom_site_fract_x
_atom_site_fract_y
_atom_site_fract_z
Si Si1 0.368583 0.521101 0.555624
Si Si2 0.679664 0.173717 0.292074
Si Si3 0.391396 0.221851 0.117703
Si Si4 0.788557 0.535746 0.054955
Si Si5 0.382134 0.199128 0.414048
Si Si6 0.500000 0.000000 0.097818
Si Si7 0.680798 0.842133 0.686074
O O1 0.381140 0.557806 0.500000
O O2 0.412326 0.633369 0.588183
O O3 0.289865 0.537717 0.570511
O O4 0.395104 0.359670 0.566433
O O5 0.750000 0.250000 0.284314
O O6 0.633677 0.265442 0.329085
O O7 0.646076 0.180581 0.238711
O O8 0.695120 0.015357 0.315492
O O9 0.330906 0.144970 0.087999
O O10 0.455388 0.115928 0.127872
O O11 0.814758 0.369726 0.061799
O O12 0.796834 0.587194 0.000000
O O13 0.446075 0.098852 0.431862
O O14 0.373202 0.198607 0.355768
O O15 0.750000 0.750000 0.678061
#
# Coordination Sequence:
#
# PCOD8276150 Si02
#       7
#    16  16  16  16  16   8  16
#     4  11  23  38  62  91 117 149 195 251 308 362
#     4  10  20  35  59  94 125 152 190 237 299 359
#     4  11  22  39  59  84 121 160 198 243 295 342
#     4  10  19  35  59  89 119 147 188 239 304 369
#     4  11  22  39  59  84 121 160 198 243 295 342
#     4  10  24  44  58  80 114 160 216 244 282 350
#     4  10  20  35  59  94 125 152 190 237 299 359
#
# _framework density 20.796026999999999
#
# number of rings (size 3 to 8) (size 9 to 14) (size 15 to 20)
#    0.000    1.538    3.077    3.692    2.154    3.077 
#    0.000   16.154    0.000    0.000    0.000    2.154 
#    0.000    0.000    0.000    0.000    0.000    0.000 
#
# Total GULP energy -644443.136075 kJ/mol
# GULP energy per Si atom -12393.137232 kJ/mol
# Density = 2.074869 g / cm^3
# Si number density = 20.796027 Si / 1000 Ang^3
#
#
#
# Elastic Constant Matrix: (Units=GPa)
#
#
# Indices 1 2 3 4 5 6 
#
# 1 66.1241 20.6626 29.4005 0.0000 0.0000 0.0000
# 2 20.6626 107.6172 33.7481 0.0000 0.0000 0.0000
# 3 29.4005 33.7481 109.5651 0.0000 0.0000 0.0000
# 4 0.0000 0.0000 0.0000 18.5085 0.0000 0.0000
# 5 0.0000 0.0000 0.0000 0.0000 11.5868 0.0000
# 6 0.0000 0.0000 0.0000 0.0000 0.0000 20.8526
#
#
#
# Elastic Compliance Matrix: (Units=1/GPa)
#
#
# Indices 1 2 3 4 5 6 
#
# 1 0.017590 -0.002100 -0.004073 0.000000 0.000000 0.000000
# 2 -0.002100 0.010536 -0.002682 0.000000 0.000000 0.000000
# 3 -0.004073 -0.002682 0.011046 0.000000 0.000000 0.000000
# 4 0.000000 0.000000 0.000000 0.054029 0.000000 0.000000
# 5 0.000000 0.000000 0.000000 0.000000 0.086305 0.000000
# 6 0.000000 0.000000 0.000000 0.000000 0.000000 0.047956
#
#
# Mechanical properties :
#
#
# Convention : Reuss Voigt Hill
#
# Bulk Modulus (GPa) = 46.59301 50.10319 48.34810
# Shear Modulus (GPa) = 19.81554 23.48927 21.65241
#
# Velocity S-wave (km/s) = 3.09018 3.36446 3.23023
# Velocity P-wave (km/s) = 5.93175 6.26401 6.10014
#
# Compressibility (1/GPa) = 0.02146245
#
# Stress axis : x y z
#
# Youngs Moduli (GPa) = 56.84922 94.90885 90.52969
#
# Poissons Ratio (x) = 0.19931 0.36876
# Poissons Ratio (y) = 0.11938 0.24279
# Poissons Ratio (z) = 0.23157 0.25454
#
# Static dielectric constant tensor:
#      x y z
#    x 3.681870 0.000000 0.000000 
#    y 0.000000 3.977650 0.000000 
#    z 0.000000 0.000000 3.965060 
# 
# 
# High freq. dielectric constant tensor:
#      x y z
#    x 1.780260 0.000000 0.000000 
#    y 0.000000 1.822750 0.000000 
#    z 0.000000 0.000000 1.815070 
# 
# From -- ./inp_files/70208.got.cif
#   From: 2010.03.12/outbox.cif.g09.slc.cpg/sg66_36_cif.got.tgz:70208.got - 2010.04.10 21:57:39.
