data_PCOD8276802
_publ_section_title
;
Structure prediction by ZEFSAII (Michael W. Deem and Ramdas Pophale) SiO2 
 PCOD8276802
Probable space group: C C C M
;
_chemical_formula_sum "Si O2"
_cell_formula_units_Z 80
_cell_length_a 18.007301
_cell_length_b 25.575587
_cell_length_c 8.795288
_cell_angle_alpha 90.000000
_cell_angle_beta 90.000000
_cell_angle_gamma 90.000000
_cell_volume 4050.646083
_symmetry_space_group_name_H-M "C C C M"
_symmetry_group_IT_number 66
_symmetry_cell_setting 'orthorhombic'
loop_
_space_group_symop_operation_xyz
x,y,z
-x,-y,z
x,-y,1/2-z
-x,y,1/2-z
-x,-y,-z
x,y,-z
-x,y,1/2+z
x,-y,1/2+z
1/2+x,1/2+y,z
1/2-x,1/2-y,z
1/2+x,1/2-y,1/2-z
1/2-x,1/2+y,1/2-z
1/2-x,1/2-y,-z
1/2+x,1/2+y,-z
1/2-x,1/2+y,1/2+z
1/2+x,1/2-y,1/2+z
loop_
_atom_site_type_symbol
_atom_site_label
_atom_site_fract_x
_atom_site_fract_y
_atom_site_fract_z
Si Si1 0.419169 0.849359 0.320112
Si Si2 0.652069 0.445431 0.320126
Si Si3 0.821995 0.445866 0.320917
Si Si4 0.337047 0.744354 0.324929
Si Si5 0.077544 0.846563 0.820861
O O1 0.500000 0.850568 0.250000
O O2 0.425486 0.851911 0.500000
O O3 0.372622 0.898832 0.258058
O O4 0.377144 0.796983 0.268649
O O5 0.625297 0.500000 0.250000
O O6 0.641942 0.446529 0.500000
O O7 0.737240 0.434249 0.272827
O O8 0.599948 0.401616 0.250167
O O9 0.850806 0.500000 0.250000
O O10 0.828736 0.451001 0.500000
O O11 0.356939 0.731799 0.500000
O O12 0.250000 0.750000 0.303364
O O13 0.361805 0.696848 0.219458
O O14 0.000000 0.827924 0.750000
O O15 0.070158 0.852366 0.000000
#
# Coordination Sequence:
#
# PCOD8276802 Si02
#       5
#    16  16  16  16  16
#     4  10  21  36  55  81 113 149 187 229 281 337
#     4  10  20  38  62  87 115 149 191 238 288 342
#     4   9  19  36  58  83 112 148 189 232 279 333
#     4  10  21  40  64  86 112 149 191 238 293 349
#     4  12  25  40  59  86 119 154 193 237 287 343
#
# _framework density 19.749936999999999
#
# number of rings (size 3 to 8) (size 9 to 14) (size 15 to 20)
#    0.000    1.800    0.000    4.200    0.000    8.400 
#    0.000    6.000    0.000    0.000    0.000    0.000 
#    0.000    0.000    0.000    0.000    0.000    0.000 
#
# Total GULP energy -496215.976432 kJ/mol
# GULP energy per Si atom -12405.399411 kJ/mol
# Density = 1.970499 g / cm^3
# Si number density = 19.749937 Si / 1000 Ang^3
#
#
#
# Elastic Constant Matrix: (Units=GPa)
#
#
# Indices 1 2 3 4 5 6 
#
# 1 79.6229 41.7595 31.6463 0.0000 0.0000 0.0000
# 2 41.7595 131.6184 45.9919 0.0000 0.0000 0.0000
# 3 31.6463 45.9919 77.9284 0.0000 0.0000 0.0000
# 4 0.0000 0.0000 0.0000 36.3945 0.0000 0.0000
# 5 0.0000 0.0000 0.0000 0.0000 32.0077 0.0000
# 6 0.0000 0.0000 0.0000 0.0000 0.0000 46.1854
#
#
#
# Elastic Compliance Matrix: (Units=1/GPa)
#
#
# Indices 1 2 3 4 5 6 
#
# 1 0.016215 -0.003582 -0.004470 0.000000 0.000000 0.000000
# 2 -0.003582 0.010363 -0.004661 0.000000 0.000000 0.000000
# 3 -0.004470 -0.004661 0.017399 0.000000 0.000000 0.000000
# 4 0.000000 0.000000 0.000000 0.027477 0.000000 0.000000
# 5 0.000000 0.000000 0.000000 0.000000 0.031243 0.000000
# 6 0.000000 0.000000 0.000000 0.000000 0.000000 0.021652
#
#
# Mechanical properties :
#
#
# Convention : Reuss Voigt Hill
#
# Bulk Modulus (GPa) = 53.91337 58.66278 56.28808
# Shear Modulus (GPa) = 32.05966 34.23564 33.14765
#
# Velocity S-wave (km/s) = 4.03336 4.16800 4.10123
# Velocity P-wave (km/s) = 7.00343 7.27531 7.14066
#
# Compressibility (1/GPa) = 0.01854827
#
# Stress axis : x y z
#
# Youngs Moduli (GPa) = 61.67175 96.49534 57.47537
#
# Poissons Ratio (x) = 0.34569 0.25694
# Poissons Ratio (y) = 0.22094 0.26791
# Poissons Ratio (z) = 0.27570 0.44980
#
# Static dielectric constant tensor:
#      x y z
#    x 3.681040 0.000000 0.000000 
#    y 0.000000 3.868230 0.000000 
#    z 0.000000 0.000000 3.513310 
# 
# 
# High freq. dielectric constant tensor:
#      x y z
#    x 1.774960 0.000000 0.000000 
#    y 0.000000 1.786110 0.000000 
#    z 0.000000 0.000000 1.763610 
# 
# From -- ./inp_files/6741.got.cif
#   From: 2010.03.12/outbox.cif.g09.slc.cpg/sg66_4_cif.got.tgz:6741.got - 2010.04.10 21:57:39.
