data_PCOD8276653
_publ_section_title
;
Structure prediction by ZEFSAII (Michael W. Deem and Ramdas Pophale) SiO2 
 PCOD8276653
Probable space group: C C C M
;
_chemical_formula_sum "Si O2"
_cell_formula_units_Z 64
_cell_length_a 10.293765
_cell_length_b 17.705345
_cell_length_c 16.177593
_cell_angle_alpha 90.000000
_cell_angle_beta 90.000000
_cell_angle_gamma 90.000000
_cell_volume 2948.441723
_symmetry_space_group_name_H-M "C C C M"
_symmetry_group_IT_number 66
_symmetry_cell_setting 'orthorhombic'
loop_
_space_group_symop_operation_xyz
x,y,z
-x,-y,z
x,-y,1/2-z
-x,y,1/2-z
-x,-y,-z
x,y,-z
-x,y,1/2+z
x,-y,1/2+z
1/2+x,1/2+y,z
1/2-x,1/2-y,z
1/2+x,1/2-y,1/2-z
1/2-x,1/2+y,1/2-z
1/2-x,1/2-y,-z
1/2+x,1/2+y,-z
1/2-x,1/2+y,1/2+z
1/2+x,1/2-y,1/2+z
loop_
_atom_site_type_symbol
_atom_site_label
_atom_site_fract_x
_atom_site_fract_y
_atom_site_fract_z
Si Si1 0.858796 0.975741 0.155903
Si Si2 0.891587 0.553388 0.595533
Si Si3 0.862155 0.809225 0.902686
Si Si4 0.385832 0.219951 0.598551
O O1 0.838215 0.886166 0.147052
O O2 0.842055 0.000000 0.250000
O O3 0.752032 0.019683 0.103062
O O4 0.000000 0.000000 0.121604
O O5 0.926540 0.561677 0.500000
O O6 0.904164 0.636158 0.636034
O O7 0.000000 0.500000 0.638572
O O8 0.750000 0.750000 0.880354
O O9 0.998266 0.774212 0.872058
O O10 0.862637 0.827477 0.000000
O O11 0.381943 0.217121 0.500000
O O12 0.250000 0.250000 0.634483
#
# Coordination Sequence:
#
# PCOD8276653 Si02
#       4
#    16  16  16  16
#     4  11  24  40  56  84 124 164 204 241 290 358
#     4  10  20  36  60  88 115 147 193 247 298 349
#     4  10  20  37  62  88 114 149 197 251 301 349
#     4   9  17  30  52  83 111 137 178 232 288 340
#
# _framework density 21.706381
#
# number of rings (size 3 to 8) (size 9 to 14) (size 15 to 20)
#    0.000    2.000    0.000    3.750    0.000    8.500 
#    0.000    6.250    0.000    0.000    0.000    0.000 
#    0.000    0.000    0.000    0.000    0.000    0.000 
#
# Total GULP energy -396851.273488 kJ/mol
# GULP energy per Si atom -12401.602296 kJ/mol
# Density = 2.165698 g / cm^3
# Si number density = 21.706381 Si / 1000 Ang^3
#
#
#
# Elastic Constant Matrix: (Units=GPa)
#
#
# Indices 1 2 3 4 5 6 
#
# 1 115.2796 43.5215 24.4754 0.0000 0.0000 0.0000
# 2 43.5215 194.4772 44.2264 0.0000 0.0000 0.0000
# 3 24.4754 44.2264 28.5493 0.0000 0.0000 0.0000
# 4 0.0000 0.0000 0.0000 24.4734 0.0000 0.0000
# 5 0.0000 0.0000 0.0000 0.0000 12.4942 0.0000
# 6 0.0000 0.0000 0.0000 0.0000 0.0000 41.7488
#
#
#
# Elastic Compliance Matrix: (Units=1/GPa)
#
#
# Indices 1 2 3 4 5 6 
#
# 1 0.010633 -0.000473 -0.008383 0.000000 0.000000 0.000000
# 2 -0.000473 0.007960 -0.011925 0.000000 0.000000 0.000000
# 3 -0.008383 -0.011925 0.060687 0.000000 0.000000 0.000000
# 4 0.000000 0.000000 0.000000 0.040861 0.000000 0.000000
# 5 0.000000 0.000000 0.000000 0.000000 0.080037 0.000000
# 6 0.000000 0.000000 0.000000 0.000000 0.000000 0.023953
#
#
# Mechanical properties :
#
#
# Convention : Reuss Voigt Hill
#
# Bulk Modulus (GPa) = 26.51254 62.52809 44.52032
# Shear Modulus (GPa) = 17.96851 30.81547 24.39199
#
# Velocity S-wave (km/s) = 2.88027 3.77191 3.35584
# Velocity P-wave (km/s) = 4.82721 6.91655 5.96408
#
# Compressibility (1/GPa) = 0.03771800
#
# Stress axis : x y z
#
# Youngs Moduli (GPa) = 94.04728 125.63163 16.47801
#
# Poissons Ratio (x) = 0.05945 0.13813
# Poissons Ratio (y) = 0.04450 0.19650
# Poissons Ratio (z) = 0.78836 1.49816
#
# Static dielectric constant tensor:
#      x y z
#    x 4.173960 0.000000 0.000000 
#    y 0.000000 4.247200 0.000000 
#    z 0.000000 0.000000 3.339070 
# 
# 
# High freq. dielectric constant tensor:
#      x y z
#    x 1.869690 0.000000 0.000000 
#    y 0.000000 1.873400 0.000000 
#    z 0.000000 0.000000 1.803060 
# 
# From -- ./inp_files/38005.got.cif
#   From: 2010.03.12/outbox.cif.g09.slc.cpg/sg66_20_cif.got.tgz:38005.got - 2010.04.10 21:57:39.
