data_PCOD8276523
_publ_section_title
;
Structure prediction by ZEFSAII (Michael W. Deem and Ramdas Pophale) SiO2 
 PCOD8276523
Probable space group: C C C M
;
_chemical_formula_sum "Si O2"
_cell_formula_units_Z 64
_cell_length_a 8.401804
_cell_length_b 22.902558
_cell_length_c 16.661754
_cell_angle_alpha 90.000000
_cell_angle_beta 90.000000
_cell_angle_gamma 90.000000
_cell_volume 3206.101414
_symmetry_space_group_name_H-M "C C C M"
_symmetry_group_IT_number 66
_symmetry_cell_setting 'orthorhombic'
loop_
_space_group_symop_operation_xyz
x,y,z
-x,-y,z
x,-y,1/2-z
-x,y,1/2-z
-x,-y,-z
x,y,-z
-x,y,1/2+z
x,-y,1/2+z
1/2+x,1/2+y,z
1/2-x,1/2-y,z
1/2+x,1/2-y,1/2-z
1/2-x,1/2+y,1/2-z
1/2-x,1/2-y,-z
1/2+x,1/2+y,-z
1/2-x,1/2+y,1/2+z
1/2+x,1/2-y,1/2+z
loop_
_atom_site_type_symbol
_atom_site_label
_atom_site_fract_x
_atom_site_fract_y
_atom_site_fract_z
Si Si1 0.679487 0.994870 0.407855
Si Si2 0.687249 0.187735 0.241663
Si Si3 0.112672 0.909500 0.676212
Si Si4 0.319546 0.631649 0.090211
O O1 0.691327 0.015954 0.500000
O O2 0.799230 0.033109 0.355168
O O3 0.500000 0.000000 0.375298
O O4 0.724931 0.928098 0.397602
O O5 0.500000 0.185640 0.250000
O O6 0.750000 0.250000 0.272283
O O7 0.757204 0.137598 0.297977
O O8 0.744235 0.179186 0.149857
O O9 0.000000 0.927797 0.750000
O O10 0.005736 0.880038 0.607088
O O11 0.301283 0.655649 0.000000
#
# Coordination Sequence:
#
# PCOD8276523 Si02
#       4
#    16  16  16  16
#     4  10  20  35  56  84 117 149 184 229 279 331
#     4  11  23  41  61  82 111 147 189 235 280 330
#     4  10  21  36  56  82 114 149 188 229 278 333
#     4  10  21  37  59  86 115 149 187 229 279 333
#
# _framework density 19.961940999999999
#
# number of rings (size 3 to 8) (size 9 to 14) (size 15 to 20)
#    0.000    1.750    0.000    5.250    0.000    9.500 
#    0.000    7.500    0.000    5.250    0.000    0.000 
#    0.000    0.000    0.000    0.000    0.000    0.000 
#
# Total GULP energy -396929.734764 kJ/mol
# GULP energy per Si atom -12404.054211 kJ/mol
# Density = 1.991651 g / cm^3
# Si number density = 19.961941 Si / 1000 Ang^3
#
#
#
# Elastic Constant Matrix: (Units=GPa)
#
#
# Indices 1 2 3 4 5 6 
#
# 1 143.3599 14.2134 14.8113 0.0000 0.0000 0.0000
# 2 14.2134 39.5365 8.9496 0.0000 0.0000 0.0000
# 3 14.8113 8.9496 48.6243 0.0000 0.0000 0.0000
# 4 0.0000 0.0000 0.0000 47.1556 0.0000 0.0000
# 5 0.0000 0.0000 0.0000 0.0000 58.2615 0.0000
# 6 0.0000 0.0000 0.0000 0.0000 0.0000 34.1727
#
#
#
# Elastic Compliance Matrix: (Units=1/GPa)
#
#
# Indices 1 2 3 4 5 6 
#
# 1 0.007387 -0.002240 -0.001838 0.000000 0.000000 0.000000
# 2 -0.002240 0.027072 -0.004300 0.000000 0.000000 0.000000
# 3 -0.001838 -0.004300 0.021917 0.000000 0.000000 0.000000
# 4 0.000000 0.000000 0.000000 0.021206 0.000000 0.000000
# 5 0.000000 0.000000 0.000000 0.000000 0.017164 0.000000
# 6 0.000000 0.000000 0.000000 0.000000 0.000000 0.029263
#
#
# Mechanical properties :
#
#
# Convention : Reuss Voigt Hill
#
# Bulk Modulus (GPa) = 25.23980 34.16325 29.70152
# Shear Modulus (GPa) = 32.47322 40.82104 36.64713
#
# Velocity S-wave (km/s) = 4.03768 4.52701 4.28933
# Velocity P-wave (km/s) = 5.86588 6.66907 6.28033
#
# Compressibility (1/GPa) = 0.03961997
#
# Stress axis : x y z
#
# Youngs Moduli (GPa) = 135.36554 36.93887 45.62620
#
# Poissons Ratio (x) = 0.08273 0.08386
# Poissons Ratio (y) = 0.30318 0.19621
# Poissons Ratio (z) = 0.24881 0.15885
#
# Static dielectric constant tensor:
#      x y z
#    x 3.811730 0.000000 0.000000 
#    y 0.000000 3.224580 0.000000 
#    z 0.000000 0.000000 3.810010 
# 
# 
# High freq. dielectric constant tensor:
#      x y z
#    x 1.795280 0.000000 0.000000 
#    y 0.000000 1.772100 0.000000 
#    z 0.000000 0.000000 1.777600 
# 
# From -- ./inp_files/31894.got.cif
#   From: 2010.03.12/outbox.cif.g09.slc.cpg/sg66_16_cif.got.tgz:31894.got - 2010.04.10 21:57:39.
