data_PCOD8276238
_publ_section_title
;
Structure prediction by ZEFSAII (Michael W. Deem and Ramdas Pophale) SiO2 
 PCOD8276238
Probable space group: C C C M
;
_chemical_formula_sum "Si O2"
_cell_formula_units_Z 88
_cell_length_a 17.725750
_cell_length_b 12.744592
_cell_length_c 18.333798
_cell_angle_alpha 90.000000
_cell_angle_beta 90.000000
_cell_angle_gamma 90.000000
_cell_volume 4141.741585
_symmetry_space_group_name_H-M "C C C M"
_symmetry_group_IT_number 66
_symmetry_cell_setting 'orthorhombic'
loop_
_space_group_symop_operation_xyz
x,y,z
-x,-y,z
x,-y,1/2-z
-x,y,1/2-z
-x,-y,-z
x,y,-z
-x,y,1/2+z
x,-y,1/2+z
1/2+x,1/2+y,z
1/2-x,1/2-y,z
1/2+x,1/2-y,1/2-z
1/2-x,1/2+y,1/2-z
1/2-x,1/2-y,-z
1/2+x,1/2+y,-z
1/2-x,1/2+y,1/2+z
1/2+x,1/2-y,1/2+z
loop_
_atom_site_type_symbol
_atom_site_label
_atom_site_fract_x
_atom_site_fract_y
_atom_site_fract_z
Si Si1 0.474939 0.217871 0.176253
Si Si2 0.358192 0.610995 0.281909
Si Si3 0.108212 0.556857 0.420359
Si Si4 0.250000 0.250000 0.681749
Si Si5 0.229833 0.132135 0.080317
Si Si6 0.888046 0.680423 0.585760
O O1 0.500000 0.157950 0.250000
O O2 0.432722 0.320566 0.206352
O O3 0.416966 0.141142 0.137801
O O4 0.545498 0.249192 0.123629
O O5 0.383404 0.500000 0.250000
O O6 0.293648 0.666101 0.232310
O O7 0.327339 0.584522 0.362111
O O8 0.076985 0.590674 0.500000
O O9 0.198380 0.556324 0.421068
O O10 0.081704 0.438731 0.403340
O O11 0.190134 0.306157 0.628508
O O12 0.250000 0.250000 0.104336
O O13 0.191652 0.134141 0.000000
O O14 0.878123 0.708733 0.500000
#
# Coordination Sequence:
#
# PCOD8276238 Si02
#       6
#    16  16  16   8  16  16
#     4  12  24  43  62  95 134 172 221 278 339 396
#     4  12  25  43  70 100 138 182 229 282 345 406
#     4  10  21  40  68 102 134 166 215 278 343 403
#     4  12  23  46  67  98 136 182 224 278 339 412
#     4  10  19  37  68 103 136 171 217 278 339 402
#     4  11  25  43  68  99 135 181 224 277 346 414
#
# _framework density 21.247101000000001
#
# number of rings (size 3 to 8) (size 9 to 14) (size 15 to 20)
#    0.000    0.909    4.545    2.455    0.000    4.000 
#    0.000    0.909    0.000    1.091    0.000    0.000 
#    0.000    0.000    0.000    0.000    0.000    0.000 
#
# Total GULP energy -545523.878236 kJ/mol
# GULP energy per Si atom -12398.269960 kJ/mol
# Density = 2.119874 g / cm^3
# Si number density = 21.247101 Si / 1000 Ang^3
#
#
#
# Elastic Constant Matrix: (Units=GPa)
#
#
# Indices 1 2 3 4 5 6 
#
# 1 103.3182 40.0696 62.9608 0.0000 0.0000 0.0000
# 2 40.0696 104.3863 58.0057 0.0000 0.0000 0.0000
# 3 62.9608 58.0057 166.3416 0.0000 0.0000 0.0000
# 4 0.0000 0.0000 0.0000 31.0171 0.0000 0.0000
# 5 0.0000 0.0000 0.0000 0.0000 45.1383 0.0000
# 6 0.0000 0.0000 0.0000 0.0000 0.0000 31.3237
#
#
#
# Elastic Compliance Matrix: (Units=1/GPa)
#
#
# Indices 1 2 3 4 5 6 
#
# 1 0.013230 -0.002848 -0.004014 0.000000 0.000000 0.000000
# 2 -0.002848 0.012495 -0.003279 0.000000 0.000000 0.000000
# 3 -0.004014 -0.003279 0.008675 0.000000 0.000000 0.000000
# 4 0.000000 0.000000 0.000000 0.032240 0.000000 0.000000
# 5 0.000000 0.000000 0.000000 0.000000 0.022154 0.000000
# 6 0.000000 0.000000 0.000000 0.000000 0.000000 0.031925
#
#
# Mechanical properties :
#
#
# Convention : Reuss Voigt Hill
#
# Bulk Modulus (GPa) = 70.83820 77.34648 74.09234
# Shear Modulus (GPa) = 34.31543 35.69648 35.00596
#
# Velocity S-wave (km/s) = 4.02315 4.10330 4.06342
# Velocity P-wave (km/s) = 7.41576 7.67671 7.54736
#
# Compressibility (1/GPa) = 0.01411668
#
# Stress axis : x y z
#
# Youngs Moduli (GPa) = 75.58846 80.03083 115.27648
#
# Poissons Ratio (x) = 0.22789 0.46277
# Poissons Ratio (y) = 0.21524 0.37804
# Poissons Ratio (z) = 0.30345 0.26246
#
# Static dielectric constant tensor:
#      x y z
#    x 3.849240 0.000000 0.000000 
#    y 0.000000 3.578460 0.000000 
#    z 0.000000 0.000000 4.279800 
# 
# 
# High freq. dielectric constant tensor:
#      x y z
#    x 1.836000 0.000000 0.000000 
#    y 0.000000 1.805180 0.000000 
#    z 0.000000 0.000000 1.858870 
# 
# From -- ./inp_files/42764.got.cif
#   From: 2010.03.12/outbox.cif.g09.slc.cpg/sg66_22_cif.got.tgz:42764.got - 2010.04.10 21:57:39.
