data_PCOD8276470
_publ_section_title
;
Structure prediction by ZEFSAII (Michael W. Deem and Ramdas Pophale) SiO2 
 PCOD8276470
Probable space group: C C C M
;
_chemical_formula_sum "Si O2"
_cell_formula_units_Z 116
_cell_length_a 22.035617
_cell_length_b 30.903200
_cell_length_c 9.130564
_cell_angle_alpha 90.000000
_cell_angle_beta 90.000000
_cell_angle_gamma 90.000000
_cell_volume 6217.650021
_symmetry_space_group_name_H-M "C C C M"
_symmetry_group_IT_number 66
_symmetry_cell_setting 'orthorhombic'
loop_
_space_group_symop_operation_xyz
x,y,z
-x,-y,z
x,-y,1/2-z
-x,y,1/2-z
-x,-y,-z
x,y,-z
-x,y,1/2+z
x,-y,1/2+z
1/2+x,1/2+y,z
1/2-x,1/2-y,z
1/2+x,1/2-y,1/2-z
1/2-x,1/2+y,1/2-z
1/2-x,1/2-y,-z
1/2+x,1/2+y,-z
1/2-x,1/2+y,1/2+z
1/2+x,1/2-y,1/2+z
loop_
_atom_site_type_symbol
_atom_site_label
_atom_site_fract_x
_atom_site_fract_y
_atom_site_fract_z
Si Si1 0.560580 0.837764 0.325605
Si Si2 0.593973 0.068782 0.163414
Si Si3 0.164838 0.286702 0.829625
Si Si4 0.671489 0.606831 0.329584
Si Si5 0.438403 0.544970 0.174770
Si Si6 0.500000 0.000000 0.750000
Si Si7 0.800272 0.190991 0.668847
Si Si8 0.276273 0.956853 0.173740
O O1 0.500000 0.819448 0.250000
O O2 0.553319 0.835774 0.500000
O O3 0.570087 0.886885 0.263886
O O4 0.616201 0.808320 0.276169
O O5 0.543193 0.031239 0.155998
O O6 0.656301 0.052892 0.239008
O O7 0.612488 0.081441 0.000000
O O8 0.164051 0.235403 0.800262
O O9 0.230200 0.305269 0.783321
O O10 0.150772 0.296599 0.000000
O O11 0.673767 0.615420 0.500000
O O12 0.612966 0.579317 0.285745
O O13 0.666269 0.653212 0.254989
O O14 0.732372 0.582115 0.278868
O O15 0.419449 0.500000 0.250000
O O16 0.500000 0.562027 0.250000
O O17 0.446444 0.538788 0.000000
O O18 0.803307 0.179118 0.500000
O O19 0.251513 0.000000 0.250000
O O20 0.275770 0.964415 0.000000
#
# Coordination Sequence:
#
# PCOD8276470 Si02
#       8
#    16  16  16  16  16   4  16  16
#     4  11  22  37  56  81 109 144 185 229 275 326
#     4  10  21  34  51  74 105 144 187 228 271 314
#     4   9  19  38  59  83 110 139 177 224 273 330
#     4  10  21  35  54  81 114 142 177 224 274 324
#     4  10  20  35  55  80 108 145 183 223 265 321
#     4  12  18  36  52  70 104 148 188 228 266 308
#     4   9  19  36  60  84 109 139 176 220 272 328
#     4  10  20  35  51  74 107 144 182 227 270 316
#
# _framework density 18.656566999999999
#
# number of rings (size 3 to 8) (size 9 to 14) (size 15 to 20)
#    0.000    2.069    1.379    3.517    0.000    3.862 
#    0.000    3.448    0.000    1.655    0.000    0.000 
#    0.000    0.000    0.000    0.000    0.000    0.000 
#
# Total GULP energy -719130.881976 kJ/mol
# GULP energy per Si atom -12398.808310 kJ/mol
# Density = 1.861410 g / cm^3
# Si number density = 18.656567 Si / 1000 Ang^3
#
#
#
# Elastic Constant Matrix: (Units=GPa)
#
#
# Indices 1 2 3 4 5 6 
#
# 1 113.4627 67.9270 43.0193 0.0000 0.0000 0.0000
# 2 67.9270 119.2279 45.2503 0.0000 0.0000 0.0000
# 3 43.0193 45.2503 64.6423 0.0000 0.0000 0.0000
# 4 0.0000 0.0000 0.0000 31.7017 0.0000 0.0000
# 5 0.0000 0.0000 0.0000 0.0000 29.6428 0.0000
# 6 0.0000 0.0000 0.0000 0.0000 0.0000 25.2305
#
#
#
# Elastic Compliance Matrix: (Units=1/GPa)
#
#
# Indices 1 2 3 4 5 6 
#
# 1 0.014598 -0.006305 -0.005302 0.000000 0.000000 0.000000
# 2 -0.006305 0.014145 -0.005706 0.000000 0.000000 0.000000
# 3 -0.005302 -0.005706 0.022992 0.000000 0.000000 0.000000
# 4 0.000000 0.000000 0.000000 0.031544 0.000000 0.000000
# 5 0.000000 0.000000 0.000000 0.000000 0.033735 0.000000
# 6 0.000000 0.000000 0.000000 0.000000 0.000000 0.039635
#
#
# Mechanical properties :
#
#
# Convention : Reuss Voigt Hill
#
# Bulk Modulus (GPa) = 58.44278 67.74736 63.09507
# Shear Modulus (GPa) = 25.38381 26.72408 26.05395
#
# Velocity S-wave (km/s) = 3.69261 3.78884 3.74104
# Velocity P-wave (km/s) = 7.04089 7.45199 7.24935
#
# Compressibility (1/GPa) = 0.01711075
#
# Stress axis : x y z
#
# Youngs Moduli (GPa) = 68.50235 70.69766 43.49348
#
# Poissons Ratio (x) = 0.44573 0.23058
# Poissons Ratio (y) = 0.43189 0.24816
# Poissons Ratio (z) = 0.36317 0.40338
#
# Static dielectric constant tensor:
#      x y z
#    x 3.485670 0.000000 0.000000 
#    y 0.000000 3.405590 0.000000 
#    z 0.000000 0.000000 3.211200 
# 
# 
# High freq. dielectric constant tensor:
#      x y z
#    x 1.727910 0.000000 0.000000 
#    y 0.000000 1.724590 0.000000 
#    z 0.000000 0.000000 1.712290 
# 
# From -- ./inp_files/9413.got.cif
#   From: 2010.03.12/outbox.cif.g09.slc.cpg/sg66_5_cif.got.tgz:9413.got - 2010.04.10 21:57:39.
