data_PCOD8276617
_publ_section_title
;
Structure prediction by ZEFSAII (Michael W. Deem and Ramdas Pophale) SiO2 
 PCOD8276617
Probable space group: C C C M
;
_chemical_formula_sum "Si O2"
_cell_formula_units_Z 96
_cell_length_a 9.354138
_cell_length_b 24.097232
_cell_length_c 20.981935
_cell_angle_alpha 90.000000
_cell_angle_beta 90.000000
_cell_angle_gamma 90.000000
_cell_volume 4729.513494
_symmetry_space_group_name_H-M "C C C M"
_symmetry_group_IT_number 66
_symmetry_cell_setting 'orthorhombic'
loop_
_space_group_symop_operation_xyz
x,y,z
-x,-y,z
x,-y,1/2-z
-x,y,1/2-z
-x,-y,-z
x,y,-z
-x,y,1/2+z
x,-y,1/2+z
1/2+x,1/2+y,z
1/2-x,1/2-y,z
1/2+x,1/2-y,1/2-z
1/2-x,1/2+y,1/2-z
1/2-x,1/2-y,-z
1/2+x,1/2+y,-z
1/2-x,1/2+y,1/2+z
1/2+x,1/2-y,1/2+z
loop_
_atom_site_type_symbol
_atom_site_label
_atom_site_fract_x
_atom_site_fract_y
_atom_site_fract_z
Si Si1 0.822958 0.190351 0.314034
Si Si2 0.856182 0.156139 0.820392
Si Si3 0.350569 0.525240 0.818301
Si Si4 0.856420 0.466434 0.929566
Si Si5 0.639055 0.161949 0.928105
Si Si6 0.825166 0.690647 0.931045
O O1 0.750000 0.250000 0.321312
O O2 0.773668 0.167576 0.245847
O O3 0.754021 0.156286 0.374097
O O4 0.994162 0.189112 0.321413
O O5 0.878648 0.090696 0.819381
O O6 0.762994 0.179887 0.878859
O O7 0.500000 0.500000 0.837975
O O8 0.299012 0.500000 0.750000
O O9 0.241601 0.508721 0.873820
O O10 0.894560 0.402567 0.916625
O O11 0.000000 0.500000 0.926930
O O12 0.784579 0.472844 0.000000
O O13 0.494084 0.196382 0.914827
O O14 0.695184 0.173212 0.000000
O O15 0.750000 0.750000 0.937841
O O16 0.810577 0.659624 0.000000
#
# Coordination Sequence:
#
# PCOD8276617 Si02
#       6
#    16  16  16  16  16  16
#     4  10  21  36  55  78 107 141 181 226 270 318
#     4  10  22  38  56  81 111 144 182 223 270 324
#     4  10  20  36  58  82 112 144 178 222 270 322
#     4   9  19  35  54  80 112 143 178 220 266 319
#     4   9  19  36  57  80 108 143 180 221 270 321
#     4   9  19  36  56  79 105 136 179 226 270 317
#
# _framework density 20.298071
#
# number of rings (size 3 to 8) (size 9 to 14) (size 15 to 20)
#    0.000    2.500    0.000    2.000    0.000   10.000 
#    0.000    3.333    0.000    9.500    0.000    0.000 
#    0.000    0.000    0.000    0.000    0.000    0.000 
#
# Total GULP energy -594667.935782 kJ/mol
# GULP energy per Si atom -12388.915329 kJ/mol
# Density = 2.025187 g / cm^3
# Si number density = 20.298071 Si / 1000 Ang^3
#
#
#
# Elastic Constant Matrix: (Units=GPa)
#
#
# Indices 1 2 3 4 5 6 
#
# 1 118.8011 38.9795 99.6252 0.0000 0.0000 0.0000
# 2 38.9795 48.7514 27.8249 0.0000 0.0000 0.0000
# 3 99.6252 27.8249 199.6746 0.0000 0.0000 0.0000
# 4 0.0000 0.0000 0.0000 25.9776 0.0000 0.0000
# 5 0.0000 0.0000 0.0000 0.0000 49.7795 0.0000
# 6 0.0000 0.0000 0.0000 0.0000 0.0000 33.3152
#
#
#
# Elastic Compliance Matrix: (Units=1/GPa)
#
#
# Indices 1 2 3 4 5 6 
#
# 1 0.018162 -0.010158 -0.007646 0.000000 0.000000 0.000000
# 2 -0.010158 0.027966 0.001171 0.000000 0.000000 0.000000
# 3 -0.007646 0.001171 0.008660 0.000000 0.000000 0.000000
# 4 0.000000 0.000000 0.000000 0.038495 0.000000 0.000000
# 5 0.000000 0.000000 0.000000 0.000000 0.020089 0.000000
# 6 0.000000 0.000000 0.000000 0.000000 0.000000 0.030016
#
#
# Mechanical properties :
#
#
# Convention : Reuss Voigt Hill
#
# Bulk Modulus (GPa) = 46.46451 77.78738 62.12594
# Shear Modulus (GPa) = 27.19936 35.20096 31.20016
#
# Velocity S-wave (km/s) = 3.66457 4.16889 3.92484
# Velocity P-wave (km/s) = 6.39110 7.84721 7.15629
#
# Compressibility (1/GPa) = 0.02152180
#
# Stress axis : x y z
#
# Youngs Moduli (GPa) = 55.05855 35.75833 115.47246
#
# Poissons Ratio (x) = 0.36322 0.88296
# Poissons Ratio (y) = 0.55927 -0.13522
# Poissons Ratio (z) = 0.42100 -0.04187
#
# Static dielectric constant tensor:
#      x y z
#    x 3.473290 0.000000 0.000000 
#    y 0.000000 3.518230 0.000000 
#    z 0.000000 0.000000 5.017860 
# 
# 
# High freq. dielectric constant tensor:
#      x y z
#    x 1.781720 0.000000 0.000000 
#    y 0.000000 1.770720 0.000000 
#    z 0.000000 0.000000 1.824790 
# 
# From -- ./inp_files/55652.got.cif
#   From: 2010.03.12/outbox.cif.g09.slc.cpg/sg66_28_cif.got.tgz:55652.got - 2010.04.10 21:57:39.
