data_PCOD8276117
_publ_section_title
;
Structure prediction by ZEFSAII (Michael W. Deem and Ramdas Pophale) SiO2 
 PCOD8276117
Probable space group: C C C M
;
_chemical_formula_sum "Si O2"
_cell_formula_units_Z 96
_cell_length_a 19.525124
_cell_length_b 13.529066
_cell_length_c 17.685306
_cell_angle_alpha 90.000000
_cell_angle_beta 90.000000
_cell_angle_gamma 90.000000
_cell_volume 4671.691917
_symmetry_space_group_name_H-M "C C C M"
_symmetry_group_IT_number 66
_symmetry_cell_setting 'orthorhombic'
loop_
_space_group_symop_operation_xyz
x,y,z
-x,-y,z
x,-y,1/2-z
-x,y,1/2-z
-x,-y,-z
x,y,-z
-x,y,1/2+z
x,-y,1/2+z
1/2+x,1/2+y,z
1/2-x,1/2-y,z
1/2+x,1/2-y,1/2-z
1/2-x,1/2+y,1/2-z
1/2-x,1/2-y,-z
1/2+x,1/2+y,-z
1/2-x,1/2+y,1/2+z
1/2+x,1/2-y,1/2+z
loop_
_atom_site_type_symbol
_atom_site_label
_atom_site_fract_x
_atom_site_fract_y
_atom_site_fract_z
Si Si1 0.593487 0.268581 0.088326
Si Si2 0.814872 0.642933 0.085273
Si Si3 0.673440 0.345821 0.347924
Si Si4 0.668318 0.072010 0.087195
Si Si5 0.287743 0.351703 0.318610
Si Si6 0.532894 0.605475 0.913130
O O1 0.609568 0.152910 0.108816
O O2 0.644964 0.341465 0.130774
O O3 0.517083 0.303410 0.111979
O O4 0.604259 0.287881 0.000000
O O5 0.733479 0.622410 0.094527
O O6 0.837305 0.726206 0.145876
O O7 0.857932 0.541052 0.098110
O O8 0.828512 0.681268 0.000000
O O9 0.692425 0.386277 0.265135
O O10 0.602033 0.396304 0.365884
O O11 0.735091 0.075440 0.140277
O O12 0.690538 0.089802 0.000000
O O13 0.250000 0.250000 0.309861
O O14 0.500000 0.500000 0.897331
O O15 0.552275 0.619848 0.000000
#
# Coordination Sequence:
#
# PCOD8276117 Si02
#       6
#    16  16  16  16  16  16
#     4   9  19  37  56  79 112 151 192 234 281 341
#     4  10  20  36  59  84 112 152 197 242 288 343
#     4  11  21  37  54  85 119 153 189 236 294 349
#     4   9  19  35  59  86 112 148 197 247 293 341
#     4  10  19  35  54  84 119 147 183 237 294 343
#     4  10  22  39  59  82 114 158 199 235 283 349
#
# _framework density 20.549302000000001
#
# number of rings (size 3 to 8) (size 9 to 14) (size 15 to 20)
#    0.000    2.167    1.667    2.500    2.333    3.333 
#    0.000    1.667    0.000    4.000    0.000    2.333 
#    0.000    0.000    0.000    0.000    0.000    0.333 
#
# Total GULP energy -594843.902944 kJ/mol
# GULP energy per Si atom -12392.581311 kJ/mol
# Density = 2.050253 g / cm^3
# Si number density = 20.549302 Si / 1000 Ang^3
#
#
#
# Elastic Constant Matrix: (Units=GPa)
#
#
# Indices 1 2 3 4 5 6 
#
# 1 63.4165 11.9553 24.5591 0.0000 0.0000 0.0000
# 2 11.9553 93.9555 21.1047 0.0000 0.0000 0.0000
# 3 24.5591 21.1047 75.4514 0.0000 0.0000 0.0000
# 4 0.0000 0.0000 0.0000 15.1514 0.0000 0.0000
# 5 0.0000 0.0000 0.0000 0.0000 26.6765 0.0000
# 6 0.0000 0.0000 0.0000 0.0000 0.0000 9.4356
#
#
#
# Elastic Compliance Matrix: (Units=1/GPa)
#
#
# Indices 1 2 3 4 5 6 
#
# 1 0.018139 -0.001048 -0.005611 0.000000 0.000000 0.000000
# 2 -0.001048 0.011417 -0.002853 0.000000 0.000000 0.000000
# 3 -0.005611 -0.002853 0.015878 0.000000 0.000000 0.000000
# 4 0.000000 0.000000 0.000000 0.066001 0.000000 0.000000
# 5 0.000000 0.000000 0.000000 0.000000 0.037486 0.000000
# 6 0.000000 0.000000 0.000000 0.000000 0.000000 0.105981
#
#
# Mechanical properties :
#
#
# Convention : Reuss Voigt Hill
#
# Bulk Modulus (GPa) = 37.86210 38.67351 38.26781
# Shear Modulus (GPa) = 17.68474 21.93299 19.80887
#
# Velocity S-wave (km/s) = 2.93678 3.27055 3.10815
# Velocity P-wave (km/s) = 5.47399 5.75524 5.61638
#
# Compressibility (1/GPa) = 0.02641164
#
# Stress axis : x y z
#
# Youngs Moduli (GPa) = 55.12892 87.58554 62.98065
#
# Poissons Ratio (x) = 0.09176 0.35340
# Poissons Ratio (y) = 0.05776 0.17966
# Poissons Ratio (z) = 0.30934 0.24984
#
# Static dielectric constant tensor:
#      x y z
#    x 3.640080 0.000000 0.000000 
#    y 0.000000 3.946630 0.000000 
#    z 0.000000 0.000000 17.967410 
# 
# 
# High freq. dielectric constant tensor:
#      x y z
#    x 1.774260 0.000000 0.000000 
#    y 0.000000 1.812260 0.000000 
#    z 0.000000 0.000000 1.795380 
# 
# From -- ./inp_files/31160.got.cif
#   From: 2010.03.12/outbox.cif.g09.slc.cpg/sg66_16_cif.got.tgz:31160.got - 2010.04.10 21:57:39.
