data_PCOD8276769
_publ_section_title
;
Structure prediction by ZEFSAII (Michael W. Deem and Ramdas Pophale) SiO2 
 PCOD8276769
Probable space group: C C C M
;
_chemical_formula_sum "Si O2"
_cell_formula_units_Z 80
_cell_length_a 18.120375
_cell_length_b 9.525101
_cell_length_c 23.961712
_cell_angle_alpha 90.000000
_cell_angle_beta 90.000000
_cell_angle_gamma 90.000000
_cell_volume 4135.753201
_symmetry_space_group_name_H-M "C C C M"
_symmetry_group_IT_number 66
_symmetry_cell_setting 'orthorhombic'
loop_
_space_group_symop_operation_xyz
x,y,z
-x,-y,z
x,-y,1/2-z
-x,y,1/2-z
-x,-y,-z
x,y,-z
-x,y,1/2+z
x,-y,1/2+z
1/2+x,1/2+y,z
1/2-x,1/2-y,z
1/2+x,1/2-y,1/2-z
1/2-x,1/2+y,1/2-z
1/2-x,1/2-y,-z
1/2+x,1/2+y,-z
1/2-x,1/2+y,1/2+z
1/2+x,1/2-y,1/2+z
loop_
_atom_site_type_symbol
_atom_site_label
_atom_site_fract_x
_atom_site_fract_y
_atom_site_fract_z
Si Si1 0.684892 0.145475 0.777418
Si Si2 0.386408 0.072423 0.386750
Si Si3 0.579385 0.356479 0.725325
Si Si4 0.539629 0.219549 0.614872
Si Si5 0.989289 0.161732 0.000000
Si Si6 0.664691 0.803969 0.500000
O O1 0.750000 0.250000 0.765942
O O2 0.674853 0.118698 0.842709
O O3 0.614546 0.213445 0.747625
O O4 0.705544 0.000000 0.750000
O O5 0.458636 0.161704 0.370269
O O6 0.350247 0.100735 0.446431
O O7 0.402163 0.907191 0.383833
O O8 0.619171 0.500000 0.750000
O O9 0.500000 0.361013 0.750000
O O10 0.569407 0.340671 0.657725
O O11 0.533271 0.278186 0.552738
O O12 0.900380 0.186578 0.000000
O O13 0.000000 0.000000 0.000000
O O14 0.750000 0.750000 0.500000
#
# Coordination Sequence:
#
# PCOD8276769 Si02
#       6
#    16  16  16  16   8   8
#     4  12  24  40  59  88 124 166 205 255 317 383
#     4  10  20  37  65  90 121 156 213 256 311 375
#     4  11  23  37  62  91 124 160 205 260 313 374
#     4  10  20  38  62  93 118 159 207 265 311 367
#     4  10  23  37  63  93 125 160 210 268 314 365
#     4  10  21  39  63  91 125 166 204 255 314 379
#
# _framework density 19.343513999999999
#
# number of rings (size 3 to 8) (size 9 to 14) (size 15 to 20)
#    0.000    1.400    4.000    1.800    2.800    2.800 
#    0.000    2.000    0.000    1.200    0.000    0.000 
#    0.000    0.000    0.000    0.000    0.000    0.000 
#
# Total GULP energy -495665.714364 kJ/mol
# GULP energy per Si atom -12391.642859 kJ/mol
# Density = 1.929949 g / cm^3
# Si number density = 19.343514 Si / 1000 Ang^3
#
#
#
# Elastic Constant Matrix: (Units=GPa)
#
#
# Indices 1 2 3 4 5 6 
#
# 1 53.2532 38.4784 31.5755 0.0000 0.0000 0.0000
# 2 38.4784 140.8132 62.7898 0.0000 0.0000 0.0000
# 3 31.5755 62.7898 164.2228 0.0000 0.0000 0.0000
# 4 0.0000 0.0000 0.0000 41.8375 0.0000 0.0000
# 5 0.0000 0.0000 0.0000 0.0000 12.0183 0.0000
# 6 0.0000 0.0000 0.0000 0.0000 0.0000 21.5099
#
#
#
# Elastic Compliance Matrix: (Units=1/GPa)
#
#
# Indices 1 2 3 4 5 6 
#
# 1 0.024264 -0.005485 -0.002568 0.000000 0.000000 0.000000
# 2 -0.005485 0.009801 -0.002693 0.000000 0.000000 0.000000
# 3 -0.002568 -0.002693 0.007613 0.000000 0.000000 0.000000
# 4 0.000000 0.000000 0.000000 0.023902 0.000000 0.000000
# 5 0.000000 0.000000 0.000000 0.000000 0.083206 0.000000
# 6 0.000000 0.000000 0.000000 0.000000 0.000000 0.046490
#
#
# Mechanical properties :
#
#
# Convention : Reuss Voigt Hill
#
# Bulk Modulus (GPa) = 49.53955 69.33071 59.43513
# Shear Modulus (GPa) = 22.37160 30.10285 26.23722
#
# Velocity S-wave (km/s) = 3.40449 3.94918 3.68691
# Velocity P-wave (km/s) = 6.41249 7.53089 6.99408
#
# Compressibility (1/GPa) = 0.02018589
#
# Stress axis : x y z
#
# Youngs Moduli (GPa) = 41.21269 102.02776 131.36060
#
# Poissons Ratio (x) = 0.55965 0.33734
# Poissons Ratio (y) = 0.22606 0.35373
# Poissons Ratio (z) = 0.10584 0.27474
#
# Static dielectric constant tensor:
#      x y z
#    x 3.445510 0.000000 0.000000 
#    y 0.000000 3.600350 0.000000 
#    z 0.000000 0.000000 4.349510 
# 
# 
# High freq. dielectric constant tensor:
#      x y z
#    x 1.736970 0.000000 0.000000 
#    y 0.000000 1.757200 0.000000 
#    z 0.000000 0.000000 1.768380 
# 
# From -- ./inp_files/59333.got.cif
#   From: 2010.03.12/outbox.cif.g09.slc.cpg/sg66_30_cif.got.tgz:59333.got - 2010.04.10 21:57:39.
