data_PCOD8276641
_publ_section_title
;
Structure prediction by ZEFSAII (Michael W. Deem and Ramdas Pophale) SiO2 
 PCOD8276641
Probable space group: C C C M
;
_chemical_formula_sum "Si O2"
_cell_formula_units_Z 96
_cell_length_a 27.542115
_cell_length_b 7.803906
_cell_length_c 22.413746
_cell_angle_alpha 90.000000
_cell_angle_beta 90.000000
_cell_angle_gamma 90.000000
_cell_volume 4817.522625
_symmetry_space_group_name_H-M "C C C M"
_symmetry_group_IT_number 66
_symmetry_cell_setting 'orthorhombic'
loop_
_space_group_symop_operation_xyz
x,y,z
-x,-y,z
x,-y,1/2-z
-x,y,1/2-z
-x,-y,-z
x,y,-z
-x,y,1/2+z
x,-y,1/2+z
1/2+x,1/2+y,z
1/2-x,1/2-y,z
1/2+x,1/2-y,1/2-z
1/2-x,1/2+y,1/2-z
1/2-x,1/2-y,-z
1/2+x,1/2+y,-z
1/2-x,1/2+y,1/2+z
1/2+x,1/2-y,1/2+z
loop_
_atom_site_type_symbol
_atom_site_label
_atom_site_fract_x
_atom_site_fract_y
_atom_site_fract_z
Si Si1 0.304052 0.298710 0.931778
Si Si2 0.603117 0.194989 0.627757
Si Si3 0.055176 0.298277 0.250000
Si Si4 0.552019 0.500000 0.931349
Si Si5 0.195948 0.798710 0.068222
Si Si6 0.103117 0.694990 0.872242
O O1 0.250000 0.250000 0.912114
O O2 0.339127 0.203588 0.884370
O O3 0.312730 0.500000 0.927003
O O4 0.313631 0.235954 0.000000
O O5 0.586711 0.261446 0.693042
O O6 0.580017 0.324864 0.581169
O O7 0.584837 1.000000 0.617580
O O8 0.050461 0.500000 0.250000
O O9 0.086711 0.238554 0.306958
O O10 0.000000 0.220317 0.250000
O O11 0.500000 0.500000 0.897369
O O12 0.580017 0.324865 0.918830
O O13 0.542175 0.499999 0.000000
O O14 0.250000 0.750000 0.087886
O O15 0.160873 0.703588 0.115630
O O16 0.186369 0.735953 0.000000
#
# Coordination Sequence:
#
# PCOD8276641 Si02
#       6
#    16  16  16  16  16  16
#     4  10  20  36  59  89 123 158 200 249 301 365
#     4  11  22  39  62  87 121 160 203 253 309 356
#     4   9  20  39  62  87 115 157 212 257 296 356
#     4  11  24  39  57  87 123 158 201 251 305 370
#     4  10  20  36  59  89 123 158 200 249 301 365
#     4  11  22  39  62  87 121 160 203 253 309 356
#
# _framework density 19.927254999999999
#
# number of rings (size 3 to 8) (size 9 to 14) (size 15 to 20)
#    0.000    1.667    1.667    3.000    0.000    6.667 
#    0.000    4.167    0.000    0.000    0.000    0.000 
#    0.000    0.000    0.000    0.000    0.000    0.000 
#
# Total GULP energy -594988.871310 kJ/mol
# GULP energy per Si atom -12395.601486 kJ/mol
# Density = 1.988190 g / cm^3
# Si number density = 19.927255 Si / 1000 Ang^3
#
#
#
# Elastic Constant Matrix: (Units=GPa)
#
#
# Indices 1 2 3 4 5 6 
#
# 1 156.1128 26.0860 71.9805 0.0000 0.0000 0.0000
# 2 26.0860 95.7582 24.4632 0.0000 0.0000 0.0000
# 3 71.9805 24.4632 101.1842 0.0000 0.0000 0.0000
# 4 0.0000 0.0000 0.0000 20.4968 0.0000 0.0000
# 5 0.0000 0.0000 0.0000 0.0000 31.3948 0.0000
# 6 0.0000 0.0000 0.0000 0.0000 0.0000 24.6313
#
#
#
# Elastic Compliance Matrix: (Units=1/GPa)
#
#
# Indices 1 2 3 4 5 6 
#
# 1 0.009609 -0.000929 -0.006611 0.000000 0.000000 0.000000
# 2 -0.000929 0.011220 -0.002052 0.000000 0.000000 0.000000
# 3 -0.006611 -0.002052 0.015082 0.000000 0.000000 0.000000
# 4 0.000000 0.000000 0.000000 0.048788 0.000000 0.000000
# 5 0.000000 0.000000 0.000000 0.000000 0.031852 0.000000
# 6 0.000000 0.000000 0.000000 0.000000 0.000000 0.040599
#
#
# Mechanical properties :
#
#
# Convention : Reuss Voigt Hill
#
# Bulk Modulus (GPa) = 59.78150 66.45718 63.11934
# Shear Modulus (GPa) = 27.48603 30.67293 29.07948
#
# Velocity S-wave (km/s) = 3.71795 3.92758 3.82420
# Velocity P-wave (km/s) = 6.96389 7.34780 7.15842
#
# Compressibility (1/GPa) = 0.01672758
#
# Stress axis : x y z
#
# Youngs Moduli (GPa) = 104.06797 89.12502 66.30350
#
# Poissons Ratio (x) = 0.08277 0.43835
# Poissons Ratio (y) = 0.09665 0.13606
# Poissons Ratio (z) = 0.68801 0.18289
#
# Static dielectric constant tensor:
#      x y z
#    x 3.903850 0.000000 0.000000 
#    y 0.000000 3.577220 0.000000 
#    z 0.000000 0.000000 3.598000 
# 
# 
# High freq. dielectric constant tensor:
#      x y z
#    x 1.788460 0.000000 0.000000 
#    y 0.000000 1.781090 0.000000 
#    z 0.000000 0.000000 1.756710 
# 
# From -- ./inp_files/52942.got.cif
#   From: 2010.03.12/outbox.cif.g09.slc.cpg/sg66_27_cif.got.tgz:52942.got - 2010.04.10 21:57:39.
