data_PCOD8276109
_publ_section_title
;
Structure prediction by ZEFSAII (Michael W. Deem and Ramdas Pophale) SiO2 
 PCOD8276109
Probable space group: C C C M
;
_chemical_formula_sum "Si O2"
_cell_formula_units_Z 96
_cell_length_a 13.173015
_cell_length_b 24.827872
_cell_length_c 15.469510
_cell_angle_alpha 90.000000
_cell_angle_beta 90.000000
_cell_angle_gamma 90.000000
_cell_volume 5059.425923
_symmetry_space_group_name_H-M "C C C M"
_symmetry_group_IT_number 66
_symmetry_cell_setting 'orthorhombic'
loop_
_space_group_symop_operation_xyz
x,y,z
-x,-y,z
x,-y,1/2-z
-x,y,1/2-z
-x,-y,-z
x,y,-z
-x,y,1/2+z
x,-y,1/2+z
1/2+x,1/2+y,z
1/2-x,1/2-y,z
1/2+x,1/2-y,1/2-z
1/2-x,1/2+y,1/2-z
1/2-x,1/2-y,-z
1/2+x,1/2+y,-z
1/2-x,1/2+y,1/2+z
1/2+x,1/2-y,1/2+z
loop_
_atom_site_type_symbol
_atom_site_label
_atom_site_fract_x
_atom_site_fract_y
_atom_site_fract_z
Si Si1 0.088813 0.140893 0.321401
Si Si2 0.495871 0.264944 0.901541
Si Si3 0.718826 0.306719 0.597297
Si Si4 0.000000 0.680833 0.750000
Si Si5 0.751275 0.000000 0.250000
Si Si6 0.299459 0.118018 0.231700
Si Si7 0.101913 0.968476 0.902904
O O1 0.089629 0.198815 0.369271
O O2 0.202239 0.135575 0.286358
O O3 0.073372 0.093808 0.390545
O O4 0.000000 0.137545 0.250000
O O5 0.403007 0.307969 0.896740
O O6 0.479870 0.215312 0.836581
O O7 0.510802 0.243664 0.000000
O O8 0.759985 0.306107 0.500000
O O9 0.750000 0.250000 0.642616
O O10 0.773847 0.358641 0.637171
O O11 0.097731 0.643821 0.768817
O O12 0.684415 0.946697 0.231177
O O13 0.817213 0.990191 0.335025
O O14 0.143743 0.977531 0.000000
O O15 0.000000 0.000000 0.885701
#
# Coordination Sequence:
#
# PCOD8276109 Si02
#       7
#    16  16  16   8   8  16  16
#     4  11  20  36  57  87 124 158 184 232 293 365
#     4  11  22  36  59  93 124 152 191 240 301 372
#     4  10  19  34  60  92 120 147 194 250 302 358
#     4  12  24  41  60  84 115 158 206 250 302 342
#     4  10  23  41  56  82 114 156 209 253 290 342
#     4  11  23  39  61  83 117 162 200 251 298 346
#     4  10  20  34  56  86 120 154 189 233 292 359
#
# _framework density 18.974485000000001
#
# number of rings (size 3 to 8) (size 9 to 14) (size 15 to 20)
#    0.000    1.333    4.167    2.750    0.000    1.000 
#    0.000    5.000    0.000    0.000    0.000    7.000 
#    0.000    0.000    0.000    0.000    0.000    0.000 
#
# Total GULP energy -594932.413205 kJ/mol
# GULP energy per Si atom -12394.425275 kJ/mol
# Density = 1.893130 g / cm^3
# Si number density = 18.974485 Si / 1000 Ang^3
#
#
#
# Elastic Constant Matrix: (Units=GPa)
#
#
# Indices 1 2 3 4 5 6 
#
# 1 89.4110 44.1593 29.0122 0.0000 0.0000 0.0000
# 2 44.1593 130.6970 45.4849 0.0000 0.0000 0.0000
# 3 29.0122 45.4849 89.5509 0.0000 0.0000 0.0000
# 4 0.0000 0.0000 0.0000 79.3761 0.0000 0.0000
# 5 0.0000 0.0000 0.0000 0.0000 14.4685 0.0000
# 6 0.0000 0.0000 0.0000 0.0000 0.0000 30.2185
#
#
#
# Elastic Compliance Matrix: (Units=1/GPa)
#
#
# Indices 1 2 3 4 5 6 
#
# 1 0.013896 -0.003800 -0.002572 0.000000 0.000000 0.000000
# 2 -0.003800 0.010333 -0.004017 0.000000 0.000000 0.000000
# 3 -0.002572 -0.004017 0.014041 0.000000 0.000000 0.000000
# 4 0.000000 0.000000 0.000000 0.012598 0.000000 0.000000
# 5 0.000000 0.000000 0.000000 0.000000 0.069116 0.000000
# 6 0.000000 0.000000 0.000000 0.000000 0.000000 0.033092
#
#
# Mechanical properties :
#
#
# Convention : Reuss Voigt Hill
#
# Bulk Modulus (GPa) = 57.17163 60.77464 58.97314
# Shear Modulus (GPa) = 27.82659 37.54611 32.68635
#
# Velocity S-wave (km/s) = 3.83368 4.45316 4.15498
# Velocity P-wave (km/s) = 7.05637 7.65115 7.35977
#
# Compressibility (1/GPa) = 0.01749119
#
# Stress axis : x y z
#
# Youngs Moduli (GPa) = 71.96553 96.77411 71.22225
#
# Poissons Ratio (x) = 0.36774 0.18316
# Poissons Ratio (y) = 0.27347 0.28613
# Poissons Ratio (z) = 0.18508 0.38878
#
# Static dielectric constant tensor:
#      x y z
#    x 3.281090 0.000000 0.000000 
#    y 0.000000 3.666870 0.000000 
#    z 0.000000 0.000000 3.532910 
# 
# 
# High freq. dielectric constant tensor:
#      x y z
#    x 1.716600 0.000000 0.000000 
#    y 0.000000 1.740110 0.000000 
#    z 0.000000 0.000000 1.738280 
# 
# From -- ./inp_files/26929.got.cif
#   From: 2010.03.12/outbox.cif.g09.slc.cpg/sg66_14_cif.got.tgz:26929.got - 2010.04.10 21:57:39.
