data_PCOD8276341
_publ_section_title
;
Structure prediction by ZEFSAII (Michael W. Deem and Ramdas Pophale) SiO2 
 PCOD8276341
Probable space group: C C C M
;
_chemical_formula_sum "Si O2"
_cell_formula_units_Z 64
_cell_length_a 14.554171
_cell_length_b 27.605660
_cell_length_c 8.566345
_cell_angle_alpha 90.000000
_cell_angle_beta 90.000000
_cell_angle_gamma 90.000000
_cell_volume 3441.764646
_symmetry_space_group_name_H-M "C C C M"
_symmetry_group_IT_number 66
_symmetry_cell_setting 'orthorhombic'
loop_
_space_group_symop_operation_xyz
x,y,z
-x,-y,z
x,-y,1/2-z
-x,y,1/2-z
-x,-y,-z
x,y,-z
-x,y,1/2+z
x,-y,1/2+z
1/2+x,1/2+y,z
1/2-x,1/2-y,z
1/2+x,1/2-y,1/2-z
1/2-x,1/2+y,1/2-z
1/2-x,1/2-y,-z
1/2+x,1/2+y,-z
1/2-x,1/2+y,1/2+z
1/2+x,1/2-y,1/2+z
loop_
_atom_site_type_symbol
_atom_site_label
_atom_site_fract_x
_atom_site_fract_y
_atom_site_fract_z
Si Si1 0.403024 0.447762 0.683084
Si Si2 0.096232 0.222097 0.817120
Si Si3 0.275926 0.632414 0.681870
Si Si4 0.099328 0.325943 0.315437
O O1 0.376822 0.500000 0.750000
O O2 0.500000 0.428780 0.750000
O O3 0.413507 0.452123 0.500000
O O4 0.322741 0.410915 0.725199
O O5 0.172827 0.182528 0.781003
O O6 0.125670 0.271359 0.732353
O O7 0.000000 0.202525 0.750000
O O8 0.085928 0.233033 0.000000
O O9 0.278515 0.619992 0.500000
O O10 0.171896 0.636977 0.740887
O O11 0.100303 0.331037 0.500000
O O12 0.000000 0.340378 0.250000
#
# Coordination Sequence:
#
# PCOD8276341 Si02
#       4
#    16  16  16  16
#     4  11  22  38  59  84 113 144 177 217 268 321
#     4  10  20  33  51  76 109 145 180 221 267 317
#     4  11  22  36  55  80 109 142 182 225 269 320
#     4  11  22  36  54  76 106 144 184 226 270 317
#
# _framework density 18.595113000000001
#
# number of rings (size 3 to 8) (size 9 to 14) (size 15 to 20)
#    0.000    1.250    0.000    9.750    0.000    9.000 
#    0.000    0.000    0.000    0.750    0.000    5.250 
#    0.000    0.000    0.000    0.000    0.000    0.000 
#
# Total GULP energy -396989.297576 kJ/mol
# GULP energy per Si atom -12405.915549 kJ/mol
# Density = 1.855279 g / cm^3
# Si number density = 18.595113 Si / 1000 Ang^3
#
#
#
# Elastic Constant Matrix: (Units=GPa)
#
#
# Indices 1 2 3 4 5 6 
#
# 1 120.1831 59.7210 42.7615 0.0000 0.0000 0.0000
# 2 59.7210 68.7069 35.9671 0.0000 0.0000 0.0000
# 3 42.7615 35.9671 127.8193 0.0000 0.0000 0.0000
# 4 0.0000 0.0000 0.0000 25.2960 0.0000 0.0000
# 5 0.0000 0.0000 0.0000 0.0000 27.2175 0.0000
# 6 0.0000 0.0000 0.0000 0.0000 0.0000 29.6518
#
#
#
# Elastic Compliance Matrix: (Units=1/GPa)
#
#
# Indices 1 2 3 4 5 6 
#
# 1 0.014912 -0.012138 -0.001573 0.000000 0.000000 0.000000
# 2 -0.012138 0.026949 -0.003522 0.000000 0.000000 0.000000
# 3 -0.001573 -0.003522 0.009341 0.000000 0.000000 0.000000
# 4 0.000000 0.000000 0.000000 0.039532 0.000000 0.000000
# 5 0.000000 0.000000 0.000000 0.000000 0.036741 0.000000
# 6 0.000000 0.000000 0.000000 0.000000 0.000000 0.033725
#
#
# Mechanical properties :
#
#
# Convention : Reuss Voigt Hill
#
# Bulk Modulus (GPa) = 59.75645 65.95649 62.85647
# Shear Modulus (GPa) = 24.84518 28.31703 26.58110
#
# Velocity S-wave (km/s) = 3.65925 3.90657 3.78493
# Velocity P-wave (km/s) = 7.07523 7.47631 7.27853
#
# Compressibility (1/GPa) = 0.01673459
#
# Stress axis : x y z
#
# Youngs Moduli (GPa) = 67.05968 37.10672 107.05454
#
# Poissons Ratio (x) = 0.45041 0.16842
# Poissons Ratio (y) = 0.81399 0.37709
# Poissons Ratio (z) = 0.10550 0.13071
#
# Static dielectric constant tensor:
#      x y z
#    x 3.591680 0.000000 0.000000 
#    y 0.000000 3.240090 0.000000 
#    z 0.000000 0.000000 3.577290 
# 
# 
# High freq. dielectric constant tensor:
#      x y z
#    x 1.725620 0.000000 0.000000 
#    y 0.000000 1.699760 0.000000 
#    z 0.000000 0.000000 1.744540 
# 
# From -- ./inp_files/5049.got.cif
#   From: 2010.03.12/outbox.cif.g09.slc.cpg/sg66_3_cif.got.tgz:5049.got - 2010.04.10 21:57:39.
