data_PCOD8276566
_publ_section_title
;
Structure prediction by ZEFSAII (Michael W. Deem and Ramdas Pophale) SiO2 
 PCOD8276566
Probable space group: C C C M
;
_chemical_formula_sum "Si O2"
_cell_formula_units_Z 80
_cell_length_a 9.882306
_cell_length_b 20.985691
_cell_length_c 17.916906
_cell_angle_alpha 90.000000
_cell_angle_beta 90.000000
_cell_angle_gamma 90.000000
_cell_volume 3715.733744
_symmetry_space_group_name_H-M "C C C M"
_symmetry_group_IT_number 66
_symmetry_cell_setting 'orthorhombic'
loop_
_space_group_symop_operation_xyz
x,y,z
-x,-y,z
x,-y,1/2-z
-x,y,1/2-z
-x,-y,-z
x,y,-z
-x,y,1/2+z
x,-y,1/2+z
1/2+x,1/2+y,z
1/2-x,1/2-y,z
1/2+x,1/2-y,1/2-z
1/2-x,1/2+y,1/2-z
1/2-x,1/2-y,-z
1/2+x,1/2+y,-z
1/2-x,1/2+y,1/2+z
1/2+x,1/2-y,1/2+z
loop_
_atom_site_type_symbol
_atom_site_label
_atom_site_fract_x
_atom_site_fract_y
_atom_site_fract_z
Si Si1 0.263914 0.821132 0.152198
Si Si2 0.913771 0.943092 0.176328
Si Si3 0.042594 0.682499 0.585354
Si Si4 0.859718 0.407583 0.284851
Si Si5 0.477873 0.673467 0.413311
O O1 0.250000 0.750000 0.183476
O O2 0.381487 0.826361 0.090591
O O3 0.290092 0.863434 0.223843
O O4 0.130583 0.842137 0.109302
O O5 0.755339 0.961309 0.195475
O O6 0.890282 0.880149 0.127515
O O7 0.000000 0.926973 0.250000
O O8 0.000000 0.000000 0.135729
O O9 0.088824 0.668974 0.500000
O O10 0.112999 0.633781 0.641193
O O11 0.425199 0.744053 0.608670
O O12 0.000000 0.436447 0.250000
O O13 0.459523 0.663333 0.500000
#
# Coordination Sequence:
#
# PCOD8276566 Si02
#       5
#    16  16  16  16  16
#     4   9  17  31  56  87 120 158 201 241 301 372
#     4  11  24  41  60  83 118 157 210 263 296 350
#     4   9  19  33  55  91 129 159 193 245 308 376
#     4  10  21  37  62  90 120 159 200 249 312 370
#     4  10  20  35  59  88 124 166 202 247 307 366
#
# _framework density 21.530066999999999
#
# number of rings (size 3 to 8) (size 9 to 14) (size 15 to 20)
#    0.000    2.200    2.000    0.600    2.800    4.400 
#    0.000    4.000    0.000    0.000    0.000    4.200 
#    0.000    0.000    0.000    0.000    0.000    0.000 
#
# Total GULP energy -495528.339204 kJ/mol
# GULP energy per Si atom -12388.208480 kJ/mol
# Density = 2.148106 g / cm^3
# Si number density = 21.530067 Si / 1000 Ang^3
#
#
#
# Elastic Constant Matrix: (Units=GPa)
#
#
# Indices 1 2 3 4 5 6 
#
# 1 151.1730 33.7276 16.0869 0.0000 0.0000 0.0000
# 2 33.7276 62.6618 25.0537 0.0000 0.0000 0.0000
# 3 16.0869 25.0537 79.0001 0.0000 0.0000 0.0000
# 4 0.0000 0.0000 0.0000 17.4972 0.0000 0.0000
# 5 0.0000 0.0000 0.0000 0.0000 15.1455 0.0000
# 6 0.0000 0.0000 0.0000 0.0000 0.0000 15.8232
#
#
#
# Elastic Compliance Matrix: (Units=1/GPa)
#
#
# Indices 1 2 3 4 5 6 
#
# 1 0.007523 -0.003936 -0.000284 0.000000 0.000000 0.000000
# 2 -0.003936 0.020335 -0.005648 0.000000 0.000000 0.000000
# 3 -0.000284 -0.005648 0.014507 0.000000 0.000000 0.000000
# 4 0.000000 0.000000 0.000000 0.057152 0.000000 0.000000
# 5 0.000000 0.000000 0.000000 0.000000 0.066026 0.000000
# 6 0.000000 0.000000 0.000000 0.000000 0.000000 0.063198
#
#
# Mechanical properties :
#
#
# Convention : Reuss Voigt Hill
#
# Bulk Modulus (GPa) = 44.18702 49.17458 46.68080
# Shear Modulus (GPa) = 19.52972 24.22430 21.87701
#
# Velocity S-wave (km/s) = 3.01506 3.35795 3.19111
# Velocity P-wave (km/s) = 5.71741 6.15824 5.94191
#
# Compressibility (1/GPa) = 0.02263108
#
# Stress axis : x y z
#
# Youngs Moduli (GPa) = 132.92099 49.17580 68.93219
#
# Poissons Ratio (x) = 0.19355 0.01956
# Poissons Ratio (y) = 0.52317 0.38930
# Poissons Ratio (z) = 0.03772 0.27772
#
# Static dielectric constant tensor:
#      x y z
#    x 4.409350 0.000000 0.000000 
#    y 0.000000 3.905090 0.000000 
#    z 0.000000 0.000000 3.785280 
# 
# 
# High freq. dielectric constant tensor:
#      x y z
#    x 1.866420 0.000000 0.000000 
#    y 0.000000 1.823030 0.000000 
#    z 0.000000 0.000000 1.833530 
# 
# From -- ./inp_files/36964.got.cif
#   From: 2010.03.12/outbox.cif.g09.slc.cpg/sg66_19_cif.got.tgz:36964.got - 2010.04.10 21:57:39.
