data_PCOD8276955
_publ_section_title
;
Structure prediction by ZEFSAII (Michael W. Deem and Ramdas Pophale) SiO2 
 PCOD8276955
Probable space group: C C C M
;
_chemical_formula_sum "Si O2"
_cell_formula_units_Z 112
_cell_length_a 23.927726
_cell_length_b 17.244990
_cell_length_c 14.062018
_cell_angle_alpha 90.000000
_cell_angle_beta 90.000000
_cell_angle_gamma 90.000000
_cell_volume 5802.458236
_symmetry_space_group_name_H-M "C C C M"
_symmetry_group_IT_number 66
_symmetry_cell_setting 'orthorhombic'
loop_
_space_group_symop_operation_xyz
x,y,z
-x,-y,z
x,-y,1/2-z
-x,y,1/2-z
-x,-y,-z
x,y,-z
-x,y,1/2+z
x,-y,1/2+z
1/2+x,1/2+y,z
1/2-x,1/2-y,z
1/2+x,1/2-y,1/2-z
1/2-x,1/2+y,1/2-z
1/2-x,1/2-y,-z
1/2+x,1/2+y,-z
1/2-x,1/2+y,1/2+z
1/2+x,1/2-y,1/2+z
loop_
_atom_site_type_symbol
_atom_site_label
_atom_site_fract_x
_atom_site_fract_y
_atom_site_fract_z
Si Si1 0.301822 0.193496 0.105136
Si Si2 0.636177 0.204784 0.890029
Si Si3 0.472407 0.706227 0.108263
Si Si4 0.187098 0.869177 0.111704
Si Si5 0.796631 0.412181 0.224733
Si Si6 0.402670 0.701416 0.609164
Si Si7 0.415924 0.585739 0.227996
O O1 0.250000 0.250000 0.101591
O O2 0.284952 0.124016 0.172814
O O3 0.357384 0.236250 0.144567
O O4 0.314122 0.160099 0.000000
O O5 0.572930 0.229116 0.861382
O O6 0.678090 0.277024 0.869198
O O7 0.651733 0.130301 0.827205
O O8 0.639797 0.180640 0.000000
O O9 0.535208 0.738647 0.119527
O O10 0.466299 0.631304 0.175841
O O11 0.459829 0.680391 0.000000
O O12 0.243382 0.900998 0.157821
O O13 0.136551 0.917584 0.156710
O O14 0.189444 0.886008 0.000000
O O15 0.811807 0.500000 0.250000
O O16 0.390505 0.677245 0.500000
O O17 0.397117 0.625470 0.673512
O O18 0.437414 0.500000 0.250000
#
# Coordination Sequence:
#
# PCOD8276955 Si02
#       7
#    16  16  16  16  16  16  16
#     4  10  21  38  58  78 106 146 185 219 261 321
#     4   9  18  35  59  80 102 137 182 230 272 315
#     4   9  19  36  57  80 104 139 190 237 272 312
#     4  10  21  38  59  80 105 143 190 230 265 315
#     4  12  23  34  53  83 113 140 171 221 283 337
#     4  10  21  36  56  80 106 144 191 229 265 319
#     4  11  21  33  51  79 115 151 180 221 275 322
#
# _framework density 19.302164000000001
#
# number of rings (size 3 to 8) (size 9 to 14) (size 15 to 20)
#    0.000    1.857    0.000    6.429    0.000    4.571 
#    0.000    2.857    0.000    1.714    0.000    4.000 
#    0.000    0.000    0.000    0.000    0.000    0.000 
#
# Total GULP energy -694425.035982 kJ/mol
# GULP energy per Si atom -12400.447071 kJ/mol
# Density = 1.925823 g / cm^3
# Si number density = 19.302164 Si / 1000 Ang^3
#
#
#
# Elastic Constant Matrix: (Units=GPa)
#
#
# Indices 1 2 3 4 5 6 
#
# 1 109.9925 33.2656 33.8056 0.0000 0.0000 0.0000
# 2 33.2656 92.2322 48.1838 0.0000 0.0000 0.0000
# 3 33.8056 48.1838 95.2469 0.0000 0.0000 0.0000
# 4 0.0000 0.0000 0.0000 15.1394 0.0000 0.0000
# 5 0.0000 0.0000 0.0000 0.0000 32.3178 0.0000
# 6 0.0000 0.0000 0.0000 0.0000 0.0000 6.2822
#
#
#
# Elastic Compliance Matrix: (Units=1/GPa)
#
#
# Indices 1 2 3 4 5 6 
#
# 1 0.010622 -0.002530 -0.002490 0.000000 0.000000 0.000000
# 2 -0.002530 0.015340 -0.006862 0.000000 0.000000 0.000000
# 3 -0.002490 -0.006862 0.014854 0.000000 0.000000 0.000000
# 4 0.000000 0.000000 0.000000 0.066053 0.000000 0.000000
# 5 0.000000 0.000000 0.000000 0.000000 0.030943 0.000000
# 6 0.000000 0.000000 0.000000 0.000000 0.000000 0.159180
#
#
# Mechanical properties :
#
#
# Convention : Reuss Voigt Hill
#
# Bulk Modulus (GPa) = 58.64658 58.66462 58.65560
# Shear Modulus (GPa) = 15.31677 22.89566 19.10621
#
# Velocity S-wave (km/s) = 2.82002 3.44782 3.14960
# Velocity P-wave (km/s) = 6.40724 6.80505 6.60914
#
# Compressibility (1/GPa) = 0.01705129
#
# Stress axis : x y z
#
# Youngs Moduli (GPa) = 94.14365 65.19064 67.32106
#
# Poissons Ratio (x) = 0.16495 0.16763
# Poissons Ratio (y) = 0.23821 0.46196
# Poissons Ratio (z) = 0.23442 0.44734
#
# Static dielectric constant tensor:
#      x y z
#    x 3.656020 0.000000 0.000000 
#    y 0.000000 3.095040 0.000000 
#    z 0.000000 0.000000 3.934600 
# 
# 
# High freq. dielectric constant tensor:
#      x y z
#    x 1.758170 0.000000 0.000000 
#    y 0.000000 1.702000 0.000000 
#    z 0.000000 0.000000 1.780810 
# 
# From -- ./inp_files/33332.got.cif
#   From: 2010.03.12/outbox.cif.g09.slc.cpg/sg66_17_cif.got.tgz:33332.got - 2010.04.10 21:57:39.
