data_PCOD8276711
_publ_section_title
;
Structure prediction by ZEFSAII (Michael W. Deem and Ramdas Pophale) SiO2 
 PCOD8276711
Probable space group: C C C M
;
_chemical_formula_sum "Si O2"
_cell_formula_units_Z 80
_cell_length_a 8.939135
_cell_length_b 18.643940
_cell_length_c 25.522124
_cell_angle_alpha 90.000000
_cell_angle_beta 90.000000
_cell_angle_gamma 90.000000
_cell_volume 4253.534964
_symmetry_space_group_name_H-M "C C C M"
_symmetry_group_IT_number 66
_symmetry_cell_setting 'orthorhombic'
loop_
_space_group_symop_operation_xyz
x,y,z
-x,-y,z
x,-y,1/2-z
-x,y,1/2-z
-x,-y,-z
x,y,-z
-x,y,1/2+z
x,-y,1/2+z
1/2+x,1/2+y,z
1/2-x,1/2-y,z
1/2+x,1/2-y,1/2-z
1/2-x,1/2+y,1/2-z
1/2-x,1/2-y,-z
1/2+x,1/2+y,-z
1/2-x,1/2+y,1/2+z
1/2+x,1/2-y,1/2+z
loop_
_atom_site_type_symbol
_atom_site_label
_atom_site_fract_x
_atom_site_fract_y
_atom_site_fract_z
Si Si1 0.693574 0.576300 0.404676
Si Si2 0.830275 0.177967 0.693482
Si Si3 0.145845 0.909742 0.404054
Si Si4 0.295868 0.833482 0.500000
Si Si5 0.681774 0.675326 0.310269
Si Si6 0.582619 0.920893 0.500000
O O1 0.684616 0.492055 0.399773
O O2 0.527817 0.605816 0.417603
O O3 0.739150 0.613025 0.349414
O O4 0.813832 0.592130 0.449420
O O5 0.750000 0.250000 0.674780
O O6 0.793101 0.117211 0.651605
O O7 0.768633 0.154958 0.750905
O O8 0.006482 0.188806 0.691600
O O9 0.234990 0.870975 0.448866
O O10 0.250000 0.750000 0.500000
O O11 0.471690 0.852600 0.500000
O O12 0.750000 0.750000 0.329585
O O13 0.500000 0.000000 0.500000
#
# Coordination Sequence:
#
# PCOD8276711 Si02
#       6
#    16  16  16   8  16   8
#     4  10  21  37  60  82 113 153 189 237 290 348
#     4   9  18  34  56  82 115 150 187 236 287 337
#     4  10  20  37  58  85 115 151 193 234 289 346
#     4  12  25  39  59  87 115 150 193 240 285 351
#     4   9  19  35  55  83 114 150 190 233 286 344
#     4  12  23  41  59  83 114 152 188 243 300 347
#
# _framework density 18.807887000000001
#
# number of rings (size 3 to 8) (size 9 to 14) (size 15 to 20)
#    0.000    2.000    2.000    1.200    0.000    7.200 
#    0.000    5.500    0.000    0.000    0.000    0.000 
#    0.000    0.000    0.000    0.000    0.000    0.000 
#
# Total GULP energy -495691.812003 kJ/mol
# GULP energy per Si atom -12392.295300 kJ/mol
# Density = 1.876508 g / cm^3
# Si number density = 18.807887 Si / 1000 Ang^3
#
#
#
# Elastic Constant Matrix: (Units=GPa)
#
#
# Indices 1 2 3 4 5 6 
#
# 1 69.5986 44.5571 66.1037 0.0000 0.0000 0.0000
# 2 44.5571 86.2745 68.3960 0.0000 0.0000 0.0000
# 3 66.1037 68.3960 142.5334 0.0000 0.0000 0.0000
# 4 0.0000 0.0000 0.0000 25.5821 0.0000 0.0000
# 5 0.0000 0.0000 0.0000 0.0000 33.2573 0.0000
# 6 0.0000 0.0000 0.0000 0.0000 0.0000 30.2396
#
#
#
# Elastic Compliance Matrix: (Units=1/GPa)
#
#
# Indices 1 2 3 4 5 6 
#
# 1 0.027887 -0.006697 -0.009720 0.000000 0.000000 0.000000
# 2 -0.006697 0.020316 -0.006643 0.000000 0.000000 0.000000
# 3 -0.009720 -0.006643 0.014711 0.000000 0.000000 0.000000
# 4 0.000000 0.000000 0.000000 0.039090 0.000000 0.000000
# 5 0.000000 0.000000 0.000000 0.000000 0.030069 0.000000
# 6 0.000000 0.000000 0.000000 0.000000 0.000000 0.033069
#
#
# Mechanical properties :
#
#
# Convention : Reuss Voigt Hill
#
# Bulk Modulus (GPa) = 59.54100 72.94667 66.24383
# Shear Modulus (GPa) = 23.05637 25.77247 24.41442
#
# Velocity S-wave (km/s) = 3.50507 3.70577 3.60682
# Velocity P-wave (km/s) = 6.93591 7.56173 7.25557
#
# Compressibility (1/GPa) = 0.01679515
#
# Stress axis : x y z
#
# Youngs Moduli (GPa) = 35.85868 49.22261 67.97457
#
# Poissons Ratio (x) = 0.32964 0.66070
# Poissons Ratio (y) = 0.24014 0.45155
# Poissons Ratio (z) = 0.34854 0.32698
#
# Static dielectric constant tensor:
#      x y z
#    x 3.581760 0.000000 0.000000 
#    y 0.000000 3.710250 0.000000 
#    z 0.000000 0.000000 3.963310 
# 
# 
# High freq. dielectric constant tensor:
#      x y z
#    x 1.729090 0.000000 0.000000 
#    y 0.000000 1.724680 0.000000 
#    z 0.000000 0.000000 1.746350 
# 
# From -- ./inp_files/62452.got.cif
#   From: 2010.03.12/outbox.cif.g09.slc.cpg/sg66_32_cif.got.tgz:62452.got - 2010.04.10 21:57:39.
