data_PCOD8276473
_publ_section_title
;
Structure prediction by ZEFSAII (Michael W. Deem and Ramdas Pophale) SiO2 
 PCOD8276473
Probable space group: C C C M
;
_chemical_formula_sum "Si O2"
_cell_formula_units_Z 100
_cell_length_a 20.856325
_cell_length_b 30.745994
_cell_length_c 8.995258
_cell_angle_alpha 90.000000
_cell_angle_beta 90.000000
_cell_angle_gamma 90.000000
_cell_volume 5768.195190
_symmetry_space_group_name_H-M "C C C M"
_symmetry_group_IT_number 66
_symmetry_cell_setting 'orthorhombic'
loop_
_space_group_symop_operation_xyz
x,y,z
-x,-y,z
x,-y,1/2-z
-x,y,1/2-z
-x,-y,-z
x,y,-z
-x,y,1/2+z
x,-y,1/2+z
1/2+x,1/2+y,z
1/2-x,1/2-y,z
1/2+x,1/2-y,1/2-z
1/2-x,1/2+y,1/2-z
1/2-x,1/2-y,-z
1/2+x,1/2+y,-z
1/2-x,1/2+y,1/2+z
1/2+x,1/2-y,1/2+z
loop_
_atom_site_type_symbol
_atom_site_label
_atom_site_fract_x
_atom_site_fract_y
_atom_site_fract_z
Si Si1 0.252913 0.637980 0.330073
Si Si2 0.194697 0.218102 0.675285
Si Si3 0.899146 0.435171 0.834587
Si Si4 0.500000 0.000000 0.250000
Si Si5 0.103385 0.349995 0.173550
Si Si6 0.729291 0.957981 0.824429
Si Si7 0.063823 0.737491 0.176580
O O1 0.270930 0.646508 0.500000
O O2 0.297408 0.668928 0.231839
O O3 0.179424 0.649997 0.299340
O O4 0.266155 0.587285 0.288520
O O5 0.200427 0.217630 0.500000
O O6 0.250000 0.250000 0.741484
O O7 0.125033 0.234314 0.727141
O O8 0.955855 0.469840 0.853252
O O9 0.925610 0.393569 0.744650
O O10 0.841452 0.456277 0.742821
O O11 0.875923 0.421660 0.000000
O O12 0.071325 0.310680 0.260307
O O13 0.085867 0.347546 0.000000
O O14 0.764733 0.000000 0.750000
O O15 0.723373 0.964838 0.000000
O O16 0.000000 0.758415 0.250000
O O17 0.056752 0.735980 0.000000
#
# Coordination Sequence:
#
# PCOD8276473 Si02
#       7
#    16  16  16   4  16  16  16
#     4   9  19  33  53  79 104 133 171 217 264 315
#     4  10  20  35  55  80 106 136 178 224 263 315
#     4  11  23  36  50  65  89 125 168 218 267 313
#     4  12  26  36  48  66  90 124 178 220 272 312
#     4  10  21  37  54  74 100 130 172 220 267 318
#     4  10  20  35  52  74 100 128 165 209 262 314
#     4  11  23  38  55  77 107 140 176 217 266 316
#
# _framework density 17.336445000000001
#
# number of rings (size 3 to 8) (size 9 to 14) (size 15 to 20)
#    0.000    1.760    2.400    3.120    1.120    6.720 
#    0.000    0.000    0.000    0.000    0.000    0.000 
#    0.000    0.640    0.000    7.040    0.000    5.120 
#
# Total GULP energy -619946.199303 kJ/mol
# GULP energy per Si atom -12398.923986 kJ/mol
# Density = 1.729699 g / cm^3
# Si number density = 17.336445 Si / 1000 Ang^3
#
#
#
# Elastic Constant Matrix: (Units=GPa)
#
#
# Indices 1 2 3 4 5 6 
#
# 1 81.3167 54.3503 36.7941 0.0000 0.0000 0.0000
# 2 54.3503 117.8877 38.2361 0.0000 0.0000 0.0000
# 3 36.7941 38.2361 74.6332 0.0000 0.0000 0.0000
# 4 0.0000 0.0000 0.0000 28.5731 0.0000 0.0000
# 5 0.0000 0.0000 0.0000 0.0000 20.6172 0.0000
# 6 0.0000 0.0000 0.0000 0.0000 0.0000 23.7990
#
#
#
# Elastic Compliance Matrix: (Units=1/GPa)
#
#
# Indices 1 2 3 4 5 6 
#
# 1 0.019858 -0.007172 -0.006116 0.000000 0.000000 0.000000
# 2 -0.007172 0.012763 -0.003003 0.000000 0.000000 0.000000
# 3 -0.006116 -0.003003 0.017953 0.000000 0.000000 0.000000
# 4 0.000000 0.000000 0.000000 0.034998 0.000000 0.000000
# 5 0.000000 0.000000 0.000000 0.000000 0.048503 0.000000
# 6 0.000000 0.000000 0.000000 0.000000 0.000000 0.042018
#
#
# Mechanical properties :
#
#
# Convention : Reuss Voigt Hill
#
# Bulk Modulus (GPa) = 55.57887 59.17761 57.37824
# Shear Modulus (GPa) = 23.29127 24.22835 23.75981
#
# Velocity S-wave (km/s) = 3.66934 3.74242 3.70606
# Velocity P-wave (km/s) = 7.07677 7.27208 7.17509
#
# Compressibility (1/GPa) = 0.01799245
#
# Stress axis : x y z
#
# Youngs Moduli (GPa) = 50.35671 78.35087 55.70231
#
# Poissons Ratio (x) = 0.56191 0.34067
# Poissons Ratio (y) = 0.36114 0.16728
# Poissons Ratio (z) = 0.30798 0.23530
#
# Static dielectric constant tensor:
#      x y z
#    x 3.001650 0.000000 0.000000 
#    y 0.000000 3.453980 0.000000 
#    z 0.000000 0.000000 3.237240 
# 
# 
# High freq. dielectric constant tensor:
#      x y z
#    x 1.621300 0.000000 0.000000 
#    y 0.000000 1.673280 0.000000 
#    z 0.000000 0.000000 1.680090 
# 
# From -- ./inp_files/8375.got.cif
#   From: 2010.03.12/outbox.cif.g09.slc.cpg/sg66_5_cif.got.tgz:8375.got - 2010.04.10 21:57:39.
