data_PCOD8276253
_publ_section_title
;
Structure prediction by ZEFSAII (Michael W. Deem and Ramdas Pophale) SiO2 
 PCOD8276253
Probable space group: C C C M
;
_chemical_formula_sum "Si O2"
_cell_formula_units_Z 48
_cell_length_a 8.538474
_cell_length_b 27.452607
_cell_length_c 10.163397
_cell_angle_alpha 90.000000
_cell_angle_beta 90.000000
_cell_angle_gamma 90.000000
_cell_volume 2382.334519
_symmetry_space_group_name_H-M "C C C M"
_symmetry_group_IT_number 66
_symmetry_cell_setting 'orthorhombic'
loop_
_space_group_symop_operation_xyz
x,y,z
-x,-y,z
x,-y,1/2-z
-x,y,1/2-z
-x,-y,-z
x,y,-z
-x,y,1/2+z
x,-y,1/2+z
1/2+x,1/2+y,z
1/2-x,1/2-y,z
1/2+x,1/2-y,1/2-z
1/2-x,1/2+y,1/2-z
1/2-x,1/2-y,-z
1/2+x,1/2+y,-z
1/2-x,1/2+y,1/2+z
1/2+x,1/2-y,1/2+z
loop_
_atom_site_type_symbol
_atom_site_label
_atom_site_fract_x
_atom_site_fract_y
_atom_site_fract_z
Si Si1 0.173894 0.598484 0.500000
Si Si2 0.840841 0.799926 0.000000
Si Si3 0.000000 0.165127 0.250000
Si Si4 0.120180 0.455225 0.500000
Si Si5 0.170916 0.072277 0.737171
O O1 0.220904 0.654936 0.500000
O O2 0.240082 0.569260 0.624723
O O3 0.985184 0.594078 0.500000
O O4 0.750000 0.750000 0.000000
O O5 0.949040 0.800953 0.129336
O O6 0.858121 0.129603 0.200515
O O7 0.228996 0.455974 0.628536
O O8 0.000000 0.500000 0.500000
O O9 0.000000 0.046648 0.750000
#
# Coordination Sequence:
#
# PCOD8276253 Si02
#       5
#     8   8   8   8  16
#     4  10  21  38  60  89 123 163 198 266 317 354
#     4  10  19  39  59  91 125 158 214 260 309 379
#     4   8  18  38  66  81 122 170 209 248 308 388
#     4  12  24  39  61  98 128 153 209 274 312 363
#     4   9  19  40  66  81 121 173 205 236 313 386
#
# _framework density 20.148304
#
# number of rings (size 3 to 8) (size 9 to 14) (size 15 to 20)
#    1.000    1.333    0.000    3.000    0.000    2.667 
#   12.000    5.833    0.000    0.000    0.000    0.000 
#    0.000    0.000    0.000    0.000    0.000    0.000 
#
# Total GULP energy -297427.413223 kJ/mol
# GULP energy per Si atom -12392.808884 kJ/mol
# Density = 2.010245 g / cm^3
# Si number density = 20.148304 Si / 1000 Ang^3
#
#
#
# Elastic Constant Matrix: (Units=GPa)
#
#
# Indices 1 2 3 4 5 6 
#
# 1 144.6393 39.7066 84.5772 0.0000 0.0000 0.0000
# 2 39.7066 91.8751 66.4723 0.0000 0.0000 0.0000
# 3 84.5772 66.4723 179.0017 0.0000 0.0000 0.0000
# 4 0.0000 0.0000 0.0000 -2.0814 0.0000 0.0000
# 5 0.0000 0.0000 0.0000 0.0000 40.6427 0.0000
# 6 0.0000 0.0000 0.0000 0.0000 0.0000 33.6692
#
#
#
# Elastic Compliance Matrix: (Units=1/GPa)
#
#
# Indices 1 2 3 4 5 6 
#
# 1 0.009648 -0.001192 -0.004116 0.000000 0.000000 0.000000
# 2 -0.001192 0.015030 -0.005018 0.000000 0.000000 0.000000
# 3 -0.004116 -0.005018 0.009395 0.000000 0.000000 0.000000
# 4 0.000000 0.000000 0.000000 -0.480453 0.000000 0.000000
# 5 0.000000 0.000000 0.000000 0.000000 0.024605 0.000000
# 6 0.000000 0.000000 0.000000 0.000000 0.000000 0.029701
#
#
# Mechanical properties :
#
#
# Convention : Reuss Voigt Hill
#
# Bulk Modulus (GPa) = 74.51143 88.55870 81.53507
# Shear Modulus (GPa) = -13.62588 29.43009 7.90211
#
# Velocity S-wave (km/s) = -2.60336 3.82602 1.98255
# Velocity P-wave (km/s) = 5.29388 7.97288 6.76727
#
# Compressibility (1/GPa) = 0.01342076
#
# Stress axis : x y z
#
# Youngs Moduli (GPa) = 103.65211 66.53264 106.44066
#
# Poissons Ratio (x) = 0.07928 0.43810
# Poissons Ratio (y) = 0.12351 0.53417
# Poissons Ratio (z) = 0.42663 0.33389
#
# Static dielectric constant tensor:
#      x y z
#    x 3.802030 0.000000 0.000000 
#    y 0.000000 3.310970 0.000000 
#    z 0.000000 0.000000 3.744170 
# 
# 
# High freq. dielectric constant tensor:
#      x y z
#    x 1.784080 0.000000 0.000000 
#    y 0.000000 1.764380 0.000000 
#    z 0.000000 0.000000 1.796840 
# 
# From -- ./inp_files/2809.got.cif
#   From: 2010.03.12/outbox.cif.g09.slc.cpg/sg66_2_cif.got.tgz:2809.got - 2010.04.10 21:57:39.
