data_PCOD8276505
_publ_section_title
;
Structure prediction by ZEFSAII (Michael W. Deem and Ramdas Pophale) SiO2 
 PCOD8276505
Probable space group: C C C M
;
_chemical_formula_sum "Si O2"
_cell_formula_units_Z 64
_cell_length_a 8.148691
_cell_length_b 16.258708
_cell_length_c 23.025918
_cell_angle_alpha 90.000000
_cell_angle_beta 90.000000
_cell_angle_gamma 90.000000
_cell_volume 3050.639117
_symmetry_space_group_name_H-M "C C C M"
_symmetry_group_IT_number 66
_symmetry_cell_setting 'orthorhombic'
loop_
_space_group_symop_operation_xyz
x,y,z
-x,-y,z
x,-y,1/2-z
-x,y,1/2-z
-x,-y,-z
x,y,-z
-x,y,1/2+z
x,-y,1/2+z
1/2+x,1/2+y,z
1/2-x,1/2-y,z
1/2+x,1/2-y,1/2-z
1/2-x,1/2+y,1/2-z
1/2-x,1/2-y,-z
1/2+x,1/2+y,-z
1/2-x,1/2+y,1/2+z
1/2+x,1/2-y,1/2+z
loop_
_atom_site_type_symbol
_atom_site_label
_atom_site_fract_x
_atom_site_fract_y
_atom_site_fract_z
Si Si1 0.408469 0.697072 0.364722
Si Si2 0.087815 0.644889 0.831427
Si Si3 0.803350 0.156598 0.063481
Si Si4 0.730842 0.087283 0.722009
O O1 0.250000 0.750000 0.385879
O O2 0.533854 0.760915 0.336340
O O3 0.504088 0.653164 0.417826
O O4 0.371426 0.625001 0.318625
O O5 0.183962 0.612901 0.889125
O O6 0.209170 0.647663 0.776575
O O7 0.936119 0.583295 0.817003
O O8 0.750000 0.250000 0.057443
O O9 0.786402 0.113440 0.000000
O O10 0.779411 0.000000 0.750000
#
# Coordination Sequence:
#
# PCOD8276505 Si02
#       4
#    16  16  16  16
#     4   9  19  32  52  81 111 144 182 229 280 332
#     4   9  18  32  54  79 107 142 184 225 274 333
#     4   9  18  33  53  78 108 144 188 233 273 322
#     4  10  20  35  55  81 112 141 178 229 281 335
#
# _framework density 20.979209999999998
#
# number of rings (size 3 to 8) (size 9 to 14) (size 15 to 20)
#    0.000    2.750    0.000    1.500    0.000   18.500 
#    0.000    7.500    0.000    6.000    0.000    0.000 
#    0.000    0.000    0.000    0.000    0.000    1.750 
#
# Total GULP energy -396444.969805 kJ/mol
# GULP energy per Si atom -12388.905306 kJ/mol
# Density = 2.093146 g / cm^3
# Si number density = 20.979210 Si / 1000 Ang^3
#
#
#
# Elastic Constant Matrix: (Units=GPa)
#
#
# Indices 1 2 3 4 5 6 
#
# 1 108.0154 34.0753 89.1898 0.0000 0.0000 0.0000
# 2 34.0753 56.7239 32.0802 0.0000 0.0000 0.0000
# 3 89.1898 32.0802 181.8172 0.0000 0.0000 0.0000
# 4 0.0000 0.0000 0.0000 4.8862 0.0000 0.0000
# 5 0.0000 0.0000 0.0000 0.0000 30.1819 0.0000
# 6 0.0000 0.0000 0.0000 0.0000 0.0000 18.2278
#
#
#
# Elastic Compliance Matrix: (Units=1/GPa)
#
#
# Indices 1 2 3 4 5 6 
#
# 1 0.017338 -0.006226 -0.007406 0.000000 0.000000 0.000000
# 2 -0.006226 0.021820 -0.000796 0.000000 0.000000 0.000000
# 3 -0.007406 -0.000796 0.009274 0.000000 0.000000 0.000000
# 4 0.000000 0.000000 0.000000 0.204660 0.000000 0.000000
# 5 0.000000 0.000000 0.000000 0.000000 0.033132 0.000000
# 6 0.000000 0.000000 0.000000 0.000000 0.000000 0.054861
#
#
# Mechanical properties :
#
#
# Convention : Reuss Voigt Hill
#
# Bulk Modulus (GPa) = 51.08781 73.02747 62.05764
# Shear Modulus (GPa) = 13.28143 23.40658 18.34401
#
# Velocity S-wave (km/s) = 2.51883 3.34384 2.96022
# Velocity P-wave (km/s) = 5.73270 7.05644 6.42873
#
# Compressibility (1/GPa) = 0.01957414
#
# Stress axis : x y z
#
# Youngs Moduli (GPa) = 57.67780 45.83047 107.83362
#
# Poissons Ratio (x) = 0.28536 0.79865
# Poissons Ratio (y) = 0.35913 0.08578
# Poissons Ratio (z) = 0.42718 0.03646
#
# Static dielectric constant tensor:
#      x y z
#    x 4.018850 0.000000 0.000000 
#    y 0.000000 3.323240 0.000000 
#    z 0.000000 0.000000 4.310880 
# 
# 
# High freq. dielectric constant tensor:
#      x y z
#    x 1.827090 0.000000 0.000000 
#    y 0.000000 1.778030 0.000000 
#    z 0.000000 0.000000 1.813110 
# 
# From -- ./inp_files/46594.got.cif
#   From: 2010.03.12/outbox.cif.g09.slc.cpg/sg66_24_cif.got.tgz:46594.got - 2010.04.10 21:57:39.
