data_PCOD8276524
_publ_section_title
;
Structure prediction by ZEFSAII (Michael W. Deem and Ramdas Pophale) SiO2 
 PCOD8276524
Probable space group: C C C M
;
_chemical_formula_sum "Si O2"
_cell_formula_units_Z 80
_cell_length_a 11.800894
_cell_length_b 25.628205
_cell_length_c 14.048846
_cell_angle_alpha 90.000000
_cell_angle_beta 90.000000
_cell_angle_gamma 90.000000
_cell_volume 4248.873004
_symmetry_space_group_name_H-M "C C C M"
_symmetry_group_IT_number 66
_symmetry_cell_setting 'orthorhombic'
loop_
_space_group_symop_operation_xyz
x,y,z
-x,-y,z
x,-y,1/2-z
-x,y,1/2-z
-x,-y,-z
x,y,-z
-x,y,1/2+z
x,-y,1/2+z
1/2+x,1/2+y,z
1/2-x,1/2-y,z
1/2+x,1/2-y,1/2-z
1/2-x,1/2+y,1/2-z
1/2-x,1/2-y,-z
1/2+x,1/2+y,-z
1/2-x,1/2+y,1/2+z
1/2+x,1/2-y,1/2+z
loop_
_atom_site_type_symbol
_atom_site_label
_atom_site_fract_x
_atom_site_fract_y
_atom_site_fract_z
Si Si1 0.029197 0.162351 0.000000
Si Si2 0.737722 0.847671 0.298856
Si Si3 0.000000 0.304077 0.250000
Si Si4 0.856472 0.222647 0.654818
Si Si5 0.288430 0.690973 0.000000
Si Si6 0.872197 0.056970 0.713886
Si Si7 0.427079 0.448555 0.000000
O O1 0.102911 0.173704 0.093587
O O2 0.991264 0.102100 0.000000
O O3 0.922241 0.199154 0.000000
O O4 0.603810 0.841303 0.278904
O O5 0.811335 0.800213 0.255039
O O6 0.749682 0.843798 0.411444
O O7 0.782869 0.902548 0.258593
O O8 0.956509 0.265047 0.333085
O O9 0.750000 0.250000 0.602414
O O10 0.250000 0.750000 0.000000
O O11 0.856698 0.055299 0.598538
O O12 0.000000 0.070893 0.750000
O O13 0.837772 0.000000 0.750000
O O14 0.500000 0.500000 0.000000
#
# Coordination Sequence:
#
# PCOD8276524 Si02
#       7
#     8  16   8  16   8  16   8
#     4  12  21  34  60  87 126 155 201 255 318 381
#     4  11  23  40  60  89 123 171 211 264 322 375
#     4  10  22  40  59  82 129 166 214 254 304 384
#     4  10  20  35  56  84 121 162 204 251 308 369
#     4  12  24  35  58  90 124 169 214 251 317 391
#     4  11  23  39  64  90 125 160 206 269 327 380
#     4  12  22  39  60  95 122 159 206 262 333 383
#
# _framework density 18.828522
#
# number of rings (size 3 to 8) (size 9 to 14) (size 15 to 20)
#    0.000    1.000    4.000    5.700    1.400    0.000 
#    0.000    2.500    0.000    0.000    0.000    2.800 
#    0.000    0.000    0.000    0.000    0.000    0.000 
#
# Total GULP energy -495737.136829 kJ/mol
# GULP energy per Si atom -12393.428421 kJ/mol
# Density = 1.878567 g / cm^3
# Si number density = 18.828522 Si / 1000 Ang^3
#
#
#
# Elastic Constant Matrix: (Units=GPa)
#
#
# Indices 1 2 3 4 5 6 
#
# 1 120.5443 70.2608 48.7925 0.0000 0.0000 0.0000
# 2 70.2608 147.6982 52.5311 0.0000 0.0000 0.0000
# 3 48.7925 52.5311 154.6718 0.0000 0.0000 0.0000
# 4 0.0000 0.0000 0.0000 31.5523 0.0000 0.0000
# 5 0.0000 0.0000 0.0000 0.0000 17.2065 0.0000
# 6 0.0000 0.0000 0.0000 0.0000 0.0000 38.8040
#
#
#
# Elastic Compliance Matrix: (Units=1/GPa)
#
#
# Indices 1 2 3 4 5 6 
#
# 1 0.012055 -0.004984 -0.002110 0.000000 0.000000 0.000000
# 2 -0.004984 0.009761 -0.001743 0.000000 0.000000 0.000000
# 3 -0.002110 -0.001743 0.007723 0.000000 0.000000 0.000000
# 4 0.000000 0.000000 0.000000 0.031693 0.000000 0.000000
# 5 0.000000 0.000000 0.000000 0.000000 0.058118 0.000000
# 6 0.000000 0.000000 0.000000 0.000000 0.000000 0.025771
#
#
# Mechanical properties :
#
#
# Convention : Reuss Voigt Hill
#
# Bulk Modulus (GPa) = 84.28214 85.12034 84.70124
# Shear Modulus (GPa) = 29.98504 34.26791 32.12647
#
# Velocity S-wave (km/s) = 3.99498 4.27077 4.13518
# Velocity P-wave (km/s) = 8.13265 8.34420 8.23911
#
# Compressibility (1/GPa) = 0.01186491
#
# Stress axis : x y z
#
# Youngs Moduli (GPa) = 82.95440 102.44393 129.48488
#
# Poissons Ratio (x) = 0.51059 0.27322
# Poissons Ratio (y) = 0.41345 0.22569
# Poissons Ratio (z) = 0.17504 0.17856
#
# Static dielectric constant tensor:
#      x y z
#    x 3.417990 0.000000 0.000000 
#    y 0.000000 3.505830 0.000000 
#    z 0.000000 0.000000 3.715100 
# 
# 
# High freq. dielectric constant tensor:
#      x y z
#    x 1.710870 0.000000 0.000000 
#    y 0.000000 1.733590 0.000000 
#    z 0.000000 0.000000 1.742580 
# 
# From -- ./inp_files/26473.got.cif
#   From: 2010.03.12/outbox.cif.g09.slc.cpg/sg66_14_cif.got.tgz:26473.got - 2010.04.10 21:57:39.
