data_PCOD8276328
_publ_section_title
;
Structure prediction by ZEFSAII (Michael W. Deem and Ramdas Pophale) SiO2 
 PCOD8276328
Probable space group: C C C M
;
_chemical_formula_sum "Si O2"
_cell_formula_units_Z 112
_cell_length_a 27.541847
_cell_length_b 16.579421
_cell_length_c 13.991787
_cell_angle_alpha 90.000000
_cell_angle_beta 90.000000
_cell_angle_gamma 90.000000
_cell_volume 6389.039987
_symmetry_space_group_name_H-M "C C C M"
_symmetry_group_IT_number 66
_symmetry_cell_setting 'orthorhombic'
loop_
_space_group_symop_operation_xyz
x,y,z
-x,-y,z
x,-y,1/2-z
-x,y,1/2-z
-x,-y,-z
x,y,-z
-x,y,1/2+z
x,-y,1/2+z
1/2+x,1/2+y,z
1/2-x,1/2-y,z
1/2+x,1/2-y,1/2-z
1/2-x,1/2+y,1/2-z
1/2-x,1/2-y,-z
1/2+x,1/2+y,-z
1/2-x,1/2+y,1/2+z
1/2+x,1/2-y,1/2+z
loop_
_atom_site_type_symbol
_atom_site_label
_atom_site_fract_x
_atom_site_fract_y
_atom_site_fract_z
Si Si1 0.724214 0.349154 0.395205
Si Si2 0.358979 0.479091 0.105713
Si Si3 0.165038 0.754338 0.251862
Si Si4 0.077595 0.130550 0.774159
Si Si5 0.988480 0.093992 0.890837
Si Si6 0.795571 0.410093 0.244996
Si Si7 0.707441 0.624680 0.387260
O O1 0.741371 0.321098 0.500000
O O2 0.681587 0.412465 0.404581
O O3 0.703342 0.271539 0.337967
O O4 0.767882 0.394321 0.343445
O O5 0.397822 0.449455 0.182337
O O6 0.334455 0.561360 0.143174
O O7 0.383259 0.491978 0.000000
O O8 0.112100 0.790689 0.275060
O O9 0.161922 0.657632 0.235926
O O10 0.189065 0.791261 0.156152
O O11 0.061900 0.111357 0.664955
O O12 0.030764 0.147304 0.841132
O O13 0.982387 0.121761 0.000000
O O14 0.000000 0.000000 0.881008
O O15 0.818510 0.500000 0.250000
O O16 0.758511 0.403155 0.156418
O O17 0.713885 0.631948 0.500000
#
# Coordination Sequence:
#
# PCOD8276328 Si02
#       7
#    16  16  16  16  16  16  16
#     4   9  17  32  50  70  98 133 177 219 255 294
#     4   9  17  28  50  77  99 138 179 207 242 293
#     4  10  23  32  50  76  98 135 175 221 263 300
#     4  10  20  35  53  73 109 134 167 212 248 303
#     4  10  22  36  54  79 104 134 163 196 256 322
#     4  11  21  35  49  68 102 137 179 224 265 304
#     4  10  20  33  50  71 101 141 183 218 253 296
#
# _framework density 17.53002
#
# number of rings (size 3 to 8) (size 9 to 14) (size 15 to 20)
#    0.000    2.143    1.429    3.000    4.000    3.429 
#    0.000    0.000    0.000    0.000    0.000    2.000 
#    0.000    1.143    0.000    0.000    0.000    0.000 
#
# Total GULP energy -694241.415014 kJ/mol
# GULP energy per Si atom -12397.168125 kJ/mol
# Density = 1.749012 g / cm^3
# Si number density = 17.530020 Si / 1000 Ang^3
#
#
#
# Elastic Constant Matrix: (Units=GPa)
#
#
# Indices 1 2 3 4 5 6 
#
# 1 65.4074 33.6724 37.8989 0.0000 0.0000 0.0000
# 2 33.6724 123.5729 35.7587 0.0000 0.0000 0.0000
# 3 37.8989 35.7587 133.1635 0.0000 0.0000 0.0000
# 4 0.0000 0.0000 0.0000 8.0917 0.0000 0.0000
# 5 0.0000 0.0000 0.0000 0.0000 9.7145 0.0000
# 6 0.0000 0.0000 0.0000 0.0000 0.0000 10.2559
#
#
#
# Elastic Compliance Matrix: (Units=1/GPa)
#
#
# Indices 1 2 3 4 5 6 
#
# 1 0.020089 -0.004141 -0.004605 0.000000 0.000000 0.000000
# 2 -0.004141 0.009628 -0.001407 0.000000 0.000000 0.000000
# 3 -0.004605 -0.001407 0.009198 0.000000 0.000000 0.000000
# 4 0.000000 0.000000 0.000000 0.123583 0.000000 0.000000
# 5 0.000000 0.000000 0.000000 0.000000 0.102939 0.000000
# 6 0.000000 0.000000 0.000000 0.000000 0.000000 0.097505
#
#
# Mechanical properties :
#
#
# Convention : Reuss Voigt Hill
#
# Bulk Modulus (GPa) = 53.73992 59.64488 56.69240
# Shear Modulus (GPa) = 12.83854 19.93333 16.38594
#
# Velocity S-wave (km/s) = 2.70918 3.37575 3.06066
# Velocity P-wave (km/s) = 6.36464 7.02086 6.70079
#
# Compressibility (1/GPa) = 0.01860814
#
# Stress axis : x y z
#
# Youngs Moduli (GPa) = 49.77758 103.86400 108.71877
#
# Poissons Ratio (x) = 0.43015 0.50069
# Poissons Ratio (y) = 0.20615 0.15294
# Poissons Ratio (z) = 0.22925 0.14611
#
# Static dielectric constant tensor:
#      x y z
#    x 3.218700 0.000000 0.000000 
#    y 0.000000 3.144230 0.000000 
#    z 0.000000 0.000000 3.661580 
# 
# 
# High freq. dielectric constant tensor:
#      x y z
#    x 1.650850 0.000000 0.000000 
#    y 0.000000 1.648260 0.000000 
#    z 0.000000 0.000000 1.697330 
# 
# From -- ./inp_files/33947.got.cif
#   From: 2010.03.12/outbox.cif.g09.slc.cpg/sg66_17_cif.got.tgz:33947.got - 2010.04.10 21:57:39.
