data_PCOD8276428
_publ_section_title
;
Structure prediction by ZEFSAII (Michael W. Deem and Ramdas Pophale) SiO2 
 PCOD8276428
Probable space group: C C C M
;
_chemical_formula_sum "Si O2"
_cell_formula_units_Z 112
_cell_length_a 23.798132
_cell_length_b 14.441052
_cell_length_c 15.409268
_cell_angle_alpha 90.000000
_cell_angle_beta 90.000000
_cell_angle_gamma 90.000000
_cell_volume 5295.704085
_symmetry_space_group_name_H-M "C C C M"
_symmetry_group_IT_number 66
_symmetry_cell_setting 'orthorhombic'
loop_
_space_group_symop_operation_xyz
x,y,z
-x,-y,z
x,-y,1/2-z
-x,y,1/2-z
-x,-y,-z
x,y,-z
-x,y,1/2+z
x,-y,1/2+z
1/2+x,1/2+y,z
1/2-x,1/2-y,z
1/2+x,1/2-y,1/2-z
1/2-x,1/2+y,1/2-z
1/2-x,1/2-y,-z
1/2+x,1/2+y,-z
1/2-x,1/2+y,1/2+z
1/2+x,1/2-y,1/2+z
loop_
_atom_site_type_symbol
_atom_site_label
_atom_site_fract_x
_atom_site_fract_y
_atom_site_fract_z
Si Si1 0.966503 0.255567 0.173152
Si Si2 0.846016 0.782592 0.731905
Si Si3 0.470761 0.587796 0.597909
Si Si4 0.717549 0.587573 0.598641
Si Si5 0.553722 0.943801 0.401503
Si Si6 0.170025 0.575272 0.183925
Si Si7 0.841163 0.103629 0.598362
O O1 0.910635 0.201648 0.204297
O O2 0.954984 0.332779 0.100575
O O3 0.000000 0.308361 0.250000
O O4 0.011912 0.181785 0.143025
O O5 0.807455 0.835204 0.662406
O O6 0.835485 0.673123 0.732475
O O7 0.831073 0.817550 0.829106
O O8 0.500000 0.500000 0.644099
O O9 0.493088 0.594987 0.500000
O O10 0.404945 0.571277 0.602844
O O11 0.701376 0.614145 0.500000
O O12 0.785159 0.586237 0.606472
O O13 0.695138 0.485968 0.622730
O O14 0.563047 0.975478 0.500000
O O15 0.610485 0.965419 0.348974
O O16 0.500000 0.000000 0.363125
O O17 0.194836 0.500000 0.250000
O O18 0.826898 0.139878 0.500000
#
# Coordination Sequence:
#
# PCOD8276428 Si02
#       7
#    16  16  16  16  16  16  16
#     4  11  22  36  59  91 124 165 208 261 316 377
#     4  11  23  40  64  94 126 168 216 261 321 381
#     4  10  20  34  54  84 124 166 207 251 305 373
#     4  11  24  43  68  95 128 166 209 268 326 385
#     4  10  24  42  65  92 123 165 212 268 324 379
#     4  11  25  42  67  94 127 166 214 270 322 385
#     4  10  21  39  62  90 126 166 207 257 315 382
#
# _framework density 21.149218000000001
#
# number of rings (size 3 to 8) (size 9 to 14) (size 15 to 20)
#    0.000    1.429    1.429    3.429    4.000    5.429 
#    0.000    1.429    0.000    3.429    0.000    0.000 
#    0.000    0.000    0.000    0.000    0.000    0.000 
#
# Total GULP energy -694342.782445 kJ/mol
# GULP energy per Si atom -12398.978258 kJ/mol
# Density = 2.110108 g / cm^3
# Si number density = 21.149218 Si / 1000 Ang^3
#
#
#
# Elastic Constant Matrix: (Units=GPa)
#
#
# Indices 1 2 3 4 5 6 
#
# 1 122.0909 34.6425 33.5230 0.0000 0.0000 0.0000
# 2 34.6425 98.1451 46.2555 0.0000 0.0000 0.0000
# 3 33.5230 46.2555 107.1609 0.0000 0.0000 0.0000
# 4 0.0000 0.0000 0.0000 26.1073 0.0000 0.0000
# 5 0.0000 0.0000 0.0000 0.0000 27.3713 0.0000
# 6 0.0000 0.0000 0.0000 0.0000 0.0000 27.0995
#
#
#
# Elastic Compliance Matrix: (Units=1/GPa)
#
#
# Indices 1 2 3 4 5 6 
#
# 1 0.009399 -0.002425 -0.001893 0.000000 0.000000 0.000000
# 2 -0.002425 0.013417 -0.005033 0.000000 0.000000 0.000000
# 3 -0.001893 -0.005033 0.012096 0.000000 0.000000 0.000000
# 4 0.000000 0.000000 0.000000 0.038303 0.000000 0.000000
# 5 0.000000 0.000000 0.000000 0.000000 0.036535 0.000000
# 6 0.000000 0.000000 0.000000 0.000000 0.000000 0.036901
#
#
# Mechanical properties :
#
#
# Convention : Reuss Voigt Hill
#
# Bulk Modulus (GPa) = 61.69200 61.80431 61.74816
# Shear Modulus (GPa) = 29.28145 30.31401 29.79773
#
# Velocity S-wave (km/s) = 3.72495 3.79005 3.75764
# Velocity P-wave (km/s) = 6.90894 6.95982 6.93443
#
# Compressibility (1/GPa) = 0.01620956
#
# Stress axis : x y z
#
# Youngs Moduli (GPa) = 106.39888 74.53292 82.66924
#
# Poissons Ratio (x) = 0.18075 0.15652
# Poissons Ratio (y) = 0.25803 0.41605
# Poissons Ratio (z) = 0.20145 0.37510
#
# Static dielectric constant tensor:
#      x y z
#    x 3.936310 0.000000 0.000000 
#    y 0.000000 3.645420 0.000000 
#    z 0.000000 0.000000 3.874560 
# 
# 
# High freq. dielectric constant tensor:
#      x y z
#    x 1.839720 0.000000 0.000000 
#    y 0.000000 1.823140 0.000000 
#    z 0.000000 0.000000 1.829320 
# 
# From -- ./inp_files/32437.got.cif
#   From: 2010.03.12/outbox.cif.g09.slc.cpg/sg66_17_cif.got.tgz:32437.got - 2010.04.10 21:57:39.
