data_PCOD8276754
_publ_section_title
;
Structure prediction by ZEFSAII (Michael W. Deem and Ramdas Pophale) SiO2 
 PCOD8276754
Probable space group: C C C M
;
_chemical_formula_sum "Si O2"
_cell_formula_units_Z 112
_cell_length_a 12.063508
_cell_length_b 24.520043
_cell_length_c 19.042781
_cell_angle_alpha 90.000000
_cell_angle_beta 90.000000
_cell_angle_gamma 90.000000
_cell_volume 5632.811486
_symmetry_space_group_name_H-M "C C C M"
_symmetry_group_IT_number 66
_symmetry_cell_setting 'orthorhombic'
loop_
_space_group_symop_operation_xyz
x,y,z
-x,-y,z
x,-y,1/2-z
-x,y,1/2-z
-x,-y,-z
x,y,-z
-x,y,1/2+z
x,-y,1/2+z
1/2+x,1/2+y,z
1/2-x,1/2-y,z
1/2+x,1/2-y,1/2-z
1/2-x,1/2+y,1/2-z
1/2-x,1/2-y,-z
1/2+x,1/2+y,-z
1/2-x,1/2+y,1/2+z
1/2+x,1/2-y,1/2+z
loop_
_atom_site_type_symbol
_atom_site_label
_atom_site_fract_x
_atom_site_fract_y
_atom_site_fract_z
Si Si1 0.183290 0.521363 0.916995
Si Si2 0.571507 0.553390 0.422999
Si Si3 0.252650 0.812795 0.197679
Si Si4 0.849724 0.395448 0.419898
Si Si5 0.520082 0.647585 0.669550
Si Si6 0.549245 0.893929 0.326708
Si Si7 0.703617 0.692292 0.141495
O O1 0.305257 0.541075 0.895345
O O2 0.177052 0.457510 0.898675
O O3 0.097540 0.552726 0.866299
O O4 0.157074 0.531623 0.000000
O O5 0.500000 0.500000 0.428099
O O6 0.580360 0.580505 0.500000
O O7 0.502493 0.592090 0.372189
O O8 0.250000 0.750000 0.176164
O O9 0.145912 0.834800 0.156436
O O10 0.361830 0.844963 0.173597
O O11 0.247599 0.819950 0.280862
O O12 0.887068 0.392337 0.500000
O O13 0.743282 0.356871 0.408196
O O14 0.948298 0.371306 0.372822
O O15 0.500000 0.634111 0.750000
O O16 0.431055 0.692647 0.642674
O O17 0.500000 0.909230 0.250000
O O18 0.750000 0.750000 0.113427
#
# Coordination Sequence:
#
# PCOD8276754 Si02
#       7
#    16  16  16  16  16  16  16
#     4  10  22  41  63  90 129 169 208 259 321 379
#     4  10  20  37  62  88 119 164 208 246 300 373
#     4  10  22  40  65  92 120 159 207 257 314 366
#     4  11  24  41  62  92 130 169 207 255 319 381
#     4  10  21  38  62  90 121 155 200 256 308 359
#     4  12  23  40  66  95 124 166 212 261 308 378
#     4  10  22  40  63  91 124 164 208 258 314 374
#
# _framework density 19.883499
#
# number of rings (size 3 to 8) (size 9 to 14) (size 15 to 20)
#    0.000    1.571    2.857    1.714    2.000    5.143 
#    0.000    1.429    0.000    2.143    0.000    0.000 
#    0.000    0.000    0.000    0.000    0.000    0.000 
#
# Total GULP energy -694299.695380 kJ/mol
# GULP energy per Si atom -12398.208846 kJ/mol
# Density = 1.983824 g / cm^3
# Si number density = 19.883499 Si / 1000 Ang^3
#
#
#
# Elastic Constant Matrix: (Units=GPa)
#
#
# Indices 1 2 3 4 5 6 
#
# 1 118.6286 45.1049 47.1817 0.0000 0.0000 0.0000
# 2 45.1049 124.0057 48.4304 0.0000 0.0000 0.0000
# 3 47.1817 48.4304 75.7120 0.0000 0.0000 0.0000
# 4 0.0000 0.0000 0.0000 -53.2509 0.0000 0.0000
# 5 0.0000 0.0000 0.0000 0.0000 23.9997 0.0000
# 6 0.0000 0.0000 0.0000 0.0000 0.0000 34.2164
#
#
#
# Elastic Compliance Matrix: (Units=1/GPa)
#
#
# Indices 1 2 3 4 5 6 
#
# 1 0.011517 -0.001848 -0.005995 0.000000 0.000000 0.000000
# 2 -0.001848 0.011046 -0.005914 0.000000 0.000000 0.000000
# 3 -0.005995 -0.005914 0.020727 0.000000 0.000000 0.000000
# 4 0.000000 0.000000 0.000000 -0.018779 0.000000 0.000000
# 5 0.000000 0.000000 0.000000 0.000000 0.041667 0.000000
# 6 0.000000 0.000000 0.000000 0.000000 0.000000 0.029226
#
#
# Mechanical properties :
#
#
# Convention : Reuss Voigt Hill
#
# Bulk Modulus (GPa) = 63.38844 66.64224 65.01534
# Shear Modulus (GPa) = 39.00888 12.83501 25.92194
#
# Velocity S-wave (km/s) = 4.43411 2.54345 3.61458
# Velocity P-wave (km/s) = 7.62655 6.49728 7.08445
#
# Compressibility (1/GPa) = 0.01577575
#
# Stress axis : x y z
#
# Youngs Moduli (GPa) = 86.83181 90.53013 48.24607
#
# Poissons Ratio (x) = 0.16726 0.28923
# Poissons Ratio (y) = 0.16043 0.28535
# Poissons Ratio (z) = 0.52055 0.53543
#
# Static dielectric constant tensor:
#      x y z
#    x 3.928560 0.000000 0.000000 
#    y 0.000000 3.495680 0.000000 
#    z 0.000000 0.000000 3.608020 
# 
# 
# High freq. dielectric constant tensor:
#      x y z
#    x 1.793860 0.000000 0.000000 
#    y 0.000000 1.769000 0.000000 
#    z 0.000000 0.000000 1.765450 
# 
# From -- ./inp_files/48994.got.cif
#   From: 2010.03.12/outbox.cif.g09.slc.cpg/sg66_25_cif.got.tgz:48994.got - 2010.04.10 21:57:39.
