data_PCOD8276713
_publ_section_title
;
Structure prediction by ZEFSAII (Michael W. Deem and Ramdas Pophale) SiO2 
 PCOD8276713
Probable space group: C C C M
;
_chemical_formula_sum "Si O2"
_cell_formula_units_Z 80
_cell_length_a 11.209653
_cell_length_b 25.547951
_cell_length_c 13.891585
_cell_angle_alpha 90.000000
_cell_angle_beta 90.000000
_cell_angle_gamma 90.000000
_cell_volume 3978.323033
_symmetry_space_group_name_H-M "C C C M"
_symmetry_group_IT_number 66
_symmetry_cell_setting 'orthorhombic'
loop_
_space_group_symop_operation_xyz
x,y,z
-x,-y,z
x,-y,1/2-z
-x,y,1/2-z
-x,-y,-z
x,y,-z
-x,y,1/2+z
x,-y,1/2+z
1/2+x,1/2+y,z
1/2-x,1/2-y,z
1/2+x,1/2-y,1/2-z
1/2-x,1/2+y,1/2-z
1/2-x,1/2-y,-z
1/2+x,1/2+y,-z
1/2-x,1/2+y,1/2+z
1/2+x,1/2-y,1/2+z
loop_
_atom_site_type_symbol
_atom_site_label
_atom_site_fract_x
_atom_site_fract_y
_atom_site_fract_z
Si Si1 0.691452 0.305997 0.753445
Si Si2 0.991660 0.162579 0.609638
Si Si3 0.040458 0.559125 0.608106
Si Si4 0.313918 0.910985 0.213869
Si Si5 0.916101 0.951966 0.388422
O O1 0.750000 0.250000 0.745039
O O2 0.636763 0.321711 0.650302
O O3 0.591441 0.304084 0.835684
O O4 0.786440 0.349830 0.780479
O O5 0.999550 0.179145 0.500000
O O6 0.007334 0.100554 0.626083
O O7 0.079237 0.575789 0.500000
O O8 0.151212 0.566882 0.680715
O O9 0.000000 0.500000 0.612276
O O10 0.925138 0.591240 0.641339
O O11 0.205324 0.946694 0.173438
O O12 0.879744 0.960039 0.500000
O O13 0.000000 0.000000 0.352736
#
# Coordination Sequence:
#
# PCOD8276713 Si02
#       5
#    16  16  16  16  16
#     4  10  22  39  57  80 110 144 187 238 282 326
#     4   9  20  38  57  83 115 143 179 228 281 337
#     4  10  22  38  56  83 117 151 189 231 275 333
#     4  10  20  37  59  82 112 151 190 231 282 336
#     4   9  18  34  60  91 119 148 182 225 282 348
#
# _framework density 20.108975999999998
#
# number of rings (size 3 to 8) (size 9 to 14) (size 15 to 20)
#    0.000    2.400    0.000    1.800    0.000    8.800 
#    0.000   13.000    0.000    0.600    0.000    0.000 
#    0.000    0.000    0.000    0.000    0.000    0.000 
#
# Total GULP energy -495976.727502 kJ/mol
# GULP energy per Si atom -12399.418188 kJ/mol
# Density = 2.006321 g / cm^3
# Si number density = 20.108976 Si / 1000 Ang^3
#
#
#
# Elastic Constant Matrix: (Units=GPa)
#
#
# Indices 1 2 3 4 5 6 
#
# 1 120.4411 67.3372 65.2562 0.0000 0.0000 0.0000
# 2 67.3372 101.6886 49.7700 0.0000 0.0000 0.0000
# 3 65.2562 49.7700 149.8937 0.0000 0.0000 0.0000
# 4 0.0000 0.0000 0.0000 23.4921 0.0000 0.0000
# 5 0.0000 0.0000 0.0000 0.0000 14.5200 0.0000
# 6 0.0000 0.0000 0.0000 0.0000 0.0000 31.1746
#
#
#
# Elastic Compliance Matrix: (Units=1/GPa)
#
#
# Indices 1 2 3 4 5 6 
#
# 1 0.014806 -0.007940 -0.003809 0.000000 0.000000 0.000000
# 2 -0.007940 0.016000 -0.001856 0.000000 0.000000 0.000000
# 3 -0.003809 -0.001856 0.008946 0.000000 0.000000 0.000000
# 4 0.000000 0.000000 0.000000 0.042567 0.000000 0.000000
# 5 0.000000 0.000000 0.000000 0.000000 0.068871 0.000000
# 6 0.000000 0.000000 0.000000 0.000000 0.000000 0.032077
#
#
# Mechanical properties :
#
#
# Convention : Reuss Voigt Hill
#
# Bulk Modulus (GPa) = 79.73529 81.86113 80.79821
# Shear Modulus (GPa) = 23.29281 26.48132 24.88706
#
# Velocity S-wave (km/s) = 3.40712 3.63284 3.52178
# Velocity P-wave (km/s) = 7.43072 7.64158 7.53689
#
# Compressibility (1/GPa) = 0.01254150
#
# Stress axis : x y z
#
# Youngs Moduli (GPa) = 67.54077 62.50004 111.78087
#
# Poissons Ratio (x) = 0.49624 0.42582
# Poissons Ratio (y) = 0.53626 0.20746
# Poissons Ratio (z) = 0.25729 0.11600
#
# Static dielectric constant tensor:
#      x y z
#    x 3.595880 0.000000 0.000000 
#    y 0.000000 3.569150 0.000000 
#    z 0.000000 0.000000 3.983670 
# 
# 
# High freq. dielectric constant tensor:
#      x y z
#    x 1.785310 0.000000 0.000000 
#    y 0.000000 1.770040 0.000000 
#    z 0.000000 0.000000 1.797230 
# 
# From -- ./inp_files/26399.got.cif
#   From: 2010.03.12/outbox.cif.g09.slc.cpg/sg66_14_cif.got.tgz:26399.got - 2010.04.10 21:57:39.
