data_PCOD8276520
_publ_section_title
;
Structure prediction by ZEFSAII (Michael W. Deem and Ramdas Pophale) SiO2 
 PCOD8276520
Probable space group: C C C M
;
_chemical_formula_sum "Si O2"
_cell_formula_units_Z 128
_cell_length_a 23.364222
_cell_length_b 17.103878
_cell_length_c 18.377689
_cell_angle_alpha 90.000000
_cell_angle_beta 90.000000
_cell_angle_gamma 90.000000
_cell_volume 7344.070074
_symmetry_space_group_name_H-M "C C C M"
_symmetry_group_IT_number 66
_symmetry_cell_setting 'orthorhombic'
loop_
_space_group_symop_operation_xyz
x,y,z
-x,-y,z
x,-y,1/2-z
-x,y,1/2-z
-x,-y,-z
x,y,-z
-x,y,1/2+z
x,-y,1/2+z
1/2+x,1/2+y,z
1/2-x,1/2-y,z
1/2+x,1/2-y,1/2-z
1/2-x,1/2+y,1/2-z
1/2-x,1/2-y,-z
1/2+x,1/2+y,-z
1/2-x,1/2+y,1/2+z
1/2+x,1/2-y,1/2+z
loop_
_atom_site_type_symbol
_atom_site_label
_atom_site_fract_x
_atom_site_fract_y
_atom_site_fract_z
Si Si1 0.936754 0.356112 0.782393
Si Si2 0.060579 0.239653 0.914828
Si Si3 0.437922 0.035771 0.583233
Si Si4 0.759385 0.340020 0.584872
Si Si5 0.362884 0.597194 0.585142
Si Si6 0.038732 0.808826 0.815577
Si Si7 0.622992 0.109424 0.641688
Si Si8 0.936173 0.023108 0.167477
O O1 0.929783 0.391697 0.862516
O O2 0.922476 0.262916 0.786205
O O3 0.891719 0.396102 0.727480
O O4 0.000000 0.369615 0.750000
O O5 0.103115 0.172731 0.885400
O O6 0.084931 0.323792 0.895236
O O7 0.999000 0.228807 0.879212
O O8 0.052050 0.233781 0.000000
O O9 0.430562 0.064927 0.500000
O O10 0.500000 0.000000 0.596630
O O11 0.390300 0.971238 0.601040
O O12 0.775914 0.346271 0.500000
O O13 0.750000 0.250000 0.605713
O O14 0.703632 0.391099 0.604117
O O15 0.810053 0.374091 0.633526
O O16 0.371995 0.588967 0.500000
O O17 0.387391 0.519061 0.621002
O O18 0.074177 0.883617 0.843859
O O19 0.000000 0.842707 0.750000
O O20 0.926426 0.000000 0.250000
O O21 0.000000 0.000000 0.140015
#
# Coordination Sequence:
#
# PCOD8276520 Si02
#       8
#    16  16  16  16  16  16  16  16
#     4  11  22  36  55  77 115 149 186 234 282 336
#     4  11  19  29  51  81 109 141 183 223 275 347
#     4  11  22  36  55  81 114 150 188 229 282 345
#     4  10  20  35  56  83 116 152 191 240 294 342
#     4  10  21  35  52  80 115 146 184 238 287 334
#     4  11  19  34  50  77 108 149 184 222 281 332
#     4  12  21  34  59  82 112 150 186 229 292 347
#     4  11  20  32  54  77 110 146 188 225 277 338
#
# _framework density 17.429027000000001
#
# number of rings (size 3 to 8) (size 9 to 14) (size 15 to 20)
#    0.000    1.125    7.500    1.500    0.000    2.250 
#    0.000    1.250    0.000    0.000    0.000    0.000 
#    0.000    3.500    0.000    0.000    0.000    0.000 
#
# Total GULP energy -793727.143617 kJ/mol
# GULP energy per Si atom -12401.986619 kJ/mol
# Density = 1.738936 g / cm^3
# Si number density = 17.429027 Si / 1000 Ang^3
#
#
#
# Elastic Constant Matrix: (Units=GPa)
#
#
# Indices 1 2 3 4 5 6 
#
# 1 81.3011 35.3029 37.9634 0.0000 0.0000 0.0000
# 2 35.3029 104.7799 30.2888 0.0000 0.0000 0.0000
# 3 37.9634 30.2888 74.2546 0.0000 0.0000 0.0000
# 4 0.0000 0.0000 0.0000 29.6570 0.0000 0.0000
# 5 0.0000 0.0000 0.0000 0.0000 22.3421 0.0000
# 6 0.0000 0.0000 0.0000 0.0000 0.0000 22.1434
#
#
#
# Elastic Compliance Matrix: (Units=1/GPa)
#
#
# Indices 1 2 3 4 5 6 
#
# 1 0.017348 -0.003720 -0.007352 0.000000 0.000000 0.000000
# 2 -0.003720 0.011617 -0.002837 0.000000 0.000000 0.000000
# 3 -0.007352 -0.002837 0.018383 0.000000 0.000000 0.000000
# 4 0.000000 0.000000 0.000000 0.033719 0.000000 0.000000
# 5 0.000000 0.000000 0.000000 0.000000 0.044759 0.000000
# 6 0.000000 0.000000 0.000000 0.000000 0.000000 0.045160
#
#
# Mechanical properties :
#
#
# Convention : Reuss Voigt Hill
#
# Bulk Modulus (GPa) = 51.20076 51.93842 51.56959
# Shear Modulus (GPa) = 24.35289 25.28052 24.81670
#
# Velocity S-wave (km/s) = 3.74205 3.81265 3.77752
# Velocity P-wave (km/s) = 6.93621 7.01758 6.97702
#
# Compressibility (1/GPa) = 0.01953096
#
# Stress axis : x y z
#
# Youngs Moduli (GPa) = 57.64272 86.07958 54.39734
#
# Poissons Ratio (x) = 0.32019 0.39994
# Poissons Ratio (y) = 0.21442 0.15432
# Poissons Ratio (z) = 0.42380 0.24420
#
# Static dielectric constant tensor:
#      x y z
#    x 3.099840 0.000000 0.000000 
#    y 0.000000 3.394620 0.000000 
#    z 0.000000 0.000000 3.285010 
# 
# 
# High freq. dielectric constant tensor:
#      x y z
#    x 1.635140 0.000000 0.000000 
#    y 0.000000 1.679800 0.000000 
#    z 0.000000 0.000000 1.673580 
# 
# From -- ./inp_files/43813.got.cif
#   From: 2010.03.12/outbox.cif.g09.slc.cpg/sg66_22_cif.got.tgz:43813.got - 2010.04.10 21:57:39.
