data_PCOD8276820
_publ_section_title
;
Structure prediction by ZEFSAII (Michael W. Deem and Ramdas Pophale) SiO2 
 PCOD8276820
Probable space group: C C C M
;
_chemical_formula_sum "Si O2"
_cell_formula_units_Z 112
_cell_length_a 24.659646
_cell_length_b 13.740714
_cell_length_c 14.713422
_cell_angle_alpha 90.000000
_cell_angle_beta 90.000000
_cell_angle_gamma 90.000000
_cell_volume 4985.512728
_symmetry_space_group_name_H-M "C C C M"
_symmetry_group_IT_number 66
_symmetry_cell_setting 'orthorhombic'
loop_
_space_group_symop_operation_xyz
x,y,z
-x,-y,z
x,-y,1/2-z
-x,y,1/2-z
-x,-y,-z
x,y,-z
-x,y,1/2+z
x,-y,1/2+z
1/2+x,1/2+y,z
1/2-x,1/2-y,z
1/2+x,1/2-y,1/2-z
1/2-x,1/2+y,1/2-z
1/2-x,1/2-y,-z
1/2+x,1/2+y,-z
1/2-x,1/2+y,1/2+z
1/2+x,1/2-y,1/2+z
loop_
_atom_site_type_symbol
_atom_site_label
_atom_site_fract_x
_atom_site_fract_y
_atom_site_fract_z
Si Si1 0.704294 0.173861 0.901870
Si Si2 0.558368 0.530164 0.647435
Si Si3 0.864656 0.315570 0.396620
Si Si4 0.263327 0.863509 0.288090
Si Si5 0.836720 0.092069 0.600365
Si Si6 0.909311 0.245435 0.104041
Si Si7 0.062148 0.604982 0.750379
O O1 0.750000 0.250000 0.919187
O O2 0.717956 0.102968 0.814777
O O3 0.654758 0.246580 0.880117
O O4 0.695458 0.117176 0.000000
O O5 0.500000 0.500000 0.601053
O O6 0.554727 0.500000 0.750000
O O7 0.611483 0.478958 0.605814
O O8 0.566783 0.645409 0.642646
O O9 0.874147 0.349170 0.500000
O O10 0.813234 0.375108 0.357496
O O11 0.856945 0.201050 0.389015
O O12 0.917949 0.335898 0.337449
O O13 0.250000 0.750000 0.280510
O O14 0.211275 0.925113 0.324990
O O15 0.811141 0.076866 0.500000
O O16 0.931333 0.338205 0.156184
O O17 0.926959 0.254285 0.000000
O O18 0.092660 0.500000 0.750000
O O19 0.000000 0.583589 0.750000
#
# Coordination Sequence:
#
# PCOD8276820 Si02
#       7
#    16  16  16  16  16  16  16
#     4   9  18  34  62  95 131 175 220 270 342 419
#     4  11  26  42  65 102 149 197 243 286 342 431
#     4  10  20  38  67  97 132 174 224 285 352 413
#     4   9  17  33  63  94 132 171 223 280 344 405
#     4  10  21  38  63  99 139 179 223 276 338 412
#     4  11  24  44  71 100 139 185 232 291 359 426
#     4  11  26  46  68  94 128 171 230 294 358 422
#
# _framework density 22.465091999999999
#
# number of rings (size 3 to 8) (size 9 to 14) (size 15 to 20)
#    0.000    1.857    1.429    1.714    8.000    4.000 
#    0.000    3.571    0.000    3.429    0.000    0.000 
#    0.000    0.000    0.000    0.000    0.000    0.000 
#
# Total GULP energy -693747.919788 kJ/mol
# GULP energy per Si atom -12388.355711 kJ/mol
# Density = 2.241396 g / cm^3
# Si number density = 22.465092 Si / 1000 Ang^3
#
#
#
# Elastic Constant Matrix: (Units=GPa)
#
#
# Indices 1 2 3 4 5 6 
#
# 1 114.3229 44.5140 46.7076 0.0000 0.0000 0.0000
# 2 44.5140 97.1106 51.7367 0.0000 0.0000 0.0000
# 3 46.7076 51.7367 184.7460 0.0000 0.0000 0.0000
# 4 0.0000 0.0000 0.0000 2.6930 0.0000 0.0000
# 5 0.0000 0.0000 0.0000 0.0000 37.3376 0.0000
# 6 0.0000 0.0000 0.0000 0.0000 0.0000 26.6616
#
#
#
# Elastic Compliance Matrix: (Units=1/GPa)
#
#
# Indices 1 2 3 4 5 6 
#
# 1 0.011043 -0.004201 -0.001615 0.000000 0.000000 0.000000
# 2 -0.004201 0.013702 -0.002775 0.000000 0.000000 0.000000
# 3 -0.001615 -0.002775 0.006598 0.000000 0.000000 0.000000
# 4 0.000000 0.000000 0.000000 0.371327 0.000000 0.000000
# 5 0.000000 0.000000 0.000000 0.000000 0.026783 0.000000
# 6 0.000000 0.000000 0.000000 0.000000 0.000000 0.037507
#
#
# Mechanical properties :
#
#
# Convention : Reuss Voigt Hill
#
# Bulk Modulus (GPa) = 70.62201 75.78848 73.20524
# Shear Modulus (GPa) = 10.22781 30.21986 20.22384
#
# Velocity S-wave (km/s) = 2.13603 3.67166 3.00364
# Velocity P-wave (km/s) = 6.13091 7.19612 6.68477
#
# Compressibility (1/GPa) = 0.01415989
#
# Stress axis : x y z
#
# Youngs Moduli (GPa) = 90.55516 72.98360 151.55394
#
# Poissons Ratio (x) = 0.30663 0.24481
# Poissons Ratio (y) = 0.38045 0.42054
# Poissons Ratio (z) = 0.14628 0.20252
#
# Static dielectric constant tensor:
#      x y z
#    x 4.344380 0.000000 0.000000 
#    y 0.000000 3.799380 0.000000 
#    z 0.000000 0.000000 8.986190 
# 
# 
# High freq. dielectric constant tensor:
#      x y z
#    x 1.891240 0.000000 0.000000 
#    y 0.000000 1.863630 0.000000 
#    z 0.000000 0.000000 1.901940 
# 
# From -- ./inp_files/32457.got.cif
#   From: 2010.03.12/outbox.cif.g09.slc.cpg/sg66_17_cif.got.tgz:32457.got - 2010.04.10 21:57:39.
