data_PCOD8276987
_publ_section_title
;
Structure prediction by ZEFSAII (Michael W. Deem and Ramdas Pophale) SiO2 
 PCOD8276987
Probable space group: C C C M
;
_chemical_formula_sum "Si O2"
_cell_formula_units_Z 60
_cell_length_a 25.730924
_cell_length_b 5.016325
_cell_length_c 25.602509
_cell_angle_alpha 90.000000
_cell_angle_beta 90.000000
_cell_angle_gamma 90.000000
_cell_volume 3304.635588
_symmetry_space_group_name_H-M "C C C M"
_symmetry_group_IT_number 66
_symmetry_cell_setting 'orthorhombic'
loop_
_space_group_symop_operation_xyz
x,y,z
-x,-y,z
x,-y,1/2-z
-x,y,1/2-z
-x,-y,-z
x,y,-z
-x,y,1/2+z
x,-y,1/2+z
1/2+x,1/2+y,z
1/2-x,1/2-y,z
1/2+x,1/2-y,1/2-z
1/2-x,1/2+y,1/2-z
1/2-x,1/2-y,-z
1/2+x,1/2+y,-z
1/2-x,1/2+y,1/2+z
1/2+x,1/2-y,1/2+z
loop_
_atom_site_type_symbol
_atom_site_label
_atom_site_fract_x
_atom_site_fract_y
_atom_site_fract_z
Si Si1 0.000000 0.500000 0.750000
Si Si2 0.648442 0.366739 0.650699
Si Si3 0.750000 0.250000 0.285365
Si Si4 0.285062 0.491265 0.441136
Si Si5 0.900703 0.614883 0.697114
O O1 0.037989 0.336129 0.710566
O O2 0.702552 0.300603 0.676781
O O3 0.662006 0.462788 0.591988
O O4 0.621050 0.600458 0.682501
O O5 0.610621 0.106524 0.651873
O O6 0.763075 0.500000 0.250000
O O7 0.303083 0.420554 0.500000
O O8 0.250000 0.250000 0.417922
O O9 0.250000 0.750000 0.440419
O O10 0.873005 0.500000 0.750000
#
# Coordination Sequence:
#
# PCOD8276987 Si02
#       5
#     4  16   8  16  16
#     4   8  24  42  56  78 110 146 188 242 272 328
#     4  12  21  35  54  81 107 151 180 218 269 328
#     4  12  24  32  47  78 123 152 170 210 264 330
#     4  10  21  37  54  76 111 151 189 222 260 317
#     4  10  22  37  56  77 109 140 188 221 273 328
#
# _framework density 18.156313999999998
#
# number of rings (size 3 to 8) (size 9 to 14) (size 15 to 20)
#    0.800    0.533    1.333    6.400    1.867    2.133 
#    0.000    0.000    0.000    0.000    0.000    5.600 
#    0.000    0.000    0.000    0.000    0.000    0.000 
#
# Total GULP energy -371786.056542 kJ/mol
# GULP energy per Si atom -12392.868551 kJ/mol
# Density = 1.811499 g / cm^3
# Si number density = 18.156314 Si / 1000 Ang^3
#
#
#
# Elastic Constant Matrix: (Units=GPa)
#
#
# Indices 1 2 3 4 5 6 
#
# 1 107.7618 38.0409 39.9086 0.0000 0.0000 0.0000
# 2 38.0409 109.6241 10.9491 0.0000 0.0000 0.0000
# 3 39.9086 10.9491 71.4589 0.0000 0.0000 0.0000
# 4 0.0000 0.0000 0.0000 30.0115 0.0000 0.0000
# 5 0.0000 0.0000 0.0000 0.0000 13.7297 0.0000
# 6 0.0000 0.0000 0.0000 0.0000 0.0000 13.6625
#
#
#
# Elastic Compliance Matrix: (Units=1/GPa)
#
#
# Indices 1 2 3 4 5 6 
#
# 1 0.013153 -0.003890 -0.006749 0.000000 0.000000 0.000000
# 2 -0.003890 0.010414 0.000577 0.000000 0.000000 0.000000
# 3 -0.006749 0.000577 0.017675 0.000000 0.000000 0.000000
# 4 0.000000 0.000000 0.000000 0.033321 0.000000 0.000000
# 5 0.000000 0.000000 0.000000 0.000000 0.072835 0.000000
# 6 0.000000 0.000000 0.000000 0.000000 0.000000 0.073193
#
#
# Mechanical properties :
#
#
# Convention : Reuss Voigt Hill
#
# Bulk Modulus (GPa) = 47.35584 51.84914 49.60249
# Shear Modulus (GPa) = 20.18130 24.81051 22.49590
#
# Velocity S-wave (km/s) = 3.33758 3.70062 3.52378
# Velocity P-wave (km/s) = 6.40246 6.84679 6.62835
#
# Compressibility (1/GPa) = 0.02111672
#
# Stress axis : x y z
#
# Youngs Moduli (GPa) = 76.03113 96.02146 56.57670
#
# Poissons Ratio (x) = 0.37352 0.38186
# Poissons Ratio (y) = 0.29576 -0.03263
# Poissons Ratio (z) = 0.51317 -0.05538
#
# Static dielectric constant tensor:
#      x y z
#    x 3.550510 0.000000 0.000000 
#    y 0.000000 3.353860 0.000000 
#    z 0.000000 0.000000 3.607840 
# 
# 
# High freq. dielectric constant tensor:
#      x y z
#    x 1.677050 0.000000 0.000000 
#    y 0.000000 1.720400 0.000000 
#    z 0.000000 0.000000 1.685850 
# 
# From -- ./inp_files/65922.got.cif
#   From: 2010.03.12/outbox.cif.g09.slc.cpg/sg66_33_cif.got.tgz:65922.got - 2010.04.10 21:57:39.
