data_PCOD8276207
_publ_section_title
;
Structure prediction by ZEFSAII (Michael W. Deem and Ramdas Pophale) SiO2 
 PCOD8276207
Probable space group: C C C M
;
_chemical_formula_sum "Si O2"
_cell_formula_units_Z 96
_cell_length_a 16.359205
_cell_length_b 10.990895
_cell_length_c 26.343391
_cell_angle_alpha 90.000000
_cell_angle_beta 90.000000
_cell_angle_gamma 90.000000
_cell_volume 4736.602409
_symmetry_space_group_name_H-M "C C C M"
_symmetry_group_IT_number 66
_symmetry_cell_setting 'orthorhombic'
loop_
_space_group_symop_operation_xyz
x,y,z
-x,-y,z
x,-y,1/2-z
-x,y,1/2-z
-x,-y,-z
x,y,-z
-x,y,1/2+z
x,-y,1/2+z
1/2+x,1/2+y,z
1/2-x,1/2-y,z
1/2+x,1/2-y,1/2-z
1/2-x,1/2+y,1/2-z
1/2-x,1/2-y,-z
1/2+x,1/2+y,-z
1/2-x,1/2+y,1/2+z
1/2+x,1/2-y,1/2+z
loop_
_atom_site_type_symbol
_atom_site_label
_atom_site_fract_x
_atom_site_fract_y
_atom_site_fract_z
Si Si1 0.884092 0.797021 0.500000
Si Si2 0.064623 0.751480 0.105753
Si Si3 0.358371 0.437098 0.327423
Si Si4 0.727956 0.061962 0.000000
Si Si5 0.939667 0.394003 0.666548
Si Si6 0.307230 0.957326 0.111197
Si Si7 0.587672 0.337741 0.728549
O O1 0.944428 0.796009 0.451942
O O2 0.825473 0.914738 0.500000
O O3 0.824287 0.683437 0.500000
O O4 0.070339 0.868507 0.141760
O O5 0.146275 0.670911 0.111377
O O6 0.985178 0.675490 0.121032
O O7 0.277300 0.434308 0.360646
O O8 0.386460 0.576259 0.318301
O O9 0.347538 0.362623 0.274211
O O10 0.706111 0.993491 0.053097
O O11 0.856491 0.443333 0.642981
O O12 0.914540 0.303667 0.712238
O O13 0.000000 0.500000 0.687747
O O14 0.500000 0.378723 0.750000
#
# Coordination Sequence:
#
# PCOD8276207 Si02
#       7
#     8  16  16   8  16  16  16
#     4   9  16  29  59  94 116 159 206 249 309 369
#     4  10  19  36  63  89 123 157 205 257 304 374
#     4  11  21  38  62  85 118 159 208 253 299 371
#     4   9  16  31  61  86 128 161 196 255 320 372
#     4  10  23  42  61  87 124 160 200 262 315 368
#     4  10  21  38  58  97 125 161 203 257 316 371
#     4  11  24  43  62  83 114 166 208 248 315 370
#
# _framework density 20.267692
#
# number of rings (size 3 to 8) (size 9 to 14) (size 15 to 20)
#    0.000    1.833    3.333    1.500    0.000    1.667 
#   12.000    3.333    0.000    6.000    0.000    0.000 
#    0.000    0.000    0.000    0.000    0.000    0.000 
#
# Total GULP energy -595008.770489 kJ/mol
# GULP energy per Si atom -12396.016052 kJ/mol
# Density = 2.022156 g / cm^3
# Si number density = 20.267692 Si / 1000 Ang^3
#
#
#
# Elastic Constant Matrix: (Units=GPa)
#
#
# Indices 1 2 3 4 5 6 
#
# 1 40.7333 13.2823 16.6899 0.0000 0.0000 0.0000
# 2 13.2823 96.2778 51.3022 0.0000 0.0000 0.0000
# 3 16.6899 51.3022 121.9495 0.0000 0.0000 0.0000
# 4 0.0000 0.0000 0.0000 24.5651 0.0000 0.0000
# 5 0.0000 0.0000 0.0000 0.0000 27.0751 0.0000
# 6 0.0000 0.0000 0.0000 0.0000 0.0000 23.1137
#
#
#
# Elastic Compliance Matrix: (Units=1/GPa)
#
#
# Indices 1 2 3 4 5 6 
#
# 1 0.026368 -0.002210 -0.002679 0.000000 0.000000 0.000000
# 2 -0.002210 0.013573 -0.005407 0.000000 0.000000 0.000000
# 3 -0.002679 -0.005407 0.010842 0.000000 0.000000 0.000000
# 4 0.000000 0.000000 0.000000 0.040708 0.000000 0.000000
# 5 0.000000 0.000000 0.000000 0.000000 0.036934 0.000000
# 6 0.000000 0.000000 0.000000 0.000000 0.000000 0.043264
#
#
# Mechanical properties :
#
#
# Convention : Reuss Voigt Hill
#
# Bulk Modulus (GPa) = 33.12395 46.83438 39.97917
# Shear Modulus (GPa) = 24.71016 26.79654 25.75335
#
# Velocity S-wave (km/s) = 3.49548 3.64006 3.56850
# Velocity P-wave (km/s) = 5.71576 6.38942 6.06196
#
# Compressibility (1/GPa) = 0.03018963
#
# Stress axis : x y z
#
# Youngs Moduli (GPa) = 37.92428 73.67622 92.23760
#
# Poissons Ratio (x) = 0.16284 0.24710
# Poissons Ratio (y) = 0.08382 0.49877
# Poissons Ratio (z) = 0.10160 0.39840
#
# Static dielectric constant tensor:
#      x y z
#    x 3.471400 0.000000 0.000000 
#    y 0.000000 3.561200 0.000000 
#    z 0.000000 0.000000 4.026440 
# 
# 
# High freq. dielectric constant tensor:
#      x y z
#    x 1.773860 0.000000 0.000000 
#    y 0.000000 1.771590 0.000000 
#    z 0.000000 0.000000 1.802860 
# 
# From -- ./inp_files/58818.got.cif
#   From: 2010.03.12/outbox.cif.g09.slc.cpg/sg66_30_cif.got.tgz:58818.got - 2010.04.10 21:57:39.
