data_PCOD8276074
_publ_section_title
;
Structure prediction by ZEFSAII (Michael W. Deem and Ramdas Pophale) SiO2 
 PCOD8276074
Probable space group: C C C M
;
_chemical_formula_sum "Si O2"
_cell_formula_units_Z 96
_cell_length_a 20.399383
_cell_length_b 27.768816
_cell_length_c 8.589202
_cell_angle_alpha 90.000000
_cell_angle_beta 90.000000
_cell_angle_gamma 90.000000
_cell_volume 4865.497025
_symmetry_space_group_name_H-M "C C C M"
_symmetry_group_IT_number 66
_symmetry_cell_setting 'orthorhombic'
loop_
_space_group_symop_operation_xyz
x,y,z
-x,-y,z
x,-y,1/2-z
-x,y,1/2-z
-x,-y,-z
x,y,-z
-x,y,1/2+z
x,-y,1/2+z
1/2+x,1/2+y,z
1/2-x,1/2-y,z
1/2+x,1/2-y,1/2-z
1/2-x,1/2+y,1/2-z
1/2-x,1/2-y,-z
1/2+x,1/2+y,-z
1/2-x,1/2+y,1/2+z
1/2+x,1/2-y,1/2+z
loop_
_atom_site_type_symbol
_atom_site_label
_atom_site_fract_x
_atom_site_fract_y
_atom_site_fract_z
Si Si1 0.301541 0.552675 0.682364
Si Si2 0.069627 0.788227 0.815747
Si Si3 0.314843 0.113200 0.316068
Si Si4 0.569619 0.051690 0.316669
Si Si5 0.313143 0.777200 0.815036
Si Si6 0.068515 0.108470 0.181526
O O1 0.291077 0.500000 0.750000
O O2 0.285179 0.552766 0.500000
O O3 0.253061 0.588644 0.769610
O O4 0.375769 0.569206 0.716132
O O5 0.122534 0.750124 0.752343
O O6 0.089139 0.841401 0.759682
O O7 0.000000 0.771600 0.750000
O O8 0.066908 0.788675 0.000000
O O9 0.325320 0.109094 0.500000
O O10 0.375638 0.089645 0.228951
O O11 0.312702 0.168042 0.256967
O O12 0.500000 0.069096 0.250000
O O13 0.563775 0.047311 0.500000
O O14 0.590242 0.000000 0.250000
O O15 0.250000 0.750000 0.745370
O O16 0.311208 0.775492 0.000000
O O17 0.000000 0.088716 0.250000
O O18 0.059103 0.118008 0.000000
#
# Coordination Sequence:
#
# PCOD8276074 Si02
#       6
#    16  16  16  16  16  16
#     4  11  24  40  58  83 113 147 188 233 281 334
#     4  10  19  34  57  83 112 146 184 225 273 329
#     4  11  22  38  60  85 115 150 188 232 282 333
#     4  11  22  39  61  86 116 149 189 232 280 335
#     4   9  19  35  56  82 110 144 187 231 275 327
#     4  10  21  37  58  84 114 147 186 230 279 334
#
# _framework density 19.730768000000001
#
# number of rings (size 3 to 8) (size 9 to 14) (size 15 to 20)
#    0.000    1.667    0.000    6.500    0.000    5.000 
#    0.000    6.667    0.000    6.000    0.000    0.000 
#    0.000    0.000    0.000    0.000    0.000    0.000 
#
# Total GULP energy -595393.417788 kJ/mol
# GULP energy per Si atom -12404.029537 kJ/mol
# Density = 1.968586 g / cm^3
# Si number density = 19.730768 Si / 1000 Ang^3
#
#
#
# Elastic Constant Matrix: (Units=GPa)
#
#
# Indices 1 2 3 4 5 6 
#
# 1 114.3195 53.1706 35.7725 0.0000 0.0000 0.0000
# 2 53.1706 94.7253 27.9199 0.0000 0.0000 0.0000
# 3 35.7725 27.9199 101.3376 0.0000 0.0000 0.0000
# 4 0.0000 0.0000 0.0000 17.8128 0.0000 0.0000
# 5 0.0000 0.0000 0.0000 0.0000 21.8349 0.0000
# 6 0.0000 0.0000 0.0000 0.0000 0.0000 42.7637
#
#
#
# Elastic Compliance Matrix: (Units=1/GPa)
#
#
# Indices 1 2 3 4 5 6 
#
# 1 0.012479 -0.006211 -0.002694 0.000000 0.000000 0.000000
# 2 -0.006211 0.014581 -0.001825 0.000000 0.000000 0.000000
# 3 -0.002694 -0.001825 0.011322 0.000000 0.000000 0.000000
# 4 0.000000 0.000000 0.000000 0.056140 0.000000 0.000000
# 5 0.000000 0.000000 0.000000 0.000000 0.045798 0.000000
# 6 0.000000 0.000000 0.000000 0.000000 0.000000 0.023384
#
#
# Mechanical properties :
#
#
# Convention : Reuss Voigt Hill
#
# Bulk Modulus (GPa) = 59.09240 60.45648 59.77444
# Shear Modulus (GPa) = 26.20496 29.38354 27.79425
#
# Velocity S-wave (km/s) = 3.64830 3.86323 3.75730
# Velocity P-wave (km/s) = 6.91095 7.11384 7.01313
#
# Compressibility (1/GPa) = 0.01692265
#
# Stress axis : x y z
#
# Youngs Moduli (GPa) = 80.13465 68.58332 88.32531
#
# Poissons Ratio (x) = 0.42594 0.23795
# Poissons Ratio (y) = 0.49768 0.16118
# Poissons Ratio (z) = 0.21588 0.12516
#
# Static dielectric constant tensor:
#      x y z
#    x 3.823970 0.000000 0.000000 
#    y 0.000000 3.612150 0.000000 
#    z 0.000000 0.000000 3.606730 
# 
# 
# High freq. dielectric constant tensor:
#      x y z
#    x 1.785660 0.000000 0.000000 
#    y 0.000000 1.770390 0.000000 
#    z 0.000000 0.000000 1.769530 
# 
# From -- ./inp_files/7997.got.cif
#   From: 2010.03.12/outbox.cif.g09.slc.cpg/sg66_4_cif.got.tgz:7997.got - 2010.04.10 21:57:39.
