data_PCOD8276714
_publ_section_title
;
Structure prediction by ZEFSAII (Michael W. Deem and Ramdas Pophale) SiO2 
 PCOD8276714
Probable space group: C C C M
;
_chemical_formula_sum "Si O2"
_cell_formula_units_Z 112
_cell_length_a 26.442221
_cell_length_b 12.776166
_cell_length_c 15.418417
_cell_angle_alpha 90.000000
_cell_angle_beta 90.000000
_cell_angle_gamma 90.000000
_cell_volume 5208.806974
_symmetry_space_group_name_H-M "C C C M"
_symmetry_group_IT_number 66
_symmetry_cell_setting 'orthorhombic'
loop_
_space_group_symop_operation_xyz
x,y,z
-x,-y,z
x,-y,1/2-z
-x,y,1/2-z
-x,-y,-z
x,y,-z
-x,y,1/2+z
x,-y,1/2+z
1/2+x,1/2+y,z
1/2-x,1/2-y,z
1/2+x,1/2-y,1/2-z
1/2-x,1/2+y,1/2-z
1/2-x,1/2-y,-z
1/2+x,1/2+y,-z
1/2-x,1/2+y,1/2+z
1/2+x,1/2-y,1/2+z
loop_
_atom_site_type_symbol
_atom_site_label
_atom_site_fract_x
_atom_site_fract_y
_atom_site_fract_z
Si Si1 0.684391 0.442843 0.338433
Si Si2 0.642869 0.862269 0.597994
Si Si3 0.808080 0.269733 0.259110
Si Si4 0.528201 0.102089 0.101625
Si Si5 0.421628 0.496165 0.149298
Si Si6 0.792394 0.434143 0.404427
Si Si7 0.502066 0.670312 0.399932
O O1 0.700433 0.500000 0.250000
O O2 0.669113 0.325190 0.313294
O O3 0.635231 0.488968 0.389388
O O4 0.731866 0.446227 0.402377
O O5 0.642603 0.813310 0.500000
O O6 0.659176 0.778973 0.670983
O O7 0.587705 0.908027 0.620393
O O8 0.683718 0.952758 0.604579
O O9 0.750000 0.250000 0.232922
O O10 0.813260 0.367346 0.324319
O O11 0.508174 0.213348 0.141938
O O12 0.500000 0.000000 0.143031
O O13 0.516854 0.103433 0.000000
O O14 0.412565 0.500000 0.250000
O O15 0.454110 0.391186 0.136197
O O16 0.447695 0.600652 0.113740
O O17 0.805994 0.386381 0.500000
O O18 0.493173 0.685524 0.500000
#
# Coordination Sequence:
#
# PCOD8276714 Si02
#       7
#    16  16  16  16  16  16  16
#     4  10  22  37  57  86 118 162 199 252 309 367
#     4  10  21  38  63  91 124 163 201 253 312 368
#     4  10  21  38  61  85 123 162 201 252 308 373
#     4   9  20  38  61  89 121 158 201 253 311 363
#     4  10  21  36  58  83 118 160 195 245 308 362
#     4  10  21  39  62  88 120 159 204 254 312 371
#     4  10  20  37  59  83 115 155 200 253 304 365
#
# _framework density 21.502046
#
# number of rings (size 3 to 8) (size 9 to 14) (size 15 to 20)
#    0.000    2.143    0.000    3.857    4.000    5.143 
#    0.000    2.143    0.000    0.000    0.000    0.000 
#    0.000    0.000    0.000    0.000    0.000    0.000 
#
# Total GULP energy -694059.032038 kJ/mol
# GULP energy per Si atom -12393.911286 kJ/mol
# Density = 2.145311 g / cm^3
# Si number density = 21.502046 Si / 1000 Ang^3
#
#
#
# Elastic Constant Matrix: (Units=GPa)
#
#
# Indices 1 2 3 4 5 6 
#
# 1 84.3169 45.3336 30.3352 0.0000 0.0000 0.0000
# 2 45.3336 116.8537 3.8983 0.0000 0.0000 0.0000
# 3 30.3352 3.8983 51.0954 0.0000 0.0000 0.0000
# 4 0.0000 0.0000 0.0000 23.6194 0.0000 0.0000
# 5 0.0000 0.0000 0.0000 0.0000 34.1674 0.0000
# 6 0.0000 0.0000 0.0000 0.0000 0.0000 23.0631
#
#
#
# Elastic Compliance Matrix: (Units=1/GPa)
#
#
# Indices 1 2 3 4 5 6 
#
# 1 0.019830 -0.007319 -0.011215 0.000000 0.000000 0.000000
# 2 -0.007319 0.011281 0.003485 0.000000 0.000000 0.000000
# 3 -0.011215 0.003485 0.025963 0.000000 0.000000 0.000000
# 4 0.000000 0.000000 0.000000 0.042338 0.000000 0.000000
# 5 0.000000 0.000000 0.000000 0.000000 0.029268 0.000000
# 6 0.000000 0.000000 0.000000 0.000000 0.000000 0.043359
#
#
# Mechanical properties :
#
#
# Convention : Reuss Voigt Hill
#
# Bulk Modulus (GPa) = 37.06957 45.71116 41.39037
# Shear Modulus (GPa) = 23.68221 27.68323 25.68272
#
# Velocity S-wave (km/s) = 3.32233 3.59203 3.45980
# Velocity P-wave (km/s) = 5.65637 6.20553 5.93731
#
# Compressibility (1/GPa) = 0.02697630
#
# Stress axis : x y z
#
# Youngs Moduli (GPa) = 50.42919 88.64591 38.51577
#
# Poissons Ratio (x) = 0.64879 0.43194
# Poissons Ratio (y) = 0.36909 -0.13421
# Poissons Ratio (z) = 0.56554 -0.30889
#
# Static dielectric constant tensor:
#      x y z
#    x 3.395680 0.000000 0.000000 
#    y 0.000000 4.603550 0.000000 
#    z 0.000000 0.000000 3.815670 
# 
# 
# High freq. dielectric constant tensor:
#      x y z
#    x 1.848220 0.000000 0.000000 
#    y 0.000000 1.843870 0.000000 
#    z 0.000000 0.000000 1.831710 
# 
# From -- ./inp_files/33849.got.cif
#   From: 2010.03.12/outbox.cif.g09.slc.cpg/sg66_17_cif.got.tgz:33849.got - 2010.04.10 21:57:39.
