data_PCOD8276340
_publ_section_title
;
Structure prediction by ZEFSAII (Michael W. Deem and Ramdas Pophale) SiO2 
 PCOD8276340
Probable space group: C C C M
;
_chemical_formula_sum "Si O2"
_cell_formula_units_Z 72
_cell_length_a 9.430099
_cell_length_b 15.779284
_cell_length_c 23.182011
_cell_angle_alpha 90.000000
_cell_angle_beta 90.000000
_cell_angle_gamma 90.000000
_cell_volume 3449.488111
_symmetry_space_group_name_H-M "C C C M"
_symmetry_group_IT_number 66
_symmetry_cell_setting 'orthorhombic'
loop_
_space_group_symop_operation_xyz
x,y,z
-x,-y,z
x,-y,1/2-z
-x,y,1/2-z
-x,-y,-z
x,y,-z
-x,y,1/2+z
x,-y,1/2+z
1/2+x,1/2+y,z
1/2-x,1/2-y,z
1/2+x,1/2-y,1/2-z
1/2-x,1/2+y,1/2-z
1/2-x,1/2-y,-z
1/2+x,1/2+y,-z
1/2-x,1/2+y,1/2+z
1/2+x,1/2-y,1/2+z
loop_
_atom_site_type_symbol
_atom_site_label
_atom_site_fract_x
_atom_site_fract_y
_atom_site_fract_z
Si Si1 0.153502 0.822126 0.238120
Si Si2 0.238109 0.500000 0.250000
Si Si3 0.674776 0.332509 0.896526
Si Si4 0.094210 0.918405 0.566418
Si Si5 0.660705 0.005756 0.878059
O O1 0.250000 0.750000 0.268024
O O2 0.169384 0.916481 0.264411
O O3 0.183001 0.824955 0.171252
O O4 0.000000 0.786877 0.250000
O O5 0.149035 0.516824 0.191655
O O6 0.750000 0.250000 0.925110
O O7 0.509790 0.339883 0.916730
O O8 0.768435 0.415100 0.911870
O O9 0.138335 0.910754 0.500000
O O10 0.240139 0.924510 0.604073
O O11 0.000000 0.000000 0.580409
O O12 0.500000 0.000000 0.901271
#
# Coordination Sequence:
#
# PCOD8276340 Si02
#       5
#    16   8  16  16  16
#     4  10  20  33  51  76 106 139 177 218 264 321
#     4  10  20  34  54  76 108 146 180 212 264 332
#     4   9  19  35  53  75 103 136 175 218 265 319
#     4   9  18  34  55  77 103 139 180 217 262 321
#     4  10  20  34  54  79 106 138 176 220 267 317
#
# _framework density 20.872661999999998
#
# number of rings (size 3 to 8) (size 9 to 14) (size 15 to 20)
#    0.000    2.444    0.000    2.000    0.000    9.778 
#    0.000    1.111    0.000    1.333    0.000    0.000 
#    0.000    0.000    0.000    0.000    0.000    0.000 
#
# Total GULP energy -446005.923747 kJ/mol
# GULP energy per Si atom -12389.053437 kJ/mol
# Density = 2.082515 g / cm^3
# Si number density = 20.872662 Si / 1000 Ang^3
#
#
#
# Elastic Constant Matrix: (Units=GPa)
#
#
# Indices 1 2 3 4 5 6 
#
# 1 183.4499 71.3757 20.0773 0.0000 0.0000 0.0000
# 2 71.3757 119.6776 13.6725 0.0000 0.0000 0.0000
# 3 20.0773 13.6725 44.2061 0.0000 0.0000 0.0000
# 4 0.0000 0.0000 0.0000 12.5820 0.0000 0.0000
# 5 0.0000 0.0000 0.0000 0.0000 17.2733 0.0000
# 6 0.0000 0.0000 0.0000 0.0000 0.0000 32.6244
#
#
#
# Elastic Compliance Matrix: (Units=1/GPa)
#
#
# Indices 1 2 3 4 5 6 
#
# 1 0.007270 -0.004104 -0.002033 0.000000 0.000000 0.000000
# 2 -0.004104 0.010978 -0.001532 0.000000 0.000000 0.000000
# 3 -0.002033 -0.001532 0.024018 0.000000 0.000000 0.000000
# 4 0.000000 0.000000 0.000000 0.079479 0.000000 0.000000
# 5 0.000000 0.000000 0.000000 0.000000 0.057893 0.000000
# 6 0.000000 0.000000 0.000000 0.000000 0.000000 0.030652
#
#
# Mechanical properties :
#
#
# Convention : Reuss Voigt Hill
#
# Bulk Modulus (GPa) = 37.13258 61.95384 49.54321
# Shear Modulus (GPa) = 21.31259 28.64312 24.97785
#
# Velocity S-wave (km/s) = 3.19890 3.70845 3.46306
# Velocity P-wave (km/s) = 5.61004 6.93419 6.30696
#
# Compressibility (1/GPa) = 0.02693053
#
# Stress axis : x y z
#
# Youngs Moduli (GPa) = 137.54777 91.08938 41.63498
#
# Poissons Ratio (x) = 0.37381 0.08463
# Poissons Ratio (y) = 0.56446 0.06377
# Poissons Ratio (z) = 0.27959 0.13952
#
# Static dielectric constant tensor:
#      x y z
#    x 3.584140 0.000000 0.000000 
#    y 0.000000 4.259990 0.000000 
#    z 0.000000 0.000000 3.415370 
# 
# 
# High freq. dielectric constant tensor:
#      x y z
#    x 1.812570 0.000000 0.000000 
#    y 0.000000 1.800050 0.000000 
#    z 0.000000 0.000000 1.795260 
# 
# From -- ./inp_files/55212.got.cif
#   From: 2010.03.12/outbox.cif.g09.slc.cpg/sg66_28_cif.got.tgz:55212.got - 2010.04.10 21:57:39.
