data_PCOD8276508
_publ_section_title
;
Structure prediction by ZEFSAII (Michael W. Deem and Ramdas Pophale) SiO2 
 PCOD8276508
Probable space group: C C C M
;
_chemical_formula_sum "Si O2"
_cell_formula_units_Z 112
_cell_length_a 24.314054
_cell_length_b 9.638041
_cell_length_c 23.683304
_cell_angle_alpha 90.000000
_cell_angle_beta 90.000000
_cell_angle_gamma 90.000000
_cell_volume 5549.941891
_symmetry_space_group_name_H-M "C C C M"
_symmetry_group_IT_number 66
_symmetry_cell_setting 'orthorhombic'
loop_
_space_group_symop_operation_xyz
x,y,z
-x,-y,z
x,-y,1/2-z
-x,y,1/2-z
-x,-y,-z
x,y,-z
-x,y,1/2+z
x,-y,1/2+z
1/2+x,1/2+y,z
1/2-x,1/2-y,z
1/2+x,1/2-y,1/2-z
1/2-x,1/2+y,1/2-z
1/2-x,1/2-y,-z
1/2+x,1/2+y,-z
1/2-x,1/2+y,1/2+z
1/2+x,1/2-y,1/2+z
loop_
_atom_site_type_symbol
_atom_site_label
_atom_site_fract_x
_atom_site_fract_y
_atom_site_fract_z
Si Si1 0.781451 0.876282 0.098629
Si Si2 0.900659 0.848496 0.144267
Si Si3 0.005045 0.163087 0.062737
Si Si4 0.906028 0.826967 0.357645
Si Si5 0.777156 0.611132 0.210017
Si Si6 0.400985 0.848279 0.743763
Si Si7 0.304226 0.670278 0.937145
O O1 0.750000 0.750000 0.065888
O O2 0.836534 0.820554 0.130372
O O3 0.737887 0.925856 0.145809
O O4 0.794192 0.004364 0.058174
O O5 0.935485 0.803490 0.089352
O O6 0.924757 0.756184 0.196053
O O7 0.909953 0.010950 0.159362
O O8 0.957277 0.219899 0.103693
O O9 0.001061 0.231166 0.000000
O O10 0.000000 0.000000 0.056117
O O11 0.903657 0.731340 0.302833
O O12 0.851368 0.795306 0.393059
O O13 0.748099 0.500000 0.250000
O O14 0.750000 0.750000 0.231107
O O15 0.841434 0.614837 0.220529
O O16 0.431414 0.000000 0.750000
O O17 0.250000 0.750000 0.916735
O O18 0.321437 0.719203 0.000000
#
# Coordination Sequence:
#
# PCOD8276508 Si02
#       7
#    16  16  16  16  16  16  16
#     4  10  20  35  55  82 119 153 189 240 284 352
#     4  10  20  37  59  90 120 146 200 238 293 345
#     4   9  19  39  66  90 112 147 197 251 297 344
#     4  10  22  37  64  86 116 153 192 251 290 350
#     4  10  21  31  52  80 115 157 190 230 278 352
#     4  11  23  36  55  86 120 159 191 232 294 352
#     4  10  23  37  56  85 118 154 196 243 293 347
#
# _framework density 20.180392000000001
#
# number of rings (size 3 to 8) (size 9 to 14) (size 15 to 20)
#    0.000    2.000    2.857    0.857    8.000    4.286 
#    0.000    3.571    0.000    2.571    0.000    0.000 
#    0.000    0.000    0.000    0.000    0.000    0.000 
#
# Total GULP energy -693937.999814 kJ/mol
# GULP energy per Si atom -12391.749997 kJ/mol
# Density = 2.013446 g / cm^3
# Si number density = 20.180392 Si / 1000 Ang^3
#
#
#
# Elastic Constant Matrix: (Units=GPa)
#
#
# Indices 1 2 3 4 5 6 
#
# 1 77.2455 14.1404 50.6560 0.0000 0.0000 0.0000
# 2 14.1404 79.0098 39.1834 0.0000 0.0000 0.0000
# 3 50.6560 39.1834 134.7347 0.0000 0.0000 0.0000
# 4 0.0000 0.0000 0.0000 24.7847 0.0000 0.0000
# 5 0.0000 0.0000 0.0000 0.0000 5.3872 0.0000
# 6 0.0000 0.0000 0.0000 0.0000 0.0000 17.8088
#
#
#
# Elastic Compliance Matrix: (Units=1/GPa)
#
#
# Indices 1 2 3 4 5 6 
#
# 1 0.017184 0.000150 -0.006504 0.000000 0.000000 0.000000
# 2 0.000150 0.014791 -0.004358 0.000000 0.000000 0.000000
# 3 -0.006504 -0.004358 0.011135 0.000000 0.000000 0.000000
# 4 0.000000 0.000000 0.000000 0.040348 0.000000 0.000000
# 5 0.000000 0.000000 0.000000 0.000000 0.185626 0.000000
# 6 0.000000 0.000000 0.000000 0.000000 0.000000 0.056152
#
#
# Mechanical properties :
#
#
# Convention : Reuss Voigt Hill
#
# Bulk Modulus (GPa) = 46.11376 55.43884 50.77630
# Shear Modulus (GPa) = 14.12880 22.06347 18.09613
#
# Velocity S-wave (km/s) = 2.64886 3.31011 2.99777
# Velocity P-wave (km/s) = 5.67941 6.49157 6.09902
#
# Compressibility (1/GPa) = 0.02168550
#
# Stress axis : x y z
#
# Youngs Moduli (GPa) = 58.19528 67.60858 89.80899
#
# Poissons Ratio (x) = -0.01016 0.58413
# Poissons Ratio (y) = -0.00875 0.39139
# Poissons Ratio (z) = 0.37851 0.29464
#
# Static dielectric constant tensor:
#      x y z
#    x 3.634970 0.000000 0.000000 
#    y 0.000000 3.658540 0.000000 
#    z 0.000000 0.000000 3.735380 
# 
# 
# High freq. dielectric constant tensor:
#      x y z
#    x 1.782190 0.000000 0.000000 
#    y 0.000000 1.775160 0.000000 
#    z 0.000000 0.000000 1.788430 
# 
# From -- ./inp_files/59889.got.cif
#   From: 2010.03.12/outbox.cif.g09.slc.cpg/sg66_30_cif.got.tgz:59889.got - 2010.04.10 21:57:39.
