data_PCOD8276047
_publ_section_title
;
Structure prediction by ZEFSAII (Michael W. Deem and Ramdas Pophale) SiO2 
 PCOD8276047
Probable space group: C C C M
;
_chemical_formula_sum "Si O2"
_cell_formula_units_Z 116
_cell_length_a 26.681634
_cell_length_b 26.354273
_cell_length_c 8.850126
_cell_angle_alpha 90.000000
_cell_angle_beta 90.000000
_cell_angle_gamma 90.000000
_cell_volume 6223.187939
_symmetry_space_group_name_H-M "C C C M"
_symmetry_group_IT_number 66
_symmetry_cell_setting 'orthorhombic'
loop_
_space_group_symop_operation_xyz
x,y,z
-x,-y,z
x,-y,1/2-z
-x,y,1/2-z
-x,-y,-z
x,y,-z
-x,y,1/2+z
x,-y,1/2+z
1/2+x,1/2+y,z
1/2-x,1/2-y,z
1/2+x,1/2-y,1/2-z
1/2-x,1/2+y,1/2-z
1/2-x,1/2-y,-z
1/2+x,1/2+y,-z
1/2-x,1/2+y,1/2+z
1/2+x,1/2-y,1/2+z
loop_
_atom_site_type_symbol
_atom_site_label
_atom_site_fract_x
_atom_site_fract_y
_atom_site_fract_z
Si Si1 0.154832 0.676742 0.829016
Si Si2 0.575699 0.582864 0.332382
Si Si3 0.000000 0.000000 0.750000
Si Si4 0.418850 0.682010 0.321328
Si Si5 0.186051 0.947548 0.178697
Si Si6 0.049448 0.714797 0.179405
Si Si7 0.817351 0.792440 0.673548
Si Si8 0.754464 0.637636 0.177659
O O1 0.097078 0.680313 0.773512
O O2 0.177905 0.732575 0.818607
O O3 0.186447 0.638589 0.723064
O O4 0.157457 0.656350 0.000000
O O5 0.582799 0.605326 0.500000
O O6 0.536269 0.536658 0.345496
O O7 0.555542 0.628326 0.224380
O O8 0.629184 0.563764 0.268297
O O9 0.418732 0.689003 0.500000
O O10 0.447938 0.728772 0.247261
O O11 0.362905 0.679219 0.255812
O O12 0.225027 0.906356 0.238041
O O13 0.203840 0.000000 0.250000
O O14 0.189787 0.951030 0.000000
O O15 0.000000 0.688500 0.250000
O O16 0.046320 0.719709 0.000000
O O17 0.814737 0.811158 0.500000
O O18 0.767624 0.808901 0.762998
O O19 0.748914 0.631238 0.000000
#
# Coordination Sequence:
#
# PCOD8276047 Si02
#       8
#    16  16   4  16  16  16  16  16
#     4   9  20  36  54  78 111 148 183 222 272 328
#     4  11  24  41  59  76 100 135 177 233 296 344
#     4  12  26  44  60  78  98 128 192 250 296 340
#     4  11  22  35  55  78 104 138 182 229 275 335
#     4  11  23  41  62  80 106 141 182 230 287 347
#     4  10  21  38  58  80 111 148 186 224 269 322
#     4  10  19  34  54  77 108 144 180 222 276 333
#     4  12  23  34  54  83 111 142 182 225 277 336
#
# _framework density 18.639965
#
# number of rings (size 3 to 8) (size 9 to 14) (size 15 to 20)
#    0.000    1.379    2.069    5.172    0.966    6.621 
#    0.000    0.000    0.000    0.000    0.000    0.000 
#    0.000    0.552    0.000    5.793    0.000    3.172 
#
# Total GULP energy -719135.432454 kJ/mol
# GULP energy per Si atom -12398.886766 kJ/mol
# Density = 1.859754 g / cm^3
# Si number density = 18.639965 Si / 1000 Ang^3
#
#
#
# Elastic Constant Matrix: (Units=GPa)
#
#
# Indices 1 2 3 4 5 6 
#
# 1 129.1262 40.4700 41.8546 0.0000 0.0000 0.0000
# 2 40.4700 46.1031 23.2256 0.0000 0.0000 0.0000
# 3 41.8546 23.2256 101.5155 0.0000 0.0000 0.0000
# 4 0.0000 0.0000 0.0000 24.0421 0.0000 0.0000
# 5 0.0000 0.0000 0.0000 0.0000 24.5422 0.0000
# 6 0.0000 0.0000 0.0000 0.0000 0.0000 27.7119
#
#
#
# Elastic Compliance Matrix: (Units=1/GPa)
#
#
# Indices 1 2 3 4 5 6 
#
# 1 0.011303 -0.008561 -0.002702 0.000000 0.000000 0.000000
# 2 -0.008561 0.031000 -0.003563 0.000000 0.000000 0.000000
# 3 -0.002702 -0.003563 0.011780 0.000000 0.000000 0.000000
# 4 0.000000 0.000000 0.000000 0.041594 0.000000 0.000000
# 5 0.000000 0.000000 0.000000 0.000000 0.040746 0.000000
# 6 0.000000 0.000000 0.000000 0.000000 0.000000 0.036086
#
#
# Mechanical properties :
#
#
# Convention : Reuss Voigt Hill
#
# Bulk Modulus (GPa) = 40.92946 54.20503 47.56725
# Shear Modulus (GPa) = 23.77510 26.67222 25.22366
#
# Velocity S-wave (km/s) = 3.57528 3.78685 3.68258
# Velocity P-wave (km/s) = 6.24892 6.94719 6.60729
#
# Compressibility (1/GPa) = 0.02443228
#
# Stress axis : x y z
#
# Youngs Moduli (GPa) = 88.47022 32.25756 84.89177
#
# Poissons Ratio (x) = 0.27616 0.22934
# Poissons Ratio (y) = 0.75741 0.30245
# Poissons Ratio (z) = 0.23901 0.11493
#
# Static dielectric constant tensor:
#      x y z
#    x 4.028350 0.000000 0.000000 
#    y 0.000000 3.348390 0.000000 
#    z 0.000000 0.000000 3.420120 
# 
# 
# High freq. dielectric constant tensor:
#      x y z
#    x 1.726030 0.000000 0.000000 
#    y 0.000000 1.682060 0.000000 
#    z 0.000000 0.000000 1.729970 
# 
# From -- ./inp_files/10917.got.cif
#   From: 2010.03.12/outbox.cif.g09.slc.cpg/sg66_6_cif.got.tgz:10917.got - 2010.04.10 21:57:39.
