data_PCOD8276975
_publ_section_title
;
Structure prediction by ZEFSAII (Michael W. Deem and Ramdas Pophale) SiO2 
 PCOD8276975
Probable space group: C C C M
;
_chemical_formula_sum "Si O2"
_cell_formula_units_Z 68
_cell_length_a 26.521295
_cell_length_b 9.129469
_cell_length_c 13.541003
_cell_angle_alpha 90.000000
_cell_angle_beta 90.000000
_cell_angle_gamma 90.000000
_cell_volume 3278.619963
_symmetry_space_group_name_H-M "C C C M"
_symmetry_group_IT_number 66
_symmetry_cell_setting 'orthorhombic'
loop_
_space_group_symop_operation_xyz
x,y,z
-x,-y,z
x,-y,1/2-z
-x,y,1/2-z
-x,-y,-z
x,y,-z
-x,y,1/2+z
x,-y,1/2+z
1/2+x,1/2+y,z
1/2-x,1/2-y,z
1/2+x,1/2-y,1/2-z
1/2-x,1/2+y,1/2-z
1/2-x,1/2-y,-z
1/2+x,1/2+y,-z
1/2-x,1/2+y,1/2+z
1/2+x,1/2-y,1/2+z
loop_
_atom_site_type_symbol
_atom_site_label
_atom_site_fract_x
_atom_site_fract_y
_atom_site_fract_z
Si Si1 0.356393 0.145971 0.274922
Si Si2 0.000000 0.000000 0.250000
Si Si3 0.582559 0.382563 0.113589
Si Si4 0.261130 0.920819 0.110164
Si Si5 0.832876 0.117269 0.614132
O O1 0.385331 0.242320 0.354706
O O2 0.309721 0.058752 0.323915
O O3 0.337287 0.238854 0.180858
O O4 0.390190 0.000000 0.250000
O O5 0.033020 0.105553 0.319369
O O6 0.615612 0.527724 0.128636
O O7 0.566517 0.362599 0.000000
O O8 0.250000 0.750000 0.111509
O O9 0.213731 0.016195 0.150422
O O10 0.272654 0.975214 0.000000
O O11 0.826189 0.163978 0.500000
#
# Coordination Sequence:
#
# PCOD8276975 Si02
#       5
#    16   4  16  16  16
#     4  12  25  38  64  95 137 178 215 260 325 389
#     4  12  22  44  78 102 116 160 224 272 344 380
#     4  11  23  43  70  98 127 162 217 278 327 386
#     4  10  21  36  60  91 126 171 219 265 321 379
#     4  10  22  41  63  92 130 172 221 270 318 386
#
# _framework density 20.740434
#
# number of rings (size 3 to 8) (size 9 to 14) (size 15 to 20)
#    0.000    1.176    4.706    1.059    3.294    1.882 
#    0.000    2.941    0.000    1.412    0.000    0.000 
#    0.000    0.000    0.000    0.000    0.000    0.000 
#
# Total GULP energy -421487.378468 kJ/mol
# GULP energy per Si atom -12396.687602 kJ/mol
# Density = 2.069323 g / cm^3
# Si number density = 20.740434 Si / 1000 Ang^3
#
#
#
# Elastic Constant Matrix: (Units=GPa)
#
#
# Indices 1 2 3 4 5 6 
#
# 1 101.5565 37.4110 60.7465 0.0000 0.0000 0.0000
# 2 37.4110 134.6746 67.9276 0.0000 0.0000 0.0000
# 3 60.7465 67.9276 140.2747 0.0000 0.0000 0.0000
# 4 0.0000 0.0000 0.0000 22.9861 0.0000 0.0000
# 5 0.0000 0.0000 0.0000 0.0000 46.8807 0.0000
# 6 0.0000 0.0000 0.0000 0.0000 0.0000 -0.4981
#
#
#
# Elastic Compliance Matrix: (Units=1/GPa)
#
#
# Indices 1 2 3 4 5 6 
#
# 1 0.013401 -0.001053 -0.005294 0.000000 0.000000 0.000000
# 2 -0.001053 0.009908 -0.004342 0.000000 0.000000 0.000000
# 3 -0.005294 -0.004342 0.011524 0.000000 0.000000 0.000000
# 4 0.000000 0.000000 0.000000 0.043505 0.000000 0.000000
# 5 0.000000 0.000000 0.000000 0.000000 0.021331 0.000000
# 6 0.000000 0.000000 0.000000 0.000000 0.000000 -2.007818
#
#
# Mechanical properties :
#
#
# Convention : Reuss Voigt Hill
#
# Bulk Modulus (GPa) = 74.31537 78.74178 76.52858
# Shear Modulus (GPa) = -2.65634 27.90180 12.62273
#
# Velocity S-wave (km/s) = -1.13293 3.67179 2.46967
# Velocity P-wave (km/s) = 5.84787 7.48491 6.71645
#
# Compressibility (1/GPa) = 0.01345617
#
# Stress axis : x y z
#
# Youngs Moduli (GPa) = 74.62206 100.93152 86.77662
#
# Poissons Ratio (x) = 0.10624 0.45936
# Poissons Ratio (y) = 0.07855 0.37678
# Poissons Ratio (z) = 0.39502 0.43824
#
# Static dielectric constant tensor:
#      x y z
#    x 3.616220 0.000000 0.000000 
#    y 0.000000 3.867450 0.000000 
#    z 0.000000 0.000000 4.102210 
# 
# 
# High freq. dielectric constant tensor:
#      x y z
#    x 1.780020 0.000000 0.000000 
#    y 0.000000 1.814220 0.000000 
#    z 0.000000 0.000000 1.841620 
# 
# From -- ./inp_files/32942.got.cif
#   From: 2010.03.12/outbox.cif.g09.slc.cpg/sg66_17_cif.got.tgz:32942.got - 2010.04.10 21:57:39.
