data_PCOD8276971
_publ_section_title
;
Structure prediction by ZEFSAII (Michael W. Deem and Ramdas Pophale) SiO2 
 PCOD8276971
Probable space group: C C C M
;
_chemical_formula_sum "Si O2"
_cell_formula_units_Z 112
_cell_length_a 14.706479
_cell_length_b 24.118214
_cell_length_c 14.080742
_cell_angle_alpha 90.000000
_cell_angle_beta 90.000000
_cell_angle_gamma 90.000000
_cell_volume 4994.354811
_symmetry_space_group_name_H-M "C C C M"
_symmetry_group_IT_number 66
_symmetry_cell_setting 'orthorhombic'
loop_
_space_group_symop_operation_xyz
x,y,z
-x,-y,z
x,-y,1/2-z
-x,y,1/2-z
-x,-y,-z
x,y,-z
-x,y,1/2+z
x,-y,1/2+z
1/2+x,1/2+y,z
1/2-x,1/2-y,z
1/2+x,1/2-y,1/2-z
1/2-x,1/2+y,1/2-z
1/2-x,1/2-y,-z
1/2+x,1/2+y,-z
1/2-x,1/2+y,1/2+z
1/2+x,1/2-y,1/2+z
loop_
_atom_site_type_symbol
_atom_site_label
_atom_site_fract_x
_atom_site_fract_y
_atom_site_fract_z
Si Si1 0.758230 0.031188 0.846259
Si Si2 0.676144 0.816884 0.108460
Si Si3 0.437467 0.952800 0.105266
Si Si4 0.329306 0.373435 0.230403
Si Si5 0.033040 0.333476 0.607899
Si Si6 0.849027 0.754994 0.719757
Si Si7 0.078461 0.039350 0.894836
O O1 0.666208 0.028553 0.905565
O O2 0.791311 0.093280 0.821309
O O3 0.737174 0.000000 0.750000
O O4 0.832598 0.998427 0.906099
O O5 0.746046 0.859242 0.159072
O O6 0.574778 0.840531 0.109475
O O7 0.668145 0.760898 0.169840
O O8 0.707840 0.804857 0.000000
O O9 0.435675 0.892040 0.154830
O O10 0.500000 0.000000 0.157092
O O11 0.479345 0.944130 0.000000
O O12 0.378499 0.319295 0.275239
O O13 0.405445 0.408783 0.174592
O O14 0.068476 0.324633 0.500000
O O15 0.073853 0.282792 0.670310
O O16 0.750000 0.750000 0.667162
O O17 0.051121 0.060896 0.000000
O O18 0.000000 0.000000 0.851365
#
# Coordination Sequence:
#
# PCOD8276971 Si02
#       7
#    16  16  16  16  16  16  16
#     4  10  22  38  56  89 124 159 205 262 317 385
#     4  10  21  38  62  92 125 165 214 271 325 384
#     4  10  21  36  58  89 126 167 209 252 310 382
#     4  10  22  39  65  91 122 169 214 263 327 398
#     4  10  22  40  61  90 132 171 212 267 326 391
#     4  10  21  39  62  90 123 168 217 270 331 388
#     4  10  22  42  65  90 123 164 211 271 334 391
#
# _framework density 22.425319999999999
#
# number of rings (size 3 to 8) (size 9 to 14) (size 15 to 20)
#    0.000    2.000    0.000    3.000    4.000    6.286 
#    5.143    1.429    0.000    0.000    0.000    0.000 
#    0.000    0.000    0.000    0.000    0.000    0.000 
#
# Total GULP energy -693935.483523 kJ/mol
# GULP energy per Si atom -12391.705063 kJ/mol
# Density = 2.237428 g / cm^3
# Si number density = 22.425320 Si / 1000 Ang^3
#
#
#
# Elastic Constant Matrix: (Units=GPa)
#
#
# Indices 1 2 3 4 5 6 
#
# 1 94.4307 51.3891 4.1110 0.0000 0.0000 0.0000
# 2 51.3891 179.5475 34.2593 0.0000 0.0000 0.0000
# 3 4.1110 34.2593 76.8863 0.0000 0.0000 0.0000
# 4 0.0000 0.0000 0.0000 -17.2260 0.0000 0.0000
# 5 0.0000 0.0000 0.0000 0.0000 27.8319 0.0000
# 6 0.0000 0.0000 0.0000 0.0000 0.0000 37.6907
#
#
#
# Elastic Compliance Matrix: (Units=1/GPa)
#
#
# Indices 1 2 3 4 5 6 
#
# 1 0.012616 -0.003806 0.001021 0.000000 0.000000 0.000000
# 2 -0.003806 0.007235 -0.003020 0.000000 0.000000 0.000000
# 3 0.001021 -0.003020 0.014297 0.000000 0.000000 0.000000
# 4 0.000000 0.000000 0.000000 -0.058052 0.000000 0.000000
# 5 0.000000 0.000000 0.000000 0.000000 0.035930 0.000000
# 6 0.000000 0.000000 0.000000 0.000000 0.000000 0.026532
#
#
# Mechanical properties :
#
#
# Convention : Reuss Voigt Hill
#
# Bulk Modulus (GPa) = 44.36737 58.93147 51.64942
# Shear Modulus (GPa) = 86.68190 27.06633 56.87412
#
# Velocity S-wave (km/s) = 6.22395 3.47789 5.04149
# Velocity P-wave (km/s) = 8.45443 6.51642 7.54789
#
# Compressibility (1/GPa) = 0.02253909
#
# Stress axis : x y z
#
# Youngs Moduli (GPa) = 79.26143 138.21376 69.94256
#
# Poissons Ratio (x) = 0.52603 -0.07143
# Poissons Ratio (y) = 0.30166 0.21125
# Poissons Ratio (z) = -0.08095 0.41746
#
# Static dielectric constant tensor:
#      x y z
#    x 4.113950 0.000000 0.000000 
#    y 0.000000 4.131400 0.000000 
#    z 0.000000 0.000000 3.982410 
# 
# 
# High freq. dielectric constant tensor:
#      x y z
#    x 1.886420 0.000000 0.000000 
#    y 0.000000 1.885300 0.000000 
#    z 0.000000 0.000000 1.870270 
# 
# From -- ./inp_files/28707.got.cif
#   From: 2010.03.12/outbox.cif.g09.slc.cpg/sg66_15_cif.got.tgz:28707.got - 2010.04.10 21:57:39.
