data_PCOD8276353
_publ_section_title
;
Structure prediction by ZEFSAII (Michael W. Deem and Ramdas Pophale) SiO2 
 PCOD8276353
Probable space group: C C C M
;
_chemical_formula_sum "Si O2"
_cell_formula_units_Z 80
_cell_length_a 11.759602
_cell_length_b 25.743104
_cell_length_c 13.698414
_cell_angle_alpha 90.000000
_cell_angle_beta 90.000000
_cell_angle_gamma 90.000000
_cell_volume 4146.902477
_symmetry_space_group_name_H-M "C C C M"
_symmetry_group_IT_number 66
_symmetry_cell_setting 'orthorhombic'
loop_
_space_group_symop_operation_xyz
x,y,z
-x,-y,z
x,-y,1/2-z
-x,y,1/2-z
-x,-y,-z
x,y,-z
-x,y,1/2+z
x,-y,1/2+z
1/2+x,1/2+y,z
1/2-x,1/2-y,z
1/2+x,1/2-y,1/2-z
1/2-x,1/2+y,1/2-z
1/2-x,1/2-y,-z
1/2+x,1/2+y,-z
1/2-x,1/2+y,1/2+z
1/2+x,1/2-y,1/2+z
loop_
_atom_site_type_symbol
_atom_site_label
_atom_site_fract_x
_atom_site_fract_y
_atom_site_fract_z
Si Si1 0.803438 0.912279 0.385287
Si Si2 0.868523 0.392301 0.272135
Si Si3 0.548709 0.384924 0.385737
Si Si4 0.229150 0.967770 0.614128
Si Si5 0.260301 0.691860 0.385256
O O1 0.788838 0.901386 0.500000
O O2 0.699466 0.885508 0.329608
O O3 0.921284 0.887851 0.341164
O O4 0.800229 0.973339 0.361065
O O5 0.838734 0.446571 0.326993
O O6 0.838260 0.343219 0.339264
O O7 0.000000 0.392111 0.250000
O O8 0.531443 0.392812 0.500000
O O9 0.624230 0.432910 0.347686
O O10 0.613681 0.331064 0.361400
O O11 0.253185 0.959538 0.500000
O O12 0.238052 0.691291 0.500000
O O13 0.250000 0.750000 0.342832
#
# Coordination Sequence:
#
# PCOD8276353 Si02
#       5
#    16  16  16  16  16
#     4  10  20  33  52  81 115 149 179 224 285 336
#     4  11  23  37  51  78 112 150 191 236 272 333
#     4   8  15  31  55  82 109 137 179 233 280 331
#     4   9  18  33  54  78 109 148 189 228 275 332
#     4   9  19  39  64  84 103 138 187 238 294 345
#
# _framework density 19.291509000000001
#
# number of rings (size 3 to 8) (size 9 to 14) (size 15 to 20)
#    0.000    2.600    0.000    3.000    0.000    8.800 
#    3.600    6.000    0.000    0.600    0.000    0.000 
#    0.000    0.000    0.000    0.000    0.000    0.000 
#
# Total GULP energy -495916.330216 kJ/mol
# GULP energy per Si atom -12397.908255 kJ/mol
# Density = 1.924760 g / cm^3
# Si number density = 19.291509 Si / 1000 Ang^3
#
#
#
# Elastic Constant Matrix: (Units=GPa)
#
#
# Indices 1 2 3 4 5 6 
#
# 1 184.7126 60.3728 53.6306 0.0000 0.0000 0.0000
# 2 60.3728 107.0901 40.2415 0.0000 0.0000 0.0000
# 3 53.6306 40.2415 46.0794 0.0000 0.0000 0.0000
# 4 0.0000 0.0000 0.0000 24.6282 0.0000 0.0000
# 5 0.0000 0.0000 0.0000 0.0000 26.9094 0.0000
# 6 0.0000 0.0000 0.0000 0.0000 0.0000 18.7030
#
#
#
# Elastic Compliance Matrix: (Units=1/GPa)
#
#
# Indices 1 2 3 4 5 6 
#
# 1 0.008351 -0.001571 -0.008347 0.000000 0.000000 0.000000
# 2 -0.001571 0.014195 -0.010568 0.000000 0.000000 0.000000
# 3 -0.008347 -0.010568 0.040646 0.000000 0.000000 0.000000
# 4 0.000000 0.000000 0.000000 0.040604 0.000000 0.000000
# 5 0.000000 0.000000 0.000000 0.000000 0.037162 0.000000
# 6 0.000000 0.000000 0.000000 0.000000 0.000000 0.053467
#
#
# Mechanical properties :
#
#
# Convention : Reuss Voigt Hill
#
# Bulk Modulus (GPa) = 45.00648 71.81909 58.41278
# Shear Modulus (GPa) = 20.59281 26.29061 23.44171
#
# Velocity S-wave (km/s) = 3.27074 3.69563 3.48965
# Velocity P-wave (km/s) = 6.13547 7.45113 6.82508
#
# Compressibility (1/GPa) = 0.02221902
#
# Stress axis : x y z
#
# Youngs Moduli (GPa) = 119.74647 70.44841 24.60280
#
# Poissons Ratio (x) = 0.11069 0.20537
# Poissons Ratio (y) = 0.18815 0.26000
# Poissons Ratio (z) = 0.99956 0.74448
#
# Static dielectric constant tensor:
#      x y z
#    x 3.503510 0.000000 0.000000 
#    y 0.000000 3.604480 0.000000 
#    z 0.000000 0.000000 3.629670 
# 
# 
# High freq. dielectric constant tensor:
#      x y z
#    x 1.736250 0.000000 0.000000 
#    y 0.000000 1.728940 0.000000 
#    z 0.000000 0.000000 1.765940 
# 
# From -- ./inp_files/26357.got.cif
#   From: 2010.03.12/outbox.cif.g09.slc.cpg/sg66_14_cif.got.tgz:26357.got - 2010.04.10 21:57:39.
