data_PCOD8276044
_publ_section_title
;
Structure prediction by ZEFSAII (Michael W. Deem and Ramdas Pophale) SiO2 
 PCOD8276044
Probable space group: C C C M
;
_chemical_formula_sum "Si O2"
_cell_formula_units_Z 96
_cell_length_a 32.557932
_cell_length_b 18.900151
_cell_length_c 8.758656
_cell_angle_alpha 90.000000
_cell_angle_beta 90.000000
_cell_angle_gamma 90.000000
_cell_volume 5389.637490
_symmetry_space_group_name_H-M "C C C M"
_symmetry_group_IT_number 66
_symmetry_cell_setting 'orthorhombic'
loop_
_space_group_symop_operation_xyz
x,y,z
-x,-y,z
x,-y,1/2-z
-x,y,1/2-z
-x,-y,-z
x,y,-z
-x,y,1/2+z
x,-y,1/2+z
1/2+x,1/2+y,z
1/2-x,1/2-y,z
1/2+x,1/2-y,1/2-z
1/2-x,1/2+y,1/2-z
1/2-x,1/2-y,-z
1/2+x,1/2+y,-z
1/2-x,1/2+y,1/2+z
1/2+x,1/2-y,1/2+z
loop_
_atom_site_type_symbol
_atom_site_label
_atom_site_fract_x
_atom_site_fract_y
_atom_site_fract_z
Si Si1 0.376825 0.711664 0.180683
Si Si2 0.330958 0.425854 0.681816
Si Si3 0.912082 0.574275 0.678429
Si Si4 0.756906 0.425999 0.680561
Si Si5 0.170175 0.348449 0.320603
Si Si6 0.043339 0.713292 0.181075
O O1 0.362886 0.634331 0.236949
O O2 0.344387 0.771043 0.235197
O O3 0.422622 0.730067 0.240302
O O4 0.377590 0.715553 0.000000
O O5 0.346694 0.500000 0.750000
O O6 0.328175 0.431232 0.500000
O O7 0.286631 0.405348 0.747141
O O8 0.924708 0.500000 0.750000
O O9 0.917128 0.566775 0.500000
O O10 0.865397 0.595087 0.719520
O O11 0.942998 0.635258 0.738201
O O12 0.772580 0.500000 0.750000
O O13 0.752277 0.433088 0.500000
O O14 0.789451 0.365897 0.723747
O O15 0.180619 0.349959 0.500000
O O16 0.000000 0.735467 0.250000
O O17 0.040408 0.714775 0.000000
#
# Coordination Sequence:
#
# PCOD8276044 Si02
#       6
#    16  16  16  16  16  16
#     4   8  17  34  55  73  95 127 161 193 238 295
#     4  10  19  34  54  74  95 125 160 197 239 289
#     4   9  18  30  46  67  96 129 165 202 235 271
#     4  11  21  32  46  69 100 133 166 204 241 279
#     4   9  17  32  50  69  94 130 170 205 237 278
#     4   9  18  34  52  73  96 123 157 195 236 284
#
# _framework density 17.811959000000002
#
# number of rings (size 3 to 8) (size 9 to 14) (size 15 to 20)
#    0.000    2.667    0.000    5.500    0.000    3.667 
#    0.000   10.833    0.000    0.500    0.000    3.500 
#    0.000    0.000    0.000    0.000    0.000    0.000 
#
# Total GULP energy -595066.639773 kJ/mol
# GULP energy per Si atom -12397.221662 kJ/mol
# Density = 1.777142 g / cm^3
# Si number density = 17.811959 Si / 1000 Ang^3
#
#
#
# Elastic Constant Matrix: (Units=GPa)
#
#
# Indices 1 2 3 4 5 6 
#
# 1 124.6671 90.8061 36.6966 0.0000 0.0000 0.0000
# 2 90.8061 132.0153 36.9330 0.0000 0.0000 0.0000
# 3 36.6966 36.9330 58.6684 0.0000 0.0000 0.0000
# 4 0.0000 0.0000 0.0000 21.8648 0.0000 0.0000
# 5 0.0000 0.0000 0.0000 0.0000 4.5309 0.0000
# 6 0.0000 0.0000 0.0000 0.0000 0.0000 20.5733
#
#
#
# Elastic Compliance Matrix: (Units=1/GPa)
#
#
# Indices 1 2 3 4 5 6 
#
# 1 0.016787 -0.010450 -0.003922 0.000000 0.000000 0.000000
# 2 -0.010450 0.015699 -0.003347 0.000000 0.000000 0.000000
# 3 -0.003922 -0.003347 0.021605 0.000000 0.000000 0.000000
# 4 0.000000 0.000000 0.000000 0.045736 0.000000 0.000000
# 5 0.000000 0.000000 0.000000 0.000000 0.220704 0.000000
# 6 0.000000 0.000000 0.000000 0.000000 0.000000 0.048607
#
#
# Mechanical properties :
#
#
# Convention : Reuss Voigt Hill
#
# Bulk Modulus (GPa) = 53.60650 71.58025 62.59338
# Shear Modulus (GPa) = 12.17158 19.45481 15.81320
#
# Velocity S-wave (km/s) = 2.61691 3.30848 2.98281
# Velocity P-wave (km/s) = 6.26834 7.40733 6.86151
#
# Compressibility (1/GPa) = 0.01865445
#
# Stress axis : x y z
#
# Youngs Moduli (GPa) = 59.56842 63.69818 46.28599
#
# Poissons Ratio (x) = 0.66564 0.18153
# Poissons Ratio (y) = 0.62249 0.15490
# Poissons Ratio (z) = 0.23362 0.21317
#
# Static dielectric constant tensor:
#      x y z
#    x 3.396800 0.000000 0.000000 
#    y 0.000000 3.630150 0.000000 
#    z 0.000000 0.000000 3.067420 
# 
# 
# High freq. dielectric constant tensor:
#      x y z
#    x 1.680960 0.000000 0.000000 
#    y 0.000000 1.682180 0.000000 
#    z 0.000000 0.000000 1.673730 
# 
# From -- ./inp_files/10268.got.cif
#   From: 2010.03.12/outbox.cif.g09.slc.cpg/sg66_6_cif.got.tgz:10268.got - 2010.04.10 21:57:39.
