data_PCOD8276096
_publ_section_title
;
Structure prediction by ZEFSAII (Michael W. Deem and Ramdas Pophale) SiO2 
 PCOD8276096
Probable space group: C C C M
;
_chemical_formula_sum "Si O2"
_cell_formula_units_Z 112
_cell_length_a 14.622528
_cell_length_b 13.320760
_cell_length_c 32.653266
_cell_angle_alpha 90.000000
_cell_angle_beta 90.000000
_cell_angle_gamma 90.000000
_cell_volume 6360.307187
_symmetry_space_group_name_H-M "C C C M"
_symmetry_group_IT_number 66
_symmetry_cell_setting 'orthorhombic'
loop_
_space_group_symop_operation_xyz
x,y,z
-x,-y,z
x,-y,1/2-z
-x,y,1/2-z
-x,-y,-z
x,y,-z
-x,y,1/2+z
x,-y,1/2+z
1/2+x,1/2+y,z
1/2-x,1/2-y,z
1/2+x,1/2-y,1/2-z
1/2-x,1/2+y,1/2-z
1/2-x,1/2-y,-z
1/2+x,1/2+y,-z
1/2-x,1/2+y,1/2+z
1/2+x,1/2-y,1/2+z
loop_
_atom_site_type_symbol
_atom_site_label
_atom_site_fract_x
_atom_site_fract_y
_atom_site_fract_z
Si Si1 0.932281 0.088478 0.592993
Si Si2 0.770148 0.014121 0.645483
Si Si3 0.145498 0.266810 0.952533
Si Si4 0.983677 0.233424 0.336138
Si Si5 0.322074 0.661773 0.716377
Si Si6 0.921521 0.579755 0.113154
Si Si7 0.672842 0.671190 0.306231
O O1 0.835069 0.046997 0.608299
O O2 0.912105 0.165244 0.555910
O O3 0.980903 0.147367 0.629576
O O4 0.000000 0.000000 0.577787
O O5 0.783430 0.078216 0.686239
O O6 0.665899 0.020384 0.630547
O O7 0.797602 0.901777 0.657276
O O8 0.250000 0.250000 0.938309
O O9 0.104509 0.360428 0.927893
O O10 0.139010 0.294220 0.000000
O O11 0.917421 0.205371 0.299293
O O12 0.957667 0.342577 0.353051
O O13 0.084749 0.235313 0.318500
O O14 0.250000 0.750000 0.716675
O O15 0.339999 0.616658 0.761960
O O16 0.000000 0.500000 0.102266
O O17 0.750000 0.750000 0.298758
#
# Coordination Sequence:
#
# PCOD8276096 Si02
#       7
#    16  16  16  16  16  16  16
#     4  10  19  34  59  84 109 147 181 228 280 327
#     4  11  20  36  54  82 108 145 192 235 271 345
#     4  10  21  38  62  91 117 146 188 229 278 347
#     4  10  20  35  53  80 107 144 196 229 273 342
#     4  10  20  34  55  72 106 147 189 239 289 320
#     4  11  22  37  62  85 113 154 186 232 289 338
#     4  11  22  34  50  76 110 148 184 238 290 331
#
# _framework density 17.609211999999999
#
# number of rings (size 3 to 8) (size 9 to 14) (size 15 to 20)
#    0.000    1.571    4.286    1.714    0.000    0.571 
#    0.000    1.429    0.000    0.000    0.000    1.000 
#    0.000    0.000    0.000    0.000    0.000    0.000 
#
# Total GULP energy -694370.413277 kJ/mol
# GULP energy per Si atom -12399.471666 kJ/mol
# Density = 1.756913 g / cm^3
# Si number density = 17.609212 Si / 1000 Ang^3
#
#
#
# Elastic Constant Matrix: (Units=GPa)
#
#
# Indices 1 2 3 4 5 6 
#
# 1 130.8252 37.9852 42.6771 0.0000 0.0000 0.0000
# 2 37.9852 67.9531 26.8611 0.0000 0.0000 0.0000
# 3 42.6771 26.8611 75.5173 0.0000 0.0000 0.0000
# 4 0.0000 0.0000 0.0000 19.7374 0.0000 0.0000
# 5 0.0000 0.0000 0.0000 0.0000 30.0083 0.0000
# 6 0.0000 0.0000 0.0000 0.0000 0.0000 32.6292
#
#
#
# Elastic Compliance Matrix: (Units=1/GPa)
#
#
# Indices 1 2 3 4 5 6 
#
# 1 0.010225 -0.003993 -0.004358 0.000000 0.000000 0.000000
# 2 -0.003993 0.018683 -0.004389 0.000000 0.000000 0.000000
# 3 -0.004358 -0.004389 0.017266 0.000000 0.000000 0.000000
# 4 0.000000 0.000000 0.000000 0.050665 0.000000 0.000000
# 5 0.000000 0.000000 0.000000 0.000000 0.033324 0.000000
# 6 0.000000 0.000000 0.000000 0.000000 0.000000 0.030647
#
#
# Mechanical properties :
#
#
# Convention : Reuss Voigt Hill
#
# Bulk Modulus (GPa) = 48.32333 54.37138 51.34735
# Shear Modulus (GPa) = 25.88149 27.59312 26.73730
#
# Velocity S-wave (km/s) = 3.83792 3.96279 3.90085
# Velocity P-wave (km/s) = 6.86594 7.20292 7.03645
#
# Compressibility (1/GPa) = 0.02069394
#
# Stress axis : x y z
#
# Youngs Moduli (GPa) = 97.80143 53.52487 57.91719
#
# Poissons Ratio (x) = 0.21372 0.25241
# Poissons Ratio (y) = 0.39051 0.25419
# Poissons Ratio (z) = 0.42623 0.23492
#
# Static dielectric constant tensor:
#      x y z
#    x 3.293440 0.000000 0.000000 
#    y 0.000000 2.936710 0.000000 
#    z 0.000000 0.000000 3.178600 
# 
# 
# High freq. dielectric constant tensor:
#      x y z
#    x 1.690670 0.000000 0.000000 
#    y 0.000000 1.677600 0.000000 
#    z 0.000000 0.000000 1.669640 
# 
# From -- ./inp_files/69555.got.cif
#   From: 2010.03.12/outbox.cif.g09.slc.cpg/sg66_35_cif.got.tgz:69555.got - 2010.04.10 21:57:39.
