data_PCOD8276303
_publ_section_title
;
Structure prediction by ZEFSAII (Michael W. Deem and Ramdas Pophale) SiO2 
 PCOD8276303
Probable space group: C C C M
;
_chemical_formula_sum "Si O2"
_cell_formula_units_Z 80
_cell_length_a 19.786052
_cell_length_b 25.637080
_cell_length_c 8.846802
_cell_angle_alpha 90.000000
_cell_angle_beta 90.000000
_cell_angle_gamma 90.000000
_cell_volume 4487.598686
_symmetry_space_group_name_H-M "C C C M"
_symmetry_group_IT_number 66
_symmetry_cell_setting 'orthorhombic'
loop_
_space_group_symop_operation_xyz
x,y,z
-x,-y,z
x,-y,1/2-z
-x,y,1/2-z
-x,-y,-z
x,y,-z
-x,y,1/2+z
x,-y,1/2+z
1/2+x,1/2+y,z
1/2-x,1/2-y,z
1/2+x,1/2-y,1/2-z
1/2-x,1/2+y,1/2-z
1/2-x,1/2-y,-z
1/2+x,1/2+y,-z
1/2-x,1/2+y,1/2+z
1/2+x,1/2-y,1/2+z
loop_
_atom_site_type_symbol
_atom_site_label
_atom_site_fract_x
_atom_site_fract_y
_atom_site_fract_z
Si Si1 0.071436 0.445425 0.820585
Si Si2 0.330068 0.246138 0.333273
Si Si3 0.428945 0.554783 0.820134
Si Si4 0.678084 0.857731 0.823333
Si Si5 0.822019 0.859016 0.321244
O O1 0.096151 0.500000 0.750000
O O2 0.125439 0.401872 0.774003
O O3 0.000000 0.428696 0.750000
O O4 0.064054 0.451220 0.000000
O O5 0.360843 0.235924 0.500000
O O6 0.250000 0.250000 0.343974
O O7 0.351963 0.198462 0.226607
O O8 0.353032 0.302816 0.268715
O O9 0.405719 0.500000 0.750000
O O10 0.500000 0.572515 0.750000
O O11 0.373697 0.596745 0.769336
O O12 0.435624 0.549913 0.000000
O O13 0.749483 0.871271 0.749161
O O14 0.689265 0.856328 0.000000
O O15 0.811680 0.857785 0.500000
#
# Coordination Sequence:
#
# PCOD8276303 Si02
#       5
#    16  16  16  16  16
#     4  10  21  36  53  73  98 130 166 202 245 294
#     4   8  15  30  50  71  98 132 164 195 240 293
#     4  10  20  35  53  73  99 131 167 204 246 294
#     4  10  20  32  50  78 104 126 160 205 247 288
#     4   9  19  34  52  74 100 132 167 201 241 292
#
# _framework density 17.826906000000001
#
# number of rings (size 3 to 8) (size 9 to 14) (size 15 to 20)
#    0.000    2.600    0.000    4.200    0.000    9.200 
#    0.000    5.000    0.000    4.800    0.000    0.000 
#    0.000    0.000    0.000    0.000    0.000    0.000 
#
# Total GULP energy -495868.920901 kJ/mol
# GULP energy per Si atom -12396.723023 kJ/mol
# Density = 1.778633 g / cm^3
# Si number density = 17.826906 Si / 1000 Ang^3
#
#
#
# Elastic Constant Matrix: (Units=GPa)
#
#
# Indices 1 2 3 4 5 6 
#
# 1 96.8539 101.4825 46.0889 0.0000 0.0000 0.0000
# 2 101.4825 175.2776 59.4555 0.0000 0.0000 0.0000
# 3 46.0889 59.4555 68.7946 0.0000 0.0000 0.0000
# 4 0.0000 0.0000 0.0000 18.9930 0.0000 0.0000
# 5 0.0000 0.0000 0.0000 0.0000 11.5970 0.0000
# 6 0.0000 0.0000 0.0000 0.0000 0.0000 8.1486
#
#
#
# Elastic Compliance Matrix: (Units=1/GPa)
#
#
# Indices 1 2 3 4 5 6 
#
# 1 0.028329 -0.014097 -0.006796 0.000000 0.000000 0.000000
# 2 -0.014097 0.015086 -0.003594 0.000000 0.000000 0.000000
# 3 -0.006796 -0.003594 0.022195 0.000000 0.000000 0.000000
# 4 0.000000 0.000000 0.000000 0.052651 0.000000 0.000000
# 5 0.000000 0.000000 0.000000 0.000000 0.086230 0.000000
# 6 0.000000 0.000000 0.000000 0.000000 0.000000 0.122721
#
#
# Mechanical properties :
#
#
# Convention : Reuss Voigt Hill
#
# Bulk Modulus (GPa) = 60.10758 83.88664 71.99711
# Shear Modulus (GPa) = 13.09821 16.67432 14.88627
#
# Velocity S-wave (km/s) = 2.71356 3.06166 2.89285
# Velocity P-wave (km/s) = 6.60366 7.72378 7.18558
#
# Compressibility (1/GPa) = 0.01663684
#
# Stress axis : x y z
#
# Youngs Moduli (GPa) = 35.29898 66.28567 45.05500
#
# Poissons Ratio (x) = 0.93443 0.30619
# Poissons Ratio (y) = 0.49761 0.16193
# Poissons Ratio (z) = 0.23989 0.23823
#
# Static dielectric constant tensor:
#      x y z
#    x 3.102250 0.000000 0.000000 
#    y 0.000000 3.875720 0.000000 
#    z 0.000000 0.000000 3.332220 
# 
# 
# High freq. dielectric constant tensor:
#      x y z
#    x 1.663650 0.000000 0.000000 
#    y 0.000000 1.705870 0.000000 
#    z 0.000000 0.000000 1.695080 
# 
# From -- ./inp_files/6924.got.cif
#   From: 2010.03.12/outbox.cif.g09.slc.cpg/sg66_4_cif.got.tgz:6924.got - 2010.04.10 21:57:39.
