data_PCOD8276105
_publ_section_title
;
Structure prediction by ZEFSAII (Michael W. Deem and Ramdas Pophale) SiO2 
 PCOD8276105
Probable space group: C C C M
;
_chemical_formula_sum "Si O2"
_cell_formula_units_Z 96
_cell_length_a 10.367147
_cell_length_b 26.291735
_cell_length_c 17.926443
_cell_angle_alpha 90.000000
_cell_angle_beta 90.000000
_cell_angle_gamma 90.000000
_cell_volume 4886.215617
_symmetry_space_group_name_H-M "C C C M"
_symmetry_group_IT_number 66
_symmetry_cell_setting 'orthorhombic'
loop_
_space_group_symop_operation_xyz
x,y,z
-x,-y,z
x,-y,1/2-z
-x,y,1/2-z
-x,-y,-z
x,y,-z
-x,y,1/2+z
x,-y,1/2+z
1/2+x,1/2+y,z
1/2-x,1/2-y,z
1/2+x,1/2-y,1/2-z
1/2-x,1/2+y,1/2-z
1/2-x,1/2-y,-z
1/2+x,1/2+y,-z
1/2-x,1/2+y,1/2+z
1/2+x,1/2-y,1/2+z
loop_
_atom_site_type_symbol
_atom_site_label
_atom_site_fract_x
_atom_site_fract_y
_atom_site_fract_z
Si Si1 0.138660 0.975998 0.584020
Si Si2 0.540974 0.332675 0.914116
Si Si3 0.123431 0.634451 0.790756
Si Si4 0.746233 0.917515 0.417699
Si Si5 0.877544 0.113986 0.304381
Si Si6 0.391043 0.751229 0.194880
O O1 0.153059 0.952087 0.500000
O O2 0.164452 0.936190 0.650024
O O3 0.235131 0.022801 0.595142
O O4 0.000000 0.000000 0.592846
O O5 0.624768 0.384004 0.904813
O O6 0.412096 0.343172 0.866145
O O7 0.612594 0.283056 0.880170
O O8 0.507247 0.321347 0.000000
O O9 0.135728 0.598925 0.861927
O O10 0.255511 0.634414 0.742549
O O11 0.081255 0.689864 0.821642
O O12 0.000000 0.610943 0.750000
O O13 0.694036 0.906697 0.500000
O O14 0.000000 0.103355 0.250000
O O15 0.500000 0.728256 0.250000
O O16 0.250000 0.750000 0.233123
#
# Coordination Sequence:
#
# PCOD8276105 Si02
#       6
#    16  16  16  16  16  16
#     4  10  19  34  59  91 123 154 194 250 313 364
#     4  11  21  35  60  91 120 150 196 250 304 361
#     4  11  24  40  59  85 121 164 205 250 300 358
#     4  10  20  37  58  87 122 154 195 246 297 355
#     4  12  21  38  61  90 123 153 197 253 307 359
#     4  11  21  37  59  85 114 155 199 250 305 361
#
# _framework density 19.647106999999998
#
# number of rings (size 3 to 8) (size 9 to 14) (size 15 to 20)
#    0.000    1.167    5.000    2.000    0.000    3.333 
#    0.000    3.333    0.000   12.500    0.000    0.000 
#    0.000    0.000    0.000    0.000    0.000    0.000 
#
# Total GULP energy -594927.601556 kJ/mol
# GULP energy per Si atom -12394.325032 kJ/mol
# Density = 1.960239 g / cm^3
# Si number density = 19.647107 Si / 1000 Ang^3
#
#
#
# Elastic Constant Matrix: (Units=GPa)
#
#
# Indices 1 2 3 4 5 6 
#
# 1 98.7289 17.2766 53.2867 0.0000 0.0000 0.0000
# 2 17.2766 84.0131 57.4343 0.0000 0.0000 0.0000
# 3 53.2867 57.4343 143.1226 0.0000 0.0000 0.0000
# 4 0.0000 0.0000 0.0000 29.1278 0.0000 0.0000
# 5 0.0000 0.0000 0.0000 0.0000 20.6202 0.0000
# 6 0.0000 0.0000 0.0000 0.0000 0.0000 15.1376
#
#
#
# Elastic Compliance Matrix: (Units=1/GPa)
#
#
# Indices 1 2 3 4 5 6 
#
# 1 0.012721 0.000857 -0.005080 0.000000 0.000000 0.000000
# 2 0.000857 0.016461 -0.006925 0.000000 0.000000 0.000000
# 3 -0.005080 -0.006925 0.011657 0.000000 0.000000 0.000000
# 4 0.000000 0.000000 0.000000 0.034331 0.000000 0.000000
# 5 0.000000 0.000000 0.000000 0.000000 0.048496 0.000000
# 6 0.000000 0.000000 0.000000 0.000000 0.000000 0.066060
#
#
# Mechanical properties :
#
#
# Convention : Reuss Voigt Hill
#
# Bulk Modulus (GPa) = 53.92836 64.65108 59.28972
# Shear Modulus (GPa) = 22.91447 26.16825 24.54136
#
# Velocity S-wave (km/s) = 3.41882 3.65350 3.53811
# Velocity P-wave (km/s) = 6.56449 7.12566 6.85082
#
# Compressibility (1/GPa) = 0.01854312
#
# Stress axis : x y z
#
# Youngs Moduli (GPa) = 78.61282 60.75122 85.78421
#
# Poissons Ratio (x) = -0.05206 0.43578
# Poissons Ratio (y) = -0.06737 0.59402
# Poissons Ratio (z) = 0.39935 0.42068
#
# Static dielectric constant tensor:
#      x y z
#    x 3.604120 0.000000 0.000000 
#    y 0.000000 4.013030 0.000000 
#    z 0.000000 0.000000 3.804740 
# 
# 
# High freq. dielectric constant tensor:
#      x y z
#    x 1.733270 0.000000 0.000000 
#    y 0.000000 1.771130 0.000000 
#    z 0.000000 0.000000 1.771630 
# 
# From -- ./inp_files/47309.got.cif
#   From: 2010.03.12/outbox.cif.g09.slc.cpg/sg66_24_cif.got.tgz:47309.got - 2010.04.10 21:57:39.
