data_PCOD8276032
_publ_section_title
;
Structure prediction by ZEFSAII (Michael W. Deem and Ramdas Pophale) SiO2 
 PCOD8276032
Probable space group: C C C M
;
_chemical_formula_sum "Si O2"
_cell_formula_units_Z 88
_cell_length_a 11.792234
_cell_length_b 16.417704
_cell_length_c 23.367896
_cell_angle_alpha 90.000000
_cell_angle_beta 90.000000
_cell_angle_gamma 90.000000
_cell_volume 4524.057551
_symmetry_space_group_name_H-M "C C C M"
_symmetry_group_IT_number 66
_symmetry_cell_setting 'orthorhombic'
loop_
_space_group_symop_operation_xyz
x,y,z
-x,-y,z
x,-y,1/2-z
-x,y,1/2-z
-x,-y,-z
x,y,-z
-x,y,1/2+z
x,-y,1/2+z
1/2+x,1/2+y,z
1/2-x,1/2-y,z
1/2+x,1/2-y,1/2-z
1/2-x,1/2+y,1/2-z
1/2-x,1/2-y,-z
1/2+x,1/2+y,-z
1/2-x,1/2+y,1/2+z
1/2+x,1/2-y,1/2+z
loop_
_atom_site_type_symbol
_atom_site_label
_atom_site_fract_x
_atom_site_fract_y
_atom_site_fract_z
Si Si1 0.684800 0.055590 0.000000
Si Si2 0.873404 0.016478 0.683229
Si Si3 0.072491 0.743842 0.883076
Si Si4 0.839516 0.817924 0.123489
Si Si5 0.748543 0.368249 0.500000
Si Si6 0.746034 0.881742 0.379201
Si Si7 0.498307 0.821066 0.000000
O O1 0.746502 0.091780 0.055036
O O2 0.551879 0.085613 0.000000
O O3 0.702518 0.959171 0.000000
O O4 0.831196 0.106275 0.666517
O O5 0.877660 0.000000 0.750000
O O6 0.775596 0.958632 0.659041
O O7 0.000000 0.000000 0.657207
O O8 0.158044 0.815578 0.870805
O O9 0.125500 0.658419 0.859098
O O10 0.953545 0.771343 0.857808
O O11 0.052769 0.731000 0.949479
O O12 0.750000 0.750000 0.139883
O O13 0.825186 0.848295 0.057085
O O14 0.864301 0.315218 0.500000
#
# Coordination Sequence:
#
# PCOD8276032 Si02
#       7
#     8  16  16  16   8  16   8
#     4  10  20  32  57  92 121 164 202 251 303 373
#     4  11  24  45  66  88 120 159 211 262 310 366
#     4  10  20  35  60  88 125 160 202 245 307 371
#     4  12  23  40  61  97 128 164 205 256 311 371
#     4  12  21  33  59  89 131 170 204 245 310 377
#     4  10  20  39  61  90 122 160 201 254 312 369
#     4  10  19  34  51  88 134 169 202 236 310 374
#
# _framework density 19.451566
#
# number of rings (size 3 to 8) (size 9 to 14) (size 15 to 20)
#    0.000    1.273    5.455    1.636    0.000    2.182 
#    3.273    2.727    0.000    1.091    0.000    0.000 
#    0.000    0.000    0.000    0.000    0.000    0.000 
#
# Total GULP energy -545103.968350 kJ/mol
# GULP energy per Si atom -12388.726553 kJ/mol
# Density = 1.940729 g / cm^3
# Si number density = 19.451566 Si / 1000 Ang^3
#
#
#
# Elastic Constant Matrix: (Units=GPa)
#
#
# Indices 1 2 3 4 5 6 
#
# 1 110.2767 53.4682 33.4645 0.0000 0.0000 0.0000
# 2 53.4682 143.5680 42.3161 0.0000 0.0000 0.0000
# 3 33.4645 42.3161 68.2585 0.0000 0.0000 0.0000
# 4 0.0000 0.0000 0.0000 10.2343 0.0000 0.0000
# 5 0.0000 0.0000 0.0000 0.0000 38.2061 0.0000
# 6 0.0000 0.0000 0.0000 0.0000 0.0000 34.1344
#
#
#
# Elastic Compliance Matrix: (Units=1/GPa)
#
#
# Indices 1 2 3 4 5 6 
#
# 1 0.011800 -0.003291 -0.003745 0.000000 0.000000 0.000000
# 2 -0.003291 0.009440 -0.004239 0.000000 0.000000 0.000000
# 3 -0.003745 -0.004239 0.019114 0.000000 0.000000 0.000000
# 4 0.000000 0.000000 0.000000 0.097711 0.000000 0.000000
# 5 0.000000 0.000000 0.000000 0.000000 0.026174 0.000000
# 6 0.000000 0.000000 0.000000 0.000000 0.000000 0.029296
#
#
# Mechanical properties :
#
#
# Convention : Reuss Voigt Hill
#
# Bulk Modulus (GPa) = 56.16458 64.51120 60.33789
# Shear Modulus (GPa) = 22.52046 29.37191 25.94618
#
# Velocity S-wave (km/s) = 3.40629 3.89009 3.65620
# Velocity P-wave (km/s) = 6.66387 7.30850 6.99362
#
# Compressibility (1/GPa) = 0.01780482
#
# Stress axis : x y z
#
# Youngs Moduli (GPa) = 84.74475 105.92789 52.31706
#
# Poissons Ratio (x) = 0.34859 0.19593
# Poissons Ratio (y) = 0.27888 0.22178
# Poissons Ratio (z) = 0.31737 0.44904
#
# Static dielectric constant tensor:
#      x y z
#    x 2.939760 0.000000 0.000000 
#    y 0.000000 3.833960 0.000000 
#    z 0.000000 0.000000 3.216520 
# 
# 
# High freq. dielectric constant tensor:
#      x y z
#    x 1.762620 0.000000 0.000000 
#    y 0.000000 1.776710 0.000000 
#    z 0.000000 0.000000 1.721870 
# 
# From -- ./inp_files/48580.got.cif
#   From: 2010.03.12/outbox.cif.g09.slc.cpg/sg66_25_cif.got.tgz:48580.got - 2010.04.10 21:57:39.
