data_PCOD8276111
_publ_section_title
;
Structure prediction by ZEFSAII (Michael W. Deem and Ramdas Pophale) SiO2 
 PCOD8276111
Probable space group: C C C M
;
_chemical_formula_sum "Si O2"
_cell_formula_units_Z 48
_cell_length_a 5.075210
_cell_length_b 25.245190
_cell_length_c 16.689508
_cell_angle_alpha 90.000000
_cell_angle_beta 90.000000
_cell_angle_gamma 90.000000
_cell_volume 2138.337217
_symmetry_space_group_name_H-M "C C C M"
_symmetry_group_IT_number 66
_symmetry_cell_setting 'orthorhombic'
loop_
_space_group_symop_operation_xyz
x,y,z
-x,-y,z
x,-y,1/2-z
-x,y,1/2-z
-x,-y,-z
x,y,-z
-x,y,1/2+z
x,-y,1/2+z
1/2+x,1/2+y,z
1/2-x,1/2-y,z
1/2+x,1/2-y,1/2-z
1/2-x,1/2+y,1/2-z
1/2-x,1/2-y,-z
1/2+x,1/2+y,-z
1/2-x,1/2+y,1/2+z
1/2+x,1/2-y,1/2+z
loop_
_atom_site_type_symbol
_atom_site_label
_atom_site_fract_x
_atom_site_fract_y
_atom_site_fract_z
Si Si1 0.136805 0.693226 0.592152
Si Si2 0.248105 0.024137 0.660973
Si Si3 0.623075 0.354226 0.164591
O O1 0.047554 0.692055 0.500000
O O2 0.250000 0.750000 0.618348
O O3 0.377108 0.651577 0.603761
O O4 0.874012 0.682519 0.644130
O O5 0.242099 0.087096 0.663147
O O6 0.500000 0.000000 0.614983
O O7 0.248544 0.000000 0.750000
O O8 0.000000 0.000000 0.613621
O O9 0.500000 0.338731 0.250000
#
# Coordination Sequence:
#
# PCOD8276111 Si02
#       3
#    16  16  16
#     4  11  26  47  68  94 141 192 220 265 350 417
#     4  10  19  34  60  97 129 172 207 267 337 412
#     4  12  23  40  73 107 128 171 237 289 322 390
#
# _framework density 22.447348999999999
#
# number of rings (size 3 to 8) (size 9 to 14) (size 15 to 20)
#    0.000    1.000    3.333    5.000    4.667    5.333 
#    0.000    0.000    0.000   20.000    0.000    0.000 
#    0.000    0.000    0.000    0.000    0.000    0.000 
#
# Total GULP energy -297437.322479 kJ/mol
# GULP energy per Si atom -12393.221770 kJ/mol
# Density = 2.239626 g / cm^3
# Si number density = 22.447349 Si / 1000 Ang^3
#
#
#
# Elastic Constant Matrix: (Units=GPa)
#
#
# Indices 1 2 3 4 5 6 
#
# 1 248.1434 75.1028 59.2151 0.0000 0.0000 0.0000
# 2 75.1028 127.8806 62.4599 0.0000 0.0000 0.0000
# 3 59.2151 62.4599 70.3189 0.0000 0.0000 0.0000
# 4 0.0000 0.0000 0.0000 6.4367 0.0000 0.0000
# 5 0.0000 0.0000 0.0000 0.0000 19.8225 0.0000
# 6 0.0000 0.0000 0.0000 0.0000 0.0000 49.8738
#
#
#
# Elastic Compliance Matrix: (Units=1/GPa)
#
#
# Indices 1 2 3 4 5 6 
#
# 1 0.005228 -0.001625 -0.002959 0.000000 0.000000 0.000000
# 2 -0.001625 0.014317 -0.011348 0.000000 0.000000 0.000000
# 3 -0.002959 -0.011348 0.026793 0.000000 0.000000 0.000000
# 4 0.000000 0.000000 0.000000 0.155360 0.000000 0.000000
# 5 0.000000 0.000000 0.000000 0.000000 0.050448 0.000000
# 6 0.000000 0.000000 0.000000 0.000000 0.000000 0.020051
#
#
# Mechanical properties :
#
#
# Convention : Reuss Voigt Hill
#
# Bulk Modulus (GPa) = 69.09538 93.32206 81.20872
# Shear Modulus (GPa) = 16.18726 31.86426 24.02576
#
# Velocity S-wave (km/s) = 2.68828 3.77173 3.27512
# Velocity P-wave (km/s) = 6.36268 7.78665 7.11040
#
# Compressibility (1/GPa) = 0.01447275
#
# Stress axis : x y z
#
# Youngs Moduli (GPa) = 191.28297 69.84686 37.32357
#
# Poissons Ratio (x) = 0.11351 0.11044
# Poissons Ratio (y) = 0.31085 0.42357
# Poissons Ratio (z) = 0.56599 0.79266
#
# Static dielectric constant tensor:
#      x y z
#    x 3.000310 0.000000 0.000000 
#    y 0.000000 4.044360 0.000000 
#    z 0.000000 0.000000 3.643390 
# 
# 
# High freq. dielectric constant tensor:
#      x y z
#    x 1.928130 0.000000 0.000000 
#    y 0.000000 1.888410 0.000000 
#    z 0.000000 0.000000 1.839150 
# 
# From -- ./inp_files/22215.got.cif
#   From: 2010.03.12/outbox.cif.g09.slc.cpg/sg66_12_cif.got.tgz:22215.got - 2010.04.10 21:57:39.
