data_PCOD8276270
_publ_section_title
;
Structure prediction by ZEFSAII (Michael W. Deem and Ramdas Pophale) SiO2 
 PCOD8276270
Probable space group: C C C M
;
_chemical_formula_sum "Si O2"
_cell_formula_units_Z 88
_cell_length_a 23.346018
_cell_length_b 23.189782
_cell_length_c 8.930922
_cell_angle_alpha 90.000000
_cell_angle_beta 90.000000
_cell_angle_gamma 90.000000
_cell_volume 4835.103538
_symmetry_space_group_name_H-M "C C C M"
_symmetry_group_IT_number 66
_symmetry_cell_setting 'orthorhombic'
loop_
_space_group_symop_operation_xyz
x,y,z
-x,-y,z
x,-y,1/2-z
-x,y,1/2-z
-x,-y,-z
x,y,-z
-x,y,1/2+z
x,-y,1/2+z
1/2+x,1/2+y,z
1/2-x,1/2-y,z
1/2+x,1/2-y,1/2-z
1/2-x,1/2+y,1/2-z
1/2-x,1/2-y,-z
1/2+x,1/2+y,-z
1/2-x,1/2+y,1/2+z
1/2+x,1/2-y,1/2+z
loop_
_atom_site_type_symbol
_atom_site_label
_atom_site_fract_x
_atom_site_fract_y
_atom_site_fract_z
Si Si1 0.337452 0.155915 0.837650
Si Si2 0.168570 0.149667 0.667380
Si Si3 0.247087 0.060614 0.172567
Si Si4 0.444789 0.811651 0.823757
Si Si5 0.443479 0.687207 0.322131
Si Si6 0.750000 0.750000 0.253678
O O1 0.305951 0.095539 0.816508
O O2 0.385244 0.155943 0.708144
O O3 0.292572 0.209270 0.840274
O O4 0.367879 0.158066 0.000000
O O5 0.147596 0.135788 0.500000
O O6 0.199723 0.094432 0.734035
O O7 0.114164 0.155615 0.774578
O O8 0.209178 0.206455 0.654036
O O9 0.257958 0.000000 0.250000
O O10 0.227644 0.053439 0.000000
O O11 0.500000 0.844005 0.750000
O O12 0.439299 0.751061 0.741899
O O13 0.453277 0.804193 0.000000
O O14 0.500000 0.657034 0.250000
O O15 0.448998 0.687749 0.500000
#
# Coordination Sequence:
#
# PCOD8276270 Si02
#       6
#    16  16  16  16  16   8
#     4  10  20  34  54  79 110 143 178 222 271 324
#     4  11  21  34  54  81 112 144 180 224 270 322
#     4  10  22  39  58  81 108 143 184 226 274 321
#     4  11  21  33  51  76 109 146 182 219 266 321
#     4  11  21  34  52  76 110 147 183 221 266 321
#     4  10  20  30  52  78 114 140 180 214 270 324
#
# _framework density 18.200230000000001
#
# number of rings (size 3 to 8) (size 9 to 14) (size 15 to 20)
#    0.000    1.455    1.818    6.000    0.000    5.091 
#    0.000    0.000    0.000    1.091    0.000    7.636 
#    0.000    0.000    0.000    0.000    0.000    0.000 
#
# Total GULP energy -545324.632375 kJ/mol
# GULP energy per Si atom -12393.741645 kJ/mol
# Density = 1.815881 g / cm^3
# Si number density = 18.200230 Si / 1000 Ang^3
#
#
#
# Elastic Constant Matrix: (Units=GPa)
#
#
# Indices 1 2 3 4 5 6 
#
# 1 113.7840 32.0498 54.3458 0.0000 0.0000 0.0000
# 2 32.0498 93.1478 38.9433 0.0000 0.0000 0.0000
# 3 54.3458 38.9433 171.3846 0.0000 0.0000 0.0000
# 4 0.0000 0.0000 0.0000 20.1400 0.0000 0.0000
# 5 0.0000 0.0000 0.0000 0.0000 31.4996 0.0000
# 6 0.0000 0.0000 0.0000 0.0000 0.0000 13.2741
#
#
#
# Elastic Compliance Matrix: (Units=1/GPa)
#
#
# Indices 1 2 3 4 5 6 
#
# 1 0.010876 -0.002542 -0.002871 0.000000 0.000000 0.000000
# 2 -0.002542 0.012457 -0.002025 0.000000 0.000000 0.000000
# 3 -0.002871 -0.002025 0.007205 0.000000 0.000000 0.000000
# 4 0.000000 0.000000 0.000000 0.049652 0.000000 0.000000
# 5 0.000000 0.000000 0.000000 0.000000 0.031746 0.000000
# 6 0.000000 0.000000 0.000000 0.000000 0.000000 0.075335
#
#
# Mechanical properties :
#
#
# Convention : Reuss Voigt Hill
#
# Bulk Modulus (GPa) = 63.84498 69.88825 66.86661
# Shear Modulus (GPa) = 24.11185 29.84790 26.97987
#
# Velocity S-wave (km/s) = 3.64374 4.05405 3.85436
# Velocity P-wave (km/s) = 7.27034 7.77154 7.52511
#
# Compressibility (1/GPa) = 0.01566294
#
# Stress axis : x y z
#
# Youngs Moduli (GPa) = 91.94678 80.27884 138.78678
#
# Poissons Ratio (x) = 0.20405 0.39848
# Poissons Ratio (y) = 0.23370 0.28097
# Poissons Ratio (z) = 0.26399 0.16252
#
# Static dielectric constant tensor:
#      x y z
#    x 3.484990 0.000000 0.000000 
#    y 0.000000 3.032290 0.000000 
#    z 0.000000 0.000000 3.441250 
# 
# 
# High freq. dielectric constant tensor:
#      x y z
#    x 1.715870 0.000000 0.000000 
#    y 0.000000 1.661320 0.000000 
#    z 0.000000 0.000000 1.722480 
# 
# From -- ./inp_files/7798.got.cif
#   From: 2010.03.12/outbox.cif.g09.slc.cpg/sg66_4_cif.got.tgz:7798.got - 2010.04.10 21:57:39.
