data_PCOD8276147
_publ_section_title
;
Structure prediction by ZEFSAII (Michael W. Deem and Ramdas Pophale) SiO2 
 PCOD8276147
Probable space group: C C C M
;
_chemical_formula_sum "Si O2"
_cell_formula_units_Z 120
_cell_length_a 21.576531
_cell_length_b 20.113318
_cell_length_c 13.365655
_cell_angle_alpha 90.000000
_cell_angle_beta 90.000000
_cell_angle_gamma 90.000000
_cell_volume 5800.368540
_symmetry_space_group_name_H-M "C C C M"
_symmetry_group_IT_number 66
_symmetry_cell_setting 'orthorhombic'
loop_
_space_group_symop_operation_xyz
x,y,z
-x,-y,z
x,-y,1/2-z
-x,y,1/2-z
-x,-y,-z
x,y,-z
-x,y,1/2+z
x,-y,1/2+z
1/2+x,1/2+y,z
1/2-x,1/2-y,z
1/2+x,1/2-y,1/2-z
1/2-x,1/2+y,1/2-z
1/2-x,1/2-y,-z
1/2+x,1/2+y,-z
1/2-x,1/2+y,1/2+z
1/2+x,1/2-y,1/2+z
loop_
_atom_site_type_symbol
_atom_site_label
_atom_site_fract_x
_atom_site_fract_y
_atom_site_fract_z
Si Si1 0.651992 0.245773 0.113245
Si Si2 0.980174 0.695662 0.386198
Si Si3 0.399870 0.267526 0.884995
Si Si4 0.716876 0.500000 0.250000
Si Si5 0.051208 0.448612 0.618698
Si Si6 0.827977 0.473382 0.382339
Si Si7 0.687690 0.835184 0.797410
Si Si8 0.324630 0.357193 0.758882
O O1 0.577628 0.245401 0.118063
O O2 0.677448 0.185270 0.181221
O O3 0.674384 0.317212 0.153865
O O4 0.676128 0.235238 0.000000
O O5 0.000738 0.681888 0.500000
O O6 0.962735 0.624659 0.335643
O O7 0.039817 0.731379 0.334574
O O8 0.340867 0.219747 0.870834
O O9 0.383665 0.335414 0.826127
O O10 0.411547 0.285428 0.000000
O O11 0.761241 0.501095 0.347701
O O12 0.672168 0.563795 0.258296
O O13 0.047906 0.444007 0.500000
O O14 0.119531 0.473728 0.649411
O O15 0.000000 0.500000 0.659992
O O16 0.826933 0.459274 0.500000
O O17 0.843777 0.405406 0.323585
O O18 0.761086 0.839775 0.817223
#
# Coordination Sequence:
#
# PCOD8276147 Si02
#       8
#    16  16  16   8  16  16  16  16
#     4  10  21  38  59  82 115 154 194 247 303 351
#     4   9  19  33  55  86 114 150 196 237 291 361
#     4  10  19  35  59  85 118 151 185 243 304 354
#     4  10  24  42  57  83 118 148 206 254 292 372
#     4   9  17  31  52  81 116 154 194 230 272 341
#     4  10  21  37  58  81 118 162 195 244 300 343
#     4  10  21  35  55  88 117 149 204 246 283 357
#     4  10  23  38  56  83 112 147 198 249 297 366
#
# _framework density 20.688341999999999
#
# number of rings (size 3 to 8) (size 9 to 14) (size 15 to 20)
#    0.000    2.267    0.000    2.800    3.733    9.067 
#    0.000    0.333    0.000    1.600    0.000    2.800 
#    0.000    0.000    0.000    0.000    0.000    0.000 
#
# Total GULP energy -743803.432941 kJ/mol
# GULP energy per Si atom -12396.723882 kJ/mol
# Density = 2.064125 g / cm^3
# Si number density = 20.688342 Si / 1000 Ang^3
#
#
#
# Elastic Constant Matrix: (Units=GPa)
#
#
# Indices 1 2 3 4 5 6 
#
# 1 87.3498 69.6498 21.6274 0.0000 0.0000 0.0000
# 2 69.6498 170.2965 45.6580 0.0000 0.0000 0.0000
# 3 21.6274 45.6580 94.6167 0.0000 0.0000 0.0000
# 4 0.0000 0.0000 0.0000 22.2717 0.0000 0.0000
# 5 0.0000 0.0000 0.0000 0.0000 22.0682 0.0000
# 6 0.0000 0.0000 0.0000 0.0000 0.0000 39.9581
#
#
#
# Elastic Compliance Matrix: (Units=1/GPa)
#
#
# Indices 1 2 3 4 5 6 
#
# 1 0.017019 -0.006797 -0.000610 0.000000 0.000000 0.000000
# 2 -0.006797 0.009459 -0.003011 0.000000 0.000000 0.000000
# 3 -0.000610 -0.003011 0.012161 0.000000 0.000000 0.000000
# 4 0.000000 0.000000 0.000000 0.044900 0.000000 0.000000
# 5 0.000000 0.000000 0.000000 0.000000 0.045314 0.000000
# 6 0.000000 0.000000 0.000000 0.000000 0.000000 0.025026
#
#
# Mechanical properties :
#
#
# Convention : Reuss Voigt Hill
#
# Bulk Modulus (GPa) = 56.16958 69.57038 62.86998
# Shear Modulus (GPa) = 27.67766 31.21477 29.44622
#
# Velocity S-wave (km/s) = 3.66162 3.88855 3.77679
# Velocity P-wave (km/s) = 6.71460 7.33907 7.03377
#
# Compressibility (1/GPa) = 0.01780323
#
# Stress axis : x y z
#
# Youngs Moduli (GPa) = 58.75776 105.71590 82.22716
#
# Poissons Ratio (x) = 0.71855 0.05018
# Poissons Ratio (y) = 0.39938 0.24759
# Poissons Ratio (z) = 0.03586 0.31831
#
# Static dielectric constant tensor:
#      x y z
#    x 3.744760 0.000000 0.000000 
#    y 0.000000 3.822870 0.000000 
#    z 0.000000 0.000000 3.731060 
# 
# 
# High freq. dielectric constant tensor:
#      x y z
#    x 1.797140 0.000000 0.000000 
#    y 0.000000 1.791870 0.000000 
#    z 0.000000 0.000000 1.812640 
# 
# From -- ./inp_files/31566.got.cif
#   From: 2010.03.12/outbox.cif.g09.slc.cpg/sg66_16_cif.got.tgz:31566.got - 2010.04.10 21:57:39.
