data_PCOD8276567
_publ_section_title
;
Structure prediction by ZEFSAII (Michael W. Deem and Ramdas Pophale) SiO2 
 PCOD8276567
Probable space group: C C C M
;
_chemical_formula_sum "Si O2"
_cell_formula_units_Z 72
_cell_length_a 19.317596
_cell_length_b 9.270784
_cell_length_c 18.901687
_cell_angle_alpha 90.000000
_cell_angle_beta 90.000000
_cell_angle_gamma 90.000000
_cell_volume 3385.089136
_symmetry_space_group_name_H-M "C C C M"
_symmetry_group_IT_number 66
_symmetry_cell_setting 'orthorhombic'
loop_
_space_group_symop_operation_xyz
x,y,z
-x,-y,z
x,-y,1/2-z
-x,y,1/2-z
-x,-y,-z
x,y,-z
-x,y,1/2+z
x,-y,1/2+z
1/2+x,1/2+y,z
1/2-x,1/2-y,z
1/2+x,1/2-y,1/2-z
1/2-x,1/2+y,1/2-z
1/2-x,1/2-y,-z
1/2+x,1/2+y,-z
1/2-x,1/2+y,1/2+z
1/2+x,1/2-y,1/2+z
loop_
_atom_site_type_symbol
_atom_site_label
_atom_site_fract_x
_atom_site_fract_y
_atom_site_fract_z
Si Si1 0.462140 0.278264 0.417790
Si Si2 0.639200 0.041433 0.919965
Si Si3 0.125121 0.228483 0.082203
Si Si4 0.363995 0.463587 0.328488
Si Si5 0.750000 0.750000 0.632833
O O1 0.442390 0.305211 0.500000
O O2 0.427327 0.128705 0.390105
O O3 0.543088 0.275493 0.406287
O O4 0.429582 0.407272 0.372588
O O5 0.707371 0.139623 0.915724
O O6 0.649689 0.883389 0.885339
O O7 0.621514 0.002752 0.000000
O O8 0.162066 0.106077 0.129490
O O9 0.145872 0.204443 0.000000
O O10 0.389407 0.500000 0.250000
O O11 0.302362 0.346136 0.320558
#
# Coordination Sequence:
#
# PCOD8276567 Si02
#       5
#    16  16  16  16   8
#     4   9  18  36  60  87 118 146 175 221 285 342
#     4   9  18  34  59  87 114 147 186 229 275 328
#     4  10  20  35  59  89 115 142 182 230 278 333
#     4  11  24  39  57  79 109 149 191 232 277 329
#     4  10  23  40  54  74 111 156 192 232 280 322
#
# _framework density 21.269749999999998
#
# number of rings (size 3 to 8) (size 9 to 14) (size 15 to 20)
#    0.000    2.222    0.000    2.333    0.000   11.556 
#    0.000    5.556    0.000    5.333    0.000    0.000 
#    0.000    0.000    0.000    0.000    0.000    0.000 
#
# Total GULP energy -446216.568120 kJ/mol
# GULP energy per Si atom -12394.904670 kJ/mol
# Density = 2.122134 g / cm^3
# Si number density = 21.269750 Si / 1000 Ang^3
#
#
#
# Elastic Constant Matrix: (Units=GPa)
#
#
# Indices 1 2 3 4 5 6 
#
# 1 75.1029 34.4092 17.4738 0.0000 0.0000 0.0000
# 2 34.4092 173.0741 54.0667 0.0000 0.0000 0.0000
# 3 17.4738 54.0667 86.7094 0.0000 0.0000 0.0000
# 4 0.0000 0.0000 0.0000 8.8325 0.0000 0.0000
# 5 0.0000 0.0000 0.0000 0.0000 1.1995 0.0000
# 6 0.0000 0.0000 0.0000 0.0000 0.0000 27.0571
#
#
#
# Elastic Compliance Matrix: (Units=1/GPa)
#
#
# Indices 1 2 3 4 5 6 
#
# 1 0.014790 -0.002495 -0.001424 0.000000 0.000000 0.000000
# 2 -0.002495 0.007597 -0.004234 0.000000 0.000000 0.000000
# 3 -0.001424 -0.004234 0.014460 0.000000 0.000000 0.000000
# 4 0.000000 0.000000 0.000000 0.113218 0.000000 0.000000
# 5 0.000000 0.000000 0.000000 0.000000 0.833658 0.000000
# 6 0.000000 0.000000 0.000000 0.000000 0.000000 0.036959
#
#
# Mechanical properties :
#
#
# Convention : Reuss Voigt Hill
#
# Bulk Modulus (GPa) = 48.68862 60.75398 54.72130
# Shear Modulus (GPa) = 4.79003 22.68027 13.73515
#
# Velocity S-wave (km/s) = 1.50231 3.26899 2.54394
# Velocity P-wave (km/s) = 5.09411 6.54782 5.86617
#
# Compressibility (1/GPa) = 0.02053868
#
# Stress axis : x y z
#
# Youngs Moduli (GPa) = 67.61426 131.63746 69.15701
#
# Poissons Ratio (x) = 0.32849 0.09851
# Poissons Ratio (y) = 0.16872 0.29281
# Poissons Ratio (z) = 0.09631 0.55734
#
# Static dielectric constant tensor:
#      x y z
#    x 3.666350 0.000000 0.000000 
#    y 0.000000 4.417790 0.000000 
#    z 0.000000 0.000000 3.358420 
# 
# 
# High freq. dielectric constant tensor:
#      x y z
#    x 1.826920 0.000000 0.000000 
#    y 0.000000 1.862720 0.000000 
#    z 0.000000 0.000000 1.785730 
# 
# From -- ./inp_files/36732.got.cif
#   From: 2010.03.12/outbox.cif.g09.slc.cpg/sg66_19_cif.got.tgz:36732.got - 2010.04.10 21:57:39.
