data_PCOD8276203
_publ_section_title
;
Structure prediction by ZEFSAII (Michael W. Deem and Ramdas Pophale) SiO2 
 PCOD8276203
Probable space group: C C C M
;
_chemical_formula_sum "Si O2"
_cell_formula_units_Z 112
_cell_length_a 23.334079
_cell_length_b 15.960980
_cell_length_c 14.796303
_cell_angle_alpha 90.000000
_cell_angle_beta 90.000000
_cell_angle_gamma 90.000000
_cell_volume 5510.657679
_symmetry_space_group_name_H-M "C C C M"
_symmetry_group_IT_number 66
_symmetry_cell_setting 'orthorhombic'
loop_
_space_group_symop_operation_xyz
x,y,z
-x,-y,z
x,-y,1/2-z
-x,y,1/2-z
-x,-y,-z
x,y,-z
-x,y,1/2+z
x,-y,1/2+z
1/2+x,1/2+y,z
1/2-x,1/2-y,z
1/2+x,1/2-y,1/2-z
1/2-x,1/2+y,1/2-z
1/2-x,1/2-y,-z
1/2+x,1/2+y,-z
1/2-x,1/2+y,1/2+z
1/2+x,1/2-y,1/2+z
loop_
_atom_site_type_symbol
_atom_site_label
_atom_site_fract_x
_atom_site_fract_y
_atom_site_fract_z
Si Si1 0.688343 0.792022 0.397086
Si Si2 0.144378 0.276993 0.097769
Si Si3 0.817641 0.592402 0.768046
Si Si4 0.954451 0.170790 0.362095
Si Si5 0.896438 0.991136 0.856452
Si Si6 0.712031 0.612690 0.102396
Si Si7 0.418012 0.325582 0.344506
O O1 0.680676 0.822885 0.500000
O O2 0.750000 0.750000 0.384366
O O3 0.689674 0.871295 0.331852
O O4 0.634143 0.733766 0.372413
O O5 0.139689 0.350254 0.172285
O O6 0.082969 0.234707 0.080148
O O7 0.189403 0.205395 0.129308
O O8 0.163312 0.313885 0.000000
O O9 0.842972 0.500000 0.750000
O O10 0.758791 0.587595 0.823810
O O11 0.946673 0.072753 0.390117
O O12 0.925720 0.173186 0.262768
O O13 0.018946 0.202581 0.378285
O O14 0.836703 0.957192 0.893885
O O15 0.895028 0.000000 0.750000
O O16 0.906391 0.084876 0.892340
O O17 0.736428 0.613832 0.000000
#
# Coordination Sequence:
#
# PCOD8276203 Si02
#       7
#    16  16  16  16  16  16  16
#     4  11  26  43  61  87 123 167 210 250 304 372
#     4  10  20  38  62  90 120 153 202 254 304 362
#     4  12  25  40  62  83 115 159 205 266 314 357
#     4   9  18  34  61  94 125 165 208 245 297 362
#     4   9  18  31  55  94 133 169 199 237 287 368
#     4  10  21  36  59  90 124 163 203 246 302 365
#     4  10  19  36  61  89 131 170 202 246 297 366
#
# _framework density 20.324252000000001
#
# number of rings (size 3 to 8) (size 9 to 14) (size 15 to 20)
#    0.000    1.857    1.429    2.571    6.000    5.143 
#    0.000    0.000    0.000    6.000    0.000    2.000 
#    0.000    0.000    0.000    0.000    0.000    0.000 
#
# Total GULP energy -693765.637777 kJ/mol
# GULP energy per Si atom -12388.672103 kJ/mol
# Density = 2.027799 g / cm^3
# Si number density = 20.324252 Si / 1000 Ang^3
#
#
#
# Elastic Constant Matrix: (Units=GPa)
#
#
# Indices 1 2 3 4 5 6 
#
# 1 112.2934 30.8127 30.8908 0.0000 0.0000 0.0000
# 2 30.8127 111.0192 58.1810 0.0000 0.0000 0.0000
# 3 30.8908 58.1810 99.8790 0.0000 0.0000 0.0000
# 4 0.0000 0.0000 0.0000 26.6650 0.0000 0.0000
# 5 0.0000 0.0000 0.0000 0.0000 -67.7925 0.0000
# 6 0.0000 0.0000 0.0000 0.0000 0.0000 21.8460
#
#
#
# Elastic Compliance Matrix: (Units=1/GPa)
#
#
# Indices 1 2 3 4 5 6 
#
# 1 0.009939 -0.001652 -0.002112 0.000000 0.000000 0.000000
# 2 -0.001652 0.013240 -0.007202 0.000000 0.000000 0.000000
# 3 -0.002112 -0.007202 0.014860 0.000000 0.000000 0.000000
# 4 0.000000 0.000000 0.000000 0.037502 0.000000 0.000000
# 5 0.000000 0.000000 0.000000 0.000000 -0.014751 0.000000
# 6 0.000000 0.000000 0.000000 0.000000 0.000000 0.045775
#
#
# Mechanical properties :
#
#
# Convention : Reuss Voigt Hill
#
# Bulk Modulus (GPa) = 62.07671 62.55116 62.31394
# Shear Modulus (GPa) = 37.35064 9.69752 23.52408
#
# Velocity S-wave (km/s) = 4.29153 2.18672 3.40581
# Velocity P-wave (km/s) = 7.42737 6.10075 6.79650
#
# Compressibility (1/GPa) = 0.01610910
#
# Stress axis : x y z
#
# Youngs Moduli (GPa) = 100.60910 75.52867 67.29340
#
# Poissons Ratio (x) = 0.12477 0.14211
# Poissons Ratio (y) = 0.16620 0.48462
# Poissons Ratio (z) = 0.21247 0.54393
#
# Static dielectric constant tensor:
#      x y z
#    x 3.624500 0.000000 0.000000 
#    y 0.000000 3.681720 0.000000 
#    z 0.000000 0.000000 3.831720 
# 
# 
# High freq. dielectric constant tensor:
#      x y z
#    x 1.783540 0.000000 0.000000 
#    y 0.000000 1.769520 0.000000 
#    z 0.000000 0.000000 1.806820 
# 
# From -- ./inp_files/32499.got.cif
#   From: 2010.03.12/outbox.cif.g09.slc.cpg/sg66_17_cif.got.tgz:32499.got - 2010.04.10 21:57:39.
