data_PCOD8276367
_publ_section_title
;
Structure prediction by ZEFSAII (Michael W. Deem and Ramdas Pophale) SiO2 
 PCOD8276367
Probable space group: C C C M
;
_chemical_formula_sum "Si O2"
_cell_formula_units_Z 60
_cell_length_a 14.279109
_cell_length_b 15.632605
_cell_length_c 14.042361
_cell_angle_alpha 90.000000
_cell_angle_beta 90.000000
_cell_angle_gamma 90.000000
_cell_volume 3134.531199
_symmetry_space_group_name_H-M "C C C M"
_symmetry_group_IT_number 66
_symmetry_cell_setting 'orthorhombic'
loop_
_space_group_symop_operation_xyz
x,y,z
-x,-y,z
x,-y,1/2-z
-x,y,1/2-z
-x,-y,-z
x,y,-z
-x,y,1/2+z
x,-y,1/2+z
1/2+x,1/2+y,z
1/2-x,1/2-y,z
1/2+x,1/2-y,1/2-z
1/2-x,1/2+y,1/2-z
1/2-x,1/2-y,-z
1/2+x,1/2+y,-z
1/2-x,1/2+y,1/2+z
1/2+x,1/2-y,1/2+z
loop_
_atom_site_type_symbol
_atom_site_label
_atom_site_fract_x
_atom_site_fract_y
_atom_site_fract_z
Si Si1 0.000000 0.500000 0.750000
Si Si2 0.750000 0.250000 0.325736
Si Si3 0.854420 0.417247 0.392776
Si Si4 0.603425 0.363865 0.755644
Si Si5 0.663266 0.500008 0.891774
O O1 0.063651 0.562656 0.683693
O O2 0.801452 0.325070 0.385520
O O3 0.671862 0.285236 0.255766
O O4 0.896352 0.422155 0.500000
O O5 0.775208 0.490058 0.378300
O O6 0.500000 0.325617 0.750000
O O7 0.631064 0.407358 0.855476
O O8 0.608785 0.429644 0.668433
O O9 0.632015 0.511363 0.000000
#
# Coordination Sequence:
#
# PCOD8276367 Si02
#       5
#     4   8  16  16  16
#     4  12  22  36  64  90 114 150 202 256 276 338
#     4  10  21  38  55  78 122 154 189 236 285 342
#     4  10  21  37  59  84 114 154 193 235 290 344
#     4  10  20  33  55  83 110 145 189 232 286 338
#     4   9  18  36  58  81 109 144 185 234 286 345
#
# _framework density 19.141618999999999
#
# number of rings (size 3 to 8) (size 9 to 14) (size 15 to 20)
#    0.000    2.133    0.000    5.600    1.867    3.200 
#    0.000    0.667    0.000    0.000    0.000    0.000 
#    0.000    0.000    0.000    0.000    0.000    0.000 
#
# Total GULP energy -371799.215864 kJ/mol
# GULP energy per Si atom -12393.307195 kJ/mol
# Density = 1.909805 g / cm^3
# Si number density = 19.141619 Si / 1000 Ang^3
#
#
#
# Elastic Constant Matrix: (Units=GPa)
#
#
# Indices 1 2 3 4 5 6 
#
# 1 128.5693 46.7199 51.6285 0.0000 0.0000 0.0000
# 2 46.7199 70.1187 25.8164 0.0000 0.0000 0.0000
# 3 51.6285 25.8164 115.0668 0.0000 0.0000 0.0000
# 4 0.0000 0.0000 0.0000 13.4860 0.0000 0.0000
# 5 0.0000 0.0000 0.0000 0.0000 30.2236 0.0000
# 6 0.0000 0.0000 0.0000 0.0000 0.0000 22.7459
#
#
#
# Elastic Compliance Matrix: (Units=1/GPa)
#
#
# Indices 1 2 3 4 5 6 
#
# 1 0.011599 -0.006336 -0.003783 0.000000 0.000000 0.000000
# 2 -0.006336 0.019006 -0.001422 0.000000 0.000000 0.000000
# 3 -0.003783 -0.001422 0.010707 0.000000 0.000000 0.000000
# 4 0.000000 0.000000 0.000000 0.074151 0.000000 0.000000
# 5 0.000000 0.000000 0.000000 0.000000 0.033087 0.000000
# 6 0.000000 0.000000 0.000000 0.000000 0.000000 0.043964
#
#
# Mechanical properties :
#
#
# Convention : Reuss Voigt Hill
#
# Bulk Modulus (GPa) = 54.84816 62.45380 58.65098
# Shear Modulus (GPa) = 22.55584 25.93044 24.24314
#
# Velocity S-wave (km/s) = 3.43646 3.68457 3.56267
# Velocity P-wave (km/s) = 6.66796 7.12737 6.90149
#
# Compressibility (1/GPa) = 0.01823215
#
# Stress axis : x y z
#
# Youngs Moduli (GPa) = 86.21217 52.61385 93.39804
#
# Poissons Ratio (x) = 0.33335 0.35332
# Poissons Ratio (y) = 0.54622 0.13277
# Poissons Ratio (z) = 0.32613 0.07479
#
# Static dielectric constant tensor:
#      x y z
#    x 3.582780 0.000000 0.000000 
#    y 0.000000 3.448160 0.000000 
#    z 0.000000 0.000000 3.552770 
# 
# 
# High freq. dielectric constant tensor:
#      x y z
#    x 1.752450 0.000000 0.000000 
#    y 0.000000 1.723950 0.000000 
#    z 0.000000 0.000000 1.744360 
# 
# From -- ./inp_files/25681.got.cif
#   From: 2010.03.12/outbox.cif.g09.slc.cpg/sg66_13_cif.got.tgz:25681.got - 2010.04.10 21:57:39.
