data_PCOD8276398
_publ_section_title
;
Structure prediction by ZEFSAII (Michael W. Deem and Ramdas Pophale) SiO2 
 PCOD8276398
Probable space group: C C C M
;
_chemical_formula_sum "Si O2"
_cell_formula_units_Z 96
_cell_length_a 23.056411
_cell_length_b 8.792479
_cell_length_c 24.977296
_cell_angle_alpha 90.000000
_cell_angle_beta 90.000000
_cell_angle_gamma 90.000000
_cell_volume 5063.472615
_symmetry_space_group_name_H-M "C C C M"
_symmetry_group_IT_number 66
_symmetry_cell_setting 'orthorhombic'
loop_
_space_group_symop_operation_xyz
x,y,z
-x,-y,z
x,-y,1/2-z
-x,y,1/2-z
-x,-y,-z
x,y,-z
-x,y,1/2+z
x,-y,1/2+z
1/2+x,1/2+y,z
1/2-x,1/2-y,z
1/2+x,1/2-y,1/2-z
1/2-x,1/2+y,1/2-z
1/2-x,1/2-y,-z
1/2+x,1/2+y,-z
1/2-x,1/2+y,1/2+z
1/2+x,1/2-y,1/2+z
loop_
_atom_site_type_symbol
_atom_site_label
_atom_site_fract_x
_atom_site_fract_y
_atom_site_fract_z
Si Si1 0.858152 0.961520 0.904017
Si Si2 0.560479 0.432733 0.308240
Si Si3 0.026640 0.646820 0.360971
Si Si4 0.371482 0.883045 0.561759
Si Si5 0.539956 0.645903 0.558955
Si Si6 0.742175 0.928762 0.561514
O O1 0.885105 0.973663 0.844803
O O2 0.860368 0.795797 0.930486
O O3 0.893326 0.088374 0.937851
O O4 0.790681 0.998924 0.900454
O O5 0.500000 0.500000 0.330522
O O6 0.573521 0.500000 0.250000
O O7 0.552568 0.250080 0.312888
O O8 0.074776 0.577436 0.400727
O O9 0.000000 0.500000 0.331921
O O10 0.977886 0.733655 0.395983
O O11 0.387032 0.914108 0.500000
O O12 0.318885 0.995970 0.579030
O O13 0.500000 0.500000 0.566502
O O14 0.531309 0.719086 0.500000
O O15 0.754434 0.973358 0.500000
O O16 0.750000 0.750000 0.570091
#
# Coordination Sequence:
#
# PCOD8276398 Si02
#       6
#    16  16  16  16  16  16
#     4  11  19  35  57  78 105 152 200 237 280 338
#     4  10  20  39  62  81 107 142 190 240 292 349
#     4  11  22  35  55  88 120 151 185 235 297 348
#     4  10  20  34  52  81 119 159 195 228 269 339
#     4  11  19  31  52  83 116 153 191 225 272 343
#     4  10  22  35  51  79 114 156 193 230 280 338
#
# _framework density 18.959320000000002
#
# number of rings (size 3 to 8) (size 9 to 14) (size 15 to 20)
#    0.000    1.500    5.000    2.500    2.333    2.667 
#    0.000    1.667    0.000    4.000    0.000    0.000 
#    0.000    0.000    0.000    0.000    0.000    0.000 
#
# Total GULP energy -594726.125400 kJ/mol
# GULP energy per Si atom -12390.127612 kJ/mol
# Density = 1.891617 g / cm^3
# Si number density = 18.959320 Si / 1000 Ang^3
#
#
#
# Elastic Constant Matrix: (Units=GPa)
#
#
# Indices 1 2 3 4 5 6 
#
# 1 93.3272 47.4484 19.9185 0.0000 0.0000 0.0000
# 2 47.4484 88.2349 43.8469 0.0000 0.0000 0.0000
# 3 19.9185 43.8469 90.2499 0.0000 0.0000 0.0000
# 4 0.0000 0.0000 0.0000 15.4064 0.0000 0.0000
# 5 0.0000 0.0000 0.0000 0.0000 24.5814 0.0000
# 6 0.0000 0.0000 0.0000 0.0000 0.0000 38.8277
#
#
#
# Elastic Compliance Matrix: (Units=1/GPa)
#
#
# Indices 1 2 3 4 5 6 
#
# 1 0.014789 -0.008346 0.000791 0.000000 0.000000 0.000000
# 2 -0.008346 0.019650 -0.007705 0.000000 0.000000 0.000000
# 3 0.000791 -0.007705 0.014649 0.000000 0.000000 0.000000
# 4 0.000000 0.000000 0.000000 0.064908 0.000000 0.000000
# 5 0.000000 0.000000 0.000000 0.000000 0.040681 0.000000
# 6 0.000000 0.000000 0.000000 0.000000 0.000000 0.025755
#
#
# Mechanical properties :
#
#
# Convention : Reuss Voigt Hill
#
# Bulk Modulus (GPa) = 53.85440 54.91550 54.38495
# Shear Modulus (GPa) = 23.02633 26.46964 24.74798
#
# Velocity S-wave (km/s) = 3.48877 3.74053 3.61684
# Velocity P-wave (km/s) = 6.68547 6.90531 6.79628
#
# Compressibility (1/GPa) = 0.01856858
#
# Stress axis : x y z
#
# Youngs Moduli (GPa) = 67.61614 50.88997 68.26327
#
# Poissons Ratio (x) = 0.42472 -0.05398
# Poissons Ratio (y) = 0.56432 0.52596
# Poissons Ratio (z) = -0.05346 0.39210
#
# Static dielectric constant tensor:
#      x y z
#    x 3.748060 0.000000 0.000000 
#    y 0.000000 3.693900 0.000000 
#    z 0.000000 0.000000 3.167420 
# 
# 
# High freq. dielectric constant tensor:
#      x y z
#    x 1.731810 0.000000 0.000000 
#    y 0.000000 1.746260 0.000000 
#    z 0.000000 0.000000 1.702230 
# 
# From -- ./inp_files/65669.got.cif
#   From: 2010.03.12/outbox.cif.g09.slc.cpg/sg66_33_cif.got.tgz:65669.got - 2010.04.10 21:57:39.
