data_PCOD8276496
_publ_section_title
;
Structure prediction by ZEFSAII (Michael W. Deem and Ramdas Pophale) SiO2 
 PCOD8276496
Probable space group: C C C M
;
_chemical_formula_sum "Si O2"
_cell_formula_units_Z 96
_cell_length_a 27.173942
_cell_length_b 20.261711
_cell_length_c 8.952928
_cell_angle_alpha 90.000000
_cell_angle_beta 90.000000
_cell_angle_gamma 90.000000
_cell_volume 4929.397637
_symmetry_space_group_name_H-M "C C C M"
_symmetry_group_IT_number 66
_symmetry_cell_setting 'orthorhombic'
loop_
_space_group_symop_operation_xyz
x,y,z
-x,-y,z
x,-y,1/2-z
-x,y,1/2-z
-x,-y,-z
x,y,-z
-x,y,1/2+z
x,-y,1/2+z
1/2+x,1/2+y,z
1/2-x,1/2-y,z
1/2+x,1/2-y,1/2-z
1/2-x,1/2+y,1/2-z
1/2-x,1/2-y,-z
1/2+x,1/2+y,-z
1/2-x,1/2+y,1/2+z
1/2+x,1/2-y,1/2+z
loop_
_atom_site_type_symbol
_atom_site_label
_atom_site_fract_x
_atom_site_fract_y
_atom_site_fract_z
Si Si1 0.448289 0.318055 0.823662
Si Si2 0.284115 0.189751 0.673817
Si Si3 0.603409 0.200211 0.171542
Si Si4 0.736351 0.432486 0.324174
Si Si5 0.051572 0.433694 0.325194
Si Si6 0.124157 0.067126 0.824505
O O1 0.500000 0.335456 0.750000
O O2 0.429697 0.246352 0.774826
O O3 0.409242 0.372576 0.768276
O O4 0.454713 0.318487 0.000000
O O5 0.276943 0.172832 0.500000
O O6 0.250000 0.250000 0.725028
O O7 0.339642 0.210798 0.710489
O O8 0.270836 0.126022 0.769123
O O9 0.590164 0.124426 0.204835
O O10 0.592124 0.218327 0.000000
O O11 0.755030 0.500000 0.250000
O O12 0.741422 0.439769 0.500000
O O13 0.680134 0.417776 0.275232
O O14 0.073193 0.500000 0.250000
O O15 0.043127 0.446047 0.500000
O O16 0.000000 0.414431 0.250000
O O17 0.104770 0.000000 0.750000
O O18 0.120044 0.057591 0.000000
#
# Coordination Sequence:
#
# PCOD8276496 Si02
#       6
#    16  16  16  16  16  16
#     4  11  23  38  57  82 111 144 184 228 276 329
#     4  10  21  37  57  82 113 147 183 226 277 330
#     4  10  22  38  56  81 111 144 183 225 270 324
#     4  10  20  36  58  83 112 146 186 229 275 329
#     4  10  20  35  55  78 105 136 174 216 261 315
#     4   9  20  37  57  82 111 145 184 226 273 327
#
# _framework density 19.474996000000001
#
# number of rings (size 3 to 8) (size 9 to 14) (size 15 to 20)
#    0.000    2.000    0.000    3.500    0.000    6.667 
#    0.000    3.333    0.000    0.000    0.000    0.000 
#    0.000    0.000    0.000    0.000    0.000    0.000 
#
# Total GULP energy -595453.016354 kJ/mol
# GULP energy per Si atom -12405.271174 kJ/mol
# Density = 1.943067 g / cm^3
# Si number density = 19.474996 Si / 1000 Ang^3
#
#
#
# Elastic Constant Matrix: (Units=GPa)
#
#
# Indices 1 2 3 4 5 6 
#
# 1 51.3449 17.3503 20.0180 0.0000 0.0000 0.0000
# 2 17.3503 90.2556 33.1744 0.0000 0.0000 0.0000
# 3 20.0180 33.1744 69.2029 0.0000 0.0000 0.0000
# 4 0.0000 0.0000 0.0000 35.3174 0.0000 0.0000
# 5 0.0000 0.0000 0.0000 0.0000 24.0868 0.0000
# 6 0.0000 0.0000 0.0000 0.0000 0.0000 34.4679
#
#
#
# Elastic Compliance Matrix: (Units=1/GPa)
#
#
# Indices 1 2 3 4 5 6 
#
# 1 0.022349 -0.002331 -0.005347 0.000000 0.000000 0.000000
# 2 -0.002331 0.013693 -0.005890 0.000000 0.000000 0.000000
# 3 -0.005347 -0.005890 0.018820 0.000000 0.000000 0.000000
# 4 0.000000 0.000000 0.000000 0.028315 0.000000 0.000000
# 5 0.000000 0.000000 0.000000 0.000000 0.041516 0.000000
# 6 0.000000 0.000000 0.000000 0.000000 0.000000 0.029012
#
#
# Mechanical properties :
#
#
# Convention : Reuss Voigt Hill
#
# Bulk Modulus (GPa) = 36.06730 39.09878 37.58304
# Shear Modulus (GPa) = 26.30436 28.12515 27.21475
#
# Velocity S-wave (km/s) = 3.67914 3.80434 3.74226
# Velocity P-wave (km/s) = 6.05046 6.27832 6.16544
#
# Compressibility (1/GPa) = 0.02772595
#
# Stress axis : x y z
#
# Youngs Moduli (GPa) = 44.74569 73.03261 53.13366
#
# Poissons Ratio (x) = 0.17022 0.28412
# Poissons Ratio (y) = 0.10429 0.31294
# Poissons Ratio (z) = 0.23927 0.43014
#
# Static dielectric constant tensor:
#      x y z
#    x 3.573260 0.000000 0.000000 
#    y 0.000000 3.624550 0.000000 
#    z 0.000000 0.000000 3.533280 
# 
# 
# High freq. dielectric constant tensor:
#      x y z
#    x 1.757480 0.000000 0.000000 
#    y 0.000000 1.767990 0.000000 
#    z 0.000000 0.000000 1.759950 
# 
# From -- ./inp_files/8025.got.cif
#   From: 2010.03.12/outbox.cif.g09.slc.cpg/sg66_5_cif.got.tgz:8025.got - 2010.04.10 21:57:39.
