data_PCOD8276272
_publ_section_title
;
Structure prediction by ZEFSAII (Michael W. Deem and Ramdas Pophale) SiO2 
 PCOD8276272
Probable space group: C C C M
;
_chemical_formula_sum "Si O2"
_cell_formula_units_Z 80
_cell_length_a 24.769479
_cell_length_b 29.266536
_cell_length_c 7.966923
_cell_angle_alpha 90.000000
_cell_angle_beta 90.000000
_cell_angle_gamma 90.000000
_cell_volume 5775.356716
_symmetry_space_group_name_H-M "C C C M"
_symmetry_group_IT_number 66
_symmetry_cell_setting 'orthorhombic'
loop_
_space_group_symop_operation_xyz
x,y,z
-x,-y,z
x,-y,1/2-z
-x,y,1/2-z
-x,-y,-z
x,y,-z
-x,y,1/2+z
x,-y,1/2+z
1/2+x,1/2+y,z
1/2-x,1/2-y,z
1/2+x,1/2-y,1/2-z
1/2-x,1/2+y,1/2-z
1/2-x,1/2-y,-z
1/2+x,1/2+y,-z
1/2-x,1/2+y,1/2+z
1/2+x,1/2-y,1/2+z
loop_
_atom_site_type_symbol
_atom_site_label
_atom_site_fract_x
_atom_site_fract_y
_atom_site_fract_z
Si Si1 0.232111 0.176205 0.000000
Si Si2 0.338033 0.238497 0.000000
Si Si3 0.941469 0.387883 0.690831
Si Si4 0.271178 0.130240 0.686393
Si Si5 0.848783 0.449164 0.805647
Si Si6 0.624865 0.192820 0.817038
O O1 0.229125 0.144895 0.831863
O O2 0.287119 0.204869 0.000000
O O3 0.180349 0.209016 0.000000
O O4 0.374165 0.229874 0.166847
O O5 0.942780 0.371984 0.500000
O O6 0.900777 0.430420 0.707548
O O7 0.922957 0.343834 0.796273
O O8 0.000000 0.404526 0.750000
O O9 0.243707 0.129074 0.500000
O O10 0.295698 0.080871 0.734167
O O11 0.318913 0.166577 0.683235
O O12 0.835015 0.500000 0.750000
O O13 0.863457 0.446350 0.000000
O O14 0.616975 0.216782 0.000000
#
# Coordination Sequence:
#
# PCOD8276272 Si02
#       6
#     8   8  16  16  16  16
#     4   9  16  24  42  56  77  95 121 141 187 234
#     4   9  16  26  38  62  73  97 119 145 183 236
#     4  11  20  31  44  57  74  97 129 165 204 245
#     4   8  16  27  39  55  75  96 119 150 187 231
#     4  10  20  31  43  58  73  97 130 164 206 244
#     4   9  16  28  41  55  76  97 119 150 189 230
#
# _framework density 13.851959000000001
#
# number of rings (size 3 to 8) (size 9 to 14) (size 15 to 20)
#    0.000    2.600    1.000    3.600    5.600    1.200 
#    0.000    6.000    0.000    0.000    0.000    0.000 
#    0.000    0.000    0.000    0.000    0.000    0.000 
#
# Total GULP energy -495809.307784 kJ/mol
# GULP energy per Si atom -12395.232695 kJ/mol
# Density = 1.382043 g / cm^3
# Si number density = 13.851959 Si / 1000 Ang^3
#
#
#
# Elastic Constant Matrix: (Units=GPa)
#
#
# Indices 1 2 3 4 5 6 
#
# 1 15.0784 31.1352 21.5546 0.0000 0.0000 0.0000
# 2 31.1352 72.1044 46.9256 0.0000 0.0000 0.0000
# 3 21.5546 46.9256 119.7689 0.0000 0.0000 0.0000
# 4 0.0000 0.0000 0.0000 19.0694 0.0000 0.0000
# 5 0.0000 0.0000 0.0000 0.0000 11.0602 0.0000
# 6 0.0000 0.0000 0.0000 0.0000 0.0000 -1.0440
#
#
#
# Elastic Compliance Matrix: (Units=1/GPa)
#
#
# Indices 1 2 3 4 5 6 
#
# 1 0.619106 -0.261502 -0.008963 0.000000 0.000000 0.000000
# 2 -0.261502 0.129070 -0.003508 0.000000 0.000000 0.000000
# 3 -0.008963 -0.003508 0.011337 0.000000 0.000000 0.000000
# 4 0.000000 0.000000 0.000000 0.052440 0.000000 0.000000
# 5 0.000000 0.000000 0.000000 0.000000 0.090414 0.000000
# 6 0.000000 0.000000 0.000000 0.000000 0.000000 -0.957856
#
#
# Mechanical properties :
#
#
# Convention : Reuss Voigt Hill
#
# Bulk Modulus (GPa) = 4.72661 45.13141 24.92901
# Shear Modulus (GPa) = 8.88134 12.97287 10.92710
#
# Velocity S-wave (km/s) = 2.53486 3.06361 2.81169
# Velocity P-wave (km/s) = 3.46223 6.72058 5.34571
#
# Compressibility (1/GPa) = 0.21156799
#
# Stress axis : x y z
#
# Youngs Moduli (GPa) = 1.61523 7.74772 88.20838
#
# Poissons Ratio (x) = 2.02604 0.79061
# Poissons Ratio (y) = 0.42239 0.30941
# Poissons Ratio (z) = 0.01448 0.02718
#
# Static dielectric constant tensor:
#      x y z
#    x 2.356050 0.000000 0.000000 
#    y 0.000000 2.721400 0.000000 
#    z 0.000000 0.000000 3.158550 
# 
# 
# High freq. dielectric constant tensor:
#      x y z
#    x 1.463580 0.000000 0.000000 
#    y 0.000000 1.496980 0.000000 
#    z 0.000000 0.000000 1.557830 
# 
# From -- ./inp_files/6754.got.cif
#   From: 2010.03.12/outbox.cif.g09.slc.cpg/sg66_4_cif.got.tgz:6754.got - 2010.04.10 21:57:39.
