data_PCOD8276072
_publ_section_title
;
Structure prediction by ZEFSAII (Michael W. Deem and Ramdas Pophale) SiO2 
 PCOD8276072
Probable space group: C C C M
;
_chemical_formula_sum "Si O2"
_cell_formula_units_Z 80
_cell_length_a 29.137424
_cell_length_b 7.970485
_cell_length_c 16.353664
_cell_angle_alpha 90.000000
_cell_angle_beta 90.000000
_cell_angle_gamma 90.000000
_cell_volume 3797.965130
_symmetry_space_group_name_H-M "C C C M"
_symmetry_group_IT_number 66
_symmetry_cell_setting 'orthorhombic'
loop_
_space_group_symop_operation_xyz
x,y,z
-x,-y,z
x,-y,1/2-z
-x,y,1/2-z
-x,-y,-z
x,y,-z
-x,y,1/2+z
x,-y,1/2+z
1/2+x,1/2+y,z
1/2-x,1/2-y,z
1/2+x,1/2-y,1/2-z
1/2-x,1/2+y,1/2-z
1/2-x,1/2-y,-z
1/2+x,1/2+y,-z
1/2-x,1/2+y,1/2+z
1/2+x,1/2-y,1/2+z
loop_
_atom_site_type_symbol
_atom_site_label
_atom_site_fract_x
_atom_site_fract_y
_atom_site_fract_z
Si Si1 0.142918 0.434392 0.594638
Si Si2 0.642329 0.568185 0.403819
Si Si3 0.547262 0.413485 0.595133
Si Si4 0.197713 0.751262 0.402245
Si Si5 0.450450 0.052867 0.156911
O O1 0.155072 0.428896 0.500000
O O2 0.155937 0.251499 0.633006
O O3 0.172379 0.585880 0.634702
O O4 0.088747 0.464148 0.604087
O O5 0.650661 0.571104 0.500000
O O6 0.588741 0.539057 0.384699
O O7 0.673383 0.418710 0.366222
O O8 0.500000 0.500000 0.620829
O O9 0.547270 0.360014 0.500000
O O10 0.554675 0.251878 0.650854
O O11 0.193870 0.750242 0.500000
O O12 0.250000 0.750000 0.372315
O O13 0.500000 0.000000 0.121307
O O14 0.444650 0.000000 0.250000
#
# Coordination Sequence:
#
# PCOD8276072 Si02
#       5
#    16  16  16  16  16
#     4  10  19  34  57  81 110 147 189 237 282 336
#     4   9  17  30  50  81 111 139 182 226 276 335
#     4  10  19  34  58  84 112 148 192 243 289 339
#     4   9  17  30  51  82 116 144 176 232 292 333
#     4  11  23  37  52  80 116 150 189 229 285 353
#
# _framework density 21.063912999999999
#
# number of rings (size 3 to 8) (size 9 to 14) (size 15 to 20)
#    0.000    2.200    2.000    1.800    0.000    4.000 
#    0.000   11.000    0.000    0.000    5.200    0.000 
#    0.000    0.000    0.000    0.000    0.000    0.000 
#
# Total GULP energy -495888.758012 kJ/mol
# GULP energy per Si atom -12397.218950 kJ/mol
# Density = 2.101597 g / cm^3
# Si number density = 21.063913 Si / 1000 Ang^3
#
#
#
# Elastic Constant Matrix: (Units=GPa)
#
#
# Indices 1 2 3 4 5 6 
#
# 1 158.2047 89.8061 1.1490 0.0000 0.0000 0.0000
# 2 89.8061 229.9462 20.5624 0.0000 0.0000 0.0000
# 3 1.1490 20.5624 16.4391 0.0000 0.0000 0.0000
# 4 0.0000 0.0000 0.0000 16.7240 0.0000 0.0000
# 5 0.0000 0.0000 0.0000 0.0000 8.0188 0.0000
# 6 0.0000 0.0000 0.0000 0.0000 0.0000 29.0690
#
#
#
# Elastic Compliance Matrix: (Units=1/GPa)
#
#
# Indices 1 2 3 4 5 6 
#
# 1 0.008341 -0.003609 0.003932 0.000000 0.000000 0.000000
# 2 -0.003609 0.006458 -0.007826 0.000000 0.000000 0.000000
# 3 0.003932 -0.007826 0.070344 0.000000 0.000000 0.000000
# 4 0.000000 0.000000 0.000000 0.059794 0.000000 0.000000
# 5 0.000000 0.000000 0.000000 0.000000 0.124708 0.000000
# 6 0.000000 0.000000 0.000000 0.000000 0.000000 0.034401
#
#
# Mechanical properties :
#
#
# Convention : Reuss Voigt Hill
#
# Bulk Modulus (GPa) = 14.25786 69.73610 41.99698
# Shear Modulus (GPa) = 14.60141 30.30053 22.45097
#
# Velocity S-wave (km/s) = 2.63572 3.79688 3.26828
# Velocity P-wave (km/s) = 4.00577 7.23882 5.85007
#
# Compressibility (1/GPa) = 0.07013677
#
# Stress axis : x y z
#
# Youngs Moduli (GPa) = 119.88710 154.84080 14.21575
#
# Poissons Ratio (x) = 0.55886 -0.05589
# Poissons Ratio (y) = 0.43270 0.11125
# Poissons Ratio (z) = -0.47134 1.21176
#
# Static dielectric constant tensor:
#      x y z
#    x 3.897780 0.000000 0.000000 
#    y 0.000000 4.369560 0.000000 
#    z 0.000000 0.000000 3.115650 
# 
# 
# High freq. dielectric constant tensor:
#      x y z
#    x 1.824330 0.000000 0.000000 
#    y 0.000000 1.847670 0.000000 
#    z 0.000000 0.000000 1.762250 
# 
# From -- ./inp_files/44613.got.cif
#   From: 2010.03.12/outbox.cif.g09.slc.cpg/sg66_23_cif.got.tgz:44613.got - 2010.04.10 21:57:39.
