data_PCOD8276917
_publ_section_title
;
Structure prediction by ZEFSAII (Michael W. Deem and Ramdas Pophale) SiO2 
 PCOD8276917
Probable space group: C C C M
;
_chemical_formula_sum "Si O2"
_cell_formula_units_Z 80
_cell_length_a 11.176722
_cell_length_b 26.072445
_cell_length_c 13.842486
_cell_angle_alpha 90.000000
_cell_angle_beta 90.000000
_cell_angle_gamma 90.000000
_cell_volume 4033.762291
_symmetry_space_group_name_H-M "C C C M"
_symmetry_group_IT_number 66
_symmetry_cell_setting 'orthorhombic'
loop_
_space_group_symop_operation_xyz
x,y,z
-x,-y,z
x,-y,1/2-z
-x,y,1/2-z
-x,-y,-z
x,y,-z
-x,y,1/2+z
x,-y,1/2+z
1/2+x,1/2+y,z
1/2-x,1/2-y,z
1/2+x,1/2-y,1/2-z
1/2-x,1/2+y,1/2-z
1/2-x,1/2-y,-z
1/2+x,1/2+y,-z
1/2-x,1/2+y,1/2+z
1/2+x,1/2-y,1/2+z
loop_
_atom_site_type_symbol
_atom_site_label
_atom_site_fract_x
_atom_site_fract_y
_atom_site_fract_z
Si Si1 0.993030 0.582585 0.609792
Si Si2 0.465501 0.299047 0.612041
Si Si3 0.182891 0.839012 0.719099
Si Si4 0.699799 0.056153 0.252384
Si Si5 0.087445 0.693235 0.390059
O O1 0.000079 0.565112 0.500000
O O2 0.863889 0.567755 0.650608
O O3 0.099669 0.553625 0.664158
O O4 0.005845 0.643497 0.624363
O O5 0.431614 0.306874 0.500000
O O6 0.576910 0.334851 0.641030
O O7 0.351743 0.314263 0.677498
O O8 0.503075 0.240833 0.636162
O O9 0.203271 0.899980 0.727784
O O10 0.298751 0.808738 0.680524
O O11 0.762344 0.000000 0.250000
O O12 0.135266 0.697442 0.500000
#
# Coordination Sequence:
#
# PCOD8276917 Si02
#       5
#    16  16  16  16  16
#     4   9  18  33  54  82 111 135 165 211 266 322
#     4  10  21  37  56  80 109 140 174 212 254 307
#     4  10  21  35  56  78 103 139 177 216 259 308
#     4  10  21  35  52  77 106 138 178 221 263 305
#     4   9  18  34  57  82 108 137 168 206 258 319
#
# _framework density 19.832601
#
# number of rings (size 3 to 8) (size 9 to 14) (size 15 to 20)
#    0.000    2.400    0.000    2.400    0.000   12.800 
#    0.000    2.000    0.000   15.600    0.000    0.000 
#    0.000    0.000    0.000    0.000    0.000    0.000 
#
# Total GULP energy -496032.919858 kJ/mol
# GULP energy per Si atom -12400.822996 kJ/mol
# Density = 1.978746 g / cm^3
# Si number density = 19.832601 Si / 1000 Ang^3
#
#
#
# Elastic Constant Matrix: (Units=GPa)
#
#
# Indices 1 2 3 4 5 6 
#
# 1 54.5173 41.7494 34.8704 0.0000 0.0000 0.0000
# 2 41.7494 142.5990 38.3161 0.0000 0.0000 0.0000
# 3 34.8704 38.3161 131.0727 0.0000 0.0000 0.0000
# 4 0.0000 0.0000 0.0000 19.8039 0.0000 0.0000
# 5 0.0000 0.0000 0.0000 0.0000 30.9731 0.0000
# 6 0.0000 0.0000 0.0000 0.0000 0.0000 17.8477
#
#
#
# Elastic Compliance Matrix: (Units=1/GPa)
#
#
# Indices 1 2 3 4 5 6 
#
# 1 0.026552 -0.006377 -0.005200 0.000000 0.000000 0.000000
# 2 -0.006377 0.009142 -0.000976 0.000000 0.000000 0.000000
# 3 -0.005200 -0.000976 0.009298 0.000000 0.000000 0.000000
# 4 0.000000 0.000000 0.000000 0.050495 0.000000 0.000000
# 5 0.000000 0.000000 0.000000 0.000000 0.032286 0.000000
# 6 0.000000 0.000000 0.000000 0.000000 0.000000 0.056030
#
#
# Mechanical properties :
#
#
# Convention : Reuss Voigt Hill
#
# Bulk Modulus (GPa) = 50.28402 62.00674 56.14538
# Shear Modulus (GPa) = 23.19798 27.94183 25.56991
#
# Velocity S-wave (km/s) = 3.42378 3.75758 3.59456
# Velocity P-wave (km/s) = 6.40617 7.08229 6.75270
#
# Compressibility (1/GPa) = 0.01988704
#
# Stress axis : x y z
#
# Youngs Moduli (GPa) = 37.66216 109.38755 107.54996
#
# Poissons Ratio (x) = 0.69751 0.55924
# Poissons Ratio (y) = 0.24015 0.10497
# Poissons Ratio (z) = 0.19584 0.10676
#
# Static dielectric constant tensor:
#      x y z
#    x 3.316350 0.000000 0.000000 
#    y 0.000000 3.690910 0.000000 
#    z 0.000000 0.000000 3.814280 
# 
# 
# High freq. dielectric constant tensor:
#      x y z
#    x 1.739310 0.000000 0.000000 
#    y 0.000000 1.778540 0.000000 
#    z 0.000000 0.000000 1.785070 
# 
# From -- ./inp_files/26695.got.cif
#   From: 2010.03.12/outbox.cif.g09.slc.cpg/sg66_14_cif.got.tgz:26695.got - 2010.04.10 21:57:39.
