data_PCOD8276988
_publ_section_title
;
Structure prediction by ZEFSAII (Michael W. Deem and Ramdas Pophale) SiO2 
 PCOD8276988
Probable space group: C C C M
;
_chemical_formula_sum "Si O2"
_cell_formula_units_Z 96
_cell_length_a 9.718072
_cell_length_b 31.137762
_cell_length_c 17.946783
_cell_angle_alpha 90.000000
_cell_angle_beta 90.000000
_cell_angle_gamma 90.000000
_cell_volume 5430.678823
_symmetry_space_group_name_H-M "C C C M"
_symmetry_group_IT_number 66
_symmetry_cell_setting 'orthorhombic'
loop_
_space_group_symop_operation_xyz
x,y,z
-x,-y,z
x,-y,1/2-z
-x,y,1/2-z
-x,-y,-z
x,y,-z
-x,y,1/2+z
x,-y,1/2+z
1/2+x,1/2+y,z
1/2-x,1/2-y,z
1/2+x,1/2-y,1/2-z
1/2-x,1/2+y,1/2-z
1/2-x,1/2-y,-z
1/2+x,1/2+y,-z
1/2-x,1/2+y,1/2+z
1/2+x,1/2-y,1/2+z
loop_
_atom_site_type_symbol
_atom_site_label
_atom_site_fract_x
_atom_site_fract_y
_atom_site_fract_z
Si Si1 0.399318 0.234274 0.588606
Si Si2 0.278096 0.389523 0.088211
Si Si3 0.512858 0.858109 0.412325
Si Si4 0.493104 0.450015 0.163149
Si Si5 0.199043 0.891378 0.912611
Si Si6 0.005507 0.820824 0.412726
O O1 0.392971 0.228588 0.500000
O O2 0.250000 0.250000 0.617544
O O3 0.454046 0.189068 0.622573
O O4 0.504169 0.271766 0.616715
O O5 0.353698 0.429082 0.129201
O O6 0.354495 0.344952 0.108464
O O7 0.123798 0.381568 0.119430
O O8 0.282373 0.399109 0.000000
O O9 0.491358 0.852506 0.500000
O O10 0.639710 0.889467 0.393451
O O11 0.500000 0.500000 0.145226
O O12 0.500000 0.440017 0.250000
O O13 0.631974 0.431927 0.127042
O O14 0.125239 0.848007 0.882694
O O15 0.172690 0.896624 0.000000
O O16 0.986414 0.817528 0.500000
#
# Coordination Sequence:
#
# PCOD8276988 Si02
#       6
#    16  16  16  16  16  16
#     4   9  13  19  36  65 103 138 166 193 226 269
#     4   9  18  31  48  73 103 128 158 202 245 284
#     4   9  16  26  43  72 107 135 158 194 239 280
#     4  10  21  37  55  72  89 117 159 204 249 300
#     4   9  16  29  50  74  99 128 159 190 235 292
#     4   8  13  22  38  64  97 133 165 192 225 266
#
# _framework density 17.677347000000001
#
# number of rings (size 3 to 8) (size 9 to 14) (size 15 to 20)
#    0.000    3.000    1.667    1.500    0.000    2.000 
#    0.000    5.000    0.000    5.000    0.000   18.667 
#    0.000    0.000    0.000    0.000    0.000    0.000 
#
# Total GULP energy -594679.059354 kJ/mol
# GULP energy per Si atom -12389.147070 kJ/mol
# Density = 1.763711 g / cm^3
# Si number density = 17.677347 Si / 1000 Ang^3
#
#
#
# Elastic Constant Matrix: (Units=GPa)
#
#
# Indices 1 2 3 4 5 6 
#
# 1 149.7662 75.0602 34.2426 0.0000 0.0000 0.0000
# 2 75.0602 129.7047 42.6127 0.0000 0.0000 0.0000
# 3 34.2426 42.6127 32.0591 0.0000 0.0000 0.0000
# 4 0.0000 0.0000 0.0000 -9.4283 0.0000 0.0000
# 5 0.0000 0.0000 0.0000 0.0000 6.6035 0.0000
# 6 0.0000 0.0000 0.0000 0.0000 0.0000 14.3106
#
#
#
# Elastic Compliance Matrix: (Units=1/GPa)
#
#
# Indices 1 2 3 4 5 6 
#
# 1 0.009877 -0.003994 -0.005241 0.000000 0.000000 0.000000
# 2 -0.003994 0.015302 -0.016073 0.000000 0.000000 0.000000
# 3 -0.005241 -0.016073 0.058154 0.000000 0.000000 0.000000
# 4 0.000000 0.000000 0.000000 -0.106064 0.000000 0.000000
# 5 0.000000 0.000000 0.000000 0.000000 0.151434 0.000000
# 6 0.000000 0.000000 0.000000 0.000000 0.000000 0.069878
#
#
# Mechanical properties :
#
#
# Convention : Reuss Voigt Hill
#
# Bulk Modulus (GPa) = 30.56484 68.37344 49.46914
# Shear Modulus (GPa) = 19.22319 12.93814 16.08066
#
# Velocity S-wave (km/s) = 3.30122 2.70831 3.01936
# Velocity P-wave (km/s) = 5.64435 6.96724 6.34039
#
# Compressibility (1/GPa) = 0.03271733
#
# Stress axis : x y z
#
# Youngs Moduli (GPa) = 101.24410 65.35231 17.19568
#
# Poissons Ratio (x) = 0.26102 0.09012
# Poissons Ratio (y) = 0.40437 0.27638
# Poissons Ratio (z) = 0.53062 1.05039
#
# Static dielectric constant tensor:
#      x y z
#    x 3.621930 0.000000 0.000000 
#    y 0.000000 3.408720 0.000000 
#    z 0.000000 0.000000 2.745000 
# 
# 
# High freq. dielectric constant tensor:
#      x y z
#    x 1.686090 0.000000 0.000000 
#    y 0.000000 1.681500 0.000000 
#    z 0.000000 0.000000 1.620950 
# 
# From -- ./inp_files/38984.got.cif
#   From: 2010.03.12/outbox.cif.g09.slc.cpg/sg66_20_cif.got.tgz:38984.got - 2010.04.10 21:57:39.
