data_PCOD8276827
_publ_section_title
;
Structure prediction by ZEFSAII (Michael W. Deem and Ramdas Pophale) SiO2 
 PCOD8276827
Probable space group: C C C M
;
_chemical_formula_sum "Si O2"
_cell_formula_units_Z 84
_cell_length_a 17.989568
_cell_length_b 25.054287
_cell_length_c 10.188424
_cell_angle_alpha 90.000000
_cell_angle_beta 90.000000
_cell_angle_gamma 90.000000
_cell_volume 4592.083671
_symmetry_space_group_name_H-M "C C C M"
_symmetry_group_IT_number 66
_symmetry_cell_setting 'orthorhombic'
loop_
_space_group_symop_operation_xyz
x,y,z
-x,-y,z
x,-y,1/2-z
-x,y,1/2-z
-x,-y,-z
x,y,-z
-x,y,1/2+z
x,-y,1/2+z
1/2+x,1/2+y,z
1/2-x,1/2-y,z
1/2+x,1/2-y,1/2-z
1/2-x,1/2+y,1/2-z
1/2-x,1/2-y,-z
1/2+x,1/2+y,-z
1/2-x,1/2+y,1/2+z
1/2+x,1/2-y,1/2+z
loop_
_atom_site_type_symbol
_atom_site_label
_atom_site_fract_x
_atom_site_fract_y
_atom_site_fract_z
Si Si1 0.439200 0.899075 0.651086
Si Si2 0.264468 0.312761 0.500000
Si Si3 0.500000 0.000000 0.750000
Si Si4 0.911895 0.875278 0.500000
Si Si5 0.919719 0.873394 0.000000
Si Si6 0.722315 0.127797 0.743774
Si Si7 0.279777 0.690885 0.500000
Si Si8 0.363764 0.436915 0.248286
O O1 0.500000 0.871552 0.750000
O O2 0.445312 0.878169 0.500000
O O3 0.360315 0.889714 0.715437
O O4 0.450444 0.963058 0.653913
O O5 0.250000 0.250000 0.500000
O O6 0.353043 0.326163 0.500000
O O7 0.224239 0.338450 0.623955
O O8 0.902483 0.912581 0.374967
O O9 0.995653 0.852208 0.500000
O O10 0.903422 0.910766 0.123910
O O11 0.869089 0.819416 0.000000
O O12 0.747947 0.165577 0.629188
O O13 0.775691 0.076099 0.750680
O O14 0.250000 0.750000 0.500000
O O15 0.375201 0.500000 0.250000
#
# Coordination Sequence:
#
# PCOD8276827 Si02
#       8
#    16   8   4   8   8  16   8  16
#     4  10  21  37  55  85 119 157 201 235 290 352
#     4  10  22  41  61  83 113 151 196 249 307 349
#     4   8  22  32  58  84 118 172 188 228 302 344
#     4  10  21  38  54  83 114 146 190 228 285 343
#     4  10  21  36  56  81 112 146 186 232 275 337
#     4  10  21  37  58  84 114 149 195 244 284 354
#     4  10  20  39  61  81 107 145 194 241 301 337
#     4  10  21  34  54  85 114 153 185 222 276 336
#
# _framework density 18.292349000000002
#
# number of rings (size 3 to 8) (size 9 to 14) (size 15 to 20)
#    0.571    1.524    0.952    2.000    2.667    2.286 
#    0.000    1.905    0.000    0.000    0.000    0.000 
#    0.000    0.000    0.000    0.000    0.000    0.000 
#
# Total GULP energy -520508.198414 kJ/mol
# GULP energy per Si atom -12393.052343 kJ/mol
# Density = 1.825072 g / cm^3
# Si number density = 18.292349 Si / 1000 Ang^3
#
#
#
# Elastic Constant Matrix: (Units=GPa)
#
#
# Indices 1 2 3 4 5 6 
#
# 1 176.8931 55.9786 58.3858 0.0000 0.0000 0.0000
# 2 55.9786 110.7268 39.2078 0.0000 0.0000 0.0000
# 3 58.3858 39.2078 157.4908 0.0000 0.0000 0.0000
# 4 0.0000 0.0000 0.0000 -14.9772 0.0000 0.0000
# 5 0.0000 0.0000 0.0000 0.0000 11.1035 0.0000
# 6 0.0000 0.0000 0.0000 0.0000 0.0000 16.1857
#
#
#
# Elastic Compliance Matrix: (Units=1/GPa)
#
#
# Indices 1 2 3 4 5 6 
#
# 1 0.007234 -0.002969 -0.001943 0.000000 0.000000 0.000000
# 2 -0.002969 0.011123 -0.001668 0.000000 0.000000 0.000000
# 3 -0.001943 -0.001668 0.007485 0.000000 0.000000 0.000000
# 4 0.000000 0.000000 0.000000 -0.066768 0.000000 0.000000
# 5 0.000000 0.000000 0.000000 0.000000 0.090062 0.000000
# 6 0.000000 0.000000 0.000000 0.000000 0.000000 0.061783
#
#
# Mechanical properties :
#
#
# Convention : Reuss Voigt Hill
#
# Bulk Modulus (GPa) = 78.85379 83.58389 81.21884
# Shear Modulus (GPa) = 38.96920 21.89831 30.43375
#
# Velocity S-wave (km/s) = 4.62058 3.46371 4.08332
# Velocity P-wave (km/s) = 8.46567 7.86059 8.16873
#
# Compressibility (1/GPa) = 0.01268170
#
# Stress axis : x y z
#
# Youngs Moduli (GPa) = 138.23693 89.90264 133.59906
#
# Poissons Ratio (x) = 0.26695 0.25953
# Poissons Ratio (y) = 0.41047 0.22289
# Poissons Ratio (z) = 0.26854 0.14999
#
# Static dielectric constant tensor:
#      x y z
#    x 3.621110 0.000000 0.000000 
#    y 0.000000 3.186800 0.000000 
#    z 0.000000 0.000000 3.590640 
# 
# 
# High freq. dielectric constant tensor:
#      x y z
#    x 1.715280 0.000000 0.000000 
#    y 0.000000 1.682460 0.000000 
#    z 0.000000 0.000000 1.734470 
# 
# From -- ./inp_files/16519.got.cif
#   From: 2010.03.12/outbox.cif.g09.slc.cpg/sg66_9_cif.got.tgz:16519.got - 2010.04.10 21:57:39.
