data_PCOD8276291
_publ_section_title
;
Structure prediction by ZEFSAII (Michael W. Deem and Ramdas Pophale) SiO2 
 PCOD8276291
Probable space group: C C C M
;
_chemical_formula_sum "Si O2"
_cell_formula_units_Z 88
_cell_length_a 13.166695
_cell_length_b 28.594208
_cell_length_c 14.147948
_cell_angle_alpha 90.000000
_cell_angle_beta 90.000000
_cell_angle_gamma 90.000000
_cell_volume 5326.578139
_symmetry_space_group_name_H-M "C C C M"
_symmetry_group_IT_number 66
_symmetry_cell_setting 'orthorhombic'
loop_
_space_group_symop_operation_xyz
x,y,z
-x,-y,z
x,-y,1/2-z
-x,y,1/2-z
-x,-y,-z
x,y,-z
-x,y,1/2+z
x,-y,1/2+z
1/2+x,1/2+y,z
1/2-x,1/2-y,z
1/2+x,1/2-y,1/2-z
1/2-x,1/2+y,1/2-z
1/2-x,1/2-y,-z
1/2+x,1/2+y,-z
1/2-x,1/2+y,1/2+z
1/2+x,1/2-y,1/2+z
loop_
_atom_site_type_symbol
_atom_site_label
_atom_site_fract_x
_atom_site_fract_y
_atom_site_fract_z
Si Si1 0.332350 0.208489 0.749819
Si Si2 0.308150 0.377892 0.257470
Si Si3 0.392900 0.442962 0.890425
Si Si4 0.506145 0.236422 0.613751
Si Si5 0.124563 0.048381 0.609661
Si Si6 0.500000 0.681895 0.750000
O O1 0.250000 0.250000 0.757517
O O2 0.287112 0.156566 0.741958
O O3 0.399593 0.217537 0.655766
O O4 0.400377 0.205917 0.845292
O O5 0.323214 0.403715 0.157547
O O6 0.296106 0.418274 0.336427
O O7 0.406084 0.348131 0.283514
O O8 0.509937 0.439519 0.857110
O O9 0.351127 0.494548 0.865495
O O10 0.385625 0.433025 0.000000
O O11 0.504015 0.236590 0.500000
O O12 0.527730 0.287702 0.657231
O O13 0.137842 0.057867 0.500000
#
# Coordination Sequence:
#
# PCOD8276291 Si02
#       6
#    16  16  16  16  16   8
#     4  10  21  38  51  78 104 127 175 219 247 306
#     4  12  18  31  51  74 105 137 169 206 249 290
#     4   9  18  30  45  71 106 140 170 200 244 303
#     4  10  22  40  54  67 102 142 168 213 266 295
#     4   9  18  30  45  71 106 140 170 200 244 303
#     4  10  20  32  47  80 106 128 175 218 238 304
#
# _framework density 16.520924999999998
#
# number of rings (size 3 to 8) (size 9 to 14) (size 15 to 20)
#    0.000    2.182    5.455    1.636    0.000    5.091 
#    0.000    0.000    0.000    0.000    0.000   10.182 
#    0.000   17.455    0.000    0.000    0.000    0.000 
#
# Total GULP energy -545279.526394 kJ/mol
# GULP energy per Si atom -12392.716509 kJ/mol
# Density = 1.648332 g / cm^3
# Si number density = 16.520925 Si / 1000 Ang^3
#
#
#
# Elastic Constant Matrix: (Units=GPa)
#
#
# Indices 1 2 3 4 5 6 
#
# 1 67.6914 33.4380 27.5530 0.0000 0.0000 0.0000
# 2 33.4380 99.4984 36.2166 0.0000 0.0000 0.0000
# 3 27.5530 36.2166 114.5203 0.0000 0.0000 0.0000
# 4 0.0000 0.0000 0.0000 -152.7129 0.0000 0.0000
# 5 0.0000 0.0000 0.0000 0.0000 19.4672 0.0000
# 6 0.0000 0.0000 0.0000 0.0000 0.0000 23.9088
#
#
#
# Elastic Compliance Matrix: (Units=1/GPa)
#
#
# Indices 1 2 3 4 5 6 
#
# 1 0.018478 -0.005189 -0.002805 0.000000 0.000000 0.000000
# 2 -0.005189 0.012815 -0.002804 0.000000 0.000000 0.000000
# 3 -0.002805 -0.002804 0.010294 0.000000 0.000000 0.000000
# 4 0.000000 0.000000 0.000000 -0.006548 0.000000 0.000000
# 5 0.000000 0.000000 0.000000 0.000000 0.051368 0.000000
# 6 0.000000 0.000000 0.000000 0.000000 0.000000 0.041826
#
#
# Mechanical properties :
#
#
# Convention : Reuss Voigt Hill
#
# Bulk Modulus (GPa) = 50.02313 52.90283 51.46298
# Shear Modulus (GPa) = 31.95068 -9.56719 11.19174
#
# Velocity S-wave (km/s) = 4.40244 -2.40905 2.60557
# Velocity P-wave (km/s) = 7.49576 4.93490 6.34585
#
# Compressibility (1/GPa) = 0.01999075
#
# Stress axis : x y z
#
# Youngs Moduli (GPa) = 54.11930 78.03398 97.14673
#
# Poissons Ratio (x) = 0.40491 0.27247
# Poissons Ratio (y) = 0.28082 0.27243
# Poissons Ratio (z) = 0.15179 0.21883
#
# Static dielectric constant tensor:
#      x y z
#    x 3.231880 0.000000 0.000000 
#    y 0.000000 3.247420 0.000000 
#    z 0.000000 0.000000 3.102610 
# 
# 
# High freq. dielectric constant tensor:
#      x y z
#    x 1.596240 0.000000 0.000000 
#    y 0.000000 1.644160 0.000000 
#    z 0.000000 0.000000 1.639300 
# 
# From -- ./inp_files/26871.got.cif
#   From: 2010.03.12/outbox.cif.g09.slc.cpg/sg66_14_cif.got.tgz:26871.got - 2010.04.10 21:57:39.
