data_PCOD8276766
_publ_section_title
;
Structure prediction by ZEFSAII (Michael W. Deem and Ramdas Pophale) SiO2 
 PCOD8276766
Probable space group: C C C M
;
_chemical_formula_sum "Si O2"
_cell_formula_units_Z 64
_cell_length_a 17.505865
_cell_length_b 9.871498
_cell_length_c 14.554289
_cell_angle_alpha 90.000000
_cell_angle_beta 90.000000
_cell_angle_gamma 90.000000
_cell_volume 2515.113748
_symmetry_space_group_name_H-M "C C C M"
_symmetry_group_IT_number 66
_symmetry_cell_setting 'orthorhombic'
loop_
_space_group_symop_operation_xyz
x,y,z
-x,-y,z
x,-y,1/2-z
-x,y,1/2-z
-x,-y,-z
x,y,-z
-x,y,1/2+z
x,-y,1/2+z
1/2+x,1/2+y,z
1/2-x,1/2-y,z
1/2+x,1/2-y,1/2-z
1/2-x,1/2+y,1/2-z
1/2-x,1/2-y,-z
1/2+x,1/2+y,-z
1/2-x,1/2+y,1/2+z
1/2+x,1/2-y,1/2+z
loop_
_atom_site_type_symbol
_atom_site_label
_atom_site_fract_x
_atom_site_fract_y
_atom_site_fract_z
Si Si1 0.014422 0.344605 0.391211
Si Si2 0.686248 0.849426 0.390547
Si Si3 0.264403 0.607592 0.395805
Si Si4 0.933138 0.919613 0.154341
O O1 0.000296 0.329855 0.500000
O O2 0.101081 0.306564 0.361861
O O3 0.000000 0.500000 0.360461
O O4 0.957714 0.239988 0.338741
O O5 0.692791 0.853303 0.500000
O O6 0.750000 0.750000 0.348792
O O7 0.709547 0.996177 0.349508
O O8 0.236731 0.623740 0.500000
O O9 0.250000 0.750000 0.343305
O O10 0.352916 0.565073 0.396009
O O11 0.926115 0.000000 0.250000
O O12 0.000000 0.000000 0.097919
#
# Coordination Sequence:
#
# PCOD8276766 Si02
#       4
#    16  16  16  16
#     4  10  20  37  65  96 123 158 210 273 329 373
#     4   9  17  30  53  88 121 148 189 251 320 375
#     4  10  20  37  64  95 124 158 209 273 329 378
#     4  11  24  41  58  89 134 178 220 257 317 399
#
# _framework density 25.446165000000001
#
# number of rings (size 3 to 8) (size 9 to 14) (size 15 to 20)
#    0.000    2.000    0.000    3.750    0.000    8.000 
#    0.000    8.750    0.000    0.000    0.000    0.000 
#    0.000    0.000    0.000    0.000    0.000    0.000 
#
# Total GULP energy -396520.902908 kJ/mol
# GULP energy per Si atom -12391.278216 kJ/mol
# Density = 2.538825 g / cm^3
# Si number density = 25.446165 Si / 1000 Ang^3
#
#
#
# Elastic Constant Matrix: (Units=GPa)
#
#
# Indices 1 2 3 4 5 6 
#
# 1 91.7729 6.6768 13.3683 0.0000 0.0000 0.0000
# 2 6.6768 164.4104 33.9430 0.0000 0.0000 0.0000
# 3 13.3683 33.9430 44.7061 0.0000 0.0000 0.0000
# 4 0.0000 0.0000 0.0000 13.3037 0.0000 0.0000
# 5 0.0000 0.0000 0.0000 0.0000 15.6948 0.0000
# 6 0.0000 0.0000 0.0000 0.0000 0.0000 55.6506
#
#
#
# Elastic Compliance Matrix: (Units=1/GPa)
#
#
# Indices 1 2 3 4 5 6 
#
# 1 0.011404 0.000286 -0.003627 0.000000 0.000000 0.000000
# 2 0.000286 0.007220 -0.005567 0.000000 0.000000 0.000000
# 3 -0.003627 -0.005567 0.027680 0.000000 0.000000 0.000000
# 4 0.000000 0.000000 0.000000 0.075167 0.000000 0.000000
# 5 0.000000 0.000000 0.000000 0.000000 0.063715 0.000000
# 6 0.000000 0.000000 0.000000 0.000000 0.000000 0.017969
#
#
# Mechanical properties :
#
#
# Convention : Reuss Voigt Hill
#
# Bulk Modulus (GPa) = 35.10404 45.42951 40.26677
# Shear Modulus (GPa) = 21.69494 33.38990 27.54242
#
# Velocity S-wave (km/s) = 2.92307 3.62633 3.29352
# Velocity P-wave (km/s) = 5.02173 5.95194 5.50652
#
# Compressibility (1/GPa) = 0.02848675
#
# Stress axis : x y z
#
# Youngs Moduli (GPa) = 87.68835 138.50182 36.12736
#
# Poissons Ratio (x) = -0.03957 0.13103
# Poissons Ratio (y) = -0.02505 0.20113
# Poissons Ratio (z) = 0.31805 0.77108
#
# Static dielectric constant tensor:
#      x y z
#    x 4.469810 0.000000 0.000000 
#    y 0.000000 5.169700 0.000000 
#    z 0.000000 0.000000 3.912750 
# 
# 
# High freq. dielectric constant tensor:
#      x y z
#    x 2.022590 0.000000 0.000000 
#    y 0.000000 2.035950 0.000000 
#    z 0.000000 0.000000 1.972610 
# 
# From -- ./inp_files/50503.got.cif
#   From: 2010.03.12/outbox.cif.g09.slc.cpg/sg66_26_cif.got.tgz:50503.got - 2010.04.10 21:57:39.
