data_PCOD8276131
_publ_section_title
;
Structure prediction by ZEFSAII (Michael W. Deem and Ramdas Pophale) SiO2 
 PCOD8276131
Probable space group: C C C M
;
_chemical_formula_sum "Si O2"
_cell_formula_units_Z 116
_cell_length_a 25.666497
_cell_length_b 24.833694
_cell_length_c 9.226774
_cell_angle_alpha 90.000000
_cell_angle_beta 90.000000
_cell_angle_gamma 90.000000
_cell_volume 5881.089765
_symmetry_space_group_name_H-M "C C C M"
_symmetry_group_IT_number 66
_symmetry_cell_setting 'orthorhombic'
loop_
_space_group_symop_operation_xyz
x,y,z
-x,-y,z
x,-y,1/2-z
-x,y,1/2-z
-x,-y,-z
x,y,-z
-x,y,1/2+z
x,-y,1/2+z
1/2+x,1/2+y,z
1/2-x,1/2-y,z
1/2+x,1/2-y,1/2-z
1/2-x,1/2+y,1/2-z
1/2-x,1/2-y,-z
1/2+x,1/2+y,-z
1/2-x,1/2+y,1/2+z
1/2+x,1/2-y,1/2+z
loop_
_atom_site_type_symbol
_atom_site_label
_atom_site_fract_x
_atom_site_fract_y
_atom_site_fract_z
Si Si1 0.601668 0.451418 0.160306
Si Si2 0.227167 0.651333 0.326342
Si Si3 0.550080 0.166891 0.171909
Si Si4 0.653618 0.773163 0.332309
Si Si5 0.834380 0.849479 0.332444
Si Si6 0.500000 0.500000 0.250000
Si Si7 0.932382 0.451923 0.157913
Si Si8 0.689136 0.950204 0.662143
O O1 0.628408 0.500000 0.250000
O O2 0.620848 0.392624 0.214911
O O3 0.538305 0.459243 0.161698
O O4 0.622734 0.459011 0.000000
O O5 0.224429 0.650936 0.500000
O O6 0.202405 0.706852 0.264689
O O7 0.285970 0.643212 0.273975
O O8 0.194204 0.603165 0.257543
O O9 0.500000 0.193227 0.250000
O O10 0.601221 0.198491 0.222361
O O11 0.555541 0.105741 0.229807
O O12 0.543669 0.170451 0.000000
O O13 0.666055 0.787275 0.500000
O O14 0.643220 0.710070 0.309945
O O15 0.817356 0.857666 0.500000
O O16 0.957812 0.500000 0.250000
O O17 0.871274 0.461368 0.142366
O O18 0.958421 0.453692 0.000000
O O19 0.714299 0.944600 0.500000
O O20 0.715290 0.000000 0.750000
#
# Coordination Sequence:
#
# PCOD8276131 Si02
#       8
#    16  16  16  16  16   4  16  16
#     4   9  19  36  61  92 122 156 196 239 291 355
#     4  12  24  37  58  88 121 157 199 253 310 361
#     4  10  21  38  57  82 112 148 191 240 296 352
#     4  10  21  42  64  80 111 159 205 248 299 366
#     4  10  22  40  62  87 117 158 204 244 294 363
#     4   8  18  36  66  92 126 160 198 240 298 356
#     4   9  18  33  54  78 107 141 184 233 279 336
#     4  10  19  35  57  83 115 154 199 241 290 352
#
# _framework density 19.724236000000001
#
# number of rings (size 3 to 8) (size 9 to 14) (size 15 to 20)
#    0.414    1.655    1.379    2.276    0.000    5.241 
#    1.241    2.759    0.000    0.000    0.000    0.000 
#    0.000    0.000    0.000    0.000    0.000    0.000 
#
# Total GULP energy -718804.947875 kJ/mol
# GULP energy per Si atom -12393.188756 kJ/mol
# Density = 1.967934 g / cm^3
# Si number density = 19.724236 Si / 1000 Ang^3
#
#
#
# Elastic Constant Matrix: (Units=GPa)
#
#
# Indices 1 2 3 4 5 6 
#
# 1 92.7088 47.5880 39.1623 0.0000 0.0000 0.0000
# 2 47.5880 138.6723 55.7813 0.0000 0.0000 0.0000
# 3 39.1623 55.7813 106.3531 0.0000 0.0000 0.0000
# 4 0.0000 0.0000 0.0000 26.7430 0.0000 0.0000
# 5 0.0000 0.0000 0.0000 0.0000 27.8590 0.0000
# 6 0.0000 0.0000 0.0000 0.0000 0.0000 6.7611
#
#
#
# Elastic Compliance Matrix: (Units=1/GPa)
#
#
# Indices 1 2 3 4 5 6 
#
# 1 0.013966 -0.003452 -0.003332 0.000000 0.000000 0.000000
# 2 -0.003452 0.009993 -0.003970 0.000000 0.000000 0.000000
# 3 -0.003332 -0.003970 0.012712 0.000000 0.000000 0.000000
# 4 0.000000 0.000000 0.000000 0.037393 0.000000 0.000000
# 5 0.000000 0.000000 0.000000 0.000000 0.035895 0.000000
# 6 0.000000 0.000000 0.000000 0.000000 0.000000 0.147905
#
#
# Mechanical properties :
#
#
# Convention : Reuss Voigt Hill
#
# Bulk Modulus (GPa) = 65.95363 69.19970 67.57666
# Shear Modulus (GPa) = 17.57924 25.28612 21.43268
#
# Velocity S-wave (km/s) = 2.98862 3.58436 3.29996
# Velocity P-wave (km/s) = 6.73941 7.23118 6.98962
#
# Compressibility (1/GPa) = 0.01516217
#
# Stress axis : x y z
#
# Youngs Moduli (GPa) = 71.60190 100.07079 78.66746
#
# Poissons Ratio (x) = 0.34549 0.26212
# Poissons Ratio (y) = 0.24720 0.31230
# Poissons Ratio (z) = 0.23857 0.39727
#
# Static dielectric constant tensor:
#      x y z
#    x 3.410580 0.000000 0.000000 
#    y 0.000000 3.708230 0.000000 
#    z 0.000000 0.000000 3.676860 
# 
# 
# High freq. dielectric constant tensor:
#      x y z
#    x 1.757040 0.000000 0.000000 
#    y 0.000000 1.769770 0.000000 
#    z 0.000000 0.000000 1.761180 
# 
# From -- ./inp_files/11724.got.cif
#   From: 2010.03.12/outbox.cif.g09.slc.cpg/sg66_6_cif.got.tgz:11724.got - 2010.04.10 21:57:39.
