data_PCOD8276156
_publ_section_title
;
Structure prediction by ZEFSAII (Michael W. Deem and Ramdas Pophale) SiO2 
 PCOD8276156
Probable space group: C C C M
;
_chemical_formula_sum "Si O2"
_cell_formula_units_Z 112
_cell_length_a 15.798272
_cell_length_b 14.147644
_cell_length_c 23.951140
_cell_angle_alpha 90.000000
_cell_angle_beta 90.000000
_cell_angle_gamma 90.000000
_cell_volume 5353.279257
_symmetry_space_group_name_H-M "C C C M"
_symmetry_group_IT_number 66
_symmetry_cell_setting 'orthorhombic'
loop_
_space_group_symop_operation_xyz
x,y,z
-x,-y,z
x,-y,1/2-z
-x,y,1/2-z
-x,-y,-z
x,y,-z
-x,y,1/2+z
x,-y,1/2+z
1/2+x,1/2+y,z
1/2-x,1/2-y,z
1/2+x,1/2-y,1/2-z
1/2-x,1/2+y,1/2-z
1/2-x,1/2-y,-z
1/2+x,1/2+y,-z
1/2-x,1/2+y,1/2+z
1/2+x,1/2-y,1/2+z
loop_
_atom_site_type_symbol
_atom_site_label
_atom_site_fract_x
_atom_site_fract_y
_atom_site_fract_z
Si Si1 0.577305 0.566608 0.937089
Si Si2 0.534920 0.098183 0.564476
Si Si3 0.306964 0.460769 0.835748
Si Si4 0.904116 0.183291 0.731061
Si Si5 0.325910 0.182218 0.858222
Si Si6 0.319238 0.323754 0.657043
Si Si7 0.446949 0.283363 0.562403
O O1 0.500000 0.500000 0.917630
O O2 0.658461 0.556192 0.898269
O O3 0.541754 0.673384 0.932603
O O4 0.605687 0.541111 0.000000
O O5 0.558726 0.084421 0.500000
O O6 0.620037 0.135062 0.593083
O O7 0.457601 0.171849 0.572453
O O8 0.500000 0.000000 0.590261
O O9 0.375187 0.420241 0.791150
O O10 0.219807 0.404147 0.825996
O O11 0.286637 0.571201 0.828311
O O12 0.888245 0.261885 0.683616
O O13 0.854561 0.218545 0.785614
O O14 0.000000 0.175235 0.750000
O O15 0.250000 0.250000 0.881079
O O16 0.250000 0.250000 0.634800
O O17 0.387692 0.332194 0.607898
O O18 0.410765 0.304240 0.500000
#
# Coordination Sequence:
#
# PCOD8276156 Si02
#       7
#    16  16  16  16  16  16  16
#     4  10  19  35  60  92 128 161 204 257 315 377
#     4  10  22  40  65  92 124 169 214 258 311 383
#     4  11  23  38  63  96 125 164 206 262 321 378
#     4  11  24  43  67  91 119 160 212 268 319 382
#     4  10  22  42  64  93 131 162 210 272 319 383
#     4  12  25  39  61  88 126 168 203 255 319 376
#     4  10  21  39  62  90 123 162 207 257 314 381
#
# _framework density 20.921756999999999
#
# number of rings (size 3 to 8) (size 9 to 14) (size 15 to 20)
#    0.000    1.429    1.429    5.143    2.000    1.714 
#    0.000    0.000    0.000    0.000    0.000    0.000 
#    0.000    0.000    0.000    0.000    0.000    0.000 
#
# Total GULP energy -694302.987289 kJ/mol
# GULP energy per Si atom -12398.267630 kJ/mol
# Density = 2.087414 g / cm^3
# Si number density = 20.921757 Si / 1000 Ang^3
#
#
#
# Elastic Constant Matrix: (Units=GPa)
#
#
# Indices 1 2 3 4 5 6 
#
# 1 87.3034 45.2898 34.5647 0.0000 0.0000 0.0000
# 2 45.2898 141.9928 27.6773 0.0000 0.0000 0.0000
# 3 34.5647 27.6773 93.5560 0.0000 0.0000 0.0000
# 4 0.0000 0.0000 0.0000 26.1870 0.0000 0.0000
# 5 0.0000 0.0000 0.0000 0.0000 18.3984 0.0000
# 6 0.0000 0.0000 0.0000 0.0000 0.0000 27.0246
#
#
#
# Elastic Compliance Matrix: (Units=1/GPa)
#
#
# Indices 1 2 3 4 5 6 
#
# 1 0.015304 -0.004010 -0.004468 0.000000 0.000000 0.000000
# 2 -0.004010 0.008525 -0.001040 0.000000 0.000000 0.000000
# 3 -0.004468 -0.001040 0.012647 0.000000 0.000000 0.000000
# 4 0.000000 0.000000 0.000000 0.038187 0.000000 0.000000
# 5 0.000000 0.000000 0.000000 0.000000 0.054353 0.000000
# 6 0.000000 0.000000 0.000000 0.000000 0.000000 0.037003
#
#
# Mechanical properties :
#
#
# Convention : Reuss Voigt Hill
#
# Bulk Modulus (GPa) = 57.34326 59.76845 58.55586
# Shear Modulus (GPa) = 26.19626 28.67671 27.43649
#
# Velocity S-wave (km/s) = 3.54235 3.70627 3.62523
# Velocity P-wave (km/s) = 6.64823 6.85163 6.75069
#
# Compressibility (1/GPa) = 0.01743884
#
# Stress axis : x y z
#
# Youngs Moduli (GPa) = 65.34451 117.30879 79.06969
#
# Poissons Ratio (x) = 0.47045 0.35325
# Poissons Ratio (y) = 0.26206 0.08225
# Poissons Ratio (z) = 0.29193 0.12203
#
# Static dielectric constant tensor:
#      x y z
#    x 3.546140 0.000000 0.000000 
#    y 0.000000 4.049020 0.000000 
#    z 0.000000 0.000000 3.810440 
# 
# 
# High freq. dielectric constant tensor:
#      x y z
#    x 1.792550 0.000000 0.000000 
#    y 0.000000 1.832910 0.000000 
#    z 0.000000 0.000000 1.822560 
# 
# From -- ./inp_files/58263.got.cif
#   From: 2010.03.12/outbox.cif.g09.slc.cpg/sg66_30_cif.got.tgz:58263.got - 2010.04.10 21:57:39.
