data_PCOD8276020
_publ_section_title
;
Structure prediction by ZEFSAII (Michael W. Deem and Ramdas Pophale) SiO2 
 PCOD8276020
Probable space group: C C C M
;
_chemical_formula_sum "Si O2"
_cell_formula_units_Z 128
_cell_length_a 12.009542
_cell_length_b 24.045525
_cell_length_c 22.629011
_cell_angle_alpha 90.000000
_cell_angle_beta 90.000000
_cell_angle_gamma 90.000000
_cell_volume 6534.709451
_symmetry_space_group_name_H-M "C C C M"
_symmetry_group_IT_number 66
_symmetry_cell_setting 'orthorhombic'
loop_
_space_group_symop_operation_xyz
x,y,z
-x,-y,z
x,-y,1/2-z
-x,y,1/2-z
-x,-y,-z
x,y,-z
-x,y,1/2+z
x,-y,1/2+z
1/2+x,1/2+y,z
1/2-x,1/2-y,z
1/2+x,1/2-y,1/2-z
1/2-x,1/2+y,1/2-z
1/2-x,1/2-y,-z
1/2+x,1/2+y,-z
1/2-x,1/2+y,1/2+z
1/2+x,1/2-y,1/2+z
loop_
_atom_site_type_symbol
_atom_site_label
_atom_site_fract_x
_atom_site_fract_y
_atom_site_fract_z
Si Si1 0.692947 0.805001 0.932602
Si Si2 0.629215 0.066461 0.755606
Si Si3 0.490854 0.935844 0.562955
Si Si4 0.421321 0.448764 0.931739
Si Si5 0.817118 0.375035 0.121977
Si Si6 0.719270 0.089531 0.365077
Si Si7 0.587926 0.351142 0.931754
Si Si8 0.561433 0.776753 0.431871
O O1 0.750000 0.750000 0.908688
O O2 0.748902 0.850908 0.891564
O O3 0.560422 0.803246 0.925529
O O4 0.729455 0.816061 0.000000
O O5 0.500000 0.082675 0.750000
O O6 0.672007 0.096570 0.814293
O O7 0.710061 0.091720 0.705387
O O8 0.643950 0.000000 0.750000
O O9 0.450621 0.909086 0.500000
O O10 0.612139 0.911971 0.576824
O O11 0.404531 0.926260 0.614764
O O12 0.500000 0.000000 0.553491
O O13 0.500000 0.500000 0.914272
O O14 0.312728 0.452980 0.889520
O O15 0.481652 0.390004 0.919980
O O16 0.383482 0.453947 0.000000
O O17 0.687723 0.376363 0.106463
O O18 0.859806 0.310987 0.113515
O O19 0.559651 0.287879 0.912870
O O20 0.623110 0.353471 0.000000
O O21 0.603382 0.782249 0.500000
#
# Coordination Sequence:
#
# PCOD8276020 Si02
#       8
#    16  16  16  16  16  16  16  16
#     4  10  19  33  59  91 124 160 200 252 312 375
#     4  11  24  42  62  86 119 167 212 260 310 359
#     4  11  22  33  57  93 122 148 190 256 322 379
#     4  10  23  40  62  94 131 169 206 257 325 388
#     4  12  22  38  61  88 122 161 210 257 315 375
#     4  12  22  40  63  87 123 164 211 257 305 375
#     4  10  22  39  62  92 131 167 201 257 326 392
#     4  10  19  35  59  93 127 160 203 256 324 394
#
# _framework density 19.587710000000001
#
# number of rings (size 3 to 8) (size 9 to 14) (size 15 to 20)
#    0.000    1.250    2.500    4.125    3.500    3.000 
#    0.000    1.875    0.000    1.500    0.000    0.000 
#    0.000    0.000    0.000    0.000    0.000    0.000 
#
# Total GULP energy -793429.596835 kJ/mol
# GULP energy per Si atom -12397.337451 kJ/mol
# Density = 1.954313 g / cm^3
# Si number density = 19.587710 Si / 1000 Ang^3
#
#
#
# Elastic Constant Matrix: (Units=GPa)
#
#
# Indices 1 2 3 4 5 6 
#
# 1 67.3861 14.9574 29.2243 0.0000 0.0000 0.0000
# 2 14.9574 104.4424 41.0894 0.0000 0.0000 0.0000
# 3 29.2243 41.0894 99.8382 0.0000 0.0000 0.0000
# 4 0.0000 0.0000 0.0000 -30.5509 0.0000 0.0000
# 5 0.0000 0.0000 0.0000 0.0000 -68.5296 0.0000
# 6 0.0000 0.0000 0.0000 0.0000 0.0000 31.4725
#
#
#
# Elastic Compliance Matrix: (Units=1/GPa)
#
#
# Indices 1 2 3 4 5 6 
#
# 1 0.017026 -0.000570 -0.004749 0.000000 0.000000 0.000000
# 2 -0.000570 0.011444 -0.004543 0.000000 0.000000 0.000000
# 3 -0.004749 -0.004543 0.013276 0.000000 0.000000 0.000000
# 4 0.000000 0.000000 0.000000 -0.032732 0.000000 0.000000
# 5 0.000000 0.000000 0.000000 0.000000 -0.014592 0.000000
# 6 0.000000 0.000000 0.000000 0.000000 0.000000 0.031774
#
#
# Mechanical properties :
#
#
# Convention : Reuss Voigt Hill
#
# Bulk Modulus (GPa) = 45.41007 49.13433 47.27220
# Shear Modulus (GPa) = 93.88008 -1.09523 46.39243
#
# Velocity S-wave (km/s) = 6.93052 -0.74857 4.87195
# Velocity P-wave (km/s) = 9.34217 4.93878 7.47220
#
# Compressibility (1/GPa) = 0.02202155
#
# Stress axis : x y z
#
# Youngs Moduli (GPa) = 58.73359 87.38579 75.32360
#
# Poissons Ratio (x) = 0.04980 0.35773
# Poissons Ratio (y) = 0.03347 0.34219
# Poissons Ratio (z) = 0.27894 0.39698
#
# Static dielectric constant tensor:
#      x y z
#    x 3.509110 0.000000 0.000000 
#    y 0.000000 3.795450 0.000000 
#    z 0.000000 0.000000 3.431950 
# 
# 
# High freq. dielectric constant tensor:
#      x y z
#    x 1.762750 0.000000 0.000000 
#    y 0.000000 1.780010 0.000000 
#    z 0.000000 0.000000 1.732190 
# 
# From -- ./inp_files/57354.got.cif
#   From: 2010.03.12/outbox.cif.g09.slc.cpg/sg66_29_cif.got.tgz:57354.got - 2010.04.10 21:57:39.
