data_PCOD8276618
_publ_section_title
;
Structure prediction by ZEFSAII (Michael W. Deem and Ramdas Pophale) SiO2 
 PCOD8276618
Probable space group: C C C M
;
_chemical_formula_sum "Si O2"
_cell_formula_units_Z 104
_cell_length_a 21.584129
_cell_length_b 26.103975
_cell_length_c 9.058449
_cell_angle_alpha 90.000000
_cell_angle_beta 90.000000
_cell_angle_gamma 90.000000
_cell_volume 5103.816086
_symmetry_space_group_name_H-M "C C C M"
_symmetry_group_IT_number 66
_symmetry_cell_setting 'orthorhombic'
loop_
_space_group_symop_operation_xyz
x,y,z
-x,-y,z
x,-y,1/2-z
-x,y,1/2-z
-x,-y,-z
x,y,-z
-x,y,1/2+z
x,-y,1/2+z
1/2+x,1/2+y,z
1/2-x,1/2-y,z
1/2+x,1/2-y,1/2-z
1/2-x,1/2+y,1/2-z
1/2-x,1/2-y,-z
1/2+x,1/2+y,-z
1/2-x,1/2+y,1/2+z
1/2+x,1/2-y,1/2+z
loop_
_atom_site_type_symbol
_atom_site_label
_atom_site_fract_x
_atom_site_fract_y
_atom_site_fract_z
Si Si1 0.314324 0.270768 0.333712
Si Si2 0.811280 0.946593 0.672103
Si Si3 0.000000 0.804745 0.750000
Si Si4 0.330430 0.945839 0.173936
Si Si5 0.060116 0.612368 0.673543
Si Si6 0.378570 0.641144 0.333345
Si Si7 0.570068 0.790332 0.343433
O O1 0.309640 0.294217 0.500000
O O2 0.250000 0.250000 0.274758
O O3 0.335981 0.312528 0.217854
O O4 0.357551 0.220986 0.331609
O O5 0.822640 0.954135 0.500000
O O6 0.740469 0.928024 0.703001
O O7 0.862457 0.907209 0.731715
O O8 0.823912 0.000000 0.750000
O O9 0.950822 0.842469 0.827546
O O10 0.963524 0.765207 0.644404
O O11 0.376750 0.905345 0.248522
O O12 0.343421 0.000000 0.250000
O O13 0.344255 0.950225 0.000000
O O14 0.062078 0.600854 0.500000
O O15 0.052384 0.673784 0.704248
O O16 0.000000 0.585181 0.750000
O O17 0.361465 0.626740 0.500000
O O18 0.556687 0.819287 0.500000
#
# Coordination Sequence:
#
# PCOD8276618 Si02
#       7
#    16  16   8  16  16  16  16
#     4   9  20  37  56  83 120 161 201 247 302 360
#     4  10  22  42  68  95 126 162 201 251 310 371
#     4  10  22  40  63  86 123 166 210 254 306 362
#     4  10  22  42  66  91 121 157 200 249 308 367
#     4  12  25  39  59  87 120 159 206 253 302 359
#     4  11  23  38  62  94 125 162 208 256 309 371
#     4  10  20  36  58  82 116 159 205 250 301 359
#
# _framework density 20.376909999999999
#
# number of rings (size 3 to 8) (size 9 to 14) (size 15 to 20)
#    0.000    1.692    0.769    3.231    2.154    6.769 
#    0.000    1.923    0.000    1.846    0.000    0.000 
#    0.000    0.000    0.000    0.000    0.000    0.000 
#
# Total GULP energy -644523.197738 kJ/mol
# GULP energy per Si atom -12394.676880 kJ/mol
# Density = 2.033053 g / cm^3
# Si number density = 20.376910 Si / 1000 Ang^3
#
#
#
# Elastic Constant Matrix: (Units=GPa)
#
#
# Indices 1 2 3 4 5 6 
#
# 1 126.2431 46.2844 44.7841 0.0000 0.0000 0.0000
# 2 46.2844 79.1066 43.6401 0.0000 0.0000 0.0000
# 3 44.7841 43.6401 141.4604 0.0000 0.0000 0.0000
# 4 0.0000 0.0000 0.0000 31.5249 0.0000 0.0000
# 5 0.0000 0.0000 0.0000 0.0000 21.3693 0.0000
# 6 0.0000 0.0000 0.0000 0.0000 0.0000 24.9426
#
#
#
# Elastic Compliance Matrix: (Units=1/GPa)
#
#
# Indices 1 2 3 4 5 6 
#
# 1 0.010416 -0.005152 -0.001708 0.000000 0.000000 0.000000
# 2 -0.005152 0.017782 -0.003855 0.000000 0.000000 0.000000
# 3 -0.001708 -0.003855 0.008799 0.000000 0.000000 0.000000
# 4 0.000000 0.000000 0.000000 0.031721 0.000000 0.000000
# 5 0.000000 0.000000 0.000000 0.000000 0.046796 0.000000
# 6 0.000000 0.000000 0.000000 0.000000 0.000000 0.040092
#
#
# Mechanical properties :
#
#
# Convention : Reuss Voigt Hill
#
# Bulk Modulus (GPa) = 64.23654 68.46970 66.35312
# Shear Modulus (GPa) = 27.43861 29.70748 28.57305
#
# Velocity S-wave (km/s) = 3.67352 3.82239 3.74869
# Velocity P-wave (km/s) = 7.04171 7.29078 7.16732
#
# Compressibility (1/GPa) = 0.01556746
#
# Stress axis : x y z
#
# Youngs Moduli (GPa) = 96.00557 56.23661 113.64866
#
# Poissons Ratio (x) = 0.28973 0.19413
# Poissons Ratio (y) = 0.49462 0.43808
# Poissons Ratio (z) = 0.16400 0.21677
#
# Static dielectric constant tensor:
#      x y z
#    x 3.968750 0.000000 0.000000 
#    y 0.000000 3.515850 0.000000 
#    z 0.000000 0.000000 3.664690 
# 
# 
# High freq. dielectric constant tensor:
#      x y z
#    x 1.809450 0.000000 0.000000 
#    y 0.000000 1.776500 0.000000 
#    z 0.000000 0.000000 1.801100 
# 
# From -- ./inp_files/8138.got.cif
#   From: 2010.03.12/outbox.cif.g09.slc.cpg/sg66_5_cif.got.tgz:8138.got - 2010.04.10 21:57:39.
