data_PCOD8276168
_publ_section_title
;
Structure prediction by ZEFSAII (Michael W. Deem and Ramdas Pophale) SiO2 
 PCOD8276168
Probable space group: C C C M
;
_chemical_formula_sum "Si O2"
_cell_formula_units_Z 64
_cell_length_a 12.101903
_cell_length_b 17.498849
_cell_length_c 15.154052
_cell_angle_alpha 90.000000
_cell_angle_beta 90.000000
_cell_angle_gamma 90.000000
_cell_volume 3209.164094
_symmetry_space_group_name_H-M "C C C M"
_symmetry_group_IT_number 66
_symmetry_cell_setting 'orthorhombic'
loop_
_space_group_symop_operation_xyz
x,y,z
-x,-y,z
x,-y,1/2-z
-x,y,1/2-z
-x,-y,-z
x,y,-z
-x,y,1/2+z
x,-y,1/2+z
1/2+x,1/2+y,z
1/2-x,1/2-y,z
1/2+x,1/2-y,1/2-z
1/2-x,1/2+y,1/2-z
1/2-x,1/2-y,-z
1/2+x,1/2+y,-z
1/2-x,1/2+y,1/2+z
1/2+x,1/2-y,1/2+z
loop_
_atom_site_type_symbol
_atom_site_label
_atom_site_fract_x
_atom_site_fract_y
_atom_site_fract_z
Si Si1 0.870061 0.838525 0.000000
Si Si2 0.521459 0.910920 0.350425
Si Si3 0.959899 0.923051 0.401838
Si Si4 0.624038 0.158945 0.500000
Si Si5 0.248089 0.163733 0.395689
O O1 0.747767 0.875081 0.000000
O O2 0.867938 0.748785 0.000000
O O3 0.935327 0.866052 0.088029
O O4 0.500000 0.888066 0.250000
O O5 0.437709 0.865677 0.411863
O O6 0.645488 0.886470 0.373266
O O7 0.500000 0.000000 0.367720
O O8 0.917693 0.948702 0.500000
O O9 0.858298 0.880047 0.353536
O O10 0.000000 0.000000 0.350496
O O11 0.232534 0.170790 0.500000
O O12 0.250000 0.250000 0.355940
#
# Coordination Sequence:
#
# PCOD8276168 Si02
#       5
#     8  16  16   8  16
#     4   9  19  33  57  91 119 149 201 249 301 371
#     4  11  25  40  60  91 125 159 208 251 295 365
#     4   8  16  28  52  86 115 143 193 247 289 355
#     4  11  21  37  63  83 123 163 191 247 319 353
#     4  10  19  35  64  89 114 154 206 250 295 357
#
# _framework density 19.942888
#
# number of rings (size 3 to 8) (size 9 to 14) (size 15 to 20)
#    0.750    1.500    1.250    1.875    3.500    0.000 
#    4.500    0.000    0.000    0.000    0.000    0.000 
#    0.000    0.000    0.000    0.000    0.000    0.000 
#
# Total GULP energy -396533.321093 kJ/mol
# GULP energy per Si atom -12391.666284 kJ/mol
# Density = 1.989750 g / cm^3
# Si number density = 19.942888 Si / 1000 Ang^3
#
#
#
# Elastic Constant Matrix: (Units=GPa)
#
#
# Indices 1 2 3 4 5 6 
#
# 1 211.2142 86.5624 27.9365 0.0000 0.0000 0.0000
# 2 86.5624 137.0184 22.7273 0.0000 0.0000 0.0000
# 3 27.9365 22.7273 53.2684 0.0000 0.0000 0.0000
# 4 0.0000 0.0000 0.0000 -12.2923 0.0000 0.0000
# 5 0.0000 0.0000 0.0000 0.0000 4.7804 0.0000
# 6 0.0000 0.0000 0.0000 0.0000 0.0000 26.6928
#
#
#
# Elastic Compliance Matrix: (Units=1/GPa)
#
#
# Indices 1 2 3 4 5 6 
#
# 1 0.006544 -0.003837 -0.001795 0.000000 0.000000 0.000000
# 2 -0.003837 0.010103 -0.002299 0.000000 0.000000 0.000000
# 3 -0.001795 -0.002299 0.020695 0.000000 0.000000 0.000000
# 4 0.000000 0.000000 0.000000 -0.081352 0.000000 0.000000
# 5 0.000000 0.000000 0.000000 0.000000 0.209189 0.000000
# 6 0.000000 0.000000 0.000000 0.000000 0.000000 0.037463
#
#
# Mechanical properties :
#
#
# Convention : Reuss Voigt Hill
#
# Bulk Modulus (GPa) = 46.55077 75.10592 60.82834
# Shear Modulus (GPa) = 22.15670 21.45448 21.80559
#
# Velocity S-wave (km/s) = 3.33679 3.28349 3.31025
# Velocity P-wave (km/s) = 6.18371 7.21923 6.72145
#
# Compressibility (1/GPa) = 0.02148192
#
# Stress axis : x y z
#
# Youngs Moduli (GPa) = 152.80295 98.97655 48.32069
#
# Poissons Ratio (x) = 0.37974 0.08675
# Poissons Ratio (y) = 0.58626 0.11107
# Poissons Ratio (z) = 0.27432 0.22750
#
# Static dielectric constant tensor:
#      x y z
#    x 4.015970 0.000000 0.000000 
#    y 0.000000 3.843050 0.000000 
#    z 0.000000 0.000000 3.197370 
# 
# 
# High freq. dielectric constant tensor:
#      x y z
#    x 1.793920 0.000000 0.000000 
#    y 0.000000 1.795170 0.000000 
#    z 0.000000 0.000000 1.720170 
# 
# From -- ./inp_files/25869.got.cif
#   From: 2010.03.12/outbox.cif.g09.slc.cpg/sg66_13_cif.got.tgz:25869.got - 2010.04.10 21:57:39.
