data_PCOD8276084
_publ_section_title
;
Structure prediction by ZEFSAII (Michael W. Deem and Ramdas Pophale) SiO2 
 PCOD8276084
Probable space group: C C C M
;
_chemical_formula_sum "Si O2"
_cell_formula_units_Z 64
_cell_length_a 16.715543
_cell_length_b 8.380909
_cell_length_c 23.940222
_cell_angle_alpha 90.000000
_cell_angle_beta 90.000000
_cell_angle_gamma 90.000000
_cell_volume 3353.820288
_symmetry_space_group_name_H-M "C C C M"
_symmetry_group_IT_number 66
_symmetry_cell_setting 'orthorhombic'
loop_
_space_group_symop_operation_xyz
x,y,z
-x,-y,z
x,-y,1/2-z
-x,y,1/2-z
-x,-y,-z
x,y,-z
-x,y,1/2+z
x,-y,1/2+z
1/2+x,1/2+y,z
1/2-x,1/2-y,z
1/2+x,1/2-y,1/2-z
1/2-x,1/2+y,1/2-z
1/2-x,1/2-y,-z
1/2+x,1/2+y,-z
1/2-x,1/2+y,1/2+z
1/2+x,1/2-y,1/2+z
loop_
_atom_site_type_symbol
_atom_site_label
_atom_site_fract_x
_atom_site_fract_y
_atom_site_fract_z
Si Si1 0.141491 0.910259 0.000000
Si Si2 0.731554 0.565690 0.688475
Si Si3 0.669006 0.948382 0.500000
Si Si4 0.173662 0.354406 0.893714
Si Si5 0.088623 0.956484 0.383349
O O1 0.235902 0.934485 0.000000
O O2 0.124383 0.721268 0.000000
O O3 0.101421 0.992720 0.052895
O O4 0.720492 0.500000 0.750000
O O5 0.750000 0.750000 0.690667
O O6 0.802429 0.468239 0.657848
O O7 0.648941 0.552627 0.655577
O O8 0.641116 0.041489 0.555068
O O9 0.250000 0.250000 0.913294
O O10 0.103147 0.233620 0.875681
O O11 0.000000 0.000000 0.363474
#
# Coordination Sequence:
#
# PCOD8276084 Si02
#       5
#     8  16   8  16  16
#     4  11  20  33  56  85 118 150 188 238 285 342
#     4  11  22  40  63  86 110 145 197 242 283 340
#     4  11  18  32  58  86 112 147 200 236 279 332
#     4  10  19  34  58  84 112 150 191 235 279 339
#     4  11  23  38  57  85 120 153 186 233 293 345
#
# _framework density 19.082716000000001
#
# number of rings (size 3 to 8) (size 9 to 14) (size 15 to 20)
#    0.000    1.250    5.000    5.250    0.000    0.500 
#    0.000    6.250    0.000    1.500    0.000    0.000 
#    0.000    0.000    0.000    0.000    0.000    0.000 
#
# Total GULP energy -396898.299235 kJ/mol
# GULP energy per Si atom -12403.071851 kJ/mol
# Density = 1.903928 g / cm^3
# Si number density = 19.082716 Si / 1000 Ang^3
#
#
#
# Elastic Constant Matrix: (Units=GPa)
#
#
# Indices 1 2 3 4 5 6 
#
# 1 96.5074 54.1722 36.6226 0.0000 0.0000 0.0000
# 2 54.1722 154.4440 50.7816 0.0000 0.0000 0.0000
# 3 36.6226 50.7816 139.5264 0.0000 0.0000 0.0000
# 4 0.0000 0.0000 0.0000 -1.3461 0.0000 0.0000
# 5 0.0000 0.0000 0.0000 0.0000 5.8313 0.0000
# 6 0.0000 0.0000 0.0000 0.0000 0.0000 28.0726
#
#
#
# Elastic Compliance Matrix: (Units=1/GPa)
#
#
# Indices 1 2 3 4 5 6 
#
# 1 0.013400 -0.004025 -0.002052 0.000000 0.000000 0.000000
# 2 -0.004025 0.008564 -0.002060 0.000000 0.000000 0.000000
# 3 -0.002052 -0.002060 0.008456 0.000000 0.000000 0.000000
# 4 0.000000 0.000000 0.000000 -0.742865 0.000000 0.000000
# 5 0.000000 0.000000 0.000000 0.000000 0.171489 0.000000
# 6 0.000000 0.000000 0.000000 0.000000 0.000000 0.035622
#
#
# Mechanical properties :
#
#
# Convention : Reuss Voigt Hill
#
# Bulk Modulus (GPa) = 70.70109 74.84784 72.77446
# Shear Modulus (GPa) = -10.32326 23.10497 6.39086
#
# Velocity S-wave (km/s) = -2.32841 3.48340 1.83202
# Velocity P-wave (km/s) = 5.46823 7.44894 6.53408
#
# Compressibility (1/GPa) = 0.01414405
#
# Stress axis : x y z
#
# Youngs Moduli (GPa) = 74.62536 116.76413 118.26402
#
# Poissons Ratio (x) = 0.47003 0.24270
# Poissons Ratio (y) = 0.30040 0.24367
# Poissons Ratio (z) = 0.15314 0.24058
#
# Static dielectric constant tensor:
#      x y z
#    x 3.253130 0.000000 0.000000 
#    y 0.000000 3.901210 0.000000 
#    z 0.000000 0.000000 3.532570 
# 
# 
# High freq. dielectric constant tensor:
#      x y z
#    x 1.705600 0.000000 0.000000 
#    y 0.000000 1.764150 0.000000 
#    z 0.000000 0.000000 1.744240 
# 
# From -- ./inp_files/46649.got.cif
#   From: 2010.03.12/outbox.cif.g09.slc.cpg/sg66_24_cif.got.tgz:46649.got - 2010.04.10 21:57:39.
