data_PCOD8276703
_publ_section_title
;
Structure prediction by ZEFSAII (Michael W. Deem and Ramdas Pophale) SiO2 
 PCOD8276703
Probable space group: C C C M
;
_chemical_formula_sum "Si O2"
_cell_formula_units_Z 112
_cell_length_a 29.463610
_cell_length_b 13.917706
_cell_length_c 14.216655
_cell_angle_alpha 90.000000
_cell_angle_beta 90.000000
_cell_angle_gamma 90.000000
_cell_volume 5829.764883
_symmetry_space_group_name_H-M "C C C M"
_symmetry_group_IT_number 66
_symmetry_cell_setting 'orthorhombic'
loop_
_space_group_symop_operation_xyz
x,y,z
-x,-y,z
x,-y,1/2-z
-x,y,1/2-z
-x,-y,-z
x,y,-z
-x,y,1/2+z
x,-y,1/2+z
1/2+x,1/2+y,z
1/2-x,1/2-y,z
1/2+x,1/2-y,1/2-z
1/2-x,1/2+y,1/2-z
1/2-x,1/2-y,-z
1/2+x,1/2+y,-z
1/2-x,1/2+y,1/2+z
1/2+x,1/2-y,1/2+z
loop_
_atom_site_type_symbol
_atom_site_label
_atom_site_fract_x
_atom_site_fract_y
_atom_site_fract_z
Si Si1 0.313638 0.074634 0.607397
Si Si2 0.946362 0.350268 0.748057
Si Si3 0.715986 0.437383 0.893206
Si Si4 0.378909 0.492447 0.610716
Si Si5 0.090262 0.503620 0.890954
Si Si6 0.608607 0.339806 0.737434
Si Si7 0.798533 0.757473 0.729365
O O1 0.315189 0.114310 0.500000
O O2 0.266022 0.016401 0.624405
O O3 0.355178 0.001555 0.623612
O O4 0.316908 0.160619 0.681341
O O5 0.928960 0.399396 0.843928
O O6 0.930026 0.409603 0.657291
O O7 0.928958 0.242168 0.739208
O O8 0.000000 0.348434 0.750000
O O9 0.674761 0.506415 0.860725
O O10 0.715109 0.332250 0.850429
O O11 0.706027 0.416224 0.000000
O O12 0.389537 0.486109 0.500000
O O13 0.404110 0.584619 0.654870
O O14 0.393896 0.393237 0.661152
O O15 0.076377 0.503639 0.000000
O O16 0.658467 0.296463 0.712026
O O17 0.750000 0.750000 0.787342
#
# Coordination Sequence:
#
# PCOD8276703 Si02
#       7
#    16  16  16  16  16  16  16
#     4   9  15  26  48  79 111 144 182 225 266 310
#     4  11  24  41  59  81 110 144 183 233 286 333
#     4   8  14  25  45  75 110 147 181 217 264 315
#     4   9  19  36  58  82 113 147 182 223 270 332
#     4  10  21  38  59  83 112 146 186 229 272 326
#     4  10  20  37  56  83 110 143 187 224 279 333
#     4   9  15  26  46  77 110 145 181 225 260 314
#
# _framework density 19.211753000000002
#
# number of rings (size 3 to 8) (size 9 to 14) (size 15 to 20)
#    0.000    2.571    1.429    1.286    0.000    4.571 
#    2.571    2.857    0.000    1.286    0.000    0.000 
#    0.000    0.000    0.000    0.000    0.000    0.000 
#
# Total GULP energy -693770.915790 kJ/mol
# GULP energy per Si atom -12388.766353 kJ/mol
# Density = 1.916803 g / cm^3
# Si number density = 19.211753 Si / 1000 Ang^3
#
#
#
# Elastic Constant Matrix: (Units=GPa)
#
#
# Indices 1 2 3 4 5 6 
#
# 1 101.7578 46.6031 32.3064 0.0000 0.0000 0.0000
# 2 46.6031 94.5264 38.8054 0.0000 0.0000 0.0000
# 3 32.3064 38.8054 96.6022 0.0000 0.0000 0.0000
# 4 0.0000 0.0000 0.0000 14.0804 0.0000 0.0000
# 5 0.0000 0.0000 0.0000 0.0000 15.2514 0.0000
# 6 0.0000 0.0000 0.0000 0.0000 0.0000 17.3890
#
#
#
# Elastic Compliance Matrix: (Units=1/GPa)
#
#
# Indices 1 2 3 4 5 6 
#
# 1 0.013050 -0.005559 -0.002131 0.000000 0.000000 0.000000
# 2 -0.005559 0.015036 -0.004181 0.000000 0.000000 0.000000
# 3 -0.002131 -0.004181 0.012744 0.000000 0.000000 0.000000
# 4 0.000000 0.000000 0.000000 0.071021 0.000000 0.000000
# 5 0.000000 0.000000 0.000000 0.000000 0.065568 0.000000
# 6 0.000000 0.000000 0.000000 0.000000 0.000000 0.057507
#
#
# Mechanical properties :
#
#
# Convention : Reuss Voigt Hill
#
# Bulk Modulus (GPa) = 58.52153 58.70176 58.61165
# Shear Modulus (GPa) = 18.91334 21.02227 19.96780
#
# Velocity S-wave (km/s) = 3.14103 3.31152 3.22740
# Velocity P-wave (km/s) = 6.60925 6.72629 6.66803
#
# Compressibility (1/GPa) = 0.01708773
#
# Stress axis : x y z
#
# Youngs Moduli (GPa) = 76.63010 66.50682 78.46843
#
# Poissons Ratio (x) = 0.36970 0.16723
# Poissons Ratio (y) = 0.42597 0.32808
# Poissons Ratio (z) = 0.16331 0.27807
#
# Static dielectric constant tensor:
#      x y z
#    x 3.723210 0.000000 0.000000 
#    y 0.000000 3.335160 0.000000 
#    z 0.000000 0.000000 3.341260 
# 
# 
# High freq. dielectric constant tensor:
#      x y z
#    x 1.744130 0.000000 0.000000 
#    y 0.000000 1.730090 0.000000 
#    z 0.000000 0.000000 1.729990 
# 
# From -- ./inp_files/29024.got.cif
#   From: 2010.03.12/outbox.cif.g09.slc.cpg/sg66_15_cif.got.tgz:29024.got - 2010.04.10 21:57:39.
