data_PCOD8276317
_publ_section_title
;
Structure prediction by ZEFSAII (Michael W. Deem and Ramdas Pophale) SiO2 
 PCOD8276317
Probable space group: C C C M
;
_chemical_formula_sum "Si O2"
_cell_formula_units_Z 64
_cell_length_a 15.570471
_cell_length_b 11.348981
_cell_length_c 19.459411
_cell_angle_alpha 90.000000
_cell_angle_beta 90.000000
_cell_angle_gamma 90.000000
_cell_volume 3438.652660
_symmetry_space_group_name_H-M "C C C M"
_symmetry_group_IT_number 66
_symmetry_cell_setting 'orthorhombic'
loop_
_space_group_symop_operation_xyz
x,y,z
-x,-y,z
x,-y,1/2-z
-x,y,1/2-z
-x,-y,-z
x,y,-z
-x,y,1/2+z
x,-y,1/2+z
1/2+x,1/2+y,z
1/2-x,1/2-y,z
1/2+x,1/2-y,1/2-z
1/2-x,1/2+y,1/2-z
1/2-x,1/2-y,-z
1/2+x,1/2+y,-z
1/2-x,1/2+y,1/2+z
1/2+x,1/2-y,1/2+z
loop_
_atom_site_type_symbol
_atom_site_label
_atom_site_fract_x
_atom_site_fract_y
_atom_site_fract_z
Si Si1 0.950580 0.621967 0.333647
Si Si2 0.730358 0.435836 0.679905
Si Si3 0.715000 0.879338 0.420387
Si Si4 0.615254 0.224638 0.691847
O O1 0.883464 0.608303 0.395257
O O2 0.900367 0.674841 0.268414
O O3 0.000000 0.500000 0.316749
O O4 0.027616 0.713221 0.352629
O O5 0.755044 0.500000 0.750000
O O6 0.721329 0.531453 0.619312
O O7 0.642919 0.361794 0.690876
O O8 0.808943 0.351658 0.658386
O O9 0.717505 0.911775 0.500000
O O10 0.750000 0.750000 0.405343
#
# Coordination Sequence:
#
# PCOD8276317 Si02
#       4
#    16  16  16  16
#     4  11  19  37  60  90 121 147 195 252 295 347
#     4  11  19  36  59  87 116 154 193 241 298 350
#     4  11  24  41  60  85 120 162 202 240 293 358
#     4  10  20  32  59  92 116 142 192 251 298 341
#
# _framework density 18.611941000000002
#
# number of rings (size 3 to 8) (size 9 to 14) (size 15 to 20)
#    0.000    1.250    5.000    3.000    0.000    0.500 
#    0.000   12.500    0.000    3.000    0.000    0.000 
#    0.000    0.000    0.000    0.000    0.000    0.000 
#
# Total GULP energy -396608.943458 kJ/mol
# GULP energy per Si atom -12394.029483 kJ/mol
# Density = 1.856958 g / cm^3
# Si number density = 18.611941 Si / 1000 Ang^3
#
#
#
# Elastic Constant Matrix: (Units=GPa)
#
#
# Indices 1 2 3 4 5 6 
#
# 1 100.6431 57.5032 32.9009 0.0000 0.0000 0.0000
# 2 57.5032 122.1965 68.4109 0.0000 0.0000 0.0000
# 3 32.9009 68.4109 100.1155 0.0000 0.0000 0.0000
# 4 0.0000 0.0000 0.0000 27.7772 0.0000 0.0000
# 5 0.0000 0.0000 0.0000 0.0000 6.2962 0.0000
# 6 0.0000 0.0000 0.0000 0.0000 0.0000 42.7122
#
#
#
# Elastic Compliance Matrix: (Units=1/GPa)
#
#
# Indices 1 2 3 4 5 6 
#
# 1 0.013592 -0.006309 -0.000156 0.000000 0.000000 0.000000
# 2 -0.006309 0.016182 -0.008984 0.000000 0.000000 0.000000
# 3 -0.000156 -0.008984 0.016179 0.000000 0.000000 0.000000
# 4 0.000000 0.000000 0.000000 0.036001 0.000000 0.000000
# 5 0.000000 0.000000 0.000000 0.000000 0.158825 0.000000
# 6 0.000000 0.000000 0.000000 0.000000 0.000000 0.023413
#
#
# Mechanical properties :
#
#
# Convention : Reuss Voigt Hill
#
# Bulk Modulus (GPa) = 66.42341 71.17615 68.79978
# Shear Modulus (GPa) = 16.66073 26.29981 21.48027
#
# Velocity S-wave (km/s) = 2.99517 3.76315 3.40091
# Velocity P-wave (km/s) = 6.90851 7.56353 7.24343
#
# Compressibility (1/GPa) = 0.01505493
#
# Stress axis : x y z
#
# Youngs Moduli (GPa) = 73.57517 61.79662 61.80932
#
# Poissons Ratio (x) = 0.38986 0.00962
# Poissons Ratio (y) = 0.46417 0.55531
# Poissons Ratio (z) = 0.01146 0.55520
#
# Static dielectric constant tensor:
#      x y z
#    x 3.725740 0.000000 0.000000 
#    y 0.000000 3.674120 0.000000 
#    z 0.000000 0.000000 3.090390 
# 
# 
# High freq. dielectric constant tensor:
#      x y z
#    x 1.727820 0.000000 0.000000 
#    y 0.000000 1.729530 0.000000 
#    z 0.000000 0.000000 1.683660 
# 
# From -- ./inp_files/38192.got.cif
#   From: 2010.03.12/outbox.cif.g09.slc.cpg/sg66_20_cif.got.tgz:38192.got - 2010.04.10 21:57:39.
