data_PCOD8276730
_publ_section_title
;
Structure prediction by ZEFSAII (Michael W. Deem and Ramdas Pophale) SiO2 
 PCOD8276730
Probable space group: C C C M
;
_chemical_formula_sum "Si O2"
_cell_formula_units_Z 72
_cell_length_a 8.248304
_cell_length_b 17.519881
_cell_length_c 25.448597
_cell_angle_alpha 90.000000
_cell_angle_beta 90.000000
_cell_angle_gamma 90.000000
_cell_volume 3677.559054
_symmetry_space_group_name_H-M "C C C M"
_symmetry_group_IT_number 66
_symmetry_cell_setting 'orthorhombic'
loop_
_space_group_symop_operation_xyz
x,y,z
-x,-y,z
x,-y,1/2-z
-x,y,1/2-z
-x,-y,-z
x,y,-z
-x,y,1/2+z
x,-y,1/2+z
1/2+x,1/2+y,z
1/2-x,1/2-y,z
1/2+x,1/2-y,1/2-z
1/2-x,1/2+y,1/2-z
1/2-x,1/2-y,-z
1/2+x,1/2+y,-z
1/2-x,1/2+y,1/2+z
1/2+x,1/2-y,1/2+z
loop_
_atom_site_type_symbol
_atom_site_label
_atom_site_fract_x
_atom_site_fract_y
_atom_site_fract_z
Si Si1 0.250000 0.250000 0.174964
Si Si2 0.000000 0.667907 0.750000
Si Si3 0.154333 0.363503 0.648203
Si Si4 0.251653 0.986445 0.500000
Si Si5 0.541729 0.371228 0.000000
Si Si6 0.528412 0.300299 0.112544
Si Si7 0.000000 0.500000 0.586057
O O1 0.114650 0.284361 0.212185
O O2 0.347129 0.310216 0.137235
O O3 0.882998 0.622590 0.710208
O O4 0.349049 0.359763 0.641020
O O5 0.081800 0.286746 0.622647
O O6 0.074036 0.434543 0.621057
O O7 0.356218 0.965902 0.449023
O O8 0.100595 0.931709 0.500000
O O9 0.204944 0.077052 0.500000
O O10 0.530915 0.316503 0.949577
#
# Coordination Sequence:
#
# PCOD8276730 Si02
#       7
#     8   8  16   8   8  16   8
#     4  10  20  37  60  94 126 153 202 266 316 354
#     4  10  20  37  62  88 118 161 204 248 312 357
#     4  10  22  39  62  90 123 162 204 257 301 368
#     4  10  24  38  62  84 125 169 194 251 311 377
#     4  11  22  40  60  92 121 161 202 251 314 372
#     4  10  22  38  62  93 121 159 204 257 301 370
#     4  11  22  43  60  88 122 167 206 243 312 380
#
# _framework density 19.578202999999998
#
# number of rings (size 3 to 8) (size 9 to 14) (size 15 to 20)
#    0.000    1.778    2.222    2.667    6.222    4.444 
#    0.000    0.000    0.000    0.000    0.000    0.000 
#    0.000    0.000    0.000    0.000    0.000    0.000 
#
# Total GULP energy -446092.195424 kJ/mol
# GULP energy per Si atom -12391.449873 kJ/mol
# Density = 1.953364 g / cm^3
# Si number density = 19.578203 Si / 1000 Ang^3
#
#
#
# Elastic Constant Matrix: (Units=GPa)
#
#
# Indices 1 2 3 4 5 6 
#
# 1 133.4076 35.2467 72.4809 0.0000 0.0000 0.0000
# 2 35.2467 79.7861 43.5330 0.0000 0.0000 0.0000
# 3 72.4809 43.5330 177.5341 0.0000 0.0000 0.0000
# 4 0.0000 0.0000 0.0000 4.6617 0.0000 0.0000
# 5 0.0000 0.0000 0.0000 0.0000 46.3444 0.0000
# 6 0.0000 0.0000 0.0000 0.0000 0.0000 27.3473
#
#
#
# Elastic Compliance Matrix: (Units=1/GPa)
#
#
# Indices 1 2 3 4 5 6 
#
# 1 0.010061 -0.002544 -0.003484 0.000000 0.000000 0.000000
# 2 -0.002544 0.015113 -0.002667 0.000000 0.000000 0.000000
# 3 -0.003484 -0.002667 0.007709 0.000000 0.000000 0.000000
# 4 0.000000 0.000000 0.000000 0.214516 0.000000 0.000000
# 5 0.000000 0.000000 0.000000 0.000000 0.021578 0.000000
# 6 0.000000 0.000000 0.000000 0.000000 0.000000 0.036567
#
#
# Mechanical properties :
#
#
# Convention : Reuss Voigt Hill
#
# Bulk Modulus (GPa) = 64.54529 77.02764 70.78647
# Shear Modulus (GPa) = 15.23946 31.63514 23.43730
#
# Velocity S-wave (km/s) = 2.79299 4.02411 3.46368
# Velocity P-wave (km/s) = 6.59094 7.81154 7.22706
#
# Compressibility (1/GPa) = 0.01549300
#
# Stress axis : x y z
#
# Youngs Moduli (GPa) = 99.39829 66.17029 129.71847
#
# Poissons Ratio (x) = 0.16831 0.45189
# Poissons Ratio (y) = 0.25283 0.34599
# Poissons Ratio (z) = 0.34627 0.17649
#
# Static dielectric constant tensor:
#      x y z
#    x 4.686120 0.000000 0.000000 
#    y 0.000000 3.337070 0.000000 
#    z 0.000000 0.000000 4.037340 
# 
# 
# High freq. dielectric constant tensor:
#      x y z
#    x 1.784170 0.000000 0.000000 
#    y 0.000000 1.723580 0.000000 
#    z 0.000000 0.000000 1.780490 
# 
# From -- ./inp_files/55301.got.cif
#   From: 2010.03.12/outbox.cif.g09.slc.cpg/sg66_28_cif.got.tgz:55301.got - 2010.04.10 21:57:39.
