data_PCOD8276267
_publ_section_title
;
Structure prediction by ZEFSAII (Michael W. Deem and Ramdas Pophale) SiO2 
 PCOD8276267
Probable space group: C C C M
;
_chemical_formula_sum "Si O2"
_cell_formula_units_Z 80
_cell_length_a 24.684231
_cell_length_b 10.266840
_cell_length_c 16.878740
_cell_angle_alpha 90.000000
_cell_angle_beta 90.000000
_cell_angle_gamma 90.000000
_cell_volume 4277.563047
_symmetry_space_group_name_H-M "C C C M"
_symmetry_group_IT_number 66
_symmetry_cell_setting 'orthorhombic'
loop_
_space_group_symop_operation_xyz
x,y,z
-x,-y,z
x,-y,1/2-z
-x,y,1/2-z
-x,-y,-z
x,y,-z
-x,y,1/2+z
x,-y,1/2+z
1/2+x,1/2+y,z
1/2-x,1/2-y,z
1/2+x,1/2-y,1/2-z
1/2-x,1/2+y,1/2-z
1/2-x,1/2-y,-z
1/2+x,1/2+y,-z
1/2-x,1/2+y,1/2+z
1/2+x,1/2-y,1/2+z
loop_
_atom_site_type_symbol
_atom_site_label
_atom_site_fract_x
_atom_site_fract_y
_atom_site_fract_z
Si Si1 0.553096 0.832892 0.198875
Si Si2 0.605669 0.376637 0.196765
Si Si3 0.688149 0.750399 0.591133
Si Si4 0.978961 0.201955 0.912324
Si Si5 0.400778 0.949590 0.912551
O O1 0.500000 0.873617 0.250000
O O2 0.595823 0.755535 0.252789
O O3 0.536054 0.736628 0.127571
O O4 0.582572 0.957775 0.160345
O O5 0.616356 0.500000 0.250000
O O6 0.658685 0.358330 0.143655
O O7 0.553131 0.404178 0.140857
O O8 0.683571 0.706150 0.500000
O O9 0.750000 0.750000 0.619531
O O10 0.659582 0.892050 0.602336
O O11 0.942449 0.331046 0.914637
O O12 0.989021 0.145857 0.000000
O O13 0.403023 0.018715 0.000000
#
# Coordination Sequence:
#
# PCOD8276267 Si02
#       5
#    16  16  16  16  16
#     4  10  20  30  48  79 115 142 168 215 274 311
#     4  10  21  36  49  73 109 140 175 222 262 310
#     4   9  19  38  60  76  94 134 183 222 268 328
#     4   9  18  32  51  72 102 146 182 205 249 319
#     4   9  17  31  51  76 105 133 172 221 263 313
#
# _framework density 18.702238000000001
#
# number of rings (size 3 to 8) (size 9 to 14) (size 15 to 20)
#    0.000    2.600    0.000    3.000    0.000   16.400 
#    3.600    5.000    0.000    0.000    0.000    4.200 
#    0.000    0.000    0.000    0.000    0.000    0.000 
#
# Total GULP energy -495776.889200 kJ/mol
# GULP energy per Si atom -12394.422230 kJ/mol
# Density = 1.865967 g / cm^3
# Si number density = 18.702238 Si / 1000 Ang^3
#
#
#
# Elastic Constant Matrix: (Units=GPa)
#
#
# Indices 1 2 3 4 5 6 
#
# 1 95.2276 21.6163 36.2592 0.0000 0.0000 0.0000
# 2 21.6163 60.7540 33.9365 0.0000 0.0000 0.0000
# 3 36.2592 33.9365 117.1177 0.0000 0.0000 0.0000
# 4 0.0000 0.0000 0.0000 17.6806 0.0000 0.0000
# 5 0.0000 0.0000 0.0000 0.0000 28.4305 0.0000
# 6 0.0000 0.0000 0.0000 0.0000 0.0000 16.1042
#
#
#
# Elastic Compliance Matrix: (Units=1/GPa)
#
#
# Indices 1 2 3 4 5 6 
#
# 1 0.012258 -0.002674 -0.003020 0.000000 0.000000 0.000000
# 2 -0.002674 0.020222 -0.005032 0.000000 0.000000 0.000000
# 3 -0.003020 -0.005032 0.010931 0.000000 0.000000 0.000000
# 4 0.000000 0.000000 0.000000 0.056559 0.000000 0.000000
# 5 0.000000 0.000000 0.000000 0.000000 0.035174 0.000000
# 6 0.000000 0.000000 0.000000 0.000000 0.000000 0.062096
#
#
# Mechanical properties :
#
#
# Convention : Reuss Voigt Hill
#
# Bulk Modulus (GPa) = 45.53896 50.74703 48.14299
# Shear Modulus (GPa) = 22.12269 24.52886 23.32577
#
# Velocity S-wave (km/s) = 3.44305 3.62546 3.53543
# Velocity P-wave (km/s) = 6.34101 6.68718 6.51639
#
# Compressibility (1/GPa) = 0.02195922
#
# Stress axis : x y z
#
# Youngs Moduli (GPa) = 81.57794 49.45117 91.47944
#
# Poissons Ratio (x) = 0.13226 0.27628
# Poissons Ratio (y) = 0.21818 0.46029
# Poissons Ratio (z) = 0.24638 0.24882
#
# Static dielectric constant tensor:
#      x y z
#    x 3.373820 0.000000 0.000000 
#    y 0.000000 3.073250 0.000000 
#    z 0.000000 0.000000 4.098150 
# 
# 
# High freq. dielectric constant tensor:
#      x y z
#    x 1.694830 0.000000 0.000000 
#    y 0.000000 1.692950 0.000000 
#    z 0.000000 0.000000 1.755770 
# 
# From -- ./inp_files/44071.got.cif
#   From: 2010.03.12/outbox.cif.g09.slc.cpg/sg66_23_cif.got.tgz:44071.got - 2010.04.10 21:57:39.
