data_PCOD8276048
_publ_section_title
;
Structure prediction by ZEFSAII (Michael W. Deem and Ramdas Pophale) SiO2 
 PCOD8276048
Probable space group: C C C M
;
_chemical_formula_sum "Si O2"
_cell_formula_units_Z 96
_cell_length_a 30.196129
_cell_length_b 19.566013
_cell_length_c 8.835237
_cell_angle_alpha 90.000000
_cell_angle_beta 90.000000
_cell_angle_gamma 90.000000
_cell_volume 5220.015751
_symmetry_space_group_name_H-M "C C C M"
_symmetry_group_IT_number 66
_symmetry_cell_setting 'orthorhombic'
loop_
_space_group_symop_operation_xyz
x,y,z
-x,-y,z
x,-y,1/2-z
-x,y,1/2-z
-x,-y,-z
x,y,-z
-x,y,1/2+z
x,-y,1/2+z
1/2+x,1/2+y,z
1/2-x,1/2-y,z
1/2+x,1/2-y,1/2-z
1/2-x,1/2+y,1/2-z
1/2-x,1/2-y,-z
1/2+x,1/2+y,-z
1/2-x,1/2+y,1/2+z
1/2+x,1/2-y,1/2+z
loop_
_atom_site_type_symbol
_atom_site_label
_atom_site_fract_x
_atom_site_fract_y
_atom_site_fract_z
Si Si1 0.336425 0.432072 0.175897
Si Si2 0.127844 0.787363 0.678304
Si Si3 0.235663 0.570108 0.679330
Si Si4 0.452329 0.064205 0.325401
Si Si5 0.048185 0.715372 0.822660
Si Si6 0.207566 0.706545 0.821042
O O1 0.357195 0.500000 0.250000
O O2 0.366056 0.367035 0.218700
O O3 0.286366 0.419456 0.233656
O O4 0.335597 0.445833 0.000000
O O5 0.133457 0.773937 0.500000
O O6 0.079173 0.768182 0.734885
O O7 0.163431 0.743993 0.769465
O O8 0.216785 0.500000 0.750000
O O9 0.230783 0.567853 0.500000
O O10 0.207388 0.632552 0.744012
O O11 0.500000 0.067185 0.250000
O O12 0.457571 0.047558 0.500000
O O13 0.430831 0.139007 0.300012
O O14 0.425403 0.000000 0.250000
O O15 0.000000 0.721308 0.750000
O O16 0.045311 0.733451 0.000000
O O17 0.250000 0.750000 0.766059
O O18 0.207314 0.697316 0.000000
#
# Coordination Sequence:
#
# PCOD8276048 Si02
#       6
#    16  16  16  16  16  16
#     4   9  19  33  53  80 109 141 180 223 271 327
#     4  11  22  37  57  83 112 146 185 229 279 332
#     4  10  19  34  54  78 111 149 188 229 274 329
#     4   9  16  27  47  73 101 131 170 214 261 312
#     4  10  21  37  56  81 110 144 184 231 280 334
#     4  11  22  35  54  81 112 147 185 227 274 327
#
# _framework density 18.390749
#
# number of rings (size 3 to 8) (size 9 to 14) (size 15 to 20)
#    0.000    2.000    1.667    3.000    0.000    4.667 
#    0.000    0.833    0.000    2.500    0.000    3.500 
#    0.000    0.000    0.000    0.000    0.000    0.000 
#
# Total GULP energy -595128.498880 kJ/mol
# GULP energy per Si atom -12398.510393 kJ/mol
# Density = 1.834889 g / cm^3
# Si number density = 18.390749 Si / 1000 Ang^3
#
#
#
# Elastic Constant Matrix: (Units=GPa)
#
#
# Indices 1 2 3 4 5 6 
#
# 1 60.6254 40.2449 20.7989 0.0000 0.0000 0.0000
# 2 40.2449 139.8022 52.9523 0.0000 0.0000 0.0000
# 3 20.7989 52.9523 85.0520 0.0000 0.0000 0.0000
# 4 0.0000 0.0000 0.0000 35.4469 0.0000 0.0000
# 5 0.0000 0.0000 0.0000 0.0000 27.1266 0.0000
# 6 0.0000 0.0000 0.0000 0.0000 0.0000 25.6695
#
#
#
# Elastic Compliance Matrix: (Units=1/GPa)
#
#
# Indices 1 2 3 4 5 6 
#
# 1 0.020591 -0.005261 -0.001760 0.000000 0.000000 0.000000
# 2 -0.005261 0.010704 -0.005378 0.000000 0.000000 0.000000
# 3 -0.001760 -0.005378 0.015536 0.000000 0.000000 0.000000
# 4 0.000000 0.000000 0.000000 0.028211 0.000000 0.000000
# 5 0.000000 0.000000 0.000000 0.000000 0.036864 0.000000
# 6 0.000000 0.000000 0.000000 0.000000 0.000000 0.038957
#
#
# Mechanical properties :
#
#
# Convention : Reuss Voigt Hill
#
# Bulk Modulus (GPa) = 45.38478 57.05241 51.21859
# Shear Modulus (GPa) = 27.32156 29.08083 28.20120
#
# Velocity S-wave (km/s) = 3.85855 3.98084 3.92017
# Velocity P-wave (km/s) = 6.67704 7.22628 6.95708
#
# Compressibility (1/GPa) = 0.02203382
#
# Stress axis : x y z
#
# Youngs Moduli (GPa) = 48.56526 93.41978 64.36614
#
# Poissons Ratio (x) = 0.49147 0.11328
# Poissons Ratio (y) = 0.25550 0.34615
# Poissons Ratio (z) = 0.08547 0.50240
#
# Static dielectric constant tensor:
#      x y z
#    x 3.040770 0.000000 0.000000 
#    y 0.000000 3.917540 0.000000 
#    z 0.000000 0.000000 3.450540 
# 
# 
# High freq. dielectric constant tensor:
#      x y z
#    x 1.670990 0.000000 0.000000 
#    y 0.000000 1.725970 0.000000 
#    z 0.000000 0.000000 1.727780 
# 
# From -- ./inp_files/10231.got.cif
#   From: 2010.03.12/outbox.cif.g09.slc.cpg/sg66_6_cif.got.tgz:10231.got - 2010.04.10 21:57:39.
