data_PCOD8276859
_publ_section_title
;
Structure prediction by ZEFSAII (Michael W. Deem and Ramdas Pophale) SiO2 
 PCOD8276859
Probable space group: C C C M
;
_chemical_formula_sum "Si O2"
_cell_formula_units_Z 40
_cell_length_a 23.496586
_cell_length_b 4.893126
_cell_length_c 17.495928
_cell_angle_alpha 90.000000
_cell_angle_beta 90.000000
_cell_angle_gamma 90.000000
_cell_volume 2011.537563
_symmetry_space_group_name_H-M "C C C M"
_symmetry_group_IT_number 66
_symmetry_cell_setting 'orthorhombic'
loop_
_space_group_symop_operation_xyz
x,y,z
-x,-y,z
x,-y,1/2-z
-x,y,1/2-z
-x,-y,-z
x,y,-z
-x,y,1/2+z
x,-y,1/2+z
1/2+x,1/2+y,z
1/2-x,1/2-y,z
1/2+x,1/2-y,1/2-z
1/2-x,1/2+y,1/2-z
1/2-x,1/2-y,-z
1/2+x,1/2+y,-z
1/2-x,1/2+y,1/2+z
1/2+x,1/2-y,1/2+z
loop_
_atom_site_type_symbol
_atom_site_label
_atom_site_fract_x
_atom_site_fract_y
_atom_site_fract_z
Si Si1 0.458636 0.748335 0.000000
Si Si2 0.312445 0.872425 0.329194
Si Si3 0.147445 0.869467 0.084035
O O1 0.500000 0.500000 0.000000
O O2 0.417751 0.739602 0.075306
O O3 0.500000 0.000000 0.000000
O O4 0.250000 0.750000 0.318221
O O5 0.352187 0.624325 0.357666
O O6 0.335611 0.000000 0.250000
O O7 0.312417 0.120742 0.389127
O O8 0.169686 0.966734 0.000000
#
# Coordination Sequence:
#
# PCOD8276859 Si02
#       3
#     8  16  16
#     4  10  20  40  65  90 119 154 202 260 324 356
#     4  12  23  39  59  88 131 171 197 237 307 369
#     4  10  23  38  62  95 116 164 205 259 292 361
#
# _framework density 19.885287000000002
#
# number of rings (size 3 to 8) (size 9 to 14) (size 15 to 20)
#    1.200    0.000    0.000    8.400    0.000    4.800 
#    0.000    0.000    0.000   18.000    0.000    0.000 
#    0.000    0.000    0.000    0.000    0.000    0.000 
#
# Total GULP energy -247830.052284 kJ/mol
# GULP energy per Si atom -12391.502614 kJ/mol
# Density = 1.984003 g / cm^3
# Si number density = 19.885287 Si / 1000 Ang^3
#
#
#
# Elastic Constant Matrix: (Units=GPa)
#
#
# Indices 1 2 3 4 5 6 
#
# 1 76.0520 53.7029 52.8016 0.0000 0.0000 0.0000
# 2 53.7029 179.7845 72.5796 0.0000 0.0000 0.0000
# 3 52.8016 72.5796 112.0592 0.0000 0.0000 0.0000
# 4 0.0000 0.0000 0.0000 52.1686 0.0000 0.0000
# 5 0.0000 0.0000 0.0000 0.0000 9.4282 0.0000
# 6 0.0000 0.0000 0.0000 0.0000 0.0000 50.0346
#
#
#
# Elastic Compliance Matrix: (Units=1/GPa)
#
#
# Indices 1 2 3 4 5 6 
#
# 1 0.020701 -0.003041 -0.007785 0.000000 0.000000 0.000000
# 2 -0.003041 0.007978 -0.003735 0.000000 0.000000 0.000000
# 3 -0.007785 -0.003735 0.015011 0.000000 0.000000 0.000000
# 4 0.000000 0.000000 0.000000 0.019169 0.000000 0.000000
# 5 0.000000 0.000000 0.000000 0.000000 0.106065 0.000000
# 6 0.000000 0.000000 0.000000 0.000000 0.000000 0.019986
#
#
# Mechanical properties :
#
#
# Convention : Reuss Voigt Hill
#
# Bulk Modulus (GPa) = 68.63515 80.67378 74.65447
# Shear Modulus (GPa) = 22.43299 34.91371 28.67335
#
# Velocity S-wave (km/s) = 3.36239 4.19472 3.80141
# Velocity P-wave (km/s) = 7.04732 8.00741 7.54265
#
# Compressibility (1/GPa) = 0.01456979
#
# Stress axis : x y z
#
# Youngs Moduli (GPa) = 48.30726 125.34166 66.61892
#
# Poissons Ratio (x) = 0.38114 0.51860
# Poissons Ratio (y) = 0.14689 0.24879
# Poissons Ratio (z) = 0.37605 0.46810
#
# Static dielectric constant tensor:
#      x y z
#    x 3.469120 0.000000 0.000000 
#    y 0.000000 3.742450 0.000000 
#    z 0.000000 0.000000 -2.267430 
# 
# 
# High freq. dielectric constant tensor:
#      x y z
#    x 1.749110 0.000000 0.000000 
#    y 0.000000 1.801760 0.000000 
#    z 0.000000 0.000000 1.765420 
# 
# From -- ./inp_files/22125.got.cif
#   From: 2010.03.12/outbox.cif.g09.slc.cpg/sg66_12_cif.got.tgz:22125.got - 2010.04.10 21:57:39.
