data_PCOD8276575
_publ_section_title
;
Structure prediction by ZEFSAII (Michael W. Deem and Ramdas Pophale) SiO2 
 PCOD8276575
Probable space group: C C C M
;
_chemical_formula_sum "Si O2"
_cell_formula_units_Z 80
_cell_length_a 14.640341
_cell_length_b 11.158079
_cell_length_c 23.552080
_cell_angle_alpha 90.000000
_cell_angle_beta 90.000000
_cell_angle_gamma 90.000000
_cell_volume 3847.422603
_symmetry_space_group_name_H-M "C C C M"
_symmetry_group_IT_number 66
_symmetry_cell_setting 'orthorhombic'
loop_
_space_group_symop_operation_xyz
x,y,z
-x,-y,z
x,-y,1/2-z
-x,y,1/2-z
-x,-y,-z
x,y,-z
-x,y,1/2+z
x,-y,1/2+z
1/2+x,1/2+y,z
1/2-x,1/2-y,z
1/2+x,1/2-y,1/2-z
1/2-x,1/2+y,1/2-z
1/2-x,1/2-y,-z
1/2+x,1/2+y,-z
1/2-x,1/2+y,1/2+z
1/2+x,1/2-y,1/2+z
loop_
_atom_site_type_symbol
_atom_site_label
_atom_site_fract_x
_atom_site_fract_y
_atom_site_fract_z
Si Si1 0.482653 0.639273 0.437216
Si Si2 0.895412 0.678194 0.763749
Si Si3 0.848248 0.305217 0.065440
Si Si4 0.173047 0.471875 0.335580
Si Si5 0.178052 0.844974 0.349463
O O1 0.500000 0.500000 0.438825
O O2 0.451242 0.682583 0.500000
O O3 0.574913 0.707764 0.419299
O O4 0.405712 0.662261 0.391668
O O5 0.833769 0.635366 0.710536
O O6 0.891953 0.579515 0.814309
O O7 0.853772 0.802691 0.786645
O O8 0.000000 0.699565 0.750000
O O9 0.750000 0.250000 0.080359
O O10 0.862307 0.423241 0.103899
O O11 0.852946 0.345796 0.000000
O O12 0.276650 0.523269 0.342621
O O13 0.250000 0.750000 0.374661
#
# Coordination Sequence:
#
# PCOD8276575 Si02
#       5
#    16  16  16  16  16
#     4  10  21  39  62  89 122 158 200 248 300 359
#     4  10  21  39  61  84 117 160 206 254 305 359
#     4  10  21  37  61  91 121 157 200 250 307 365
#     4  10  20  35  60  85 115 154 200 249 299 360
#     4  10  22  39  59  88 122 158 200 245 303 363
#
# _framework density 20.793140000000001
#
# number of rings (size 3 to 8) (size 9 to 14) (size 15 to 20)
#    0.000    2.000    0.000    3.600    0.000    8.400 
#    0.000   13.000    0.000   13.200    0.000    0.000 
#    0.000    0.000    0.000    0.000    0.000    0.000 
#
# Total GULP energy -495862.175449 kJ/mol
# GULP energy per Si atom -12396.554386 kJ/mol
# Density = 2.074581 g / cm^3
# Si number density = 20.793140 Si / 1000 Ang^3
#
#
#
# Elastic Constant Matrix: (Units=GPa)
#
#
# Indices 1 2 3 4 5 6 
#
# 1 148.0639 47.9158 70.9854 0.0000 0.0000 0.0000
# 2 47.9158 87.2638 62.7673 0.0000 0.0000 0.0000
# 3 70.9854 62.7673 124.4058 0.0000 0.0000 0.0000
# 4 0.0000 0.0000 0.0000 59.7552 0.0000 0.0000
# 5 0.0000 0.0000 0.0000 0.0000 42.6294 0.0000
# 6 0.0000 0.0000 0.0000 0.0000 0.0000 35.9545
#
#
#
# Elastic Compliance Matrix: (Units=1/GPa)
#
#
# Indices 1 2 3 4 5 6 
#
# 1 0.009531 -0.002074 -0.004391 0.000000 0.000000 0.000000
# 2 -0.002074 0.018439 -0.008119 0.000000 0.000000 0.000000
# 3 -0.004391 -0.008119 0.014640 0.000000 0.000000 0.000000
# 4 0.000000 0.000000 0.000000 0.016735 0.000000 0.000000
# 5 0.000000 0.000000 0.000000 0.000000 0.023458 0.000000
# 6 0.000000 0.000000 0.000000 0.000000 0.000000 0.027813
#
#
# Mechanical properties :
#
#
# Convention : Reuss Voigt Hill
#
# Bulk Modulus (GPa) = 74.40908 80.34116 77.37512
# Shear Modulus (GPa) = 34.65830 39.53882 37.09856
#
# Velocity S-wave (km/s) = 4.08709 4.36539 4.22853
# Velocity P-wave (km/s) = 7.62467 8.00818 7.81878
#
# Compressibility (1/GPa) = 0.01343922
#
# Stress axis : x y z
#
# Youngs Moduli (GPa) = 104.92595 54.23398 68.30394
#
# Poissons Ratio (x) = 0.11250 0.29995
# Poissons Ratio (y) = 0.21766 0.55458
# Poissons Ratio (z) = 0.46078 0.44034
#
# Static dielectric constant tensor:
#      x y z
#    x 3.850330 0.000000 0.000000 
#    y 0.000000 3.873500 0.000000 
#    z 0.000000 0.000000 3.963040 
# 
# 
# High freq. dielectric constant tensor:
#      x y z
#    x 1.817420 0.000000 0.000000 
#    y 0.000000 1.803980 0.000000 
#    z 0.000000 0.000000 1.816950 
# 
# From -- ./inp_files/57890.got.cif
#   From: 2010.03.12/outbox.cif.g09.slc.cpg/sg66_29_cif.got.tgz:57890.got - 2010.04.10 21:57:39.
