data_PCOD8276543
_publ_section_title
;
Structure prediction by ZEFSAII (Michael W. Deem and Ramdas Pophale) SiO2 
 PCOD8276543
Probable space group: C C C M
;
_chemical_formula_sum "Si O2"
_cell_formula_units_Z 116
_cell_length_a 32.767262
_cell_length_b 20.965941
_cell_length_c 8.764763
_cell_angle_alpha 90.000000
_cell_angle_beta 90.000000
_cell_angle_gamma 90.000000
_cell_volume 6021.361345
_symmetry_space_group_name_H-M "C C C M"
_symmetry_group_IT_number 66
_symmetry_cell_setting 'orthorhombic'
loop_
_space_group_symop_operation_xyz
x,y,z
-x,-y,z
x,-y,1/2-z
-x,y,1/2-z
-x,-y,-z
x,y,-z
-x,y,1/2+z
x,-y,1/2+z
1/2+x,1/2+y,z
1/2-x,1/2-y,z
1/2+x,1/2-y,1/2-z
1/2-x,1/2+y,1/2-z
1/2-x,1/2-y,-z
1/2+x,1/2+y,-z
1/2-x,1/2+y,1/2+z
1/2+x,1/2-y,1/2+z
loop_
_atom_site_type_symbol
_atom_site_label
_atom_site_fract_x
_atom_site_fract_y
_atom_site_fract_z
Si Si1 0.692047 0.784197 0.180267
Si Si2 0.825654 0.932608 0.824855
Si Si3 0.078074 0.439686 0.665446
Si Si4 0.395520 0.803107 0.818582
Si Si5 0.766331 0.162480 0.179360
Si Si6 0.082729 0.930366 0.675747
Si Si7 0.543119 0.308835 0.180602
Si Si8 0.500000 0.000000 0.250000
O O1 0.646574 0.799147 0.229251
O O2 0.722900 0.840518 0.232212
O O3 0.706942 0.722083 0.268506
O O4 0.694541 0.772861 0.000000
O O5 0.792347 0.898607 0.721869
O O6 0.871029 0.903027 0.812534
O O7 0.829971 0.000000 0.750000
O O8 0.811017 0.934860 0.000000
O O9 0.099505 0.500000 0.750000
O O10 0.098316 0.437890 0.500000
O O11 0.084955 0.370181 0.739675
O O12 0.029358 0.453672 0.651257
O O13 0.424261 0.744711 0.767519
O O14 0.388515 0.801504 0.000000
O O15 0.758123 0.165268 0.000000
O O16 0.069316 0.936092 0.500000
O O17 0.054677 0.878860 0.759480
O O18 0.077062 0.000000 0.750000
O O19 0.500000 0.287959 0.250000
O O20 0.539702 0.311603 0.000000
#
# Coordination Sequence:
#
# PCOD8276543 Si02
#       8
#    16  16  16  16  16  16  16   4
#     4  11  22  37  58  85 112 146 188 233 279 337
#     4  10  20  35  57  87 118 149 187 232 278 331
#     4   9  19  34  56  82 111 144 185 230 278 333
#     4  10  22  40  58  83 117 152 187 234 290 347
#     4  11  21  36  59  84 114 151 186 229 278 335
#     4  10  21  38  60  84 115 151 192 235 282 337
#     4  11  24  39  58  83 114 149 190 237 290 343
#     4   8  18  32  58  84 110 144 188 232 278 332
#
# _framework density 19.264748000000001
#
# number of rings (size 3 to 8) (size 9 to 14) (size 15 to 20)
#    0.414    1.379    0.000    5.586    0.966    5.793 
#    0.000    2.069    0.000    1.655    0.000    0.000 
#    0.000    0.000    0.000    0.000    0.000    0.000 
#
# Total GULP energy -718854.129744 kJ/mol
# GULP energy per Si atom -12394.036720 kJ/mol
# Density = 1.922090 g / cm^3
# Si number density = 19.264748 Si / 1000 Ang^3
#
#
#
# Elastic Constant Matrix: (Units=GPa)
#
#
# Indices 1 2 3 4 5 6 
#
# 1 109.0578 43.8134 30.1356 0.0000 0.0000 0.0000
# 2 43.8134 96.6847 30.1516 0.0000 0.0000 0.0000
# 3 30.1356 30.1516 87.3867 0.0000 0.0000 0.0000
# 4 0.0000 0.0000 0.0000 29.6680 0.0000 0.0000
# 5 0.0000 0.0000 0.0000 0.0000 32.8926 0.0000
# 6 0.0000 0.0000 0.0000 0.0000 0.0000 34.0554
#
#
#
# Elastic Compliance Matrix: (Units=1/GPa)
#
#
# Indices 1 2 3 4 5 6 
#
# 1 0.011665 -0.004518 -0.002464 0.000000 0.000000 0.000000
# 2 -0.004518 0.013340 -0.003045 0.000000 0.000000 0.000000
# 3 -0.002464 -0.003045 0.013344 0.000000 0.000000 0.000000
# 4 0.000000 0.000000 0.000000 0.033706 0.000000 0.000000
# 5 0.000000 0.000000 0.000000 0.000000 0.030402 0.000000
# 6 0.000000 0.000000 0.000000 0.000000 0.000000 0.029364
#
#
# Mechanical properties :
#
#
# Convention : Reuss Voigt Hill
#
# Bulk Modulus (GPa) = 54.65790 55.70334 55.18062
# Shear Modulus (GPa) = 31.65110 31.92513 31.78811
#
# Velocity S-wave (km/s) = 4.05773 4.07526 4.06651
# Velocity P-wave (km/s) = 7.09839 7.14990 7.12419
#
# Compressibility (1/GPa) = 0.01829562
#
# Stress axis : x y z
#
# Youngs Moduli (GPa) = 85.72414 74.96431 74.94203
#
# Poissons Ratio (x) = 0.33867 0.18466
# Poissons Ratio (y) = 0.38729 0.22818
# Poissons Ratio (z) = 0.21123 0.22824
#
# Static dielectric constant tensor:
#      x y z
#    x 3.843760 0.000000 0.000000 
#    y 0.000000 3.558360 0.000000 
#    z 0.000000 0.000000 3.576370 
# 
# 
# High freq. dielectric constant tensor:
#      x y z
#    x 1.745260 0.000000 0.000000 
#    y 0.000000 1.747580 0.000000 
#    z 0.000000 0.000000 1.757460 
# 
# From -- ./inp_files/11729.got.cif
#   From: 2010.03.12/outbox.cif.g09.slc.cpg/sg66_6_cif.got.tgz:11729.got - 2010.04.10 21:57:39.
