data_PCOD8276012
_publ_section_title
;
Structure prediction by ZEFSAII (Michael W. Deem and Ramdas Pophale) SiO2 
 PCOD8276012
Probable space group: C C C M
;
_chemical_formula_sum "Si O2"
_cell_formula_units_Z 80
_cell_length_a 10.170555
_cell_length_b 26.797316
_cell_length_c 13.295711
_cell_angle_alpha 90.000000
_cell_angle_beta 90.000000
_cell_angle_gamma 90.000000
_cell_volume 3623.660624
_symmetry_space_group_name_H-M "C C C M"
_symmetry_group_IT_number 66
_symmetry_cell_setting 'orthorhombic'
loop_
_space_group_symop_operation_xyz
x,y,z
-x,-y,z
x,-y,1/2-z
-x,y,1/2-z
-x,-y,-z
x,y,-z
-x,y,1/2+z
x,-y,1/2+z
1/2+x,1/2+y,z
1/2-x,1/2-y,z
1/2+x,1/2-y,1/2-z
1/2-x,1/2+y,1/2-z
1/2-x,1/2-y,-z
1/2+x,1/2+y,-z
1/2-x,1/2+y,1/2+z
1/2+x,1/2-y,1/2+z
loop_
_atom_site_type_symbol
_atom_site_label
_atom_site_fract_x
_atom_site_fract_y
_atom_site_fract_z
Si Si1 0.834996 0.943319 0.764714
Si Si2 0.072566 0.452297 0.113959
Si Si3 0.673882 0.886274 0.385372
Si Si4 0.204724 0.193500 0.276255
Si Si5 0.954429 0.144598 0.380445
O O1 0.702716 0.939314 0.828166
O O2 0.793484 0.921020 0.656235
O O3 0.945941 0.910733 0.825884
O O4 0.885158 0.000000 0.750000
O O5 0.000000 0.500000 0.161718
O O6 0.972179 0.407011 0.123648
O O7 0.112988 0.464236 0.000000
O O8 0.713012 0.875933 0.500000
O O9 0.669808 0.835736 0.320104
O O10 0.250000 0.250000 0.281029
O O11 0.170144 0.176541 0.162244
O O12 0.082717 0.176391 0.348239
O O13 0.943481 0.139239 0.500000
#
# Coordination Sequence:
#
# PCOD8276012 Si02
#       5
#    16  16  16  16  16
#     4  11  21  36  62  92 138 178 213 263 328 389
#     4  10  19  33  57  90 128 172 223 266 319 387
#     4  10  21  35  58  91 125 168 221 271 320 389
#     4  10  23  47  72  94 126 172 222 280 345 404
#     4  10  23  44  70 103 137 170 222 280 336 404
#
# _framework density 22.077124000000001
#
# number of rings (size 3 to 8) (size 9 to 14) (size 15 to 20)
#    0.000    1.800    2.000    1.800    0.000    2.800 
#   14.400    8.000    0.000   12.000    0.000    0.000 
#    0.000    0.000    0.000    0.000    0.000    0.000 
#
# Total GULP energy -495619.512179 kJ/mol
# GULP energy per Si atom -12390.487804 kJ/mol
# Density = 2.202688 g / cm^3
# Si number density = 22.077124 Si / 1000 Ang^3
#
#
#
# Elastic Constant Matrix: (Units=GPa)
#
#
# Indices 1 2 3 4 5 6 
#
# 1 87.7931 30.3199 37.0518 0.0000 0.0000 0.0000
# 2 30.3199 196.1647 50.5625 0.0000 0.0000 0.0000
# 3 37.0518 50.5625 155.7075 0.0000 0.0000 0.0000
# 4 0.0000 0.0000 0.0000 24.4310 0.0000 0.0000
# 5 0.0000 0.0000 0.0000 0.0000 16.3701 0.0000
# 6 0.0000 0.0000 0.0000 0.0000 0.0000 12.9140
#
#
#
# Elastic Compliance Matrix: (Units=1/GPa)
#
#
# Indices 1 2 3 4 5 6 
#
# 1 0.012968 -0.001319 -0.002657 0.000000 0.000000 0.000000
# 2 -0.001319 0.005698 -0.001536 0.000000 0.000000 0.000000
# 3 -0.002657 -0.001536 0.007553 0.000000 0.000000 0.000000
# 4 0.000000 0.000000 0.000000 0.040932 0.000000 0.000000
# 5 0.000000 0.000000 0.000000 0.000000 0.061087 0.000000
# 6 0.000000 0.000000 0.000000 0.000000 0.000000 0.077435
#
#
# Mechanical properties :
#
#
# Convention : Reuss Voigt Hill
#
# Bulk Modulus (GPa) = 65.82028 75.05930 70.43979
# Shear Modulus (GPa) = 22.54662 32.19175 27.36918
#
# Velocity S-wave (km/s) = 3.19919 3.82272 3.52477
# Velocity P-wave (km/s) = 6.59734 7.31824 6.96712
#
# Compressibility (1/GPa) = 0.01519289
#
# Stress axis : x y z
#
# Youngs Moduli (GPa) = 77.11559 175.51074 132.38938
#
# Poissons Ratio (x) = 0.23157 0.35180
# Poissons Ratio (y) = 0.10174 0.20338
# Poissons Ratio (z) = 0.20492 0.26962
#
# Static dielectric constant tensor:
#      x y z
#    x 4.203180 0.000000 0.000000 
#    y 0.000000 4.072200 0.000000 
#    z 0.000000 0.000000 4.300660 
# 
# 
# High freq. dielectric constant tensor:
#      x y z
#    x 1.879020 0.000000 0.000000 
#    y 0.000000 1.854710 0.000000 
#    z 0.000000 0.000000 1.879290 
# 
# From -- ./inp_files/26699.got.cif
#   From: 2010.03.12/outbox.cif.g09.slc.cpg/sg66_14_cif.got.tgz:26699.got - 2010.04.10 21:57:39.
