data_PCOD8276585
_publ_section_title
;
Structure prediction by ZEFSAII (Michael W. Deem and Ramdas Pophale) SiO2 
 PCOD8276585
Probable space group: C C C M
;
_chemical_formula_sum "Si O2"
_cell_formula_units_Z 116
_cell_length_a 22.351685
_cell_length_b 28.467588
_cell_length_c 9.141381
_cell_angle_alpha 90.000000
_cell_angle_beta 90.000000
_cell_angle_gamma 90.000000
_cell_volume 5816.647564
_symmetry_space_group_name_H-M "C C C M"
_symmetry_group_IT_number 66
_symmetry_cell_setting 'orthorhombic'
loop_
_space_group_symop_operation_xyz
x,y,z
-x,-y,z
x,-y,1/2-z
-x,y,1/2-z
-x,-y,-z
x,y,-z
-x,y,1/2+z
x,-y,1/2+z
1/2+x,1/2+y,z
1/2-x,1/2-y,z
1/2+x,1/2-y,1/2-z
1/2-x,1/2+y,1/2-z
1/2-x,1/2-y,-z
1/2+x,1/2+y,-z
1/2-x,1/2+y,1/2+z
1/2+x,1/2-y,1/2+z
loop_
_atom_site_type_symbol
_atom_site_label
_atom_site_fract_x
_atom_site_fract_y
_atom_site_fract_z
Si Si1 0.397283 0.069860 0.164988
Si Si2 0.868145 0.330472 0.672931
Si Si3 0.000000 0.500000 0.750000
Si Si4 0.562831 0.363919 0.329314
Si Si5 0.767170 0.453685 0.324496
Si Si6 0.560088 0.743046 0.832710
Si Si7 0.177525 0.885807 0.831877
Si Si8 0.756892 0.302256 0.834385
O O1 0.407557 0.123459 0.224150
O O2 0.336251 0.049799 0.235776
O O3 0.455293 0.035603 0.167337
O O4 0.378658 0.076402 0.000000
O O5 0.860811 0.328896 0.500000
O O6 0.895009 0.281690 0.733280
O O7 0.802768 0.333879 0.742122
O O8 0.500000 0.373612 0.250000
O O9 0.557801 0.378236 0.500000
O O10 0.583170 0.309811 0.312495
O O11 0.613636 0.393936 0.247055
O O12 0.740093 0.500000 0.250000
O O13 0.761709 0.455568 0.500000
O O14 0.728139 0.411655 0.260998
O O15 0.500000 0.751317 0.750000
O O16 0.547292 0.754760 0.000000
O O17 0.194228 0.830372 0.830069
O O18 0.174149 0.903976 0.000000
O O19 0.750000 0.250000 0.765895
O O20 0.780960 0.297706 0.000000
#
# Coordination Sequence:
#
# PCOD8276585 Si02
#       8
#    16  16   4  16  16  16  16  16
#     4  10  22  38  57  81 112 149 197 254 311 364
#     4  10  20  36  53  76 110 150 196 247 301 360
#     4  12  22  40  60  86 112 156 208 264 322 376
#     4  10  20  36  58  87 120 159 197 241 290 349
#     4  11  22  41  64  89 119 154 197 251 306 366
#     4   9  19  33  52  77 111 152 199 244 294 353
#     4  11  22  37  59  89 119 156 200 246 300 363
#     4  10  21  35  53  82 118 154 194 244 300 358
#
# _framework density 19.94276
#
# number of rings (size 3 to 8) (size 9 to 14) (size 15 to 20)
#    0.000    1.793    2.069    2.276    0.966    1.931 
#    0.000    1.379    0.000    0.414    0.000    2.897 
#    0.000    0.000    0.000    0.000    0.000    0.000 
#
# Total GULP energy -718558.575560 kJ/mol
# GULP energy per Si atom -12388.940958 kJ/mol
# Density = 1.989737 g / cm^3
# Si number density = 19.942760 Si / 1000 Ang^3
#
#
#
# Elastic Constant Matrix: (Units=GPa)
#
#
# Indices 1 2 3 4 5 6 
#
# 1 96.9402 43.0016 47.5544 0.0000 0.0000 0.0000
# 2 43.0016 78.6032 27.4147 0.0000 0.0000 0.0000
# 3 47.5544 27.4147 85.5210 0.0000 0.0000 0.0000
# 4 0.0000 0.0000 0.0000 26.0204 0.0000 0.0000
# 5 0.0000 0.0000 0.0000 0.0000 25.1035 0.0000
# 6 0.0000 0.0000 0.0000 0.0000 0.0000 32.7661
#
#
#
# Elastic Compliance Matrix: (Units=1/GPa)
#
#
# Indices 1 2 3 4 5 6 
#
# 1 0.016818 -0.006686 -0.007208 0.000000 0.000000 0.000000
# 2 -0.006686 0.016982 -0.001726 0.000000 0.000000 0.000000
# 3 -0.007208 -0.001726 0.016254 0.000000 0.000000 0.000000
# 4 0.000000 0.000000 0.000000 0.038431 0.000000 0.000000
# 5 0.000000 0.000000 0.000000 0.000000 0.039835 0.000000
# 6 0.000000 0.000000 0.000000 0.000000 0.000000 0.030519
#
#
# Mechanical properties :
#
#
# Convention : Reuss Voigt Hill
#
# Bulk Modulus (GPa) = 53.15369 55.22287 54.18828
# Shear Modulus (GPa) = 25.46453 26.31758 25.89106
#
# Velocity S-wave (km/s) = 3.57722 3.63665 3.60706
# Velocity P-wave (km/s) = 6.61612 6.73680 6.67673
#
# Compressibility (1/GPa) = 0.01881337
#
# Stress axis : x y z
#
# Youngs Moduli (GPa) = 59.46136 58.88593 61.52200
#
# Poissons Ratio (x) = 0.39374 0.44346
# Poissons Ratio (y) = 0.39759 0.10617
# Poissons Ratio (z) = 0.42860 0.10162
#
# Static dielectric constant tensor:
#      x y z
#    x 3.401810 0.000000 0.000000 
#    y 0.000000 3.793810 0.000000 
#    z 0.000000 0.000000 3.411450 
# 
# 
# High freq. dielectric constant tensor:
#      x y z
#    x 1.769750 0.000000 0.000000 
#    y 0.000000 1.775560 0.000000 
#    z 0.000000 0.000000 1.769060 
# 
# From -- ./inp_files/9401.got.cif
#   From: 2010.03.12/outbox.cif.g09.slc.cpg/sg66_5_cif.got.tgz:9401.got - 2010.04.10 21:57:39.
