data_PCOD8276812
_publ_section_title
;
Structure prediction by ZEFSAII (Michael W. Deem and Ramdas Pophale) SiO2 
 PCOD8276812
Probable space group: C C C M
;
_chemical_formula_sum "Si O2"
_cell_formula_units_Z 64
_cell_length_a 12.335431
_cell_length_b 10.098155
_cell_length_c 22.839230
_cell_angle_alpha 90.000000
_cell_angle_beta 90.000000
_cell_angle_gamma 90.000000
_cell_volume 2844.970837
_symmetry_space_group_name_H-M "C C C M"
_symmetry_group_IT_number 66
_symmetry_cell_setting 'orthorhombic'
loop_
_space_group_symop_operation_xyz
x,y,z
-x,-y,z
x,-y,1/2-z
-x,y,1/2-z
-x,-y,-z
x,y,-z
-x,y,1/2+z
x,-y,1/2+z
1/2+x,1/2+y,z
1/2-x,1/2-y,z
1/2+x,1/2-y,1/2-z
1/2-x,1/2+y,1/2-z
1/2-x,1/2-y,-z
1/2+x,1/2+y,-z
1/2-x,1/2+y,1/2+z
1/2+x,1/2-y,1/2+z
loop_
_atom_site_type_symbol
_atom_site_label
_atom_site_fract_x
_atom_site_fract_y
_atom_site_fract_z
Si Si1 0.645064 0.155819 0.000000
Si Si2 0.994552 0.689615 0.181456
Si Si3 0.160213 0.142446 0.122964
Si Si4 0.448041 0.643074 0.500000
Si Si5 0.344102 0.964985 0.123867
O O1 0.750000 0.250000 0.000000
O O2 0.642763 0.056628 0.945227
O O3 0.538907 0.245366 0.000000
O O4 0.945316 0.834182 0.164858
O O5 0.919671 0.583973 0.147245
O O6 0.000000 0.665046 0.250000
O O7 0.117726 0.669553 0.157241
O O8 0.250000 0.250000 0.138742
O O9 0.127670 0.158036 0.055953
O O10 0.216950 0.999789 0.135940
O O11 0.500000 0.500000 0.500000
#
# Coordination Sequence:
#
# PCOD8276812 Si02
#       5
#     8  16  16   8  16
#     4  12  24  39  60 101 131 177 217 280 348 423
#     4  10  21  40  66  92 126 174 227 276 327 396
#     4  10  21  39  65  96 126 168 213 269 331 401
#     4  12  23  40  64  91 141 169 205 276 344 414
#     4  10  20  38  63  94 128 162 223 268 337 397
#
# _framework density 22.495837000000002
#
# number of rings (size 3 to 8) (size 9 to 14) (size 15 to 20)
#    0.000    1.500    2.500    4.125    0.000    5.000 
#    0.000    6.250    5.500    0.000    0.000    0.000 
#    0.000    0.000    0.000    0.000    0.000    0.000 
#
# Total GULP energy -396439.465525 kJ/mol
# GULP energy per Si atom -12388.733298 kJ/mol
# Density = 2.244464 g / cm^3
# Si number density = 22.495837 Si / 1000 Ang^3
#
#
#
# Elastic Constant Matrix: (Units=GPa)
#
#
# Indices 1 2 3 4 5 6 
#
# 1 139.5872 64.0712 60.6450 0.0000 0.0000 0.0000
# 2 64.0712 76.6889 48.2025 0.0000 0.0000 0.0000
# 3 60.6450 48.2025 185.0964 0.0000 0.0000 0.0000
# 4 0.0000 0.0000 0.0000 -1.5728 0.0000 0.0000
# 5 0.0000 0.0000 0.0000 0.0000 11.7175 0.0000
# 6 0.0000 0.0000 0.0000 0.0000 0.0000 66.0465
#
#
#
# Elastic Compliance Matrix: (Units=1/GPa)
#
#
# Indices 1 2 3 4 5 6 
#
# 1 0.011994 -0.009028 -0.001579 0.000000 0.000000 0.000000
# 2 -0.009028 0.022388 -0.002872 0.000000 0.000000 0.000000
# 3 -0.001579 -0.002872 0.006668 0.000000 0.000000 0.000000
# 4 0.000000 0.000000 0.000000 -0.635826 0.000000 0.000000
# 5 0.000000 0.000000 0.000000 0.000000 0.085343 0.000000
# 6 0.000000 0.000000 0.000000 0.000000 0.000000 0.015141
#
#
# Mechanical properties :
#
#
# Convention : Reuss Voigt Hill
#
# Bulk Modulus (GPa) = 70.96510 83.02332 76.99421
# Shear Modulus (GPa) = -10.80758 30.46850 9.83046
#
# Velocity S-wave (km/s) = -2.19424 3.68422 2.09270
# Velocity P-wave (km/s) = 5.01944 7.42187 6.33557
#
# Compressibility (1/GPa) = 0.01409143
#
# Stress axis : x y z
#
# Youngs Moduli (GPa) = 83.37625 44.66704 149.97580
#
# Poissons Ratio (x) = 0.40327 0.23674
# Poissons Ratio (y) = 0.75275 0.43076
# Poissons Ratio (z) = 0.13161 0.12829
#
# Static dielectric constant tensor:
#      x y z
#    x 5.615810 0.000000 0.000000 
#    y 0.000000 4.720020 0.000000 
#    z 0.000000 0.000000 3.880520 
# 
# 
# High freq. dielectric constant tensor:
#      x y z
#    x 1.897610 0.000000 0.000000 
#    y 0.000000 1.870030 0.000000 
#    z 0.000000 0.000000 1.879180 
# 
# From -- ./inp_files/63334.got.cif
#   From: 2010.03.12/outbox.cif.g09.slc.cpg/sg66_32_cif.got.tgz:63334.got - 2010.04.10 21:57:39.
