data_PCOD8276155
_publ_section_title
;
Structure prediction by ZEFSAII (Michael W. Deem and Ramdas Pophale) SiO2 
 PCOD8276155
Probable space group: C C C M
;
_chemical_formula_sum "Si O2"
_cell_formula_units_Z 116
_cell_length_a 10.863665
_cell_length_b 26.996306
_cell_length_c 19.004047
_cell_angle_alpha 90.000000
_cell_angle_beta 90.000000
_cell_angle_gamma 90.000000
_cell_volume 5573.484567
_symmetry_space_group_name_H-M "C C C M"
_symmetry_group_IT_number 66
_symmetry_cell_setting 'orthorhombic'
loop_
_space_group_symop_operation_xyz
x,y,z
-x,-y,z
x,-y,1/2-z
-x,y,1/2-z
-x,-y,-z
x,y,-z
-x,y,1/2+z
x,-y,1/2+z
1/2+x,1/2+y,z
1/2-x,1/2-y,z
1/2+x,1/2-y,1/2-z
1/2-x,1/2+y,1/2-z
1/2-x,1/2-y,-z
1/2+x,1/2+y,-z
1/2-x,1/2+y,1/2+z
1/2+x,1/2-y,1/2+z
loop_
_atom_site_type_symbol
_atom_site_label
_atom_site_fract_x
_atom_site_fract_y
_atom_site_fract_z
Si Si1 0.715807 0.361113 0.319551
Si Si2 0.869876 0.973782 0.580707
Si Si3 0.451818 0.888522 0.920035
Si Si4 0.000000 0.500000 0.250000
Si Si5 0.444405 0.196553 0.173293
Si Si6 0.011616 0.195893 0.666624
Si Si7 0.653296 0.953718 0.870603
Si Si8 0.301197 0.382308 0.659482
O O1 0.798505 0.310929 0.315073
O O2 0.590648 0.343684 0.356943
O O3 0.769037 0.403555 0.368491
O O4 0.699960 0.386013 0.243280
O O5 0.852901 0.957648 0.500000
O O6 0.886481 0.926022 0.630003
O O7 0.745776 0.004665 0.600141
O O8 0.000000 0.000000 0.592338
O O9 0.522087 0.843214 0.885158
O O10 0.533615 0.939327 0.918487
O O11 0.329359 0.893606 0.874549
O O12 0.417149 0.876110 0.000000
O O13 0.093144 0.466975 0.204266
O O14 0.500000 0.185761 0.250000
O O15 0.486409 0.248769 0.138722
O O16 0.000000 0.200682 0.750000
O O17 0.141979 0.172549 0.640882
#
# Coordination Sequence:
#
# PCOD8276155 Si02
#       8
#    16  16  16   4  16  16  16  16
#     4  10  19  35  60  87 115 151 196 259 307 369
#     4  11  24  41  60  83 119 171 219 259 314 388
#     4  11  23  38  60  88 123 162 202 253 316 377
#     4  12  24  36  60  96 120 160 194 270 320 376
#     4  10  19  36  61  87 118 154 196 251 308 373
#     4   9  20  34  56  87 115 151 198 245 306 371
#     4  11  22  38  61  86 122 154 212 257 321 368
#     4  11  21  37  57  85 123 153 202 256 316 371
#
# _framework density 20.812832
#
# number of rings (size 3 to 8) (size 9 to 14) (size 15 to 20)
#    0.000    1.517    1.379    4.552    1.931    0.552 
#    0.000    6.552    0.000    8.276    0.000    0.000 
#    0.000    0.000    0.000    0.000    0.000    0.000 
#
# Total GULP energy -718584.552321 kJ/mol
# GULP energy per Si atom -12389.388833 kJ/mol
# Density = 2.076546 g / cm^3
# Si number density = 20.812832 Si / 1000 Ang^3
#
#
#
# Elastic Constant Matrix: (Units=GPa)
#
#
# Indices 1 2 3 4 5 6 
#
# 1 86.3128 19.5429 11.2731 0.0000 0.0000 0.0000
# 2 19.5429 100.1350 13.4978 0.0000 0.0000 0.0000
# 3 11.2731 13.4978 56.4883 0.0000 0.0000 0.0000
# 4 0.0000 0.0000 0.0000 -34.7014 0.0000 0.0000
# 5 0.0000 0.0000 0.0000 0.0000 17.9733 0.0000
# 6 0.0000 0.0000 0.0000 0.0000 0.0000 34.7790
#
#
#
# Elastic Compliance Matrix: (Units=1/GPa)
#
#
# Indices 1 2 3 4 5 6 
#
# 1 0.012325 -0.002143 -0.001948 0.000000 0.000000 0.000000
# 2 -0.002143 0.010691 -0.002127 0.000000 0.000000 0.000000
# 3 -0.001948 -0.002127 0.018600 0.000000 0.000000 0.000000
# 4 0.000000 0.000000 0.000000 -0.028817 0.000000 0.000000
# 5 0.000000 0.000000 0.000000 0.000000 0.055638 0.000000
# 6 0.000000 0.000000 0.000000 0.000000 0.000000 0.028753
#
#
# Mechanical properties :
#
#
# Convention : Reuss Voigt Hill
#
# Bulk Modulus (GPa) = 34.26861 36.84040 35.55450
# Shear Modulus (GPa) = 41.89260 16.85166 29.37213
#
# Velocity S-wave (km/s) = 4.49132 2.84857 3.76074
# Velocity P-wave (km/s) = 6.58763 5.34400 5.99813
#
# Compressibility (1/GPa) = 0.02918123
#
# Stress axis : x y z
#
# Youngs Moduli (GPa) = 81.13363 93.53254 53.76425
#
# Poissons Ratio (x) = 0.20043 0.10471
# Poissons Ratio (y) = 0.17386 0.11436
# Poissons Ratio (z) = 0.15802 0.19895
#
# Static dielectric constant tensor:
#      x y z
#    x 4.210880 0.000000 0.000000 
#    y 0.000000 4.058300 0.000000 
#    z 0.000000 0.000000 3.518190 
# 
# 
# High freq. dielectric constant tensor:
#      x y z
#    x 1.834880 0.000000 0.000000 
#    y 0.000000 1.821260 0.000000 
#    z 0.000000 0.000000 1.781180 
# 
# From -- ./inp_files/39140.got.cif
#   From: 2010.03.12/outbox.cif.g09.slc.cpg/sg66_20_cif.got.tgz:39140.got - 2010.04.10 21:57:39.
