data_PCOD8276584
_publ_section_title
;
Structure prediction by ZEFSAII (Michael W. Deem and Ramdas Pophale) SiO2 
 PCOD8276584
Probable space group: C C C M
;
_chemical_formula_sum "Si O2"
_cell_formula_units_Z 104
_cell_length_a 15.940442
_cell_length_b 22.313089
_cell_length_c 16.466051
_cell_angle_alpha 90.000000
_cell_angle_beta 90.000000
_cell_angle_gamma 90.000000
_cell_volume 5856.653270
_symmetry_space_group_name_H-M "C C C M"
_symmetry_group_IT_number 66
_symmetry_cell_setting 'orthorhombic'
loop_
_space_group_symop_operation_xyz
x,y,z
-x,-y,z
x,-y,1/2-z
-x,y,1/2-z
-x,-y,-z
x,y,-z
-x,y,1/2+z
x,-y,1/2+z
1/2+x,1/2+y,z
1/2-x,1/2-y,z
1/2+x,1/2-y,1/2-z
1/2-x,1/2+y,1/2-z
1/2-x,1/2-y,-z
1/2+x,1/2+y,-z
1/2-x,1/2+y,1/2+z
1/2+x,1/2-y,1/2+z
loop_
_atom_site_type_symbol
_atom_site_label
_atom_site_fract_x
_atom_site_fract_y
_atom_site_fract_z
Si Si1 0.572956 0.778058 0.903379
Si Si2 0.648561 0.933034 0.756419
Si Si3 0.963438 0.060511 0.090600
Si Si4 0.703930 0.876753 0.913442
Si Si5 0.500000 0.843120 0.250000
Si Si6 0.612701 0.357020 0.369521
Si Si7 0.832262 0.932443 0.279813
O O1 0.660360 0.813209 0.895011
O O2 0.509682 0.806193 0.834977
O O3 0.589924 0.712372 0.870052
O O4 0.541969 0.779535 0.000000
O O5 0.677795 0.926703 0.849492
O O6 0.579926 0.884795 0.731015
O O7 0.733083 0.922857 0.703526
O O8 0.611630 0.000000 0.750000
O O9 0.880333 0.080752 0.137151
O O10 0.034476 0.110756 0.089092
O O11 0.933073 0.046660 0.000000
O O12 0.000000 0.000000 0.131174
O O13 0.803211 0.867246 0.920355
O O14 0.672354 0.901517 0.000000
O O15 0.628947 0.382682 0.279931
O O16 0.848591 0.000000 0.250000
#
# Coordination Sequence:
#
# PCOD8276584 Si02
#       7
#    16  16  16  16   8  16  16
#     4  10  21  36  55  81 108 137 179 227 274 321
#     4   9  19  36  57  80 104 139 174 216 271 327
#     4  11  22  33  49  76 109 144 181 218 253 307
#     4   9  18  34  55  81 109 131 170 231 277 312
#     4  10  21  38  58  80 107 138 176 224 276 322
#     4  11  20  32  55  78 105 143 178 215 272 317
#     4  10  20  36  52  75 109 140 177 220 267 315
#
# _framework density 17.757580999999998
#
# number of rings (size 3 to 8) (size 9 to 14) (size 15 to 20)
#    0.000    2.000    1.538    2.538    2.154    1.231 
#    0.000    1.538    0.000    3.692    0.000    2.154 
#    0.000    0.000    0.000    0.000    0.000    0.000 
#
# Total GULP energy -644358.965060 kJ/mol
# GULP energy per Si atom -12391.518559 kJ/mol
# Density = 1.771716 g / cm^3
# Si number density = 17.757581 Si / 1000 Ang^3
#
#
#
# Elastic Constant Matrix: (Units=GPa)
#
#
# Indices 1 2 3 4 5 6 
#
# 1 96.1264 38.2045 53.4486 0.0000 0.0000 0.0000
# 2 38.2045 111.9598 48.2034 0.0000 0.0000 0.0000
# 3 53.4486 48.2034 100.2249 0.0000 0.0000 0.0000
# 4 0.0000 0.0000 0.0000 21.4255 0.0000 0.0000
# 5 0.0000 0.0000 0.0000 0.0000 20.3304 0.0000
# 6 0.0000 0.0000 0.0000 0.0000 0.0000 21.0662
#
#
#
# Elastic Compliance Matrix: (Units=1/GPa)
#
#
# Indices 1 2 3 4 5 6 
#
# 1 0.015183 -0.002138 -0.007069 0.000000 0.000000 0.000000
# 2 -0.002138 0.011565 -0.004422 0.000000 0.000000 0.000000
# 3 -0.007069 -0.004422 0.015874 0.000000 0.000000 0.000000
# 4 0.000000 0.000000 0.000000 0.046673 0.000000 0.000000
# 5 0.000000 0.000000 0.000000 0.000000 0.049187 0.000000
# 6 0.000000 0.000000 0.000000 0.000000 0.000000 0.047469
#
#
# Mechanical properties :
#
#
# Convention : Reuss Voigt Hill
#
# Bulk Modulus (GPa) = 65.08338 65.33600 65.20969
# Shear Modulus (GPa) = 22.90096 23.79474 23.34785
#
# Velocity S-wave (km/s) = 3.59506 3.66454 3.62996
# Velocity P-wave (km/s) = 7.34596 7.40124 7.37365
#
# Compressibility (1/GPa) = 0.01536491
#
# Stress axis : x y z
#
# Youngs Moduli (GPa) = 65.86341 86.46628 62.99519
#
# Poissons Ratio (x) = 0.18482 0.44530
# Poissons Ratio (y) = 0.14078 0.27859
# Poissons Ratio (z) = 0.46558 0.38239
#
# Static dielectric constant tensor:
#      x y z
#    x 3.418750 0.000000 0.000000 
#    y 0.000000 3.292400 0.000000 
#    z 0.000000 0.000000 3.388090 
# 
# 
# High freq. dielectric constant tensor:
#      x y z
#    x 1.681850 0.000000 0.000000 
#    y 0.000000 1.686090 0.000000 
#    z 0.000000 0.000000 1.684870 
# 
# From -- ./inp_files/30344.got.cif
#   From: 2010.03.12/outbox.cif.g09.slc.cpg/sg66_16_cif.got.tgz:30344.got - 2010.04.10 21:57:39.
