data_PCOD8276198
_publ_section_title
;
Structure prediction by ZEFSAII (Michael W. Deem and Ramdas Pophale) SiO2 
 PCOD8276198
Probable space group: C C C M
;
_chemical_formula_sum "Si O2"
_cell_formula_units_Z 40
_cell_length_a 26.472701
_cell_length_b 6.404307
_cell_length_c 10.411151
_cell_angle_alpha 90.000000
_cell_angle_beta 90.000000
_cell_angle_gamma 90.000000
_cell_volume 1765.099298
_symmetry_space_group_name_H-M "C C C M"
_symmetry_group_IT_number 66
_symmetry_cell_setting 'orthorhombic'
loop_
_space_group_symop_operation_xyz
x,y,z
-x,-y,z
x,-y,1/2-z
-x,y,1/2-z
-x,-y,-z
x,y,-z
-x,y,1/2+z
x,-y,1/2+z
1/2+x,1/2+y,z
1/2-x,1/2-y,z
1/2+x,1/2-y,1/2-z
1/2-x,1/2+y,1/2-z
1/2-x,1/2-y,-z
1/2+x,1/2+y,-z
1/2-x,1/2+y,1/2+z
1/2+x,1/2-y,1/2+z
loop_
_atom_site_type_symbol
_atom_site_label
_atom_site_fract_x
_atom_site_fract_y
_atom_site_fract_z
Si Si1 0.305747 0.172437 0.645479
Si Si2 0.378063 0.500000 0.750000
Si Si3 0.529952 0.714775 0.137425
O O1 0.308044 0.081348 0.500000
O O2 0.250000 0.250000 0.679714
O O3 0.343495 0.368713 0.652590
O O4 0.321982 0.000000 0.750000
O O5 0.412105 0.334020 0.827995
O O6 0.500000 0.500000 0.121130
O O7 0.500000 0.843293 0.250000
O O8 0.528923 0.835866 0.000000
#
# Coordination Sequence:
#
# PCOD8276198 Si02
#       3
#    16   8  16
#     4  11  24  40  59  85 116 155 200 245 292 345
#     4  10  19  36  60  86 116 154 193 240 290 340
#     4   8  15  28  52  83 112 145 187 231 283 343
#
# _framework density 22.661614
#
# number of rings (size 3 to 8) (size 9 to 14) (size 15 to 20)
#    0.000    2.800    2.000    1.200    0.000    5.600 
#    0.000    0.000    0.000   19.200    0.000   67.200 
#    0.000    0.000    0.000    0.000    0.000    0.000 
#
# Total GULP energy -247775.510418 kJ/mol
# GULP energy per Si atom -12388.775521 kJ/mol
# Density = 2.261004 g / cm^3
# Si number density = 22.661614 Si / 1000 Ang^3
#
#
#
# Elastic Constant Matrix: (Units=GPa)
#
#
# Indices 1 2 3 4 5 6 
#
# 1 153.1671 28.5125 49.5829 0.0000 0.0000 0.0000
# 2 28.5125 57.8976 29.6158 0.0000 0.0000 0.0000
# 3 49.5829 29.6158 221.3032 0.0000 0.0000 0.0000
# 4 0.0000 0.0000 0.0000 9.3699 0.0000 0.0000
# 5 0.0000 0.0000 0.0000 0.0000 7.8352 0.0000
# 6 0.0000 0.0000 0.0000 0.0000 0.0000 -13.0363
#
#
#
# Elastic Compliance Matrix: (Units=1/GPa)
#
#
# Indices 1 2 3 4 5 6 
#
# 1 0.007508 -0.003046 -0.001275 0.000000 0.000000 0.000000
# 2 -0.003046 0.019776 -0.001964 0.000000 0.000000 0.000000
# 3 -0.001275 -0.001964 0.005067 0.000000 0.000000 0.000000
# 4 0.000000 0.000000 0.000000 0.106725 0.000000 0.000000
# 5 0.000000 0.000000 0.000000 0.000000 0.127629 0.000000
# 6 0.000000 0.000000 0.000000 0.000000 0.000000 -0.076709
#
#
# Mechanical properties :
#
#
# Convention : Reuss Voigt Hill
#
# Bulk Modulus (GPa) = 50.54838 71.97671 61.26255
# Shear Modulus (GPa) = 23.90507 22.47754 23.19130
#
# Velocity S-wave (km/s) = 3.25140 3.15282 3.20249
# Velocity P-wave (km/s) = 6.03735 6.71448 6.38490
#
# Compressibility (1/GPa) = 0.01978303
#
# Stress axis : x y z
#
# Youngs Moduli (GPa) = 133.18418 50.56517 197.35004
#
# Poissons Ratio (x) = 0.15400 0.25156
# Poissons Ratio (y) = 0.40562 0.38764
# Poissons Ratio (z) = 0.16977 0.09932
#
# Static dielectric constant tensor:
#      x y z
#    x 4.274440 0.000000 0.000000 
#    y 0.000000 3.438570 0.000000 
#    z 0.000000 0.000000 7.091870 
# 
# 
# High freq. dielectric constant tensor:
#      x y z
#    x 1.903200 0.000000 0.000000 
#    y 0.000000 1.856090 0.000000 
#    z 0.000000 0.000000 1.910270 
# 
# From -- ./inp_files/20203.got.cif
#   From: 2010.03.12/outbox.cif.g09.slc.cpg/sg66_11_cif.got.tgz:20203.got - 2010.04.10 21:57:39.
