data_PCOD8276174
_publ_section_title
;
Structure prediction by ZEFSAII (Michael W. Deem and Ramdas Pophale) SiO2 
 PCOD8276174
Probable space group: C C C M
;
_chemical_formula_sum "Si O2"
_cell_formula_units_Z 112
_cell_length_a 14.718224
_cell_length_b 13.383856
_cell_length_c 27.391816
_cell_angle_alpha 90.000000
_cell_angle_beta 90.000000
_cell_angle_gamma 90.000000
_cell_volume 5395.820444
_symmetry_space_group_name_H-M "C C C M"
_symmetry_group_IT_number 66
_symmetry_cell_setting 'orthorhombic'
loop_
_space_group_symop_operation_xyz
x,y,z
-x,-y,z
x,-y,1/2-z
-x,y,1/2-z
-x,-y,-z
x,y,-z
-x,y,1/2+z
x,-y,1/2+z
1/2+x,1/2+y,z
1/2-x,1/2-y,z
1/2+x,1/2-y,1/2-z
1/2-x,1/2+y,1/2-z
1/2-x,1/2-y,-z
1/2+x,1/2+y,-z
1/2-x,1/2+y,1/2+z
1/2+x,1/2-y,1/2+z
loop_
_atom_site_type_symbol
_atom_site_label
_atom_site_fract_x
_atom_site_fract_y
_atom_site_fract_z
Si Si1 0.601404 0.980342 0.055086
Si Si2 0.308864 0.111260 0.138239
Si Si3 0.369967 0.679470 0.326984
Si Si4 0.653761 0.200554 0.054871
Si Si5 0.805140 0.153524 0.774513
Si Si6 0.566234 0.257444 0.152854
Si Si7 0.874593 0.444196 0.203601
O O1 0.655089 0.890182 0.082607
O O2 0.500000 0.000000 0.076109
O O3 0.661828 0.080945 0.058547
O O4 0.592082 0.941538 0.000000
O O5 0.337129 0.206197 0.170007
O O6 0.198097 0.108556 0.140921
O O7 0.367089 0.017882 0.158107
O O8 0.371171 0.635170 0.271821
O O9 0.472640 0.681505 0.345718
O O10 0.750000 0.250000 0.066582
O O11 0.583654 0.238053 0.095832
O O12 0.620409 0.230512 0.000000
O O13 0.750000 0.250000 0.759115
O O14 0.859500 0.167221 0.824956
O O15 0.730665 0.069021 0.781684
O O16 0.570953 0.155330 0.186052
O O17 0.922580 0.500000 0.250000
#
# Coordination Sequence:
#
# PCOD8276174 Si02
#       7
#    16  16  16  16  16  16  16
#     4  10  21  38  62  93 121 150 201 259 300 349
#     4  11  21  37  59  80 119 157 192 239 303 355
#     4  11  22  39  54  82 125 159 190 241 306 360
#     4  10  20  37  62  92 121 153 197 251 306 354
#     4  10  19  36  54  80 119 156 192 240 298 352
#     4  11  22  35  60  87 116 155 198 248 297 357
#     4  11  20  35  60  84 112 150 201 244 289 355
#
# _framework density 20.756806999999998
#
# number of rings (size 3 to 8) (size 9 to 14) (size 15 to 20)
#    0.000    1.429    4.286    3.429    0.000    0.000 
#    0.000    5.000    0.000    0.000    0.000    3.000 
#    0.000    0.000    0.000    0.000    0.000    0.000 
#
# Total GULP energy -693810.473268 kJ/mol
# GULP energy per Si atom -12389.472737 kJ/mol
# Density = 2.070956 g / cm^3
# Si number density = 20.756807 Si / 1000 Ang^3
#
#
#
# Elastic Constant Matrix: (Units=GPa)
#
#
# Indices 1 2 3 4 5 6 
#
# 1 92.7800 17.9887 45.2221 0.0000 0.0000 0.0000
# 2 17.9887 31.4415 7.7030 0.0000 0.0000 0.0000
# 3 45.2221 7.7030 129.8641 0.0000 0.0000 0.0000
# 4 0.0000 0.0000 0.0000 30.8450 0.0000 0.0000
# 5 0.0000 0.0000 0.0000 0.0000 23.6969 0.0000
# 6 0.0000 0.0000 0.0000 0.0000 0.0000 25.0235
#
#
#
# Elastic Compliance Matrix: (Units=1/GPa)
#
#
# Indices 1 2 3 4 5 6 
#
# 1 0.014394 -0.007111 -0.004591 0.000000 0.000000 0.000000
# 2 -0.007111 0.035787 0.000353 0.000000 0.000000 0.000000
# 3 -0.004591 0.000353 0.009278 0.000000 0.000000 0.000000
# 4 0.000000 0.000000 0.000000 0.032420 0.000000 0.000000
# 5 0.000000 0.000000 0.000000 0.000000 0.042200 0.000000
# 6 0.000000 0.000000 0.000000 0.000000 0.000000 0.039962
#
#
# Mechanical properties :
#
#
# Convention : Reuss Voigt Hill
#
# Bulk Modulus (GPa) = 27.20124 43.99035 35.59579
# Shear Modulus (GPa) = 23.92438 28.12456 26.02447
#
# Velocity S-wave (km/s) = 3.39869 3.68497 3.54472
# Velocity P-wave (km/s) = 5.34178 6.27252 5.82577
#
# Compressibility (1/GPa) = 0.03676303
#
# Stress axis : x y z
#
# Youngs Moduli (GPa) = 69.47123 27.94329 107.78180
#
# Poissons Ratio (x) = 0.19870 0.49480
# Poissons Ratio (y) = 0.49400 -0.03809
# Poissons Ratio (z) = 0.31892 -0.00988
#
# Static dielectric constant tensor:
#      x y z
#    x 3.326030 0.000000 0.000000 
#    y 0.000000 3.990900 0.000000 
#    z 0.000000 0.000000 3.855130 
# 
# 
# High freq. dielectric constant tensor:
#      x y z
#    x 1.807420 0.000000 0.000000 
#    y 0.000000 1.785210 0.000000 
#    z 0.000000 0.000000 1.814990 
# 
# From -- ./inp_files/64684.got.cif
#   From: 2010.03.12/outbox.cif.g09.slc.cpg/sg66_33_cif.got.tgz:64684.got - 2010.04.10 21:57:39.
