data_PCOD8276091
_publ_section_title
;
Structure prediction by ZEFSAII (Michael W. Deem and Ramdas Pophale) SiO2 
 PCOD8276091
Probable space group: C C C M
;
_chemical_formula_sum "Si O2"
_cell_formula_units_Z 112
_cell_length_a 19.077682
_cell_length_b 18.603690
_cell_length_c 17.683067
_cell_angle_alpha 90.000000
_cell_angle_beta 90.000000
_cell_angle_gamma 90.000000
_cell_volume 6275.990708
_symmetry_space_group_name_H-M "C C C M"
_symmetry_group_IT_number 66
_symmetry_cell_setting 'orthorhombic'
loop_
_space_group_symop_operation_xyz
x,y,z
-x,-y,z
x,-y,1/2-z
-x,y,1/2-z
-x,-y,-z
x,y,-z
-x,y,1/2+z
x,-y,1/2+z
1/2+x,1/2+y,z
1/2-x,1/2-y,z
1/2+x,1/2-y,1/2-z
1/2-x,1/2+y,1/2-z
1/2-x,1/2-y,-z
1/2+x,1/2+y,-z
1/2-x,1/2+y,1/2+z
1/2+x,1/2-y,1/2+z
loop_
_atom_site_type_symbol
_atom_site_label
_atom_site_fract_x
_atom_site_fract_y
_atom_site_fract_z
Si Si1 0.420508 0.352309 0.411658
Si Si2 0.501481 0.917809 0.087407
Si Si3 0.343435 0.582803 0.230763
Si Si4 0.068334 0.321899 0.197363
Si Si5 0.451707 0.334685 0.822699
Si Si6 0.213572 0.323394 0.279918
Si Si7 0.876007 0.310078 0.914111
O O1 0.405391 0.371937 0.500000
O O2 0.372968 0.398665 0.353491
O O3 0.502543 0.367798 0.392000
O O4 0.409471 0.267632 0.394281
O O5 0.565076 0.881250 0.131992
O O6 0.430158 0.874105 0.105360
O O7 0.500000 0.000000 0.115121
O O8 0.520559 0.913635 0.000000
O O9 0.344578 0.500000 0.250000
O O10 0.386169 0.616548 0.300617
O O11 0.264043 0.610037 0.236196
O O12 0.074526 0.244790 0.156578
O O13 0.138901 0.336885 0.242341
O O14 0.000000 0.328650 0.250000
O O15 0.500000 0.328633 0.750000
O O16 0.250000 0.250000 0.251900
O O17 0.196488 0.319147 0.369106
O O18 0.852646 0.313592 0.000000
#
# Coordination Sequence:
#
# PCOD8276091 Si02
#       7
#    16  16  16  16  16  16  16
#     4  10  19  35  64  93 113 147 198 245 290 346
#     4  10  21  36  56  86 121 150 184 240 301 341
#     4  11  24  39  55  82 124 159 188 239 305 343
#     4  11  19  35  60  84 113 151 196 242 278 339
#     4   9  17  33  57  83 112 149 189 232 280 343
#     4  12  21  36  58  87 117 154 198 236 282 351
#     4  10  19  34  58  88 119 149 185 237 297 347
#
# _framework density 17.845787999999999
#
# number of rings (size 3 to 8) (size 9 to 14) (size 15 to 20)
#    0.000    1.571    5.714    0.857    0.000    4.857 
#    0.000    1.429    0.000    2.143    0.000    0.000 
#    0.000    0.000    0.000    0.000    0.000    0.000 
#
# Total GULP energy -694115.207070 kJ/mol
# GULP energy per Si atom -12394.914412 kJ/mol
# Density = 1.780517 g / cm^3
# Si number density = 17.845788 Si / 1000 Ang^3
#
#
#
# Elastic Constant Matrix: (Units=GPa)
#
#
# Indices 1 2 3 4 5 6 
#
# 1 123.7718 55.7052 47.1564 0.0000 0.0000 0.0000
# 2 55.7052 142.9937 57.8646 0.0000 0.0000 0.0000
# 3 47.1564 57.8646 59.7552 0.0000 0.0000 0.0000
# 4 0.0000 0.0000 0.0000 -344.9811 0.0000 0.0000
# 5 0.0000 0.0000 0.0000 0.0000 28.0222 0.0000
# 6 0.0000 0.0000 0.0000 0.0000 0.0000 25.7577
#
#
#
# Elastic Compliance Matrix: (Units=1/GPa)
#
#
# Indices 1 2 3 4 5 6 
#
# 1 0.011710 -0.001352 -0.007932 0.000000 0.000000 0.000000
# 2 -0.001352 0.011656 -0.010220 0.000000 0.000000 0.000000
# 3 -0.007932 -0.010220 0.032891 0.000000 0.000000 0.000000
# 4 0.000000 0.000000 0.000000 -0.002899 0.000000 0.000000
# 5 0.000000 0.000000 0.000000 0.000000 0.035686 0.000000
# 6 0.000000 0.000000 0.000000 0.000000 0.000000 0.038823
#
#
# Mechanical properties :
#
#
# Convention : Reuss Voigt Hill
#
# Bulk Modulus (GPa) = 57.97397 71.99700 64.98549
# Shear Modulus (GPa) = 28.96474 -47.18727 -9.11127
#
# Velocity S-wave (km/s) = 4.03309 -5.14773 -2.26200
# Velocity P-wave (km/s) = 7.36508 2.25819 5.44719
#
# Compressibility (1/GPa) = 0.01724912
#
# Stress axis : x y z
#
# Youngs Moduli (GPa) = 85.39863 85.79515 30.40365
#
# Poissons Ratio (x) = 0.11600 0.24115
# Poissons Ratio (y) = 0.11546 0.31072
# Poissons Ratio (z) = 0.67735 0.87682
#
# Static dielectric constant tensor:
#      x y z
#    x 3.394140 0.000000 0.000000 
#    y 0.000000 3.304120 0.000000 
#    z 0.000000 0.000000 3.452840 
# 
# 
# High freq. dielectric constant tensor:
#      x y z
#    x 1.681810 0.000000 0.000000 
#    y 0.000000 1.683970 0.000000 
#    z 0.000000 0.000000 1.682330 
# 
# From -- ./inp_files/41991.got.cif
#   From: 2010.03.12/outbox.cif.g09.slc.cpg/sg66_21_cif.got.tgz:41991.got - 2010.04.10 21:57:39.
