data_PCOD8276759
_publ_section_title
;
Structure prediction by ZEFSAII (Michael W. Deem and Ramdas Pophale) SiO2 
 PCOD8276759
Probable space group: C C C M
;
_chemical_formula_sum "Si O2"
_cell_formula_units_Z 64
_cell_length_a 13.432967
_cell_length_b 13.358069
_cell_length_c 13.875602
_cell_angle_alpha 90.000000
_cell_angle_beta 90.000000
_cell_angle_gamma 90.000000
_cell_volume 2489.817210
_symmetry_space_group_name_H-M "C C C M"
_symmetry_group_IT_number 66
_symmetry_cell_setting 'orthorhombic'
loop_
_space_group_symop_operation_xyz
x,y,z
-x,-y,z
x,-y,1/2-z
-x,y,1/2-z
-x,-y,-z
x,y,-z
-x,y,1/2+z
x,-y,1/2+z
1/2+x,1/2+y,z
1/2-x,1/2-y,z
1/2+x,1/2-y,1/2-z
1/2-x,1/2+y,1/2-z
1/2-x,1/2-y,-z
1/2+x,1/2+y,-z
1/2-x,1/2+y,1/2+z
1/2+x,1/2-y,1/2+z
loop_
_atom_site_type_symbol
_atom_site_label
_atom_site_fract_x
_atom_site_fract_y
_atom_site_fract_z
Si Si1 0.444863 0.774634 0.113526
Si Si2 0.169098 0.671391 0.386229
Si Si3 0.906634 0.057647 0.848538
Si Si4 0.189104 0.545538 0.106090
O O1 0.557972 0.798452 0.137658
O O2 0.428968 0.673246 0.172407
O O3 0.369770 0.860864 0.155184
O O4 0.426725 0.756264 0.000000
O O5 0.190036 0.662582 0.500000
O O6 0.250000 0.750000 0.342377
O O7 0.179379 0.560645 0.337868
O O8 0.806464 0.061377 0.910464
O O9 0.886226 0.000000 0.750000
O O10 0.000000 0.000000 0.901047
O O11 0.139118 0.536356 0.000000
#
# Coordination Sequence:
#
# PCOD8276759 Si02
#       4
#    16  16  16  16
#     4  10  20  37  63  92 122 155 197 253 310 367
#     4   9  17  31  57  94 127 153 187 237 297 359
#     4  11  24  40  55  81 119 161 205 248 304 369
#     4  10  20  37  64  94 119 150 198 253 309 366
#
# _framework density 25.704695999999998
#
# number of rings (size 3 to 8) (size 9 to 14) (size 15 to 20)
#    0.000    2.000    0.000    3.750    0.000    9.000 
#    0.000   12.500    0.000    1.500    0.000    0.000 
#    0.000    0.000    0.000    0.000    0.000    0.500 
#
# Total GULP energy -396512.390560 kJ/mol
# GULP energy per Si atom -12391.012205 kJ/mol
# Density = 2.564619 g / cm^3
# Si number density = 25.704696 Si / 1000 Ang^3
#
#
#
# Elastic Constant Matrix: (Units=GPa)
#
#
# Indices 1 2 3 4 5 6 
#
# 1 191.1438 112.4016 25.5985 0.0000 0.0000 0.0000
# 2 112.4016 296.1750 25.8391 0.0000 0.0000 0.0000
# 3 25.5985 25.8391 10.3907 0.0000 0.0000 0.0000
# 4 0.0000 0.0000 0.0000 16.9051 0.0000 0.0000
# 5 0.0000 0.0000 0.0000 0.0000 19.3025 0.0000
# 6 0.0000 0.0000 0.0000 0.0000 0.0000 54.9822
#
#
#
# Elastic Compliance Matrix: (Units=1/GPa)
#
#
# Indices 1 2 3 4 5 6 
#
# 1 0.008486 -0.001784 -0.016472 0.000000 0.000000 0.000000
# 2 -0.001784 0.004687 -0.007260 0.000000 0.000000 0.000000
# 3 -0.016472 -0.007260 0.154874 0.000000 0.000000 0.000000
# 4 0.000000 0.000000 0.000000 0.059154 0.000000 0.000000
# 5 0.000000 0.000000 0.000000 0.000000 0.051807 0.000000
# 6 0.000000 0.000000 0.000000 0.000000 0.000000 0.018188
#
#
# Mechanical properties :
#
#
# Convention : Reuss Voigt Hill
#
# Bulk Modulus (GPa) = 8.54586 91.70976 50.12781
# Shear Modulus (GPa) = 12.91213 40.49597 26.70405
#
# Velocity S-wave (km/s) = 2.24369 3.97348 3.22666
# Velocity P-wave (km/s) = 3.16924 7.53704 5.78148
#
# Compressibility (1/GPa) = 0.11701566
#
# Stress axis : x y z
#
# Youngs Moduli (GPa) = 117.83430 213.36852 6.45686
#
# Poissons Ratio (x) = 0.38058 0.10636
# Poissons Ratio (y) = 0.21018 0.04688
# Poissons Ratio (z) = 1.94093 1.54915
#
# Static dielectric constant tensor:
#      x y z
#    x 4.811230 0.000000 0.000000 
#    y 0.000000 5.046670 0.000000 
#    z 0.000000 0.000000 4.026700 
# 
# 
# High freq. dielectric constant tensor:
#      x y z
#    x 2.035970 0.000000 0.000000 
#    y 0.000000 2.048200 0.000000 
#    z 0.000000 0.000000 1.999630 
# 
# From -- ./inp_files/38012.got.cif
#   From: 2010.03.12/outbox.cif.g09.slc.cpg/sg66_20_cif.got.tgz:38012.got - 2010.04.10 21:57:39.
