data_PCOD8276050
_publ_section_title
;
Structure prediction by ZEFSAII (Michael W. Deem and Ramdas Pophale) SiO2 
 PCOD8276050
Probable space group: C C C M
;
_chemical_formula_sum "Si O2"
_cell_formula_units_Z 72
_cell_length_a 25.139634
_cell_length_b 16.217818
_cell_length_c 9.298016
_cell_angle_alpha 90.000000
_cell_angle_beta 90.000000
_cell_angle_gamma 90.000000
_cell_volume 3790.894185
_symmetry_space_group_name_H-M "C C C M"
_symmetry_group_IT_number 66
_symmetry_cell_setting 'orthorhombic'
loop_
_space_group_symop_operation_xyz
x,y,z
-x,-y,z
x,-y,1/2-z
-x,y,1/2-z
-x,-y,-z
x,y,-z
-x,y,1/2+z
x,-y,1/2+z
1/2+x,1/2+y,z
1/2-x,1/2-y,z
1/2+x,1/2-y,1/2-z
1/2-x,1/2+y,1/2-z
1/2-x,1/2-y,-z
1/2+x,1/2+y,-z
1/2-x,1/2+y,1/2+z
1/2+x,1/2-y,1/2+z
loop_
_atom_site_type_symbol
_atom_site_label
_atom_site_fract_x
_atom_site_fract_y
_atom_site_fract_z
Si Si1 0.824256 0.082974 0.170229
Si Si2 0.705400 0.866895 0.340565
Si Si3 0.448192 0.862513 0.341901
Si Si4 0.373381 0.000000 0.250000
Si Si5 0.858509 0.760234 0.170909
O O1 0.762577 0.098813 0.204268
O O2 0.859219 0.154599 0.242814
O O3 0.842089 0.000000 0.250000
O O4 0.835850 0.077206 0.000000
O O5 0.707220 0.826948 0.500000
O O6 0.689995 0.796879 0.226038
O O7 0.663844 0.942293 0.347523
O O8 0.500000 0.878257 0.250000
O O9 0.469565 0.844660 0.500000
O O10 0.410850 0.943112 0.348168
O O11 0.413990 0.784243 0.288227
O O12 0.851982 0.773279 0.000000
#
# Coordination Sequence:
#
# PCOD8276050 Si02
#       5
#    16  16  16   8  16
#     4  11  22  36  56  82 111 146 186 228 275 328
#     4  10  20  34  53  79 113 151 188 223 266 326
#     4  10  22  37  56  80 109 146 188 232 281 328
#     4  10  19  34  54  82 118 152 185 226 266 324
#     4  10  22  38  55  78 109 146 186 231 281 330
#
# _framework density 18.99288
#
# number of rings (size 3 to 8) (size 9 to 14) (size 15 to 20)
#    0.000    1.778    1.111    3.000    0.000   11.556 
#    0.000    0.000    0.000    0.667    0.000    4.667 
#    0.000    0.000    0.000    0.000    0.000    0.000 
#
# Total GULP energy -446383.202510 kJ/mol
# GULP energy per Si atom -12399.533403 kJ/mol
# Density = 1.894965 g / cm^3
# Si number density = 18.992880 Si / 1000 Ang^3
#
#
#
# Elastic Constant Matrix: (Units=GPa)
#
#
# Indices 1 2 3 4 5 6 
#
# 1 60.7893 33.6678 17.8242 0.0000 0.0000 0.0000
# 2 33.6678 135.3552 46.5695 0.0000 0.0000 0.0000
# 3 17.8242 46.5695 89.4664 0.0000 0.0000 0.0000
# 4 0.0000 0.0000 0.0000 31.6176 0.0000 0.0000
# 5 0.0000 0.0000 0.0000 0.0000 17.9789 0.0000
# 6 0.0000 0.0000 0.0000 0.0000 0.0000 16.0500
#
#
#
# Elastic Compliance Matrix: (Units=1/GPa)
#
#
# Indices 1 2 3 4 5 6 
#
# 1 0.019274 -0.004231 -0.001638 0.000000 0.000000 0.000000
# 2 -0.004231 0.009928 -0.004325 0.000000 0.000000 0.000000
# 3 -0.001638 -0.004325 0.013755 0.000000 0.000000 0.000000
# 4 0.000000 0.000000 0.000000 0.031628 0.000000 0.000000
# 5 0.000000 0.000000 0.000000 0.000000 0.055621 0.000000
# 6 0.000000 0.000000 0.000000 0.000000 0.000000 0.062305
#
#
# Mechanical properties :
#
#
# Convention : Reuss Voigt Hill
#
# Bulk Modulus (GPa) = 44.30640 53.52599 48.91620
# Shear Modulus (GPa) = 22.68388 25.63259 24.15824
#
# Velocity S-wave (km/s) = 3.45967 3.67766 3.57033
# Velocity P-wave (km/s) = 6.27197 6.80271 6.54272
#
# Compressibility (1/GPa) = 0.02257010
#
# Stress axis : x y z
#
# Youngs Moduli (GPa) = 51.88455 100.72175 72.70087
#
# Poissons Ratio (x) = 0.42611 0.11906
# Poissons Ratio (y) = 0.21950 0.31444
# Poissons Ratio (z) = 0.08497 0.43563
#
# Static dielectric constant tensor:
#      x y z
#    x 3.303230 0.000000 0.000000 
#    y 0.000000 3.555740 0.000000 
#    z 0.000000 0.000000 3.437790 
# 
# 
# High freq. dielectric constant tensor:
#      x y z
#    x 1.715870 0.000000 0.000000 
#    y 0.000000 1.739780 0.000000 
#    z 0.000000 0.000000 1.744750 
# 
# From -- ./inp_files/5359.got.cif
#   From: 2010.03.12/outbox.cif.g09.slc.cpg/sg66_3_cif.got.tgz:5359.got - 2010.04.10 21:57:39.
