data_PCOD8276667
_publ_section_title
;
Structure prediction by ZEFSAII (Michael W. Deem and Ramdas Pophale) SiO2 
 PCOD8276667
Probable space group: C C C M
;
_chemical_formula_sum "Si O2"
_cell_formula_units_Z 56
_cell_length_a 27.692866
_cell_length_b 10.221442
_cell_length_c 9.850004
_cell_angle_alpha 90.000000
_cell_angle_beta 90.000000
_cell_angle_gamma 90.000000
_cell_volume 2788.152215
_symmetry_space_group_name_H-M "C C C M"
_symmetry_group_IT_number 66
_symmetry_cell_setting 'orthorhombic'
loop_
_space_group_symop_operation_xyz
x,y,z
-x,-y,z
x,-y,1/2-z
-x,y,1/2-z
-x,-y,-z
x,y,-z
-x,y,1/2+z
x,-y,1/2+z
1/2+x,1/2+y,z
1/2-x,1/2-y,z
1/2+x,1/2-y,1/2-z
1/2-x,1/2+y,1/2-z
1/2-x,1/2-y,-z
1/2+x,1/2+y,-z
1/2-x,1/2+y,1/2+z
1/2+x,1/2-y,1/2+z
loop_
_atom_site_type_symbol
_atom_site_label
_atom_site_fract_x
_atom_site_fract_y
_atom_site_fract_z
Si Si1 0.661837 0.500000 0.750000
Si Si2 0.609023 0.771374 0.223487
Si Si3 0.720283 0.553927 0.000000
Si Si4 0.961285 0.675907 0.000000
Si Si5 0.820591 0.656661 0.000000
Si Si6 0.931612 0.625404 0.500000
O O1 0.627728 0.625017 0.758302
O O2 0.698241 0.478294 0.873452
O O3 0.646925 0.858233 0.135564
O O4 0.599898 0.840436 0.367496
O O5 0.559779 0.759445 0.136822
O O6 0.778775 0.546363 0.000000
O O7 0.703673 0.702655 0.000000
O O8 0.946521 0.524454 0.000000
O O9 0.018286 0.705484 0.000000
#
# Coordination Sequence:
#
# PCOD8276667 Si02
#       6
#     8  16   8   8   8   8
#     4  10  20  36  61  84 118 154 185 230 298 348
#     4  10  20  37  58  87 116 149 191 236 288 348
#     4   9  17  36  56  79 108 154 185 224 275 340
#     4  10  22  39  57  81 116 154 186 238 294 334
#     4   8  18  36  56  76 114 147 185 226 285 326
#     4  11  21  37  61  84 109 149 201 237 276 340
#
# _framework density 20.084987000000002
#
# number of rings (size 3 to 8) (size 9 to 14) (size 15 to 20)
#    0.000    2.286    0.000    3.429    0.000    2.286 
#   10.286    4.286    0.000    6.857    0.000    0.000 
#    0.000    0.000    0.000    0.000    0.000    0.000 
#
# Total GULP energy -347120.789465 kJ/mol
# GULP energy per Si atom -12397.171052 kJ/mol
# Density = 2.003927 g / cm^3
# Si number density = 20.084987 Si / 1000 Ang^3
#
#
#
# Elastic Constant Matrix: (Units=GPa)
#
#
# Indices 1 2 3 4 5 6 
#
# 1 148.1699 42.1315 76.9404 0.0000 0.0000 0.0000
# 2 42.1315 58.7077 35.8212 0.0000 0.0000 0.0000
# 3 76.9404 35.8212 191.1346 0.0000 0.0000 0.0000
# 4 0.0000 0.0000 0.0000 26.4173 0.0000 0.0000
# 5 0.0000 0.0000 0.0000 0.0000 26.4251 0.0000
# 6 0.0000 0.0000 0.0000 0.0000 0.0000 26.8946
#
#
#
# Elastic Compliance Matrix: (Units=1/GPa)
#
#
# Indices 1 2 3 4 5 6 
#
# 1 0.009763 -0.005203 -0.002955 0.000000 0.000000 0.000000
# 2 -0.005203 0.022006 -0.002030 0.000000 0.000000 0.000000
# 3 -0.002955 -0.002030 0.006802 0.000000 0.000000 0.000000
# 4 0.000000 0.000000 0.000000 0.037854 0.000000 0.000000
# 5 0.000000 0.000000 0.000000 0.000000 0.037843 0.000000
# 6 0.000000 0.000000 0.000000 0.000000 0.000000 0.037182
#
#
# Mechanical properties :
#
#
# Convention : Reuss Voigt Hill
#
# Bulk Modulus (GPa) = 54.95994 78.64427 66.80210
# Shear Modulus (GPa) = 28.10714 32.15533 30.13123
#
# Velocity S-wave (km/s) = 3.74493 4.00554 3.87743
# Velocity P-wave (km/s) = 6.79135 7.78674 7.30601
#
# Compressibility (1/GPa) = 0.01819507
#
# Stress axis : x y z
#
# Youngs Moduli (GPa) = 102.42799 45.44175 147.02090
#
# Poissons Ratio (x) = 0.23645 0.43442
# Poissons Ratio (y) = 0.53298 0.29840
# Poissons Ratio (z) = 0.30266 0.09223
#
# Static dielectric constant tensor:
#      x y z
#    x 4.129410 0.000000 0.000000 
#    y 0.000000 3.302920 0.000000 
#    z 0.000000 0.000000 3.833600 
# 
# 
# High freq. dielectric constant tensor:
#      x y z
#    x 1.795670 0.000000 0.000000 
#    y 0.000000 1.755130 0.000000 
#    z 0.000000 0.000000 1.798490 
# 
# From -- ./inp_files/3788.got.cif
#   From: 2010.03.12/outbox.cif.g09.slc.cpg/sg66_2_cif.got.tgz:3788.got - 2010.04.10 21:57:39.
