data_PCOD8276580
_publ_section_title
;
Structure prediction by ZEFSAII (Michael W. Deem and Ramdas Pophale) SiO2 
 PCOD8276580
Probable space group: C C C M
;
_chemical_formula_sum "Si O2"
_cell_formula_units_Z 64
_cell_length_a 10.456281
_cell_length_b 17.002857
_cell_length_c 16.335323
_cell_angle_alpha 90.000000
_cell_angle_beta 90.000000
_cell_angle_gamma 90.000000
_cell_volume 2904.202363
_symmetry_space_group_name_H-M "C C C M"
_symmetry_group_IT_number 66
_symmetry_cell_setting 'orthorhombic'
loop_
_space_group_symop_operation_xyz
x,y,z
-x,-y,z
x,-y,1/2-z
-x,y,1/2-z
-x,-y,-z
x,y,-z
-x,y,1/2+z
x,-y,1/2+z
1/2+x,1/2+y,z
1/2-x,1/2-y,z
1/2+x,1/2-y,1/2-z
1/2-x,1/2+y,1/2-z
1/2-x,1/2-y,-z
1/2+x,1/2+y,-z
1/2-x,1/2+y,1/2+z
1/2+x,1/2-y,1/2+z
loop_
_atom_site_type_symbol
_atom_site_label
_atom_site_fract_x
_atom_site_fract_y
_atom_site_fract_z
Si Si1 0.364520 0.523168 0.094192
Si Si2 0.298511 0.167330 0.595878
Si Si3 0.212810 0.852177 0.406800
Si Si4 0.548795 0.773464 0.159563
O O1 0.500000 0.500000 0.137153
O O2 0.283243 0.594835 0.135611
O O3 0.280363 0.445310 0.102261
O O4 0.393184 0.545388 0.000000
O O5 0.276616 0.162382 0.500000
O O6 0.250000 0.250000 0.633083
O O7 0.449345 0.167816 0.614438
O O8 0.246631 0.828406 0.500000
O O9 0.317028 0.819274 0.343387
O O10 0.074239 0.811904 0.384305
O O11 0.500000 0.757045 0.250000
#
# Coordination Sequence:
#
# PCOD8276580 Si02
#       4
#    16  16  16  16
#     4   9  18  35  61  92 119 151 204 263 302 355
#     4  10  20  35  61  90 117 153 201 248 299 363
#     4  10  21  41  65  88 119 163 211 255 311 369
#     4  11  23  37  60  84 125 159 203 251 308 371
#
# _framework density 22.037030000000001
#
# number of rings (size 3 to 8) (size 9 to 14) (size 15 to 20)
#    0.000    2.000    0.000    4.500    3.500    5.000 
#    0.000    6.250    0.000    0.000    0.000    0.000 
#    0.000    0.000    0.000    0.000    0.000    0.000 
#
# Total GULP energy -396435.529481 kJ/mol
# GULP energy per Si atom -12388.610296 kJ/mol
# Density = 2.198687 g / cm^3
# Si number density = 22.037030 Si / 1000 Ang^3
#
#
#
# Elastic Constant Matrix: (Units=GPa)
#
#
# Indices 1 2 3 4 5 6 
#
# 1 137.1568 73.5210 26.8789 0.0000 0.0000 0.0000
# 2 73.5210 178.7608 27.9952 0.0000 0.0000 0.0000
# 3 26.8789 27.9952 59.1155 0.0000 0.0000 0.0000
# 4 0.0000 0.0000 0.0000 -53.0945 0.0000 0.0000
# 5 0.0000 0.0000 0.0000 0.0000 34.9480 0.0000
# 6 0.0000 0.0000 0.0000 0.0000 0.0000 48.3893
#
#
#
# Elastic Compliance Matrix: (Units=1/GPa)
#
#
# Indices 1 2 3 4 5 6 
#
# 1 0.009746 -0.003580 -0.002736 0.000000 0.000000 0.000000
# 2 -0.003580 0.007357 -0.001856 0.000000 0.000000 0.000000
# 3 -0.002736 -0.001856 0.019039 0.000000 0.000000 0.000000
# 4 0.000000 0.000000 0.000000 -0.018834 0.000000 0.000000
# 5 0.000000 0.000000 0.000000 0.000000 0.028614 0.000000
# 6 0.000000 0.000000 0.000000 0.000000 0.000000 0.020666
#
#
# Mechanical properties :
#
#
# Convention : Reuss Voigt Hill
#
# Bulk Modulus (GPa) = 50.51080 70.20256 60.35668
# Shear Modulus (GPa) = 55.84615 22.49109 39.16862
#
# Velocity S-wave (km/s) = 5.03954 3.19816 4.22050
# Velocity P-wave (km/s) = 7.53878 6.75007 7.15530
#
# Compressibility (1/GPa) = 0.01979775
#
# Stress axis : x y z
#
# Youngs Moduli (GPa) = 102.60547 135.92254 52.52317
#
# Poissons Ratio (x) = 0.48659 0.14371
# Poissons Ratio (y) = 0.36732 0.09750
# Poissons Ratio (z) = 0.28074 0.25232
#
# Static dielectric constant tensor:
#      x y z
#    x 4.300660 0.000000 0.000000 
#    y 0.000000 4.313430 0.000000 
#    z 0.000000 0.000000 3.471640 
# 
# 
# High freq. dielectric constant tensor:
#      x y z
#    x 1.872640 0.000000 0.000000 
#    y 0.000000 1.876140 0.000000 
#    z 0.000000 0.000000 1.823670 
# 
# From -- ./inp_files/25779.got.cif
#   From: 2010.03.12/outbox.cif.g09.slc.cpg/sg66_13_cif.got.tgz:25779.got - 2010.04.10 21:57:39.
