data_PCOD8276773
_publ_section_title
;
Structure prediction by ZEFSAII (Michael W. Deem and Ramdas Pophale) SiO2 
 PCOD8276773
Probable space group: C C C M
;
_chemical_formula_sum "Si O2"
_cell_formula_units_Z 64
_cell_length_a 9.020280
_cell_length_b 10.859368
_cell_length_c 26.239125
_cell_angle_alpha 90.000000
_cell_angle_beta 90.000000
_cell_angle_gamma 90.000000
_cell_volume 2570.241419
_symmetry_space_group_name_H-M "C C C M"
_symmetry_group_IT_number 66
_symmetry_cell_setting 'orthorhombic'
loop_
_space_group_symop_operation_xyz
x,y,z
-x,-y,z
x,-y,1/2-z
-x,y,1/2-z
-x,-y,-z
x,y,-z
-x,y,1/2+z
x,-y,1/2+z
1/2+x,1/2+y,z
1/2-x,1/2-y,z
1/2+x,1/2-y,1/2-z
1/2-x,1/2+y,1/2-z
1/2-x,1/2-y,-z
1/2+x,1/2+y,-z
1/2-x,1/2+y,1/2+z
1/2+x,1/2-y,1/2+z
loop_
_atom_site_type_symbol
_atom_site_label
_atom_site_fract_x
_atom_site_fract_y
_atom_site_fract_z
Si Si1 0.128518 0.108958 0.392956
Si Si2 0.843645 0.871525 0.273654
Si Si3 0.731655 0.615525 0.940955
Si Si4 0.058774 0.650470 0.941849
O O1 0.121280 0.119387 0.333018
O O2 0.025152 0.206160 0.424235
O O3 0.302461 0.118470 0.406838
O O4 0.109206 0.963306 0.408916
O O5 0.750000 0.750000 0.260469
O O6 0.000000 0.845324 0.250000
O O7 0.775250 0.000000 0.250000
O O8 0.750000 0.750000 0.917430
O O9 0.906089 0.567533 0.936799
O O10 0.682845 0.618305 0.000000
O O11 0.112651 0.652438 0.000000
#
# Coordination Sequence:
#
# PCOD8276773 Si02
#       4
#    16  16  16  16
#     4  11  21  41  66  91 128 176 226 277 351 411
#     4  11  27  51  74 103 140 184 249 316 372 429
#     4  10  22  37  59 100 143 178 216 268 342 427
#     4  10  20  37  67 100 134 172 220 271 334 430
#
# _framework density 24.900386000000001
#
# number of rings (size 3 to 8) (size 9 to 14) (size 15 to 20)
#    0.000    1.500    2.500    3.750    0.000   10.500 
#    4.500    3.750    0.000    0.000    0.000    0.000 
#    0.000    0.000    0.000    0.000    0.000    0.000 
#
# Total GULP energy -396549.114246 kJ/mol
# GULP energy per Si atom -12392.159820 kJ/mol
# Density = 2.484371 g / cm^3
# Si number density = 24.900386 Si / 1000 Ang^3
#
#
#
# Elastic Constant Matrix: (Units=GPa)
#
#
# Indices 1 2 3 4 5 6 
#
# 1 106.8229 57.0302 53.0716 0.0000 0.0000 0.0000
# 2 57.0302 157.9243 51.1260 0.0000 0.0000 0.0000
# 3 53.0716 51.1260 167.4973 0.0000 0.0000 0.0000
# 4 0.0000 0.0000 0.0000 39.1081 0.0000 0.0000
# 5 0.0000 0.0000 0.0000 0.0000 37.4451 0.0000
# 6 0.0000 0.0000 0.0000 0.0000 0.0000 114.8890
#
#
#
# Elastic Compliance Matrix: (Units=1/GPa)
#
#
# Indices 1 2 3 4 5 6 
#
# 1 0.012773 -0.003664 -0.002928 0.000000 0.000000 0.000000
# 2 -0.003664 0.008078 -0.001305 0.000000 0.000000 0.000000
# 3 -0.002928 -0.001305 0.007296 0.000000 0.000000 0.000000
# 4 0.000000 0.000000 0.000000 0.025570 0.000000 0.000000
# 5 0.000000 0.000000 0.000000 0.000000 0.026706 0.000000
# 6 0.000000 0.000000 0.000000 0.000000 0.000000 0.008704
#
#
# Mechanical properties :
#
#
# Convention : Reuss Voigt Hill
#
# Bulk Modulus (GPa) = 80.96001 83.85557 82.40779
# Shear Modulus (GPa) = 45.85526 56.35623 51.10574
#
# Velocity S-wave (km/s) = 4.29598 4.76254 4.53527
# Velocity P-wave (km/s) = 7.56250 7.99950 7.78407
#
# Compressibility (1/GPa) = 0.01235178
#
# Stress axis : x y z
#
# Youngs Moduli (GPa) = 78.29294 123.79633 137.05519
#
# Poissons Ratio (x) = 0.45364 0.40136
# Poissons Ratio (y) = 0.28690 0.17880
# Poissons Ratio (z) = 0.22928 0.16150
#
# Static dielectric constant tensor:
#      x y z
#    x 5.018790 0.000000 0.000000 
#    y 0.000000 11.343440 0.000000 
#    z 0.000000 0.000000 5.036010 
# 
# 
# High freq. dielectric constant tensor:
#      x y z
#    x 2.046480 0.000000 0.000000 
#    y 0.000000 2.059460 0.000000 
#    z 0.000000 0.000000 1.950700 
# 
# From -- ./inp_files/47999.got.cif
#   From: 2010.03.12/outbox.cif.g09.slc.cpg/sg66_24_cif.got.tgz:47999.got - 2010.04.10 21:57:39.
