data_PCOD8276846
_publ_section_title
;
Structure prediction by ZEFSAII (Michael W. Deem and Ramdas Pophale) SiO2 
 PCOD8276846
Probable space group: C C C M
;
_chemical_formula_sum "Si O2"
_cell_formula_units_Z 60
_cell_length_a 27.028865
_cell_length_b 4.868591
_cell_length_c 19.921982
_cell_angle_alpha 90.000000
_cell_angle_beta 90.000000
_cell_angle_gamma 90.000000
_cell_volume 2621.583195
_symmetry_space_group_name_H-M "C C C M"
_symmetry_group_IT_number 66
_symmetry_cell_setting 'orthorhombic'
loop_
_space_group_symop_operation_xyz
x,y,z
-x,-y,z
x,-y,1/2-z
-x,y,1/2-z
-x,-y,-z
x,y,-z
-x,y,1/2+z
x,-y,1/2+z
1/2+x,1/2+y,z
1/2-x,1/2-y,z
1/2+x,1/2-y,1/2-z
1/2-x,1/2+y,1/2-z
1/2-x,1/2-y,-z
1/2+x,1/2+y,-z
1/2-x,1/2+y,1/2+z
1/2+x,1/2-y,1/2+z
loop_
_atom_site_type_symbol
_atom_site_label
_atom_site_fract_x
_atom_site_fract_y
_atom_site_fract_z
Si Si1 0.000000 0.500000 0.750000
Si Si2 0.426588 0.218976 0.144357
Si Si3 0.357512 0.716742 0.142781
Si Si4 0.717787 0.500000 0.250000
Si Si5 0.860636 0.103849 0.000000
Si Si6 0.924701 0.602032 0.000000
O O1 0.966721 0.691414 0.797372
O O2 0.405725 0.525026 0.150182
O O3 0.452356 0.173103 0.070453
O O4 0.378891 0.021068 0.154774
O O5 0.314873 0.645962 0.194032
O O6 0.332409 0.684104 0.068692
O O7 0.750000 0.250000 0.281288
O O8 0.911929 0.280082 0.000000
O O9 0.873780 0.781264 0.000000
#
# Coordination Sequence:
#
# PCOD8276846 Si02
#       6
#     4  16  16   8   8   8
#     4  12  24  34  52  86 112 144 188 220 260 312
#     4  10  21  35  57  79 109 144 181 223 264 315
#     4  10  20  40  58  78 108 144 178 219 273 317
#     4  12  24  37  56  83 112 141 176 217 268 328
#     4   8  16  32  60  78  96 137 184 215 258 324
#     4   8  16  33  52  77 102 139 180 219 266 307
#
# _framework density 22.886932999999999
#
# number of rings (size 3 to 8) (size 9 to 14) (size 15 to 20)
#    0.000    2.133    0.000    3.200    0.000    2.667 
#    0.000    1.333    0.000    9.600    0.000    0.000 
#    0.000    0.000    0.000    0.000    0.000    0.000 
#
# Total GULP energy -371765.307009 kJ/mol
# GULP energy per Si atom -12392.176900 kJ/mol
# Density = 2.283484 g / cm^3
# Si number density = 22.886933 Si / 1000 Ang^3
#
#
#
# Elastic Constant Matrix: (Units=GPa)
#
#
# Indices 1 2 3 4 5 6 
#
# 1 53.5314 0.8202 42.1087 0.0000 0.0000 0.0000
# 2 0.8202 69.8492 -5.5475 0.0000 0.0000 0.0000
# 3 42.1087 -5.5475 163.3929 0.0000 0.0000 0.0000
# 4 0.0000 0.0000 0.0000 21.0840 0.0000 0.0000
# 5 0.0000 0.0000 0.0000 0.0000 -167.3915 0.0000
# 6 0.0000 0.0000 0.0000 0.0000 0.0000 3.2905
#
#
#
# Elastic Compliance Matrix: (Units=1/GPa)
#
#
# Indices 1 2 3 4 5 6 
#
# 1 0.023470 -0.000758 -0.006074 0.000000 0.000000 0.000000
# 2 -0.000758 0.014380 0.000684 0.000000 0.000000 0.000000
# 3 -0.006074 0.000684 0.007709 0.000000 0.000000 0.000000
# 4 0.000000 0.000000 0.000000 0.047429 0.000000 0.000000
# 5 0.000000 0.000000 0.000000 0.000000 -0.005974 0.000000
# 6 0.000000 0.000000 0.000000 0.000000 0.000000 0.303901
#
#
# Mechanical properties :
#
#
# Convention : Reuss Voigt Hill
#
# Bulk Modulus (GPa) = 30.06491 40.17072 35.11781
# Shear Modulus (GPa) = 12.06854 -11.97724 0.04565
#
# Velocity S-wave (km/s) = 2.29882 -2.29011 0.14139
# Velocity P-wave (km/s) = 4.49565 3.25532 3.92479
#
# Compressibility (1/GPa) = 0.03326136
#
# Stress axis : x y z
#
# Youngs Moduli (GPa) = 42.60670 69.54228 129.72033
#
# Poissons Ratio (x) = 0.05271 0.78798
# Poissons Ratio (y) = 0.03230 -0.08867
# Poissons Ratio (z) = 0.25881 -0.04754
#
# Static dielectric constant tensor:
#      x y z
#    x 3.471090 0.000000 0.000000 
#    y 0.000000 4.214500 0.000000 
#    z 0.000000 0.000000 4.725420 
# 
# 
# High freq. dielectric constant tensor:
#      x y z
#    x 1.834080 0.000000 0.000000 
#    y 0.000000 1.923610 0.000000 
#    z 0.000000 0.000000 1.932350 
# 
# From -- ./inp_files/45583.got.cif
#   From: 2010.03.12/outbox.cif.g09.slc.cpg/sg66_23_cif.got.tgz:45583.got - 2010.04.10 21:57:39.
