data_PCOD8276337
_publ_section_title
;
Structure prediction by ZEFSAII (Michael W. Deem and Ramdas Pophale) SiO2 
 PCOD8276337
Probable space group: C C C M
;
_chemical_formula_sum "Si O2"
_cell_formula_units_Z 80
_cell_length_a 4.927582
_cell_length_b 22.855707
_cell_length_c 34.932192
_cell_angle_alpha 90.000000
_cell_angle_beta 90.000000
_cell_angle_gamma 90.000000
_cell_volume 3934.181199
_symmetry_space_group_name_H-M "C C C M"
_symmetry_group_IT_number 66
_symmetry_cell_setting 'orthorhombic'
loop_
_space_group_symop_operation_xyz
x,y,z
-x,-y,z
x,-y,1/2-z
-x,y,1/2-z
-x,-y,-z
x,y,-z
-x,y,1/2+z
x,-y,1/2+z
1/2+x,1/2+y,z
1/2-x,1/2-y,z
1/2+x,1/2-y,1/2-z
1/2-x,1/2+y,1/2-z
1/2-x,1/2-y,-z
1/2+x,1/2+y,-z
1/2-x,1/2+y,1/2+z
1/2+x,1/2-y,1/2+z
loop_
_atom_site_type_symbol
_atom_site_label
_atom_site_fract_x
_atom_site_fract_y
_atom_site_fract_z
Si Si1 0.746601 0.817003 0.723447
Si Si2 0.855877 0.878988 0.956780
Si Si3 0.172241 0.941871 0.382793
Si Si4 0.826465 0.378441 0.144238
Si Si5 0.632674 0.813883 0.429422
O O1 0.500000 0.830015 0.750000
O O2 0.750000 0.750000 0.709076
O O3 0.697362 0.858903 0.687719
O O4 0.000000 0.833598 0.750000
O O5 0.774263 0.932499 0.928259
O O6 0.655482 0.823392 0.950428
O O7 0.162778 0.860311 0.948138
O O8 0.834363 0.902372 0.000000
O O9 0.464718 0.934168 0.361151
O O10 0.981978 0.890611 0.367460
O O11 0.000000 0.000000 0.373919
O O12 0.920661 0.326290 0.115797
O O13 0.750000 0.750000 0.436392
#
# Coordination Sequence:
#
# PCOD8276337 Si02
#       5
#    16  16  16  16  16
#     4  10  20  34  56  86 116 144 171 206 260 321
#     4  10  21  34  50  76 105 136 179 226 271 320
#     4  10  21  37  57  77 100 139 185 228 274 314
#     4  10  20  36  56  79 108 138 178 223 261 318
#     4  10  20  33  51  75 106 144 177 211 263 325
#
# _framework density 20.334599000000001
#
# number of rings (size 3 to 8) (size 9 to 14) (size 15 to 20)
#    0.000    2.000    0.000    3.600    0.000    2.800 
#    0.000    6.000    0.000   16.200    0.000    0.000 
#    0.000    0.000    0.000    0.000    0.000    0.000 
#
# Total GULP energy -495703.204488 kJ/mol
# GULP energy per Si atom -12392.580112 kJ/mol
# Density = 2.028832 g / cm^3
# Si number density = 20.334599 Si / 1000 Ang^3
#
#
#
# Elastic Constant Matrix: (Units=GPa)
#
#
# Indices 1 2 3 4 5 6 
#
# 1 116.8031 6.1051 38.4230 0.0000 0.0000 0.0000
# 2 6.1051 41.2038 32.8306 0.0000 0.0000 0.0000
# 3 38.4230 32.8306 151.8440 0.0000 0.0000 0.0000
# 4 0.0000 0.0000 0.0000 14.4065 0.0000 0.0000
# 5 0.0000 0.0000 0.0000 0.0000 31.7277 0.0000
# 6 0.0000 0.0000 0.0000 0.0000 0.0000 33.4062
#
#
#
# Elastic Compliance Matrix: (Units=1/GPa)
#
#
# Indices 1 2 3 4 5 6 
#
# 1 0.009351 0.000604 -0.002497 0.000000 0.000000 0.000000
# 2 0.000604 0.029360 -0.006501 0.000000 0.000000 0.000000
# 3 -0.002497 -0.006501 0.008623 0.000000 0.000000 0.000000
# 4 0.000000 0.000000 0.000000 0.069413 0.000000 0.000000
# 5 0.000000 0.000000 0.000000 0.000000 0.031518 0.000000
# 6 0.000000 0.000000 0.000000 0.000000 0.000000 0.029935
#
#
# Mechanical properties :
#
#
# Convention : Reuss Voigt Hill
#
# Bulk Modulus (GPa) = 32.73677 51.61869 42.17773
# Shear Modulus (GPa) = 24.37007 31.40756 27.88881
#
# Velocity S-wave (km/s) = 3.46562 3.93432 3.70739
# Velocity P-wave (km/s) = 5.66993 6.78810 6.25405
#
# Compressibility (1/GPa) = 0.03054669
#
# Stress axis : x y z
#
# Youngs Moduli (GPa) = 106.93822 34.06009 115.96815
#
# Poissons Ratio (x) = -0.02057 0.28955
# Poissons Ratio (y) = -0.06458 0.75388
# Poissons Ratio (z) = 0.26701 0.22142
#
# Static dielectric constant tensor:
#      x y z
#    x 3.986920 0.000000 0.000000 
#    y 0.000000 3.280350 0.000000 
#    z 0.000000 0.000000 3.624340 
# 
# 
# High freq. dielectric constant tensor:
#      x y z
#    x 1.821620 0.000000 0.000000 
#    y 0.000000 1.757680 0.000000 
#    z 0.000000 0.000000 1.789130 
# 
# From -- ./inp_files/67188.got.cif
#   From: 2010.03.12/outbox.cif.g09.slc.cpg/sg66_34_cif.got.tgz:67188.got - 2010.04.10 21:57:39.
