data_PCOD8276230
_publ_section_title
;
Structure prediction by ZEFSAII (Michael W. Deem and Ramdas Pophale) SiO2 
 PCOD8276230
Probable space group: C C C M
;
_chemical_formula_sum "Si O2"
_cell_formula_units_Z 116
_cell_length_a 27.215254
_cell_length_b 22.298709
_cell_length_c 9.038454
_cell_angle_alpha 90.000000
_cell_angle_beta 90.000000
_cell_angle_gamma 90.000000
_cell_volume 5485.121652
_symmetry_space_group_name_H-M "C C C M"
_symmetry_group_IT_number 66
_symmetry_cell_setting 'orthorhombic'
loop_
_space_group_symop_operation_xyz
x,y,z
-x,-y,z
x,-y,1/2-z
-x,y,1/2-z
-x,-y,-z
x,y,-z
-x,y,1/2+z
x,-y,1/2+z
1/2+x,1/2+y,z
1/2-x,1/2-y,z
1/2+x,1/2-y,1/2-z
1/2-x,1/2+y,1/2-z
1/2-x,1/2-y,-z
1/2+x,1/2+y,-z
1/2-x,1/2+y,1/2+z
1/2+x,1/2-y,1/2+z
loop_
_atom_site_type_symbol
_atom_site_label
_atom_site_fract_x
_atom_site_fract_y
_atom_site_fract_z
Si Si1 0.322384 0.907427 0.670474
Si Si2 0.452808 0.318897 0.670757
Si Si3 0.345741 0.660577 0.830325
Si Si4 0.086089 0.413918 0.334266
Si Si5 0.048364 0.693232 0.324872
Si Si6 0.712830 0.441437 0.670887
Si Si7 0.500000 0.000000 0.750000
Si Si8 0.194381 0.269666 0.170612
O O1 0.338649 0.913170 0.500000
O O2 0.362703 0.942252 0.774073
O O3 0.270840 0.940023 0.697969
O O4 0.313914 0.838119 0.717003
O O5 0.500000 0.350274 0.750000
O O6 0.466171 0.305836 0.500000
O O7 0.403460 0.358458 0.683576
O O8 0.441076 0.257026 0.753562
O O9 0.312545 0.617415 0.734148
O O10 0.340328 0.728384 0.771590
O O11 0.328679 0.657460 0.000000
O O12 0.092972 0.390368 0.500000
O O13 0.086877 0.357612 0.220224
O O14 0.038221 0.457572 0.338630
O O15 0.044322 0.699017 0.500000
O O16 0.000000 0.665586 0.250000
O O17 0.690755 0.500000 0.750000
O O18 0.699125 0.444503 0.500000
O O19 0.250000 0.250000 0.198303
O O20 0.179203 0.259888 0.000000
#
# Coordination Sequence:
#
# PCOD8276230 Si02
#       8
#    16  16  16  16  16  16   4  16
#     4  10  23  42  65  92 124 162 207 258 319 385
#     4  10  21  37  60  93 129 163 203 247 301 365
#     4  11  23  38  61  95 130 167 208 256 309 370
#     4  12  26  43  63  84 112 153 207 266 324 378
#     4  11  21  36  59  85 117 156 198 246 306 370
#     4  11  24  44  66  91 124 166 210 255 307 371
#     4  12  30  48  64  82 114 164 222 276 334 388
#     4  10  19  37  62  92 128 168 207 251 313 384
#
# _framework density 21.148119000000001
#
# number of rings (size 3 to 8) (size 9 to 14) (size 15 to 20)
#    0.000    1.241    2.069    4.759    0.966    8.000 
#    0.000    0.000    0.000    0.414    0.000    2.897 
#    0.000    0.000    0.000    0.000    0.000    0.000 
#
# Total GULP energy -718829.321239 kJ/mol
# GULP energy per Si atom -12393.608987 kJ/mol
# Density = 2.109998 g / cm^3
# Si number density = 21.148119 Si / 1000 Ang^3
#
#
#
# Elastic Constant Matrix: (Units=GPa)
#
#
# Indices 1 2 3 4 5 6 
#
# 1 90.2999 4.7249 53.4065 0.0000 0.0000 0.0000
# 2 4.7249 51.4259 30.4690 0.0000 0.0000 0.0000
# 3 53.4065 30.4690 156.3220 0.0000 0.0000 0.0000
# 4 0.0000 0.0000 0.0000 -6.4626 0.0000 0.0000
# 5 0.0000 0.0000 0.0000 0.0000 30.9043 0.0000
# 6 0.0000 0.0000 0.0000 0.0000 0.0000 14.8771
#
#
#
# Elastic Compliance Matrix: (Units=1/GPa)
#
#
# Indices 1 2 3 4 5 6 
#
# 1 0.014017 0.001752 -0.005130 0.000000 0.000000 0.000000
# 2 0.001752 0.022203 -0.004926 0.000000 0.000000 0.000000
# 3 -0.005130 -0.004926 0.009110 0.000000 0.000000 0.000000
# 4 0.000000 0.000000 0.000000 -0.154737 0.000000 0.000000
# 5 0.000000 0.000000 0.000000 0.000000 0.032358 0.000000
# 6 0.000000 0.000000 0.000000 0.000000 0.000000 0.067217
#
#
# Mechanical properties :
#
#
# Convention : Reuss Voigt Hill
#
# Bulk Modulus (GPa) = 34.81817 52.80540 43.81178
# Shear Modulus (GPa) = 305.80036 21.82693 163.81365
#
# Velocity S-wave (km/s) = 12.03799 3.21611 8.81069
# Velocity P-wave (km/s) = 14.48162 6.23014 11.14747
#
# Compressibility (1/GPa) = 0.02872064
#
# Stress axis : x y z
#
# Youngs Moduli (GPa) = 71.34346 45.03864 109.77066
#
# Poissons Ratio (x) = -0.07890 0.56314
# Poissons Ratio (y) = -0.12497 0.54074
# Poissons Ratio (z) = 0.36600 0.22187
#
# Static dielectric constant tensor:
#      x y z
#    x 4.121590 0.000000 0.000000 
#    y 0.000000 3.504680 0.000000 
#    z 0.000000 0.000000 3.748380 
# 
# 
# High freq. dielectric constant tensor:
#      x y z
#    x 1.844810 0.000000 0.000000 
#    y 0.000000 1.803100 0.000000 
#    z 0.000000 0.000000 1.832740 
# 
# From -- ./inp_files/10626.got.cif
#   From: 2010.03.12/outbox.cif.g09.slc.cpg/sg66_6_cif.got.tgz:10626.got - 2010.04.10 21:57:39.
