data_PCOD8276871
_publ_section_title
;
Structure prediction by ZEFSAII (Michael W. Deem and Ramdas Pophale) SiO2 
 PCOD8276871
Probable space group: C C C M
;
_chemical_formula_sum "Si O2"
_cell_formula_units_Z 96
_cell_length_a 11.556417
_cell_length_b 14.030445
_cell_length_c 31.677368
_cell_angle_alpha 90.000000
_cell_angle_beta 90.000000
_cell_angle_gamma 90.000000
_cell_volume 5136.221447
_symmetry_space_group_name_H-M "C C C M"
_symmetry_group_IT_number 66
_symmetry_cell_setting 'orthorhombic'
loop_
_space_group_symop_operation_xyz
x,y,z
-x,-y,z
x,-y,1/2-z
-x,y,1/2-z
-x,-y,-z
x,y,-z
-x,y,1/2+z
x,-y,1/2+z
1/2+x,1/2+y,z
1/2-x,1/2-y,z
1/2+x,1/2-y,1/2-z
1/2-x,1/2+y,1/2-z
1/2-x,1/2-y,-z
1/2+x,1/2+y,-z
1/2-x,1/2+y,1/2+z
1/2+x,1/2-y,1/2+z
loop_
_atom_site_type_symbol
_atom_site_label
_atom_site_fract_x
_atom_site_fract_y
_atom_site_fract_z
Si Si1 0.793743 0.855404 0.629738
Si Si2 0.636297 0.007512 0.588682
Si Si3 0.388158 0.938446 0.500000
Si Si4 0.226362 0.139828 0.141195
Si Si5 0.863274 0.001167 0.201444
Si Si6 0.020623 0.108161 0.078371
Si Si7 0.611821 0.728149 0.000000
O O1 0.750000 0.750000 0.640813
O O2 0.694403 0.909525 0.603388
O O3 0.906222 0.848696 0.599957
O O4 0.816320 0.909243 0.674200
O O5 0.500000 0.000000 0.585960
O O6 0.686455 0.038092 0.542239
O O7 0.659585 0.092579 0.621506
O O8 0.441915 0.832638 0.500000
O O9 0.500000 0.000000 0.500000
O O10 0.250000 0.250000 0.145431
O O11 0.196811 0.096848 0.186642
O O12 0.119872 0.106471 0.112912
O O13 0.826359 0.000000 0.250000
O O14 0.000000 0.000000 0.195639
O O15 0.065654 0.173134 0.040554
O O16 0.000000 0.000000 0.062767
O O17 0.750000 0.750000 0.000000
#
# Coordination Sequence:
#
# PCOD8276871 Si02
#       7
#    16  16   8  16  16  16   8
#     4  11  24  39  64  90 124 161 203 257 305 371
#     4  10  22  38  58  84 120 166 204 251 304 363
#     4  10  22  38  54  78 121 160 209 242 295 356
#     4  11  21  37  64  88 119 159 204 249 305 373
#     4  10  20  41  66  92 123 155 198 255 313 374
#     4  12  22  43  60  91 121 163 212 257 313 360
#     4  12  27  38  62  92 123 165 212 273 306 358
#
# _framework density 18.690781999999999
#
# number of rings (size 3 to 8) (size 9 to 14) (size 15 to 20)
#    0.000    1.167    5.000    2.750    7.000    1.333 
#    0.000    0.833    0.000    8.000    0.000    0.000 
#    0.000    0.000    0.000    0.000    0.000    0.000 
#
# Total GULP energy -594993.733252 kJ/mol
# GULP energy per Si atom -12395.702776 kJ/mol
# Density = 1.864824 g / cm^3
# Si number density = 18.690782 Si / 1000 Ang^3
#
#
#
# Elastic Constant Matrix: (Units=GPa)
#
#
# Indices 1 2 3 4 5 6 
#
# 1 81.1824 38.7302 45.8067 0.0000 0.0000 0.0000
# 2 38.7302 173.6658 68.6282 0.0000 0.0000 0.0000
# 3 45.8067 68.6282 154.3019 0.0000 0.0000 0.0000
# 4 0.0000 0.0000 0.0000 50.9576 0.0000 0.0000
# 5 0.0000 0.0000 0.0000 0.0000 36.8200 0.0000
# 6 0.0000 0.0000 0.0000 0.0000 0.0000 26.3821
#
#
#
# Elastic Compliance Matrix: (Units=1/GPa)
#
#
# Indices 1 2 3 4 5 6 
#
# 1 0.015330 -0.001966 -0.003677 0.000000 0.000000 0.000000
# 2 -0.001966 0.007238 -0.002636 0.000000 0.000000 0.000000
# 3 -0.003677 -0.002636 0.008745 0.000000 0.000000 0.000000
# 4 0.000000 0.000000 0.000000 0.019624 0.000000 0.000000
# 5 0.000000 0.000000 0.000000 0.000000 0.027159 0.000000
# 6 0.000000 0.000000 0.000000 0.000000 0.000000 0.037904
#
#
# Mechanical properties :
#
#
# Convention : Reuss Voigt Hill
#
# Bulk Modulus (GPa) = 67.76678 79.49782 73.63230
# Shear Modulus (GPa) = 36.36992 39.89763 38.13377
#
# Velocity S-wave (km/s) = 4.41599 4.62520 4.52181
# Velocity P-wave (km/s) = 7.89537 8.43498 8.16963
#
# Compressibility (1/GPa) = 0.01475649
#
# Stress axis : x y z
#
# Youngs Moduli (GPa) = 65.22985 138.15627 114.35742
#
# Poissons Ratio (x) = 0.27162 0.42045
# Poissons Ratio (y) = 0.12824 0.30141
# Poissons Ratio (z) = 0.23983 0.36413
#
# Static dielectric constant tensor:
#      x y z
#    x 3.440310 0.000000 0.000000 
#    y 0.000000 3.467380 0.000000 
#    z 0.000000 0.000000 3.941280 
# 
# 
# High freq. dielectric constant tensor:
#      x y z
#    x 1.727390 0.000000 0.000000 
#    y 0.000000 1.735720 0.000000 
#    z 0.000000 0.000000 1.726860 
# 
# From -- ./inp_files/69037.got.cif
#   From: 2010.03.12/outbox.cif.g09.slc.cpg/sg66_35_cif.got.tgz:69037.got - 2010.04.10 21:57:39.
