data_PCOD8276425
_publ_section_title
;
Structure prediction by ZEFSAII (Michael W. Deem and Ramdas Pophale) SiO2 
 PCOD8276425
Probable space group: C C C M
;
_chemical_formula_sum "Si O2"
_cell_formula_units_Z 116
_cell_length_a 28.159474
_cell_length_b 21.987063
_cell_length_c 9.489568
_cell_angle_alpha 90.000000
_cell_angle_beta 90.000000
_cell_angle_gamma 90.000000
_cell_volume 5875.410313
_symmetry_space_group_name_H-M "C C C M"
_symmetry_group_IT_number 66
_symmetry_cell_setting 'orthorhombic'
loop_
_space_group_symop_operation_xyz
x,y,z
-x,-y,z
x,-y,1/2-z
-x,y,1/2-z
-x,-y,-z
x,y,-z
-x,y,1/2+z
x,-y,1/2+z
1/2+x,1/2+y,z
1/2-x,1/2-y,z
1/2+x,1/2-y,1/2-z
1/2-x,1/2+y,1/2-z
1/2-x,1/2-y,-z
1/2+x,1/2+y,-z
1/2-x,1/2+y,1/2+z
1/2+x,1/2-y,1/2+z
loop_
_atom_site_type_symbol
_atom_site_label
_atom_site_fract_x
_atom_site_fract_y
_atom_site_fract_z
Si Si1 0.500000 0.000000 0.250000
Si Si2 0.135698 0.060942 0.336329
Si Si3 0.043822 0.276553 0.165755
Si Si4 0.383851 0.670648 0.341899
Si Si5 0.802775 0.255398 0.340100
Si Si6 0.066249 0.393802 0.657384
Si Si7 0.255209 0.558010 0.160511
Si Si8 0.169123 0.638352 0.160993
O O1 0.535777 0.956122 0.336067
O O2 0.121463 0.052251 0.500000
O O3 0.105789 0.116146 0.267622
O O4 0.190725 0.079337 0.319621
O O5 0.123950 0.000000 0.250000
O O6 0.086675 0.230809 0.196266
O O7 0.050987 0.344425 0.227061
O O8 0.000000 0.247002 0.250000
O O9 0.033572 0.283231 0.000000
O O10 0.396248 0.647740 0.500000
O O11 0.328485 0.689910 0.334065
O O12 0.799562 0.279646 0.500000
O O13 0.750000 0.250000 0.274355
O O14 0.836027 0.301386 0.253667
O O15 0.058694 0.366919 0.500000
O O16 0.122891 0.405186 0.681688
O O17 0.243649 0.500000 0.250000
O O18 0.217944 0.607903 0.213364
O O19 0.244722 0.540719 0.000000
O O20 0.173923 0.659009 0.000000
#
# Coordination Sequence:
#
# PCOD8276425 Si02
#       8
#     4  16  16  16  16  16  16  16
#     4  12  26  40  64  90 114 156 208 264 322 368
#     4  10  20  35  58  86 118 157 195 237 284 343
#     4  11  23  41  65  89 119 152 192 246 299 355
#     4  10  21  37  57  86 118 152 192 239 292 351
#     4  10  20  34  54  82 116 153 192 238 294 355
#     4  11  24  41  60  84 115 152 199 254 310 363
#     4   9  19  34  51  76 111 151 197 242 288 341
#     4  10  21  36  53  77 112 151 194 247 298 351
#
# _framework density 19.743303000000001
#
# number of rings (size 3 to 8) (size 9 to 14) (size 15 to 20)
#    0.000    1.793    2.069    1.862    0.966    3.586 
#    0.000    0.000    0.000    0.414    0.000    2.897 
#    0.000    0.000    0.000    0.000    0.000    0.000 
#
# Total GULP energy -718880.759696 kJ/mol
# GULP energy per Si atom -12394.495857 kJ/mol
# Density = 1.969837 g / cm^3
# Si number density = 19.743303 Si / 1000 Ang^3
#
#
#
# Elastic Constant Matrix: (Units=GPa)
#
#
# Indices 1 2 3 4 5 6 
#
# 1 65.3448 37.3181 34.2394 0.0000 0.0000 0.0000
# 2 37.3181 105.1597 61.9379 0.0000 0.0000 0.0000
# 3 34.2394 61.9379 110.0682 0.0000 0.0000 0.0000
# 4 0.0000 0.0000 0.0000 35.8953 0.0000 0.0000
# 5 0.0000 0.0000 0.0000 0.0000 25.9700 0.0000
# 6 0.0000 0.0000 0.0000 0.0000 0.0000 28.9267
#
#
#
# Elastic Compliance Matrix: (Units=1/GPa)
#
#
# Indices 1 2 3 4 5 6 
#
# 1 0.019976 -0.005129 -0.003328 0.000000 0.000000 0.000000
# 2 -0.005129 0.015540 -0.007149 0.000000 0.000000 0.000000
# 3 -0.003328 -0.007149 0.014144 0.000000 0.000000 0.000000
# 4 0.000000 0.000000 0.000000 0.027859 0.000000 0.000000
# 5 0.000000 0.000000 0.000000 0.000000 0.038506 0.000000
# 6 0.000000 0.000000 0.000000 0.000000 0.000000 0.034570
#
#
# Mechanical properties :
#
#
# Convention : Reuss Voigt Hill
#
# Bulk Modulus (GPa) = 54.20716 60.84040 57.52378
# Shear Modulus (GPa) = 26.60179 27.96354 27.28267
#
# Velocity S-wave (km/s) = 3.67465 3.76753 3.72138
# Velocity P-wave (km/s) = 6.74683 7.05750 6.90391
#
# Compressibility (1/GPa) = 0.01844775
#
# Stress axis : x y z
#
# Youngs Moduli (GPa) = 50.05930 64.34841 70.70285
#
# Poissons Ratio (x) = 0.33003 0.23530
# Poissons Ratio (y) = 0.25675 0.50549
# Poissons Ratio (z) = 0.16660 0.46006
#
# Static dielectric constant tensor:
#      x y z
#    x 3.735550 0.000000 0.000000 
#    y 0.000000 3.370100 0.000000 
#    z 0.000000 0.000000 212.894170 
# 
# 
# High freq. dielectric constant tensor:
#      x y z
#    x 1.766520 0.000000 0.000000 
#    y 0.000000 1.751420 0.000000 
#    z 0.000000 0.000000 1.773490 
# 
# From -- ./inp_files/9411.got.cif
#   From: 2010.03.12/outbox.cif.g09.slc.cpg/sg66_5_cif.got.tgz:9411.got - 2010.04.10 21:57:39.
