data_PCOD8276553
_publ_section_title
;
Structure prediction by ZEFSAII (Michael W. Deem and Ramdas Pophale) SiO2 
 PCOD8276553
Probable space group: C C C M
;
_chemical_formula_sum "Si O2"
_cell_formula_units_Z 96
_cell_length_a 9.630458
_cell_length_b 18.692797
_cell_length_c 28.826538
_cell_angle_alpha 90.000000
_cell_angle_beta 90.000000
_cell_angle_gamma 90.000000
_cell_volume 5189.359033
_symmetry_space_group_name_H-M "C C C M"
_symmetry_group_IT_number 66
_symmetry_cell_setting 'orthorhombic'
loop_
_space_group_symop_operation_xyz
x,y,z
-x,-y,z
x,-y,1/2-z
-x,y,1/2-z
-x,-y,-z
x,y,-z
-x,y,1/2+z
x,-y,1/2+z
1/2+x,1/2+y,z
1/2-x,1/2-y,z
1/2+x,1/2-y,1/2-z
1/2-x,1/2+y,1/2-z
1/2-x,1/2-y,-z
1/2+x,1/2+y,-z
1/2-x,1/2+y,1/2+z
1/2+x,1/2-y,1/2+z
loop_
_atom_site_type_symbol
_atom_site_label
_atom_site_fract_x
_atom_site_fract_y
_atom_site_fract_z
Si Si1 0.694605 0.862994 0.140847
Si Si2 0.902014 0.724046 0.448138
Si Si3 0.142808 0.189757 0.722146
Si Si4 0.046662 0.580652 0.552930
Si Si5 0.464924 0.720353 0.361701
Si Si6 0.150315 0.581497 0.737651
O O1 0.662077 0.897833 0.090783
O O2 0.600879 0.794999 0.154951
O O3 0.856272 0.843612 0.141310
O O4 0.672412 0.918050 0.182373
O O5 0.942678 0.746198 0.500000
O O6 0.750000 0.750000 0.435330
O O7 0.919869 0.637803 0.441439
O O8 0.001858 0.769750 0.415660
O O9 0.250000 0.250000 0.739244
O O10 0.223971 0.116649 0.732934
O O11 0.000000 0.194910 0.750000
O O12 0.102200 0.199902 0.668049
O O13 0.105992 0.585089 0.500000
O O14 0.000000 0.500000 0.563826
O O15 0.150916 0.500000 0.750000
O O16 0.000000 0.616320 0.750000
#
# Coordination Sequence:
#
# PCOD8276553 Si02
#       6
#    16  16  16  16  16  16
#     4  10  20  38  56  83 116 144 193 242 286 345
#     4   9  18  34  56  85 116 144 185 238 289 342
#     4  12  22  37  60  83 113 149 196 241 290 347
#     4   9  19  35  60  86 113 150 189 236 291 354
#     4  10  20  35  58  84 111 148 191 238 289 339
#     4  11  25  41  58  83 114 157 197 241 296 346
#
# _framework density 18.499393999999999
#
# number of rings (size 3 to 8) (size 9 to 14) (size 15 to 20)
#    0.000    1.833    1.667    3.000    2.333    2.333 
#    0.000    3.333    0.000    0.000    0.000    4.667 
#    0.000    0.000    0.000    0.000    0.000    0.000 
#
# Total GULP energy -594937.099444 kJ/mol
# GULP energy per Si atom -12394.522905 kJ/mol
# Density = 1.845729 g / cm^3
# Si number density = 18.499394 Si / 1000 Ang^3
#
#
#
# Elastic Constant Matrix: (Units=GPa)
#
#
# Indices 1 2 3 4 5 6 
#
# 1 116.7099 50.9922 53.3477 0.0000 0.0000 0.0000
# 2 50.9922 81.7805 54.7851 0.0000 0.0000 0.0000
# 3 53.3477 54.7851 120.1318 0.0000 0.0000 0.0000
# 4 0.0000 0.0000 0.0000 30.6502 0.0000 0.0000
# 5 0.0000 0.0000 0.0000 0.0000 32.4385 0.0000
# 6 0.0000 0.0000 0.0000 0.0000 0.0000 24.6602
#
#
#
# Elastic Compliance Matrix: (Units=1/GPa)
#
#
# Indices 1 2 3 4 5 6 
#
# 1 0.012422 -0.005832 -0.002857 0.000000 0.000000 0.000000
# 2 -0.005832 0.020345 -0.006688 0.000000 0.000000 0.000000
# 3 -0.002857 -0.006688 0.012643 0.000000 0.000000 0.000000
# 4 0.000000 0.000000 0.000000 0.032626 0.000000 0.000000
# 5 0.000000 0.000000 0.000000 0.000000 0.030828 0.000000
# 6 0.000000 0.000000 0.000000 0.000000 0.000000 0.040551
#
#
# Mechanical properties :
#
#
# Convention : Reuss Voigt Hill
#
# Bulk Modulus (GPa) = 68.23130 70.76356 69.49743
# Shear Modulus (GPa) = 27.01923 28.18292 27.60108
#
# Velocity S-wave (km/s) = 3.82586 3.90738 3.86683
# Velocity P-wave (km/s) = 7.51527 7.66105 7.58851
#
# Compressibility (1/GPa) = 0.01465603
#
# Stress axis : x y z
#
# Youngs Moduli (GPa) = 80.50206 49.15333 79.09534
#
# Poissons Ratio (x) = 0.28664 0.22596
# Poissons Ratio (y) = 0.46946 0.52901
# Poissons Ratio (z) = 0.22998 0.32875
#
# Static dielectric constant tensor:
#      x y z
#    x 3.661730 0.000000 0.000000 
#    y 0.000000 3.351750 0.000000 
#    z 0.000000 0.000000 3.616020 
# 
# 
# High freq. dielectric constant tensor:
#      x y z
#    x 1.709270 0.000000 0.000000 
#    y 0.000000 1.704830 0.000000 
#    z 0.000000 0.000000 1.735670 
# 
# From -- ./inp_files/62604.got.cif
#   From: 2010.03.12/outbox.cif.g09.slc.cpg/sg66_32_cif.got.tgz:62604.got - 2010.04.10 21:57:39.
