data_PCOD8276060
_publ_section_title
;
Structure prediction by ZEFSAII (Michael W. Deem and Ramdas Pophale) SiO2 
 PCOD8276060
Probable space group: C C C M
;
_chemical_formula_sum "Si O2"
_cell_formula_units_Z 112
_cell_length_a 21.493899
_cell_length_b 13.844737
_cell_length_c 19.886889
_cell_angle_alpha 90.000000
_cell_angle_beta 90.000000
_cell_angle_gamma 90.000000
_cell_volume 5917.888300
_symmetry_space_group_name_H-M "C C C M"
_symmetry_group_IT_number 66
_symmetry_cell_setting 'orthorhombic'
loop_
_space_group_symop_operation_xyz
x,y,z
-x,-y,z
x,-y,1/2-z
-x,y,1/2-z
-x,-y,-z
x,y,-z
-x,y,1/2+z
x,-y,1/2+z
1/2+x,1/2+y,z
1/2-x,1/2-y,z
1/2+x,1/2-y,1/2-z
1/2-x,1/2+y,1/2-z
1/2-x,1/2-y,-z
1/2+x,1/2+y,-z
1/2-x,1/2+y,1/2+z
1/2+x,1/2-y,1/2+z
loop_
_atom_site_type_symbol
_atom_site_label
_atom_site_fract_x
_atom_site_fract_y
_atom_site_fract_z
Si Si1 0.951645 0.422043 0.358589
Si Si2 0.646274 0.941338 0.426356
Si Si3 0.103177 0.294250 0.740368
Si Si4 0.362569 0.408225 0.294482
Si Si5 0.555419 0.425380 0.923762
Si Si6 0.952130 0.705650 0.599644
Si Si7 0.719333 0.911163 0.299491
O O1 0.897363 0.476170 0.396849
O O2 0.922334 0.349799 0.304298
O O3 0.000000 0.500000 0.326435
O O4 0.986615 0.357974 0.415743
O O5 0.670999 0.970946 0.500000
O O6 0.609416 0.838997 0.434832
O O7 0.705006 0.935497 0.377145
O O8 0.103907 0.177971 0.746263
O O9 0.056366 0.313144 0.679316
O O10 0.173636 0.326462 0.724189
O O11 0.375240 0.500000 0.250000
O O12 0.389178 0.430289 0.369195
O O13 0.290553 0.379229 0.299164
O O14 0.500000 0.500000 0.904249
O O15 0.532753 0.314187 0.922914
O O16 0.578684 0.449622 0.000000
O O17 0.706859 0.000000 0.250000
#
# Coordination Sequence:
#
# PCOD8276060 Si02
#       7
#    16  16  16  16  16  16  16
#     4  10  20  32  54  85 119 152 183 222 288 347
#     4  10  20  33  54  86 119 148 184 231 284 342
#     4  10  19  34  55  82 112 147 185 236 282 338
#     4  10  23  38  58  85 109 143 197 243 283 325
#     4  10  22  40  58  78 109 150 188 233 285 337
#     4   9  20  32  53  80 112 146 188 225 280 338
#     4  10  19  36  57  81 111 147 185 232 284 339
#
# _framework density 18.925671000000001
#
# number of rings (size 3 to 8) (size 9 to 14) (size 15 to 20)
#    0.000    2.143    1.429    1.286    2.000    6.857 
#    0.000    0.000    0.000    5.143    0.000    2.000 
#    0.000    0.000    0.000    0.000    0.000    0.000 
#
# Total GULP energy -693818.568221 kJ/mol
# GULP energy per Si atom -12389.617290 kJ/mol
# Density = 1.888260 g / cm^3
# Si number density = 18.925671 Si / 1000 Ang^3
#
#
#
# Elastic Constant Matrix: (Units=GPa)
#
#
# Indices 1 2 3 4 5 6 
#
# 1 52.1504 40.7254 25.8260 0.0000 0.0000 0.0000
# 2 40.7254 108.5392 39.3307 0.0000 0.0000 0.0000
# 3 25.8260 39.3307 113.3674 0.0000 0.0000 0.0000
# 4 0.0000 0.0000 0.0000 12.6008 0.0000 0.0000
# 5 0.0000 0.0000 0.0000 0.0000 -20.8113 0.0000
# 6 0.0000 0.0000 0.0000 0.0000 0.0000 23.6186
#
#
#
# Elastic Compliance Matrix: (Units=1/GPa)
#
#
# Indices 1 2 3 4 5 6 
#
# 1 0.028063 -0.009394 -0.003134 0.000000 0.000000 0.000000
# 2 -0.009394 0.013683 -0.002607 0.000000 0.000000 0.000000
# 3 -0.003134 -0.002607 0.010439 0.000000 0.000000 0.000000
# 4 0.000000 0.000000 0.000000 0.079360 0.000000 0.000000
# 5 0.000000 0.000000 0.000000 0.000000 -0.048051 0.000000
# 6 0.000000 0.000000 0.000000 0.000000 0.000000 0.042340
#
#
# Mechanical properties :
#
#
# Convention : Reuss Voigt Hill
#
# Bulk Modulus (GPa) = 45.63009 53.98012 49.80510
# Shear Modulus (GPa) = 30.59809 14.29329 22.44569
#
# Velocity S-wave (km/s) = 4.02525 2.75113 3.44756
# Velocity P-wave (km/s) = 6.76505 6.21898 6.49776
#
# Compressibility (1/GPa) = 0.02191536
#
# Stress axis : x y z
#
# Youngs Moduli (GPa) = 35.63365 73.08486 95.79248
#
# Poissons Ratio (x) = 0.68657 0.30021
# Poissons Ratio (y) = 0.33475 0.24972
# Poissons Ratio (z) = 0.11167 0.19053
#
# Static dielectric constant tensor:
#      x y z
#    x 3.369920 0.000000 0.000000 
#    y 0.000000 3.611460 0.000000 
#    z 0.000000 0.000000 3.443840 
# 
# 
# High freq. dielectric constant tensor:
#      x y z
#    x 1.721860 0.000000 0.000000 
#    y 0.000000 1.744880 0.000000 
#    z 0.000000 0.000000 1.729540 
# 
# From -- ./inp_files/52587.got.cif
#   From: 2010.03.12/outbox.cif.g09.slc.cpg/sg66_27_cif.got.tgz:52587.got - 2010.04.10 21:57:39.
