data_PCOD8276095
_publ_section_title
;
Structure prediction by ZEFSAII (Michael W. Deem and Ramdas Pophale) SiO2 
 PCOD8276095
Probable space group: C C C M
;
_chemical_formula_sum "Si O2"
_cell_formula_units_Z 56
_cell_length_a 5.110559
_cell_length_b 30.459054
_cell_length_c 16.173715
_cell_angle_alpha 90.000000
_cell_angle_beta 90.000000
_cell_angle_gamma 90.000000
_cell_volume 2517.645643
_symmetry_space_group_name_H-M "C C C M"
_symmetry_group_IT_number 66
_symmetry_cell_setting 'orthorhombic'
loop_
_space_group_symop_operation_xyz
x,y,z
-x,-y,z
x,-y,1/2-z
-x,y,1/2-z
-x,-y,-z
x,y,-z
-x,y,1/2+z
x,-y,1/2+z
1/2+x,1/2+y,z
1/2-x,1/2-y,z
1/2+x,1/2-y,1/2-z
1/2-x,1/2+y,1/2-z
1/2-x,1/2-y,-z
1/2+x,1/2+y,-z
1/2-x,1/2+y,1/2+z
1/2+x,1/2-y,1/2+z
loop_
_atom_site_type_symbol
_atom_site_label
_atom_site_fract_x
_atom_site_fract_y
_atom_site_fract_z
Si Si1 0.882585 0.620625 0.838853
Si Si2 0.132750 0.163583 0.595028
Si Si3 0.750000 0.250000 0.192766
Si Si4 0.747332 0.980230 0.157747
O O1 0.631815 0.650698 0.856716
O O2 0.766029 0.571895 0.842628
O O3 0.000000 0.632527 0.750000
O O4 0.128379 0.628206 0.900197
O O5 0.054752 0.169739 0.500000
O O6 0.236734 0.208450 0.632962
O O7 0.500000 0.244682 0.250000
O O8 0.500000 0.000000 0.109082
O O9 0.748241 0.000000 0.250000
O O10 0.000000 0.000000 0.111097
#
# Coordination Sequence:
#
# PCOD8276095 Si02
#       4
#    16  16   8  16
#     4  12  23  41  71 104 132 174 241 289 322 396
#     4  12  27  45  68 100 146 185 214 269 360 416
#     4  12  25  48  73 104 134 170 238 288 319 396
#     4  10  19  34  59 100 128 162 224 292 336 369
#
# _framework density 22.243005
#
# number of rings (size 3 to 8) (size 9 to 14) (size 15 to 20)
#    0.000    0.571    2.857    8.143    4.000    0.000 
#    0.000    4.286    0.000   17.143    0.000    0.000 
#    0.000    0.000    0.000    0.000    0.000    0.000 
#
# Total GULP energy -347093.328902 kJ/mol
# GULP energy per Si atom -12396.190318 kJ/mol
# Density = 2.219238 g / cm^3
# Si number density = 22.243005 Si / 1000 Ang^3
#
#
#
# Elastic Constant Matrix: (Units=GPa)
#
#
# Indices 1 2 3 4 5 6 
#
# 1 220.5964 63.1336 46.7341 0.0000 0.0000 0.0000
# 2 63.1336 130.0177 61.9902 0.0000 0.0000 0.0000
# 3 46.7341 61.9902 92.1284 0.0000 0.0000 0.0000
# 4 0.0000 0.0000 0.0000 4.4941 0.0000 0.0000
# 5 0.0000 0.0000 0.0000 0.0000 23.1492 0.0000
# 6 0.0000 0.0000 0.0000 0.0000 0.0000 43.4952
#
#
#
# Elastic Compliance Matrix: (Units=1/GPa)
#
#
# Indices 1 2 3 4 5 6 
#
# 1 0.005390 -0.001934 -0.001433 0.000000 0.000000 0.000000
# 2 -0.001934 0.012018 -0.007106 0.000000 0.000000 0.000000
# 3 -0.001433 -0.007106 0.016362 0.000000 0.000000 0.000000
# 4 0.000000 0.000000 0.000000 0.222512 0.000000 0.000000
# 5 0.000000 0.000000 0.000000 0.000000 0.043198 0.000000
# 6 0.000000 0.000000 0.000000 0.000000 0.000000 0.022991
#
#
# Mechanical properties :
#
#
# Convention : Reuss Voigt Hill
#
# Bulk Modulus (GPa) = 77.96862 87.38425 82.67644
# Shear Modulus (GPa) = 14.38052 32.28668 23.33360
#
# Velocity S-wave (km/s) = 2.54543 3.81405 3.24239
# Velocity P-wave (km/s) = 6.61575 7.66599 7.16015
#
# Compressibility (1/GPa) = 0.01282567
#
# Stress axis : x y z
#
# Youngs Moduli (GPa) = 185.51882 83.20671 61.11604
#
# Poissons Ratio (x) = 0.16094 0.08757
# Poissons Ratio (y) = 0.35884 0.43426
# Poissons Ratio (z) = 0.26582 0.59123
#
# Static dielectric constant tensor:
#      x y z
#    x 2.919830 0.000000 0.000000 
#    y 0.000000 4.072530 0.000000 
#    z 0.000000 0.000000 3.687340 
# 
# 
# High freq. dielectric constant tensor:
#      x y z
#    x 1.915610 0.000000 0.000000 
#    y 0.000000 1.885840 0.000000 
#    z 0.000000 0.000000 1.841620 
# 
# From -- ./inp_files/22522.got.cif
#   From: 2010.03.12/outbox.cif.g09.slc.cpg/sg66_12_cif.got.tgz:22522.got - 2010.04.10 21:57:39.
