data_PCOD8276622
_publ_section_title
;
Structure prediction by ZEFSAII (Michael W. Deem and Ramdas Pophale) SiO2 
 PCOD8276622
Probable space group: C C C M
;
_chemical_formula_sum "Si O2"
_cell_formula_units_Z 80
_cell_length_a 28.425652
_cell_length_b 8.623747
_cell_length_c 16.460672
_cell_angle_alpha 90.000000
_cell_angle_beta 90.000000
_cell_angle_gamma 90.000000
_cell_volume 4035.097220
_symmetry_space_group_name_H-M "C C C M"
_symmetry_group_IT_number 66
_symmetry_cell_setting 'orthorhombic'
loop_
_space_group_symop_operation_xyz
x,y,z
-x,-y,z
x,-y,1/2-z
-x,y,1/2-z
-x,-y,-z
x,y,-z
-x,y,1/2+z
x,-y,1/2+z
1/2+x,1/2+y,z
1/2-x,1/2-y,z
1/2+x,1/2-y,1/2-z
1/2-x,1/2+y,1/2-z
1/2-x,1/2-y,-z
1/2+x,1/2+y,-z
1/2-x,1/2+y,1/2+z
1/2+x,1/2-y,1/2+z
loop_
_atom_site_type_symbol
_atom_site_label
_atom_site_fract_x
_atom_site_fract_y
_atom_site_fract_z
Si Si1 0.800044 0.683383 0.242230
Si Si2 0.126038 0.107845 0.673920
Si Si3 0.453779 0.800872 0.096364
Si Si4 0.348756 0.313720 0.906310
Si Si5 0.057245 0.352492 0.095848
O O1 0.800504 0.500000 0.250000
O O2 0.750000 0.750000 0.269735
O O3 0.838785 0.753757 0.302941
O O4 0.809014 0.733441 0.148761
O O5 0.077303 0.173563 0.640877
O O6 0.114685 0.000000 0.750000
O O7 0.150712 0.999630 0.605488
O O8 0.507950 0.776733 0.124617
O O9 0.437393 0.970957 0.126604
O O10 0.447749 0.781020 0.000000
O O11 0.399045 0.248969 0.873932
O O12 0.338782 0.271762 0.000000
O O13 0.055683 0.358606 0.000000
#
# Coordination Sequence:
#
# PCOD8276622 Si02
#       5
#    16  16  16  16  16
#     4  11  23  42  63  81 108 144 180 224 282 336
#     4  10  21  35  53  79 110 146 182 223 274 326
#     4   9  16  31  54  78 108 146 187 224 264 318
#     4  10  20  36  58  85 115 145 184 228 270 322
#     4   8  16  30  52  81 109 142 181 224 272 317
#
# _framework density 19.826041
#
# number of rings (size 3 to 8) (size 9 to 14) (size 15 to 20)
#    0.000    2.400    0.000    4.800    0.000    1.200 
#    0.000   11.000    0.000   15.000    0.000    0.000 
#    0.000    0.000    0.000    0.000    0.000    0.000 
#
# Total GULP energy -495941.092435 kJ/mol
# GULP energy per Si atom -12398.527311 kJ/mol
# Density = 1.978092 g / cm^3
# Si number density = 19.826041 Si / 1000 Ang^3
#
#
#
# Elastic Constant Matrix: (Units=GPa)
#
#
# Indices 1 2 3 4 5 6 
#
# 1 80.8486 41.4700 19.8888 0.0000 0.0000 0.0000
# 2 41.4700 125.7713 16.6260 0.0000 0.0000 0.0000
# 3 19.8888 16.6260 39.5038 0.0000 0.0000 0.0000
# 4 0.0000 0.0000 0.0000 21.6008 0.0000 0.0000
# 5 0.0000 0.0000 0.0000 0.0000 28.1162 0.0000
# 6 0.0000 0.0000 0.0000 0.0000 0.0000 37.7288
#
#
#
# Elastic Compliance Matrix: (Units=1/GPa)
#
#
# Indices 1 2 3 4 5 6 
#
# 1 0.016231 -0.004523 -0.006268 0.000000 0.000000 0.000000
# 2 -0.004523 0.009680 -0.001797 0.000000 0.000000 0.000000
# 3 -0.006268 -0.001797 0.029226 0.000000 0.000000 0.000000
# 4 0.000000 0.000000 0.000000 0.046295 0.000000 0.000000
# 5 0.000000 0.000000 0.000000 0.000000 0.035567 0.000000
# 6 0.000000 0.000000 0.000000 0.000000 0.000000 0.026505
#
#
# Mechanical properties :
#
#
# Convention : Reuss Voigt Hill
#
# Bulk Modulus (GPa) = 33.37684 44.67701 39.02692
# Shear Modulus (GPa) = 25.16794 28.69842 26.93318
#
# Velocity S-wave (km/s) = 3.56678 3.80875 3.68975
# Velocity P-wave (km/s) = 5.81670 6.47499 6.15465
#
# Compressibility (1/GPa) = 0.02996090
#
# Stress axis : x y z
#
# Youngs Moduli (GPa) = 61.61134 103.30753 34.21617
#
# Poissons Ratio (x) = 0.46727 0.21447
# Poissons Ratio (y) = 0.27868 0.06148
# Poissons Ratio (z) = 0.38618 0.18561
#
# Static dielectric constant tensor:
#      x y z
#    x 3.827240 0.000000 0.000000 
#    y 0.000000 3.904210 0.000000 
#    z 0.000000 0.000000 3.431000 
# 
# 
# High freq. dielectric constant tensor:
#      x y z
#    x 1.770080 0.000000 0.000000 
#    y 0.000000 1.779790 0.000000 
#    z 0.000000 0.000000 1.757410 
# 
# From -- ./inp_files/44064.got.cif
#   From: 2010.03.12/outbox.cif.g09.slc.cpg/sg66_23_cif.got.tgz:44064.got - 2010.04.10 21:57:39.
