data_PCOD8276647
_publ_section_title
;
Structure prediction by ZEFSAII (Michael W. Deem and Ramdas Pophale) SiO2 
 PCOD8276647
Probable space group: C C C M
;
_chemical_formula_sum "Si O2"
_cell_formula_units_Z 116
_cell_length_a 31.014527
_cell_length_b 22.080226
_cell_length_c 8.731046
_cell_angle_alpha 90.000000
_cell_angle_beta 90.000000
_cell_angle_gamma 90.000000
_cell_volume 5979.088101
_symmetry_space_group_name_H-M "C C C M"
_symmetry_group_IT_number 66
_symmetry_cell_setting 'orthorhombic'
loop_
_space_group_symop_operation_xyz
x,y,z
-x,-y,z
x,-y,1/2-z
-x,y,1/2-z
-x,-y,-z
x,y,-z
-x,y,1/2+z
x,-y,1/2+z
1/2+x,1/2+y,z
1/2-x,1/2-y,z
1/2+x,1/2-y,1/2-z
1/2-x,1/2+y,1/2-z
1/2-x,1/2-y,-z
1/2+x,1/2+y,-z
1/2-x,1/2+y,1/2+z
1/2+x,1/2-y,1/2+z
loop_
_atom_site_type_symbol
_atom_site_label
_atom_site_fract_x
_atom_site_fract_y
_atom_site_fract_z
Si Si1 0.546033 0.064610 0.317628
Si Si2 0.658771 0.561665 0.819043
Si Si3 0.899727 0.670248 0.321229
Si Si4 0.803419 0.298029 0.822445
Si Si5 0.217006 0.827237 0.319129
Si Si6 0.432931 0.403318 0.830494
Si Si7 0.955486 0.227655 0.317409
Si Si8 0.000000 0.000000 0.250000
O O1 0.500000 0.084617 0.250000
O O2 0.542864 0.060647 0.500000
O O3 0.581353 0.113274 0.268726
O O4 0.560191 0.000000 0.250000
O O5 0.677375 0.500000 0.750000
O O6 0.690385 0.614580 0.765412
O O7 0.610676 0.573358 0.748507
O O8 0.657152 0.555064 0.000000
O O9 0.911943 0.667011 0.500000
O O10 0.848507 0.668336 0.295641
O O11 0.916900 0.732480 0.249087
O O12 0.805660 0.230264 0.757481
O O13 0.766240 0.335492 0.735570
O O14 0.791458 0.294585 0.000000
O O15 0.215876 0.818302 0.500000
O O16 0.449983 0.341342 0.753406
O O17 0.469153 0.455562 0.845703
O O18 0.419061 0.383898 0.000000
O O19 0.956587 0.232323 0.500000
O O20 0.000000 0.253580 0.250000
#
# Coordination Sequence:
#
# PCOD8276647 Si02
#       8
#    16  16  16  16  16  16  16   4
#     4  11  22  39  63  89 119 156 193 233 276 336
#     4  10  21  37  55  80 109 145 186 231 279 331
#     4  11  23  39  58  86 118 151 189 235 287 342
#     4  10  21  37  60  86 113 143 183 231 283 338
#     4  10  20  36  60  84 112 145 184 229 285 347
#     4  10  21  35  53  77 110 150 196 240 285 334
#     4  11  22  37  55  80 114 153 194 242 289 338
#     4  12  18  36  56  74 108 156 196 244 282 328
#
# _framework density 19.400953000000001
#
# number of rings (size 3 to 8) (size 9 to 14) (size 15 to 20)
#    0.000    1.517    1.379    5.586    0.000    4.414 
#    0.000    2.069    0.000    1.655    0.000    0.000 
#    0.000    0.000    0.000    0.000    0.000    0.000 
#
# Total GULP energy -719198.167643 kJ/mol
# GULP energy per Si atom -12399.968408 kJ/mol
# Density = 1.935680 g / cm^3
# Si number density = 19.400953 Si / 1000 Ang^3
#
#
#
# Elastic Constant Matrix: (Units=GPa)
#
#
# Indices 1 2 3 4 5 6 
#
# 1 48.2830 27.1588 -57.8955 0.0000 0.0000 0.0000
# 2 27.1588 100.3553 -20.9291 0.0000 0.0000 0.0000
# 3 -57.8955 -20.9291 -31.3796 0.0000 0.0000 0.0000
# 4 0.0000 0.0000 0.0000 28.7299 0.0000 0.0000
# 5 0.0000 0.0000 0.0000 0.0000 27.6000 0.0000
# 6 0.0000 0.0000 0.0000 0.0000 0.0000 309.1371
#
#
#
# Elastic Compliance Matrix: (Units=1/GPa)
#
#
# Indices 1 2 3 4 5 6 
#
# 1 0.008528 -0.004907 -0.012462 0.000000 0.000000 0.000000
# 2 -0.004907 0.011571 0.001336 0.000000 0.000000 0.000000
# 3 -0.012462 0.001336 -0.009766 0.000000 0.000000 0.000000
# 4 0.000000 0.000000 0.000000 0.034807 0.000000 0.000000
# 5 0.000000 0.000000 0.000000 0.000000 0.036232 0.000000
# 6 0.000000 0.000000 0.000000 0.000000 0.000000 0.003235
#
#
# Mechanical properties :
#
#
# Convention : Reuss Voigt Hill
#
# Bulk Modulus (GPa) = -46.01262 1.54746 -22.23258
# Shear Modulus (GPa) = 45.69187 84.35504 65.02345
#
# Velocity S-wave (km/s) = 4.85824 6.60108 5.79555
# Velocity P-wave (km/s) = 2.77521 7.67452 5.77062
#
# Compressibility (1/GPa) = -0.02173317
#
# Stress axis : x y z
#
# Youngs Moduli (GPa) = 117.25669 86.42202 -102.39302
#
# Poissons Ratio (x) = 0.42407 -1.27602
# Poissons Ratio (y) = 0.57537 0.13678
# Poissons Ratio (z) = 1.46125 -0.11544
#
# Static dielectric constant tensor:
#      x y z
#    x 3.612220 0.000000 0.000000 
#    y 0.000000 3.571210 0.000000 
#    z 0.000000 0.000000 3.474580 
# 
# 
# High freq. dielectric constant tensor:
#      x y z
#    x 1.758540 0.000000 0.000000 
#    y 0.000000 1.755900 0.000000 
#    z 0.000000 0.000000 1.755020 
# 
# From -- ./inp_files/10630.got.cif
#   From: 2010.03.12/outbox.cif.g09.slc.cpg/sg66_6_cif.got.tgz:10630.got - 2010.04.10 21:57:39.
