data_PCOD8276255
_publ_section_title
;
Structure prediction by ZEFSAII (Michael W. Deem and Ramdas Pophale) SiO2 
 PCOD8276255
Probable space group: C C C M
;
_chemical_formula_sum "Si O2"
_cell_formula_units_Z 96
_cell_length_a 27.372835
_cell_length_b 8.836713
_cell_length_c 19.882103
_cell_angle_alpha 90.000000
_cell_angle_beta 90.000000
_cell_angle_gamma 90.000000
_cell_volume 4809.200117
_symmetry_space_group_name_H-M "C C C M"
_symmetry_group_IT_number 66
_symmetry_cell_setting 'orthorhombic'
loop_
_space_group_symop_operation_xyz
x,y,z
-x,-y,z
x,-y,1/2-z
-x,y,1/2-z
-x,-y,-z
x,y,-z
-x,y,1/2+z
x,-y,1/2+z
1/2+x,1/2+y,z
1/2-x,1/2-y,z
1/2+x,1/2-y,1/2-z
1/2-x,1/2+y,1/2-z
1/2-x,1/2-y,-z
1/2+x,1/2+y,-z
1/2-x,1/2+y,1/2+z
1/2+x,1/2-y,1/2+z
loop_
_atom_site_type_symbol
_atom_site_label
_atom_site_fract_x
_atom_site_fract_y
_atom_site_fract_z
Si Si1 0.720838 0.098943 0.192377
Si Si2 0.872208 0.749514 0.257450
Si Si3 0.362577 0.483620 0.142347
Si Si4 0.030113 0.657253 0.694506
Si Si5 0.458639 0.379436 0.076815
Si Si6 0.240453 0.927136 0.422863
O O1 0.750000 0.250000 0.179620
O O2 0.667194 0.127254 0.220339
O O3 0.748751 0.000000 0.250000
O O4 0.718240 0.009015 0.121980
O O5 0.854426 0.850838 0.195607
O O6 0.917389 0.648444 0.231279
O O7 0.879452 0.860438 0.321750
O O8 0.405372 0.447799 0.089727
O O9 0.311989 0.490828 0.101528
O O10 0.032564 0.732381 0.622065
O O11 0.000000 0.500000 0.686110
O O12 0.000000 0.756562 0.750000
O O13 0.500000 0.500000 0.094931
O O14 0.462416 0.326247 0.000000
O O15 0.247608 0.974642 0.500000
O O16 0.250000 0.750000 0.413421
#
# Coordination Sequence:
#
# PCOD8276255 Si02
#       6
#    16  16  16  16  16  16
#     4  12  23  38  62  92 125 162 214 262 316 378
#     4  10  21  36  62  93 123 163 216 264 313 378
#     4  10  19  39  63  90 122 167 217 262 313 379
#     4  10  22  39  60  89 128 160 199 255 319 366
#     4  10  21  38  63  91 120 161 209 256 308 373
#     4  11  24  42  62  89 130 172 211 264 326 382
#
# _framework density 19.961739999999999
#
# number of rings (size 3 to 8) (size 9 to 14) (size 15 to 20)
#    0.000    1.500    1.667    4.000    2.333    2.333 
#    0.000    0.000    0.000    1.000    0.000    0.000 
#    0.000    0.000    0.000    0.000    0.000    0.000 
#
# Total GULP energy -594762.924009 kJ/mol
# GULP energy per Si atom -12390.894250 kJ/mol
# Density = 1.991631 g / cm^3
# Si number density = 19.961740 Si / 1000 Ang^3
#
#
#
# Elastic Constant Matrix: (Units=GPa)
#
#
# Indices 1 2 3 4 5 6 
#
# 1 113.1748 41.8792 52.4348 0.0000 0.0000 0.0000
# 2 41.8792 100.3963 68.7501 0.0000 0.0000 0.0000
# 3 52.4348 68.7501 147.3832 0.0000 0.0000 0.0000
# 4 0.0000 0.0000 0.0000 4.7096 0.0000 0.0000
# 5 0.0000 0.0000 0.0000 0.0000 36.2201 0.0000
# 6 0.0000 0.0000 0.0000 0.0000 0.0000 33.4063
#
#
#
# Elastic Compliance Matrix: (Units=1/GPa)
#
#
# Indices 1 2 3 4 5 6 
#
# 1 0.011101 -0.002830 -0.002629 0.000000 0.000000 0.000000
# 2 -0.002830 0.015357 -0.006157 0.000000 0.000000 0.000000
# 3 -0.002629 -0.006157 0.010592 0.000000 0.000000 0.000000
# 4 0.000000 0.000000 0.000000 0.212334 0.000000 0.000000
# 5 0.000000 0.000000 0.000000 0.000000 0.027609 0.000000
# 6 0.000000 0.000000 0.000000 0.000000 0.000000 0.029934
#
#
# Mechanical properties :
#
#
# Convention : Reuss Voigt Hill
#
# Bulk Modulus (GPa) = 72.36789 76.34251 74.35520
# Shear Modulus (GPa) = 14.93573 28.05987 21.49780
#
# Velocity S-wave (km/s) = 2.73832 3.75331 3.28525
# Velocity P-wave (km/s) = 6.80661 7.55715 7.19168
#
# Compressibility (1/GPa) = 0.01381828
#
# Stress axis : x y z
#
# Youngs Moduli (GPa) = 90.07870 65.11591 94.40703
#
# Poissons Ratio (x) = 0.18430 0.24823
# Poissons Ratio (y) = 0.25495 0.58124
# Poissons Ratio (z) = 0.23684 0.40090
#
# Static dielectric constant tensor:
#      x y z
#    x 4.659290 0.000000 0.000000 
#    y 0.000000 3.131990 0.000000 
#    z 0.000000 0.000000 3.797920 
# 
# 
# High freq. dielectric constant tensor:
#      x y z
#    x 1.785100 0.000000 0.000000 
#    y 0.000000 1.776960 0.000000 
#    z 0.000000 0.000000 1.782700 
# 
# From -- ./inp_files/52975.got.cif
#   From: 2010.03.12/outbox.cif.g09.slc.cpg/sg66_27_cif.got.tgz:52975.got - 2010.04.10 21:57:39.
