data_PCOD8276935
_publ_section_title
;
Structure prediction by ZEFSAII (Michael W. Deem and Ramdas Pophale) SiO2 
 PCOD8276935
Probable space group: C C C M
;
_chemical_formula_sum "Si O2"
_cell_formula_units_Z 64
_cell_length_a 13.987394
_cell_length_b 13.849240
_cell_length_c 17.029576
_cell_angle_alpha 90.000000
_cell_angle_beta 90.000000
_cell_angle_gamma 90.000000
_cell_volume 3298.880508
_symmetry_space_group_name_H-M "C C C M"
_symmetry_group_IT_number 66
_symmetry_cell_setting 'orthorhombic'
loop_
_space_group_symop_operation_xyz
x,y,z
-x,-y,z
x,-y,1/2-z
-x,y,1/2-z
-x,-y,-z
x,y,-z
-x,y,1/2+z
x,-y,1/2+z
1/2+x,1/2+y,z
1/2-x,1/2-y,z
1/2+x,1/2-y,1/2-z
1/2-x,1/2+y,1/2-z
1/2-x,1/2-y,-z
1/2+x,1/2+y,-z
1/2-x,1/2+y,1/2+z
1/2+x,1/2-y,1/2+z
loop_
_atom_site_type_symbol
_atom_site_label
_atom_site_fract_x
_atom_site_fract_y
_atom_site_fract_z
Si Si1 0.970765 0.695311 0.660787
Si Si2 0.169223 0.462795 0.593357
Si Si3 0.331342 0.179450 0.908300
Si Si4 0.830637 0.828651 0.585691
O O1 0.916033 0.598802 0.632656
O O2 0.906110 0.791143 0.649834
O O3 0.000000 0.681539 0.750000
O O4 0.063719 0.719366 0.609121
O O5 0.151259 0.458586 0.500000
O O6 0.170586 0.571220 0.627588
O O7 0.275188 0.423870 0.615497
O O8 0.250000 0.250000 0.870634
O O9 0.311600 0.172581 0.000000
O O10 0.879899 0.846188 0.500000
O O11 0.750000 0.750000 0.572755
#
# Coordination Sequence:
#
# PCOD8276935 Si02
#       4
#    16  16  16  16
#     4  11  21  32  51  80 108 137 169 209 262 316
#     4   9  18  35  58  78  98 133 180 221 256 302
#     4  10  21  36  53  76 106 137 172 218 266 306
#     4   8  15  31  55  77  97 128 174 219 252 294
#
# _framework density 19.400521000000001
#
# number of rings (size 3 to 8) (size 9 to 14) (size 15 to 20)
#    0.000    2.500    0.000    4.500    0.000    7.000 
#    0.000    1.250    0.000    7.500    0.000    0.000 
#    0.000    0.000    0.000    0.000    0.000    0.000 
#
# Total GULP energy -396547.419616 kJ/mol
# GULP energy per Si atom -12392.106863 kJ/mol
# Density = 1.935636 g / cm^3
# Si number density = 19.400521 Si / 1000 Ang^3
#
#
#
# Elastic Constant Matrix: (Units=GPa)
#
#
# Indices 1 2 3 4 5 6 
#
# 1 134.9641 75.9971 37.8912 0.0000 0.0000 0.0000
# 2 75.9971 68.1401 31.5165 0.0000 0.0000 0.0000
# 3 37.8912 31.5165 60.0664 0.0000 0.0000 0.0000
# 4 0.0000 0.0000 0.0000 12.3109 0.0000 0.0000
# 5 0.0000 0.0000 0.0000 0.0000 37.7417 0.0000
# 6 0.0000 0.0000 0.0000 0.0000 0.0000 31.4386
#
#
#
# Elastic Compliance Matrix: (Units=1/GPa)
#
#
# Indices 1 2 3 4 5 6 
#
# 1 0.019984 -0.021732 -0.001204 0.000000 0.000000 0.000000
# 2 -0.021732 0.043011 -0.008858 0.000000 0.000000 0.000000
# 3 -0.001204 -0.008858 0.022056 0.000000 0.000000 0.000000
# 4 0.000000 0.000000 0.000000 0.081229 0.000000 0.000000
# 5 0.000000 0.000000 0.000000 0.000000 0.026496 0.000000
# 6 0.000000 0.000000 0.000000 0.000000 0.000000 0.031808
#
#
# Mechanical properties :
#
#
# Convention : Reuss Voigt Hill
#
# Bulk Modulus (GPa) = 46.59389 61.55335 54.07362
# Shear Modulus (GPa) = 16.93041 24.14929 20.53985
#
# Velocity S-wave (km/s) = 2.95732 3.53196 3.25734
# Velocity P-wave (km/s) = 5.97745 6.95914 6.48689
#
# Compressibility (1/GPa) = 0.02146204
#
# Stress axis : x y z
#
# Youngs Moduli (GPa) = 50.03896 23.25009 45.33956
#
# Poissons Ratio (x) = 0.50527 0.05459
# Poissons Ratio (y) = 1.08744 0.40164
# Poissons Ratio (z) = 0.06025 0.20596
#
# Static dielectric constant tensor:
#      x y z
#    x 3.887480 0.000000 0.000000 
#    y 0.000000 4.090010 0.000000 
#    z 0.000000 0.000000 3.204740 
# 
# 
# High freq. dielectric constant tensor:
#      x y z
#    x 1.752890 0.000000 0.000000 
#    y 0.000000 1.744910 0.000000 
#    z 0.000000 0.000000 1.729770 
# 
# From -- ./inp_files/27706.got.cif
#   From: 2010.03.12/outbox.cif.g09.slc.cpg/sg66_14_cif.got.tgz:27706.got - 2010.04.10 21:57:39.
