data_PCOD8276296
_publ_section_title
;
Structure prediction by ZEFSAII (Michael W. Deem and Ramdas Pophale) SiO2 
 PCOD8276296
Probable space group: C C C M
;
_chemical_formula_sum "Si O2"
_cell_formula_units_Z 80
_cell_length_a 5.013479
_cell_length_b 34.306797
_cell_length_c 23.986829
_cell_angle_alpha 90.000000
_cell_angle_beta 90.000000
_cell_angle_gamma 90.000000
_cell_volume 4125.648387
_symmetry_space_group_name_H-M "C C C M"
_symmetry_group_IT_number 66
_symmetry_cell_setting 'orthorhombic'
loop_
_space_group_symop_operation_xyz
x,y,z
-x,-y,z
x,-y,1/2-z
-x,y,1/2-z
-x,-y,-z
x,y,-z
-x,y,1/2+z
x,-y,1/2+z
1/2+x,1/2+y,z
1/2-x,1/2-y,z
1/2+x,1/2-y,1/2-z
1/2-x,1/2+y,1/2-z
1/2-x,1/2-y,-z
1/2+x,1/2+y,-z
1/2-x,1/2+y,1/2+z
1/2+x,1/2-y,1/2+z
loop_
_atom_site_type_symbol
_atom_site_label
_atom_site_fract_x
_atom_site_fract_y
_atom_site_fract_z
Si Si1 0.746449 0.204821 0.787354
Si Si2 0.084086 0.642315 0.871652
Si Si3 0.092922 0.959027 0.623638
Si Si4 0.083966 0.120041 0.064219
Si Si5 0.586553 0.936729 0.687470
O O1 0.500000 0.193810 0.750000
O O2 0.750000 0.250000 0.804344
O O3 0.705541 0.181324 0.844471
O O4 0.000000 0.192623 0.750000
O O5 0.283410 0.631821 0.921569
O O6 0.063356 0.609304 0.824354
O O7 0.790935 0.646005 0.899208
O O8 0.104664 0.926129 0.576164
O O9 0.388254 0.962017 0.649016
O O10 0.889497 0.949008 0.674274
O O11 0.000000 0.000000 0.596388
O O12 0.143303 0.128091 0.000000
O O13 0.500000 0.945426 0.750000
#
# Coordination Sequence:
#
# PCOD8276296 Si02
#       5
#    16  16  16  16  16
#     4  10  20  34  56  86 116 144 171 205 257 316
#     4  10  20  35  55  78 106 136 175 218 255 311
#     4  10  21  34  49  73 100 130 173 219 263 314
#     4  10  21  37  56  75  98 136 181 225 269 305
#     4  10  20  32  49  73 102 137 169 203 257 320
#
# _framework density 19.390892999999998
#
# number of rings (size 3 to 8) (size 9 to 14) (size 15 to 20)
#    0.000    2.000    0.000    3.600    0.000    6.000 
#    0.000    0.000    0.000   10.800    0.000    0.000 
#    0.000    0.000    0.000    0.000    0.000    0.000 
#
# Total GULP energy -495918.878049 kJ/mol
# GULP energy per Si atom -12397.971951 kJ/mol
# Density = 1.934676 g / cm^3
# Si number density = 19.390893 Si / 1000 Ang^3
#
#
#
# Elastic Constant Matrix: (Units=GPa)
#
#
# Indices 1 2 3 4 5 6 
#
# 1 102.0950 18.6482 14.6606 0.0000 0.0000 0.0000
# 2 18.6482 77.8525 31.7384 0.0000 0.0000 0.0000
# 3 14.6606 31.7384 77.3256 0.0000 0.0000 0.0000
# 4 0.0000 0.0000 0.0000 15.2100 0.0000 0.0000
# 5 0.0000 0.0000 0.0000 0.0000 4.5347 0.0000
# 6 0.0000 0.0000 0.0000 0.0000 0.0000 29.8875
#
#
#
# Elastic Compliance Matrix: (Units=1/GPa)
#
#
# Indices 1 2 3 4 5 6 
#
# 1 0.010325 -0.002012 -0.001132 0.000000 0.000000 0.000000
# 2 -0.002012 0.015818 -0.006111 0.000000 0.000000 0.000000
# 3 -0.001132 -0.006111 0.015655 0.000000 0.000000 0.000000
# 4 0.000000 0.000000 0.000000 0.065746 0.000000 0.000000
# 5 0.000000 0.000000 0.000000 0.000000 0.220523 0.000000
# 6 0.000000 0.000000 0.000000 0.000000 0.000000 0.033459
#
#
# Mechanical properties :
#
#
# Convention : Reuss Voigt Hill
#
# Bulk Modulus (GPa) = 42.93921 43.04082 42.99001
# Shear Modulus (GPa) = 12.89329 22.74149 17.81739
#
# Velocity S-wave (km/s) = 2.58139 3.42832 3.03455
# Velocity P-wave (km/s) = 5.57466 6.15758 5.87336
#
# Compressibility (1/GPa) = 0.02328874
#
# Stress axis : x y z
#
# Youngs Moduli (GPa) = 96.85437 63.21914 63.87645
#
# Poissons Ratio (x) = 0.12718 0.07230
# Poissons Ratio (y) = 0.19484 0.39036
# Poissons Ratio (z) = 0.10962 0.38634
#
# Static dielectric constant tensor:
#      x y z
#    x 3.779150 0.000000 0.000000 
#    y 0.000000 4.647310 0.000000 
#    z 0.000000 0.000000 3.104060 
# 
# 
# High freq. dielectric constant tensor:
#      x y z
#    x 1.780180 0.000000 0.000000 
#    y 0.000000 1.740580 0.000000 
#    z 0.000000 0.000000 1.726530 
# 
# From -- ./inp_files/54346.got.cif
#   From: 2010.03.12/outbox.cif.g09.slc.cpg/sg66_28_cif.got.tgz:54346.got - 2010.04.10 21:57:39.
