data_PCOD8276018
_publ_section_title
;
Structure prediction by ZEFSAII (Michael W. Deem and Ramdas Pophale) SiO2 
 PCOD8276018
Probable space group: C C C M
;
_chemical_formula_sum "Si O2"
_cell_formula_units_Z 112
_cell_length_a 15.229797
_cell_length_b 23.004415
_cell_length_c 13.447809
_cell_angle_alpha 90.000000
_cell_angle_beta 90.000000
_cell_angle_gamma 90.000000
_cell_volume 4711.474451
_symmetry_space_group_name_H-M "C C C M"
_symmetry_group_IT_number 66
_symmetry_cell_setting 'orthorhombic'
loop_
_space_group_symop_operation_xyz
x,y,z
-x,-y,z
x,-y,1/2-z
-x,y,1/2-z
-x,-y,-z
x,y,-z
-x,y,1/2+z
x,-y,1/2+z
1/2+x,1/2+y,z
1/2-x,1/2-y,z
1/2+x,1/2-y,1/2-z
1/2-x,1/2+y,1/2-z
1/2-x,1/2-y,-z
1/2+x,1/2+y,-z
1/2-x,1/2+y,1/2+z
1/2+x,1/2-y,1/2+z
loop_
_atom_site_type_symbol
_atom_site_label
_atom_site_fract_x
_atom_site_fract_y
_atom_site_fract_z
Si Si1 0.349314 0.255158 0.707689
Si Si2 0.285671 0.443047 0.617839
Si Si3 0.630915 0.334890 0.617830
Si Si4 0.939362 0.863847 0.383585
Si Si5 0.123513 0.363068 0.616174
Si Si6 0.732817 0.069025 0.617705
Si Si7 0.039878 0.442311 0.114525
O O1 0.250000 0.250000 0.671774
O O2 0.357518 0.273709 0.824132
O O3 0.397612 0.301765 0.639224
O O4 0.389641 0.192396 0.686727
O O5 0.284916 0.443773 0.500000
O O6 0.376863 0.415332 0.659381
O O7 0.203124 0.404171 0.654668
O O8 0.274737 0.508809 0.658093
O O9 0.631490 0.321963 0.500000
O O10 0.540081 0.365174 0.655698
O O11 0.708739 0.377043 0.654947
O O12 0.944540 0.872266 0.500000
O O13 0.138831 0.346694 0.500000
O O14 0.029614 0.392261 0.630709
O O15 0.734531 0.069619 0.500000
O O16 0.634010 0.075692 0.661250
O O17 0.000000 0.500000 0.165369
O O18 0.059016 0.456631 0.000000
#
# Coordination Sequence:
#
# PCOD8276018 Si02
#       7
#    16  16  16  16  16  16  16
#     4  12  24  41  66  92 127 171 226 281 327 382
#     4   9  16  30  61  99 131 166 210 264 331 401
#     4  10  24  45  63  87 132 182 225 270 322 390
#     4  10  21  40  66  96 131 169 211 267 331 393
#     4  10  19  33  59 101 141 171 209 266 340 403
#     4   9  17  34  61  94 133 175 218 262 323 403
#     4   9  15  28  56  96 140 176 205 253 326 405
#
# _framework density 23.771751999999999
#
# number of rings (size 3 to 8) (size 9 to 14) (size 15 to 20)
#    0.000    2.143    2.857    0.857    0.000    1.429 
#    5.143    3.571    0.000    1.714    0.000    1.000 
#    0.000    0.571    0.000    0.000    0.000    0.143 
#
# Total GULP energy -694149.823145 kJ/mol
# GULP energy per Si atom -12395.532556 kJ/mol
# Density = 2.371765 g / cm^3
# Si number density = 23.771752 Si / 1000 Ang^3
#
#
#
# Elastic Constant Matrix: (Units=GPa)
#
#
# Indices 1 2 3 4 5 6 
#
# 1 172.1376 43.7280 33.6832 0.0000 0.0000 0.0000
# 2 43.7280 127.2598 33.9504 0.0000 0.0000 0.0000
# 3 33.6832 33.9504 41.7451 0.0000 0.0000 0.0000
# 4 0.0000 0.0000 0.000032819.8120 0.0000 0.0000
# 5 0.0000 0.0000 0.0000 0.0000 19.1199 0.0000
# 6 0.0000 0.0000 0.0000 0.0000 0.0000 29.9162
#
#
#
# Elastic Compliance Matrix: (Units=1/GPa)
#
#
# Indices 1 2 3 4 5 6 
#
# 1 0.007028 -0.001152 -0.004734 0.000000 0.000000 0.000000
# 2 -0.001152 0.010224 -0.007385 0.000000 0.000000 0.000000
# 3 -0.004734 -0.007385 0.033781 0.000000 0.000000 0.000000
# 4 0.000000 0.000000 0.000000 0.000030 0.000000 0.000000
# 5 0.000000 0.000000 0.000000 0.000000 0.052301 0.000000
# 6 0.000000 0.000000 0.000000 0.000000 0.000000 0.033427
#
#
# Mechanical properties :
#
#
# Convention : Reuss Voigt Hill
#
# Bulk Modulus (GPa) = 40.83232 62.65175 51.74203
# Shear Modulus (GPa) = 29.15473 6589.08835 3309.12154
#
# Velocity S-wave (km/s) = 3.50586 52.70514 37.35052
# Velocity P-wave (km/s) = 5.79674 61.07527 43.38082
#
# Compressibility (1/GPa) = 0.02449040
#
# Stress axis : x y z
#
# Youngs Moduli (GPa) = 142.28187 97.80819 29.60233
#
# Poissons Ratio (x) = 0.11268 0.14014
# Poissons Ratio (y) = 0.16392 0.21863
# Poissons Ratio (z) = 0.67357 0.72236
#
# Static dielectric constant tensor:
#      x y z
#    x 4.759160 0.000000 0.000000 
#    y 0.000000 4.262120 0.000000 
#    z 0.000000 0.000000 4.176330 
# 
# 
# High freq. dielectric constant tensor:
#      x y z
#    x 1.955730 0.000000 0.000000 
#    y 0.000000 1.926160 0.000000 
#    z 0.000000 0.000000 1.952430 
# 
# From -- ./inp_files/28677.got.cif
#   From: 2010.03.12/outbox.cif.g09.slc.cpg/sg66_15_cif.got.tgz:28677.got - 2010.04.10 21:57:39.
