data_PCOD8276787
_publ_section_title
;
Structure prediction by ZEFSAII (Michael W. Deem and Ramdas Pophale) SiO2 
 PCOD8276787
Probable space group: C C C M
;
_chemical_formula_sum "Si O2"
_cell_formula_units_Z 88
_cell_length_a 15.382570
_cell_length_b 10.746601
_cell_length_c 27.012079
_cell_angle_alpha 90.000000
_cell_angle_beta 90.000000
_cell_angle_gamma 90.000000
_cell_volume 4465.376022
_symmetry_space_group_name_H-M "C C C M"
_symmetry_group_IT_number 66
_symmetry_cell_setting 'orthorhombic'
loop_
_space_group_symop_operation_xyz
x,y,z
-x,-y,z
x,-y,1/2-z
-x,y,1/2-z
-x,-y,-z
x,y,-z
-x,y,1/2+z
x,-y,1/2+z
1/2+x,1/2+y,z
1/2-x,1/2-y,z
1/2+x,1/2-y,1/2-z
1/2-x,1/2+y,1/2-z
1/2-x,1/2-y,-z
1/2+x,1/2+y,-z
1/2-x,1/2+y,1/2+z
1/2+x,1/2-y,1/2+z
loop_
_atom_site_type_symbol
_atom_site_label
_atom_site_fract_x
_atom_site_fract_y
_atom_site_fract_z
Si Si1 0.750000 0.250000 0.612645
Si Si2 0.877085 0.912251 0.942492
Si Si3 0.063958 0.182306 0.441861
Si Si4 0.805274 0.633420 0.740965
Si Si5 0.908511 0.633965 0.833381
Si Si6 0.904916 0.358041 0.856799
O O1 0.786433 0.136384 0.579944
O O2 0.831270 0.283888 0.646019
O O3 0.959634 0.821478 0.931832
O O4 0.896216 0.051440 0.923472
O O5 0.861657 0.920622 0.000000
O O6 0.082102 0.208255 0.500000
O O7 0.111998 0.288973 0.409254
O O8 0.754582 0.500000 0.750000
O O9 0.750000 0.750000 0.760638
O O10 0.891092 0.615264 0.774961
O O11 0.830807 0.665939 0.684380
O O12 0.909909 0.505709 0.864498
O O13 0.002738 0.697204 0.837748
#
# Coordination Sequence:
#
# PCOD8276787 Si02
#       6
#     8  16  16  16  16  16
#     4  12  19  34  60  84 118 148 191 244 282 348
#     4   9  19  34  56  84 116 157 192 237 297 345
#     4   9  18  36  57  82 117 153 196 241 288 345
#     4  10  21  38  60  85 119 153 193 242 293 351
#     4  10  21  36  58  85 117 150 192 236 293 339
#     4  10  20  38  59  84 112 158 194 230 287 354
#
# _framework density 19.707187000000001
#
# number of rings (size 3 to 8) (size 9 to 14) (size 15 to 20)
#    0.000    2.182    2.727    1.909    0.000    5.091 
#    0.000    3.636    0.000    3.818    0.000    0.000 
#    0.000    0.000    0.000    0.000    0.000    0.000 
#
# Total GULP energy -545147.905968 kJ/mol
# GULP energy per Si atom -12389.725136 kJ/mol
# Density = 1.966233 g / cm^3
# Si number density = 19.707187 Si / 1000 Ang^3
#
#
#
# Elastic Constant Matrix: (Units=GPa)
#
#
# Indices 1 2 3 4 5 6 
#
# 1 64.6684 29.3180 13.7352 0.0000 0.0000 0.0000
# 2 29.3180 95.2832 46.6291 0.0000 0.0000 0.0000
# 3 13.7352 46.6291 84.9650 0.0000 0.0000 0.0000
# 4 0.0000 0.0000 0.0000 33.0393 0.0000 0.0000
# 5 0.0000 0.0000 0.0000 0.0000 23.4183 0.0000
# 6 0.0000 0.0000 0.0000 0.0000 0.0000 33.5000
#
#
#
# Elastic Compliance Matrix: (Units=1/GPa)
#
#
# Indices 1 2 3 4 5 6 
#
# 1 0.017972 -0.005617 0.000177 0.000000 0.000000 0.000000
# 2 -0.005617 0.016104 -0.007930 0.000000 0.000000 0.000000
# 3 0.000177 -0.007930 0.016093 0.000000 0.000000 0.000000
# 4 0.000000 0.000000 0.000000 0.030267 0.000000 0.000000
# 5 0.000000 0.000000 0.000000 0.000000 0.042702 0.000000
# 6 0.000000 0.000000 0.000000 0.000000 0.000000 0.029851
#
#
# Mechanical properties :
#
#
# Convention : Reuss Voigt Hill
#
# Bulk Modulus (GPa) = 42.68005 47.14236 44.91120
# Shear Modulus (GPa) = 26.66136 28.34048 27.50092
#
# Velocity S-wave (km/s) = 3.68213 3.79631 3.73966
# Velocity P-wave (km/s) = 6.30727 6.57186 6.44092
#
# Compressibility (1/GPa) = 0.02343015
#
# Stress axis : x y z
#
# Youngs Moduli (GPa) = 55.64137 62.09671 62.13918
#
# Poissons Ratio (x) = 0.34877 -0.01100
# Poissons Ratio (y) = 0.31251 0.49276
# Poissons Ratio (z) = -0.00985 0.49242
#
# Static dielectric constant tensor:
#      x y z
#    x 3.609810 0.000000 0.000000 
#    y 0.000000 3.621220 0.000000 
#    z 0.000000 0.000000 3.525550 
# 
# 
# High freq. dielectric constant tensor:
#      x y z
#    x 1.752420 0.000000 0.000000 
#    y 0.000000 1.758340 0.000000 
#    z 0.000000 0.000000 1.767660 
# 
# From -- ./inp_files/57999.got.cif
#   From: 2010.03.12/outbox.cif.g09.slc.cpg/sg66_29_cif.got.tgz:57999.got - 2010.04.10 21:57:39.
