data_PCOD8276130
_publ_section_title
;
Structure prediction by ZEFSAII (Michael W. Deem and Ramdas Pophale) SiO2 
 PCOD8276130
Probable space group: C C C M
;
_chemical_formula_sum "Si O2"
_cell_formula_units_Z 96
_cell_length_a 20.200915
_cell_length_b 28.725359
_cell_length_c 8.694757
_cell_angle_alpha 90.000000
_cell_angle_beta 90.000000
_cell_angle_gamma 90.000000
_cell_volume 5045.380859
_symmetry_space_group_name_H-M "C C C M"
_symmetry_group_IT_number 66
_symmetry_cell_setting 'orthorhombic'
loop_
_space_group_symop_operation_xyz
x,y,z
-x,-y,z
x,-y,1/2-z
-x,y,1/2-z
-x,-y,-z
x,y,-z
-x,y,1/2+z
x,-y,1/2+z
1/2+x,1/2+y,z
1/2-x,1/2-y,z
1/2+x,1/2-y,1/2-z
1/2-x,1/2+y,1/2-z
1/2-x,1/2-y,-z
1/2+x,1/2+y,-z
1/2-x,1/2+y,1/2+z
1/2+x,1/2-y,1/2+z
loop_
_atom_site_type_symbol
_atom_site_label
_atom_site_fract_x
_atom_site_fract_y
_atom_site_fract_z
Si Si1 0.824094 0.448885 0.317203
Si Si2 0.563779 0.550378 0.178860
Si Si3 0.204702 0.803150 0.173822
Si Si4 0.157980 0.716832 0.680644
Si Si5 0.690104 0.590431 0.674986
Si Si6 0.427586 0.869891 0.318682
O O1 0.838634 0.500000 0.250000
O O2 0.814620 0.451894 0.500000
O O3 0.759224 0.426838 0.241939
O O4 0.884678 0.415069 0.270995
O O5 0.565848 0.500000 0.250000
O O6 0.500000 0.577587 0.250000
O O7 0.632940 0.573300 0.215495
O O8 0.553329 0.547440 0.000000
O O9 0.148391 0.766761 0.234186
O O10 0.268136 0.800420 0.283871
O O11 0.178293 0.854811 0.180861
O O12 0.224795 0.789892 0.000000
O O13 0.148942 0.723837 0.500000
O O14 0.106666 0.677756 0.742971
O O15 0.683696 0.571839 0.500000
O O16 0.500000 0.875413 0.250000
O O17 0.433376 0.867124 0.500000
#
# Coordination Sequence:
#
# PCOD8276130 Si02
#       6
#    16  16  16  16  16  16
#     4  11  23  40  59  85 117 151 198 248 300 352
#     4  11  22  38  59  82 113 151 192 235 283 343
#     4  10  20  33  56  87 115 145 184 231 281 336
#     4  10  19  35  57  83 113 147 187 230 282 341
#     4  11  22  37  58  87 119 154 193 237 291 344
#     4  10  23  40  60  84 115 155 198 244 297 355
#
# _framework density 19.027304999999998
#
# number of rings (size 3 to 8) (size 9 to 14) (size 15 to 20)
#    0.000    1.500    1.667    5.500    0.000    5.000 
#    0.000    2.500    0.000    2.000    0.000    0.000 
#    0.000    0.000    0.000    0.000    0.000    0.000 
#
# Total GULP energy -595010.755113 kJ/mol
# GULP energy per Si atom -12396.057398 kJ/mol
# Density = 1.898400 g / cm^3
# Si number density = 19.027305 Si / 1000 Ang^3
#
#
#
# Elastic Constant Matrix: (Units=GPa)
#
#
# Indices 1 2 3 4 5 6 
#
# 1 126.3830 65.3529 41.7066 0.0000 0.0000 0.0000
# 2 65.3529 127.5540 45.0451 0.0000 0.0000 0.0000
# 3 41.7066 45.0451 99.1969 0.0000 0.0000 0.0000
# 4 0.0000 0.0000 0.0000 27.0497 0.0000 0.0000
# 5 0.0000 0.0000 0.0000 0.0000 32.7715 0.0000
# 6 0.0000 0.0000 0.0000 0.0000 0.0000 24.9399
#
#
#
# Elastic Compliance Matrix: (Units=1/GPa)
#
#
# Indices 1 2 3 4 5 6 
#
# 1 0.011270 -0.004884 -0.002520 0.000000 0.000000 0.000000
# 2 -0.004884 0.011454 -0.003148 0.000000 0.000000 0.000000
# 3 -0.002520 -0.003148 0.012570 0.000000 0.000000 0.000000
# 4 0.000000 0.000000 0.000000 0.036969 0.000000 0.000000
# 5 0.000000 0.000000 0.000000 0.000000 0.030514 0.000000
# 6 0.000000 0.000000 0.000000 0.000000 0.000000 0.040096
#
#
# Mechanical properties :
#
#
# Convention : Reuss Voigt Hill
#
# Bulk Modulus (GPa) = 70.47608 73.03813 71.75711
# Shear Modulus (GPa) = 29.63713 30.35416 29.99565
#
# Velocity S-wave (km/s) = 3.95094 3.99845 3.97476
# Velocity P-wave (km/s) = 7.61138 7.73214 7.67200
#
# Compressibility (1/GPa) = 0.01418921
#
# Stress axis : x y z
#
# Youngs Moduli (GPa) = 88.73318 87.30759 79.55436
#
# Poissons Ratio (x) = 0.42641 0.20051
# Poissons Ratio (y) = 0.43337 0.25041
# Poissons Ratio (z) = 0.22365 0.27482
#
# Static dielectric constant tensor:
#      x y z
#    x 2.301140 0.000000 0.000000 
#    y 0.000000 3.856170 0.000000 
#    z 0.000000 0.000000 3.696120 
# 
# 
# High freq. dielectric constant tensor:
#      x y z
#    x 1.726560 0.000000 0.000000 
#    y 0.000000 1.749660 0.000000 
#    z 0.000000 0.000000 1.753630 
# 
# From -- ./inp_files/7942.got.cif
#   From: 2010.03.12/outbox.cif.g09.slc.cpg/sg66_4_cif.got.tgz:7942.got - 2010.04.10 21:57:39.
