data_PCOD8276182
_publ_section_title
;
Structure prediction by ZEFSAII (Michael W. Deem and Ramdas Pophale) SiO2 
 PCOD8276182
Probable space group: C C C M
;
_chemical_formula_sum "Si O2"
_cell_formula_units_Z 96
_cell_length_a 22.556078
_cell_length_b 14.240275
_cell_length_c 15.941336
_cell_angle_alpha 90.000000
_cell_angle_beta 90.000000
_cell_angle_gamma 90.000000
_cell_volume 5120.432903
_symmetry_space_group_name_H-M "C C C M"
_symmetry_group_IT_number 66
_symmetry_cell_setting 'orthorhombic'
loop_
_space_group_symop_operation_xyz
x,y,z
-x,-y,z
x,-y,1/2-z
-x,y,1/2-z
-x,-y,-z
x,y,-z
-x,y,1/2+z
x,-y,1/2+z
1/2+x,1/2+y,z
1/2-x,1/2-y,z
1/2+x,1/2-y,1/2-z
1/2-x,1/2+y,1/2-z
1/2-x,1/2-y,-z
1/2+x,1/2+y,-z
1/2-x,1/2+y,1/2+z
1/2+x,1/2-y,1/2+z
loop_
_atom_site_type_symbol
_atom_site_label
_atom_site_fract_x
_atom_site_fract_y
_atom_site_fract_z
Si Si1 0.045901 0.162275 0.674128
Si Si2 0.627647 0.800603 0.763153
Si Si3 0.614076 0.507612 0.903230
Si Si4 0.933960 0.792974 0.906374
Si Si5 0.829711 0.500000 0.250000
Si Si6 0.747199 0.451412 0.404403
Si Si7 0.750000 0.750000 0.834005
O O1 0.094654 0.242054 0.691270
O O2 0.079633 0.066621 0.653471
O O3 0.000000 0.146350 0.750000
O O4 0.005467 0.198854 0.597131
O O5 0.591693 0.791039 0.850278
O O6 0.628123 0.910064 0.739302
O O7 0.694404 0.763225 0.772490
O O8 0.594366 0.610184 0.871952
O O9 0.684342 0.497173 0.890791
O O10 0.595610 0.493467 0.000000
O O11 0.913063 0.771520 0.000000
O O12 0.790978 0.493320 0.334810
O O13 0.769663 0.470439 0.500000
O O14 0.740265 0.339583 0.393498
#
# Coordination Sequence:
#
# PCOD8276182 Si02
#       7
#    16  16  16  16   8  16   8
#     4  10  22  35  54  83 118 154 190 230 286 361
#     4  10  22  37  57  84 112 151 195 244 292 343
#     4  10  20  34  54  85 121 150 182 229 288 355
#     4  10  20  37  58  85 114 148 192 239 291 345
#     4  10  24  40  59  82 117 156 194 256 298 340
#     4  10  21  36  59  88 117 153 196 241 290 349
#     4  10  19  36  58  84 115 150 193 246 290 338
#
# _framework density 18.748414
#
# number of rings (size 3 to 8) (size 9 to 14) (size 15 to 20)
#    0.000    2.000    1.667    1.250    4.667    8.667 
#    0.000    5.417    0.000    3.000    0.000    0.000 
#    0.000    0.000    0.000    0.000    0.000    0.000 
#
# Total GULP energy -595178.901005 kJ/mol
# GULP energy per Si atom -12399.560438 kJ/mol
# Density = 1.870574 g / cm^3
# Si number density = 18.748414 Si / 1000 Ang^3
#
#
#
# Elastic Constant Matrix: (Units=GPa)
#
#
# Indices 1 2 3 4 5 6 
#
# 1 88.5121 49.2881 31.5968 0.0000 0.0000 0.0000
# 2 49.2881 119.0552 57.9575 0.0000 0.0000 0.0000
# 3 31.5968 57.9575 72.7494 0.0000 0.0000 0.0000
# 4 0.0000 0.0000 0.0000 17.3329 0.0000 0.0000
# 5 0.0000 0.0000 0.0000 0.0000 27.1490 0.0000
# 6 0.0000 0.0000 0.0000 0.0000 0.0000 34.5893
#
#
#
# Elastic Compliance Matrix: (Units=1/GPa)
#
#
# Indices 1 2 3 4 5 6 
#
# 1 0.014968 -0.004953 -0.002555 0.000000 0.000000 0.000000
# 2 -0.004953 0.015360 -0.010086 0.000000 0.000000 0.000000
# 3 -0.002555 -0.010086 0.022890 0.000000 0.000000 0.000000
# 4 0.000000 0.000000 0.000000 0.057694 0.000000 0.000000
# 5 0.000000 0.000000 0.000000 0.000000 0.036834 0.000000
# 6 0.000000 0.000000 0.000000 0.000000 0.000000 0.028911
#
#
# Mechanical properties :
#
#
# Convention : Reuss Voigt Hill
#
# Bulk Modulus (GPa) = 55.45967 62.00017 58.72992
# Shear Modulus (GPa) = 22.95117 25.24584 24.09851
#
# Velocity S-wave (km/s) = 3.50260 3.67353 3.58908
# Velocity P-wave (km/s) = 6.78254 7.15083 6.96912
#
# Compressibility (1/GPa) = 0.01803112
#
# Stress axis : x y z
#
# Youngs Moduli (GPa) = 66.80918 65.10572 43.68626
#
# Poissons Ratio (x) = 0.32245 0.11163
# Poissons Ratio (y) = 0.33089 0.44060
# Poissons Ratio (z) = 0.17071 0.65663
#
# Static dielectric constant tensor:
#      x y z
#    x 3.624060 0.000000 0.000000 
#    y 0.000000 3.336850 0.000000 
#    z 0.000000 0.000000 3.434480 
# 
# 
# High freq. dielectric constant tensor:
#      x y z
#    x 1.733840 0.000000 0.000000 
#    y 0.000000 1.708220 0.000000 
#    z 0.000000 0.000000 1.725920 
# 
# From -- ./inp_files/51851.got.cif
#   From: 2010.03.12/outbox.cif.g09.slc.cpg/sg66_26_cif.got.tgz:51851.got - 2010.04.10 21:57:39.
