data_PCOD8276635
_publ_section_title
;
Structure prediction by ZEFSAII (Michael W. Deem and Ramdas Pophale) SiO2 
 PCOD8276635
Probable space group: C C C M
;
_chemical_formula_sum "Si O2"
_cell_formula_units_Z 116
_cell_length_a 21.741092
_cell_length_b 27.044314
_cell_length_c 9.141993
_cell_angle_alpha 90.000000
_cell_angle_beta 90.000000
_cell_angle_gamma 90.000000
_cell_volume 5375.244307
_symmetry_space_group_name_H-M "C C C M"
_symmetry_group_IT_number 66
_symmetry_cell_setting 'orthorhombic'
loop_
_space_group_symop_operation_xyz
x,y,z
-x,-y,z
x,-y,1/2-z
-x,y,1/2-z
-x,-y,-z
x,y,-z
-x,y,1/2+z
x,-y,1/2+z
1/2+x,1/2+y,z
1/2-x,1/2-y,z
1/2+x,1/2-y,1/2-z
1/2-x,1/2+y,1/2-z
1/2-x,1/2-y,-z
1/2+x,1/2+y,-z
1/2-x,1/2+y,1/2+z
1/2+x,1/2-y,1/2+z
loop_
_atom_site_type_symbol
_atom_site_label
_atom_site_fract_x
_atom_site_fract_y
_atom_site_fract_z
Si Si1 0.307579 0.450720 0.165874
Si Si2 0.915131 0.911911 0.664449
Si Si3 0.500000 0.500000 0.250000
Si Si4 0.664651 0.050744 0.668002
Si Si5 0.221291 0.198115 0.332528
Si Si6 0.939847 0.287481 0.331894
Si Si7 0.346518 0.147054 0.668827
Si Si8 0.096653 0.822636 0.332790
O O1 0.322810 0.500000 0.250000
O O2 0.350627 0.411934 0.247603
O O3 0.236666 0.437204 0.174775
O O4 0.330036 0.457035 0.000000
O O5 0.899412 0.898002 0.500000
O O6 0.944287 0.863781 0.744031
O O7 0.956019 0.962194 0.661794
O O8 0.641989 0.047340 0.500000
O O9 0.632872 0.095948 0.752728
O O10 0.648118 0.000000 0.750000
O O11 0.198173 0.202793 0.500000
O O12 0.250000 0.250000 0.280101
O O13 0.273560 0.155910 0.318230
O O14 0.165222 0.183844 0.229639
O O15 0.939919 0.305396 0.500000
O O16 0.880331 0.308133 0.249435
O O17 0.939715 0.228468 0.321181
O O18 0.000000 0.308154 0.250000
O O19 0.367066 0.144563 0.500000
O O20 0.102463 0.840303 0.500000
#
# Coordination Sequence:
#
# PCOD8276635 Si02
#       8
#    16  16   4  16  16  16  16  16
#     4  10  20  36  59  86 119 157 200 250 308 373
#     4  12  26  43  64  84 114 157 208 270 330 386
#     4  12  30  48  64  90 114 160 226 288 342 396
#     4  10  21  37  60  93 130 165 204 250 304 371
#     4  10  20  37  63  97 133 170 211 258 319 388
#     4  11  25  44  65  91 124 166 212 260 312 374
#     4  11  22  38  64  95 130 170 211 258 313 377
#     4  11  25  42  64  94 127 164 211 266 326 390
#
# _framework density 21.580414999999999
#
# number of rings (size 3 to 8) (size 9 to 14) (size 15 to 20)
#    0.000    1.241    2.069    3.517    0.966    8.552 
#    0.000    0.000    0.000    0.414    0.000    2.897 
#    0.000    0.000    0.000    0.000    0.000    0.000 
#
# Total GULP energy -719032.085360 kJ/mol
# GULP energy per Si atom -12397.104920 kJ/mol
# Density = 2.153130 g / cm^3
# Si number density = 21.580415 Si / 1000 Ang^3
#
#
#
# Elastic Constant Matrix: (Units=GPa)
#
#
# Indices 1 2 3 4 5 6 
#
# 1 54.6245 2.1540 30.8458 0.0000 0.0000 0.0000
# 2 2.1540 112.9670 57.2455 0.0000 0.0000 0.0000
# 3 30.8458 57.2455 188.8624 0.0000 0.0000 0.0000
# 4 0.0000 0.0000 0.0000 29.4733 0.0000 0.0000
# 5 0.0000 0.0000 0.0000 0.0000 58.7627 0.0000
# 6 0.0000 0.0000 0.0000 0.0000 0.0000 15.4078
#
#
#
# Elastic Compliance Matrix: (Units=1/GPa)
#
#
# Indices 1 2 3 4 5 6 
#
# 1 0.020389 0.001534 -0.003795 0.000000 0.000000 0.000000
# 2 0.001534 0.010574 -0.003456 0.000000 0.000000 0.000000
# 3 -0.003795 -0.003456 0.006962 0.000000 0.000000 0.000000
# 4 0.000000 0.000000 0.000000 0.033929 0.000000 0.000000
# 5 0.000000 0.000000 0.000000 0.000000 0.017018 0.000000
# 6 0.000000 0.000000 0.000000 0.000000 0.000000 0.064902
#
#
# Mechanical properties :
#
#
# Convention : Reuss Voigt Hill
#
# Bulk Modulus (GPa) = 37.74627 59.66051 48.70339
# Shear Modulus (GPa) = 28.72935 38.47600 33.60268
#
# Velocity S-wave (km/s) = 3.65262 4.22704 3.95028
# Velocity P-wave (km/s) = 5.94287 7.17840 6.58966
#
# Compressibility (1/GPa) = 0.02649268
#
# Stress axis : x y z
#
# Youngs Moduli (GPa) = 49.04516 94.57137 143.63405
#
# Poissons Ratio (x) = -0.14511 0.54511
# Poissons Ratio (y) = -0.07526 0.49635
# Poissons Ratio (z) = 0.18613 0.32681
#
# Static dielectric constant tensor:
#      x y z
#    x 3.569570 0.000000 0.000000 
#    y 0.000000 3.927050 0.000000 
#    z 0.000000 0.000000 3.951340 
# 
# 
# High freq. dielectric constant tensor:
#      x y z
#    x 1.820940 0.000000 0.000000 
#    y 0.000000 1.858620 0.000000 
#    z 0.000000 0.000000 1.856650 
# 
# From -- ./inp_files/9471.got.cif
#   From: 2010.03.12/outbox.cif.g09.slc.cpg/sg66_5_cif.got.tgz:9471.got - 2010.04.10 21:57:39.
