data_PCOD8276895
_publ_section_title
;
Structure prediction by ZEFSAII (Michael W. Deem and Ramdas Pophale) SiO2 
 PCOD8276895
Probable space group: C C C M
;
_chemical_formula_sum "Si O2"
_cell_formula_units_Z 116
_cell_length_a 26.204134
_cell_length_b 26.414255
_cell_length_c 9.006854
_cell_angle_alpha 90.000000
_cell_angle_beta 90.000000
_cell_angle_gamma 90.000000
_cell_volume 6234.208181
_symmetry_space_group_name_H-M "C C C M"
_symmetry_group_IT_number 66
_symmetry_cell_setting 'orthorhombic'
loop_
_space_group_symop_operation_xyz
x,y,z
-x,-y,z
x,-y,1/2-z
-x,y,1/2-z
-x,-y,-z
x,y,-z
-x,y,1/2+z
x,-y,1/2+z
1/2+x,1/2+y,z
1/2-x,1/2-y,z
1/2+x,1/2-y,1/2-z
1/2-x,1/2+y,1/2-z
1/2-x,1/2-y,-z
1/2+x,1/2+y,-z
1/2-x,1/2+y,1/2+z
1/2+x,1/2-y,1/2+z
loop_
_atom_site_type_symbol
_atom_site_label
_atom_site_fract_x
_atom_site_fract_y
_atom_site_fract_z
Si Si1 0.224970 0.683804 0.164260
Si Si2 0.052073 0.682300 0.323736
Si Si3 0.810315 0.425291 0.166825
Si Si4 0.209589 0.049112 0.825956
Si Si5 0.822594 0.158497 0.326787
Si Si6 0.422430 0.919194 0.835007
Si Si7 0.132487 0.246199 0.329984
Si Si8 0.500000 0.000000 0.750000
O O1 0.188153 0.635510 0.177928
O O2 0.267272 0.682028 0.291796
O O3 0.190399 0.733404 0.183382
O O4 0.251130 0.684236 0.000000
O O5 0.047952 0.685454 0.500000
O O6 0.061179 0.623937 0.280066
O O7 0.096495 0.718911 0.268503
O O8 0.000000 0.701932 0.250000
O O9 0.768891 0.448368 0.278084
O O10 0.867420 0.442545 0.212361
O O11 0.795974 0.443068 0.000000
O O12 0.178488 0.099404 0.776868
O O13 0.183705 0.000000 0.750000
O O14 0.207451 0.042335 0.000000
O O15 0.833922 0.164083 0.500000
O O16 0.866154 0.189041 0.236350
O O17 0.463571 0.964106 0.847088
O O18 0.417494 0.894940 0.000000
O O19 0.113428 0.245279 0.500000
#
# Coordination Sequence:
#
# PCOD8276895 Si02
#       8
#    16  16  16  16  16  16  16   4
#     4   9  17  31  51  75 104 141 176 215 267 327
#     4  12  25  41  62  82 106 140 181 229 283 339
#     4   9  18  34  53  72 100 136 177 225 275 331
#     4  10  21  36  53  76 107 144 184 224 267 319
#     4  10  21  34  50  79 113 142 179 224 267 323
#     4  11  23  41  57  76 103 135 180 236 293 343
#     4  11  21  36  57  81 109 142 179 220 273 333
#     4  12  26  36  60  82 102 136 186 248 300 340
#
# _framework density 18.607012999999998
#
# number of rings (size 3 to 8) (size 9 to 14) (size 15 to 20)
#    0.000    1.655    2.069    3.103    0.966    5.517 
#    0.000    0.000    0.000    0.000    0.000    0.000 
#    0.000    0.552    0.000    5.793    0.000    3.172 
#
# Total GULP energy -719093.394586 kJ/mol
# GULP energy per Si atom -12398.161976 kJ/mol
# Density = 1.856466 g / cm^3
# Si number density = 18.607013 Si / 1000 Ang^3
#
#
#
# Elastic Constant Matrix: (Units=GPa)
#
#
# Indices 1 2 3 4 5 6 
#
# 1 35.6833 32.0591 24.7162 0.0000 0.0000 0.0000
# 2 32.0591 125.7619 50.2083 0.0000 0.0000 0.0000
# 3 24.7162 50.2083 108.8233 0.0000 0.0000 0.0000
# 4 0.0000 0.0000 0.0000 26.2146 0.0000 0.0000
# 5 0.0000 0.0000 0.0000 0.0000 24.8487 0.0000
# 6 0.0000 0.0000 0.0000 0.0000 0.0000 25.5268
#
#
#
# Elastic Compliance Matrix: (Units=1/GPa)
#
#
# Indices 1 2 3 4 5 6 
#
# 1 0.038594 -0.007770 -0.005181 0.000000 0.000000 0.000000
# 2 -0.007770 0.011311 -0.003454 0.000000 0.000000 0.000000
# 3 -0.005181 -0.003454 0.011959 0.000000 0.000000 0.000000
# 4 0.000000 0.000000 0.000000 0.038147 0.000000 0.000000
# 5 0.000000 0.000000 0.000000 0.000000 0.040244 0.000000
# 6 0.000000 0.000000 0.000000 0.000000 0.000000 0.039175
#
#
# Mechanical properties :
#
#
# Convention : Reuss Voigt Hill
#
# Bulk Modulus (GPa) = 34.41739 53.80396 44.11068
# Shear Modulus (GPa) = 22.53034 26.20367 24.36700
#
# Velocity S-wave (km/s) = 3.48350 3.75676 3.62271
# Velocity P-wave (km/s) = 5.89210 6.91349 6.42313
#
# Compressibility (1/GPa) = 0.02905508
#
# Stress axis : x y z
#
# Youngs Moduli (GPa) = 25.91108 88.40809 83.61624
#
# Poissons Ratio (x) = 0.68693 0.43318
# Poissons Ratio (y) = 0.20133 0.28881
# Poissons Ratio (z) = 0.13423 0.30536
#
# Static dielectric constant tensor:
#      x y z
#    x 3.159790 0.000000 0.000000 
#    y 0.000000 3.605210 0.000000 
#    z 0.000000 0.000000 3.397590 
# 
# 
# High freq. dielectric constant tensor:
#      x y z
#    x 1.680100 0.000000 0.000000 
#    y 0.000000 1.725630 0.000000 
#    z 0.000000 0.000000 1.727420 
# 
# From -- ./inp_files/9409.got.cif
#   From: 2010.03.12/outbox.cif.g09.slc.cpg/sg66_5_cif.got.tgz:9409.got - 2010.04.10 21:57:39.
