data_PCOD8276401
_publ_section_title
;
Structure prediction by ZEFSAII (Michael W. Deem and Ramdas Pophale) SiO2 
 PCOD8276401
Probable space group: C C C M
;
_chemical_formula_sum "Si O2"
_cell_formula_units_Z 104
_cell_length_a 21.668375
_cell_length_b 26.465776
_cell_length_c 9.636788
_cell_angle_alpha 90.000000
_cell_angle_beta 90.000000
_cell_angle_gamma 90.000000
_cell_volume 5526.412274
_symmetry_space_group_name_H-M "C C C M"
_symmetry_group_IT_number 66
_symmetry_cell_setting 'orthorhombic'
loop_
_space_group_symop_operation_xyz
x,y,z
-x,-y,z
x,-y,1/2-z
-x,y,1/2-z
-x,-y,-z
x,y,-z
-x,y,1/2+z
x,-y,1/2+z
1/2+x,1/2+y,z
1/2-x,1/2-y,z
1/2+x,1/2-y,1/2-z
1/2-x,1/2+y,1/2-z
1/2-x,1/2-y,-z
1/2+x,1/2+y,-z
1/2-x,1/2+y,1/2+z
1/2+x,1/2-y,1/2+z
loop_
_atom_site_type_symbol
_atom_site_label
_atom_site_fract_x
_atom_site_fract_y
_atom_site_fract_z
Si Si1 0.687100 0.229046 0.843122
Si Si2 0.689773 0.048188 0.659702
Si Si3 0.622248 0.851305 0.842130
Si Si4 0.555732 0.382563 0.664220
Si Si5 0.169876 0.048578 0.160455
Si Si6 0.929719 0.788934 0.649898
Si Si7 0.500000 0.803167 0.750000
O O1 0.750000 0.250000 0.778698
O O2 0.664582 0.183043 0.751923
O O3 0.642000 0.276782 0.837494
O O4 0.696239 0.209075 0.000000
O O5 0.685008 0.031937 0.500000
O O6 0.639857 0.091214 0.696236
O O7 0.760101 0.066659 0.692680
O O8 0.671709 0.000000 0.750000
O O9 0.549476 0.840233 0.822486
O O10 0.640532 0.840148 0.000000
O O11 0.500000 0.410312 0.750000
O O12 0.542707 0.383439 0.500000
O O13 0.621503 0.407418 0.700567
O O14 0.554494 0.324500 0.719177
O O15 0.152355 0.000000 0.250000
O O16 0.162139 0.033694 0.000000
O O17 0.943060 0.815577 0.500000
O O18 0.965179 0.734987 0.645944
#
# Coordination Sequence:
#
# PCOD8276401 Si02
#       7
#    16  16  16  16  16  16   8
#     4   9  20  36  52  79 116 148 182 228 280 336
#     4   9  19  38  61  86 114 142 184 231 282 340
#     4  10  21  36  59  86 112 149 193 237 282 336
#     4  11  23  36  54  79 109 145 187 232 279 328
#     4   9  20  38  58  81 108 142 180 229 283 336
#     4  10  20  34  53  75 107 148 188 225 267 326
#     4  10  20  36  57  80 113 148 190 228 280 328
#
# _framework density 18.818719999999999
#
# number of rings (size 3 to 8) (size 9 to 14) (size 15 to 20)
#    0.000    2.308    0.769    0.923    2.154    5.538 
#    0.000    1.923    0.000    1.846    0.000    0.000 
#    0.000    0.000    0.000    0.000    0.000    0.000 
#
# Total GULP energy -644470.320329 kJ/mol
# GULP energy per Si atom -12393.660006 kJ/mol
# Density = 1.877589 g / cm^3
# Si number density = 18.818720 Si / 1000 Ang^3
#
#
#
# Elastic Constant Matrix: (Units=GPa)
#
#
# Indices 1 2 3 4 5 6 
#
# 1 126.2647 61.7054 38.4873 0.0000 0.0000 0.0000
# 2 61.7054 101.9094 48.4245 0.0000 0.0000 0.0000
# 3 38.4873 48.4245 97.1710 0.0000 0.0000 0.0000
# 4 0.0000 0.0000 0.0000 30.2213 0.0000 0.0000
# 5 0.0000 0.0000 0.0000 0.0000 55.6092 0.0000
# 6 0.0000 0.0000 0.0000 0.0000 0.0000 32.3186
#
#
#
# Elastic Compliance Matrix: (Units=1/GPa)
#
#
# Indices 1 2 3 4 5 6 
#
# 1 0.011393 -0.006230 -0.001408 0.000000 0.000000 0.000000
# 2 -0.006230 0.016263 -0.005637 0.000000 0.000000 0.000000
# 3 -0.001408 -0.005637 0.013658 0.000000 0.000000 0.000000
# 4 0.000000 0.000000 0.000000 0.033089 0.000000 0.000000
# 5 0.000000 0.000000 0.000000 0.000000 0.017983 0.000000
# 6 0.000000 0.000000 0.000000 0.000000 0.000000 0.030942
#
#
# Mechanical properties :
#
#
# Convention : Reuss Voigt Hill
#
# Bulk Modulus (GPa) = 67.72869 69.17551 68.45210
# Shear Modulus (GPa) = 32.29961 35.41167 33.85564
#
# Velocity S-wave (km/s) = 4.14739 4.34259 4.24611
# Velocity P-wave (km/s) = 7.68132 7.87292 7.77771
#
# Compressibility (1/GPa) = 0.01476479
#
# Stress axis : x y z
#
# Youngs Moduli (GPa) = 87.76948 61.48830 73.21584
#
# Poissons Ratio (x) = 0.38304 0.10311
# Poissons Ratio (y) = 0.54676 0.41274
# Poissons Ratio (z) = 0.12360 0.34663
#
# Static dielectric constant tensor:
#      x y z
#    x 3.796590 0.000000 0.000000 
#    y 0.000000 3.223560 0.000000 
#    z 0.000000 0.000000 3.467210 
# 
# 
# High freq. dielectric constant tensor:
#      x y z
#    x 1.745250 0.000000 0.000000 
#    y 0.000000 1.705810 0.000000 
#    z 0.000000 0.000000 1.734770 
# 
# From -- ./inp_files/9353.got.cif
#   From: 2010.03.12/outbox.cif.g09.slc.cpg/sg66_5_cif.got.tgz:9353.got - 2010.04.10 21:57:39.
