data_PCOD8276053
_publ_section_title
;
Structure prediction by ZEFSAII (Michael W. Deem and Ramdas Pophale) SiO2 
 PCOD8276053
Probable space group: C C C M
;
_chemical_formula_sum "Si O2"
_cell_formula_units_Z 84
_cell_length_a 23.589754
_cell_length_b 9.782355
_cell_length_c 20.707146
_cell_angle_alpha 90.000000
_cell_angle_beta 90.000000
_cell_angle_gamma 90.000000
_cell_volume 4778.450338
_symmetry_space_group_name_H-M "C C C M"
_symmetry_group_IT_number 66
_symmetry_cell_setting 'orthorhombic'
loop_
_space_group_symop_operation_xyz
x,y,z
-x,-y,z
x,-y,1/2-z
-x,y,1/2-z
-x,-y,-z
x,y,-z
-x,y,1/2+z
x,-y,1/2+z
1/2+x,1/2+y,z
1/2-x,1/2-y,z
1/2+x,1/2-y,1/2-z
1/2-x,1/2+y,1/2-z
1/2-x,1/2-y,-z
1/2+x,1/2+y,-z
1/2-x,1/2+y,1/2+z
1/2+x,1/2-y,1/2+z
loop_
_atom_site_type_symbol
_atom_site_label
_atom_site_fract_x
_atom_site_fract_y
_atom_site_fract_z
Si Si1 0.425741 0.128311 0.858224
Si Si2 0.797929 0.651885 0.669044
Si Si3 0.401817 0.140956 0.573863
Si Si4 0.000000 0.500000 0.250000
Si Si5 0.997791 0.846110 0.926059
Si Si6 0.299687 0.154075 0.815753
O O1 0.458012 0.095520 0.791474
O O2 0.450386 0.265417 0.887472
O O3 0.359507 0.163221 0.851682
O O4 0.434333 0.997912 0.905545
O O5 0.750000 0.750000 0.639939
O O6 0.850799 0.667408 0.622273
O O7 0.813294 0.696637 0.741932
O O8 0.775226 0.497594 0.673766
O O9 0.380722 0.126372 0.500000
O O10 0.442238 0.271075 0.581736
O O11 0.978325 0.850609 0.000000
O O12 0.000000 0.000000 0.897990
O O13 0.250000 0.250000 0.844845
#
# Coordination Sequence:
#
# PCOD8276053 Si02
#       6
#    16  16  16   4  16  16
#     4  11  20  34  58  78 109 140 182 228 266 329
#     4   9  18  33  53  74 103 136 178 223 265 319
#     4  10  19  34  55  79 105 142 186 223 270 327
#     4  12  20  32  60  88 108 140 186 232 280 316
#     4  10  21  36  53  77 109 143 177 221 276 325
#     4   9  19  34  53  76 103 142 176 215 271 324
#
# _framework density 17.578921999999999
#
# number of rings (size 3 to 8) (size 9 to 14) (size 15 to 20)
#    0.000    2.095    1.905    2.857    0.000    3.429 
#    0.000    0.476    0.000   14.286    0.000    0.000 
#    0.000    0.000    0.000    0.000    0.000    0.000 
#
# Total GULP energy -520698.200147 kJ/mol
# GULP energy per Si atom -12397.576194 kJ/mol
# Density = 1.753891 g / cm^3
# Si number density = 17.578922 Si / 1000 Ang^3
#
#
#
# Elastic Constant Matrix: (Units=GPa)
#
#
# Indices 1 2 3 4 5 6 
#
# 1 99.2889 65.9345 42.4878 0.0000 0.0000 0.0000
# 2 65.9345 140.5692 50.2004 0.0000 0.0000 0.0000
# 3 42.4878 50.2004 72.3809 0.0000 0.0000 0.0000
# 4 0.0000 0.0000 0.0000 25.8981 0.0000 0.0000
# 5 0.0000 0.0000 0.0000 0.0000 -5.2710 0.0000
# 6 0.0000 0.0000 0.0000 0.0000 0.0000 35.5984
#
#
#
# Elastic Compliance Matrix: (Units=1/GPa)
#
#
# Indices 1 2 3 4 5 6 
#
# 1 0.016188 -0.005582 -0.005631 0.000000 0.000000 0.000000
# 2 -0.005582 0.011381 -0.004617 0.000000 0.000000 0.000000
# 3 -0.005631 -0.004617 0.020323 0.000000 0.000000 0.000000
# 4 0.000000 0.000000 0.000000 0.038613 0.000000 0.000000
# 5 0.000000 0.000000 0.000000 0.000000 -0.189717 0.000000
# 6 0.000000 0.000000 0.000000 0.000000 0.000000 0.028091
#
#
# Mechanical properties :
#
#
# Convention : Reuss Voigt Hill
#
# Bulk Modulus (GPa) = 61.60389 69.94273 65.77331
# Shear Modulus (GPa) = -131.40458 21.48620 -54.95919
#
# Velocity S-wave (km/s) = -8.65526 3.49989 -5.59751
# Velocity P-wave (km/s) = 8.04763 7.49710 2.06856
#
# Compressibility (1/GPa) = 0.01623274
#
# Stress axis : x y z
#
# Youngs Moduli (GPa) = 61.77362 87.86595 49.20518
#
# Poissons Ratio (x) = 0.49048 0.27707
# Poissons Ratio (y) = 0.34483 0.22716
# Poissons Ratio (z) = 0.34784 0.40564
#
# Static dielectric constant tensor:
#      x y z
#    x 3.218130 0.000000 0.000000 
#    y 0.000000 3.435250 0.000000 
#    z 0.000000 0.000000 3.280740 
# 
# 
# High freq. dielectric constant tensor:
#      x y z
#    x 1.678790 0.000000 0.000000 
#    y 0.000000 1.679730 0.000000 
#    z 0.000000 0.000000 1.672980 
# 
# From -- ./inp_files/52323.got.cif
#   From: 2010.03.12/outbox.cif.g09.slc.cpg/sg66_27_cif.got.tgz:52323.got - 2010.04.10 21:57:39.
