data_PCOD8276777
_publ_section_title
;
Structure prediction by ZEFSAII (Michael W. Deem and Ramdas Pophale) SiO2 
 PCOD8276777
Probable space group: C C C M
;
_chemical_formula_sum "Si O2"
_cell_formula_units_Z 72
_cell_length_a 5.181266
_cell_length_b 24.615139
_cell_length_c 27.800902
_cell_angle_alpha 90.000000
_cell_angle_beta 90.000000
_cell_angle_gamma 90.000000
_cell_volume 3545.659840
_symmetry_space_group_name_H-M "C C C M"
_symmetry_group_IT_number 66
_symmetry_cell_setting 'orthorhombic'
loop_
_space_group_symop_operation_xyz
x,y,z
-x,-y,z
x,-y,1/2-z
-x,y,1/2-z
-x,-y,-z
x,y,-z
-x,y,1/2+z
x,-y,1/2+z
1/2+x,1/2+y,z
1/2-x,1/2-y,z
1/2+x,1/2-y,1/2-z
1/2-x,1/2+y,1/2-z
1/2-x,1/2-y,-z
1/2+x,1/2+y,-z
1/2-x,1/2+y,1/2+z
1/2+x,1/2-y,1/2+z
loop_
_atom_site_type_symbol
_atom_site_label
_atom_site_fract_x
_atom_site_fract_y
_atom_site_fract_z
Si Si1 0.749955 0.975785 0.304442
Si Si2 0.744843 0.964878 0.553829
Si Si3 0.310738 0.187948 0.848712
Si Si4 0.500000 0.217358 0.750000
Si Si5 0.293350 0.622949 0.864724
O O1 0.750365 0.910831 0.314089
O O2 0.500000 0.000000 0.330882
O O3 0.752037 0.000000 0.250000
O O4 0.000000 0.000000 0.331482
O O5 0.694763 0.941863 0.500000
O O6 0.500000 0.000000 0.570835
O O7 0.788657 0.915580 0.589738
O O8 0.000000 0.000000 0.554293
O O9 0.250000 0.250000 0.862862
O O10 0.373848 0.181896 0.792057
O O11 0.567159 0.166434 0.874803
O O12 0.067576 0.151805 0.862013
O O13 0.250000 0.250000 0.728321
#
# Coordination Sequence:
#
# PCOD8276777 Si02
#       5
#    16  16  16   8  16
#     4  10  21  35  50  79 115 144 179 227 286 356
#     4  10  21  39  63  92 124 156 196 249 309 381
#     4  11  24  40  58  84 117 158 207 251 287 343
#     4  10  20  38  56  76 111 154 201 248 290 334
#     4  12  22  37  62  86 116 158 198 244 306 358
#
# _framework density 20.306519000000002
#
# number of rings (size 3 to 8) (size 9 to 14) (size 15 to 20)
#    0.000    1.333    0.000    7.333    0.000    5.333 
#    0.000    0.000    0.000    4.000    0.000    0.000 
#    0.000    0.000    0.000    0.000    0.000    0.000 
#
# Total GULP energy -445972.300195 kJ/mol
# GULP energy per Si atom -12388.119450 kJ/mol
# Density = 2.026030 g / cm^3
# Si number density = 20.306519 Si / 1000 Ang^3
#
#
#
# Elastic Constant Matrix: (Units=GPa)
#
#
# Indices 1 2 3 4 5 6 
#
# 1 194.3521 48.3747 29.2686 0.0000 0.0000 0.0000
# 2 48.3747 99.6987 54.6529 0.0000 0.0000 0.0000
# 3 29.2686 54.6529 107.9362 0.0000 0.0000 0.0000
# 4 0.0000 0.0000 0.0000 26.7050 0.0000 0.0000
# 5 0.0000 0.0000 0.0000 0.0000 15.2723 0.0000
# 6 0.0000 0.0000 0.0000 0.0000 0.0000 42.9106
#
#
#
# Elastic Compliance Matrix: (Units=1/GPa)
#
#
# Indices 1 2 3 4 5 6 
#
# 1 0.005855 -0.002728 -0.000207 0.000000 0.000000 0.000000
# 2 -0.002728 0.015155 -0.006934 0.000000 0.000000 0.000000
# 3 -0.000207 -0.006934 0.012832 0.000000 0.000000 0.000000
# 4 0.000000 0.000000 0.000000 0.037446 0.000000 0.000000
# 5 0.000000 0.000000 0.000000 0.000000 0.065478 0.000000
# 6 0.000000 0.000000 0.000000 0.000000 0.000000 0.023304
#
#
# Mechanical properties :
#
#
# Convention : Reuss Voigt Hill
#
# Bulk Modulus (GPa) = 70.89516 74.06439 72.47978
# Shear Modulus (GPa) = 27.09899 34.95696 31.02797
#
# Velocity S-wave (km/s) = 3.65704 4.15356 3.91318
# Velocity P-wave (km/s) = 7.26775 7.71719 7.49584
#
# Compressibility (1/GPa) = 0.01410533
#
# Stress axis : x y z
#
# Youngs Moduli (GPa) = 170.78326 65.98564 77.93227
#
# Poissons Ratio (x) = 0.18000 0.01610
# Poissons Ratio (y) = 0.46587 0.54037
# Poissons Ratio (z) = 0.03527 0.45753
#
# Static dielectric constant tensor:
#      x y z
#    x 5.375600 0.000000 0.000000 
#    y 0.000000 3.675800 0.000000 
#    z 0.000000 0.000000 3.644350 
# 
# 
# High freq. dielectric constant tensor:
#      x y z
#    x 1.836940 0.000000 0.000000 
#    y 0.000000 1.781730 0.000000 
#    z 0.000000 0.000000 1.763570 
# 
# From -- ./inp_files/67159.got.cif
#   From: 2010.03.12/outbox.cif.g09.slc.cpg/sg66_34_cif.got.tgz:67159.got - 2010.04.10 21:57:39.
