data_PCOD8276070
_publ_section_title
;
Structure prediction by ZEFSAII (Michael W. Deem and Ramdas Pophale) SiO2 
 PCOD8276070
Probable space group: C C C M
;
_chemical_formula_sum "Si O2"
_cell_formula_units_Z 116
_cell_length_a 25.560153
_cell_length_b 24.869059
_cell_length_c 9.021015
_cell_angle_alpha 90.000000
_cell_angle_beta 90.000000
_cell_angle_gamma 90.000000
_cell_volume 5734.270908
_symmetry_space_group_name_H-M "C C C M"
_symmetry_group_IT_number 66
_symmetry_cell_setting 'orthorhombic'
loop_
_space_group_symop_operation_xyz
x,y,z
-x,-y,z
x,-y,1/2-z
-x,y,1/2-z
-x,-y,-z
x,y,-z
-x,y,1/2+z
x,-y,1/2+z
1/2+x,1/2+y,z
1/2-x,1/2-y,z
1/2+x,1/2-y,1/2-z
1/2-x,1/2+y,1/2-z
1/2-x,1/2-y,-z
1/2+x,1/2+y,-z
1/2-x,1/2+y,1/2+z
1/2+x,1/2-y,1/2+z
loop_
_atom_site_type_symbol
_atom_site_label
_atom_site_fract_x
_atom_site_fract_y
_atom_site_fract_z
Si Si1 0.602368 0.450029 0.163783
Si Si2 0.232627 0.651297 0.327310
Si Si3 0.551399 0.167233 0.176731
Si Si4 0.641977 0.768838 0.172449
Si Si5 0.842659 0.842059 0.323738
Si Si6 0.500000 0.500000 0.250000
Si Si7 0.931564 0.450706 0.161319
Si Si8 0.690862 0.948833 0.665996
O O1 0.629087 0.500000 0.250000
O O2 0.620744 0.392422 0.228575
O O3 0.538798 0.459363 0.160246
O O4 0.625164 0.452902 0.000000
O O5 0.247867 0.644084 0.500000
O O6 0.200425 0.706947 0.306438
O O7 0.283188 0.649147 0.223898
O O8 0.197157 0.602647 0.270916
O O9 0.500000 0.194113 0.250000
O O10 0.602624 0.196226 0.233029
O O11 0.554698 0.106091 0.236904
O O12 0.549586 0.171380 0.000000
O O13 0.636806 0.709099 0.235021
O O14 0.626366 0.769161 0.000000
O O15 0.846299 0.832422 0.500000
O O16 0.956949 0.500000 0.250000
O O17 0.870015 0.458818 0.147400
O O18 0.957472 0.451448 0.000000
O O19 0.715582 0.941638 0.500000
O O20 0.716775 0.000000 0.750000
#
# Coordination Sequence:
#
# PCOD8276070 Si02
#       8
#    16  16  16  16  16   4  16  16
#     4   9  20  38  64  95 125 161 201 245 299 364
#     4  11  23  39  61  89 122 163 211 261 315 376
#     4  11  23  41  62  88 119 158 204 255 312 369
#     4  11  24  43  64  88 119 162 210 259 316 376
#     4  11  24  41  62  93 128 162 206 255 308 373
#     4   8  18  40  70  96 130 160 206 240 298 360
#     4   9  19  34  56  83 114 150 195 244 298 359
#     4  10  19  34  56  85 118 158 204 248 305 366
#
# _framework density 20.229251000000001
#
# number of rings (size 3 to 8) (size 9 to 14) (size 15 to 20)
#    0.414    1.379    1.379    2.690    0.000    6.897 
#    1.241    2.759    0.000    0.000    0.000    0.000 
#    0.000    0.000    0.000    0.000    0.000    0.000 
#
# Total GULP energy -718794.503418 kJ/mol
# GULP energy per Si atom -12393.008680 kJ/mol
# Density = 2.018321 g / cm^3
# Si number density = 20.229251 Si / 1000 Ang^3
#
#
#
# Elastic Constant Matrix: (Units=GPa)
#
#
# Indices 1 2 3 4 5 6 
#
# 1 81.1943 36.6261 26.6153 0.0000 0.0000 0.0000
# 2 36.6261 143.8364 48.7053 0.0000 0.0000 0.0000
# 3 26.6153 48.7053 91.4222 0.0000 0.0000 0.0000
# 4 0.0000 0.0000 0.0000 34.8301 0.0000 0.0000
# 5 0.0000 0.0000 0.0000 0.0000 15.9292 0.0000
# 6 0.0000 0.0000 0.0000 0.0000 0.0000 -68.1645
#
#
#
# Elastic Compliance Matrix: (Units=1/GPa)
#
#
# Indices 1 2 3 4 5 6 
#
# 1 0.014457 -0.002753 -0.002742 0.000000 0.000000 0.000000
# 2 -0.002753 0.009007 -0.003997 0.000000 0.000000 0.000000
# 3 -0.002742 -0.003997 0.013866 0.000000 0.000000 0.000000
# 4 0.000000 0.000000 0.000000 0.028711 0.000000 0.000000
# 5 0.000000 0.000000 0.000000 0.000000 0.062778 0.000000
# 6 0.000000 0.000000 0.000000 0.000000 0.000000 -0.014670
#
#
# Mechanical properties :
#
#
# Convention : Reuss Voigt Hill
#
# Bulk Modulus (GPa) = 54.50868 60.03849 57.27359
# Shear Modulus (GPa) = 35.90748 10.15270 23.03009
#
# Velocity S-wave (km/s) = 4.21768 2.24270 3.37776
# Velocity P-wave (km/s) = 7.12197 6.03736 6.60198
#
# Compressibility (1/GPa) = 0.01834570
#
# Stress axis : x y z
#
# Youngs Moduli (GPa) = 69.17191 111.02824 72.11894
#
# Poissons Ratio (x) = 0.30562 0.19777
# Poissons Ratio (y) = 0.19041 0.28826
# Poissons Ratio (z) = 0.18969 0.44378
#
# Static dielectric constant tensor:
#      x y z
#    x 3.531230 0.000000 0.000000 
#    y 0.000000 3.893260 0.000000 
#    z 0.000000 0.000000 3.813400 
# 
# 
# High freq. dielectric constant tensor:
#      x y z
#    x 1.778990 0.000000 0.000000 
#    y 0.000000 1.791740 0.000000 
#    z 0.000000 0.000000 1.797520 
# 
# From -- ./inp_files/11723.got.cif
#   From: 2010.03.12/outbox.cif.g09.slc.cpg/sg66_6_cif.got.tgz:11723.got - 2010.04.10 21:57:39.
