data_PCOD8276822
_publ_section_title
;
Structure prediction by ZEFSAII (Michael W. Deem and Ramdas Pophale) SiO2 
 PCOD8276822
Probable space group: C C C M
;
_chemical_formula_sum "Si O2"
_cell_formula_units_Z 116
_cell_length_a 7.997377
_cell_length_b 24.110648
_cell_length_c 29.239300
_cell_angle_alpha 90.000000
_cell_angle_beta 90.000000
_cell_angle_gamma 90.000000
_cell_volume 5637.978602
_symmetry_space_group_name_H-M "C C C M"
_symmetry_group_IT_number 66
_symmetry_cell_setting 'orthorhombic'
loop_
_space_group_symop_operation_xyz
x,y,z
-x,-y,z
x,-y,1/2-z
-x,y,1/2-z
-x,-y,-z
x,y,-z
-x,y,1/2+z
x,-y,1/2+z
1/2+x,1/2+y,z
1/2-x,1/2-y,z
1/2+x,1/2-y,1/2-z
1/2-x,1/2+y,1/2-z
1/2-x,1/2-y,-z
1/2+x,1/2+y,-z
1/2-x,1/2+y,1/2+z
1/2+x,1/2-y,1/2+z
loop_
_atom_site_type_symbol
_atom_site_label
_atom_site_fract_x
_atom_site_fract_y
_atom_site_fract_z
Si Si1 0.933350 0.561046 0.550278
Si Si2 0.634075 0.695974 0.289293
Si Si3 0.609984 0.445674 0.108307
Si Si4 0.556406 0.334444 0.380364
Si Si5 0.551578 0.755686 0.948641
Si Si6 0.172682 0.592361 0.811063
Si Si7 0.934531 0.354154 0.384633
Si Si8 0.500000 0.000000 0.250000
O O1 0.933903 0.588584 0.500000
O O2 0.743879 0.560779 0.568104
O O3 0.000000 0.500000 0.547562
O O4 0.065233 0.592270 0.582801
O O5 0.500000 0.704794 0.250000
O O6 0.750000 0.750000 0.290798
O O7 0.541843 0.689688 0.337410
O O8 0.735686 0.638657 0.279721
O O9 0.500000 0.500000 0.103474
O O10 0.477810 0.396837 0.105914
O O11 0.702671 0.441563 0.156690
O O12 0.492265 0.300315 0.424210
O O13 0.753688 0.332237 0.369205
O O14 0.750000 0.750000 0.951582
O O15 0.485421 0.805723 0.916225
O O16 0.476272 0.761387 0.000000
O O17 0.038753 0.629331 0.839511
O O18 0.104624 0.542118 0.780924
#
# Coordination Sequence:
#
# PCOD8276822 Si02
#       8
#    16  16  16  16  16  16  16   4
#     4  10  21  36  56  87 123 163 215 266 316 391
#     4  11  26  44  67  96 132 175 227 279 340 410
#     4  10  22  39  61  87 124 171 217 268 336 399
#     4  10  22  39  63  93 127 166 212 275 334 397
#     4   9  18  34  59  93 125 161 207 255 315 389
#     4  10  26  42  64  96 127 168 219 283 332 413
#     4  10  20  38  68  88 126 169 211 266 335 394
#     4  12  28  40  70  96 130 168 230 274 348 412
#
# _framework density 20.574749000000001
#
# number of rings (size 3 to 8) (size 9 to 14) (size 15 to 20)
#    0.000    1.931    0.000    2.069    8.690    4.138 
#    0.000    0.000    0.000    8.690    0.000    0.000 
#    0.000    0.000    0.000    0.000    0.000    0.000 
#
# Total GULP energy -718794.014056 kJ/mol
# GULP energy per Si atom -12393.000242 kJ/mol
# Density = 2.052792 g / cm^3
# Si number density = 20.574749 Si / 1000 Ang^3
#
#
#
# Elastic Constant Matrix: (Units=GPa)
#
#
# Indices 1 2 3 4 5 6 
#
# 1 80.9611 46.2667 42.2083 0.0000 0.0000 0.0000
# 2 46.2667 126.4239 74.3569 0.0000 0.0000 0.0000
# 3 42.2083 74.3569 106.3100 0.0000 0.0000 0.0000
# 4 0.0000 0.0000 0.0000 38.1426 0.0000 0.0000
# 5 0.0000 0.0000 0.0000 0.0000 12.9817 0.0000
# 6 0.0000 0.0000 0.0000 0.0000 0.0000 25.5989
#
#
#
# Elastic Compliance Matrix: (Units=1/GPa)
#
#
# Indices 1 2 3 4 5 6 
#
# 1 0.016547 -0.003723 -0.003965 0.000000 0.000000 0.000000
# 2 -0.003723 0.014276 -0.008507 0.000000 0.000000 0.000000
# 3 -0.003965 -0.008507 0.016931 0.000000 0.000000 0.000000
# 4 0.000000 0.000000 0.000000 0.026217 0.000000 0.000000
# 5 0.000000 0.000000 0.000000 0.000000 0.077032 0.000000
# 6 0.000000 0.000000 0.000000 0.000000 0.000000 0.039064
#
#
# Mechanical properties :
#
#
# Convention : Reuss Voigt Hill
#
# Bulk Modulus (GPa) = 65.09371 71.03989 68.06680
# Shear Modulus (GPa) = 21.97053 25.40218 23.68636
#
# Velocity S-wave (km/s) = 3.27133 3.51754 3.39667
# Velocity P-wave (km/s) = 6.78050 7.14843 6.96689
#
# Compressibility (1/GPa) = 0.01536247
#
# Stress axis : x y z
#
# Youngs Moduli (GPa) = 60.43524 70.04897 59.06432
#
# Poissons Ratio (x) = 0.26081 0.23421
# Poissons Ratio (y) = 0.22501 0.50244
# Poissons Ratio (z) = 0.23965 0.59589
#
# Static dielectric constant tensor:
#      x y z
#    x 4.256150 0.000000 0.000000 
#    y 0.000000 3.805380 0.000000 
#    z 0.000000 0.000000 4.075220 
# 
# 
# High freq. dielectric constant tensor:
#      x y z
#    x 1.798230 0.000000 0.000000 
#    y 0.000000 1.822930 0.000000 
#    z 0.000000 0.000000 1.807790 
# 
# From -- ./inp_files/62915.got.cif
#   From: 2010.03.12/outbox.cif.g09.slc.cpg/sg66_32_cif.got.tgz:62915.got - 2010.04.10 21:57:39.
