data_PCOD8276639
_publ_section_title
;
Structure prediction by ZEFSAII (Michael W. Deem and Ramdas Pophale) SiO2 
 PCOD8276639
Probable space group: C C C M
;
_chemical_formula_sum "Si O2"
_cell_formula_units_Z 116
_cell_length_a 26.591865
_cell_length_b 24.105709
_cell_length_c 8.969396
_cell_angle_alpha 90.000000
_cell_angle_beta 90.000000
_cell_angle_gamma 90.000000
_cell_volume 5749.524189
_symmetry_space_group_name_H-M "C C C M"
_symmetry_group_IT_number 66
_symmetry_cell_setting 'orthorhombic'
loop_
_space_group_symop_operation_xyz
x,y,z
-x,-y,z
x,-y,1/2-z
-x,y,1/2-z
-x,-y,-z
x,y,-z
-x,y,1/2+z
x,-y,1/2+z
1/2+x,1/2+y,z
1/2-x,1/2-y,z
1/2+x,1/2-y,1/2-z
1/2-x,1/2+y,1/2-z
1/2-x,1/2-y,-z
1/2+x,1/2+y,-z
1/2-x,1/2+y,1/2+z
1/2+x,1/2-y,1/2+z
loop_
_atom_site_type_symbol
_atom_site_label
_atom_site_fract_x
_atom_site_fract_y
_atom_site_fract_z
Si Si1 0.500000 0.500000 0.250000
Si Si2 0.694077 0.743690 0.331081
Si Si3 0.185823 0.058420 0.322917
Si Si4 0.423337 0.406768 0.666809
Si Si5 0.218507 0.559754 0.677404
Si Si6 0.397453 0.695822 0.670327
Si Si7 0.643052 0.137641 0.170205
Si Si8 0.447076 0.814092 0.326791
O O1 0.536534 0.542464 0.337232
O O2 0.699281 0.721388 0.500000
O O3 0.750000 0.750000 0.259109
O O4 0.657674 0.699088 0.248860
O O5 0.669173 0.803145 0.323400
O O6 0.189707 0.056913 0.500000
O O7 0.130600 0.074967 0.268471
O O8 0.232629 0.092254 0.250892
O O9 0.197381 0.000000 0.250000
O O10 0.418045 0.385080 0.500000
O O11 0.434858 0.352679 0.766189
O O12 0.209161 0.500000 0.750000
O O13 0.224602 0.555211 0.500000
O O14 0.170641 0.595969 0.719669
O O15 0.386811 0.682139 0.500000
O O16 0.427523 0.751872 0.693771
O O17 0.587577 0.142921 0.237903
O O18 0.641094 0.115520 0.000000
O O19 0.500000 0.818822 0.250000
O O20 0.449735 0.830420 0.500000
#
# Coordination Sequence:
#
# PCOD8276639 Si02
#       8
#     4  16  16  16  16  16  16  16
#     4  12  26  48  64  90 110 156 212 282 330 380
#     4   9  19  36  58  86 120 158 197 240 299 367
#     4  10  20  37  57  80 109 147 192 242 295 358
#     4  11  25  42  62  83 112 151 199 256 318 376
#     4  11  22  37  59  89 123 160 200 244 291 351
#     4  10  23  39  58  86 118 153 199 249 301 364
#     4  10  20  36  59  88 122 159 198 243 296 357
#     4  10  21  39  61  88 119 155 198 246 296 354
#
# _framework density 20.175581999999999
#
# number of rings (size 3 to 8) (size 9 to 14) (size 15 to 20)
#    0.000    1.793    0.690    3.931    2.897    4.690 
#    0.000    0.000    0.000    0.414    0.000    2.897 
#    0.000    0.000    0.000    0.000    0.000    0.000 
#
# Total GULP energy -718738.692440 kJ/mol
# GULP energy per Si atom -12392.046421 kJ/mol
# Density = 2.012966 g / cm^3
# Si number density = 20.175582 Si / 1000 Ang^3
#
#
#
# Elastic Constant Matrix: (Units=GPa)
#
#
# Indices 1 2 3 4 5 6 
#
# 1 139.0130 28.1754 58.8589 0.0000 0.0000 0.0000
# 2 28.1754 49.0804 35.0757 0.0000 0.0000 0.0000
# 3 58.8589 35.0757 109.5861 0.0000 0.0000 0.0000
# 4 0.0000 0.0000 0.0000 27.4236 0.0000 0.0000
# 5 0.0000 0.0000 0.0000 0.0000 29.6906 0.0000
# 6 0.0000 0.0000 0.0000 0.0000 0.0000 -47.4385
#
#
#
# Elastic Compliance Matrix: (Units=1/GPa)
#
#
# Indices 1 2 3 4 5 6 
#
# 1 0.009515 -0.002347 -0.004359 0.000000 0.000000 0.000000
# 2 -0.002347 0.026996 -0.007380 0.000000 0.000000 0.000000
# 3 -0.004359 -0.007380 0.013829 0.000000 0.000000 0.000000
# 4 0.000000 0.000000 0.000000 0.036465 0.000000 0.000000
# 5 0.000000 0.000000 0.000000 0.000000 0.033681 0.000000
# 6 0.000000 0.000000 0.000000 0.000000 0.000000 -0.021080
#
#
# Mechanical properties :
#
#
# Convention : Reuss Voigt Hill
#
# Bulk Modulus (GPa) = 45.11161 60.21107 52.66134
# Shear Modulus (GPa) = 37.04571 13.63976 25.34273
#
# Velocity S-wave (km/s) = 4.28970 2.60292 3.54801
# Velocity P-wave (km/s) = 6.85153 6.24035 6.55307
#
# Compressibility (1/GPa) = 0.02216724
#
# Stress axis : x y z
#
# Youngs Moduli (GPa) = 105.09708 37.04192 72.31202
#
# Poissons Ratio (x) = 0.08693 0.31524
# Poissons Ratio (y) = 0.24664 0.53369
# Poissons Ratio (z) = 0.45816 0.27338
#
# Static dielectric constant tensor:
#      x y z
#    x 3.947650 0.000000 0.000000 
#    y 0.000000 3.561400 0.000000 
#    z 0.000000 0.000000 3.741170 
# 
# 
# High freq. dielectric constant tensor:
#      x y z
#    x 1.796650 0.000000 0.000000 
#    y 0.000000 1.770130 0.000000 
#    z 0.000000 0.000000 1.791870 
# 
# From -- ./inp_files/10592.got.cif
#   From: 2010.03.12/outbox.cif.g09.slc.cpg/sg66_6_cif.got.tgz:10592.got - 2010.04.10 21:57:39.
