data_PCOD8276561
_publ_section_title
;
Structure prediction by ZEFSAII (Michael W. Deem and Ramdas Pophale) SiO2 
 PCOD8276561
Probable space group: C C C M
;
_chemical_formula_sum "Si O2"
_cell_formula_units_Z 116
_cell_length_a 13.377559
_cell_length_b 23.864096
_cell_length_c 17.549112
_cell_angle_alpha 90.000000
_cell_angle_beta 90.000000
_cell_angle_gamma 90.000000
_cell_volume 5602.437343
_symmetry_space_group_name_H-M "C C C M"
_symmetry_group_IT_number 66
_symmetry_cell_setting 'orthorhombic'
loop_
_space_group_symop_operation_xyz
x,y,z
-x,-y,z
x,-y,1/2-z
-x,y,1/2-z
-x,-y,-z
x,y,-z
-x,y,1/2+z
x,-y,1/2+z
1/2+x,1/2+y,z
1/2-x,1/2-y,z
1/2+x,1/2-y,1/2-z
1/2-x,1/2+y,1/2-z
1/2-x,1/2-y,-z
1/2+x,1/2+y,-z
1/2-x,1/2+y,1/2+z
1/2+x,1/2-y,1/2+z
loop_
_atom_site_type_symbol
_atom_site_label
_atom_site_fract_x
_atom_site_fract_y
_atom_site_fract_z
Si Si1 0.775155 0.846574 0.177949
Si Si2 0.300885 0.943851 0.584189
Si Si3 0.545715 0.313933 0.589541
Si Si4 0.992890 0.404274 0.913935
Si Si5 0.000000 0.000000 0.250000
Si Si6 0.721890 0.932591 0.586283
Si Si7 0.563289 0.797888 0.175322
Si Si8 0.105570 0.107966 0.317531
O O1 0.733292 0.906947 0.154931
O O2 0.837348 0.825323 0.105151
O O3 0.683093 0.803270 0.194825
O O4 0.856011 0.855303 0.245720
O O5 0.273831 0.918662 0.500000
O O6 0.421492 0.952236 0.587764
O O7 0.246322 0.002928 0.593591
O O8 0.521167 0.320088 0.500000
O O9 0.531109 0.250423 0.616685
O O10 0.479517 0.358102 0.637819
O O11 0.889056 0.425950 0.878996
O O12 0.031200 0.354960 0.861962
O O13 0.976805 0.382775 0.000000
O O14 0.067592 0.955772 0.201069
O O15 0.724487 0.912027 0.500000
O O16 0.797435 0.893910 0.630685
O O17 0.500000 0.785681 0.250000
#
# Coordination Sequence:
#
# PCOD8276561 Si02
#       8
#    16  16  16  16   4  16  16  16
#     4  11  22  41  65  91 125 158 207 257 310 373
#     4   9  18  33  57  91 125 161 207 260 314 372
#     4  12  26  44  64  90 124 162 211 262 307 361
#     4   9  18  35  58  88 127 164 205 256 315 376
#     4  12  24  44  70  84 126 164 198 248 306 364
#     4  10  20  35  58  88 124 168 210 255 312 375
#     4  11  23  40  66  95 122 161 201 257 316 374
#     4  12  24  43  63  92 124 166 207 257 309 371
#
# _framework density 20.705273999999999
#
# number of rings (size 3 to 8) (size 9 to 14) (size 15 to 20)
#    0.000    1.379    1.379    4.552    0.000    3.862 
#    0.000    2.759    0.000    7.448    0.000    0.000 
#    0.000    0.000    0.000    0.000    0.000    0.000 
#
# Total GULP energy -718632.959158 kJ/mol
# GULP energy per Si atom -12390.223434 kJ/mol
# Density = 2.065815 g / cm^3
# Si number density = 20.705274 Si / 1000 Ang^3
#
#
#
# Elastic Constant Matrix: (Units=GPa)
#
#
# Indices 1 2 3 4 5 6 
#
# 1 100.1119 20.9950 60.7573 0.0000 0.0000 0.0000
# 2 20.9950 61.1156 33.4114 0.0000 0.0000 0.0000
# 3 60.7573 33.4114 93.8034 0.0000 0.0000 0.0000
# 4 0.0000 0.0000 0.0000 21.8505 0.0000 0.0000
# 5 0.0000 0.0000 0.0000 0.0000 38.6023 0.0000
# 6 0.0000 0.0000 0.0000 0.0000 0.0000 26.6592
#
#
#
# Elastic Compliance Matrix: (Units=1/GPa)
#
#
# Indices 1 2 3 4 5 6 
#
# 1 0.016461 0.000216 -0.010739 0.000000 0.000000 0.000000
# 2 0.000216 0.020322 -0.007378 0.000000 0.000000 0.000000
# 3 -0.010739 -0.007378 0.020244 0.000000 0.000000 0.000000
# 4 0.000000 0.000000 0.000000 0.045765 0.000000 0.000000
# 5 0.000000 0.000000 0.000000 0.000000 0.025905 0.000000
# 6 0.000000 0.000000 0.000000 0.000000 0.000000 0.037510
#
#
# Mechanical properties :
#
#
# Convention : Reuss Voigt Hill
#
# Bulk Modulus (GPa) = 47.11450 53.92868 50.52159
# Shear Modulus (GPa) = 23.91372 26.74689 25.33030
#
# Velocity S-wave (km/s) = 3.40215 3.59805 3.50147
# Velocity P-wave (km/s) = 6.18362 6.58511 6.38752
#
# Compressibility (1/GPa) = 0.02122489
#
# Stress axis : x y z
#
# Youngs Moduli (GPa) = 60.75032 49.20808 49.39681
#
# Poissons Ratio (x) = -0.01063 0.53046
# Poissons Ratio (y) = -0.01312 0.36446
# Poissons Ratio (z) = 0.65238 0.36307
#
# Static dielectric constant tensor:
#      x y z
#    x 4.030760 0.000000 0.000000 
#    y 0.000000 3.622370 0.000000 
#    z 0.000000 0.000000 3.725230 
# 
# 
# High freq. dielectric constant tensor:
#      x y z
#    x 1.823740 0.000000 0.000000 
#    y 0.000000 1.804350 0.000000 
#    z 0.000000 0.000000 1.805220 
# 
# From -- ./inp_files/39118.got.cif
#   From: 2010.03.12/outbox.cif.g09.slc.cpg/sg66_20_cif.got.tgz:39118.got - 2010.04.10 21:57:39.
