data_PCOD8276603
_publ_section_title
;
Structure prediction by ZEFSAII (Michael W. Deem and Ramdas Pophale) SiO2 
 PCOD8276603
Probable space group: C C C M
;
_chemical_formula_sum "Si O2"
_cell_formula_units_Z 60
_cell_length_a 5.136764
_cell_length_b 28.068810
_cell_length_c 24.143659
_cell_angle_alpha 90.000000
_cell_angle_beta 90.000000
_cell_angle_gamma 90.000000
_cell_volume 3481.101630
_symmetry_space_group_name_H-M "C C C M"
_symmetry_group_IT_number 66
_symmetry_cell_setting 'orthorhombic'
loop_
_space_group_symop_operation_xyz
x,y,z
-x,-y,z
x,-y,1/2-z
-x,y,1/2-z
-x,-y,-z
x,y,-z
-x,y,1/2+z
x,-y,1/2+z
1/2+x,1/2+y,z
1/2-x,1/2-y,z
1/2+x,1/2-y,1/2-z
1/2-x,1/2+y,1/2-z
1/2-x,1/2-y,-z
1/2+x,1/2+y,-z
1/2-x,1/2+y,1/2+z
1/2+x,1/2-y,1/2+z
loop_
_atom_site_type_symbol
_atom_site_label
_atom_site_fract_x
_atom_site_fract_y
_atom_site_fract_z
Si Si1 0.250000 0.750000 0.287461
Si Si2 0.254953 0.305658 0.435465
Si Si3 0.251133 0.834614 0.627521
Si Si4 0.238789 0.091075 0.783609
Si Si5 0.000000 0.000000 0.250000
O O1 0.500000 0.759115 0.250000
O O2 0.205954 0.796005 0.324940
O O3 0.211074 0.314506 0.500000
O O4 0.250000 0.250000 0.420931
O O5 0.527216 0.329157 0.418206
O O6 0.026728 0.330557 0.401987
O O7 0.248094 0.886903 0.655093
O O8 0.500000 0.101888 0.750000
O O9 0.000000 0.115504 0.750000
O O10 0.182870 0.033987 0.788327
#
# Coordination Sequence:
#
# PCOD8276603 Si02
#       5
#     8  16  16  16   4
#     4  12  22  32  47  76 115 148 180 210 262 330
#     4  11  22  38  55  77 110 150 198 239 269 317
#     4  12  21  36  54  80 109 154 186 225 281 324
#     4  10  20  36  56  81 116 144 181 220 273 340
#     4   8  22  36  58  84 116 144 182 228 270 338
#
# _framework density 17.235921000000001
#
# number of rings (size 3 to 8) (size 9 to 14) (size 15 to 20)
#    0.800    0.267    2.667    6.000    0.000    2.133 
#    0.000    0.000    0.000    0.000    0.000    5.600 
#    0.000    0.000    0.000    0.000    0.000    0.000 
#
# Total GULP energy -371987.780641 kJ/mol
# GULP energy per Si atom -12399.592688 kJ/mol
# Density = 1.719669 g / cm^3
# Si number density = 17.235921 Si / 1000 Ang^3
#
#
#
# Elastic Constant Matrix: (Units=GPa)
#
#
# Indices 1 2 3 4 5 6 
#
# 1 91.0094 11.2108 22.5768 0.0000 0.0000 0.0000
# 2 11.2108 94.2649 41.0110 0.0000 0.0000 0.0000
# 3 22.5768 41.0110 73.6927 0.0000 0.0000 0.0000
# 4 0.0000 0.0000 0.0000 -17.8561 0.0000 0.0000
# 5 0.0000 0.0000 0.0000 0.0000 29.2679 0.0000
# 6 0.0000 0.0000 0.0000 0.0000 0.0000 9.9352
#
#
#
# Elastic Compliance Matrix: (Units=1/GPa)
#
#
# Indices 1 2 3 4 5 6 
#
# 1 0.011895 0.000225 -0.003770 0.000000 0.000000 0.000000
# 2 0.000225 0.014002 -0.007861 0.000000 0.000000 0.000000
# 3 -0.003770 -0.007861 0.019100 0.000000 0.000000 0.000000
# 4 0.000000 0.000000 0.000000 -0.056003 0.000000 0.000000
# 5 0.000000 0.000000 0.000000 0.000000 0.034167 0.000000
# 6 0.000000 0.000000 0.000000 0.000000 0.000000 0.100652
#
#
# Mechanical properties :
#
#
# Convention : Reuss Voigt Hill
#
# Bulk Modulus (GPa) = 45.07440 45.39603 45.23522
# Shear Modulus (GPa) = 32.46358 16.54729 24.50543
#
# Velocity S-wave (km/s) = 4.34462 3.10182 3.77472
# Velocity P-wave (km/s) = 7.16769 6.26288 6.73051
#
# Compressibility (1/GPa) = 0.02218554
#
# Stress axis : x y z
#
# Youngs Moduli (GPa) = 84.06707 71.41986 52.35704
#
# Poissons Ratio (x) = -0.01610 0.19737
# Poissons Ratio (y) = -0.01895 0.41159
# Poissons Ratio (z) = 0.31691 0.56145
#
# Static dielectric constant tensor:
#      x y z
#    x 3.376440 0.000000 0.000000 
#    y 0.000000 3.101010 0.000000 
#    z 0.000000 0.000000 3.166220 
# 
# 
# High freq. dielectric constant tensor:
#      x y z
#    x 1.690590 0.000000 0.000000 
#    y 0.000000 1.641450 0.000000 
#    z 0.000000 0.000000 1.654120 
# 
# From -- ./inp_files/45708.got.cif
#   From: 2010.03.12/outbox.cif.g09.slc.cpg/sg66_23_cif.got.tgz:45708.got - 2010.04.10 21:57:39.
