data_PCOD8276252
_publ_section_title
;
Structure prediction by ZEFSAII (Michael W. Deem and Ramdas Pophale) SiO2 
 PCOD8276252
Probable space group: C C C M
;
_chemical_formula_sum "Si O2"
_cell_formula_units_Z 116
_cell_length_a 28.691401
_cell_length_b 9.064609
_cell_length_c 22.149521
_cell_angle_alpha 90.000000
_cell_angle_beta 90.000000
_cell_angle_gamma 90.000000
_cell_volume 5760.566171
_symmetry_space_group_name_H-M "C C C M"
_symmetry_group_IT_number 66
_symmetry_cell_setting 'orthorhombic'
loop_
_space_group_symop_operation_xyz
x,y,z
-x,-y,z
x,-y,1/2-z
-x,y,1/2-z
-x,-y,-z
x,y,-z
-x,y,1/2+z
x,-y,1/2+z
1/2+x,1/2+y,z
1/2-x,1/2-y,z
1/2+x,1/2-y,1/2-z
1/2-x,1/2+y,1/2-z
1/2-x,1/2-y,-z
1/2+x,1/2+y,-z
1/2-x,1/2+y,1/2+z
1/2+x,1/2-y,1/2+z
loop_
_atom_site_type_symbol
_atom_site_label
_atom_site_fract_x
_atom_site_fract_y
_atom_site_fract_z
Si Si1 0.706180 0.336705 0.821345
Si Si2 0.346961 0.839380 0.728138
Si Si3 0.813467 0.346687 0.068177
Si Si4 0.763946 0.594497 0.856876
Si Si5 0.000000 0.500000 0.250000
Si Si6 0.436020 0.154071 0.157116
Si Si7 0.004107 0.171948 0.931890
Si Si8 0.922202 0.389509 0.067167
O O1 0.750000 0.250000 0.793043
O O2 0.661298 0.283699 0.781620
O O3 0.701375 0.291705 0.891561
O O4 0.718886 0.511633 0.825381
O O5 0.298017 0.864967 0.696930
O O6 0.386788 0.783260 0.682281
O O7 0.365124 0.000000 0.750000
O O8 0.790652 0.496151 0.094097
O O9 0.868724 0.347617 0.071104
O O10 0.795679 0.323767 0.000000
O O11 0.750000 0.750000 0.887947
O O12 0.969094 0.613186 0.212131
O O13 0.456910 0.281380 0.115743
O O14 0.432327 0.010624 0.116314
O O15 0.954352 0.248315 0.918080
O O16 0.020508 0.210105 0.000000
O O17 0.000000 0.000000 0.922936
O O18 0.933894 0.449937 0.000000
#
# Coordination Sequence:
#
# PCOD8276252 Si02
#       8
#    16  16  16  16   4  16  16  16
#     4  10  21  38  63  86 115 162 211 252 303 379
#     4  12  21  37  63  92 121 157 209 259 306 364
#     4  10  21  39  62  90 123 160 204 261 317 371
#     4  11  24  39  63  89 122 160 209 261 310 376
#     4  12  24  32  64  92 128 168 202 250 304 368
#     4  12  22  38  64  94 128 162 207 257 310 368
#     4  10  22  42  69  95 126 166 210 258 312 378
#     4  10  19  38  67  94 121 161 214 256 301 370
#
# _framework density 20.13691
#
# number of rings (size 3 to 8) (size 9 to 14) (size 15 to 20)
#    0.000    1.241    6.207    0.828    0.000    3.862 
#    2.483    0.345    6.069    0.000    0.000    0.000 
#    0.000    0.000    0.000    0.000    0.000    0.000 
#
# Total GULP energy -718911.337774 kJ/mol
# GULP energy per Si atom -12395.023065 kJ/mol
# Density = 2.009108 g / cm^3
# Si number density = 20.136910 Si / 1000 Ang^3
#
#
#
# Elastic Constant Matrix: (Units=GPa)
#
#
# Indices 1 2 3 4 5 6 
#
# 1 101.1825 57.3527 61.5629 0.0000 0.0000 0.0000
# 2 57.3527 108.6749 50.6199 0.0000 0.0000 0.0000
# 3 61.5629 50.6199 128.1405 0.0000 0.0000 0.0000
# 4 0.0000 0.0000 0.0000 170.0654 0.0000 0.0000
# 5 0.0000 0.0000 0.0000 0.0000 47.5641 0.0000
# 6 0.0000 0.0000 0.0000 0.0000 0.0000 22.1518
#
#
#
# Elastic Compliance Matrix: (Units=1/GPa)
#
#
# Indices 1 2 3 4 5 6 
#
# 1 0.016863 -0.006282 -0.005620 0.000000 0.000000 0.000000
# 2 -0.006282 0.013617 -0.002361 0.000000 0.000000 0.000000
# 3 -0.005620 -0.002361 0.011437 0.000000 0.000000 0.000000
# 4 0.000000 0.000000 0.000000 0.005880 0.000000 0.000000
# 5 0.000000 0.000000 0.000000 0.000000 0.021024 0.000000
# 6 0.000000 0.000000 0.000000 0.000000 0.000000 0.045143
#
#
# Mechanical properties :
#
#
# Convention : Reuss Voigt Hill
#
# Bulk Modulus (GPa) = 74.67848 75.22986 74.95417
# Shear Modulus (GPa) = 34.02436 59.18710 46.60573
#
# Velocity S-wave (km/s) = 4.11500 5.42735 4.81608
# Velocity P-wave (km/s) = 7.72939 8.75872 8.26010
#
# Compressibility (1/GPa) = 0.01339074
#
# Stress axis : x y z
#
# Youngs Moduli (GPa) = 59.30058 73.43943 87.43714
#
# Poissons Ratio (x) = 0.46132 0.49141
# Poissons Ratio (y) = 0.37251 0.20645
# Poissons Ratio (z) = 0.33328 0.17340
#
# Static dielectric constant tensor:
#      x y z
#    x 5.054550 0.000000 0.000000 
#    y 0.000000 3.458150 0.000000 
#    z 0.000000 0.000000 3.917890 
# 
# 
# High freq. dielectric constant tensor:
#      x y z
#    x 1.787840 0.000000 0.000000 
#    y 0.000000 1.766960 0.000000 
#    z 0.000000 0.000000 1.797180 
# 
# From -- ./inp_files/60529.got.cif
#   From: 2010.03.12/outbox.cif.g09.slc.cpg/sg66_31_cif.got.tgz:60529.got - 2010.04.10 21:57:39.
