data_PCOD8276204
_publ_section_title
;
Structure prediction by ZEFSAII (Michael W. Deem and Ramdas Pophale) SiO2 
 PCOD8276204
Probable space group: C C C M
;
_chemical_formula_sum "Si O2"
_cell_formula_units_Z 64
_cell_length_a 10.327320
_cell_length_b 15.297828
_cell_length_c 18.848931
_cell_angle_alpha 90.000000
_cell_angle_beta 90.000000
_cell_angle_gamma 90.000000
_cell_volume 2977.859015
_symmetry_space_group_name_H-M "C C C M"
_symmetry_group_IT_number 66
_symmetry_cell_setting 'orthorhombic'
loop_
_space_group_symop_operation_xyz
x,y,z
-x,-y,z
x,-y,1/2-z
-x,y,1/2-z
-x,-y,-z
x,y,-z
-x,y,1/2+z
x,-y,1/2+z
1/2+x,1/2+y,z
1/2-x,1/2-y,z
1/2+x,1/2-y,1/2-z
1/2-x,1/2+y,1/2-z
1/2-x,1/2-y,-z
1/2+x,1/2+y,-z
1/2-x,1/2+y,1/2+z
1/2+x,1/2-y,1/2+z
loop_
_atom_site_type_symbol
_atom_site_label
_atom_site_fract_x
_atom_site_fract_y
_atom_site_fract_z
Si Si1 0.632434 0.548972 0.000000
Si Si2 0.639577 0.315349 0.624117
Si Si3 0.960164 0.661655 0.357953
Si Si4 0.691735 0.900551 0.769842
Si Si5 0.113859 0.568408 0.000000
O O1 0.500000 0.500000 0.000000
O O2 0.631706 0.606477 0.069823
O O3 0.749723 0.480703 0.000000
O O4 0.750000 0.250000 0.595743
O O5 0.505217 0.262386 0.632239
O O6 0.678071 0.355986 0.700497
O O7 0.850023 0.656353 0.298029
O O8 0.899507 0.628837 0.431089
O O9 0.081590 0.602275 0.331587
O O10 0.719286 0.000000 0.750000
O O11 0.000000 0.500000 0.000000
#
# Coordination Sequence:
#
# PCOD8276204 Si02
#       5
#     8  16  16  16   8
#     4  12  26  44  64 100 140 172 212 272 340 392
#     4  10  21  41  65  90 129 179 218 266 328 395
#     4  10  20  36  63  96 122 163 225 278 316 381
#     4  10  19  36  61  93 130 169 220 275 325 386
#     4  12  21  38  70  98 124 170 224 272 320 386
#
# _framework density 21.491951
#
# number of rings (size 3 to 8) (size 9 to 14) (size 15 to 20)
#    0.000    1.500    0.000    8.625    0.000    0.000 
#    0.000   30.000    0.000    1.500    0.000    0.000 
#    0.000    0.000    0.000    0.000    0.000    0.000 
#
# Total GULP energy -396821.018282 kJ/mol
# GULP energy per Si atom -12400.656821 kJ/mol
# Density = 2.144303 g / cm^3
# Si number density = 21.491951 Si / 1000 Ang^3
#
#
#
# Elastic Constant Matrix: (Units=GPa)
#
#
# Indices 1 2 3 4 5 6 
#
# 1 113.4911 84.0699 76.6301 0.0000 0.0000 0.0000
# 2 84.0699 147.2940 94.3306 0.0000 0.0000 0.0000
# 3 76.6301 94.3306 180.4159 0.0000 0.0000 0.0000
# 4 0.0000 0.0000 0.0000 21.0684 0.0000 0.0000
# 5 0.0000 0.0000 0.0000 0.0000-1890.2550 0.0000
# 6 0.0000 0.0000 0.0000 0.0000 0.0000 32.3515
#
#
#
# Elastic Compliance Matrix: (Units=1/GPa)
#
#
# Indices 1 2 3 4 5 6 
#
# 1 0.016345 -0.007341 -0.003104 0.000000 0.000000 0.000000
# 2 -0.007341 0.013504 -0.003942 0.000000 0.000000 0.000000
# 3 -0.003104 -0.003942 0.008923 0.000000 0.000000 0.000000
# 4 0.000000 0.000000 0.000000 0.047464 0.000000 0.000000
# 5 0.000000 0.000000 0.000000 0.000000 -0.000529 0.000000
# 6 0.000000 0.000000 0.000000 0.000000 0.000000 0.030910
#
#
# Mechanical properties :
#
#
# Convention : Reuss Voigt Hill
#
# Bulk Modulus (GPa) = 100.03866 105.69582 102.86724
# Shear Modulus (GPa) = 33.61885 -354.95565 -160.66840
#
# Velocity S-wave (km/s) = 3.95935 -12.86530 -8.65562
# Velocity P-wave (km/s) = 8.21888 13.09206 7.20597
#
# Compressibility (1/GPa) = 0.00999614
#
# Stress axis : x y z
#
# Youngs Moduli (GPa) = 61.17923 74.05097 112.07585
#
# Poissons Ratio (x) = 0.54364 0.34790
# Poissons Ratio (y) = 0.44914 0.44186
# Poissons Ratio (z) = 0.18991 0.29195
#
# Static dielectric constant tensor:
#      x y z
#    x 3.749010 0.000000 0.000000 
#    y 0.000000 3.948020 0.000000 
#    z 0.000000 0.000000 4.417700 
# 
# 
# High freq. dielectric constant tensor:
#      x y z
#    x 1.818390 0.000000 0.000000 
#    y 0.000000 1.849130 0.000000 
#    z 0.000000 0.000000 1.856320 
# 
# From -- ./inp_files/38049.got.cif
#   From: 2010.03.12/outbox.cif.g09.slc.cpg/sg66_20_cif.got.tgz:38049.got - 2010.04.10 21:57:39.
