data_PCOD8276305
_publ_section_title
;
Structure prediction by ZEFSAII (Michael W. Deem and Ramdas Pophale) SiO2 
 PCOD8276305
Probable space group: C C C M
;
_chemical_formula_sum "Si O2"
_cell_formula_units_Z 64
_cell_length_a 15.851165
_cell_length_b 11.550077
_cell_length_c 14.407304
_cell_angle_alpha 90.000000
_cell_angle_beta 90.000000
_cell_angle_gamma 90.000000
_cell_volume 2637.720571
_symmetry_space_group_name_H-M "C C C M"
_symmetry_group_IT_number 66
_symmetry_cell_setting 'orthorhombic'
loop_
_space_group_symop_operation_xyz
x,y,z
-x,-y,z
x,-y,1/2-z
-x,y,1/2-z
-x,-y,-z
x,y,-z
-x,y,1/2+z
x,-y,1/2+z
1/2+x,1/2+y,z
1/2-x,1/2-y,z
1/2+x,1/2-y,1/2-z
1/2-x,1/2+y,1/2-z
1/2-x,1/2-y,-z
1/2+x,1/2+y,-z
1/2-x,1/2+y,1/2+z
1/2+x,1/2-y,1/2+z
loop_
_atom_site_type_symbol
_atom_site_label
_atom_site_fract_x
_atom_site_fract_y
_atom_site_fract_z
Si Si1 0.875907 0.233726 0.894369
Si Si2 0.202700 0.009311 0.106928
Si Si3 0.567148 0.699189 0.893524
Si Si4 0.681365 0.844356 0.219487
O O1 0.845432 0.339078 0.828452
O O2 0.968393 0.183934 0.871617
O O3 0.813692 0.126057 0.875557
O O4 0.868662 0.278638 0.000000
O O5 0.118393 0.082337 0.133108
O O6 0.280135 0.036101 0.178149
O O7 0.227882 0.033569 0.000000
O O8 0.597154 0.810972 0.836361
O O9 0.581758 0.729161 0.000000
O O10 0.750000 0.750000 0.190845
#
# Coordination Sequence:
#
# PCOD8276305 Si02
#       4
#    16  16  16  16
#     4  10  20  34  54  82 118 158 198 244 299 357
#     4   9  18  34  56  83 116 156 200 244 298 364
#     4   9  17  31  53  82 116 151 189 240 297 350
#     4  10  20  32  51  81 120 157 195 242 297 354
#
# _framework density 24.263373999999999
#
# number of rings (size 3 to 8) (size 9 to 14) (size 15 to 20)
#    0.000    2.500    0.000    2.250    0.000   10.500 
#    0.000    5.000    0.000    3.000    0.000   29.750 
#    0.000   76.000    0.000    0.000    0.000    0.000 
#
# Total GULP energy -396642.791579 kJ/mol
# GULP energy per Si atom -12395.087237 kJ/mol
# Density = 2.420815 g / cm^3
# Si number density = 24.263374 Si / 1000 Ang^3
#
#
#
# Elastic Constant Matrix: (Units=GPa)
#
#
# Indices 1 2 3 4 5 6 
#
# 1 76.1111 25.5717 75.1552 0.0000 0.0000 0.0000
# 2 25.5717 62.6764 60.0956 0.0000 0.0000 0.0000
# 3 75.1552 60.0956 162.7852 0.0000 0.0000 0.0000
# 4 0.0000 0.0000 0.0000 34.4824 0.0000 0.0000
# 5 0.0000 0.0000 0.0000 0.0000 41.6802 0.0000
# 6 0.0000 0.0000 0.0000 0.0000 0.0000 30.0027
#
#
#
# Elastic Compliance Matrix: (Units=1/GPa)
#
#
# Indices 1 2 3 4 5 6 
#
# 1 0.024215 0.001300 -0.011660 0.000000 0.000000 0.000000
# 2 0.001300 0.024767 -0.009743 0.000000 0.000000 0.000000
# 3 -0.011660 -0.009743 0.015123 0.000000 0.000000 0.000000
# 4 0.000000 0.000000 0.000000 0.029000 0.000000 0.000000
# 5 0.000000 0.000000 0.000000 0.000000 0.023992 0.000000
# 6 0.000000 0.000000 0.000000 0.000000 0.000000 0.033330
#
#
# Mechanical properties :
#
#
# Convention : Reuss Voigt Hill
#
# Bulk Modulus (GPa) = 41.84309 69.24640 55.54475
# Shear Modulus (GPa) = 25.17625 30.61640 27.89633
#
# Velocity S-wave (km/s) = 3.22471 3.55609 3.39445
# Velocity P-wave (km/s) = 5.58102 6.74258 6.18911
#
# Compressibility (1/GPa) = 0.02389881
#
# Stress axis : x y z
#
# Youngs Moduli (GPa) = 41.29661 40.37680 66.12447
#
# Poissons Ratio (x) = -0.05248 0.77098
# Poissons Ratio (y) = -0.05368 0.64427
# Poissons Ratio (z) = 0.48150 0.39340
#
# Static dielectric constant tensor:
#      x y z
#    x 4.578900 0.000000 0.000000 
#    y 0.000000 4.039130 0.000000 
#    z 0.000000 0.000000 4.581900 
# 
# 
# High freq. dielectric constant tensor:
#      x y z
#    x 1.964140 0.000000 0.000000 
#    y 0.000000 1.933880 0.000000 
#    z 0.000000 0.000000 1.985780 
# 
# From -- ./inp_files/29561.got.cif
#   From: 2010.03.12/outbox.cif.g09.slc.cpg/sg66_15_cif.got.tgz:29561.got - 2010.04.10 21:57:39.
