data_PCOD8276288
_publ_section_title
;
Structure prediction by ZEFSAII (Michael W. Deem and Ramdas Pophale) SiO2 
 PCOD8276288
Probable space group: C C C M
;
_chemical_formula_sum "Si O2"
_cell_formula_units_Z 96
_cell_length_a 32.432704
_cell_length_b 18.684774
_cell_length_c 8.922891
_cell_angle_alpha 90.000000
_cell_angle_beta 90.000000
_cell_angle_gamma 90.000000
_cell_volume 5407.251820
_symmetry_space_group_name_H-M "C C C M"
_symmetry_group_IT_number 66
_symmetry_cell_setting 'orthorhombic'
loop_
_space_group_symop_operation_xyz
x,y,z
-x,-y,z
x,-y,1/2-z
-x,y,1/2-z
-x,-y,-z
x,y,-z
-x,y,1/2+z
x,-y,1/2+z
1/2+x,1/2+y,z
1/2-x,1/2-y,z
1/2+x,1/2-y,1/2-z
1/2-x,1/2+y,1/2-z
1/2-x,1/2-y,-z
1/2+x,1/2+y,-z
1/2-x,1/2+y,1/2+z
1/2+x,1/2-y,1/2+z
loop_
_atom_site_type_symbol
_atom_site_label
_atom_site_fract_x
_atom_site_fract_y
_atom_site_fract_z
Si Si1 0.374570 0.284202 0.674455
Si Si2 0.744248 0.073510 0.674850
Si Si3 0.589303 0.073635 0.823271
Si Si4 0.829238 0.073878 0.175858
Si Si5 0.162010 0.347390 0.826224
Si Si6 0.957699 0.714237 0.674009
O O1 0.368605 0.264906 0.500000
O O2 0.363679 0.366266 0.709241
O O3 0.344250 0.232890 0.767079
O O4 0.421903 0.269966 0.722383
O O5 0.752609 0.059943 0.500000
O O6 0.786264 0.099930 0.752620
O O7 0.709693 0.133467 0.700668
O O8 0.729108 0.000000 0.750000
O O9 0.633976 0.095825 0.761926
O O10 0.556108 0.134296 0.779000
O O11 0.574125 0.000000 0.750000
O O12 0.592933 0.063932 0.000000
O O13 0.844476 0.000000 0.250000
O O14 0.822903 0.061988 0.000000
O O15 0.150022 0.351825 0.000000
O O16 0.965958 0.718351 0.500000
O O17 0.000000 0.737104 0.750000
#
# Coordination Sequence:
#
# PCOD8276288 Si02
#       6
#    16  16  16  16  16  16
#     4   9  20  37  54  74 101 131 162 200 248 300
#     4  10  20  32  47  71 102 135 172 211 247 285
#     4  10  20  33  49  71 102 137 174 213 248 287
#     4  10  20  35  55  76  99 129 164 202 247 298
#     4  10  20  32  49  73 101 136 175 212 248 287
#     4   9  19  35  53  74  99 127 161 202 247 297
#
# _framework density 17.753935999999999
#
# number of rings (size 3 to 8) (size 9 to 14) (size 15 to 20)
#    0.000    2.333    0.000    4.500    0.000    9.667 
#    0.000    5.000    0.000    0.500    0.000    3.500 
#    0.000    0.000    0.000    0.000    0.000    0.000 
#
# Total GULP energy -595239.287036 kJ/mol
# GULP energy per Si atom -12400.818480 kJ/mol
# Density = 1.771353 g / cm^3
# Si number density = 17.753936 Si / 1000 Ang^3
#
#
#
# Elastic Constant Matrix: (Units=GPa)
#
#
# Indices 1 2 3 4 5 6 
#
# 1 119.5040 81.3325 56.0576 0.0000 0.0000 0.0000
# 2 81.3325 108.3242 50.9047 0.0000 0.0000 0.0000
# 3 56.0576 50.9047 91.9282 0.0000 0.0000 0.0000
# 4 0.0000 0.0000 0.0000 11.4633 0.0000 0.0000
# 5 0.0000 0.0000 0.0000 0.0000 26.6546 0.0000
# 6 0.0000 0.0000 0.0000 0.0000 0.0000 18.8597
#
#
#
# Elastic Compliance Matrix: (Units=1/GPa)
#
#
# Indices 1 2 3 4 5 6 
#
# 1 0.018601 -0.011674 -0.004879 0.000000 0.000000 0.000000
# 2 -0.011674 0.019805 -0.003848 0.000000 0.000000 0.000000
# 3 -0.004879 -0.003848 0.015984 0.000000 0.000000 0.000000
# 4 0.000000 0.000000 0.000000 0.087235 0.000000 0.000000
# 5 0.000000 0.000000 0.000000 0.000000 0.037517 0.000000
# 6 0.000000 0.000000 0.000000 0.000000 0.000000 0.053023
#
#
# Mechanical properties :
#
#
# Convention : Reuss Voigt Hill
#
# Bulk Modulus (GPa) = 73.58995 77.37176 75.48086
# Shear Modulus (GPa) = 18.01826 20.15964 19.08895
#
# Velocity S-wave (km/s) = 3.18919 3.37338 3.28257
# Velocity P-wave (km/s) = 7.42301 7.67122 7.54814
#
# Compressibility (1/GPa) = 0.01358881
#
# Stress axis : x y z
#
# Youngs Moduli (GPa) = 53.75924 50.49272 62.56209
#
# Poissons Ratio (x) = 0.58944 0.30523
# Poissons Ratio (y) = 0.62757 0.24075
# Poissons Ratio (z) = 0.26228 0.19431
#
# Static dielectric constant tensor:
#      x y z
#    x 3.207670 0.000000 0.000000 
#    y 0.000000 3.231610 0.000000 
#    z 0.000000 0.000000 3.391080 
# 
# 
# High freq. dielectric constant tensor:
#      x y z
#    x 1.674760 0.000000 0.000000 
#    y 0.000000 1.675210 0.000000 
#    z 0.000000 0.000000 1.699350 
# 
# From -- ./inp_files/10239.got.cif
#   From: 2010.03.12/outbox.cif.g09.slc.cpg/sg66_6_cif.got.tgz:10239.got - 2010.04.10 21:57:39.
