data_PCOD8276392
_publ_section_title
;
Structure prediction by ZEFSAII (Michael W. Deem and Ramdas Pophale) SiO2 
 PCOD8276392
Probable space group: C C C M
;
_chemical_formula_sum "Si O2"
_cell_formula_units_Z 52
_cell_length_a 13.802067
_cell_length_b 24.092517
_cell_length_c 8.617281
_cell_angle_alpha 90.000000
_cell_angle_beta 90.000000
_cell_angle_gamma 90.000000
_cell_volume 2865.474582
_symmetry_space_group_name_H-M "C C C M"
_symmetry_group_IT_number 66
_symmetry_cell_setting 'orthorhombic'
loop_
_space_group_symop_operation_xyz
x,y,z
-x,-y,z
x,-y,1/2-z
-x,y,1/2-z
-x,-y,-z
x,y,-z
-x,y,1/2+z
x,-y,1/2+z
1/2+x,1/2+y,z
1/2-x,1/2-y,z
1/2+x,1/2-y,1/2-z
1/2-x,1/2+y,1/2-z
1/2-x,1/2-y,-z
1/2+x,1/2+y,-z
1/2-x,1/2+y,1/2+z
1/2+x,1/2-y,1/2+z
loop_
_atom_site_type_symbol
_atom_site_label
_atom_site_fract_x
_atom_site_fract_y
_atom_site_fract_z
Si Si1 0.896468 0.735503 0.316207
Si Si2 0.685690 0.553716 0.670734
Si Si3 0.775427 0.169091 0.682260
Si Si4 0.500000 0.500000 0.750000
O O1 0.900031 0.742116 0.500000
O O2 0.864890 0.793946 0.241533
O O3 0.821911 0.687184 0.270295
O O4 0.000000 0.717984 0.250000
O O5 0.737392 0.500000 0.750000
O O6 0.729467 0.565195 0.500000
O O7 0.702548 0.605413 0.782654
O O8 0.570609 0.540251 0.650277
O O9 0.761483 0.177951 0.500000
#
# Coordination Sequence:
#
# PCOD8276392 Si02
#       4
#    16  16  16   4
#     4  11  22  38  58  81 110 145 185 229 276 326
#     4  10  20  34  52  77 110 144 181 223 270 323
#     4  11  22  37  56  82 113 146 185 227 274 328
#     4   8  22  32  54  76 112 140 186 216 272 320
#
# _framework density 18.147081
#
# number of rings (size 3 to 8) (size 9 to 14) (size 15 to 20)
#    0.923    0.615    0.000    8.769    2.154    0.000 
#    0.000    0.000    0.000    0.923    0.000    6.462 
#    0.000    0.000    0.000    0.000    0.000    0.000 
#
# Total GULP energy -322271.734509 kJ/mol
# GULP energy per Si atom -12395.066712 kJ/mol
# Density = 1.810578 g / cm^3
# Si number density = 18.147081 Si / 1000 Ang^3
#
#
#
# Elastic Constant Matrix: (Units=GPa)
#
#
# Indices 1 2 3 4 5 6 
#
# 1 72.6373 24.7610 6.7736 0.0000 0.0000 0.0000
# 2 24.7610 120.6384 19.0464 0.0000 0.0000 0.0000
# 3 6.7736 19.0464 118.4566 0.0000 0.0000 0.0000
# 4 0.0000 0.0000 0.0000 24.3290 0.0000 0.0000
# 5 0.0000 0.0000 0.0000 0.0000 27.8533 0.0000
# 6 0.0000 0.0000 0.0000 0.0000 0.0000 14.9737
#
#
#
# Elastic Compliance Matrix: (Units=1/GPa)
#
#
# Indices 1 2 3 4 5 6 
#
# 1 0.014818 -0.002983 -0.000368 0.000000 0.000000 0.000000
# 2 -0.002983 0.009106 -0.001294 0.000000 0.000000 0.000000
# 3 -0.000368 -0.001294 0.008671 0.000000 0.000000 0.000000
# 4 0.000000 0.000000 0.000000 0.041103 0.000000 0.000000
# 5 0.000000 0.000000 0.000000 0.000000 0.035902 0.000000
# 6 0.000000 0.000000 0.000000 0.000000 0.000000 0.066784
#
#
# Mechanical properties :
#
#
# Convention : Reuss Voigt Hill
#
# Bulk Modulus (GPa) = 42.90759 45.87715 44.39237
# Shear Modulus (GPa) = 25.84751 30.84129 28.34440
#
# Velocity S-wave (km/s) = 3.77813 4.12699 3.95641
# Velocity P-wave (km/s) = 6.53667 6.93145 6.73695
#
# Compressibility (1/GPa) = 0.02330590
#
# Stress axis : x y z
#
# Youngs Moduli (GPa) = 67.48405 109.82019 115.32806
#
# Poissons Ratio (x) = 0.32764 0.04240
# Poissons Ratio (y) = 0.20133 0.14918
# Poissons Ratio (z) = 0.02481 0.14205
#
# Static dielectric constant tensor:
#      x y z
#    x 2.849610 0.000000 0.000000 
#    y 0.000000 3.235300 0.000000 
#    z 0.000000 0.000000 3.387780 
# 
# 
# High freq. dielectric constant tensor:
#      x y z
#    x 1.673060 0.000000 0.000000 
#    y 0.000000 1.701140 0.000000 
#    z 0.000000 0.000000 1.724730 
# 
# From -- ./inp_files/4728.got.cif
#   From: 2010.03.12/outbox.cif.g09.slc.cpg/sg66_3_cif.got.tgz:4728.got - 2010.04.10 21:57:39.
