data_PCOD8276612
_publ_section_title
;
Structure prediction by ZEFSAII (Michael W. Deem and Ramdas Pophale) SiO2 
 PCOD8276612
Probable space group: C C C M
;
_chemical_formula_sum "Si O2"
_cell_formula_units_Z 112
_cell_length_a 23.790750
_cell_length_b 14.417458
_cell_length_c 16.537655
_cell_angle_alpha 90.000000
_cell_angle_beta 90.000000
_cell_angle_gamma 90.000000
_cell_volume 5672.451038
_symmetry_space_group_name_H-M "C C C M"
_symmetry_group_IT_number 66
_symmetry_cell_setting 'orthorhombic'
loop_
_space_group_symop_operation_xyz
x,y,z
-x,-y,z
x,-y,1/2-z
-x,y,1/2-z
-x,-y,-z
x,y,-z
-x,y,1/2+z
x,-y,1/2+z
1/2+x,1/2+y,z
1/2-x,1/2-y,z
1/2+x,1/2-y,1/2-z
1/2-x,1/2+y,1/2-z
1/2-x,1/2-y,-z
1/2+x,1/2+y,-z
1/2-x,1/2+y,1/2+z
1/2+x,1/2-y,1/2+z
loop_
_atom_site_type_symbol
_atom_site_label
_atom_site_fract_x
_atom_site_fract_y
_atom_site_fract_z
Si Si1 0.971358 0.248743 0.670239
Si Si2 0.166128 0.925851 0.316879
Si Si3 0.947821 0.938224 0.906626
Si Si4 0.147821 0.560479 0.174047
Si Si5 0.778104 0.412571 0.594858
Si Si6 0.965702 0.413046 0.093515
Si Si7 0.347427 0.215543 0.208528
O O1 0.963265 0.169321 0.603691
O O2 0.912573 0.301252 0.685895
O O3 0.000000 0.204378 0.750000
O O4 0.016324 0.321613 0.639536
O O5 0.107440 0.961298 0.354295
O O6 0.211841 0.915601 0.387582
O O7 0.161308 0.824596 0.275785
O O8 0.185837 0.000000 0.250000
O O9 0.934787 0.959152 0.000000
O O10 0.000000 0.000000 0.875687
O O11 0.126017 0.500000 0.250000
O O12 0.198725 0.509586 0.129271
O O13 0.099851 0.571094 0.107562
O O14 0.167466 0.660618 0.208645
O O15 0.788731 0.403034 0.500000
O O16 0.808187 0.324149 0.636712
O O17 0.000000 0.500000 0.128266
O O18 0.978682 0.399212 0.000000
#
# Coordination Sequence:
#
# PCOD8276612 Si02
#       7
#    16  16  16  16  16  16  16
#     4  11  22  36  60  88 120 163 204 250 299 365
#     4  11  24  40  65  93 120 160 207 257 306 371
#     4  10  24  42  63  91 124 157 200 258 311 359
#     4  10  20  36  57  82 117 155 200 246 299 363
#     4  11  23  40  63  90 123 159 200 255 316 367
#     4  11  22  33  52  83 121 161 200 243 297 357
#     4  10  22  38  61  89 118 158 205 253 302 361
#
# _framework density 19.74455
#
# number of rings (size 3 to 8) (size 9 to 14) (size 15 to 20)
#    0.000    1.429    1.429    4.714    4.000    5.143 
#    0.000    0.000    0.000    3.429    0.000    0.000 
#    0.000    0.000    0.000    0.000    0.000    0.000 
#
# Total GULP energy -694541.733766 kJ/mol
# GULP energy per Si atom -12402.530960 kJ/mol
# Density = 1.969961 g / cm^3
# Si number density = 19.744550 Si / 1000 Ang^3
#
#
#
# Elastic Constant Matrix: (Units=GPa)
#
#
# Indices 1 2 3 4 5 6 
#
# 1 110.6507 31.2299 23.4400 0.0000 0.0000 0.0000
# 2 31.2299 97.5242 32.4099 0.0000 0.0000 0.0000
# 3 23.4400 32.4099 78.3609 0.0000 0.0000 0.0000
# 4 0.0000 0.0000 0.0000 25.3787 0.0000 0.0000
# 5 0.0000 0.0000 0.0000 0.0000 30.0032 0.0000
# 6 0.0000 0.0000 0.0000 0.0000 0.0000 27.4762
#
#
#
# Elastic Compliance Matrix: (Units=1/GPa)
#
#
# Indices 1 2 3 4 5 6 
#
# 1 0.010191 -0.002609 -0.001969 0.000000 0.000000 0.000000
# 2 -0.002609 0.012556 -0.004413 0.000000 0.000000 0.000000
# 3 -0.001969 -0.004413 0.015176 0.000000 0.000000 0.000000
# 4 0.000000 0.000000 0.000000 0.039403 0.000000 0.000000
# 5 0.000000 0.000000 0.000000 0.000000 0.033330 0.000000
# 6 0.000000 0.000000 0.000000 0.000000 0.000000 0.036395
#
#
# Mechanical properties :
#
#
# Convention : Reuss Voigt Hill
#
# Bulk Modulus (GPa) = 50.14927 51.18839 50.66883
# Shear Modulus (GPa) = 29.12410 29.86867 29.49639
#
# Velocity S-wave (km/s) = 3.84480 3.89363 3.86929
# Velocity P-wave (km/s) = 6.72043 6.79672 6.75868
#
# Compressibility (1/GPa) = 0.01994047
#
# Stress axis : x y z
#
# Youngs Moduli (GPa) = 98.12589 79.64474 65.89521
#
# Poissons Ratio (x) = 0.20779 0.12977
# Poissons Ratio (y) = 0.25601 0.29077
# Poissons Ratio (z) = 0.19325 0.35144
#
# Static dielectric constant tensor:
#      x y z
#    x 3.643860 0.000000 0.000000 
#    y 0.000000 3.618080 0.000000 
#    z 0.000000 0.000000 3.423590 
# 
# 
# High freq. dielectric constant tensor:
#      x y z
#    x 1.777960 0.000000 0.000000 
#    y 0.000000 1.771420 0.000000 
#    z 0.000000 0.000000 1.760160 
# 
# From -- ./inp_files/32426.got.cif
#   From: 2010.03.12/outbox.cif.g09.slc.cpg/sg66_17_cif.got.tgz:32426.got - 2010.04.10 21:57:39.
