data_PCOD8276309
_publ_section_title
;
Structure prediction by ZEFSAII (Michael W. Deem and Ramdas Pophale) SiO2 
 PCOD8276309
Probable space group: C C C M
;
_chemical_formula_sum "Si O2"
_cell_formula_units_Z 56
_cell_length_a 22.865352
_cell_length_b 8.985772
_cell_length_c 14.660542
_cell_angle_alpha 90.000000
_cell_angle_beta 90.000000
_cell_angle_gamma 90.000000
_cell_volume 3012.196592
_symmetry_space_group_name_H-M "C C C M"
_symmetry_group_IT_number 66
_symmetry_cell_setting 'orthorhombic'
loop_
_space_group_symop_operation_xyz
x,y,z
-x,-y,z
x,-y,1/2-z
-x,y,1/2-z
-x,-y,-z
x,y,-z
-x,y,1/2+z
x,-y,1/2+z
1/2+x,1/2+y,z
1/2-x,1/2-y,z
1/2+x,1/2-y,1/2-z
1/2-x,1/2+y,1/2-z
1/2-x,1/2-y,-z
1/2+x,1/2+y,-z
1/2-x,1/2+y,1/2+z
1/2+x,1/2-y,1/2+z
loop_
_atom_site_type_symbol
_atom_site_label
_atom_site_fract_x
_atom_site_fract_y
_atom_site_fract_z
Si Si1 0.967652 0.343145 0.000000
Si Si2 0.088781 0.273172 0.000000
Si Si3 0.259817 0.076233 0.343085
Si Si4 0.605675 0.979515 0.355491
Si Si5 0.206968 0.107179 0.000000
O O1 0.928838 0.343755 0.093324
O O2 0.000000 0.500000 0.000000
O O3 0.019781 0.217835 0.000000
O O4 0.096130 0.365946 0.092799
O O5 0.137804 0.145611 0.000000
O O6 0.250000 0.250000 0.338477
O O7 0.326789 0.054062 0.367012
O O8 0.241792 0.000000 0.250000
O O9 0.217910 0.996680 0.414238
O O10 0.586093 0.000000 0.250000
O O11 0.250000 0.250000 0.000000
#
# Coordination Sequence:
#
# PCOD8276309 Si02
#       5
#     8   8  16  16   8
#     4   8  17  31  47  81 115 139 196 232 274 325
#     4  10  20  32  53  83 114 152 185 239 282 335
#     4  11  23  36  58  87 115 153 193 235 291 350
#     4   9  17  31  55  80 114 148 194 239 279 326
#     4  12  20  37  58  81 121 151 186 235 293 340
#
# _framework density 18.591083999999999
#
# number of rings (size 3 to 8) (size 9 to 14) (size 15 to 20)
#    0.000    2.286    2.857    2.143    4.000    5.143 
#    0.000    0.000    0.000    3.429    0.000    2.000 
#    0.000    0.000    0.000    0.000    0.000    0.000 
#
# Total GULP energy -346874.782913 kJ/mol
# GULP energy per Si atom -12388.385104 kJ/mol
# Density = 1.854877 g / cm^3
# Si number density = 18.591084 Si / 1000 Ang^3
#
#
#
# Elastic Constant Matrix: (Units=GPa)
#
#
# Indices 1 2 3 4 5 6 
#
# 1 125.1185 32.4627 77.0256 0.0000 0.0000 0.0000
# 2 32.4627 91.8822 51.2965 0.0000 0.0000 0.0000
# 3 77.0256 51.2965 170.6349 0.0000 0.0000 0.0000
# 4 0.0000 0.0000 0.0000 29.0088 0.0000 0.0000
# 5 0.0000 0.0000 0.0000 0.0000 56.7991 0.0000
# 6 0.0000 0.0000 0.0000 0.0000 0.0000 50.8481
#
#
#
# Elastic Compliance Matrix: (Units=1/GPa)
#
#
# Indices 1 2 3 4 5 6 
#
# 1 0.011209 -0.001364 -0.004650 0.000000 0.000000 0.000000
# 2 -0.001364 0.013245 -0.003366 0.000000 0.000000 0.000000
# 3 -0.004650 -0.003366 0.008971 0.000000 0.000000 0.000000
# 4 0.000000 0.000000 0.000000 0.034472 0.000000 0.000000
# 5 0.000000 0.000000 0.000000 0.000000 0.017606 0.000000
# 6 0.000000 0.000000 0.000000 0.000000 0.000000 0.019666
#
#
# Mechanical properties :
#
#
# Convention : Reuss Voigt Hill
#
# Bulk Modulus (GPa) = 68.18874 78.80059 73.49466
# Shear Modulus (GPa) = 38.81484 42.45458 40.63471
#
# Velocity S-wave (km/s) = 4.57422 4.78389 4.68023
# Velocity P-wave (km/s) = 8.04089 8.54355 8.29603
#
# Compressibility (1/GPa) = 0.01466518
#
# Stress axis : x y z
#
# Youngs Moduli (GPa) = 89.21582 75.50263 111.46903
#
# Poissons Ratio (x) = 0.10301 0.51828
# Poissons Ratio (y) = 0.12172 0.37517
# Poissons Ratio (z) = 0.41481 0.25412
#
# Static dielectric constant tensor:
#      x y z
#    x 2.883730 0.000000 0.000000 
#    y 0.000000 3.106100 0.000000 
#    z 0.000000 0.000000 3.755900 
# 
# 
# High freq. dielectric constant tensor:
#      x y z
#    x 1.737870 0.000000 0.000000 
#    y 0.000000 1.671990 0.000000 
#    z 0.000000 0.000000 1.738540 
# 
# From -- ./inp_files/24055.got.cif
#   From: 2010.03.12/outbox.cif.g09.slc.cpg/sg66_13_cif.got.tgz:24055.got - 2010.04.10 21:57:39.
