data_PCOD8276565
_publ_section_title
;
Structure prediction by ZEFSAII (Michael W. Deem and Ramdas Pophale) SiO2 
 PCOD8276565
Probable space group: C C C M
;
_chemical_formula_sum "Si O2"
_cell_formula_units_Z 64
_cell_length_a 7.719751
_cell_length_b 14.741921
_cell_length_c 27.655794
_cell_angle_alpha 90.000000
_cell_angle_beta 90.000000
_cell_angle_gamma 90.000000
_cell_volume 3147.338857
_symmetry_space_group_name_H-M "C C C M"
_symmetry_group_IT_number 66
_symmetry_cell_setting 'orthorhombic'
loop_
_space_group_symop_operation_xyz
x,y,z
-x,-y,z
x,-y,1/2-z
-x,y,1/2-z
-x,-y,-z
x,y,-z
-x,y,1/2+z
x,-y,1/2+z
1/2+x,1/2+y,z
1/2-x,1/2-y,z
1/2+x,1/2-y,1/2-z
1/2-x,1/2+y,1/2-z
1/2-x,1/2-y,-z
1/2+x,1/2+y,-z
1/2-x,1/2+y,1/2+z
1/2+x,1/2-y,1/2+z
loop_
_atom_site_type_symbol
_atom_site_label
_atom_site_fract_x
_atom_site_fract_y
_atom_site_fract_z
Si Si1 0.874661 0.416832 0.446874
Si Si2 0.550110 0.762453 0.385526
Si Si3 0.120427 0.331498 0.206256
Si Si4 0.632100 0.576309 0.136571
O O1 0.797835 0.391980 0.500000
O O2 0.733890 0.458117 0.410297
O O3 0.000000 0.500000 0.453887
O O4 0.963124 0.325871 0.425892
O O5 0.750000 0.750000 0.398123
O O6 0.523851 0.804672 0.332833
O O7 0.456589 0.666422 0.383500
O O8 0.250000 0.250000 0.222160
O O9 0.242072 0.408880 0.182795
O O10 0.000000 0.367249 0.250000
O O11 0.500000 0.500000 0.154162
#
# Coordination Sequence:
#
# PCOD8276565 Si02
#       4
#    16  16  16  16
#     4  10  21  37  58  85 116 152 195 241 289 343
#     4  10  20  35  59  85 113 152 188 233 291 344
#     4   9  18  34  60  85 109 145 189 237 290 345
#     4  10  21  37  59  86 118 154 193 237 287 343
#
# _framework density 20.334638000000002
#
# number of rings (size 3 to 8) (size 9 to 14) (size 15 to 20)
#    0.000    2.250    0.000    4.500    0.000    3.000 
#    0.000    0.000    0.000  118.500    0.000    0.000 
#    0.000    0.000    0.000    0.000    0.000    0.000 
#
# Total GULP energy -396558.378519 kJ/mol
# GULP energy per Si atom -12392.449329 kJ/mol
# Density = 2.028836 g / cm^3
# Si number density = 20.334638 Si / 1000 Ang^3
#
#
#
# Elastic Constant Matrix: (Units=GPa)
#
#
# Indices 1 2 3 4 5 6 
#
# 1 103.0789 27.5329 60.7202 0.0000 0.0000 0.0000
# 2 27.5329 95.0806 43.4758 0.0000 0.0000 0.0000
# 3 60.7202 43.4758 152.4608 0.0000 0.0000 0.0000
# 4 0.0000 0.0000 0.0000 15.7165 0.0000 0.0000
# 5 0.0000 0.0000 0.0000 0.0000 15.6278 0.0000
# 6 0.0000 0.0000 0.0000 0.0000 0.0000 31.9755
#
#
#
# Elastic Compliance Matrix: (Units=1/GPa)
#
#
# Indices 1 2 3 4 5 6 
#
# 1 0.012881 -0.001592 -0.004676 0.000000 0.000000 0.000000
# 2 -0.001592 0.012291 -0.002871 0.000000 0.000000 0.000000
# 3 -0.004676 -0.002871 0.009240 0.000000 0.000000 0.000000
# 4 0.000000 0.000000 0.000000 0.063627 0.000000 0.000000
# 5 0.000000 0.000000 0.000000 0.000000 0.063989 0.000000
# 6 0.000000 0.000000 0.000000 0.000000 0.000000 0.031274
#
#
# Mechanical properties :
#
#
# Convention : Reuss Voigt Hill
#
# Bulk Modulus (GPa) = 61.97960 68.23087 65.10524
# Shear Modulus (GPa) = 23.04592 27.25672 25.15132
#
# Velocity S-wave (km/s) = 3.37015 3.66513 3.52073
# Velocity P-wave (km/s) = 6.75943 7.17898 6.97236
#
# Compressibility (1/GPa) = 0.01613434
#
# Stress axis : x y z
#
# Youngs Moduli (GPa) = 77.63328 81.35971 108.22368
#
# Poissons Ratio (x) = 0.12951 0.50607
# Poissons Ratio (y) = 0.12358 0.31071
# Poissons Ratio (z) = 0.36303 0.23358
#
# Static dielectric constant tensor:
#      x y z
#    x 2.981660 0.000000 0.000000 
#    y 0.000000 3.284640 0.000000 
#    z 0.000000 0.000000 3.830080 
# 
# 
# High freq. dielectric constant tensor:
#      x y z
#    x 1.797920 0.000000 0.000000 
#    y 0.000000 1.787390 0.000000 
#    z 0.000000 0.000000 1.795890 
# 
# From -- ./inp_files/54931.got.cif
#   From: 2010.03.12/outbox.cif.g09.slc.cpg/sg66_28_cif.got.tgz:54931.got - 2010.04.10 21:57:39.
