data_PCOD8276487
_publ_section_title
;
Structure prediction by ZEFSAII (Michael W. Deem and Ramdas Pophale) SiO2 
 PCOD8276487
Probable space group: C C C M
;
_chemical_formula_sum "Si O2"
_cell_formula_units_Z 116
_cell_length_a 26.437542
_cell_length_b 26.452415
_cell_length_c 9.050058
_cell_angle_alpha 90.000000
_cell_angle_beta 90.000000
_cell_angle_gamma 90.000000
_cell_volume 6329.038896
_symmetry_space_group_name_H-M "C C C M"
_symmetry_group_IT_number 66
_symmetry_cell_setting 'orthorhombic'
loop_
_space_group_symop_operation_xyz
x,y,z
-x,-y,z
x,-y,1/2-z
-x,y,1/2-z
-x,-y,-z
x,y,-z
-x,y,1/2+z
x,-y,1/2+z
1/2+x,1/2+y,z
1/2-x,1/2-y,z
1/2+x,1/2-y,1/2-z
1/2-x,1/2+y,1/2-z
1/2-x,1/2-y,-z
1/2+x,1/2+y,-z
1/2-x,1/2+y,1/2+z
1/2+x,1/2-y,1/2+z
loop_
_atom_site_type_symbol
_atom_site_label
_atom_site_fract_x
_atom_site_fract_y
_atom_site_fract_z
Si Si1 0.951444 0.217103 0.674430
Si Si2 0.425002 0.820794 0.169715
Si Si3 0.259013 0.365158 0.667690
Si Si4 0.078315 0.579959 0.666144
Si Si5 0.843435 0.182472 0.670347
Si Si6 0.681832 0.779951 0.663901
Si Si7 0.318858 0.051215 0.322824
Si Si8 0.000000 0.500000 0.250000
O O1 0.958623 0.224228 0.500000
O O2 0.946670 0.271573 0.750566
O O3 0.903102 0.181594 0.709519
O O4 0.000000 0.190243 0.750000
O O5 0.444764 0.870102 0.256150
O O6 0.363905 0.820176 0.177337
O O7 0.443969 0.822431 0.000000
O O8 0.270529 0.379083 0.500000
O O9 0.313202 0.362793 0.749407
O O10 0.233916 0.309884 0.684973
O O11 0.221115 0.406860 0.733279
O O12 0.096236 0.592875 0.500000
O O13 0.125258 0.561753 0.763552
O O14 0.035898 0.536362 0.653207
O O15 0.833705 0.174474 0.500000
O O16 0.821915 0.237209 0.713500
O O17 0.679915 0.754832 0.500000
O O18 0.321768 0.047780 0.500000
O O19 0.298463 0.000000 0.250000
#
# Coordination Sequence:
#
# PCOD8276487 Si02
#       8
#    16  16  16  16  16  16  16   4
#     4  10  21  37  54  77 108 143 182 220 262 312
#     4  10  20  36  56  76 102 135 176 223 272 325
#     4  10  20  35  54  77 106 141 175 212 264 329
#     4  12  25  41  59  76  99 133 178 231 286 337
#     4  10  21  33  49  79 111 137 175 222 260 311
#     4   9  17  32  51  73 103 141 173 208 260 322
#     4  11  23  41  61  82 106 136 179 225 276 332
#     4  12  30  44  56  74 102 136 182 236 296 332
#
# _framework density 18.328216999999999
#
# number of rings (size 3 to 8) (size 9 to 14) (size 15 to 20)
#    0.000    1.655    2.069    2.690    0.966    7.172 
#    0.000    0.000    0.000    0.000    0.000    0.000 
#    0.000    0.552    0.000    6.069    0.000    4.414 
#
# Total GULP energy -719135.137201 kJ/mol
# GULP energy per Si atom -12398.881676 kJ/mol
# Density = 1.828650 g / cm^3
# Si number density = 18.328217 Si / 1000 Ang^3
#
#
#
# Elastic Constant Matrix: (Units=GPa)
#
#
# Indices 1 2 3 4 5 6 
#
# 1 119.7952 40.4139 57.7634 0.0000 0.0000 0.0000
# 2 40.4139 50.0215 27.7307 0.0000 0.0000 0.0000
# 3 57.7634 27.7307 99.3140 0.0000 0.0000 0.0000
# 4 0.0000 0.0000 0.0000 23.8782 0.0000 0.0000
# 5 0.0000 0.0000 0.0000 0.0000 24.6463 0.0000
# 6 0.0000 0.0000 0.0000 0.0000 0.0000 27.8934
#
#
#
# Elastic Compliance Matrix: (Units=1/GPa)
#
#
# Indices 1 2 3 4 5 6 
#
# 1 0.013841 -0.007950 -0.005830 0.000000 0.000000 0.000000
# 2 -0.007950 0.028219 -0.003255 0.000000 0.000000 0.000000
# 3 -0.005830 -0.003255 0.014369 0.000000 0.000000 0.000000
# 4 0.000000 0.000000 0.000000 0.041879 0.000000 0.000000
# 5 0.000000 0.000000 0.000000 0.000000 0.040574 0.000000
# 6 0.000000 0.000000 0.000000 0.000000 0.000000 0.035851
#
#
# Mechanical properties :
#
#
# Convention : Reuss Voigt Hill
#
# Bulk Modulus (GPa) = 44.72794 57.88296 51.30545
# Shear Modulus (GPa) = 23.12051 24.83176 23.97614
#
# Velocity S-wave (km/s) = 3.55557 3.68481 3.62077
# Velocity P-wave (km/s) = 6.42752 7.05362 6.74784
#
# Compressibility (1/GPa) = 0.02235739
#
# Stress axis : x y z
#
# Youngs Moduli (GPa) = 72.24908 35.43653 69.59369
#
# Poissons Ratio (x) = 0.28173 0.40575
# Poissons Ratio (y) = 0.57441 0.22655
# Poissons Ratio (z) = 0.42124 0.11536
#
# Static dielectric constant tensor:
#      x y z
#    x 3.603580 0.000000 0.000000 
#    y 0.000000 3.179850 0.000000 
#    z 0.000000 0.000000 3.402160 
# 
# 
# High freq. dielectric constant tensor:
#      x y z
#    x 1.713420 0.000000 0.000000 
#    y 0.000000 1.667960 0.000000 
#    z 0.000000 0.000000 1.718760 
# 
# From -- ./inp_files/10633.got.cif
#   From: 2010.03.12/outbox.cif.g09.slc.cpg/sg66_6_cif.got.tgz:10633.got - 2010.04.10 21:57:39.
