data_PCOD8276068
_publ_section_title
;
Structure prediction by ZEFSAII (Michael W. Deem and Ramdas Pophale) SiO2 
 PCOD8276068
Probable space group: C C C M
;
_chemical_formula_sum "Si O2"
_cell_formula_units_Z 112
_cell_length_a 16.336824
_cell_length_b 19.511817
_cell_length_c 18.147684
_cell_angle_alpha 90.000000
_cell_angle_beta 90.000000
_cell_angle_gamma 90.000000
_cell_volume 5784.776082
_symmetry_space_group_name_H-M "C C C M"
_symmetry_group_IT_number 66
_symmetry_cell_setting 'orthorhombic'
loop_
_space_group_symop_operation_xyz
x,y,z
-x,-y,z
x,-y,1/2-z
-x,y,1/2-z
-x,-y,-z
x,y,-z
-x,y,1/2+z
x,-y,1/2+z
1/2+x,1/2+y,z
1/2-x,1/2-y,z
1/2+x,1/2-y,1/2-z
1/2-x,1/2+y,1/2-z
1/2-x,1/2-y,-z
1/2+x,1/2+y,-z
1/2-x,1/2+y,1/2+z
1/2+x,1/2-y,1/2+z
loop_
_atom_site_type_symbol
_atom_site_label
_atom_site_fract_x
_atom_site_fract_y
_atom_site_fract_z
Si Si1 0.687625 0.310755 0.915851
Si Si2 0.913683 0.227670 0.215083
Si Si3 0.915534 0.676253 0.086414
Si Si4 0.264641 0.088725 0.085961
Si Si5 0.554136 0.877645 0.684068
Si Si6 0.305347 0.063717 0.413735
Si Si7 0.327122 0.295807 0.852550
O O1 0.750000 0.250000 0.896858
O O2 0.605803 0.302749 0.866021
O O3 0.734087 0.381616 0.900605
O O4 0.657398 0.305973 0.000000
O O5 0.905106 0.310165 0.219849
O O6 0.840387 0.198483 0.265347
O O7 0.000000 0.202703 0.250000
O O8 0.845035 0.626196 0.118404
O O9 0.904480 0.755520 0.111766
O O10 0.000244 0.649104 0.116886
O O11 0.920372 0.672068 0.000000
O O12 0.184152 0.126624 0.118195
O O13 0.265583 0.009092 0.106862
O O14 0.261933 0.099789 0.000000
O O15 0.500000 0.913790 0.750000
O O16 0.620748 0.926527 0.644983
O O17 0.335476 0.065622 0.500000
O O18 0.250000 0.250000 0.875940
#
# Coordination Sequence:
#
# PCOD8276068 Si02
#       7
#    16  16  16  16  16  16  16
#     4  10  20  35  59  86 111 149 198 243 285 345
#     4  11  21  36  55  84 116 147 185 242 301 342
#     4  10  19  34  56  83 113 148 191 233 278 343
#     4   9  20  37  57  84 115 150 192 236 285 343
#     4  11  21  34  53  84 121 156 189 234 293 355
#     4  10  21  38  60  85 118 155 196 245 294 350
#     4  10  19  34  59  82 110 150 190 237 285 338
#
# _framework density 19.361163999999999
#
# number of rings (size 3 to 8) (size 9 to 14) (size 15 to 20)
#    0.000    1.857    4.286    1.286    0.000    2.857 
#    0.000    5.714    0.000    1.714    0.000    3.000 
#    0.000    0.000    0.000    0.000    0.000    0.000 
#
# Total GULP energy -694095.353875 kJ/mol
# GULP energy per Si atom -12394.559891 kJ/mol
# Density = 1.931710 g / cm^3
# Si number density = 19.361164 Si / 1000 Ang^3
#
#
#
# Elastic Constant Matrix: (Units=GPa)
#
#
# Indices 1 2 3 4 5 6 
#
# 1 44.9871 36.5896 39.5884 0.0000 0.0000 0.0000
# 2 36.5896 127.2511 41.7398 0.0000 0.0000 0.0000
# 3 39.5884 41.7398 91.7470 0.0000 0.0000 0.0000
# 4 0.0000 0.0000 0.0000 20.3708 0.0000 0.0000
# 5 0.0000 0.0000 0.0000 0.0000 46.7337 0.0000
# 6 0.0000 0.0000 0.0000 0.0000 0.0000 17.7485
#
#
#
# Elastic Compliance Matrix: (Units=1/GPa)
#
#
# Indices 1 2 3 4 5 6 
#
# 1 0.040459 -0.006943 -0.014299 0.000000 0.000000 0.000000
# 2 -0.006943 0.010428 -0.001748 0.000000 0.000000 0.000000
# 3 -0.014299 -0.001748 0.017865 0.000000 0.000000 0.000000
# 4 0.000000 0.000000 0.000000 0.049090 0.000000 0.000000
# 5 0.000000 0.000000 0.000000 0.000000 0.021398 0.000000
# 6 0.000000 0.000000 0.000000 0.000000 0.000000 0.056343
#
#
# Mechanical properties :
#
#
# Convention : Reuss Voigt Hill
#
# Bulk Modulus (GPa) = 43.91570 55.53564 49.72567
# Shear Modulus (GPa) = 20.06791 26.70843 23.38817
#
# Velocity S-wave (km/s) = 3.22297 3.71817 3.47939
# Velocity P-wave (km/s) = 6.04828 6.86872 6.47152
#
# Compressibility (1/GPa) = 0.02277090
#
# Stress axis : x y z
#
# Youngs Moduli (GPa) = 24.71655 95.89189 55.97571
#
# Poissons Ratio (x) = 0.66580 0.80039
# Poissons Ratio (y) = 0.17161 0.09787
# Poissons Ratio (z) = 0.35342 0.16766
#
# Static dielectric constant tensor:
#      x y z
#    x 3.427440 0.000000 0.000000 
#    y 0.000000 3.523840 0.000000 
#    z 0.000000 0.000000 3.649770 
# 
# 
# High freq. dielectric constant tensor:
#      x y z
#    x 1.732300 0.000000 0.000000 
#    y 0.000000 1.731460 0.000000 
#    z 0.000000 0.000000 1.767500 
# 
# From -- ./inp_files/41974.got.cif
#   From: 2010.03.12/outbox.cif.g09.slc.cpg/sg66_21_cif.got.tgz:41974.got - 2010.04.10 21:57:39.
