data_PCOD8276453
_publ_section_title
;
Structure prediction by ZEFSAII (Michael W. Deem and Ramdas Pophale) SiO2 
 PCOD8276453
Probable space group: C C C M
;
_chemical_formula_sum "Si O2"
_cell_formula_units_Z 88
_cell_length_a 16.445797
_cell_length_b 10.572986
_cell_length_c 25.453844
_cell_angle_alpha 90.000000
_cell_angle_beta 90.000000
_cell_angle_gamma 90.000000
_cell_volume 4425.944467
_symmetry_space_group_name_H-M "C C C M"
_symmetry_group_IT_number 66
_symmetry_cell_setting 'orthorhombic'
loop_
_space_group_symop_operation_xyz
x,y,z
-x,-y,z
x,-y,1/2-z
-x,y,1/2-z
-x,-y,-z
x,y,-z
-x,y,1/2+z
x,-y,1/2+z
1/2+x,1/2+y,z
1/2-x,1/2-y,z
1/2+x,1/2-y,1/2-z
1/2-x,1/2+y,1/2-z
1/2-x,1/2-y,-z
1/2+x,1/2+y,-z
1/2-x,1/2+y,1/2+z
1/2+x,1/2-y,1/2+z
loop_
_atom_site_type_symbol
_atom_site_label
_atom_site_fract_x
_atom_site_fract_y
_atom_site_fract_z
Si Si1 0.479335 0.134962 0.939025
Si Si2 0.399447 0.647368 0.937496
Si Si3 0.165528 0.703513 0.621634
Si Si4 0.259625 0.014562 0.310605
Si Si5 0.087049 0.041879 0.850174
Si Si6 0.250000 0.750000 0.124322
O O1 0.532905 0.251805 0.917561
O O2 0.384135 0.150742 0.927482
O O3 0.500000 0.000000 0.912223
O O4 0.496612 0.126799 0.000000
O O5 0.416303 0.512389 0.909975
O O6 0.313947 0.694559 0.916434
O O7 0.398391 0.627227 0.000000
O O8 0.250000 0.750000 0.596703
O O9 0.190696 0.600247 0.664273
O O10 0.107346 0.808746 0.648917
O O11 0.290426 0.144226 0.337554
O O12 0.281320 0.000000 0.250000
O O13 0.161692 0.018400 0.317839
O O14 0.000000 0.000000 0.823777
#
# Coordination Sequence:
#
# PCOD8276453 Si02
#       6
#    16  16  16  16  16   8
#     4  10  20  34  57  86 123 164 201 246 303 361
#     4  10  20  35  58  89 124 165 204 245 302 378
#     4  10  21  38  60  86 124 156 201 255 299 362
#     4  10  23  39  64  86 116 160 206 260 321 369
#     4  10  20  37  60  90 120 156 199 255 305 367
#     4  10  21  38  60  88 118 162 209 250 314 376
#
# _framework density 19.882760999999999
#
# number of rings (size 3 to 8) (size 9 to 14) (size 15 to 20)
#    0.000    2.000    1.818    1.364    3.818    1.818 
#    0.000    9.091    0.000    4.909    0.000    0.000 
#    0.000    0.000    0.000    0.000    0.000    0.000 
#
# Total GULP energy -545140.666148 kJ/mol
# GULP energy per Si atom -12389.560594 kJ/mol
# Density = 1.983751 g / cm^3
# Si number density = 19.882761 Si / 1000 Ang^3
#
#
#
# Elastic Constant Matrix: (Units=GPa)
#
#
# Indices 1 2 3 4 5 6 
#
# 1 83.3432 34.3518 7.7649 0.0000 0.0000 0.0000
# 2 34.3518 126.5535 25.8756 0.0000 0.0000 0.0000
# 3 7.7649 25.8756 61.2147 0.0000 0.0000 0.0000
# 4 0.0000 0.0000 0.0000 15.3622 0.0000 0.0000
# 5 0.0000 0.0000 0.0000 0.0000 22.9396 0.0000
# 6 0.0000 0.0000 0.0000 0.0000 0.0000 33.6647
#
#
#
# Elastic Compliance Matrix: (Units=1/GPa)
#
#
# Indices 1 2 3 4 5 6 
#
# 1 0.013512 -0.003631 -0.000179 0.000000 0.000000 0.000000
# 2 -0.003631 0.009625 -0.003608 0.000000 0.000000 0.000000
# 3 -0.000179 -0.003608 0.017884 0.000000 0.000000 0.000000
# 4 0.000000 0.000000 0.000000 0.065095 0.000000 0.000000
# 5 0.000000 0.000000 0.000000 0.000000 0.043593 0.000000
# 6 0.000000 0.000000 0.000000 0.000000 0.000000 0.029705
#
#
# Mechanical properties :
#
#
# Convention : Reuss Voigt Hill
#
# Bulk Modulus (GPa) = 38.19051 45.23291 41.71171
# Shear Modulus (GPa) = 24.63329 27.93458 26.28393
#
# Velocity S-wave (km/s) = 3.52366 3.75235 3.63980
# Velocity P-wave (km/s) = 5.98368 6.44769 6.22001
#
# Compressibility (1/GPa) = 0.02618451
#
# Stress axis : x y z
#
# Youngs Moduli (GPa) = 74.00889 103.89491 55.91670
#
# Poissons Ratio (x) = 0.37725 0.01001
# Poissons Ratio (y) = 0.26873 0.20175
# Poissons Ratio (z) = 0.01325 0.37485
#
# Static dielectric constant tensor:
#      x y z
#    x 3.816830 0.000000 0.000000 
#    y 0.000000 4.034330 0.000000 
#    z 0.000000 0.000000 3.236710 
# 
# 
# High freq. dielectric constant tensor:
#      x y z
#    x 1.782660 0.000000 0.000000 
#    y 0.000000 1.791810 0.000000 
#    z 0.000000 0.000000 1.742990 
# 
# From -- ./inp_files/58018.got.cif
#   From: 2010.03.12/outbox.cif.g09.slc.cpg/sg66_30_cif.got.tgz:58018.got - 2010.04.10 21:57:39.
