data_PCOD8276391
_publ_section_title
;
Structure prediction by ZEFSAII (Michael W. Deem and Ramdas Pophale) SiO2 
 PCOD8276391
Probable space group: C C C M
;
_chemical_formula_sum "Si O2"
_cell_formula_units_Z 64
_cell_length_a 8.197764
_cell_length_b 19.119381
_cell_length_c 19.497146
_cell_angle_alpha 90.000000
_cell_angle_beta 90.000000
_cell_angle_gamma 90.000000
_cell_volume 3055.908054
_symmetry_space_group_name_H-M "C C C M"
_symmetry_group_IT_number 66
_symmetry_cell_setting 'orthorhombic'
loop_
_space_group_symop_operation_xyz
x,y,z
-x,-y,z
x,-y,1/2-z
-x,y,1/2-z
-x,-y,-z
x,y,-z
-x,y,1/2+z
x,-y,1/2+z
1/2+x,1/2+y,z
1/2-x,1/2-y,z
1/2+x,1/2-y,1/2-z
1/2-x,1/2+y,1/2-z
1/2-x,1/2-y,-z
1/2+x,1/2+y,-z
1/2-x,1/2+y,1/2+z
1/2+x,1/2-y,1/2+z
loop_
_atom_site_type_symbol
_atom_site_label
_atom_site_fract_x
_atom_site_fract_y
_atom_site_fract_z
Si Si1 0.046216 0.113220 0.424391
Si Si2 0.239726 0.512143 0.424028
Si Si3 0.664282 0.931689 0.212914
Si Si4 0.111364 0.195720 0.810335
O O1 0.070059 0.146268 0.500000
O O2 0.010238 0.177134 0.372761
O O3 0.207164 0.067663 0.404786
O O4 0.897641 0.060180 0.425069
O O5 0.157152 0.514008 0.500000
O O6 0.121684 0.545744 0.366095
O O7 0.500000 0.905846 0.250000
O O8 0.801677 0.873281 0.218745
O O9 0.737519 0.000000 0.250000
O O10 0.250000 0.250000 0.834901
O O11 0.000000 0.228395 0.750000
#
# Coordination Sequence:
#
# PCOD8276391 Si02
#       4
#    16  16  16  16
#     4   8  15  29  52  80 103 130 175 224 264 307
#     4   8  14  28  51  78 106 134 171 219 265 308
#     4  10  20  34  52  77 108 139 175 218 261 313
#     4  11  22  35  53  76 106 143 178 217 266 318
#
# _framework density 20.943038999999999
#
# number of rings (size 3 to 8) (size 9 to 14) (size 15 to 20)
#    0.000    2.750    0.000    3.750    0.000    3.000 
#    0.000    2.500    0.000    2.250    0.000    0.000 
#    0.000    0.000    0.000    0.000    0.000    0.000 
#
# Total GULP energy -396496.400446 kJ/mol
# GULP energy per Si atom -12390.512514 kJ/mol
# Density = 2.089537 g / cm^3
# Si number density = 20.943039 Si / 1000 Ang^3
#
#
#
# Elastic Constant Matrix: (Units=GPa)
#
#
# Indices 1 2 3 4 5 6 
#
# 1 57.6357 4.4511 31.7650 0.0000 0.0000 0.0000
# 2 4.4511 56.4089 20.2323 0.0000 0.0000 0.0000
# 3 31.7650 20.2323 147.5838 0.0000 0.0000 0.0000
# 4 0.0000 0.0000 0.0000 35.8393 0.0000 0.0000
# 5 0.0000 0.0000 0.0000 0.0000 8.0295 0.0000
# 6 0.0000 0.0000 0.0000 0.0000 0.0000 25.3057
#
#
#
# Elastic Compliance Matrix: (Units=1/GPa)
#
#
# Indices 1 2 3 4 5 6 
#
# 1 0.019686 -0.000035 -0.004232 0.000000 0.000000 0.000000
# 2 -0.000035 0.018645 -0.002548 0.000000 0.000000 0.000000
# 3 -0.004232 -0.002548 0.008036 0.000000 0.000000 0.000000
# 4 0.000000 0.000000 0.000000 0.027902 0.000000 0.000000
# 5 0.000000 0.000000 0.000000 0.000000 0.124540 0.000000
# 6 0.000000 0.000000 0.000000 0.000000 0.000000 0.039517
#
#
# Mechanical properties :
#
#
# Convention : Reuss Voigt Hill
#
# Bulk Modulus (GPa) = 30.54892 41.61390 36.08141
# Shear Modulus (GPa) = 19.02088 27.51358 23.26723
#
# Velocity S-wave (km/s) = 3.01694 3.62848 3.33675
# Velocity P-wave (km/s) = 5.17245 6.12108 5.66665
#
# Compressibility (1/GPa) = 0.03273438
#
# Stress axis : x y z
#
# Youngs Moduli (GPa) = 50.79862 53.63508 124.43899
#
# Poissons Ratio (x) = 0.00190 0.52664
# Poissons Ratio (y) = 0.00180 0.31712
# Poissons Ratio (z) = 0.21499 0.13668
#
# Static dielectric constant tensor:
#      x y z
#    x 3.535550 0.000000 0.000000 
#    y 0.000000 3.519250 0.000000 
#    z 0.000000 0.000000 4.448040 
# 
# 
# High freq. dielectric constant tensor:
#      x y z
#    x 1.798120 0.000000 0.000000 
#    y 0.000000 1.785290 0.000000 
#    z 0.000000 0.000000 1.834120 
# 
# From -- ./inp_files/43364.got.cif
#   From: 2010.03.12/outbox.cif.g09.slc.cpg/sg66_22_cif.got.tgz:43364.got - 2010.04.10 21:57:39.
