data_PCOD8276483
_publ_section_title
;
Structure prediction by ZEFSAII (Michael W. Deem and Ramdas Pophale) SiO2 
 PCOD8276483
Probable space group: C C C M
;
_chemical_formula_sum "Si O2"
_cell_formula_units_Z 104
_cell_length_a 17.007734
_cell_length_b 19.070225
_cell_length_c 16.250336
_cell_angle_alpha 90.000000
_cell_angle_beta 90.000000
_cell_angle_gamma 90.000000
_cell_volume 5270.655333
_symmetry_space_group_name_H-M "C C C M"
_symmetry_group_IT_number 66
_symmetry_cell_setting 'orthorhombic'
loop_
_space_group_symop_operation_xyz
x,y,z
-x,-y,z
x,-y,1/2-z
-x,y,1/2-z
-x,-y,-z
x,y,-z
-x,y,1/2+z
x,-y,1/2+z
1/2+x,1/2+y,z
1/2-x,1/2-y,z
1/2+x,1/2-y,1/2-z
1/2-x,1/2+y,1/2-z
1/2-x,1/2-y,-z
1/2+x,1/2+y,-z
1/2-x,1/2+y,1/2+z
1/2+x,1/2-y,1/2+z
loop_
_atom_site_type_symbol
_atom_site_label
_atom_site_fract_x
_atom_site_fract_y
_atom_site_fract_z
Si Si1 0.885176 0.511122 0.593630
Si Si2 0.173881 0.797705 0.835062
Si Si3 0.573444 0.352383 0.297304
Si Si4 0.519036 0.891683 0.155608
Si Si5 0.882199 0.000000 0.750000
Si Si6 0.490749 0.256605 0.594590
Si Si7 0.711164 0.442231 0.094983
O O1 0.889108 0.486376 0.500000
O O2 0.904158 0.441615 0.647353
O O3 0.801101 0.542227 0.616120
O O4 0.947331 0.572680 0.607740
O O5 0.250000 0.750000 0.829139
O O6 0.155996 0.827210 0.742562
O O7 0.095801 0.757767 0.864186
O O8 0.193067 0.859915 0.898515
O O9 0.500000 0.316693 0.250000
O O10 0.565821 0.436050 0.285338
O O11 0.553116 0.320959 0.387246
O O12 0.500000 0.883303 0.250000
O O13 0.535062 0.815261 0.118282
O O14 0.835100 0.018173 0.833088
O O15 0.472812 0.260267 0.500000
O O16 0.690144 0.465434 0.000000
#
# Coordination Sequence:
#
# PCOD8276483 Si02
#       7
#    16  16  16  16   8  16  16
#     4  10  20  35  53  78 115 153 194 243 296 359
#     4  10  20  37  60  86 116 147 190 248 306 357
#     4   9  20  39  58  84 110 148 191 235 293 355
#     4  11  21  33  54  81 113 156 199 241 289 361
#     4  10  21  38  62  81 112 150 188 248 295 356
#     4  11  22  37  59  87 121 156 199 251 304 366
#     4  10  22  36  55  83 113 148 192 242 300 359
#
# _framework density 19.731891000000001
#
# number of rings (size 3 to 8) (size 9 to 14) (size 15 to 20)
#    0.000    1.846    0.000    5.769    2.154    3.077 
#    2.769    0.000    0.000    6.000    0.000    0.000 
#    0.000    0.000    0.000    0.000    0.000    0.000 
#
# Total GULP energy -644216.487912 kJ/mol
# GULP energy per Si atom -12388.778614 kJ/mol
# Density = 1.968698 g / cm^3
# Si number density = 19.731891 Si / 1000 Ang^3
#
#
#
# Elastic Constant Matrix: (Units=GPa)
#
#
# Indices 1 2 3 4 5 6 
#
# 1 71.5724 34.3943 33.7591 0.0000 0.0000 0.0000
# 2 34.3943 116.4464 37.1832 0.0000 0.0000 0.0000
# 3 33.7591 37.1832 67.5676 0.0000 0.0000 0.0000
# 4 0.0000 0.0000 0.0000 32.0468 0.0000 0.0000
# 5 0.0000 0.0000 0.0000 0.0000 66.5421 0.0000
# 6 0.0000 0.0000 0.0000 0.0000 0.0000 32.8459
#
#
#
# Elastic Compliance Matrix: (Units=1/GPa)
#
#
# Indices 1 2 3 4 5 6 
#
# 1 0.019194 -0.003163 -0.007850 0.000000 0.000000 0.000000
# 2 -0.003163 0.010940 -0.004440 0.000000 0.000000 0.000000
# 3 -0.007850 -0.004440 0.021165 0.000000 0.000000 0.000000
# 4 0.000000 0.000000 0.000000 0.031204 0.000000 0.000000
# 5 0.000000 0.000000 0.000000 0.000000 0.015028 0.000000
# 6 0.000000 0.000000 0.000000 0.000000 0.000000 0.030445
#
#
# Mechanical properties :
#
#
# Convention : Reuss Voigt Hill
#
# Bulk Modulus (GPa) = 49.03298 51.80662 50.41980
# Shear Modulus (GPa) = 30.17877 36.30361 33.24119
#
# Velocity S-wave (km/s) = 3.91505 4.29399 4.10889
# Velocity P-wave (km/s) = 6.73353 7.13420 6.93676
#
# Compressibility (1/GPa) = 0.02039444
#
# Stress axis : x y z
#
# Youngs Moduli (GPa) = 52.09898 91.41128 47.24733
#
# Poissons Ratio (x) = 0.28912 0.37087
# Poissons Ratio (y) = 0.16478 0.20977
# Poissons Ratio (z) = 0.40895 0.40586
#
# Static dielectric constant tensor:
#      x y z
#    x 3.602080 0.000000 0.000000 
#    y 0.000000 3.905140 0.000000 
#    z 0.000000 0.000000 3.784960 
# 
# 
# High freq. dielectric constant tensor:
#      x y z
#    x 1.757310 0.000000 0.000000 
#    y 0.000000 1.773990 0.000000 
#    z 0.000000 0.000000 1.769910 
# 
# From -- ./inp_files/30184.got.cif
#   From: 2010.03.12/outbox.cif.g09.slc.cpg/sg66_16_cif.got.tgz:30184.got - 2010.04.10 21:57:39.
