data_PCOD8276153
_publ_section_title
;
Structure prediction by ZEFSAII (Michael W. Deem and Ramdas Pophale) SiO2 
 PCOD8276153
Probable space group: C C C M
;
_chemical_formula_sum "Si O2"
_cell_formula_units_Z 88
_cell_length_a 16.743078
_cell_length_b 15.748261
_cell_length_c 17.594128
_cell_angle_alpha 90.000000
_cell_angle_beta 90.000000
_cell_angle_gamma 90.000000
_cell_volume 4639.120480
_symmetry_space_group_name_H-M "C C C M"
_symmetry_group_IT_number 66
_symmetry_cell_setting 'orthorhombic'
loop_
_space_group_symop_operation_xyz
x,y,z
-x,-y,z
x,-y,1/2-z
-x,y,1/2-z
-x,-y,-z
x,y,-z
-x,y,1/2+z
x,-y,1/2+z
1/2+x,1/2+y,z
1/2-x,1/2-y,z
1/2+x,1/2-y,1/2-z
1/2-x,1/2+y,1/2-z
1/2-x,1/2-y,-z
1/2+x,1/2+y,-z
1/2-x,1/2+y,1/2+z
1/2+x,1/2-y,1/2+z
loop_
_atom_site_type_symbol
_atom_site_label
_atom_site_fract_x
_atom_site_fract_y
_atom_site_fract_z
Si Si1 0.992453 0.382250 0.838525
Si Si2 0.922727 0.950166 0.085589
Si Si3 0.750000 0.750000 0.152652
Si Si4 0.922028 0.244598 0.583738
Si Si5 0.120534 0.503833 0.910984
Si Si6 0.266615 0.559069 0.678505
O O1 0.903610 0.407951 0.867434
O O2 0.000000 0.402929 0.750000
O O3 0.016454 0.285388 0.855526
O O4 0.055353 0.434887 0.887883
O O5 0.946257 0.852488 0.084241
O O6 0.852718 0.965217 0.145743
O O7 0.898358 0.979844 0.000000
O O8 0.000000 0.000000 0.115255
O O9 0.828727 0.741608 0.101730
O O10 0.741949 0.660502 0.199738
O O11 0.936017 0.283903 0.500000
O O12 0.205618 0.467566 0.887102
O O13 0.120872 0.521193 0.000000
O O14 0.248480 0.500000 0.750000
#
# Coordination Sequence:
#
# PCOD8276153 Si02
#       6
#    16  16   8  16  16  16
#     4  11  21  34  53  84 123 155 182 230 290 348
#     4   9  20  40  61  83 110 151 199 245 288 336
#     4  10  21  36  60  86 115 146 192 244 293 334
#     4  10  19  35  60  86 113 147 193 241 284 340
#     4  11  21  35  57  83 116 156 192 228 282 353
#     4  11  22  38  59  88 119 150 190 245 301 348
#
# _framework density 18.969113
#
# number of rings (size 3 to 8) (size 9 to 14) (size 15 to 20)
#    0.000    1.636    1.818    5.182    0.000    1.818 
#    6.545    0.000    0.000    0.000    0.000    6.364 
#    0.000    0.000    0.000    0.000    0.000    0.000 
#
# Total GULP energy -545312.404783 kJ/mol
# GULP energy per Si atom -12393.463745 kJ/mol
# Density = 1.892594 g / cm^3
# Si number density = 18.969113 Si / 1000 Ang^3
#
#
#
# Elastic Constant Matrix: (Units=GPa)
#
#
# Indices 1 2 3 4 5 6 
#
# 1 85.8417 51.5819 23.4618 0.0000 0.0000 0.0000
# 2 51.5819 92.8838 46.1392 0.0000 0.0000 0.0000
# 3 23.4618 46.1392 112.8339 0.0000 0.0000 0.0000
# 4 0.0000 0.0000 0.0000 23.2721 0.0000 0.0000
# 5 0.0000 0.0000 0.0000 0.0000 23.2232 0.0000
# 6 0.0000 0.0000 0.0000 0.0000 0.0000 31.0779
#
#
#
# Elastic Compliance Matrix: (Units=1/GPa)
#
#
# Indices 1 2 3 4 5 6 
#
# 1 0.017500 -0.009927 0.000421 0.000000 0.000000 0.000000
# 2 -0.009927 0.019142 -0.005763 0.000000 0.000000 0.000000
# 3 0.000421 -0.005763 0.011132 0.000000 0.000000 0.000000
# 4 0.000000 0.000000 0.000000 0.042970 0.000000 0.000000
# 5 0.000000 0.000000 0.000000 0.000000 0.043060 0.000000
# 6 0.000000 0.000000 0.000000 0.000000 0.000000 0.032177
#
#
# Mechanical properties :
#
#
# Convention : Reuss Voigt Hill
#
# Bulk Modulus (GPa) = 58.02550 59.32503 58.67527
# Shear Modulus (GPa) = 24.72008 26.87306 25.79657
#
# Velocity S-wave (km/s) = 3.61387 3.76796 3.69172
# Velocity P-wave (km/s) = 6.93320 7.09031 7.01219
#
# Compressibility (1/GPa) = 0.01723380
#
# Stress axis : x y z
#
# Youngs Moduli (GPa) = 57.14429 52.24151 89.83300
#
# Poissons Ratio (x) = 0.51861 -0.03778
# Poissons Ratio (y) = 0.56728 0.51772
# Poissons Ratio (z) = -0.02404 0.30108
#
# Static dielectric constant tensor:
#      x y z
#    x 3.660900 0.000000 0.000000 
#    y 0.000000 3.968700 0.000000 
#    z 0.000000 0.000000 3.397580 
# 
# 
# High freq. dielectric constant tensor:
#      x y z
#    x 1.731610 0.000000 0.000000 
#    y 0.000000 1.736980 0.000000 
#    z 0.000000 0.000000 1.729890 
# 
# From -- ./inp_files/41561.got.cif
#   From: 2010.03.12/outbox.cif.g09.slc.cpg/sg66_21_cif.got.tgz:41561.got - 2010.04.10 21:57:39.
