data_PCOD8276734
_publ_section_title
;
Structure prediction by ZEFSAII (Michael W. Deem and Ramdas Pophale) SiO2 
 PCOD8276734
Probable space group: C C C M
;
_chemical_formula_sum "Si O2"
_cell_formula_units_Z 120
_cell_length_a 19.762886
_cell_length_b 21.397875
_cell_length_c 13.653741
_cell_angle_alpha 90.000000
_cell_angle_beta 90.000000
_cell_angle_gamma 90.000000
_cell_volume 5773.945390
_symmetry_space_group_name_H-M "C C C M"
_symmetry_group_IT_number 66
_symmetry_cell_setting 'orthorhombic'
loop_
_space_group_symop_operation_xyz
x,y,z
-x,-y,z
x,-y,1/2-z
-x,y,1/2-z
-x,-y,-z
x,y,-z
-x,y,1/2+z
x,-y,1/2+z
1/2+x,1/2+y,z
1/2-x,1/2-y,z
1/2+x,1/2-y,1/2-z
1/2-x,1/2+y,1/2-z
1/2-x,1/2-y,-z
1/2+x,1/2+y,-z
1/2-x,1/2+y,1/2+z
1/2+x,1/2-y,1/2+z
loop_
_atom_site_type_symbol
_atom_site_label
_atom_site_fract_x
_atom_site_fract_y
_atom_site_fract_z
Si Si1 0.500000 0.211065 0.250000
Si Si2 0.536835 0.557642 0.351684
Si Si3 0.816119 0.978730 0.610641
Si Si4 0.473726 0.317144 0.109038
Si Si5 0.162969 0.808632 0.706511
Si Si6 0.256480 0.651083 0.888842
Si Si7 0.145258 0.669417 0.259400
Si Si8 0.260333 0.099427 0.113487
O O1 0.508764 0.255577 0.154582
O O2 0.564485 0.165220 0.249502
O O3 0.500000 0.500000 0.409721
O O4 0.500000 0.563044 0.250000
O O5 0.615931 0.542873 0.334509
O O6 0.525853 0.624840 0.402933
O O7 0.837940 0.995516 0.500000
O O8 0.780320 0.039743 0.658340
O O9 0.761479 0.923660 0.612126
O O10 0.411598 0.335660 0.181709
O O11 0.447471 0.300329 0.000000
O O12 0.184083 0.821107 0.819640
O O13 0.163439 0.734668 0.687315
O O14 0.214964 0.839548 0.631089
O O15 0.182674 0.667984 0.846006
O O16 0.263950 0.677254 0.000000
O O17 0.170278 0.611425 0.326840
O O18 0.277286 0.088973 0.000000
#
# Coordination Sequence:
#
# PCOD8276734 Si02
#       8
#     8  16  16  16  16  16  16  16
#     4  10  24  44  57  87 122 150 204 254 302 366
#     4  11  22  35  53  83 121 168 204 242 284 343
#     4  10  22  37  56  86 117 152 203 248 298 362
#     4  11  22  38  60  81 118 165 201 245 298 347
#     4  10  21  36  55  89 119 151 204 253 287 354
#     4  10  21  38  60  84 116 156 196 247 305 357
#     4  10  23  38  59  84 115 149 198 249 301 371
#     4  10  20  37  61  86 117 153 192 250 306 353
#
# _framework density 20.783016
#
# number of rings (size 3 to 8) (size 9 to 14) (size 15 to 20)
#    0.000    1.733    0.667    4.000    1.867   12.267 
#    0.000    0.000    0.000    1.600    0.000    2.800 
#    0.000    0.000    0.000    0.000    0.000    0.000 
#
# Total GULP energy -743657.099903 kJ/mol
# GULP energy per Si atom -12394.284998 kJ/mol
# Density = 2.073571 g / cm^3
# Si number density = 20.783016 Si / 1000 Ang^3
#
#
#
# Elastic Constant Matrix: (Units=GPa)
#
#
# Indices 1 2 3 4 5 6 
#
# 1 158.7157 64.6665 43.4510 0.0000 0.0000 0.0000
# 2 64.6665 81.4694 27.0333 0.0000 0.0000 0.0000
# 3 43.4510 27.0333 113.3741 0.0000 0.0000 0.0000
# 4 0.0000 0.0000 0.0000 12.9272 0.0000 0.0000
# 5 0.0000 0.0000 0.0000 0.0000 16.7219 0.0000
# 6 0.0000 0.0000 0.0000 0.0000 0.0000 41.4315
#
#
#
# Elastic Compliance Matrix: (Units=1/GPa)
#
#
# Indices 1 2 3 4 5 6 
#
# 1 0.009732 -0.007045 -0.002050 0.000000 0.000000 0.000000
# 2 -0.007045 0.018428 -0.001694 0.000000 0.000000 0.000000
# 3 -0.002050 -0.001694 0.010010 0.000000 0.000000 0.000000
# 4 0.000000 0.000000 0.000000 0.077356 0.000000 0.000000
# 5 0.000000 0.000000 0.000000 0.000000 0.059802 0.000000
# 6 0.000000 0.000000 0.000000 0.000000 0.000000 0.024136
#
#
# Mechanical properties :
#
#
# Convention : Reuss Voigt Hill
#
# Bulk Modulus (GPa) = 60.26784 69.31786 64.79285
# Shear Modulus (GPa) = 22.06790 28.77669 25.42229
#
# Velocity S-wave (km/s) = 3.26210 3.72509 3.50126
# Velocity P-wave (km/s) = 6.57647 7.20606 6.89845
#
# Compressibility (1/GPa) = 0.01659260
#
# Stress axis : x y z
#
# Youngs Moduli (GPa) = 102.75350 54.26420 99.89951
#
# Poissons Ratio (x) = 0.38227 0.20481
# Poissons Ratio (y) = 0.72385 0.16926
# Poissons Ratio (z) = 0.21066 0.09194
#
# Static dielectric constant tensor:
#      x y z
#    x 3.761340 0.000000 0.000000 
#    y 0.000000 4.101350 0.000000 
#    z 0.000000 0.000000 3.774720 
# 
# 
# High freq. dielectric constant tensor:
#      x y z
#    x 1.793590 0.000000 0.000000 
#    y 0.000000 1.802390 0.000000 
#    z 0.000000 0.000000 1.815840 
# 
# From -- ./inp_files/31585.got.cif
#   From: 2010.03.12/outbox.cif.g09.slc.cpg/sg66_16_cif.got.tgz:31585.got - 2010.04.10 21:57:39.
