data_PCOD8276733
_publ_section_title
;
Structure prediction by ZEFSAII (Michael W. Deem and Ramdas Pophale) SiO2 
 PCOD8276733
Probable space group: C C C M
;
_chemical_formula_sum "Si O2"
_cell_formula_units_Z 80
_cell_length_a 26.158889
_cell_length_b 8.750742
_cell_length_c 17.309498
_cell_angle_alpha 90.000000
_cell_angle_beta 90.000000
_cell_angle_gamma 90.000000
_cell_volume 3962.311798
_symmetry_space_group_name_H-M "C C C M"
_symmetry_group_IT_number 66
_symmetry_cell_setting 'orthorhombic'
loop_
_space_group_symop_operation_xyz
x,y,z
-x,-y,z
x,-y,1/2-z
-x,y,1/2-z
-x,-y,-z
x,y,-z
-x,y,1/2+z
x,-y,1/2+z
1/2+x,1/2+y,z
1/2-x,1/2-y,z
1/2+x,1/2-y,1/2-z
1/2-x,1/2+y,1/2-z
1/2-x,1/2-y,-z
1/2+x,1/2+y,-z
1/2-x,1/2+y,1/2+z
1/2+x,1/2-y,1/2+z
loop_
_atom_site_type_symbol
_atom_site_label
_atom_site_fract_x
_atom_site_fract_y
_atom_site_fract_z
Si Si1 0.148132 0.924944 0.589914
Si Si2 0.050505 0.430985 0.336336
Si Si3 0.749224 0.068820 0.667128
Si Si4 0.546967 0.387125 0.089903
Si Si5 0.853640 0.580911 0.090355
O O1 0.161313 0.920031 0.500000
O O2 0.197777 0.995077 0.632253
O O3 0.137418 0.753487 0.620434
O O4 0.099276 0.025920 0.608698
O O5 0.052498 0.500000 0.250000
O O6 0.044190 0.248714 0.347276
O O7 0.102595 0.473402 0.377433
O O8 0.000000 0.500000 0.377604
O O9 0.750000 0.250000 0.670631
O O10 0.701453 0.015719 0.615206
O O11 0.740114 0.000000 0.750000
O O12 0.500000 0.500000 0.105461
O O13 0.545978 0.330668 0.000000
O O14 0.857412 0.572843 0.000000
#
# Coordination Sequence:
#
# PCOD8276733 Si02
#       5
#    16  16  16  16  16
#     4   9  19  36  58  85 114 148 194 242 288 340
#     4  11  24  40  57  85 122 157 193 236 293 355
#     4  10  21  36  56  82 115 153 190 234 290 351
#     4  10  21  39  64  91 118 152 198 249 296 347
#     4  10  20  37  61  85 113 152 197 243 289 344
#
# _framework density 20.190234
#
# number of rings (size 3 to 8) (size 9 to 14) (size 15 to 20)
#    0.000    2.000    0.000    3.000    0.000   10.400 
#    0.000    6.000    0.000    4.800    0.000    0.000 
#    0.000    0.000    0.000    0.000    0.000    0.000 
#
# Total GULP energy -495896.154545 kJ/mol
# GULP energy per Si atom -12397.403864 kJ/mol
# Density = 2.014428 g / cm^3
# Si number density = 20.190234 Si / 1000 Ang^3
#
#
#
# Elastic Constant Matrix: (Units=GPa)
#
#
# Indices 1 2 3 4 5 6 
#
# 1 171.6297 70.9937 42.8049 0.0000 0.0000 0.0000
# 2 70.9937 93.8022 47.5788 0.0000 0.0000 0.0000
# 3 42.8049 47.5788 67.3770 0.0000 0.0000 0.0000
# 4 0.0000 0.0000 0.0000 33.4045 0.0000 0.0000
# 5 0.0000 0.0000 0.0000 0.0000 31.5748 0.0000
# 6 0.0000 0.0000 0.0000 0.0000 0.0000 42.4966
#
#
#
# Elastic Compliance Matrix: (Units=1/GPa)
#
#
# Indices 1 2 3 4 5 6 
#
# 1 0.008559 -0.005796 -0.001345 0.000000 0.000000 0.000000
# 2 -0.005796 0.020535 -0.010819 0.000000 0.000000 0.000000
# 3 -0.001345 -0.010819 0.023336 0.000000 0.000000 0.000000
# 4 0.000000 0.000000 0.000000 0.029936 0.000000 0.000000
# 5 0.000000 0.000000 0.000000 0.000000 0.031671 0.000000
# 6 0.000000 0.000000 0.000000 0.000000 0.000000 0.023531
#
#
# Mechanical properties :
#
#
# Convention : Reuss Voigt Hill
#
# Bulk Modulus (GPa) = 60.56528 72.84040 66.70284
# Shear Modulus (GPa) = 27.93433 32.92395 30.42914
#
# Velocity S-wave (km/s) = 3.72365 4.04256 3.88638
# Velocity P-wave (km/s) = 6.96778 7.61216 7.29709
#
# Compressibility (1/GPa) = 0.01651111
#
# Stress axis : x y z
#
# Youngs Moduli (GPa) = 116.83079 48.69778 42.85227
#
# Poissons Ratio (x) = 0.28225 0.05764
# Poissons Ratio (y) = 0.67714 0.46360
# Poissons Ratio (z) = 0.15714 0.52684
#
# Static dielectric constant tensor:
#      x y z
#    x 4.135010 0.000000 0.000000 
#    y 0.000000 3.625380 0.000000 
#    z 0.000000 0.000000 3.541030 
# 
# 
# High freq. dielectric constant tensor:
#      x y z
#    x 1.815860 0.000000 0.000000 
#    y 0.000000 1.777640 0.000000 
#    z 0.000000 0.000000 1.778760 
# 
# From -- ./inp_files/36949.got.cif
#   From: 2010.03.12/outbox.cif.g09.slc.cpg/sg66_19_cif.got.tgz:36949.got - 2010.04.10 21:57:39.
