data_PCOD8276721
_publ_section_title
;
Structure prediction by ZEFSAII (Michael W. Deem and Ramdas Pophale) SiO2 
 PCOD8276721
Probable space group: C C C M
;
_chemical_formula_sum "Si O2"
_cell_formula_units_Z 116
_cell_length_a 18.550846
_cell_length_b 13.678193
_cell_length_c 24.063377
_cell_angle_alpha 90.000000
_cell_angle_beta 90.000000
_cell_angle_gamma 90.000000
_cell_volume 6105.890656
_symmetry_space_group_name_H-M "C C C M"
_symmetry_group_IT_number 66
_symmetry_cell_setting 'orthorhombic'
loop_
_space_group_symop_operation_xyz
x,y,z
-x,-y,z
x,-y,1/2-z
-x,y,1/2-z
-x,-y,-z
x,y,-z
-x,y,1/2+z
x,-y,1/2+z
1/2+x,1/2+y,z
1/2-x,1/2-y,z
1/2+x,1/2-y,1/2-z
1/2-x,1/2+y,1/2-z
1/2-x,1/2-y,-z
1/2+x,1/2+y,-z
1/2-x,1/2+y,1/2+z
1/2+x,1/2-y,1/2+z
loop_
_atom_site_type_symbol
_atom_site_label
_atom_site_fract_x
_atom_site_fract_y
_atom_site_fract_z
Si Si1 0.000000 0.000000 0.750000
Si Si2 0.852453 0.419922 0.562116
Si Si3 0.086451 0.380233 0.563755
Si Si4 0.173532 0.696942 0.274410
Si Si5 0.302637 0.163617 0.655943
Si Si6 0.750784 0.455306 0.655960
Si Si7 0.951323 0.754137 0.064370
Si Si8 0.405697 0.635755 0.331246
O O1 0.046700 0.069388 0.790311
O O2 0.826774 0.434107 0.500000
O O3 0.915369 0.501723 0.574733
O O4 0.778196 0.435543 0.594130
O O5 0.879601 0.310035 0.571950
O O6 0.106022 0.358387 0.500000
O O7 0.149148 0.339544 0.601911
O O8 0.014461 0.322076 0.579440
O O9 0.250000 0.750000 0.275368
O O10 0.148622 0.681080 0.210849
O O11 0.188576 0.594551 0.304780
O O12 0.110447 0.758962 0.303667
O O13 0.250000 0.250000 0.643044
O O14 0.252563 0.069892 0.668459
O O15 0.669333 0.419863 0.660479
O O16 0.946104 0.843377 0.109228
O O17 0.958228 0.792729 0.000000
#
# Coordination Sequence:
#
# PCOD8276721 Si02
#       8
#     4  16  16  16  16  16  16  16
#     4  12  32  44  62  80 126 176 202 246 284 388
#     4   9  17  33  59  92 122 154 193 246 313 362
#     4   9  19  34  54  83 121 162 203 243 295 358
#     4   9  19  35  58  83 112 144 193 250 298 351
#     4  10  21  33  58  85 115 159 202 246 304 359
#     4  10  20  37  59  89 121 150 195 261 305 353
#     4  10  20  37  61  86 120 158 199 248 299 365
#     4  11  25  41  61  87 119 159 207 241 302 355
#
# _framework density 18.998045999999999
#
# number of rings (size 3 to 8) (size 9 to 14) (size 15 to 20)
#    0.000    2.207    1.379    0.828    7.724    2.483 
#    0.000    1.724    0.000    0.000    0.000    0.000 
#    0.000    0.000    0.000    0.000    0.000    0.000 
#
# Total GULP energy -718662.091540 kJ/mol
# GULP energy per Si atom -12390.725716 kJ/mol
# Density = 1.895481 g / cm^3
# Si number density = 18.998046 Si / 1000 Ang^3
#
#
#
# Elastic Constant Matrix: (Units=GPa)
#
#
# Indices 1 2 3 4 5 6 
#
# 1 73.6611 35.8517 41.4981 0.0000 0.0000 0.0000
# 2 35.8517 95.5100 42.1408 0.0000 0.0000 0.0000
# 3 41.4981 42.1408 105.2049 0.0000 0.0000 0.0000
# 4 0.0000 0.0000 0.0000 12.1959 0.0000 0.0000
# 5 0.0000 0.0000 0.0000 0.0000 26.9307 0.0000
# 6 0.0000 0.0000 0.0000 0.0000 0.0000 17.9432
#
#
#
# Elastic Compliance Matrix: (Units=1/GPa)
#
#
# Indices 1 2 3 4 5 6 
#
# 1 0.019015 -0.004650 -0.005638 0.000000 0.000000 0.000000
# 2 -0.004650 0.013855 -0.003715 0.000000 0.000000 0.000000
# 3 -0.005638 -0.003715 0.013217 0.000000 0.000000 0.000000
# 4 0.000000 0.000000 0.000000 0.081995 0.000000 0.000000
# 5 0.000000 0.000000 0.000000 0.000000 0.037132 0.000000
# 6 0.000000 0.000000 0.000000 0.000000 0.000000 0.055731
#
#
# Mechanical properties :
#
#
# Convention : Reuss Voigt Hill
#
# Bulk Modulus (GPa) = 55.30830 57.03969 56.17400
# Shear Modulus (GPa) = 19.60938 21.73966 20.67452
#
# Velocity S-wave (km/s) = 3.21624 3.38644 3.30243
# Velocity P-wave (km/s) = 6.55500 6.73645 6.64635
#
# Compressibility (1/GPa) = 0.01808047
#
# Stress axis : x y z
#
# Youngs Moduli (GPa) = 52.58959 72.17609 75.65798
#
# Poissons Ratio (x) = 0.33563 0.42655
# Poissons Ratio (y) = 0.24455 0.28110
# Poissons Ratio (z) = 0.29649 0.26817
#
# Static dielectric constant tensor:
#      x y z
#    x 3.203480 0.000000 0.000000 
#    y 0.000000 3.645610 0.000000 
#    z 0.000000 0.000000 3.742310 
# 
# 
# High freq. dielectric constant tensor:
#      x y z
#    x 1.712570 0.000000 0.000000 
#    y 0.000000 1.737320 0.000000 
#    z 0.000000 0.000000 1.754420 
# 
# From -- ./inp_files/58939.got.cif
#   From: 2010.03.12/outbox.cif.g09.slc.cpg/sg66_30_cif.got.tgz:58939.got - 2010.04.10 21:57:39.
