data_PCOD8276814
_publ_section_title
;
Structure prediction by ZEFSAII (Michael W. Deem and Ramdas Pophale) SiO2 
 PCOD8276814
Probable space group: C C C M
;
_chemical_formula_sum "Si O2"
_cell_formula_units_Z 116
_cell_length_a 19.101384
_cell_length_b 13.761246
_cell_length_c 25.489554
_cell_angle_alpha 90.000000
_cell_angle_beta 90.000000
_cell_angle_gamma 90.000000
_cell_volume 6700.154703
_symmetry_space_group_name_H-M "C C C M"
_symmetry_group_IT_number 66
_symmetry_cell_setting 'orthorhombic'
loop_
_space_group_symop_operation_xyz
x,y,z
-x,-y,z
x,-y,1/2-z
-x,y,1/2-z
-x,-y,-z
x,y,-z
-x,y,1/2+z
x,-y,1/2+z
1/2+x,1/2+y,z
1/2-x,1/2-y,z
1/2+x,1/2-y,1/2-z
1/2-x,1/2+y,1/2-z
1/2-x,1/2-y,-z
1/2+x,1/2+y,-z
1/2-x,1/2+y,1/2+z
1/2+x,1/2-y,1/2+z
loop_
_atom_site_type_symbol
_atom_site_label
_atom_site_fract_x
_atom_site_fract_y
_atom_site_fract_z
Si Si1 0.500000 0.500000 0.250000
Si Si2 0.708352 0.150470 0.059961
Si Si3 0.882252 0.107726 0.692278
Si Si4 0.138551 0.522644 0.693605
Si Si5 0.231307 0.010297 0.636516
Si Si6 0.961498 0.296445 0.305877
Si Si7 0.899427 0.321692 0.148323
Si Si8 0.305307 0.323942 0.711490
O O1 0.545412 0.441342 0.291827
O O2 0.750000 0.250000 0.066976
O O3 0.754548 0.055762 0.078651
O O4 0.635738 0.165522 0.091434
O O5 0.688388 0.130709 0.000000
O O6 0.902214 0.217756 0.677876
O O7 0.833756 0.105865 0.743578
O O8 0.841090 0.050470 0.644907
O O9 0.172606 0.500000 0.750000
O O10 0.201992 0.554291 0.654593
O O11 0.078765 0.602659 0.696880
O O12 0.101262 0.424360 0.676656
O O13 0.234983 0.109073 0.670359
O O14 0.000000 0.274709 0.250000
O O15 0.018004 0.295266 0.353396
O O16 0.865702 0.235678 0.182572
O O17 0.250000 0.250000 0.737025
#
# Coordination Sequence:
#
# PCOD8276814 Si02
#       8
#     4  16  16  16  16  16  16  16
#     4  12  20  36  44  72 112 156 198 196 264 348
#     4  10  20  38  65  88 105 137 193 260 307 326
#     4  12  24  32  50  74 118 161 182 213 259 348
#     4  11  20  32  50  78 111 154 189 224 270 329
#     4  11  22  35  53  80 110 147 188 236 287 330
#     4  12  23  33  48  76 118 159 191 218 260 346
#     4  11  20  34  55  79 117 145 180 235 288 335
#     4  12  18  33  51  79 115 146 181 222 275 333
#
# _framework density 17.313033000000001
#
# number of rings (size 3 to 8) (size 9 to 14) (size 15 to 20)
#    0.000    0.690    8.966    1.241    1.931    0.000 
#    0.000    0.000    0.000    7.448    0.000    6.276 
#    0.000    0.000    0.000    0.000    0.000    0.000 
#
# Total GULP energy -718784.135598 kJ/mol
# GULP energy per Si atom -12392.829924 kJ/mol
# Density = 1.727363 g / cm^3
# Si number density = 17.313033 Si / 1000 Ang^3
#
#
#
# Elastic Constant Matrix: (Units=GPa)
#
#
# Indices 1 2 3 4 5 6 
#
# 1 87.2091 23.6233 38.2030 0.0000 0.0000 0.0000
# 2 23.6233 67.8656 33.1042 0.0000 0.0000 0.0000
# 3 38.2030 33.1042 91.5857 0.0000 0.0000 0.0000
# 4 0.0000 0.0000 0.0000 19.6395 0.0000 0.0000
# 5 0.0000 0.0000 0.0000 0.0000 -88.8661 0.0000
# 6 0.0000 0.0000 0.0000 0.0000 0.0000 37.6189
#
#
#
# Elastic Compliance Matrix: (Units=1/GPa)
#
#
# Indices 1 2 3 4 5 6 
#
# 1 0.014378 -0.002524 -0.005085 0.000000 0.000000 0.000000
# 2 -0.002524 0.018332 -0.005573 0.000000 0.000000 0.000000
# 3 -0.005085 -0.005573 0.015054 0.000000 0.000000 0.000000
# 4 0.000000 0.000000 0.000000 0.050918 0.000000 0.000000
# 5 0.000000 0.000000 0.000000 0.000000 -0.011253 0.000000
# 6 0.000000 0.000000 0.000000 0.000000 0.000000 0.026582
#
#
# Mechanical properties :
#
#
# Convention : Reuss Voigt Hill
#
# Bulk Modulus (GPa) = 46.73069 48.50236 47.61652
# Shear Modulus (GPa) = 33.89585 3.79379 18.84482
#
# Velocity S-wave (km/s) = 4.42953 1.48191 3.30278
# Velocity P-wave (km/s) = 7.29460 5.56811 6.48903
#
# Compressibility (1/GPa) = 0.02139921
#
# Stress axis : x y z
#
# Youngs Moduli (GPa) = 69.55041 54.54837 66.42592
#
# Poissons Ratio (x) = 0.13770 0.33778
# Poissons Ratio (y) = 0.17557 0.37021
# Poissons Ratio (z) = 0.35367 0.30402
#
# Static dielectric constant tensor:
#      x y z
#    x 3.394110 0.000000 0.000000 
#    y 0.000000 3.050700 0.000000 
#    z 0.000000 0.000000 2.956260 
# 
# 
# High freq. dielectric constant tensor:
#      x y z
#    x 1.680650 0.000000 0.000000 
#    y 0.000000 1.680300 0.000000 
#    z 0.000000 0.000000 1.607530 
# 
# From -- ./inp_files/65379.got.cif
#   From: 2010.03.12/outbox.cif.g09.slc.cpg/sg66_33_cif.got.tgz:65379.got - 2010.04.10 21:57:39.
