data_PCOD8276991
_publ_section_title
;
Structure prediction by ZEFSAII (Michael W. Deem and Ramdas Pophale) SiO2 
 PCOD8276991
Probable space group: C C C M
;
_chemical_formula_sum "Si O2"
_cell_formula_units_Z 96
_cell_length_a 8.079378
_cell_length_b 28.172696
_cell_length_c 18.310693
_cell_angle_alpha 90.000000
_cell_angle_beta 90.000000
_cell_angle_gamma 90.000000
_cell_volume 4167.840761
_symmetry_space_group_name_H-M "C C C M"
_symmetry_group_IT_number 66
_symmetry_cell_setting 'orthorhombic'
loop_
_space_group_symop_operation_xyz
x,y,z
-x,-y,z
x,-y,1/2-z
-x,y,1/2-z
-x,-y,-z
x,y,-z
-x,y,1/2+z
x,-y,1/2+z
1/2+x,1/2+y,z
1/2-x,1/2-y,z
1/2+x,1/2-y,1/2-z
1/2-x,1/2+y,1/2-z
1/2-x,1/2-y,-z
1/2+x,1/2+y,-z
1/2-x,1/2+y,1/2+z
1/2+x,1/2-y,1/2+z
loop_
_atom_site_type_symbol
_atom_site_label
_atom_site_fract_x
_atom_site_fract_y
_atom_site_fract_z
Si Si1 0.245826 0.152585 0.417554
Si Si2 0.324146 0.984967 0.665868
Si Si3 0.595889 0.803284 0.916119
Si Si4 0.624329 0.556702 0.581169
Si Si5 0.069740 0.774537 0.828723
Si Si6 0.776269 0.103510 0.585599
O O1 0.193104 0.165126 0.500000
O O2 0.425715 0.170695 0.398868
O O3 0.266486 0.095933 0.406747
O O4 0.100511 0.175681 0.369027
O O5 0.164097 0.010900 0.629994
O O6 0.500000 0.000000 0.632115
O O7 0.316703 0.000000 0.750000
O O8 0.317880 0.929471 0.645005
O O9 0.579255 0.755029 0.868915
O O10 0.739995 0.841035 0.893535
O O11 0.615545 0.787801 0.000000
O O12 0.618505 0.535685 0.500000
O O13 0.464980 0.588881 0.598145
O O14 0.250000 0.750000 0.827091
O O15 0.000000 0.786298 0.750000
O O16 0.722489 0.095394 0.500000
#
# Coordination Sequence:
#
# PCOD8276991 Si02
#       6
#    16  16  16  16  16  16
#     4   9  18  36  61  85 112 153 206 252 295 356
#     4  11  24  41  58  86 121 159 202 247 302 362
#     4   9  18  36  61  86 113 155 205 252 299 355
#     4  10  21  38  61  89 119 154 199 250 303 362
#     4  10  21  37  55  85 122 159 200 249 309 367
#     4  10  21  38  61  89 118 153 198 249 305 362
#
# _framework density 23.033511000000001
#
# number of rings (size 3 to 8) (size 9 to 14) (size 15 to 20)
#    0.000    2.167    0.000    2.500    0.000    8.667 
#   12.000    0.000    0.000    5.000    0.000    0.000 
#    0.000    0.000    0.000    0.000    0.000    0.000 
#
# Total GULP energy -594634.192850 kJ/mol
# GULP energy per Si atom -12388.212351 kJ/mol
# Density = 2.298109 g / cm^3
# Si number density = 23.033511 Si / 1000 Ang^3
#
#
#
# Elastic Constant Matrix: (Units=GPa)
#
#
# Indices 1 2 3 4 5 6 
#
# 1 61.6735 17.8460 25.2617 0.0000 0.0000 0.0000
# 2 17.8460 93.3734 13.7360 0.0000 0.0000 0.0000
# 3 25.2617 13.7360 69.1930 0.0000 0.0000 0.0000
# 4 0.0000 0.0000 0.0000 15.9484 0.0000 0.0000
# 5 0.0000 0.0000 0.0000 0.0000 17.2803 0.0000
# 6 0.0000 0.0000 0.0000 0.0000 0.0000 19.2247
#
#
#
# Elastic Compliance Matrix: (Units=1/GPa)
#
#
# Indices 1 2 3 4 5 6 
#
# 1 0.019749 -0.002796 -0.006655 0.000000 0.000000 0.000000
# 2 -0.002796 0.011428 -0.001248 0.000000 0.000000 0.000000
# 3 -0.006655 -0.001248 0.017130 0.000000 0.000000 0.000000
# 4 0.000000 0.000000 0.000000 0.062702 0.000000 0.000000
# 5 0.000000 0.000000 0.000000 0.000000 0.057869 0.000000
# 6 0.000000 0.000000 0.000000 0.000000 0.000000 0.052016
#
#
# Mechanical properties :
#
#
# Convention : Reuss Voigt Hill
#
# Bulk Modulus (GPa) = 37.16206 37.54747 37.35476
# Shear Modulus (GPa) = 19.89954 21.65043 20.77499
#
# Velocity S-wave (km/s) = 2.94247 3.06919 3.00650
# Velocity P-wave (km/s) = 5.26433 5.37555 5.32023
#
# Compressibility (1/GPa) = 0.02690917
#
# Stress axis : x y z
#
# Youngs Moduli (GPa) = 50.63443 87.50761 58.37754
#
# Poissons Ratio (x) = 0.24463 0.38852
# Poissons Ratio (y) = 0.14155 0.07285
# Poissons Ratio (z) = 0.33699 0.10920
#
# Static dielectric constant tensor:
#      x y z
#    x 4.452600 0.000000 0.000000 
#    y 0.000000 4.663680 0.000000 
#    z 0.000000 0.000000 3.897190 
# 
# 
# High freq. dielectric constant tensor:
#      x y z
#    x 1.922980 0.000000 0.000000 
#    y 0.000000 1.919760 0.000000 
#    z 0.000000 0.000000 1.882100 
# 
# From -- ./inp_files/47337.got.cif
#   From: 2010.03.12/outbox.cif.g09.slc.cpg/sg66_24_cif.got.tgz:47337.got - 2010.04.10 21:57:39.
