data_PCOD8276446
_publ_section_title
;
Structure prediction by ZEFSAII (Michael W. Deem and Ramdas Pophale) SiO2 
 PCOD8276446
Probable space group: C C C M
;
_chemical_formula_sum "Si O2"
_cell_formula_units_Z 112
_cell_length_a 14.208446
_cell_length_b 14.560197
_cell_length_c 26.768733
_cell_angle_alpha 90.000000
_cell_angle_beta 90.000000
_cell_angle_gamma 90.000000
_cell_volume 5537.855864
_symmetry_space_group_name_H-M "C C C M"
_symmetry_group_IT_number 66
_symmetry_cell_setting 'orthorhombic'
loop_
_space_group_symop_operation_xyz
x,y,z
-x,-y,z
x,-y,1/2-z
-x,y,1/2-z
-x,-y,-z
x,y,-z
-x,y,1/2+z
x,-y,1/2+z
1/2+x,1/2+y,z
1/2-x,1/2-y,z
1/2+x,1/2-y,1/2-z
1/2-x,1/2+y,1/2-z
1/2-x,1/2-y,-z
1/2+x,1/2+y,-z
1/2-x,1/2+y,1/2+z
1/2+x,1/2-y,1/2+z
loop_
_atom_site_type_symbol
_atom_site_label
_atom_site_fract_x
_atom_site_fract_y
_atom_site_fract_z
Si Si1 0.358159 0.236693 0.557694
Si Si2 0.391688 0.554960 0.199763
Si Si3 0.005760 0.109111 0.944925
Si Si4 0.577467 0.789133 0.210599
Si Si5 0.046215 0.596353 0.864817
Si Si6 0.416078 0.379581 0.153981
Si Si7 0.803136 0.407956 0.780318
O O1 0.360072 0.203186 0.500000
O O2 0.250000 0.250000 0.575988
O O3 0.407001 0.337114 0.562581
O O4 0.415003 0.160140 0.590027
O O5 0.420746 0.500000 0.250000
O O6 0.359504 0.473796 0.161292
O O7 0.477157 0.610281 0.175653
O O8 0.302741 0.623463 0.204158
O O9 0.079737 0.147140 0.904439
O O10 0.046245 0.129182 0.000000
O O11 0.000000 0.000000 0.935784
O O12 0.500000 0.754140 0.250000
O O13 0.533358 0.852846 0.167653
O O14 0.629393 0.703232 0.184705
O O15 0.658402 0.835597 0.241746
O O16 0.132689 0.574604 0.828304
O O17 0.000000 0.500000 0.884459
O O18 0.790693 0.500000 0.750000
#
# Coordination Sequence:
#
# PCOD8276446 Si02
#       7
#    16  16  16  16  16  16  16
#     4  10  23  41  62  96 130 156 205 269 316 371
#     4  10  21  35  55  82 122 154 193 253 303 362
#     4  10  20  36  60  89 120 160 205 256 319 374
#     4  10  20  34  56  78 114 159 204 245 290 361
#     4  11  21  35  63  86 121 167 207 250 305 365
#     4  11  19  36  58  86 117 158 198 251 308 360
#     4  10  21  37  56  80 118 159 207 240 298 361
#
# _framework density 20.224433000000001
#
# number of rings (size 3 to 8) (size 9 to 14) (size 15 to 20)
#    0.000    1.714    4.286    1.714    2.000    0.286 
#    0.000   10.714    0.000    0.000    0.000    0.000 
#    0.000   12.571    0.000    0.000    0.000    0.000 
#
# Total GULP energy -693773.643691 kJ/mol
# GULP energy per Si atom -12388.815066 kJ/mol
# Density = 2.017840 g / cm^3
# Si number density = 20.224433 Si / 1000 Ang^3
#
#
#
# Elastic Constant Matrix: (Units=GPa)
#
#
# Indices 1 2 3 4 5 6 
#
# 1 76.3995 27.3191 36.4850 0.0000 0.0000 0.0000
# 2 27.3191 91.3204 40.3336 0.0000 0.0000 0.0000
# 3 36.4850 40.3336 121.4636 0.0000 0.0000 0.0000
# 4 0.0000 0.0000 0.0000 23.5260 0.0000 0.0000
# 5 0.0000 0.0000 0.0000 0.0000 19.1336 0.0000
# 6 0.0000 0.0000 0.0000 0.0000 0.0000 27.2309
#
#
#
# Elastic Compliance Matrix: (Units=1/GPa)
#
#
# Indices 1 2 3 4 5 6 
#
# 1 0.016007 -0.003123 -0.003771 0.000000 0.000000 0.000000
# 2 -0.003123 0.013442 -0.003525 0.000000 0.000000 0.000000
# 3 -0.003771 -0.003525 0.010536 0.000000 0.000000 0.000000
# 4 0.000000 0.000000 0.000000 0.042506 0.000000 0.000000
# 5 0.000000 0.000000 0.000000 0.000000 0.052264 0.000000
# 6 0.000000 0.000000 0.000000 0.000000 0.000000 0.036723
#
#
# Mechanical properties :
#
#
# Convention : Reuss Voigt Hill
#
# Bulk Modulus (GPa) = 52.23048 55.27322 53.75185
# Shear Modulus (GPa) = 25.16372 26.31450 25.73911
#
# Velocity S-wave (km/s) = 3.53118 3.61102 3.57133
# Velocity P-wave (km/s) = 6.51975 6.69143 6.60615
#
# Compressibility (1/GPa) = 0.01914591
#
# Stress axis : x y z
#
# Youngs Moduli (GPa) = 62.47390 74.39476 94.90965
#
# Poissons Ratio (x) = 0.23233 0.35791
# Poissons Ratio (y) = 0.19510 0.33460
# Poissons Ratio (z) = 0.23559 0.26228
#
# Static dielectric constant tensor:
#      x y z
#    x 3.873080 0.000000 0.000000 
#    y 0.000000 3.832500 0.000000 
#    z 0.000000 0.000000 3.978390 
# 
# 
# High freq. dielectric constant tensor:
#      x y z
#    x 1.766230 0.000000 0.000000 
#    y 0.000000 1.792310 0.000000 
#    z 0.000000 0.000000 1.793330 
# 
# From -- ./inp_files/64689.got.cif
#   From: 2010.03.12/outbox.cif.g09.slc.cpg/sg66_33_cif.got.tgz:64689.got - 2010.04.10 21:57:39.
