data_PCOD8276885
_publ_section_title
;
Structure prediction by ZEFSAII (Michael W. Deem and Ramdas Pophale) SiO2 
 PCOD8276885
Probable space group: C C C M
;
_chemical_formula_sum "Si O2"
_cell_formula_units_Z 68
_cell_length_a 20.366117
_cell_length_b 20.366121
_cell_length_c 8.768361
_cell_angle_alpha 90.000000
_cell_angle_beta 90.000000
_cell_angle_gamma 90.000000
_cell_volume 3636.930281
_symmetry_space_group_name_H-M "C C C M"
_symmetry_group_IT_number 66
_symmetry_cell_setting 'orthorhombic'
loop_
_space_group_symop_operation_xyz
x,y,z
-x,-y,z
x,-y,1/2-z
-x,y,1/2-z
-x,-y,-z
x,y,-z
-x,y,1/2+z
x,-y,1/2+z
1/2+x,1/2+y,z
1/2-x,1/2-y,z
1/2+x,1/2-y,1/2-z
1/2-x,1/2+y,1/2-z
1/2-x,1/2-y,-z
1/2+x,1/2+y,-z
1/2-x,1/2+y,1/2+z
1/2+x,1/2-y,1/2+z
loop_
_atom_site_type_symbol
_atom_site_label
_atom_site_fract_x
_atom_site_fract_y
_atom_site_fract_z
Si Si1 0.756520 0.432312 0.681933
Si Si2 0.932312 0.256520 0.681933
Si Si3 0.897526 0.602474 0.832005
Si Si4 0.304094 0.695907 0.180830
Si Si5 0.000000 0.500000 0.250000
O O1 0.728462 0.500000 0.750000
O O2 0.752467 0.434612 0.500000
O O3 0.831238 0.423892 0.747303
O O4 0.713680 0.373510 0.746874
O O5 0.934613 0.252467 0.500000
O O6 0.923892 0.331238 0.747304
O O7 0.873510 0.213680 0.746873
O O8 0.000000 0.228462 0.750000
O O9 0.953206 0.546794 0.848459
O O10 0.875900 0.624100 0.000000
O O11 0.250000 0.750000 0.228055
O O12 0.310079 0.689922 0.000000
#
# Coordination Sequence:
#
# PCOD8276885 Si02
#       5
#    16  16  16  16   4
#     4  11  22  39  59  86 119 158 202 252 306 361
#     4  11  22  39  59  86 119 158 202 252 306 361
#     4  10  21  32  50  78 115 159 200 237 287 346
#     4  11  23  39  61  90 119 158 207 259 307 362
#     4  12  18  36  48  78 120 168 202 232 282 348
#
# _framework density 18.697085000000001
#
# number of rings (size 3 to 8) (size 9 to 14) (size 15 to 20)
#    0.000    1.176    4.706    2.471    0.000    0.941 
#    0.000    0.000    0.000    0.706    0.000    4.941 
#    0.000    0.000    0.000    0.000    0.000    0.000 
#
# Total GULP energy -421518.280891 kJ/mol
# GULP energy per Si atom -12397.596497 kJ/mol
# Density = 1.865453 g / cm^3
# Si number density = 18.697085 Si / 1000 Ang^3
#
#
#
# Elastic Constant Matrix: (Units=GPa)
#
#
# Indices 1 2 3 4 5 6 
#
# 1 148.9063 84.0272 48.5378 0.0000 0.0000 0.0000
# 2 84.0272 148.9066 48.5377 0.0000 0.0000 0.0000
# 3 48.5378 48.5377 95.7602 0.0000 0.0000 0.0000
# 4 0.0000 0.0000 0.0000 27.3806 0.0000 0.0000
# 5 0.0000 0.0000 0.0000 0.0000 27.3806 0.0000
# 6 0.0000 0.0000 0.0000 0.0000 0.0000 37.3529
#
#
#
# Elastic Compliance Matrix: (Units=1/GPa)
#
#
# Indices 1 2 3 4 5 6 
#
# 1 0.010428 -0.004985 -0.002759 0.000000 0.000000 0.000000
# 2 -0.004985 0.010428 -0.002759 0.000000 0.000000 0.000000
# 3 -0.002759 -0.002759 0.013239 0.000000 0.000000 0.000000
# 4 0.000000 0.000000 0.000000 0.036522 0.000000 0.000000
# 5 0.000000 0.000000 0.000000 0.000000 0.036522 0.000000
# 6 0.000000 0.000000 0.000000 0.000000 0.000000 0.026772
#
#
# Mechanical properties :
#
#
# Convention : Reuss Voigt Hill
#
# Bulk Modulus (GPa) = 76.39476 83.97540 80.18508
# Shear Modulus (GPa) = 31.39118 32.58751 31.98935
#
# Velocity S-wave (km/s) = 4.10193 4.17936 4.14082
# Velocity P-wave (km/s) = 7.96130 8.26441 8.11427
#
# Compressibility (1/GPa) = 0.01308990
#
# Stress axis : x y z
#
# Youngs Moduli (GPa) = 95.89525 95.89558 75.53195
#
# Poissons Ratio (x) = 0.47806 0.20838
# Poissons Ratio (y) = 0.47806 0.20837
# Poissons Ratio (z) = 0.26456 0.26455
#
# Static dielectric constant tensor:
#      x y z
#    x 3.410420 0.000000 0.000000 
#    y 0.000000 3.410430 0.000000 
#    z 0.000000 0.000000 3.267060 
# 
# 
# High freq. dielectric constant tensor:
#      x y z
#    x 1.721450 0.000000 0.000000 
#    y 0.000000 1.721450 0.000000 
#    z 0.000000 0.000000 1.721690 
# 
# From -- ./inp_files/6263.got.cif
#   From: 2010.03.12/outbox.cif.g09.slc.cpg/sg66_4_cif.got.tgz:6263.got - 2010.04.10 21:57:39.
