data_PCOD8276480
_publ_section_title
;
Structure prediction by ZEFSAII (Michael W. Deem and Ramdas Pophale) SiO2 
 PCOD8276480
Probable space group: C C C M
;
_chemical_formula_sum "Si O2"
_cell_formula_units_Z 100
_cell_length_a 20.653085
_cell_length_b 30.499380
_cell_length_c 9.096577
_cell_angle_alpha 90.000000
_cell_angle_beta 90.000000
_cell_angle_gamma 90.000000
_cell_volume 5729.991048
_symmetry_space_group_name_H-M "C C C M"
_symmetry_group_IT_number 66
_symmetry_cell_setting 'orthorhombic'
loop_
_space_group_symop_operation_xyz
x,y,z
-x,-y,z
x,-y,1/2-z
-x,y,1/2-z
-x,-y,-z
x,y,-z
-x,y,1/2+z
x,-y,1/2+z
1/2+x,1/2+y,z
1/2-x,1/2-y,z
1/2+x,1/2-y,1/2-z
1/2-x,1/2+y,1/2-z
1/2-x,1/2-y,-z
1/2+x,1/2+y,-z
1/2-x,1/2+y,1/2+z
1/2+x,1/2-y,1/2+z
loop_
_atom_site_type_symbol
_atom_site_label
_atom_site_fract_x
_atom_site_fract_y
_atom_site_fract_z
Si Si1 0.603005 0.435919 0.662090
Si Si2 0.769429 0.042107 0.171956
Si Si3 0.934882 0.243611 0.827237
Si Si4 0.500000 0.500000 0.750000
Si Si5 0.896130 0.146497 0.833428
Si Si6 0.744992 0.139123 0.167715
Si Si7 0.309665 0.781313 0.326865
O O1 0.632744 0.428478 0.500000
O O2 0.657304 0.454211 0.771315
O O3 0.544242 0.469718 0.647137
O O4 0.575408 0.389926 0.723943
O O5 0.731810 0.087641 0.204709
O O6 0.735397 0.000000 0.250000
O O7 0.772827 0.032633 0.000000
O O8 0.929919 0.192042 0.795292
O O9 0.873694 0.267305 0.757347
O O10 0.000000 0.261367 0.750000
O O11 0.936973 0.254017 0.000000
O O12 0.819594 0.150955 0.808193
O O13 0.910421 0.131819 0.000000
O O14 0.704141 0.168735 0.279033
O O15 0.724392 0.149253 0.000000
O O16 0.322025 0.779243 0.500000
O O17 0.250000 0.750000 0.280313
#
# Coordination Sequence:
#
# PCOD8276480 Si02
#       7
#    16  16  16   4  16  16  16
#     4  11  23  35  49  64  88 125 169 220 269 317
#     4  10  20  35  53  74 100 129 166 211 267 321
#     4  11  23  39  57  78 109 146 180 223 276 328
#     4  12  26  36  44  66  90 128 178 224 276 320
#     4   9  20  37  54  73  99 131 173 222 273 324
#     4   9  18  34  55  78 103 137 177 219 271 326
#     4  11  22  35  55  84 111 140 184 231 270 326
#
# _framework density 17.452034999999999
#
# number of rings (size 3 to 8) (size 9 to 14) (size 15 to 20)
#    0.000    1.760    2.400    3.120    1.120    7.040 
#    0.000    0.000    0.000    0.000    0.000    0.000 
#    0.000    0.640    0.000    6.720    0.000    3.680 
#
# Total GULP energy -619984.394523 kJ/mol
# GULP energy per Si atom -12399.687890 kJ/mol
# Density = 1.741231 g / cm^3
# Si number density = 17.452035 Si / 1000 Ang^3
#
#
#
# Elastic Constant Matrix: (Units=GPa)
#
#
# Indices 1 2 3 4 5 6 
#
# 1 70.2001 49.7270 40.5375 0.0000 0.0000 0.0000
# 2 49.7270 107.0578 69.0688 0.0000 0.0000 0.0000
# 3 40.5375 69.0688 106.0961 0.0000 0.0000 0.0000
# 4 0.0000 0.0000 0.0000 27.0655 0.0000 0.0000
# 5 0.0000 0.0000 0.0000 0.0000 20.4657 0.0000
# 6 0.0000 0.0000 0.0000 0.0000 0.0000 22.7497
#
#
#
# Elastic Compliance Matrix: (Units=1/GPa)
#
#
# Indices 1 2 3 4 5 6 
#
# 1 0.021767 -0.008181 -0.002991 0.000000 0.000000 0.000000
# 2 -0.008181 0.019179 -0.009360 0.000000 0.000000 0.000000
# 3 -0.002991 -0.009360 0.016662 0.000000 0.000000 0.000000
# 4 0.000000 0.000000 0.000000 0.036947 0.000000 0.000000
# 5 0.000000 0.000000 0.000000 0.000000 0.048862 0.000000
# 6 0.000000 0.000000 0.000000 0.000000 0.000000 0.043957
#
#
# Mechanical properties :
#
#
# Convention : Reuss Voigt Hill
#
# Bulk Modulus (GPa) = 60.44409 66.89118 63.66763
# Shear Modulus (GPa) = 21.37177 22.32420 21.84799
#
# Velocity S-wave (km/s) = 3.50323 3.58044 3.54204
# Velocity P-wave (km/s) = 7.14654 7.45013 7.29992
#
# Compressibility (1/GPa) = 0.01654421
#
# Stress axis : x y z
#
# Youngs Moduli (GPa) = 45.94053 52.13939 60.01798
#
# Poissons Ratio (x) = 0.42655 0.17952
# Poissons Ratio (y) = 0.37584 0.56177
# Poissons Ratio (z) = 0.13741 0.48803
#
# Static dielectric constant tensor:
#      x y z
#    x 2.839820 0.000000 0.000000 
#    y 0.000000 3.494450 0.000000 
#    z 0.000000 0.000000 3.285340 
# 
# 
# High freq. dielectric constant tensor:
#      x y z
#    x 1.623720 0.000000 0.000000 
#    y 0.000000 1.678170 0.000000 
#    z 0.000000 0.000000 1.686570 
# 
# From -- ./inp_files/8364.got.cif
#   From: 2010.03.12/outbox.cif.g09.slc.cpg/sg66_5_cif.got.tgz:8364.got - 2010.04.10 21:57:39.
