data_PCOD8276756
_publ_section_title
;
Structure prediction by ZEFSAII (Michael W. Deem and Ramdas Pophale) SiO2 
 PCOD8276756
Probable space group: C C C M
;
_chemical_formula_sum "Si O2"
_cell_formula_units_Z 64
_cell_length_a 12.708213
_cell_length_b 11.495937
_cell_length_c 20.883908
_cell_angle_alpha 90.000000
_cell_angle_beta 90.000000
_cell_angle_gamma 90.000000
_cell_volume 3050.988929
_symmetry_space_group_name_H-M "C C C M"
_symmetry_group_IT_number 66
_symmetry_cell_setting 'orthorhombic'
loop_
_space_group_symop_operation_xyz
x,y,z
-x,-y,z
x,-y,1/2-z
-x,y,1/2-z
-x,-y,-z
x,y,-z
-x,y,1/2+z
x,-y,1/2+z
1/2+x,1/2+y,z
1/2-x,1/2-y,z
1/2+x,1/2-y,1/2-z
1/2-x,1/2+y,1/2-z
1/2-x,1/2-y,-z
1/2+x,1/2+y,-z
1/2-x,1/2+y,1/2+z
1/2+x,1/2-y,1/2+z
loop_
_atom_site_type_symbol
_atom_site_label
_atom_site_fract_x
_atom_site_fract_y
_atom_site_fract_z
Si Si1 0.032956 0.747790 0.682017
Si Si2 0.295089 0.504557 0.427022
Si Si3 0.000000 0.000000 0.850877
Si Si4 0.577743 0.892154 0.426095
Si Si5 0.250000 0.250000 0.874643
O O1 0.153130 0.711139 0.669889
O O2 0.000000 0.690689 0.750000
O O3 0.028225 0.887346 0.690798
O O4 0.959955 0.707470 0.622751
O O5 0.313599 0.475158 0.500000
O O6 0.398806 0.461394 0.391622
O O7 0.193227 0.432820 0.403303
O O8 0.280522 0.642794 0.419661
O O9 0.577556 0.846172 0.500000
O O10 0.500000 0.000000 0.420188
#
# Coordination Sequence:
#
# PCOD8276756 Si02
#       5
#    16  16   8  16   8
#     4  11  24  42  63  89 124 165 210 253 311 368
#     4  10  20  37  62  91 126 163 205 254 311 368
#     4  10  24  40  58  90 125 166 209 254 307 372
#     4  10  21  39  63  94 124 155 200 260 309 355
#     4  10  21  38  60  88 119 168 210 252 296 374
#
# _framework density 20.976806
#
# number of rings (size 3 to 8) (size 9 to 14) (size 15 to 20)
#    0.000    1.750    2.500    1.125    0.000    8.500 
#    0.000    5.000    0.000    0.000    0.000    0.000 
#    0.000    0.000    0.000    0.000    0.000    0.000 
#
# Total GULP energy -396745.666053 kJ/mol
# GULP energy per Si atom -12398.302064 kJ/mol
# Density = 2.092906 g / cm^3
# Si number density = 20.976806 Si / 1000 Ang^3
#
#
#
# Elastic Constant Matrix: (Units=GPa)
#
#
# Indices 1 2 3 4 5 6 
#
# 1 159.4274 1.7059 48.5418 0.0000 0.0000 0.0000
# 2 1.7059 51.0087 15.5079 0.0000 0.0000 0.0000
# 3 48.5418 15.5079 104.9695 0.0000 0.0000 0.0000
# 4 0.0000 0.0000 0.0000 8.3290 0.0000 0.0000
# 5 0.0000 0.0000 0.0000 0.0000 5.7608 0.0000
# 6 0.0000 0.0000 0.0000 0.0000 0.0000 28.7565
#
#
#
# Elastic Compliance Matrix: (Units=1/GPa)
#
#
# Indices 1 2 3 4 5 6 
#
# 1 0.007333 0.000823 -0.003513 0.000000 0.000000 0.000000
# 2 0.000823 0.020619 -0.003427 0.000000 0.000000 0.000000
# 3 -0.003513 -0.003427 0.011657 0.000000 0.000000 0.000000
# 4 0.000000 0.000000 0.000000 0.120063 0.000000 0.000000
# 5 0.000000 0.000000 0.000000 0.000000 0.173587 0.000000
# 6 0.000000 0.000000 0.000000 0.000000 0.000000 0.034775
#
#
# Mechanical properties :
#
#
# Convention : Reuss Voigt Hill
#
# Bulk Modulus (GPa) = 36.52839 49.65744 43.09291
# Shear Modulus (GPa) = 12.84054 25.21258 19.02656
#
# Velocity S-wave (km/s) = 2.47681 3.47064 3.01496
# Velocity P-wave (km/s) = 5.06270 6.30749 5.71906
#
# Compressibility (1/GPa) = 0.02737597
#
# Stress axis : x y z
#
# Youngs Moduli (GPa) = 136.36663 48.49950 85.78385
#
# Poissons Ratio (x) = -0.03990 0.30133
# Poissons Ratio (y) = -0.11219 0.29395
# Poissons Ratio (z) = 0.47901 0.16619
#
# Static dielectric constant tensor:
#      x y z
#    x 4.174470 0.000000 0.000000 
#    y 0.000000 3.560520 0.000000 
#    z 0.000000 0.000000 3.582010 
# 
# 
# High freq. dielectric constant tensor:
#      x y z
#    x 1.839020 0.000000 0.000000 
#    y 0.000000 1.813650 0.000000 
#    z 0.000000 0.000000 1.807590 
# 
# From -- ./inp_files/56365.got.cif
#   From: 2010.03.12/outbox.cif.g09.slc.cpg/sg66_29_cif.got.tgz:56365.got - 2010.04.10 21:57:39.
