data_PCOD8276898
_publ_section_title
;
Structure prediction by ZEFSAII (Michael W. Deem and Ramdas Pophale) SiO2 
 PCOD8276898
Probable space group: C C C M
;
_chemical_formula_sum "Si O2"
_cell_formula_units_Z 72
_cell_length_a 29.001652
_cell_length_b 13.534592
_cell_length_c 9.606694
_cell_angle_alpha 90.000000
_cell_angle_beta 90.000000
_cell_angle_gamma 90.000000
_cell_volume 3770.872626
_symmetry_space_group_name_H-M "C C C M"
_symmetry_group_IT_number 66
_symmetry_cell_setting 'orthorhombic'
loop_
_space_group_symop_operation_xyz
x,y,z
-x,-y,z
x,-y,1/2-z
-x,y,1/2-z
-x,-y,-z
x,y,-z
-x,y,1/2+z
x,-y,1/2+z
1/2+x,1/2+y,z
1/2-x,1/2-y,z
1/2+x,1/2-y,1/2-z
1/2-x,1/2+y,1/2-z
1/2-x,1/2-y,-z
1/2+x,1/2+y,-z
1/2-x,1/2+y,1/2+z
1/2+x,1/2-y,1/2+z
loop_
_atom_site_type_symbol
_atom_site_label
_atom_site_fract_x
_atom_site_fract_y
_atom_site_fract_z
Si Si1 0.660042 0.727165 0.500000
Si Si2 0.699739 0.207165 0.280864
Si Si3 0.228086 0.500000 0.250000
Si Si4 0.440926 0.447583 0.000000
Si Si5 0.940786 0.176491 0.000000
Si Si6 0.209495 0.031784 0.500000
Si Si7 0.653471 0.333903 0.500000
Si Si8 0.000000 0.134221 0.250000
O O1 0.685550 0.781455 0.376560
O O2 0.604981 0.743616 0.500000
O O3 0.668055 0.609581 0.500000
O O4 0.750000 0.250000 0.317578
O O5 0.698236 0.089462 0.316061
O O6 0.661041 0.265187 0.366804
O O7 0.260113 0.448030 0.364421
O O8 0.426097 0.561243 0.000000
O O9 0.469621 0.431572 0.857512
O O10 0.398070 0.373946 0.000000
O O11 0.968797 0.200602 0.856115
O O12 0.189945 0.922023 0.500000
#
# Coordination Sequence:
#
# PCOD8276898 Si02
#       8
#     8  16   8   8   8   8   8   8
#     4  12  23  36  55  82 111 146 196 224 263 320
#     4  12  23  38  54  79 110 148 191 237 267 318
#     4  12  24  36  58  72 110 150 194 230 280 306
#     4  11  20  34  53  78 111 146 179 218 265 332
#     4  11  20  34  53  78 111 146 179 218 265 332
#     4  12  20  36  54  79 106 152 186 231 262 316
#     4  12  23  36  55  82 111 146 196 224 263 320
#     4  10  21  34  52  78 112 147 174 211 278 332
#
# _framework density 19.093722
#
# number of rings (size 3 to 8) (size 9 to 14) (size 15 to 20)
#    0.000    0.444    5.556    6.000    0.000    0.000 
#    0.000    0.000    0.000    0.000    0.000    0.000 
#    0.000   62.222    0.000    0.000    0.000    0.000 
#
# Total GULP energy -446314.716255 kJ/mol
# GULP energy per Si atom -12397.631007 kJ/mol
# Density = 1.905026 g / cm^3
# Si number density = 19.093722 Si / 1000 Ang^3
#
#
#
# Elastic Constant Matrix: (Units=GPa)
#
#
# Indices 1 2 3 4 5 6 
#
# 1 102.2560 33.1785 32.6122 0.0000 0.0000 0.0000
# 2 33.1785 90.9395 6.5714 0.0000 0.0000 0.0000
# 3 32.6122 6.5714 124.4376 0.0000 0.0000 0.0000
# 4 0.0000 0.0000 0.0000 13.5722 0.0000 0.0000
# 5 0.0000 0.0000 0.0000 0.0000 13.3820 0.0000
# 6 0.0000 0.0000 0.0000 0.0000 0.0000 20.8750
#
#
#
# Elastic Compliance Matrix: (Units=1/GPa)
#
#
# Indices 1 2 3 4 5 6 
#
# 1 0.012079 -0.004194 -0.002944 0.000000 0.000000 0.000000
# 2 -0.004194 0.012495 0.000439 0.000000 0.000000 0.000000
# 3 -0.002944 0.000439 0.008785 0.000000 0.000000 0.000000
# 4 0.000000 0.000000 0.000000 0.073680 0.000000 0.000000
# 5 0.000000 0.000000 0.000000 0.000000 0.074727 0.000000
# 6 0.000000 0.000000 0.000000 0.000000 0.000000 0.047904
#
#
# Mechanical properties :
#
#
# Convention : Reuss Voigt Hill
#
# Bulk Modulus (GPa) = 50.09901 51.37304 50.73602
# Shear Modulus (GPa) = 20.02226 25.91723 22.96974
#
# Velocity S-wave (km/s) = 3.24177 3.68825 3.47219
# Velocity P-wave (km/s) = 6.34882 6.71578 6.53488
#
# Compressibility (1/GPa) = 0.01996047
#
# Stress axis : x y z
#
# Youngs Moduli (GPa) = 82.78662 80.03325 113.83610
#
# Poissons Ratio (x) = 0.33568 0.33516
# Poissons Ratio (y) = 0.34723 -0.05002
# Poissons Ratio (z) = 0.24374 -0.03517
#
# Static dielectric constant tensor:
#      x y z
#    x 3.475660 0.000000 0.000000 
#    y 0.000000 3.216760 0.000000 
#    z 0.000000 0.000000 3.783740 
# 
# 
# High freq. dielectric constant tensor:
#      x y z
#    x 1.727830 0.000000 0.000000 
#    y 0.000000 1.707510 0.000000 
#    z 0.000000 0.000000 1.768160 
# 
# From -- ./inp_files/5584.got.cif
#   From: 2010.03.12/outbox.cif.g09.slc.cpg/sg66_3_cif.got.tgz:5584.got - 2010.04.10 21:57:39.
