data_PCOD8276082
_publ_section_title
;
Structure prediction by ZEFSAII (Michael W. Deem and Ramdas Pophale) SiO2 
 PCOD8276082
Probable space group: C C C M
;
_chemical_formula_sum "Si O2"
_cell_formula_units_Z 96
_cell_length_a 20.222367
_cell_length_b 10.560431
_cell_length_c 22.775979
_cell_angle_alpha 90.000000
_cell_angle_beta 90.000000
_cell_angle_gamma 90.000000
_cell_volume 4863.967728
_symmetry_space_group_name_H-M "C C C M"
_symmetry_group_IT_number 66
_symmetry_cell_setting 'orthorhombic'
loop_
_space_group_symop_operation_xyz
x,y,z
-x,-y,z
x,-y,1/2-z
-x,y,1/2-z
-x,-y,-z
x,y,-z
-x,y,1/2+z
x,-y,1/2+z
1/2+x,1/2+y,z
1/2-x,1/2-y,z
1/2+x,1/2-y,1/2-z
1/2-x,1/2+y,1/2-z
1/2-x,1/2-y,-z
1/2+x,1/2+y,-z
1/2-x,1/2+y,1/2+z
1/2+x,1/2-y,1/2+z
loop_
_atom_site_type_symbol
_atom_site_label
_atom_site_fract_x
_atom_site_fract_y
_atom_site_fract_z
Si Si1 0.949940 0.304393 0.000000
Si Si2 0.593303 0.092091 0.500000
Si Si3 0.792030 0.372931 0.278901
Si Si4 0.084512 0.888289 0.350869
Si Si5 0.440100 0.668734 0.118900
Si Si6 0.684834 0.197979 0.597037
Si Si7 0.426513 0.229254 0.258577
O O1 0.923373 0.445780 0.000000
O O2 0.920914 0.229656 0.056354
O O3 0.029766 0.315503 0.000000
O O4 0.637057 0.116939 0.556962
O O5 0.761463 0.500000 0.250000
O O6 0.750000 0.250000 0.257496
O O7 0.788694 0.388265 0.349225
O O8 0.869513 0.365212 0.262179
O O9 0.147712 0.818201 0.375927
O O10 0.077738 0.859803 0.280565
O O11 0.019073 0.836841 0.382119
O O12 0.093325 0.033634 0.368678
O O13 0.413968 0.752987 0.172414
O O14 0.750000 0.250000 0.562760
O O15 0.500000 0.169520 0.250000
#
# Coordination Sequence:
#
# PCOD8276082 Si02
#       7
#     8   8  16  16  16  16  16
#     4  11  24  36  58  87 119 170 194 265 293 357
#     4  11  23  41  57  80 128 157 216 241 303 350
#     4  10  23  40  63  93 123 162 204 251 312 375
#     4   9  18  34  58  90 118 145 195 249 305 370
#     4  10  19  34  57  87 121 153 194 245 312 355
#     4  10  21  39  63  86 114 157 206 245 295 363
#     4   9  19  35  58  92 124 154 191 250 315 365
#
# _framework density 19.736972999999999
#
# number of rings (size 3 to 8) (size 9 to 14) (size 15 to 20)
#    0.000    2.167    1.667    0.750    2.333    8.333 
#    0.000    0.000    0.000    1.000    0.000    0.000 
#    0.000    0.000    0.000    0.000    0.000    0.000 
#
# Total GULP energy -594850.349008 kJ/mol
# GULP energy per Si atom -12392.715604 kJ/mol
# Density = 1.969205 g / cm^3
# Si number density = 19.736973 Si / 1000 Ang^3
#
#
#
# Elastic Constant Matrix: (Units=GPa)
#
#
# Indices 1 2 3 4 5 6 
#
# 1 81.8098 21.1688 17.7299 0.0000 0.0000 0.0000
# 2 21.1688 84.4729 47.5685 0.0000 0.0000 0.0000
# 3 17.7299 47.5685 129.6990 0.0000 0.0000 0.0000
# 4 0.0000 0.0000 0.0000 27.5673 0.0000 0.0000
# 5 0.0000 0.0000 0.0000 0.0000 -109.5416 0.0000
# 6 0.0000 0.0000 0.0000 0.0000 0.0000 20.8311
#
#
#
# Elastic Compliance Matrix: (Units=1/GPa)
#
#
# Indices 1 2 3 4 5 6 
#
# 1 0.013127 -0.002872 -0.000741 0.000000 0.000000 0.000000
# 2 -0.002872 0.015548 -0.005310 0.000000 0.000000 0.000000
# 3 -0.000741 -0.005310 0.009759 0.000000 0.000000 0.000000
# 4 0.000000 0.000000 0.000000 0.036275 0.000000 0.000000
# 5 0.000000 0.000000 0.000000 0.000000 -0.009129 0.000000
# 6 0.000000 0.000000 0.000000 0.000000 0.000000 0.048005
#
#
# Mechanical properties :
#
#
# Convention : Reuss Voigt Hill
#
# Bulk Modulus (GPa) = 48.57240 52.10181 50.33711
# Shear Modulus (GPa) = 36.15483 1.73898 18.94691
#
# Velocity S-wave (km/s) = 4.28463 0.93968 3.10170
# Velocity P-wave (km/s) = 7.01005 5.25668 6.19570
#
# Compressibility (1/GPa) = 0.02058782
#
# Stress axis : x y z
#
# Youngs Moduli (GPa) = 76.17698 64.31714 102.47097
#
# Poissons Ratio (x) = 0.18474 0.07593
# Poissons Ratio (y) = 0.21881 0.54409
# Poissons Ratio (z) = 0.05645 0.34151
#
# Static dielectric constant tensor:
#      x y z
#    x 3.624140 0.000000 0.000000 
#    y 0.000000 3.282830 0.000000 
#    z 0.000000 0.000000 3.686850 
# 
# 
# High freq. dielectric constant tensor:
#      x y z
#    x 1.769160 0.000000 0.000000 
#    y 0.000000 1.745570 0.000000 
#    z 0.000000 0.000000 1.768640 
# 
# From -- ./inp_files/48854.got.cif
#   From: 2010.03.12/outbox.cif.g09.slc.cpg/sg66_25_cif.got.tgz:48854.got - 2010.04.10 21:57:39.
