data_PCOD8276366
_publ_section_title
;
Structure prediction by ZEFSAII (Michael W. Deem and Ramdas Pophale) SiO2 
 PCOD8276366
Probable space group: C C C M
;
_chemical_formula_sum "Si O2"
_cell_formula_units_Z 96
_cell_length_a 23.884994
_cell_length_b 12.989000
_cell_length_c 14.625635
_cell_angle_alpha 90.000000
_cell_angle_beta 90.000000
_cell_angle_gamma 90.000000
_cell_volume 4537.488990
_symmetry_space_group_name_H-M "C C C M"
_symmetry_group_IT_number 66
_symmetry_cell_setting 'orthorhombic'
loop_
_space_group_symop_operation_xyz
x,y,z
-x,-y,z
x,-y,1/2-z
-x,y,1/2-z
-x,-y,-z
x,y,-z
-x,y,1/2+z
x,-y,1/2+z
1/2+x,1/2+y,z
1/2-x,1/2-y,z
1/2+x,1/2-y,1/2-z
1/2-x,1/2+y,1/2-z
1/2-x,1/2-y,-z
1/2+x,1/2+y,-z
1/2-x,1/2+y,1/2+z
1/2+x,1/2-y,1/2+z
loop_
_atom_site_type_symbol
_atom_site_label
_atom_site_fract_x
_atom_site_fract_y
_atom_site_fract_z
Si Si1 0.232183 0.367604 0.898710
Si Si2 0.347639 0.420509 0.168658
Si Si3 0.056462 0.958201 0.897988
Si Si4 0.984240 0.388671 0.354269
Si Si5 0.584467 0.763669 0.602720
Si Si6 0.130292 0.315725 0.210375
O O1 0.250000 0.250000 0.902316
O O2 0.285858 0.436849 0.872941
O O3 0.184137 0.382308 0.821581
O O4 0.210853 0.401042 0.000000
O O5 0.356245 0.500000 0.250000
O O6 0.396042 0.453925 0.098199
O O7 0.357442 0.303322 0.194658
O O8 0.080308 0.851868 0.855235
O O9 0.038830 0.926732 0.000000
O O10 0.000000 0.000000 0.847219
O O11 0.918968 0.357033 0.356590
O O12 0.000000 0.500000 0.397220
O O13 0.000000 0.387675 0.250000
O O14 0.021297 0.305595 0.407840
O O15 0.612436 0.768205 0.500000
O O16 0.618542 0.830194 0.679927
#
# Coordination Sequence:
#
# PCOD8276366 Si02
#       6
#    16  16  16  16  16  16
#     4   9  20  38  61  84 111 152 208 260 300 347
#     4  11  20  35  58  89 120 159 194 249 301 368
#     4  10  20  33  54  88 127 162 197 240 300 375
#     4   9  19  36  57  82 113 155 201 253 295 342
#     4  10  20  35  55  85 125 161 194 244 307 374
#     4  10  20  38  61  85 118 158 205 251 305 354
#
# _framework density 21.157076
#
# number of rings (size 3 to 8) (size 9 to 14) (size 15 to 20)
#    0.000    2.167    1.667    1.500    0.000    2.000 
#    6.000    0.000    0.000    5.500    0.000    0.000 
#    0.000    0.000    0.000    0.000    0.000    0.000 
#
# Total GULP energy -594670.866461 kJ/mol
# GULP energy per Si atom -12388.976385 kJ/mol
# Density = 2.110892 g / cm^3
# Si number density = 21.157076 Si / 1000 Ang^3
#
#
#
# Elastic Constant Matrix: (Units=GPa)
#
#
# Indices 1 2 3 4 5 6 
#
# 1 160.4461 35.3613 46.7172 0.0000 0.0000 0.0000
# 2 35.3613 65.8558 12.6970 0.0000 0.0000 0.0000
# 3 46.7172 12.6970 95.1642 0.0000 0.0000 0.0000
# 4 0.0000 0.0000 0.0000 -12.4039 0.0000 0.0000
# 5 0.0000 0.0000 0.0000 0.0000 23.5511 0.0000
# 6 0.0000 0.0000 0.0000 0.0000 0.0000 34.7495
#
#
#
# Elastic Compliance Matrix: (Units=1/GPa)
#
#
# Indices 1 2 3 4 5 6 
#
# 1 0.008046 -0.003653 -0.003462 0.000000 0.000000 0.000000
# 2 -0.003653 0.017244 -0.000508 0.000000 0.000000 0.000000
# 3 -0.003462 -0.000508 0.012276 0.000000 0.000000 0.000000
# 4 0.000000 0.000000 0.000000 -0.080620 0.000000 0.000000
# 5 0.000000 0.000000 0.000000 0.000000 0.042461 0.000000
# 6 0.000000 0.000000 0.000000 0.000000 0.000000 0.028777
#
#
# Mechanical properties :
#
#
# Convention : Reuss Voigt Hill
#
# Bulk Modulus (GPa) = 44.80299 56.77969 50.79134
# Shear Modulus (GPa) = 98.29213 24.29205 61.29209
#
# Velocity S-wave (km/s) = 6.82343 3.39215 5.38822
# Velocity P-wave (km/s) = 9.12695 6.49906 7.92272
#
# Compressibility (1/GPa) = 0.02231994
#
# Stress axis : x y z
#
# Youngs Moduli (GPa) = 124.28840 57.99173 81.46220
#
# Poissons Ratio (x) = 0.21182 0.28206
# Poissons Ratio (y) = 0.45398 0.04135
# Poissons Ratio (z) = 0.43034 0.02944
#
# Static dielectric constant tensor:
#      x y z
#    x 4.203520 0.000000 0.000000 
#    y 0.000000 3.912050 0.000000 
#    z 0.000000 0.000000 3.786300 
# 
# 
# High freq. dielectric constant tensor:
#      x y z
#    x 1.819890 0.000000 0.000000 
#    y 0.000000 1.815080 0.000000 
#    z 0.000000 0.000000 1.823970 
# 
# From -- ./inp_files/31165.got.cif
#   From: 2010.03.12/outbox.cif.g09.slc.cpg/sg66_16_cif.got.tgz:31165.got - 2010.04.10 21:57:39.
