data_PCOD8276325
_publ_section_title
;
Structure prediction by ZEFSAII (Michael W. Deem and Ramdas Pophale) SiO2 
 PCOD8276325
Probable space group: C C C M
;
_chemical_formula_sum "Si O2"
_cell_formula_units_Z 80
_cell_length_a 27.032635
_cell_length_b 18.034749
_cell_length_c 8.948786
_cell_angle_alpha 90.000000
_cell_angle_beta 90.000000
_cell_angle_gamma 90.000000
_cell_volume 4362.772886
_symmetry_space_group_name_H-M "C C C M"
_symmetry_group_IT_number 66
_symmetry_cell_setting 'orthorhombic'
loop_
_space_group_symop_operation_xyz
x,y,z
-x,-y,z
x,-y,1/2-z
-x,y,1/2-z
-x,-y,-z
x,y,-z
-x,y,1/2+z
x,-y,1/2+z
1/2+x,1/2+y,z
1/2-x,1/2-y,z
1/2+x,1/2-y,1/2-z
1/2-x,1/2+y,1/2-z
1/2-x,1/2-y,-z
1/2+x,1/2+y,-z
1/2-x,1/2+y,1/2+z
1/2+x,1/2-y,1/2+z
loop_
_atom_site_type_symbol
_atom_site_label
_atom_site_fract_x
_atom_site_fract_y
_atom_site_fract_z
Si Si1 0.846338 0.721027 0.827228
Si Si2 0.194427 0.859924 0.172197
Si Si3 0.048538 0.779857 0.324624
Si Si4 0.789340 0.575330 0.825545
Si Si5 0.912737 0.923091 0.326357
O O1 0.812724 0.776384 0.730889
O O2 0.904177 0.728676 0.786144
O O3 0.830226 0.637631 0.789826
O O4 0.837042 0.741170 0.000000
O O5 0.236344 0.901353 0.263735
O O6 0.145035 0.907011 0.197274
O O7 0.209942 0.855782 0.000000
O O8 0.040530 0.787660 0.500000
O O9 0.055053 0.860746 0.254036
O O10 0.000000 0.742711 0.250000
O O11 0.808233 0.500000 0.750000
O O12 0.783302 0.561310 0.000000
O O13 0.926890 0.925221 0.500000
O O14 0.926784 0.000000 0.250000
#
# Coordination Sequence:
#
# PCOD8276325 Si02
#       5
#    16  16  16  16  16
#     4   9  20  37  55  75 103 137 170 209 255 303
#     4  10  20  33  52  78 107 140 176 210 246 294
#     4  10  20  36  56  76  98 127 166 211 259 307
#     4  11  22  35  52  76 106 139 173 209 253 301
#     4  10  20  33  49  73 105 139 173 208 247 292
#
# _framework density 18.336960999999999
#
# number of rings (size 3 to 8) (size 9 to 14) (size 15 to 20)
#    0.000    2.000    0.000    3.600    0.000    9.200 
#    0.000    2.000    0.000    0.600    0.000    4.200 
#    0.000    0.000    0.000    0.000    0.000    0.000 
#
# Total GULP energy -496177.703421 kJ/mol
# GULP energy per Si atom -12404.442586 kJ/mol
# Density = 1.829523 g / cm^3
# Si number density = 18.336961 Si / 1000 Ang^3
#
#
#
# Elastic Constant Matrix: (Units=GPa)
#
#
# Indices 1 2 3 4 5 6 
#
# 1 76.8394 33.5542 33.5476 0.0000 0.0000 0.0000
# 2 33.5542 98.2796 43.5399 0.0000 0.0000 0.0000
# 3 33.5476 43.5399 94.6348 0.0000 0.0000 0.0000
# 4 0.0000 0.0000 0.0000 30.8157 0.0000 0.0000
# 5 0.0000 0.0000 0.0000 0.0000 25.3562 0.0000
# 6 0.0000 0.0000 0.0000 0.0000 0.0000 12.0145
#
#
#
# Elastic Compliance Matrix: (Units=1/GPa)
#
#
# Indices 1 2 3 4 5 6 
#
# 1 0.016461 -0.003812 -0.004082 0.000000 0.000000 0.000000
# 2 -0.003812 0.013663 -0.004935 0.000000 0.000000 0.000000
# 3 -0.004082 -0.004935 0.014284 0.000000 0.000000 0.000000
# 4 0.000000 0.000000 0.000000 0.032451 0.000000 0.000000
# 5 0.000000 0.000000 0.000000 0.000000 0.039438 0.000000
# 6 0.000000 0.000000 0.000000 0.000000 0.000000 0.083232
#
#
# Mechanical properties :
#
#
# Convention : Reuss Voigt Hill
#
# Bulk Modulus (GPa) = 53.32892 54.55970 53.94431
# Shear Modulus (GPa) = 21.60431 24.24476 22.92453
#
# Velocity S-wave (km/s) = 3.43619 3.64012 3.53963
# Velocity P-wave (km/s) = 6.69993 6.89100 6.79614
#
# Compressibility (1/GPa) = 0.01875155
#
# Stress axis : x y z
#
# Youngs Moduli (GPa) = 60.75107 73.19247 70.00753
#
# Poissons Ratio (x) = 0.27899 0.28574
# Poissons Ratio (y) = 0.23157 0.34547
# Poissons Ratio (z) = 0.24796 0.36118
#
# Static dielectric constant tensor:
#      x y z
#    x 3.425190 0.000000 0.000000 
#    y 0.000000 3.317860 0.000000 
#    z 0.000000 0.000000 3.517140 
# 
# 
# High freq. dielectric constant tensor:
#      x y z
#    x 1.708360 0.000000 0.000000 
#    y 0.000000 1.695000 0.000000 
#    z 0.000000 0.000000 1.726550 
# 
# From -- ./inp_files/6650.got.cif
#   From: 2010.03.12/outbox.cif.g09.slc.cpg/sg66_4_cif.got.tgz:6650.got - 2010.04.10 21:57:39.
