data_PCOD8276725
_publ_section_title
;
Structure prediction by ZEFSAII (Michael W. Deem and Ramdas Pophale) SiO2 
 PCOD8276725
Probable space group: C C C M
;
_chemical_formula_sum "Si O2"
_cell_formula_units_Z 96
_cell_length_a 11.559609
_cell_length_b 14.352769
_cell_length_c 29.073115
_cell_angle_alpha 90.000000
_cell_angle_beta 90.000000
_cell_angle_gamma 90.000000
_cell_volume 4823.590218
_symmetry_space_group_name_H-M "C C C M"
_symmetry_group_IT_number 66
_symmetry_cell_setting 'orthorhombic'
loop_
_space_group_symop_operation_xyz
x,y,z
-x,-y,z
x,-y,1/2-z
-x,y,1/2-z
-x,-y,-z
x,y,-z
-x,y,1/2+z
x,-y,1/2+z
1/2+x,1/2+y,z
1/2-x,1/2-y,z
1/2+x,1/2-y,1/2-z
1/2-x,1/2+y,1/2-z
1/2-x,1/2-y,-z
1/2+x,1/2+y,-z
1/2-x,1/2+y,1/2+z
1/2+x,1/2-y,1/2+z
loop_
_atom_site_type_symbol
_atom_site_label
_atom_site_fract_x
_atom_site_fract_y
_atom_site_fract_z
Si Si1 0.428869 0.646640 0.147134
Si Si2 0.136538 0.696475 0.085498
Si Si3 0.232292 0.015776 0.598022
Si Si4 0.016167 0.355049 0.500000
Si Si5 0.799915 0.848932 0.161908
Si Si6 0.303282 0.976609 0.500000
Si Si7 0.872608 0.890893 0.744062
O O1 0.412170 0.751649 0.130097
O O2 0.387026 0.569108 0.110273
O O3 0.563886 0.632089 0.155493
O O4 0.342916 0.634008 0.191262
O O5 0.250000 0.750000 0.066786
O O6 0.162466 0.590133 0.100428
O O7 0.039124 0.704099 0.046039
O O8 0.262362 0.930998 0.633087
O O9 0.223253 0.977049 0.545645
O O10 0.110874 0.436449 0.500000
O O11 0.882879 0.384777 0.500000
O O12 0.750000 0.750000 0.144265
O O13 0.781102 0.853639 0.217573
O O14 0.000000 0.845778 0.750000
O O15 0.879308 0.000000 0.750000
#
# Coordination Sequence:
#
# PCOD8276725 Si02
#       7
#    16  16  16   8  16   8  16
#     4  10  20  37  60  86 113 149 193 239 288 345
#     4   9  19  33  58  87 112 147 194 247 282 349
#     4  10  20  38  57  82 114 150 198 237 281 347
#     4   9  17  34  55  82 116 155 189 237 307 342
#     4  11  23  36  57  86 118 150 189 236 295 351
#     4   9  20  34  57  81 114 156 197 238 288 359
#     4   9  17  35  59  79 105 150 189 226 278 345
#
# _framework density 19.902187999999999
#
# number of rings (size 3 to 8) (size 9 to 14) (size 15 to 20)
#    0.000    2.333    1.667    0.750    2.333    4.000 
#    0.000    2.917    0.000    0.000    0.000    0.000 
#    0.000    0.000    0.000    0.000    0.000    0.000 
#
# Total GULP energy -594748.624739 kJ/mol
# GULP energy per Si atom -12390.596349 kJ/mol
# Density = 1.985689 g / cm^3
# Si number density = 19.902188 Si / 1000 Ang^3
#
#
#
# Elastic Constant Matrix: (Units=GPa)
#
#
# Indices 1 2 3 4 5 6 
#
# 1 43.1596 19.6066 39.6063 0.0000 0.0000 0.0000
# 2 19.6066 112.7307 64.5936 0.0000 0.0000 0.0000
# 3 39.6063 64.5936 169.8367 0.0000 0.0000 0.0000
# 4 0.0000 0.0000 0.0000 35.2897 0.0000 0.0000
# 5 0.0000 0.0000 0.0000 0.0000 -59.4253 0.0000
# 6 0.0000 0.0000 0.0000 0.0000 0.0000 22.9493
#
#
#
# Elastic Compliance Matrix: (Units=1/GPa)
#
#
# Indices 1 2 3 4 5 6 
#
# 1 0.029683 -0.001530 -0.006340 0.000000 0.000000 0.000000
# 2 -0.001530 0.011421 -0.003987 0.000000 0.000000 0.000000
# 3 -0.006340 -0.003987 0.008883 0.000000 0.000000 0.000000
# 4 0.000000 0.000000 0.000000 0.028337 0.000000 0.000000
# 5 0.000000 0.000000 0.000000 0.000000 -0.016828 0.000000
# 6 0.000000 0.000000 0.000000 0.000000 0.000000 0.043574
#
#
# Mechanical properties :
#
#
# Convention : Reuss Voigt Hill
#
# Bulk Modulus (GPa) = 38.06171 63.70443 50.88307
# Shear Modulus (GPa) = 36.35233 13.22411 24.78822
#
# Velocity S-wave (km/s) = 4.27845 2.58050 3.53300
# Velocity P-wave (km/s) = 6.60097 6.39976 6.50114
#
# Compressibility (1/GPa) = 0.02627312
#
# Stress axis : x y z
#
# Youngs Moduli (GPa) = 33.68922 87.55552 112.57440
#
# Poissons Ratio (x) = 0.13393 0.71377
# Poissons Ratio (y) = 0.05153 0.44885
# Poissons Ratio (z) = 0.21360 0.34910
#
# Static dielectric constant tensor:
#      x y z
#    x 3.268280 0.000000 0.000000 
#    y 0.000000 3.600650 0.000000 
#    z 0.000000 0.000000 4.090710 
# 
# 
# High freq. dielectric constant tensor:
#      x y z
#    x 1.730550 0.000000 0.000000 
#    y 0.000000 1.770920 0.000000 
#    z 0.000000 0.000000 1.790080 
# 
# From -- ./inp_files/69009.got.cif
#   From: 2010.03.12/outbox.cif.g09.slc.cpg/sg66_35_cif.got.tgz:69009.got - 2010.04.10 21:57:39.
