data_PCOD8276451
_publ_section_title
;
Structure prediction by ZEFSAII (Michael W. Deem and Ramdas Pophale) SiO2 
 PCOD8276451
Probable space group: C C C M
;
_chemical_formula_sum "Si O2"
_cell_formula_units_Z 88
_cell_length_a 9.930728
_cell_length_b 25.598646
_cell_length_c 18.265508
_cell_angle_alpha 90.000000
_cell_angle_beta 90.000000
_cell_angle_gamma 90.000000
_cell_volume 4643.333067
_symmetry_space_group_name_H-M "C C C M"
_symmetry_group_IT_number 66
_symmetry_cell_setting 'orthorhombic'
loop_
_space_group_symop_operation_xyz
x,y,z
-x,-y,z
x,-y,1/2-z
-x,y,1/2-z
-x,-y,-z
x,y,-z
-x,y,1/2+z
x,-y,1/2+z
1/2+x,1/2+y,z
1/2-x,1/2-y,z
1/2+x,1/2-y,1/2-z
1/2-x,1/2+y,1/2-z
1/2-x,1/2-y,-z
1/2+x,1/2+y,-z
1/2-x,1/2+y,1/2+z
1/2+x,1/2-y,1/2+z
loop_
_atom_site_type_symbol
_atom_site_label
_atom_site_fract_x
_atom_site_fract_y
_atom_site_fract_z
Si Si1 0.750000 0.250000 0.134293
Si Si2 0.878720 0.878148 0.197396
Si Si3 0.547459 0.666464 0.579632
Si Si4 0.633343 0.154667 0.795674
Si Si5 0.768043 0.417253 0.083463
Si Si6 0.652946 0.510695 0.165679
O O1 0.656316 0.287469 0.086112
O O2 0.645506 0.215021 0.180765
O O3 0.764771 0.853901 0.247131
O O4 0.820305 0.927615 0.152342
O O5 0.000000 0.898000 0.250000
O O6 0.931918 0.833335 0.141639
O O7 0.478879 0.671964 0.500000
O O8 0.623498 0.611066 0.586114
O O9 0.500000 0.144910 0.750000
O O10 0.628926 0.115367 0.865246
O O11 0.750404 0.475925 0.114656
O O12 0.823614 0.419534 0.000000
O O13 0.500000 0.500000 0.144210
O O14 0.687382 0.500000 0.250000
#
# Coordination Sequence:
#
# PCOD8276451 Si02
#       6
#     8  16  16  16  16  16
#     4  10  21  36  62  82 115 148 202 242 295 360
#     4  12  19  36  58  85 121 149 195 246 285 344
#     4  10  20  34  56  87 121 153 189 245 300 344
#     4  11  24  39  60  87 112 157 197 243 294 345
#     4  10  20  35  56  88 121 150 192 240 290 347
#     4  11  16  29  55  87 116 151 190 234 288 331
#
# _framework density 18.951905
#
# number of rings (size 3 to 8) (size 9 to 14) (size 15 to 20)
#    0.000    1.273    9.091    0.273    2.545    1.818 
#    0.000    2.727    0.000    2.182    0.000    0.000 
#    0.000    0.000    0.000    0.000    0.000    0.000 
#
# Total GULP energy -545460.148987 kJ/mol
# GULP energy per Si atom -12396.821568 kJ/mol
# Density = 1.890877 g / cm^3
# Si number density = 18.951905 Si / 1000 Ang^3
#
#
#
# Elastic Constant Matrix: (Units=GPa)
#
#
# Indices 1 2 3 4 5 6 
#
# 1 60.6696 20.3883 47.5612 0.0000 0.0000 0.0000
# 2 20.3883 96.1634 45.0040 0.0000 0.0000 0.0000
# 3 47.5612 45.0040 140.0509 0.0000 0.0000 0.0000
# 4 0.0000 0.0000 0.0000 25.2440 0.0000 0.0000
# 5 0.0000 0.0000 0.0000 0.0000 20.8161 0.0000
# 6 0.0000 0.0000 0.0000 0.0000 0.0000 -43.1723
#
#
#
# Elastic Compliance Matrix: (Units=1/GPa)
#
#
# Indices 1 2 3 4 5 6 
#
# 1 0.022625 -0.001414 -0.007229 0.000000 0.000000 0.000000
# 2 -0.001414 0.012328 -0.003481 0.000000 0.000000 0.000000
# 3 -0.007229 -0.003481 0.010714 0.000000 0.000000 0.000000
# 4 0.000000 0.000000 0.000000 0.039613 0.000000 0.000000
# 5 0.000000 0.000000 0.000000 0.000000 0.048040 0.000000
# 6 0.000000 0.000000 0.000000 0.000000 0.000000 -0.023163
#
#
# Mechanical properties :
#
#
# Convention : Reuss Voigt Hill
#
# Bulk Modulus (GPa) = 46.68861 58.08789 52.38825
# Shear Modulus (GPa) = 35.32443 12.83958 24.08201
#
# Velocity S-wave (km/s) = 4.32197 2.60567 3.56854
# Velocity P-wave (km/s) = 7.04235 6.30630 6.68446
#
# Compressibility (1/GPa) = 0.02141850
#
# Stress axis : x y z
#
# Youngs Moduli (GPa) = 44.19889 81.11638 93.33589
#
# Poissons Ratio (x) = 0.11467 0.67474
# Poissons Ratio (y) = 0.06248 0.32494
# Poissons Ratio (z) = 0.31952 0.28240
#
# Static dielectric constant tensor:
#      x y z
#    x 2.297330 0.000000 0.000000 
#    y 0.000000 3.607250 0.000000 
#    z 0.000000 0.000000 4.520070 
# 
# 
# High freq. dielectric constant tensor:
#      x y z
#    x 1.684060 0.000000 0.000000 
#    y 0.000000 1.743320 0.000000 
#    z 0.000000 0.000000 1.737960 
# 
# From -- ./inp_files/47152.got.cif
#   From: 2010.03.12/outbox.cif.g09.slc.cpg/sg66_24_cif.got.tgz:47152.got - 2010.04.10 21:57:39.
