data_PCOD8276717
_publ_section_title
;
Structure prediction by ZEFSAII (Michael W. Deem and Ramdas Pophale) SiO2 
 PCOD8276717
Probable space group: C C C M
;
_chemical_formula_sum "Si O2"
_cell_formula_units_Z 108
_cell_length_a 33.633813
_cell_length_b 11.097183
_cell_length_c 14.522033
_cell_angle_alpha 90.000000
_cell_angle_beta 90.000000
_cell_angle_gamma 90.000000
_cell_volume 5420.211988
_symmetry_space_group_name_H-M "C C C M"
_symmetry_group_IT_number 66
_symmetry_cell_setting 'orthorhombic'
loop_
_space_group_symop_operation_xyz
x,y,z
-x,-y,z
x,-y,1/2-z
-x,y,1/2-z
-x,-y,-z
x,y,-z
-x,y,1/2+z
x,-y,1/2+z
1/2+x,1/2+y,z
1/2-x,1/2-y,z
1/2+x,1/2-y,1/2-z
1/2-x,1/2+y,1/2-z
1/2-x,1/2-y,-z
1/2+x,1/2+y,-z
1/2-x,1/2+y,1/2+z
1/2+x,1/2-y,1/2+z
loop_
_atom_site_type_symbol
_atom_site_label
_atom_site_fract_x
_atom_site_fract_y
_atom_site_fract_z
Si Si1 0.321727 0.588850 0.603814
Si Si2 0.597931 0.000000 0.250000
Si Si3 0.340934 0.806404 0.280168
Si Si4 0.463238 0.921751 0.896412
Si Si5 0.549225 0.650420 0.603642
Si Si6 0.256435 0.120045 0.198391
Si Si7 0.500000 0.500000 0.750000
Si Si8 0.143088 0.831446 0.106229
O O1 0.334738 0.612177 0.500000
O O2 0.347010 0.681727 0.665432
O O3 0.274159 0.616688 0.612333
O O4 0.333967 0.454268 0.632833
O O5 0.622719 0.894378 0.201942
O O6 0.573912 0.944025 0.332748
O O7 0.303376 0.882085 0.321020
O O8 0.338344 0.773070 0.171143
O O9 0.472295 0.780052 0.893381
O O10 0.500000 0.000000 0.858512
O O11 0.452743 0.963187 0.000000
O O12 0.543334 0.595808 0.500000
O O13 0.528537 0.574762 0.683277
O O14 0.596109 0.656981 0.625199
O O15 0.250000 0.250000 0.251016
O O16 0.243079 0.000000 0.250000
O O17 0.151080 0.795391 0.000000
#
# Coordination Sequence:
#
# PCOD8276717 Si02
#       8
#    16   8  16  16  16  16   4  16
#     4  10  22  39  62  89 121 165 206 252 310 368
#     4  12  23  36  64  91 120 158 209 244 308 371
#     4  11  22  36  61  91 124 158 204 257 307 364
#     4  10  23  43  64  87 122 163 202 254 309 371
#     4  10  23  42  63  93 130 165 208 259 315 376
#     4  10  20  37  59  86 121 163 203 256 307 367
#     4  12  26  36  66  96 124 168 200 258 320 374
#     4  10  21  41  65  89 122 164 209 257 311 373
#
# _framework density 19.925419000000002
#
# number of rings (size 3 to 8) (size 9 to 14) (size 15 to 20)
#    0.000    1.630    2.222    2.667    4.148    3.259 
#    0.000    0.741    0.000    6.222    0.000    0.000 
#    0.000    0.000    0.000    0.000    0.000    0.000 
#
# Total GULP energy -669155.635442 kJ/mol
# GULP energy per Si atom -12391.771027 kJ/mol
# Density = 1.988007 g / cm^3
# Si number density = 19.925419 Si / 1000 Ang^3
#
#
#
# Elastic Constant Matrix: (Units=GPa)
#
#
# Indices 1 2 3 4 5 6 
#
# 1 101.3098 29.0251 27.8544 0.0000 0.0000 0.0000
# 2 29.0251 90.9875 33.0058 0.0000 0.0000 0.0000
# 3 27.8544 33.0058 76.8336 0.0000 0.0000 0.0000
# 4 0.0000 0.0000 0.0000 27.1754 0.0000 0.0000
# 5 0.0000 0.0000 0.0000 0.0000 30.4401 0.0000
# 6 0.0000 0.0000 0.0000 0.0000 0.0000 34.9794
#
#
#
# Elastic Compliance Matrix: (Units=1/GPa)
#
#
# Indices 1 2 3 4 5 6 
#
# 1 0.011439 -0.002541 -0.003055 0.000000 0.000000 0.000000
# 2 -0.002541 0.013584 -0.004914 0.000000 0.000000 0.000000
# 3 -0.003055 -0.004914 0.016234 0.000000 0.000000 0.000000
# 4 0.000000 0.000000 0.000000 0.036798 0.000000 0.000000
# 5 0.000000 0.000000 0.000000 0.000000 0.032851 0.000000
# 6 0.000000 0.000000 0.000000 0.000000 0.000000 0.028588
#
#
# Mechanical properties :
#
#
# Convention : Reuss Voigt Hill
#
# Bulk Modulus (GPa) = 49.41761 49.87794 49.64777
# Shear Modulus (GPa) = 29.89370 30.46869 30.18120
#
# Velocity S-wave (km/s) = 3.87755 3.91466 3.89615
# Velocity P-wave (km/s) = 6.70092 6.74681 6.72390
#
# Compressibility (1/GPa) = 0.02023570
#
# Stress axis : x y z
#
# Youngs Moduli (GPa) = 87.42282 73.61833 61.59979
#
# Poissons Ratio (x) = 0.18703 0.18822
# Poissons Ratio (y) = 0.22210 0.30271
# Poissons Ratio (z) = 0.26712 0.36177
#
# Static dielectric constant tensor:
#      x y z
#    x 3.679070 0.000000 0.000000 
#    y 0.000000 3.856720 0.000000 
#    z 0.000000 0.000000 3.575940 
# 
# 
# High freq. dielectric constant tensor:
#      x y z
#    x 1.777100 0.000000 0.000000 
#    y 0.000000 1.786190 0.000000 
#    z 0.000000 0.000000 1.767290 
# 
# From -- ./inp_files/33869.got.cif
#   From: 2010.03.12/outbox.cif.g09.slc.cpg/sg66_17_cif.got.tgz:33869.got - 2010.04.10 21:57:39.
