data_PCOD8276839
_publ_section_title
;
Structure prediction by ZEFSAII (Michael W. Deem and Ramdas Pophale) SiO2 
 PCOD8276839
Probable space group: C C C M
;
_chemical_formula_sum "Si O2"
_cell_formula_units_Z 64
_cell_length_a 10.357358
_cell_length_b 11.890098
_cell_length_c 22.813679
_cell_angle_alpha 90.000000
_cell_angle_beta 90.000000
_cell_angle_gamma 90.000000
_cell_volume 2809.504606
_symmetry_space_group_name_H-M "C C C M"
_symmetry_group_IT_number 66
_symmetry_cell_setting 'orthorhombic'
loop_
_space_group_symop_operation_xyz
x,y,z
-x,-y,z
x,-y,1/2-z
-x,y,1/2-z
-x,-y,-z
x,y,-z
-x,y,1/2+z
x,-y,1/2+z
1/2+x,1/2+y,z
1/2-x,1/2-y,z
1/2+x,1/2-y,1/2-z
1/2-x,1/2+y,1/2-z
1/2-x,1/2-y,-z
1/2+x,1/2+y,-z
1/2-x,1/2+y,1/2+z
1/2+x,1/2-y,1/2+z
loop_
_atom_site_type_symbol
_atom_site_label
_atom_site_fract_x
_atom_site_fract_y
_atom_site_fract_z
Si Si1 0.343391 0.643390 0.500000
Si Si2 0.417600 0.890941 0.121974
Si Si3 0.359878 0.943796 0.000000
Si Si4 0.958878 0.160156 0.376159
Si Si5 0.818281 0.984969 0.317803
O O1 0.250000 0.750000 0.500000
O O2 0.255690 0.533231 0.500000
O O3 0.440886 0.647334 0.445482
O O4 0.346628 0.867579 0.059177
O O5 0.510458 0.789005 0.141020
O O6 0.316808 0.920803 0.173460
O O7 0.500000 0.000000 0.111384
O O8 0.500000 0.000000 0.000000
O O9 0.077236 0.088623 0.351866
O O10 0.827344 0.111565 0.345717
O O11 0.849544 0.000000 0.250000
#
# Coordination Sequence:
#
# PCOD8276839 Si02
#       5
#     8  16   8  16  16
#     4  12  22  40  72 111 145 187 226 297 368 435
#     4  11  23  44  70 107 140 179 236 294 354 427
#     4  10  20  39  65 102 150 174 220 293 357 434
#     4  11  24  44  72 101 141 186 229 291 365 422
#     4  11  26  50  68  97 142 190 246 294 351 421
#
# _framework density 22.779817000000001
#
# number of rings (size 3 to 8) (size 9 to 14) (size 15 to 20)
#    0.000    1.000    2.500    6.000    0.000    3.500 
#   13.500    2.500    0.000    0.000    0.000    0.000 
#    0.000    0.000    0.000    0.000    0.000    0.000 
#
# Total GULP energy -396540.838702 kJ/mol
# GULP energy per Si atom -12391.901209 kJ/mol
# Density = 2.272797 g / cm^3
# Si number density = 22.779817 Si / 1000 Ang^3
#
#
#
# Elastic Constant Matrix: (Units=GPa)
#
#
# Indices 1 2 3 4 5 6 
#
# 1 87.4180 40.0792 47.8276 0.0000 0.0000 0.0000
# 2 40.0792 152.2630 48.9106 0.0000 0.0000 0.0000
# 3 47.8276 48.9106 168.7080 0.0000 0.0000 0.0000
# 4 0.0000 0.0000 0.0000 31.6356 0.0000 0.0000
# 5 0.0000 0.0000 0.0000 0.0000 28.8815 0.0000
# 6 0.0000 0.0000 0.0000 0.0000 0.0000 47.2412
#
#
#
# Elastic Compliance Matrix: (Units=1/GPa)
#
#
# Indices 1 2 3 4 5 6 
#
# 1 0.014517 -0.002756 -0.003317 0.000000 0.000000 0.000000
# 2 -0.002756 0.007765 -0.001470 0.000000 0.000000 0.000000
# 3 -0.003317 -0.001470 0.007294 0.000000 0.000000 0.000000
# 4 0.000000 0.000000 0.000000 0.031610 0.000000 0.000000
# 5 0.000000 0.000000 0.000000 0.000000 0.034624 0.000000
# 6 0.000000 0.000000 0.000000 0.000000 0.000000 0.021168
#
#
# Mechanical properties :
#
#
# Convention : Reuss Voigt Hill
#
# Bulk Modulus (GPa) = 69.00640 75.78043 72.39342
# Shear Modulus (GPa) = 36.52463 39.65644 38.09054
#
# Velocity S-wave (km/s) = 4.00856 4.17689 4.09359
# Velocity P-wave (km/s) = 7.19606 7.52333 7.36152
#
# Compressibility (1/GPa) = 0.01449141
#
# Stress axis : x y z
#
# Youngs Moduli (GPa) = 68.88286 128.77977 137.10295
#
# Poissons Ratio (x) = 0.35491 0.45472
# Poissons Ratio (y) = 0.18984 0.20153
# Poissons Ratio (z) = 0.22846 0.18930
#
# Static dielectric constant tensor:
#      x y z
#    x -19.417990 0.000000 0.000000 
#    y 0.000000 4.455650 0.000000 
#    z 0.000000 0.000000 4.350220 
# 
# 
# High freq. dielectric constant tensor:
#      x y z
#    x 1.896340 0.000000 0.000000 
#    y 0.000000 1.897240 0.000000 
#    z 0.000000 0.000000 1.901210 
# 
# From -- ./inp_files/56347.got.cif
#   From: 2010.03.12/outbox.cif.g09.slc.cpg/sg66_29_cif.got.tgz:56347.got - 2010.04.10 21:57:39.
