data_PCOD8276678
_publ_section_title
;
Structure prediction by ZEFSAII (Michael W. Deem and Ramdas Pophale) SiO2 
 PCOD8276678
Probable space group: C C C M
;
_chemical_formula_sum "Si O2"
_cell_formula_units_Z 96
_cell_length_a 27.726202
_cell_length_b 9.525472
_cell_length_c 19.368270
_cell_angle_alpha 90.000000
_cell_angle_beta 90.000000
_cell_angle_gamma 90.000000
_cell_volume 5115.260063
_symmetry_space_group_name_H-M "C C C M"
_symmetry_group_IT_number 66
_symmetry_cell_setting 'orthorhombic'
loop_
_space_group_symop_operation_xyz
x,y,z
-x,-y,z
x,-y,1/2-z
-x,y,1/2-z
-x,-y,-z
x,y,-z
-x,y,1/2+z
x,-y,1/2+z
1/2+x,1/2+y,z
1/2-x,1/2-y,z
1/2+x,1/2-y,1/2-z
1/2-x,1/2+y,1/2-z
1/2-x,1/2-y,-z
1/2+x,1/2+y,-z
1/2-x,1/2+y,1/2+z
1/2+x,1/2-y,1/2+z
loop_
_atom_site_type_symbol
_atom_site_label
_atom_site_fract_x
_atom_site_fract_y
_atom_site_fract_z
Si Si1 0.232856 0.907771 0.180700
Si Si2 0.371695 0.464774 0.673176
Si Si3 0.975478 0.851130 0.681385
Si Si4 0.282467 0.116716 0.919575
Si Si5 0.879908 0.763700 0.920337
Si Si6 0.482500 0.854044 0.579299
O O1 0.250000 0.750000 0.196383
O O2 0.178691 0.896929 0.147093
O O3 0.236399 0.000000 0.250000
O O4 0.267117 0.980803 0.123812
O O5 0.357021 0.500000 0.750000
O O6 0.417426 0.361267 0.680999
O O7 0.384809 0.598607 0.626579
O O8 0.000000 0.781019 0.750000
O O9 0.986820 0.766430 0.613716
O O10 0.000000 0.000000 0.673308
O O11 0.250000 0.250000 0.900955
O O12 0.336150 0.163753 0.898382
O O13 0.278687 0.076587 0.000000
O O14 0.926023 0.666176 0.908399
O O15 0.874996 0.813271 0.000000
O O16 0.497025 0.847183 0.500000
O O17 0.500000 0.000000 0.612205
#
# Coordination Sequence:
#
# PCOD8276678 Si02
#       6
#    16  16  16  16  16  16
#     4  11  25  40  59  88 121 154 196 250 301 354
#     4  11  21  36  60  84 117 152 195 245 290 352
#     4  11  20  37  59  86 114 151 197 242 289 344
#     4  10  20  38  63  87 116 156 200 244 296 359
#     4  10  20  36  62  89 116 157 198 237 297 362
#     4  10  22  38  57  86 122 154 192 244 296 347
#
# _framework density 18.767375000000001
#
# number of rings (size 3 to 8) (size 9 to 14) (size 15 to 20)
#    0.000    1.500    5.000    0.500    2.333    3.000 
#    0.000    0.000    0.000    0.000    0.000    0.000 
#    0.000    0.000    0.000    0.000    0.000    0.000 
#
# Total GULP energy -594955.075317 kJ/mol
# GULP energy per Si atom -12394.897402 kJ/mol
# Density = 1.872466 g / cm^3
# Si number density = 18.767375 Si / 1000 Ang^3
#
#
#
# Elastic Constant Matrix: (Units=GPa)
#
#
# Indices 1 2 3 4 5 6 
#
# 1 139.7931 44.2536 42.6970 0.0000 0.0000 0.0000
# 2 44.2536 70.2356 43.1764 0.0000 0.0000 0.0000
# 3 42.6970 43.1764 74.9589 0.0000 0.0000 0.0000
# 4 0.0000 0.0000 0.0000 35.5340 0.0000 0.0000
# 5 0.0000 0.0000 0.0000 0.0000 32.0309 0.0000
# 6 0.0000 0.0000 0.0000 0.0000 0.0000 5.2216
#
#
#
# Elastic Compliance Matrix: (Units=1/GPa)
#
#
# Indices 1 2 3 4 5 6 
#
# 1 0.009350 -0.004052 -0.002992 0.000000 0.000000 0.000000
# 2 -0.004052 0.023799 -0.011400 0.000000 0.000000 0.000000
# 3 -0.002992 -0.011400 0.021611 0.000000 0.000000 0.000000
# 4 0.000000 0.000000 0.000000 0.028142 0.000000 0.000000
# 5 0.000000 0.000000 0.000000 0.000000 0.031220 0.000000
# 6 0.000000 0.000000 0.000000 0.000000 0.000000 0.191514
#
#
# Mechanical properties :
#
#
# Convention : Reuss Voigt Hill
#
# Bulk Modulus (GPa) = 55.95273 60.58238 58.26755
# Shear Modulus (GPa) = 14.34798 24.88134 19.61466
#
# Velocity S-wave (km/s) = 2.76799 3.64507 3.23638
# Velocity P-wave (km/s) = 6.33200 7.07574 6.71418
#
# Compressibility (1/GPa) = 0.01787223
#
# Stress axis : x y z
#
# Youngs Moduli (GPa) = 106.95269 42.01870 46.27199
#
# Poissons Ratio (x) = 0.17026 0.13844
# Poissons Ratio (y) = 0.43337 0.52751
# Poissons Ratio (z) = 0.31999 0.47902
#
# Static dielectric constant tensor:
#      x y z
#    x 3.973340 0.000000 0.000000 
#    y 0.000000 3.208410 0.000000 
#    z 0.000000 0.000000 3.589650 
# 
# 
# High freq. dielectric constant tensor:
#      x y z
#    x 1.751260 0.000000 0.000000 
#    y 0.000000 1.704500 0.000000 
#    z 0.000000 0.000000 1.731020 
# 
# From -- ./inp_files/47351.got.cif
#   From: 2010.03.12/outbox.cif.g09.slc.cpg/sg66_24_cif.got.tgz:47351.got - 2010.04.10 21:57:39.
