data_PCOD8276801
_publ_section_title
;
Structure prediction by ZEFSAII (Michael W. Deem and Ramdas Pophale) SiO2 
 PCOD8276801
Probable space group: C C C M
;
_chemical_formula_sum "Si O2"
_cell_formula_units_Z 112
_cell_length_a 29.344601
_cell_length_b 10.322076
_cell_length_c 17.293942
_cell_angle_alpha 90.000000
_cell_angle_beta 90.000000
_cell_angle_gamma 90.000000
_cell_volume 5238.286638
_symmetry_space_group_name_H-M "C C C M"
_symmetry_group_IT_number 66
_symmetry_cell_setting 'orthorhombic'
loop_
_space_group_symop_operation_xyz
x,y,z
-x,-y,z
x,-y,1/2-z
-x,y,1/2-z
-x,-y,-z
x,y,-z
-x,y,1/2+z
x,-y,1/2+z
1/2+x,1/2+y,z
1/2-x,1/2-y,z
1/2+x,1/2-y,1/2-z
1/2-x,1/2+y,1/2-z
1/2-x,1/2-y,-z
1/2+x,1/2+y,-z
1/2-x,1/2+y,1/2+z
1/2+x,1/2-y,1/2+z
loop_
_atom_site_type_symbol
_atom_site_label
_atom_site_fract_x
_atom_site_fract_y
_atom_site_fract_z
Si Si1 0.560453 0.953469 0.664052
Si Si2 0.299809 0.260403 0.412681
Si Si3 0.049161 0.949437 0.409952
Si Si4 0.649720 0.999679 0.913222
Si Si5 0.354793 0.509050 0.840922
Si Si6 0.512340 0.181782 0.588057
Si Si7 0.698161 0.736839 0.908405
O O1 0.532894 0.820563 0.643841
O O2 0.549172 0.000000 0.750000
O O3 0.613659 0.944979 0.648672
O O4 0.541745 0.054158 0.600896
O O5 0.297516 0.316508 0.500000
O O6 0.250000 0.250000 0.374240
O O7 0.332922 0.353984 0.364888
O O8 0.313248 0.110864 0.414232
O O9 0.055698 0.982383 0.500000
O O10 0.047283 0.796754 0.392167
O O11 0.092236 0.009576 0.366073
O O12 0.000000 0.000000 0.380398
O O13 0.670926 0.865428 0.882333
O O14 0.629563 0.980164 0.000000
O O15 0.352751 0.500000 0.750000
O O16 0.326656 0.389536 0.875704
O O17 0.495225 0.194999 0.500000
O O18 0.750000 0.750000 0.877269
O O19 0.698465 0.724179 0.000000
#
# Coordination Sequence:
#
# PCOD8276801 Si02
#       7
#    16  16  16  16  16  16  16
#     4  11  22  36  55  87 123 157 193 244 310 379
#     4  10  22  42  68  96 126 165 218 274 323 378
#     4  10  23  43  65  88 117 163 221 270 310 368
#     4  10  21  37  63  93 120 156 208 265 318 373
#     4  12  26  42  62  97 139 179 211 260 335 406
#     4  10  20  38  62  84 112 149 201 256 301 351
#     4  10  21  42  71  96 122 165 222 273 319 383
#
# _framework density 21.381036999999999
#
# number of rings (size 3 to 8) (size 9 to 14) (size 15 to 20)
#    0.000    1.571    0.000    5.571    2.000    7.714 
#    2.571    1.429    0.000    0.000    0.000    0.000 
#    0.000    0.000    0.000    0.000    0.000    0.000 
#
# Total GULP energy -694145.118595 kJ/mol
# GULP energy per Si atom -12395.448546 kJ/mol
# Density = 2.133237 g / cm^3
# Si number density = 21.381037 Si / 1000 Ang^3
#
#
#
# Elastic Constant Matrix: (Units=GPa)
#
#
# Indices 1 2 3 4 5 6 
#
# 1 132.3104 22.3856 25.1062 0.0000 0.0000 0.0000
# 2 22.3856 84.7216 12.5185 0.0000 0.0000 0.0000
# 3 25.1062 12.5185 69.7908 0.0000 0.0000 0.0000
# 4 0.0000 0.0000 0.0000 13.9701 0.0000 0.0000
# 5 0.0000 0.0000 0.0000 0.0000 3.8438 0.0000
# 6 0.0000 0.0000 0.0000 0.0000 0.0000 36.2123
#
#
#
# Elastic Compliance Matrix: (Units=1/GPa)
#
#
# Indices 1 2 3 4 5 6 
#
# 1 0.008375 -0.001816 -0.002687 0.000000 0.000000 0.000000
# 2 -0.001816 0.012518 -0.001592 0.000000 0.000000 0.000000
# 3 -0.002687 -0.001592 0.015581 0.000000 0.000000 0.000000
# 4 0.000000 0.000000 0.000000 0.071582 0.000000 0.000000
# 5 0.000000 0.000000 0.000000 0.000000 0.260157 0.000000
# 6 0.000000 0.000000 0.000000 0.000000 0.000000 0.027615
#
#
# Mechanical properties :
#
#
# Convention : Reuss Voigt Hill
#
# Bulk Modulus (GPa) = 41.17946 45.20480 43.19213
# Shear Modulus (GPa) = 12.01597 25.92607 18.97102
#
# Velocity S-wave (km/s) = 2.37321 3.48598 2.98196
# Velocity P-wave (km/s) = 5.17794 6.11483 5.66578
#
# Compressibility (1/GPa) = 0.02428395
#
# Stress axis : x y z
#
# Youngs Moduli (GPa) = 119.40165 79.88218 64.18162
#
# Poissons Ratio (x) = 0.14506 0.17246
# Poissons Ratio (y) = 0.21682 0.10219
# Poissons Ratio (z) = 0.32084 0.12719
#
# Static dielectric constant tensor:
#      x y z
#    x 4.189080 0.000000 0.000000 
#    y 0.000000 4.015950 0.000000 
#    z 0.000000 0.000000 3.652860 
# 
# 
# High freq. dielectric constant tensor:
#      x y z
#    x 1.852060 0.000000 0.000000 
#    y 0.000000 1.843880 0.000000 
#    z 0.000000 0.000000 1.818460 
# 
# From -- ./inp_files/33837.got.cif
#   From: 2010.03.12/outbox.cif.g09.slc.cpg/sg66_17_cif.got.tgz:33837.got - 2010.04.10 21:57:39.
