data_PCOD8276372
_publ_section_title
;
Structure prediction by ZEFSAII (Michael W. Deem and Ramdas Pophale) SiO2 
 PCOD8276372
Probable space group: C C C M
;
_chemical_formula_sum "Si O2"
_cell_formula_units_Z 80
_cell_length_a 9.660089
_cell_length_b 25.460647
_cell_length_c 16.780691
_cell_angle_alpha 90.000000
_cell_angle_beta 90.000000
_cell_angle_gamma 90.000000
_cell_volume 4127.246460
_symmetry_space_group_name_H-M "C C C M"
_symmetry_group_IT_number 66
_symmetry_cell_setting 'orthorhombic'
loop_
_space_group_symop_operation_xyz
x,y,z
-x,-y,z
x,-y,1/2-z
-x,y,1/2-z
-x,-y,-z
x,y,-z
-x,y,1/2+z
x,-y,1/2+z
1/2+x,1/2+y,z
1/2-x,1/2-y,z
1/2+x,1/2-y,1/2-z
1/2-x,1/2+y,1/2-z
1/2-x,1/2-y,-z
1/2+x,1/2+y,-z
1/2-x,1/2+y,1/2+z
1/2+x,1/2-y,1/2+z
loop_
_atom_site_type_symbol
_atom_site_label
_atom_site_fract_x
_atom_site_fract_y
_atom_site_fract_z
Si Si1 0.024824 0.371584 0.589081
Si Si2 0.144925 0.702328 0.206496
Si Si3 0.639978 0.030741 0.844976
Si Si4 0.772606 0.397021 0.296896
Si Si5 0.621716 0.538521 0.907821
O O1 0.972708 0.361175 0.500000
O O2 0.900427 0.388566 0.644925
O O3 0.100634 0.318858 0.619733
O O4 0.129451 0.420403 0.594108
O O5 0.250000 0.750000 0.197510
O O6 0.237593 0.657269 0.249151
O O7 0.000000 0.717368 0.250000
O O8 0.698711 0.052612 0.760216
O O9 0.500000 0.000000 0.827870
O O10 0.735952 0.991209 0.893355
O O11 0.634002 0.409812 0.349928
O O12 0.500000 0.500000 0.879862
O O13 0.603825 0.555628 0.000000
#
# Coordination Sequence:
#
# PCOD8276372 Si02
#       5
#    16  16  16  16  16
#     4  10  20  33  57  89 113 144 186 234 286 335
#     4   9  20  40  61  84 108 143 192 247 290 341
#     4  11  21  33  56  85 113 150 193 229 266 332
#     4  10  21  35  59  84 114 149 197 234 271 344
#     4  11  24  37  51  79 122 158 186 228 283 337
#
# _framework density 19.383382999999998
#
# number of rings (size 3 to 8) (size 9 to 14) (size 15 to 20)
#    0.000    1.800    2.000    3.600    2.800    2.800 
#    7.200    0.000    0.000   15.000    0.000    0.000 
#    0.000    0.000    0.000    0.000    0.000    0.000 
#
# Total GULP energy -495609.128471 kJ/mol
# GULP energy per Si atom -12390.228212 kJ/mol
# Density = 1.933927 g / cm^3
# Si number density = 19.383383 Si / 1000 Ang^3
#
#
#
# Elastic Constant Matrix: (Units=GPa)
#
#
# Indices 1 2 3 4 5 6 
#
# 1 54.2653 25.2141 7.4508 0.0000 0.0000 0.0000
# 2 25.2141 96.1341 31.4834 0.0000 0.0000 0.0000
# 3 7.4508 31.4834 96.1475 0.0000 0.0000 0.0000
# 4 0.0000 0.0000 0.0000 22.7126 0.0000 0.0000
# 5 0.0000 0.0000 0.0000 0.0000 21.1390 0.0000
# 6 0.0000 0.0000 0.0000 0.0000 0.0000 42.7638
#
#
#
# Elastic Compliance Matrix: (Units=1/GPa)
#
#
# Indices 1 2 3 4 5 6 
#
# 1 0.020989 -0.005570 0.000197 0.000000 0.000000 0.000000
# 2 -0.005570 0.013130 -0.003868 0.000000 0.000000 0.000000
# 3 0.000197 -0.003868 0.011652 0.000000 0.000000 0.000000
# 4 0.000000 0.000000 0.000000 0.044028 0.000000 0.000000
# 5 0.000000 0.000000 0.000000 0.000000 0.047306 0.000000
# 6 0.000000 0.000000 0.000000 0.000000 0.000000 0.023384
#
#
# Mechanical properties :
#
#
# Convention : Reuss Voigt Hill
#
# Bulk Modulus (GPa) = 36.64308 41.64927 39.14618
# Shear Modulus (GPa) = 26.58646 29.48296 28.03471
#
# Velocity S-wave (km/s) = 3.70754 3.90429 3.80719
# Velocity P-wave (km/s) = 6.10518 6.46980 6.29014
#
# Compressibility (1/GPa) = 0.02729028
#
# Stress axis : x y z
#
# Youngs Moduli (GPa) = 47.64450 76.16401 85.82317
#
# Poissons Ratio (x) = 0.42420 -0.01693
# Poissons Ratio (y) = 0.26536 0.33193
# Poissons Ratio (z) = -0.00940 0.29458
#
# Static dielectric constant tensor:
#      x y z
#    x 10.617260 0.000000 0.000000 
#    y 0.000000 3.717350 0.000000 
#    z 0.000000 0.000000 3.703390 
# 
# 
# High freq. dielectric constant tensor:
#      x y z
#    x 1.731970 0.000000 0.000000 
#    y 0.000000 1.743790 0.000000 
#    z 0.000000 0.000000 1.760370 
# 
# From -- ./inp_files/36999.got.cif
#   From: 2010.03.12/outbox.cif.g09.slc.cpg/sg66_19_cif.got.tgz:36999.got - 2010.04.10 21:57:39.
