data_PCOD8276064
_publ_section_title
;
Structure prediction by ZEFSAII (Michael W. Deem and Ramdas Pophale) SiO2 
 PCOD8276064
Probable space group: C C C M
;
_chemical_formula_sum "Si O2"
_cell_formula_units_Z 80
_cell_length_a 6.324778
_cell_length_b 22.906802
_cell_length_c 28.236757
_cell_angle_alpha 90.000000
_cell_angle_beta 90.000000
_cell_angle_gamma 90.000000
_cell_volume 4090.953703
_symmetry_space_group_name_H-M "C C C M"
_symmetry_group_IT_number 66
_symmetry_cell_setting 'orthorhombic'
loop_
_space_group_symop_operation_xyz
x,y,z
-x,-y,z
x,-y,1/2-z
-x,y,1/2-z
-x,-y,-z
x,y,-z
-x,y,1/2+z
x,-y,1/2+z
1/2+x,1/2+y,z
1/2-x,1/2-y,z
1/2+x,1/2-y,1/2-z
1/2-x,1/2+y,1/2-z
1/2-x,1/2-y,-z
1/2+x,1/2+y,-z
1/2-x,1/2+y,1/2+z
1/2+x,1/2-y,1/2+z
loop_
_atom_site_type_symbol
_atom_site_label
_atom_site_fract_x
_atom_site_fract_y
_atom_site_fract_z
Si Si1 0.137375 0.310426 0.627324
Si Si2 0.211570 0.900990 0.946712
Si Si3 0.250000 0.250000 0.836098
Si Si4 0.380010 0.441683 0.124604
Si Si5 0.980183 0.849370 0.696587
Si Si6 0.500000 0.000000 0.582462
O O1 0.250000 0.250000 0.614793
O O2 0.160296 0.352205 0.582168
O O3 0.244382 0.341178 0.674068
O O4 0.888098 0.296484 0.633474
O O5 0.344562 0.961091 0.949313
O O6 0.986625 0.914021 0.922338
O O7 0.171008 0.878826 0.000000
O O8 0.410090 0.286024 0.803634
O O9 0.500000 0.500000 0.140997
O O10 0.386848 0.395680 0.166736
O O11 0.135298 0.456184 0.115355
O O12 0.000000 0.872449 0.750000
#
# Coordination Sequence:
#
# PCOD8276064 Si02
#       6
#    16  16   8  16  16   8
#     4   9  20  37  52  75 108 143 176 219 274 322
#     4  10  20  34  54  79 107 140 181 224 270 326
#     4  10  20  34  55  76 110 136 177 224 274 324
#     4   9  20  37  54  77 109 142 178 225 275 325
#     4  10  21  34  56  80 105 140 180 224 273 330
#     4  10  19  34  56  77 106 140 178 223 275 322
#
# _framework density 19.555340999999999
#
# number of rings (size 3 to 8) (size 9 to 14) (size 15 to 20)
#    0.000    2.400    0.000    1.500    4.200    5.200 
#    0.000    0.500    0.000   10.800    0.000    0.000 
#    0.000    0.000    0.000    0.000    0.000    0.000 
#
# Total GULP energy -495895.225456 kJ/mol
# GULP energy per Si atom -12397.380636 kJ/mol
# Density = 1.951083 g / cm^3
# Si number density = 19.555341 Si / 1000 Ang^3
#
#
#
# Elastic Constant Matrix: (Units=GPa)
#
#
# Indices 1 2 3 4 5 6 
#
# 1 107.0513 22.9487 48.6650 0.0000 0.0000 0.0000
# 2 22.9487 68.0993 49.9734 0.0000 0.0000 0.0000
# 3 48.6650 49.9734 158.0973 0.0000 0.0000 0.0000
# 4 0.0000 0.0000 0.0000 15.3954 0.0000 0.0000
# 5 0.0000 0.0000 0.0000 0.0000 7.6335 0.0000
# 6 0.0000 0.0000 0.0000 0.0000 0.0000 39.6549
#
#
#
# Elastic Compliance Matrix: (Units=1/GPa)
#
#
# Indices 1 2 3 4 5 6 
#
# 1 0.010992 -0.001590 -0.002881 0.000000 0.000000 0.000000
# 2 -0.001590 0.019349 -0.005627 0.000000 0.000000 0.000000
# 3 -0.002881 -0.005627 0.008991 0.000000 0.000000 0.000000
# 4 0.000000 0.000000 0.000000 0.064954 0.000000 0.000000
# 5 0.000000 0.000000 0.000000 0.000000 0.131002 0.000000
# 6 0.000000 0.000000 0.000000 0.000000 0.000000 0.025218
#
#
# Mechanical properties :
#
#
# Convention : Reuss Voigt Hill
#
# Bulk Modulus (GPa) = 52.25636 64.04688 58.15162
# Shear Modulus (GPa) = 17.41677 26.64748 22.03212
#
# Velocity S-wave (km/s) = 2.98760 3.69544 3.36021
# Velocity P-wave (km/s) = 6.21943 7.14360 6.69748
#
# Compressibility (1/GPa) = 0.01913643
#
# Stress axis : x y z
#
# Youngs Moduli (GPa) = 90.97689 51.68132 111.22772
#
# Poissons Ratio (x) = 0.08218 0.32043
# Poissons Ratio (y) = 0.14466 0.62585
# Poissons Ratio (z) = 0.26209 0.29080
#
# Static dielectric constant tensor:
#      x y z
#    x 3.647560 0.000000 0.000000 
#    y 0.000000 3.694220 0.000000 
#    z 0.000000 0.000000 3.250040 
# 
# 
# High freq. dielectric constant tensor:
#      x y z
#    x 1.762640 0.000000 0.000000 
#    y 0.000000 1.774890 0.000000 
#    z 0.000000 0.000000 1.730460 
# 
# From -- ./inp_files/67372.got.cif
#   From: 2010.03.12/outbox.cif.g09.slc.cpg/sg66_34_cif.got.tgz:67372.got - 2010.04.10 21:57:39.
