data_PCOD8276689
_publ_section_title
;
Structure prediction by ZEFSAII (Michael W. Deem and Ramdas Pophale) SiO2 
 PCOD8276689
Probable space group: C C C M
;
_chemical_formula_sum "Si O2"
_cell_formula_units_Z 116
_cell_length_a 17.462013
_cell_length_b 19.349798
_cell_length_c 17.747755
_cell_angle_alpha 90.000000
_cell_angle_beta 90.000000
_cell_angle_gamma 90.000000
_cell_volume 5996.725475
_symmetry_space_group_name_H-M "C C C M"
_symmetry_group_IT_number 66
_symmetry_cell_setting 'orthorhombic'
loop_
_space_group_symop_operation_xyz
x,y,z
-x,-y,z
x,-y,1/2-z
-x,y,1/2-z
-x,-y,-z
x,y,-z
-x,y,1/2+z
x,-y,1/2+z
1/2+x,1/2+y,z
1/2-x,1/2-y,z
1/2+x,1/2-y,1/2-z
1/2-x,1/2+y,1/2-z
1/2-x,1/2-y,-z
1/2+x,1/2+y,-z
1/2-x,1/2+y,1/2+z
1/2+x,1/2-y,1/2+z
loop_
_atom_site_type_symbol
_atom_site_label
_atom_site_fract_x
_atom_site_fract_y
_atom_site_fract_z
Si Si1 0.000000 0.500000 0.750000
Si Si2 0.748649 0.034841 0.083328
Si Si3 0.240526 0.168087 0.780593
Si Si4 0.145317 0.145406 0.636834
Si Si5 0.169360 0.283554 0.586452
Si Si6 0.995969 0.919509 0.833002
Si Si7 0.637093 0.909567 0.310656
Si Si8 0.339895 0.399634 0.087257
O O1 0.055365 0.446038 0.705686
O O2 0.784267 0.112611 0.088546
O O3 0.685194 0.028638 0.149088
O O4 0.814033 0.978753 0.098426
O O5 0.712619 0.025080 0.000000
O O6 0.250000 0.250000 0.775591
O O7 0.172287 0.146201 0.724071
O O8 0.318539 0.124643 0.760790
O O9 0.217269 0.149183 0.865764
O O10 0.115502 0.218132 0.602922
O O11 0.072671 0.098136 0.622776
O O12 0.175764 0.304241 0.500000
O O13 0.250000 0.250000 0.619075
O O14 0.131177 0.347778 0.628895
O O15 0.924951 0.891862 0.880927
O O16 0.000000 0.884332 0.750000
O O17 0.000000 0.000000 0.823347
O O18 0.337011 0.376868 0.000000
#
# Coordination Sequence:
#
# PCOD8276689 Si02
#       8
#     4  16  16  16  16  16  16  16
#     4  12  28  44  62  88 124 166 218 262 324 384
#     4  10  20  36  63  93 122 155 201 256 306 359
#     4  11  21  41  65  90 114 156 213 266 307 360
#     4  11  19  35  62  92 122 157 199 246 304 361
#     4  11  20  36  65 100 125 150 200 262 318 364
#     4  11  22  35  57  88 128 166 200 239 294 362
#     4  11  22  42  66  94 117 158 206 269 314 373
#     4  11  24  38  56  89 127 168 206 244 299 368
#
# _framework density 19.343889999999998
#
# number of rings (size 3 to 8) (size 9 to 14) (size 15 to 20)
#    0.000    1.103    6.897    1.655    0.000    3.310 
#    3.724    1.379    0.000    1.655    0.000    0.000 
#    0.000    0.000    0.000    0.000    0.000    0.000 
#
# Total GULP energy -718647.576882 kJ/mol
# GULP energy per Si atom -12390.475463 kJ/mol
# Density = 1.929986 g / cm^3
# Si number density = 19.343890 Si / 1000 Ang^3
#
#
#
# Elastic Constant Matrix: (Units=GPa)
#
#
# Indices 1 2 3 4 5 6 
#
# 1 117.9134 47.1766 58.6686 0.0000 0.0000 0.0000
# 2 47.1766 92.4180 39.8745 0.0000 0.0000 0.0000
# 3 58.6686 39.8745 126.5810 0.0000 0.0000 0.0000
# 4 0.0000 0.0000 0.0000 30.0778 0.0000 0.0000
# 5 0.0000 0.0000 0.0000 0.0000 13.6505 0.0000
# 6 0.0000 0.0000 0.0000 0.0000 0.0000 26.7305
#
#
#
# Elastic Compliance Matrix: (Units=1/GPa)
#
#
# Indices 1 2 3 4 5 6 
#
# 1 0.012436 -0.004469 -0.004356 0.000000 0.000000 0.000000
# 2 -0.004469 0.014128 -0.002379 0.000000 0.000000 0.000000
# 3 -0.004356 -0.002379 0.010669 0.000000 0.000000 0.000000
# 4 0.000000 0.000000 0.000000 0.033247 0.000000 0.000000
# 5 0.000000 0.000000 0.000000 0.000000 0.073257 0.000000
# 6 0.000000 0.000000 0.000000 0.000000 0.000000 0.037410
#
#
# Mechanical properties :
#
#
# Convention : Reuss Voigt Hill
#
# Bulk Modulus (GPa) = 67.45690 69.81687 68.63689
# Shear Modulus (GPa) = 23.98101 26.83793 25.40947
#
# Velocity S-wave (km/s) = 3.52479 3.72884 3.62825
# Velocity P-wave (km/s) = 7.17730 7.39661 7.28778
#
# Compressibility (1/GPa) = 0.01482428
#
# Stress axis : x y z
#
# Youngs Moduli (GPa) = 80.41012 70.78068 93.73217
#
# Poissons Ratio (x) = 0.31630 0.40833
# Poissons Ratio (y) = 0.35933 0.22302
# Poissons Ratio (z) = 0.35029 0.16841
#
# Static dielectric constant tensor:
#      x y z
#    x 3.397760 0.000000 0.000000 
#    y 0.000000 3.646900 0.000000 
#    z 0.000000 0.000000 3.615630 
# 
# 
# High freq. dielectric constant tensor:
#      x y z
#    x 1.724920 0.000000 0.000000 
#    y 0.000000 1.757510 0.000000 
#    z 0.000000 0.000000 1.752180 
# 
# From -- ./inp_files/41876.got.cif
#   From: 2010.03.12/outbox.cif.g09.slc.cpg/sg66_21_cif.got.tgz:41876.got - 2010.04.10 21:57:39.
