data_PCOD8276467
_publ_section_title
;
Structure prediction by ZEFSAII (Michael W. Deem and Ramdas Pophale) SiO2 
 PCOD8276467
Probable space group: C C C M
;
_chemical_formula_sum "Si O2"
_cell_formula_units_Z 112
_cell_length_a 23.657147
_cell_length_b 13.309577
_cell_length_c 17.856939
_cell_angle_alpha 90.000000
_cell_angle_beta 90.000000
_cell_angle_gamma 90.000000
_cell_volume 5622.554019
_symmetry_space_group_name_H-M "C C C M"
_symmetry_group_IT_number 66
_symmetry_cell_setting 'orthorhombic'
loop_
_space_group_symop_operation_xyz
x,y,z
-x,-y,z
x,-y,1/2-z
-x,y,1/2-z
-x,-y,-z
x,y,-z
-x,y,1/2+z
x,-y,1/2+z
1/2+x,1/2+y,z
1/2-x,1/2-y,z
1/2+x,1/2-y,1/2-z
1/2-x,1/2+y,1/2-z
1/2-x,1/2-y,-z
1/2+x,1/2+y,-z
1/2-x,1/2+y,1/2+z
1/2+x,1/2-y,1/2+z
loop_
_atom_site_type_symbol
_atom_site_label
_atom_site_fract_x
_atom_site_fract_y
_atom_site_fract_z
Si Si1 0.264432 0.359895 0.411205
Si Si2 0.188871 0.279285 0.089318
Si Si3 0.835851 0.501476 0.588886
Si Si4 0.890376 0.082765 0.911246
Si Si5 0.480784 0.715232 0.170616
Si Si6 0.588360 0.355474 0.411780
Si Si7 0.946650 0.444410 0.828186
O O1 0.261487 0.356663 0.500000
O O2 0.250000 0.250000 0.378075
O O3 0.217542 0.436416 0.379951
O O4 0.325885 0.398721 0.386347
O O5 0.250000 0.250000 0.122210
O O6 0.170826 0.388498 0.118947
O O7 0.143735 0.199608 0.121013
O O8 0.191080 0.278286 0.000000
O O9 0.838094 0.505265 0.500000
O O10 0.893039 0.550591 0.618348
O O11 0.927512 0.158710 0.863715
O O12 0.909952 0.971455 0.887433
O O13 0.898840 0.101110 0.000000
O O14 0.500000 0.668044 0.250000
O O15 0.533062 0.703051 0.114685
O O16 0.462937 0.829394 0.184299
O O17 0.589395 0.347186 0.500000
O O18 0.933409 0.500000 0.750000
O O19 0.000000 0.500000 0.867179
#
# Coordination Sequence:
#
# PCOD8276467 Si02
#       7
#    16  16  16  16  16  16  16
#     4   9  17  32  56  89 123 153 188 238 301 359
#     4   9  17  31  55  87 119 150 185 233 293 353
#     4  10  20  34  61  92 117 151 201 254 299 360
#     4  10  21  38  62  91 124 157 192 244 306 364
#     4  12  24  39  61  82 112 159 203 247 296 363
#     4  10  21  37  59  88 121 152 193 246 299 357
#     4  11  23  42  60  79 116 162 200 245 309 360
#
# _framework density 19.919772999999999
#
# number of rings (size 3 to 8) (size 9 to 14) (size 15 to 20)
#    0.000    1.857    1.429    3.429    0.000    8.286 
#    0.000    0.000    6.286    0.000    0.000    0.000 
#    0.000    0.000    0.000    0.000    0.000    0.000 
#
# Total GULP energy -694415.696364 kJ/mol
# GULP energy per Si atom -12400.280292 kJ/mol
# Density = 1.987443 g / cm^3
# Si number density = 19.919773 Si / 1000 Ang^3
#
#
#
# Elastic Constant Matrix: (Units=GPa)
#
#
# Indices 1 2 3 4 5 6 
#
# 1 166.6070 62.5295 34.2186 0.0000 0.0000 0.0000
# 2 62.5295 143.5369 40.1861 0.0000 0.0000 0.0000
# 3 34.2186 40.1861 26.1966 0.0000 0.0000 0.0000
# 4 0.0000 0.0000 0.0000 20.1963 0.0000 0.0000
# 5 0.0000 0.0000 0.0000 0.0000 9.6192 0.0000
# 6 0.0000 0.0000 0.0000 0.0000 0.0000 41.1350
#
#
#
# Elastic Compliance Matrix: (Units=1/GPa)
#
#
# Indices 1 2 3 4 5 6 
#
# 1 0.008286 -0.001016 -0.009266 0.000000 0.000000 0.000000
# 2 -0.001016 0.012336 -0.017597 0.000000 0.000000 0.000000
# 3 -0.009266 -0.017597 0.077270 0.000000 0.000000 0.000000
# 4 0.000000 0.000000 0.000000 0.049514 0.000000 0.000000
# 5 0.000000 0.000000 0.000000 0.000000 0.103959 0.000000
# 6 0.000000 0.000000 0.000000 0.000000 0.000000 0.024310
#
#
# Mechanical properties :
#
#
# Convention : Reuss Voigt Hill
#
# Bulk Modulus (GPa) = 23.73289 67.80098 45.76694
# Shear Modulus (GPa) = 14.47276 27.48387 20.97832
#
# Velocity S-wave (km/s) = 2.69839 3.71850 3.24873
# Velocity P-wave (km/s) = 4.65279 7.24895 6.09080
#
# Compressibility (1/GPa) = 0.04213562
#
# Stress axis : x y z
#
# Youngs Moduli (GPa) = 120.67960 81.06424 12.94166
#
# Poissons Ratio (x) = 0.08234 0.11991
# Poissons Ratio (y) = 0.12257 0.22773
# Poissons Ratio (z) = 1.11819 1.42647
#
# Static dielectric constant tensor:
#      x y z
#    x 3.872950 0.000000 0.000000 
#    y 0.000000 3.929460 0.000000 
#    z 0.000000 0.000000 3.189000 
# 
# 
# High freq. dielectric constant tensor:
#      x y z
#    x 1.797430 0.000000 0.000000 
#    y 0.000000 1.793740 0.000000 
#    z 0.000000 0.000000 1.732010 
# 
# From -- ./inp_files/52624.got.cif
#   From: 2010.03.12/outbox.cif.g09.slc.cpg/sg66_27_cif.got.tgz:52624.got - 2010.04.10 21:57:39.
