data_PCOD8276706
_publ_section_title
;
Structure prediction by ZEFSAII (Michael W. Deem and Ramdas Pophale) SiO2 
 PCOD8276706
Probable space group: C C C M
;
_chemical_formula_sum "Si O2"
_cell_formula_units_Z 80
_cell_length_a 11.740729
_cell_length_b 15.302386
_cell_length_c 24.406736
_cell_angle_alpha 90.000000
_cell_angle_beta 90.000000
_cell_angle_gamma 90.000000
_cell_volume 4384.942674
_symmetry_space_group_name_H-M "C C C M"
_symmetry_group_IT_number 66
_symmetry_cell_setting 'orthorhombic'
loop_
_space_group_symop_operation_xyz
x,y,z
-x,-y,z
x,-y,1/2-z
-x,y,1/2-z
-x,-y,-z
x,y,-z
-x,y,1/2+z
x,-y,1/2+z
1/2+x,1/2+y,z
1/2-x,1/2-y,z
1/2+x,1/2-y,1/2-z
1/2-x,1/2+y,1/2-z
1/2-x,1/2-y,-z
1/2+x,1/2+y,-z
1/2-x,1/2+y,1/2+z
1/2+x,1/2-y,1/2+z
loop_
_atom_site_type_symbol
_atom_site_label
_atom_site_fract_x
_atom_site_fract_y
_atom_site_fract_z
Si Si1 0.625282 0.216361 0.435575
Si Si2 0.930665 0.232731 0.855535
Si Si3 0.773362 0.396562 0.147526
Si Si4 0.812622 0.000000 0.250000
Si Si5 0.500000 0.640146 0.250000
Si Si6 0.869568 0.522829 0.939206
O O1 0.595384 0.222227 0.500000
O O2 0.750000 0.250000 0.421759
O O3 0.524548 0.266543 0.403687
O O4 0.633576 0.118409 0.413223
O O5 0.875338 0.327641 0.845159
O O6 0.839807 0.156663 0.868253
O O7 0.988347 0.206401 0.799465
O O8 0.763474 0.461507 0.200126
O O9 0.795960 0.456367 0.095598
O O10 0.892351 0.080934 0.267226
O O11 0.000000 0.500000 0.941707
O O12 0.815453 0.522141 0.000000
#
# Coordination Sequence:
#
# PCOD8276706 Si02
#       6
#    16  16  16   8   8  16
#     4  10  22  39  58  84 117 152 190 231 281 340
#     4  10  21  38  57  84 114 146 189 234 281 335
#     4  10  21  37  58  85 113 143 189 235 280 336
#     4   9  20  38  57  78 110 150 187 229 280 334
#     4   9  20  38  56  77 112 154 186 225 282 334
#     4  10  20  37  57  81 114 148 183 226 281 336
#
# _framework density 18.244254000000002
#
# number of rings (size 3 to 8) (size 9 to 14) (size 15 to 20)
#    0.000    2.200    2.000    0.000    2.800    2.400 
#    3.600    2.000    0.000    3.600    0.000    0.000 
#    0.000    0.000    0.000    0.000    0.000    0.000 
#
# Total GULP energy -495730.581473 kJ/mol
# GULP energy per Si atom -12393.264537 kJ/mol
# Density = 1.820273 g / cm^3
# Si number density = 18.244254 Si / 1000 Ang^3
#
#
#
# Elastic Constant Matrix: (Units=GPa)
#
#
# Indices 1 2 3 4 5 6 
#
# 1 88.9925 43.5152 60.5473 0.0000 0.0000 0.0000
# 2 43.5152 109.6627 60.4862 0.0000 0.0000 0.0000
# 3 60.5473 60.4862 108.5774 0.0000 0.0000 0.0000
# 4 0.0000 0.0000 0.0000 38.0663 0.0000 0.0000
# 5 0.0000 0.0000 0.0000 0.0000 35.2760 0.0000
# 6 0.0000 0.0000 0.0000 0.0000 0.0000 18.9981
#
#
#
# Elastic Compliance Matrix: (Units=1/GPa)
#
#
# Indices 1 2 3 4 5 6 
#
# 1 0.018529 -0.002387 -0.009003 0.000000 0.000000 0.000000
# 2 -0.002387 0.013471 -0.006173 0.000000 0.000000 0.000000
# 3 -0.009003 -0.006173 0.017670 0.000000 0.000000 0.000000
# 4 0.000000 0.000000 0.000000 0.026270 0.000000 0.000000
# 5 0.000000 0.000000 0.000000 0.000000 0.028348 0.000000
# 6 0.000000 0.000000 0.000000 0.000000 0.000000 0.052637
#
#
# Mechanical properties :
#
#
# Convention : Reuss Voigt Hill
#
# Bulk Modulus (GPa) = 68.76021 70.70335 69.73178
# Shear Modulus (GPa) = 25.39369 27.98035 26.68702
#
# Velocity S-wave (km/s) = 3.73483 3.92044 3.82876
# Velocity P-wave (km/s) = 7.50794 7.70266 7.60592
#
# Compressibility (1/GPa) = 0.01454330
#
# Stress axis : x y z
#
# Youngs Moduli (GPa) = 53.96827 74.23331 56.59427
#
# Poissons Ratio (x) = 0.17718 0.50953
# Poissons Ratio (y) = 0.12881 0.34938
# Poissons Ratio (z) = 0.48588 0.45827
#
# Static dielectric constant tensor:
#      x y z
#    x 3.365260 0.000000 0.000000 
#    y 0.000000 3.533880 0.000000 
#    z 0.000000 0.000000 3.401050 
# 
# 
# High freq. dielectric constant tensor:
#      x y z
#    x 1.705140 0.000000 0.000000 
#    y 0.000000 1.723920 0.000000 
#    z 0.000000 0.000000 1.701430 
# 
# From -- ./inp_files/63553.got.cif
#   From: 2010.03.12/outbox.cif.g09.slc.cpg/sg66_32_cif.got.tgz:63553.got - 2010.04.10 21:57:39.
