data_PCOD8276726
_publ_section_title
;
Structure prediction by ZEFSAII (Michael W. Deem and Ramdas Pophale) SiO2 
 PCOD8276726
Probable space group: C C C M
;
_chemical_formula_sum "Si O2"
_cell_formula_units_Z 96
_cell_length_a 23.721621
_cell_length_b 24.131008
_cell_length_c 8.742505
_cell_angle_alpha 90.000000
_cell_angle_beta 90.000000
_cell_angle_gamma 90.000000
_cell_volume 5004.442641
_symmetry_space_group_name_H-M "C C C M"
_symmetry_group_IT_number 66
_symmetry_cell_setting 'orthorhombic'
loop_
_space_group_symop_operation_xyz
x,y,z
-x,-y,z
x,-y,1/2-z
-x,y,1/2-z
-x,-y,-z
x,y,-z
-x,y,1/2+z
x,-y,1/2+z
1/2+x,1/2+y,z
1/2-x,1/2-y,z
1/2+x,1/2-y,1/2-z
1/2-x,1/2+y,1/2-z
1/2-x,1/2-y,-z
1/2+x,1/2+y,-z
1/2-x,1/2+y,1/2+z
1/2+x,1/2-y,1/2+z
loop_
_atom_site_type_symbol
_atom_site_label
_atom_site_fract_x
_atom_site_fract_y
_atom_site_fract_z
Si Si1 0.558427 0.860644 0.677955
Si Si2 0.274587 0.558313 0.319978
Si Si3 0.939107 0.053177 0.817525
Si Si4 0.645869 0.942160 0.819853
Si Si5 0.059613 0.231525 0.678014
Si Si6 0.367245 0.644089 0.319506
O O1 0.500000 0.881713 0.750000
O O2 0.557167 0.874397 0.500000
O O3 0.609898 0.891968 0.755513
O O4 0.567568 0.796173 0.711664
O O5 0.295782 0.500000 0.250000
O O6 0.281888 0.552602 0.500000
O O7 0.210346 0.569474 0.270893
O O8 0.310732 0.611871 0.260867
O O9 0.919017 0.108698 0.739681
O O10 0.000000 0.045815 0.750000
O O11 0.904215 0.000000 0.750000
O O12 0.936471 0.055668 0.000000
O O13 0.624475 0.000000 0.750000
O O14 0.638990 0.945484 0.000000
O O15 0.056547 0.217649 0.500000
O O16 0.116929 0.203799 0.747497
O O17 0.000000 0.211012 0.750000
O O18 0.365487 0.650931 0.500000
#
# Coordination Sequence:
#
# PCOD8276726 Si02
#       6
#    16  16  16  16  16  16
#     4  10  21  38  60  86 114 144 178 218 267 322
#     4   9  20  36  55  79 108 144 183 225 272 321
#     4  11  21  33  47  67  96 130 171 222 279 329
#     4  10  20  37  60  86 115 145 178 217 265 320
#     4  10  21  37  56  79 108 143 183 227 275 323
#     4  11  21  34  52  75 103 139 184 226 268 320
#
# _framework density 19.182956000000001
#
# number of rings (size 3 to 8) (size 9 to 14) (size 15 to 20)
#    0.000    1.833    0.000    5.000    0.000    5.667 
#    0.000    2.500    0.000    5.000    0.000    0.000 
#    0.000    0.000    0.000    0.000    0.000    0.000 
#
# Total GULP energy -594903.743005 kJ/mol
# GULP energy per Si atom -12393.827979 kJ/mol
# Density = 1.913929 g / cm^3
# Si number density = 19.182956 Si / 1000 Ang^3
#
#
#
# Elastic Constant Matrix: (Units=GPa)
#
#
# Indices 1 2 3 4 5 6 
#
# 1 108.6794 59.8093 44.6957 0.0000 0.0000 0.0000
# 2 59.8093 85.9090 47.7587 0.0000 0.0000 0.0000
# 3 44.6957 47.7587 65.3168 0.0000 0.0000 0.0000
# 4 0.0000 0.0000 0.0000 34.7344 0.0000 0.0000
# 5 0.0000 0.0000 0.0000 0.0000 27.1191 0.0000
# 6 0.0000 0.0000 0.0000 0.0000 0.0000 50.1335
#
#
#
# Elastic Compliance Matrix: (Units=1/GPa)
#
#
# Indices 1 2 3 4 5 6 
#
# 1 0.015708 -0.008358 -0.004638 0.000000 0.000000 0.000000
# 2 -0.008358 0.024059 -0.011873 0.000000 0.000000 0.000000
# 3 -0.004638 -0.011873 0.027165 0.000000 0.000000 0.000000
# 4 0.000000 0.000000 0.000000 0.028790 0.000000 0.000000
# 5 0.000000 0.000000 0.000000 0.000000 0.036874 0.000000
# 6 0.000000 0.000000 0.000000 0.000000 0.000000 0.019947
#
#
# Mechanical properties :
#
#
# Convention : Reuss Voigt Hill
#
# Bulk Modulus (GPa) = 58.15430 62.71473 60.43451
# Shear Modulus (GPa) = 24.03715 29.57348 26.80532
#
# Velocity S-wave (km/s) = 3.54368 3.93065 3.74217
# Velocity P-wave (km/s) = 6.86476 7.30506 7.08833
#
# Compressibility (1/GPa) = 0.01719563
#
# Stress axis : x y z
#
# Youngs Moduli (GPa) = 63.66085 41.56467 36.81229
#
# Poissons Ratio (x) = 0.34738 0.17074
# Poissons Ratio (y) = 0.53205 0.43706
# Poissons Ratio (z) = 0.29526 0.49348
#
# Static dielectric constant tensor:
#      x y z
#    x 3.564270 0.000000 0.000000 
#    y 0.000000 3.552660 0.000000 
#    z 0.000000 0.000000 4.120100 
# 
# 
# High freq. dielectric constant tensor:
#      x y z
#    x 1.738200 0.000000 0.000000 
#    y 0.000000 1.747110 0.000000 
#    z 0.000000 0.000000 1.755770 
# 
# From -- ./inp_files/9149.got.cif
#   From: 2010.03.12/outbox.cif.g09.slc.cpg/sg66_5_cif.got.tgz:9149.got - 2010.04.10 21:57:39.
