data_PCOD8276931
_publ_section_title
;
Structure prediction by ZEFSAII (Michael W. Deem and Ramdas Pophale) SiO2 
 PCOD8276931
Probable space group: C C C M
;
_chemical_formula_sum "Si O2"
_cell_formula_units_Z 72
_cell_length_a 5.239207
_cell_length_b 24.328274
_cell_length_c 29.010732
_cell_angle_alpha 90.000000
_cell_angle_beta 90.000000
_cell_angle_gamma 90.000000
_cell_volume 3697.732950
_symmetry_space_group_name_H-M "C C C M"
_symmetry_group_IT_number 66
_symmetry_cell_setting 'orthorhombic'
loop_
_space_group_symop_operation_xyz
x,y,z
-x,-y,z
x,-y,1/2-z
-x,y,1/2-z
-x,-y,-z
x,y,-z
-x,y,1/2+z
x,-y,1/2+z
1/2+x,1/2+y,z
1/2-x,1/2-y,z
1/2+x,1/2-y,1/2-z
1/2-x,1/2+y,1/2-z
1/2-x,1/2-y,-z
1/2+x,1/2+y,-z
1/2-x,1/2+y,1/2+z
1/2+x,1/2-y,1/2+z
loop_
_atom_site_type_symbol
_atom_site_label
_atom_site_fract_x
_atom_site_fract_y
_atom_site_fract_z
Si Si1 0.005215 0.625091 0.873257
Si Si2 0.026156 0.063821 0.153956
Si Si3 0.375253 0.802584 0.794452
Si Si4 0.000000 0.888759 0.750000
Si Si5 0.497761 0.784073 0.446256
O O1 0.272731 0.594950 0.863285
O O2 0.943577 0.669363 0.832446
O O3 0.768963 0.583544 0.875721
O O4 0.017357 0.657259 0.921239
O O5 0.095195 0.072733 0.208057
O O6 0.000000 0.000000 0.143886
O O7 0.500000 0.773797 0.750000
O O8 0.250000 0.750000 0.820193
O O9 0.212646 0.851222 0.772538
O O10 0.477188 0.797709 0.500000
O O11 0.250000 0.750000 0.429562
O O12 0.750000 0.750000 0.434329
#
# Coordination Sequence:
#
# PCOD8276931 Si02
#       5
#    16  16  16   8  16
#     4  11  23  38  59  86 115 153 193 237 292 341
#     4  11  23  39  59  80 112 154 204 251 285 327
#     4  11  20  32  51  79 119 152 182 226 277 355
#     4  10  21  36  50  78 110 156 199 240 282 328
#     4  10  21  39  64  93 121 150 185 228 284 352
#
# _framework density 19.47139
#
# number of rings (size 3 to 8) (size 9 to 14) (size 15 to 20)
#    0.000    1.333    3.333    3.000    0.000    2.667 
#    0.000    2.222    0.000    4.000    0.000    0.000 
#    0.000    0.000    0.000    0.000    0.000    0.000 
#
# Total GULP energy -446200.350646 kJ/mol
# GULP energy per Si atom -12394.454185 kJ/mol
# Density = 1.942707 g / cm^3
# Si number density = 19.471390 Si / 1000 Ang^3
#
#
#
# Elastic Constant Matrix: (Units=GPa)
#
#
# Indices 1 2 3 4 5 6 
#
# 1 130.7126 53.5336 35.6600 0.0000 0.0000 0.0000
# 2 53.5336 136.5323 55.6864 0.0000 0.0000 0.0000
# 3 35.6600 55.6864 78.7090 0.0000 0.0000 0.0000
# 4 0.0000 0.0000 0.0000 42.8152 0.0000 0.0000
# 5 0.0000 0.0000 0.0000 0.0000 13.9436 0.0000
# 6 0.0000 0.0000 0.0000 0.0000 0.0000 34.4932
#
#
#
# Elastic Compliance Matrix: (Units=1/GPa)
#
#
# Indices 1 2 3 4 5 6 
#
# 1 0.009407 -0.002741 -0.002322 0.000000 0.000000 0.000000
# 2 -0.002741 0.011094 -0.006607 0.000000 0.000000 0.000000
# 3 -0.002322 -0.006607 0.018432 0.000000 0.000000 0.000000
# 4 0.000000 0.000000 0.000000 0.023356 0.000000 0.000000
# 5 0.000000 0.000000 0.000000 0.000000 0.071718 0.000000
# 6 0.000000 0.000000 0.000000 0.000000 0.000000 0.028991
#
#
# Mechanical properties :
#
#
# Convention : Reuss Voigt Hill
#
# Bulk Modulus (GPa) = 64.13930 70.63486 67.38708
# Shear Modulus (GPa) = 26.10490 31.65532 28.88011
#
# Velocity S-wave (km/s) = 3.66550 4.03641 3.85542
# Velocity P-wave (km/s) = 7.13627 7.62093 7.38257
#
# Compressibility (1/GPa) = 0.01559107
#
# Stress axis : x y z
#
# Youngs Moduli (GPa) = 106.30879 90.14107 54.25453
#
# Poissons Ratio (x) = 0.24708 0.12601
# Poissons Ratio (y) = 0.29139 0.35846
# Poissons Ratio (z) = 0.24690 0.59556
#
# Static dielectric constant tensor:
#      x y z
#    x 3.413900 0.000000 0.000000 
#    y 0.000000 3.528940 0.000000 
#    z 0.000000 0.000000 3.695910 
# 
# 
# High freq. dielectric constant tensor:
#      x y z
#    x 1.763750 0.000000 0.000000 
#    y 0.000000 1.757710 0.000000 
#    z 0.000000 0.000000 1.743890 
# 
# From -- ./inp_files/61456.got.cif
#   From: 2010.03.12/outbox.cif.g09.slc.cpg/sg66_31_cif.got.tgz:61456.got - 2010.04.10 21:57:39.
