data_PCOD8276783
_publ_section_title
;
Structure prediction by ZEFSAII (Michael W. Deem and Ramdas Pophale) SiO2 
 PCOD8276783
Probable space group: C C C M
;
_chemical_formula_sum "Si O2"
_cell_formula_units_Z 56
_cell_length_a 20.352016
_cell_length_b 9.848350
_cell_length_c 13.813647
_cell_angle_alpha 90.000000
_cell_angle_beta 90.000000
_cell_angle_gamma 90.000000
_cell_volume 2768.721439
_symmetry_space_group_name_H-M "C C C M"
_symmetry_group_IT_number 66
_symmetry_cell_setting 'orthorhombic'
loop_
_space_group_symop_operation_xyz
x,y,z
-x,-y,z
x,-y,1/2-z
-x,y,1/2-z
-x,-y,-z
x,y,-z
-x,y,1/2+z
x,-y,1/2+z
1/2+x,1/2+y,z
1/2-x,1/2-y,z
1/2+x,1/2-y,1/2-z
1/2-x,1/2+y,1/2-z
1/2-x,1/2-y,-z
1/2+x,1/2+y,-z
1/2-x,1/2+y,1/2+z
1/2+x,1/2-y,1/2+z
loop_
_atom_site_type_symbol
_atom_site_label
_atom_site_fract_x
_atom_site_fract_y
_atom_site_fract_z
Si Si1 0.282831 0.896410 0.391863
Si Si2 0.315483 0.500000 0.250000
Si Si3 0.395065 0.226990 0.775932
Si Si4 0.517272 0.843144 0.391439
O O1 0.301582 0.947230 0.500000
O O2 0.250000 0.750000 0.398162
O O3 0.347444 0.883038 0.325766
O O4 0.232022 0.003668 0.344375
O O5 0.361039 0.369650 0.244312
O O6 0.416744 0.172653 0.671035
O O7 0.458135 0.245748 0.845777
O O8 0.530159 0.790643 0.500000
O O9 0.500000 0.000000 0.389181
#
# Coordination Sequence:
#
# PCOD8276783 Si02
#       4
#    16   8  16  16
#     4   9  19  36  57  81 114 155 190 226 282 349
#     4  10  22  35  58  89 118 150 194 236 292 352
#     4  10  20  38  58  86 118 149 192 244 292 347
#     4  10  22  38  60  84 110 152 198 242 290 346
#
# _framework density 20.225943000000001
#
# number of rings (size 3 to 8) (size 9 to 14) (size 15 to 20)
#    0.000    2.286    0.000    2.571    4.000    4.571 
#    0.000    1.429    0.000    5.143    0.000    0.000 
#    0.000    0.000    0.000    0.000    0.000    0.000 
#
# Total GULP energy -347126.903553 kJ/mol
# GULP energy per Si atom -12397.389413 kJ/mol
# Density = 2.017991 g / cm^3
# Si number density = 20.225943 Si / 1000 Ang^3
#
#
#
# Elastic Constant Matrix: (Units=GPa)
#
#
# Indices 1 2 3 4 5 6 
#
# 1 126.2551 41.6554 91.2921 0.0000 0.0000 0.0000
# 2 41.6554 63.4245 51.0575 0.0000 0.0000 0.0000
# 3 91.2921 51.0575 217.2675 0.0000 0.0000 0.0000
# 4 0.0000 0.0000 0.0000 24.9316 0.0000 0.0000
# 5 0.0000 0.0000 0.0000 0.0000 31.3318 0.0000
# 6 0.0000 0.0000 0.0000 0.0000 0.0000 37.4033
#
#
#
# Elastic Compliance Matrix: (Units=1/GPa)
#
#
# Indices 1 2 3 4 5 6 
#
# 1 0.012506 -0.004913 -0.004100 0.000000 0.000000 0.000000
# 2 -0.004913 0.021375 -0.002959 0.000000 0.000000 0.000000
# 3 -0.004100 -0.002959 0.007021 0.000000 0.000000 0.000000
# 4 0.000000 0.000000 0.000000 0.040110 0.000000 0.000000
# 5 0.000000 0.000000 0.000000 0.000000 0.031916 0.000000
# 6 0.000000 0.000000 0.000000 0.000000 0.000000 0.026736
#
#
# Mechanical properties :
#
#
# Convention : Reuss Voigt Hill
#
# Bulk Modulus (GPa) = 58.96861 86.10636 72.53748
# Shear Modulus (GPa) = 29.54013 33.59616 31.56815
#
# Velocity S-wave (km/s) = 3.82580 4.08001 3.95495
# Velocity P-wave (km/s) = 6.98097 8.05357 7.53638
#
# Compressibility (1/GPa) = 0.01695817
#
# Stress axis : x y z
#
# Youngs Moduli (GPa) = 79.95973 46.78290 142.43261
#
# Poissons Ratio (x) = 0.22984 0.58403
# Poissons Ratio (y) = 0.39283 0.42144
# Poissons Ratio (z) = 0.32787 0.13842
#
# Static dielectric constant tensor:
#      x y z
#    x 3.909900 0.000000 0.000000 
#    y 0.000000 3.327280 0.000000 
#    z 0.000000 0.000000 4.212440 
# 
# 
# High freq. dielectric constant tensor:
#      x y z
#    x 1.803060 0.000000 0.000000 
#    y 0.000000 1.756590 0.000000 
#    z 0.000000 0.000000 1.802010 
# 
# From -- ./inp_files/23862.got.cif
#   From: 2010.03.12/outbox.cif.g09.slc.cpg/sg66_12_cif.got.tgz:23862.got - 2010.04.10 21:57:39.
