data_PCOD8276936
_publ_section_title
;
Structure prediction by ZEFSAII (Michael W. Deem and Ramdas Pophale) SiO2 
 PCOD8276936
Probable space group: C C C M
;
_chemical_formula_sum "Si O2"
_cell_formula_units_Z 64
_cell_length_a 5.025959
_cell_length_b 24.910595
_cell_length_c 26.642915
_cell_angle_alpha 90.000000
_cell_angle_beta 90.000000
_cell_angle_gamma 90.000000
_cell_volume 3335.683077
_symmetry_space_group_name_H-M "C C C M"
_symmetry_group_IT_number 66
_symmetry_cell_setting 'orthorhombic'
loop_
_space_group_symop_operation_xyz
x,y,z
-x,-y,z
x,-y,1/2-z
-x,y,1/2-z
-x,-y,-z
x,y,-z
-x,y,1/2+z
x,-y,1/2+z
1/2+x,1/2+y,z
1/2-x,1/2-y,z
1/2+x,1/2-y,1/2-z
1/2-x,1/2+y,1/2-z
1/2-x,1/2-y,-z
1/2+x,1/2+y,-z
1/2-x,1/2+y,1/2+z
1/2+x,1/2-y,1/2+z
loop_
_atom_site_type_symbol
_atom_site_label
_atom_site_fract_x
_atom_site_fract_y
_atom_site_fract_z
Si Si1 0.498425 0.787020 0.193080
Si Si2 0.756638 0.036121 0.056826
Si Si3 0.888544 0.645116 0.398643
Si Si4 0.875515 0.195002 0.557887
O O1 0.500000 0.808928 0.250000
O O2 0.250000 0.750000 0.182804
O O3 0.483548 0.839735 0.157612
O O4 0.750000 0.750000 0.180921
O O5 0.721383 0.084838 0.095883
O O6 0.500000 0.000000 0.057163
O O7 0.812311 0.058007 0.000000
O O8 0.000000 0.000000 0.076047
O O9 0.651165 0.685019 0.413876
O O10 0.149637 0.649618 0.434106
O O11 0.948946 0.199920 0.500000
O O12 0.750000 0.250000 0.579436
#
# Coordination Sequence:
#
# PCOD8276936 Si02
#       4
#    16  16  16  16
#     4  10  21  37  57  83 112 141 178 223 272 331
#     4  10  21  36  53  76 107 143 185 228 267 312
#     4  12  21  35  57  78 107 147 186 223 273 323
#     4  11  22  33  49  79 115 145 175 213 265 334
#
# _framework density 19.186474
#
# number of rings (size 3 to 8) (size 9 to 14) (size 15 to 20)
#    0.000    1.250    0.000    8.250    0.000    4.000 
#    0.000    0.000    0.000    0.750    0.000    1.750 
#    0.000    0.000    0.000    0.000    0.000    0.000 
#
# Total GULP energy -396846.779897 kJ/mol
# GULP energy per Si atom -12401.461872 kJ/mol
# Density = 1.914280 g / cm^3
# Si number density = 19.186474 Si / 1000 Ang^3
#
#
#
# Elastic Constant Matrix: (Units=GPa)
#
#
# Indices 1 2 3 4 5 6 
#
# 1 121.2345 19.3203 38.0367 0.0000 0.0000 0.0000
# 2 19.3203 99.8353 64.2669 0.0000 0.0000 0.0000
# 3 38.0367 64.2669 113.8264 0.0000 0.0000 0.0000
# 4 0.0000 0.0000 0.0000 29.7986 0.0000 0.0000
# 5 0.0000 0.0000 0.0000 0.0000 27.1014 0.0000
# 6 0.0000 0.0000 0.0000 0.0000 0.0000 23.8492
#
#
#
# Elastic Compliance Matrix: (Units=1/GPa)
#
#
# Indices 1 2 3 4 5 6 
#
# 1 0.009221 0.000313 -0.003258 0.000000 0.000000 0.000000
# 2 0.000313 0.015746 -0.008995 0.000000 0.000000 0.000000
# 3 -0.003258 -0.008995 0.014953 0.000000 0.000000 0.000000
# 4 0.000000 0.000000 0.000000 0.033559 0.000000 0.000000
# 5 0.000000 0.000000 0.000000 0.000000 0.036898 0.000000
# 6 0.000000 0.000000 0.000000 0.000000 0.000000 0.041930
#
#
# Mechanical properties :
#
#
# Convention : Reuss Voigt Hill
#
# Bulk Modulus (GPa) = 62.34589 64.23823 63.29206
# Shear Modulus (GPa) = 27.54315 30.36798 28.95557
#
# Velocity S-wave (km/s) = 3.79298 3.98273 3.88901
# Velocity P-wave (km/s) = 7.19357 7.39616 7.29557
#
# Compressibility (1/GPa) = 0.01603955
#
# Stress axis : x y z
#
# Youngs Moduli (GPa) = 108.45090 63.50710 66.87832
#
# Poissons Ratio (x) = -0.01986 0.21788
# Poissons Ratio (y) = -0.03392 0.60157
# Poissons Ratio (z) = 0.35331 0.57124
#
# Static dielectric constant tensor:
#      x y z
#    x 3.750800 0.000000 0.000000 
#    y 0.000000 3.284900 0.000000 
#    z 0.000000 0.000000 3.634900 
# 
# 
# High freq. dielectric constant tensor:
#      x y z
#    x 1.778170 0.000000 0.000000 
#    y 0.000000 1.720930 0.000000 
#    z 0.000000 0.000000 1.726630 
# 
# From -- ./inp_files/59722.got.cif
#   From: 2010.03.12/outbox.cif.g09.slc.cpg/sg66_30_cif.got.tgz:59722.got - 2010.04.10 21:57:39.
