data_PCOD8276922
_publ_section_title
;
Structure prediction by ZEFSAII (Michael W. Deem and Ramdas Pophale) SiO2 
 PCOD8276922
Probable space group: C C C M
;
_chemical_formula_sum "Si O2"
_cell_formula_units_Z 88
_cell_length_a 14.652131
_cell_length_b 13.551505
_cell_length_c 24.834676
_cell_angle_alpha 90.000000
_cell_angle_beta 90.000000
_cell_angle_gamma 90.000000
_cell_volume 4931.134189
_symmetry_space_group_name_H-M "C C C M"
_symmetry_group_IT_number 66
_symmetry_cell_setting 'orthorhombic'
loop_
_space_group_symop_operation_xyz
x,y,z
-x,-y,z
x,-y,1/2-z
-x,y,1/2-z
-x,-y,-z
x,y,-z
-x,y,1/2+z
x,-y,1/2+z
1/2+x,1/2+y,z
1/2-x,1/2-y,z
1/2+x,1/2-y,1/2-z
1/2-x,1/2+y,1/2-z
1/2-x,1/2-y,-z
1/2+x,1/2+y,-z
1/2-x,1/2+y,1/2+z
1/2+x,1/2-y,1/2+z
loop_
_atom_site_type_symbol
_atom_site_label
_atom_site_fract_x
_atom_site_fract_y
_atom_site_fract_z
Si Si1 0.500000 0.736261 0.250000
Si Si2 0.724776 0.021654 0.331882
Si Si3 0.568230 0.411839 0.337765
Si Si4 0.180158 0.339818 0.737206
Si Si5 0.812370 0.604697 0.940603
Si Si6 0.610777 0.690574 0.058870
O O1 0.447809 0.671395 0.293790
O O2 0.578334 0.803291 0.276915
O O3 0.831387 0.045100 0.331925
O O4 0.675859 0.101480 0.293638
O O5 0.680069 0.026704 0.391693
O O6 0.711890 0.910935 0.310981
O O7 0.500000 0.500000 0.327550
O O8 0.550005 0.363344 0.396224
O O9 0.250000 0.250000 0.741694
O O10 0.712904 0.651304 0.938276
O O11 0.886374 0.691537 0.931491
O O12 0.828156 0.555550 0.000000
O O13 0.568074 0.667808 0.000000
#
# Coordination Sequence:
#
# PCOD8276922 Si02
#       6
#     8  16  16  16  16  16
#     4  12  23  35  56  76 110 146 184 220 278 320
#     4  10  21  35  55  78 108 141 181 226 276 320
#     4  11  21  32  52  79 107 142 182 223 271 335
#     4  11  22  37  54  78 110 146 180 227 270 329
#     4   8  14  28  52  77 100 133 181 224 268 326
#     4   8  15  28  48  76 105 135 171 222 276 318
#
# _framework density 17.845793
#
# number of rings (size 3 to 8) (size 9 to 14) (size 15 to 20)
#    0.000    2.182    1.818    3.545    5.091    1.818 
#    0.000    0.000    0.000    1.636    0.000    3.818 
#    0.000    0.000    0.000    0.000    0.000    0.000 
#
# Total GULP energy -545440.088882 kJ/mol
# GULP energy per Si atom -12396.365656 kJ/mol
# Density = 1.780517 g / cm^3
# Si number density = 17.845793 Si / 1000 Ang^3
#
#
#
# Elastic Constant Matrix: (Units=GPa)
#
#
# Indices 1 2 3 4 5 6 
#
# 1 65.3608 28.0695 16.4655 0.0000 0.0000 0.0000
# 2 28.0695 83.7765 50.5613 0.0000 0.0000 0.0000
# 3 16.4655 50.5613 133.1081 0.0000 0.0000 0.0000
# 4 0.0000 0.0000 0.0000 26.2893 0.0000 0.0000
# 5 0.0000 0.0000 0.0000 0.0000 -69.5248 0.0000
# 6 0.0000 0.0000 0.0000 0.0000 0.0000 20.7033
#
#
#
# Elastic Compliance Matrix: (Units=1/GPa)
#
#
# Indices 1 2 3 4 5 6 
#
# 1 0.017872 -0.006038 0.000083 0.000000 0.000000 0.000000
# 2 -0.006038 0.017527 -0.005911 0.000000 0.000000 0.000000
# 3 0.000083 -0.005911 0.009748 0.000000 0.000000 0.000000
# 4 0.000000 0.000000 0.000000 0.038038 0.000000 0.000000
# 5 0.000000 0.000000 0.000000 0.000000 -0.014383 0.000000
# 6 0.000000 0.000000 0.000000 0.000000 0.000000 0.048301
#
#
# Mechanical properties :
#
#
# Convention : Reuss Voigt Hill
#
# Bulk Modulus (GPa) = 46.69720 52.49311 49.59515
# Shear Modulus (GPa) = 33.79002 7.97017 20.88009
#
# Velocity S-wave (km/s) = 4.35609 2.11562 3.42428
# Velocity P-wave (km/s) = 7.17806 5.95369 6.59436
#
# Compressibility (1/GPa) = 0.02141456
#
# Stress axis : x y z
#
# Youngs Moduli (GPa) = 55.95386 57.05545 102.58901
#
# Poissons Ratio (x) = 0.34450 -0.00849
# Poissons Ratio (y) = 0.33785 0.60637
# Poissons Ratio (z) = -0.00463 0.33724
#
# Static dielectric constant tensor:
#      x y z
#    x 3.056470 0.000000 0.000000 
#    y 0.000000 3.312010 0.000000 
#    z 0.000000 0.000000 3.746010 
# 
# 
# High freq. dielectric constant tensor:
#      x y z
#    x 1.660640 0.000000 0.000000 
#    y 0.000000 1.678880 0.000000 
#    z 0.000000 0.000000 1.700750 
# 
# From -- ./inp_files/58105.got.cif
#   From: 2010.03.12/outbox.cif.g09.slc.cpg/sg66_30_cif.got.tgz:58105.got - 2010.04.10 21:57:39.
