data_PCOD8276302
_publ_section_title
;
Structure prediction by ZEFSAII (Michael W. Deem and Ramdas Pophale) SiO2 
 PCOD8276302
Probable space group: C C C M
;
_chemical_formula_sum "Si O2"
_cell_formula_units_Z 72
_cell_length_a 23.842878
_cell_length_b 5.026627
_cell_length_c 32.475071
_cell_angle_alpha 90.000000
_cell_angle_beta 90.000000
_cell_angle_gamma 90.000000
_cell_volume 3892.113043
_symmetry_space_group_name_H-M "C C C M"
_symmetry_group_IT_number 66
_symmetry_cell_setting 'orthorhombic'
loop_
_space_group_symop_operation_xyz
x,y,z
-x,-y,z
x,-y,1/2-z
-x,y,1/2-z
-x,-y,-z
x,y,-z
-x,y,1/2+z
x,-y,1/2+z
1/2+x,1/2+y,z
1/2-x,1/2-y,z
1/2+x,1/2-y,1/2-z
1/2-x,1/2+y,1/2-z
1/2-x,1/2-y,-z
1/2+x,1/2+y,-z
1/2-x,1/2+y,1/2+z
1/2+x,1/2-y,1/2+z
loop_
_atom_site_type_symbol
_atom_site_label
_atom_site_fract_x
_atom_site_fract_y
_atom_site_fract_z
Si Si1 0.125087 0.643502 0.930886
Si Si2 0.933918 0.511151 0.847148
Si Si3 0.308365 0.637252 0.547098
Si Si4 0.460756 0.749724 0.000000
Si Si5 0.566023 0.483505 0.204557
O O1 0.101760 0.556430 0.887052
O O2 0.147728 0.377674 0.952090
O O3 0.076269 0.763503 0.959015
O O4 0.171657 0.878597 0.926889
O O5 0.914592 0.792239 0.828026
O O6 0.000000 0.500000 0.858080
O O7 0.916805 0.300686 0.812664
O O8 0.300341 0.541878 0.500000
O O9 0.250000 0.750000 0.565590
O O10 0.500000 0.500000 0.000000
O O11 0.500000 0.000000 0.000000
O O12 0.500000 0.500000 0.209751
O O13 0.594016 0.500000 0.250000
#
# Coordination Sequence:
#
# PCOD8276302 Si02
#       5
#    16  16  16   8  16
#     4  12  22  38  54  79 109 143 187 227 275 323
#     4  10  20  32  50  77 111 146 176 217 261 316
#     4  11  22  39  59  77  99 136 189 244 291 320
#     4  12  24  36  51  74 109 154 190 216 256 324
#     4   9  17  31  50  73 104 144 183 215 257 311
#
# _framework density 18.498947999999999
#
# number of rings (size 3 to 8) (size 9 to 14) (size 15 to 20)
#    0.000    1.333    2.222    4.667    0.000    7.111 
#    0.000    0.000    0.000    0.000    0.000    0.000 
#    0.000   49.778    0.000    0.000    0.000    0.000 
#
# Total GULP energy -446391.820560 kJ/mol
# GULP energy per Si atom -12399.772793 kJ/mol
# Density = 1.845684 g / cm^3
# Si number density = 18.498948 Si / 1000 Ang^3
#
#
#
# Elastic Constant Matrix: (Units=GPa)
#
#
# Indices 1 2 3 4 5 6 
#
# 1 58.7536 25.7993 38.9957 0.0000 0.0000 0.0000
# 2 25.7993 108.9326 24.6875 0.0000 0.0000 0.0000
# 3 38.9957 24.6875 108.6473 0.0000 0.0000 0.0000
# 4 0.0000 0.0000 0.0000 42.2093 0.0000 0.0000
# 5 0.0000 0.0000 0.0000 0.0000 3.4877 0.0000
# 6 0.0000 0.0000 0.0000 0.0000 0.0000 32.1265
#
#
#
# Elastic Compliance Matrix: (Units=1/GPa)
#
#
# Indices 1 2 3 4 5 6 
#
# 1 0.023821 -0.003905 -0.007662 0.000000 0.000000 0.000000
# 2 -0.003905 0.010319 -0.000943 0.000000 0.000000 0.000000
# 3 -0.007662 -0.000943 0.012169 0.000000 0.000000 0.000000
# 4 0.000000 0.000000 0.000000 0.023691 0.000000 0.000000
# 5 0.000000 0.000000 0.000000 0.000000 0.286718 0.000000
# 6 0.000000 0.000000 0.000000 0.000000 0.000000 0.031127
#
#
# Mechanical properties :
#
#
# Convention : Reuss Voigt Hill
#
# Bulk Modulus (GPa) = 46.97749 50.58870 48.78309
# Shear Modulus (GPa) = 11.90586 28.02145 19.96366
#
# Velocity S-wave (km/s) = 2.53967 3.89621 3.28865
# Velocity P-wave (km/s) = 5.83521 6.90267 6.39126
#
# Compressibility (1/GPa) = 0.02128679
#
# Stress axis : x y z
#
# Youngs Moduli (GPa) = 41.98041 96.91256 82.17901
#
# Poissons Ratio (x) = 0.37845 0.62969
# Poissons Ratio (y) = 0.16394 0.07750
# Poissons Ratio (z) = 0.32167 0.09139
#
# Static dielectric constant tensor:
#      x y z
#    x 3.233230 0.000000 0.000000 
#    y 0.000000 4.262460 0.000000 
#    z 0.000000 0.000000 3.270480 
# 
# 
# High freq. dielectric constant tensor:
#      x y z
#    x 1.679320 0.000000 0.000000 
#    y 0.000000 1.744090 0.000000 
#    z 0.000000 0.000000 1.708980 
# 
# From -- ./inp_files/70287.got.cif
#   From: 2010.03.12/outbox.cif.g09.slc.cpg/sg66_36_cif.got.tgz:70287.got - 2010.04.10 21:57:39.
