data_PCOD8276339
_publ_section_title
;
Structure prediction by ZEFSAII (Michael W. Deem and Ramdas Pophale) SiO2 
 PCOD8276339
Probable space group: C C C M
;
_chemical_formula_sum "Si O2"
_cell_formula_units_Z 80
_cell_length_a 18.321048
_cell_length_b 26.940129
_cell_length_c 8.778549
_cell_angle_alpha 90.000000
_cell_angle_beta 90.000000
_cell_angle_gamma 90.000000
_cell_volume 4332.840689
_symmetry_space_group_name_H-M "C C C M"
_symmetry_group_IT_number 66
_symmetry_cell_setting 'orthorhombic'
loop_
_space_group_symop_operation_xyz
x,y,z
-x,-y,z
x,-y,1/2-z
-x,y,1/2-z
-x,-y,-z
x,y,-z
-x,y,1/2+z
x,-y,1/2+z
1/2+x,1/2+y,z
1/2-x,1/2-y,z
1/2+x,1/2-y,1/2-z
1/2-x,1/2+y,1/2-z
1/2-x,1/2-y,-z
1/2+x,1/2+y,-z
1/2-x,1/2+y,1/2+z
1/2+x,1/2-y,1/2+z
loop_
_atom_site_type_symbol
_atom_site_label
_atom_site_fract_x
_atom_site_fract_y
_atom_site_fract_z
Si Si1 0.793519 0.603796 0.175834
Si Si2 0.575300 0.052723 0.179156
Si Si3 0.356107 0.447192 0.821723
Si Si4 0.275432 0.304896 0.675924
Si Si5 0.074194 0.852603 0.177173
O O1 0.861638 0.591367 0.282219
O O2 0.728003 0.565958 0.213556
O O3 0.770251 0.659482 0.214866
O O4 0.816510 0.600539 0.000000
O O5 0.500000 0.072676 0.250000
O O6 0.596842 0.000000 0.250000
O O7 0.566107 0.046891 0.000000
O O8 0.375416 0.500000 0.750000
O O9 0.408027 0.405846 0.749612
O O10 0.371633 0.448935 0.000000
O O11 0.258233 0.317500 0.500000
O O12 0.250000 0.250000 0.718670
O O13 0.361601 0.312643 0.708793
O O14 0.000000 0.831094 0.250000
O O15 0.061866 0.860950 0.000000
#
# Coordination Sequence:
#
# PCOD8276339 Si02
#       5
#    16  16  16  16  16
#     4  10  20  34  53  78 106 137 175 219 265 314
#     4  11  21  34  52  75 106 142 179 218 263 315
#     4  10  20  33  51  76 106 139 176 213 252 302
#     4   9  19  37  59  80 103 136 176 218 266 316
#     4  10  20  35  55  78 106 137 171 211 257 308
#
# _framework density 18.463638
#
# number of rings (size 3 to 8) (size 9 to 14) (size 15 to 20)
#    0.000    2.000    0.000    4.800    0.000    5.600 
#    0.000    3.000    0.000    2.400    0.000    0.000 
#    0.000    0.000    0.000    0.000    0.000    0.000 
#
# Total GULP energy -496148.864673 kJ/mol
# GULP energy per Si atom -12403.721617 kJ/mol
# Density = 1.842161 g / cm^3
# Si number density = 18.463638 Si / 1000 Ang^3
#
#
#
# Elastic Constant Matrix: (Units=GPa)
#
#
# Indices 1 2 3 4 5 6 
#
# 1 120.8837 50.5801 55.8960 0.0000 0.0000 0.0000
# 2 50.5801 96.5317 38.3949 0.0000 0.0000 0.0000
# 3 55.8960 38.3949 113.3672 0.0000 0.0000 0.0000
# 4 0.0000 0.0000 0.0000 27.5849 0.0000 0.0000
# 5 0.0000 0.0000 0.0000 0.0000 34.3777 0.0000
# 6 0.0000 0.0000 0.0000 0.0000 0.0000 18.8727
#
#
#
# Elastic Compliance Matrix: (Units=1/GPa)
#
#
# Indices 1 2 3 4 5 6 
#
# 1 0.012295 -0.004659 -0.004484 0.000000 0.000000 0.000000
# 2 -0.004659 0.013737 -0.002355 0.000000 0.000000 0.000000
# 3 -0.004484 -0.002355 0.011830 0.000000 0.000000 0.000000
# 4 0.000000 0.000000 0.000000 0.036252 0.000000 0.000000
# 5 0.000000 0.000000 0.000000 0.000000 0.029089 0.000000
# 6 0.000000 0.000000 0.000000 0.000000 0.000000 0.052986
#
#
# Mechanical properties :
#
#
# Convention : Reuss Voigt Hill
#
# Bulk Modulus (GPa) = 67.27248 68.94718 68.10983
# Shear Modulus (GPa) = 27.15305 28.56117 27.85711
#
# Velocity S-wave (km/s) = 3.83903 3.93732 3.88848
# Velocity P-wave (km/s) = 7.49434 7.62189 7.55838
#
# Compressibility (1/GPa) = 0.01486492
#
# Stress axis : x y z
#
# Youngs Moduli (GPa) = 81.33187 72.79482 84.53315
#
# Poissons Ratio (x) = 0.33913 0.37908
# Poissons Ratio (y) = 0.37891 0.19912
# Poissons Ratio (z) = 0.36472 0.17147
#
# Static dielectric constant tensor:
#      x y z
#    x 3.479070 0.000000 0.000000 
#    y 0.000000 3.175530 0.000000 
#    z 0.000000 0.000000 3.488010 
# 
# 
# High freq. dielectric constant tensor:
#      x y z
#    x 1.720480 0.000000 0.000000 
#    y 0.000000 1.695300 0.000000 
#    z 0.000000 0.000000 1.731370 
# 
# From -- ./inp_files/6671.got.cif
#   From: 2010.03.12/outbox.cif.g09.slc.cpg/sg66_4_cif.got.tgz:6671.got - 2010.04.10 21:57:39.
