data_PCOD8276014
_publ_section_title
;
Structure prediction by ZEFSAII (Michael W. Deem and Ramdas Pophale) SiO2 
 PCOD8276014
Probable space group: C C C M
;
_chemical_formula_sum "Si O2"
_cell_formula_units_Z 72
_cell_length_a 13.327137
_cell_length_b 9.265487
_cell_length_c 26.075733
_cell_angle_alpha 90.000000
_cell_angle_beta 90.000000
_cell_angle_gamma 90.000000
_cell_volume 3219.894474
_symmetry_space_group_name_H-M "C C C M"
_symmetry_group_IT_number 66
_symmetry_cell_setting 'orthorhombic'
loop_
_space_group_symop_operation_xyz
x,y,z
-x,-y,z
x,-y,1/2-z
-x,y,1/2-z
-x,-y,-z
x,y,-z
-x,y,1/2+z
x,-y,1/2+z
1/2+x,1/2+y,z
1/2-x,1/2-y,z
1/2+x,1/2-y,1/2-z
1/2-x,1/2+y,1/2-z
1/2-x,1/2-y,-z
1/2+x,1/2+y,-z
1/2-x,1/2+y,1/2+z
1/2+x,1/2-y,1/2+z
loop_
_atom_site_type_symbol
_atom_site_label
_atom_site_fract_x
_atom_site_fract_y
_atom_site_fract_z
Si Si1 0.979379 0.671389 0.000000
Si Si2 0.670773 0.372039 0.000000
Si Si3 0.965068 0.764324 0.891194
Si Si4 0.788529 0.594669 0.295350
Si Si5 0.500000 0.000000 0.176186
Si Si6 0.154216 0.956565 0.889888
O O1 0.000000 0.500000 0.000000
O O2 0.924915 0.713889 0.947249
O O3 0.068422 0.786498 0.000000
O O4 0.750000 0.250000 0.000000
O O5 0.686020 0.471764 0.050406
O O6 0.947171 0.625313 0.856462
O O7 0.081524 0.815713 0.887144
O O8 0.898918 0.897163 0.871786
O O9 0.739705 0.500000 0.250000
O O10 0.750000 0.750000 0.279468
O O11 0.909775 0.575295 0.292069
O O12 0.749179 0.560924 0.352780
#
# Coordination Sequence:
#
# PCOD8276014 Si02
#       6
#     8   8  16  16   8  16
#     4  10  19  33  57  97 140 181 226 279 339 406
#     4  10  21  35  67  98 135 187 225 279 346 418
#     4  10  21  39  66 102 139 184 229 286 345 420
#     4  12  28  50  73 103 138 184 233 293 354 419
#     4  12  25  45  72 100 138 177 234 288 353 414
#     4  10  22  43  68 101 142 179 233 285 351 417
#
# _framework density 22.360982
#
# number of rings (size 3 to 8) (size 9 to 14) (size 15 to 20)
#    0.000    1.333    3.333    1.667    6.222    2.667 
#    0.000    2.222    0.000    4.000    0.000    0.000 
#    0.000    0.000    0.000    0.000    0.000    0.000 
#
# Total GULP energy -446048.805097 kJ/mol
# GULP energy per Si atom -12390.244586 kJ/mol
# Density = 2.231009 g / cm^3
# Si number density = 22.360982 Si / 1000 Ang^3
#
#
#
# Elastic Constant Matrix: (Units=GPa)
#
#
# Indices 1 2 3 4 5 6 
#
# 1 84.9385 30.1872 30.3696 0.0000 0.0000 0.0000
# 2 30.1872 143.1643 47.9420 0.0000 0.0000 0.0000
# 3 30.3696 47.9420 123.2589 0.0000 0.0000 0.0000
# 4 0.0000 0.0000 0.0000 34.9356 0.0000 0.0000
# 5 0.0000 0.0000 0.0000 0.0000 -5.5550 0.0000
# 6 0.0000 0.0000 0.0000 0.0000 0.0000 29.5381
#
#
#
# Elastic Compliance Matrix: (Units=1/GPa)
#
#
# Indices 1 2 3 4 5 6 
#
# 1 0.013379 -0.001974 -0.002529 0.000000 0.000000 0.000000
# 2 -0.001974 0.008322 -0.002751 0.000000 0.000000 0.000000
# 3 -0.002529 -0.002751 0.009806 0.000000 0.000000 0.000000
# 4 0.000000 0.000000 0.000000 0.028624 0.000000 0.000000
# 5 0.000000 0.000000 0.000000 0.000000 -0.180019 0.000000
# 6 0.000000 0.000000 0.000000 0.000000 0.000000 0.033855
#
#
# Mechanical properties :
#
#
# Convention : Reuss Voigt Hill
#
# Bulk Modulus (GPa) = 58.82218 63.15103 60.98660
# Shear Modulus (GPa) = -75.91958 27.97459 -23.97250
#
# Velocity S-wave (km/s) = -5.83314 3.54085 -3.27780
# Velocity P-wave (km/s) = 4.35942 6.70968 3.60661
#
# Compressibility (1/GPa) = 0.01700039
#
# Stress axis : x y z
#
# Youngs Moduli (GPa) = 74.74419 120.15802 101.97997
#
# Poissons Ratio (x) = 0.23723 0.25786
# Poissons Ratio (y) = 0.14757 0.28050
# Poissons Ratio (z) = 0.18899 0.33050
#
# Static dielectric constant tensor:
#      x y z
#    x 3.743970 0.000000 0.000000 
#    y 0.000000 4.137190 0.000000 
#    z 0.000000 0.000000 4.235600 
# 
# 
# High freq. dielectric constant tensor:
#      x y z
#    x 1.853450 0.000000 0.000000 
#    y 0.000000 1.892640 0.000000 
#    z 0.000000 0.000000 1.886670 
# 
# From -- ./inp_files/62210.got.cif
#   From: 2010.03.12/outbox.cif.g09.slc.cpg/sg66_32_cif.got.tgz:62210.got - 2010.04.10 21:57:39.
