data_PCOD8276649
_publ_section_title
;
Structure prediction by ZEFSAII (Michael W. Deem and Ramdas Pophale) SiO2 
 PCOD8276649
Probable space group: C C C M
;
_chemical_formula_sum "Si O2"
_cell_formula_units_Z 104
_cell_length_a 21.909533
_cell_length_b 17.236840
_cell_length_c 13.586831
_cell_angle_alpha 90.000000
_cell_angle_beta 90.000000
_cell_angle_gamma 90.000000
_cell_volume 5131.081874
_symmetry_space_group_name_H-M "C C C M"
_symmetry_group_IT_number 66
_symmetry_cell_setting 'orthorhombic'
loop_
_space_group_symop_operation_xyz
x,y,z
-x,-y,z
x,-y,1/2-z
-x,y,1/2-z
-x,-y,-z
x,y,-z
-x,y,1/2+z
x,-y,1/2+z
1/2+x,1/2+y,z
1/2-x,1/2-y,z
1/2+x,1/2-y,1/2-z
1/2-x,1/2+y,1/2-z
1/2-x,1/2-y,-z
1/2+x,1/2+y,-z
1/2-x,1/2+y,1/2+z
1/2+x,1/2-y,1/2+z
loop_
_atom_site_type_symbol
_atom_site_label
_atom_site_fract_x
_atom_site_fract_y
_atom_site_fract_z
Si Si1 0.146770 0.500000 0.250000
Si Si2 0.348431 0.213464 0.889952
Si Si3 0.587224 0.698716 0.613615
Si Si4 0.975562 0.084885 0.611786
Si Si5 0.239256 0.577860 0.385397
Si Si6 0.068999 0.648909 0.228683
Si Si7 0.353188 0.369438 0.207140
O O1 0.187872 0.519903 0.344670
O O2 0.106001 0.570305 0.208274
O O3 0.287349 0.164373 0.871437
O O4 0.406153 0.189290 0.826042
O O5 0.333662 0.302297 0.868457
O O6 0.371818 0.202853 0.000000
O O7 0.607568 0.691812 0.500000
O O8 0.525544 0.650649 0.633891
O O9 0.575788 0.789107 0.639723
O O10 0.642251 0.662377 0.680350
O O11 0.952774 0.090799 0.500000
O O12 0.918715 0.095414 0.683045
O O13 0.000000 0.000000 0.635550
O O14 0.253363 0.558287 0.500000
O O15 0.299332 0.568641 0.315129
O O16 0.000000 0.625456 0.250000
#
# Coordination Sequence:
#
# PCOD8276649 Si02
#       7
#     8  16  16  16  16  16  16
#     4  10  23  40  56  82 121 154 198 258 306 352
#     4   9  18  34  57  85 111 133 175 240 295 344
#     4  10  22  38  57  86 122 158 197 243 304 375
#     4  10  21  36  55  84 119 150 186 238 295 355
#     4  10  21  37  58  83 109 144 191 243 298 351
#     4  10  20  36  60  86 115 156 199 242 299 367
#     4  11  20  34  58  83 110 148 192 235 289 352
#
# _framework density 20.268630000000002
#
# number of rings (size 3 to 8) (size 9 to 14) (size 15 to 20)
#    0.000    2.000    0.000    4.385    0.000    6.154 
#    0.000    2.308    0.000   16.615    0.000    0.000 
#    0.000    0.000    0.000    0.000    0.000    0.000 
#
# Total GULP energy -644675.290976 kJ/mol
# GULP energy per Si atom -12397.601750 kJ/mol
# Density = 2.022250 g / cm^3
# Si number density = 20.268630 Si / 1000 Ang^3
#
#
#
# Elastic Constant Matrix: (Units=GPa)
#
#
# Indices 1 2 3 4 5 6 
#
# 1 112.7200 41.4645 64.1974 0.0000 0.0000 0.0000
# 2 41.4645 109.3261 35.9241 0.0000 0.0000 0.0000
# 3 64.1974 35.9241 109.4384 0.0000 0.0000 0.0000
# 4 0.0000 0.0000 0.0000 24.1974 0.0000 0.0000
# 5 0.0000 0.0000 0.0000 0.0000 24.3696 0.0000
# 6 0.0000 0.0000 0.0000 0.0000 0.0000 18.8395
#
#
#
# Elastic Compliance Matrix: (Units=1/GPa)
#
#
# Indices 1 2 3 4 5 6 
#
# 1 0.014125 -0.002953 -0.007316 0.000000 0.000000 0.000000
# 2 -0.002953 0.010870 -0.001836 0.000000 0.000000 0.000000
# 3 -0.007316 -0.001836 0.014032 0.000000 0.000000 0.000000
# 4 0.000000 0.000000 0.000000 0.041327 0.000000 0.000000
# 5 0.000000 0.000000 0.000000 0.000000 0.041035 0.000000
# 6 0.000000 0.000000 0.000000 0.000000 0.000000 0.053080
#
#
# Mechanical properties :
#
#
# Convention : Reuss Voigt Hill
#
# Bulk Modulus (GPa) = 67.49296 68.29517 67.89406
# Shear Modulus (GPa) = 24.55584 26.14122 25.34853
#
# Velocity S-wave (km/s) = 3.48446 3.59519 3.54026
# Velocity P-wave (km/s) = 7.03990 7.14157 7.09092
#
# Compressibility (1/GPa) = 0.01481636
#
# Stress axis : x y z
#
# Youngs Moduli (GPa) = 70.79816 91.99427 71.26553
#
# Poissons Ratio (x) = 0.27166 0.52140
# Poissons Ratio (y) = 0.20907 0.13084
# Poissons Ratio (z) = 0.51798 0.16890
#
# Static dielectric constant tensor:
#      x y z
#    x 3.621290 0.000000 0.000000 
#    y 0.000000 3.813120 0.000000 
#    z 0.000000 0.000000 3.746310 
# 
# 
# High freq. dielectric constant tensor:
#      x y z
#    x 1.788970 0.000000 0.000000 
#    y 0.000000 1.792870 0.000000 
#    z 0.000000 0.000000 1.791170 
# 
# From -- ./inp_files/31375.got.cif
#   From: 2010.03.12/outbox.cif.g09.slc.cpg/sg66_16_cif.got.tgz:31375.got - 2010.04.10 21:57:39.
