data_PCOD8276101
_publ_section_title
;
Structure prediction by ZEFSAII (Michael W. Deem and Ramdas Pophale) SiO2 
 PCOD8276101
Probable space group: C C C M
;
_chemical_formula_sum "Si O2"
_cell_formula_units_Z 96
_cell_length_a 23.955494
_cell_length_b 23.778484
_cell_length_c 8.719620
_cell_angle_alpha 90.000000
_cell_angle_beta 90.000000
_cell_angle_gamma 90.000000
_cell_volume 4966.916427
_symmetry_space_group_name_H-M "C C C M"
_symmetry_group_IT_number 66
_symmetry_cell_setting 'orthorhombic'
loop_
_space_group_symop_operation_xyz
x,y,z
-x,-y,z
x,-y,1/2-z
-x,y,1/2-z
-x,-y,-z
x,y,-z
-x,y,1/2+z
x,-y,1/2+z
1/2+x,1/2+y,z
1/2-x,1/2-y,z
1/2+x,1/2-y,1/2-z
1/2-x,1/2+y,1/2-z
1/2-x,1/2-y,-z
1/2+x,1/2+y,-z
1/2-x,1/2+y,1/2+z
1/2+x,1/2-y,1/2+z
loop_
_atom_site_type_symbol
_atom_site_label
_atom_site_fract_x
_atom_site_fract_y
_atom_site_fract_z
Si Si1 0.057099 0.653152 0.825248
Si Si2 0.723496 0.129237 0.177934
Si Si3 0.629954 0.940280 0.179981
Si Si4 0.157918 0.265995 0.673451
Si Si5 0.650037 0.642026 0.321314
Si Si6 0.559663 0.560351 0.817857
O O1 0.081054 0.600982 0.731695
O O2 0.097539 0.706247 0.813908
O O3 0.000000 0.673339 0.750000
O O4 0.048023 0.634370 0.000000
O O5 0.690575 0.080682 0.265549
O O6 0.704808 0.191232 0.242724
O O7 0.788418 0.116002 0.199666
O O8 0.704884 0.127303 0.000000
O O9 0.616092 0.000000 0.250000
O O10 0.630491 0.945300 0.000000
O O11 0.176034 0.252801 0.500000
O O12 0.153440 0.204830 0.752571
O O13 0.632016 0.642139 0.500000
O O14 0.606137 0.605912 0.225778
O O15 0.577411 0.500000 0.750000
O O16 0.500000 0.579389 0.750000
O O17 0.554957 0.555572 0.000000
#
# Coordination Sequence:
#
# PCOD8276101 Si02
#       6
#    16  16  16  16  16  16
#     4  10  20  36  56  80 110 144 184 226 272 322
#     4   9  18  34  56  82 113 147 182 222 268 318
#     4  11  22  37  56  78 107 143 184 229 277 324
#     4   8  16  32  55  82 113 147 181 220 266 317
#     4  10  19  34  59  88 114 144 182 220 264 321
#     4  11  23  41  61  81 108 141 179 224 275 325
#
# _framework density 19.327888000000002
#
# number of rings (size 3 to 8) (size 9 to 14) (size 15 to 20)
#    0.000    2.167    0.000    5.500    0.000    4.333 
#    0.000    7.500    0.000    5.000    0.000    0.000 
#    0.000    0.000    0.000    0.000    0.000    0.000 
#
# Total GULP energy -595151.149483 kJ/mol
# GULP energy per Si atom -12398.982281 kJ/mol
# Density = 1.928390 g / cm^3
# Si number density = 19.327888 Si / 1000 Ang^3
#
#
#
# Elastic Constant Matrix: (Units=GPa)
#
#
# Indices 1 2 3 4 5 6 
#
# 1 98.9936 23.6088 35.9397 0.0000 0.0000 0.0000
# 2 23.6088 63.3817 21.7314 0.0000 0.0000 0.0000
# 3 35.9397 21.7314 110.7890 0.0000 0.0000 0.0000
# 4 0.0000 0.0000 0.0000 19.7182 0.0000 0.0000
# 5 0.0000 0.0000 0.0000 0.0000 29.2297 0.0000
# 6 0.0000 0.0000 0.0000 0.0000 0.0000 20.3528
#
#
#
# Elastic Compliance Matrix: (Units=1/GPa)
#
#
# Indices 1 2 3 4 5 6 
#
# 1 0.012092 -0.003387 -0.003258 0.000000 0.000000 0.000000
# 2 -0.003387 0.017864 -0.002405 0.000000 0.000000 0.000000
# 3 -0.003258 -0.002405 0.010555 0.000000 0.000000 0.000000
# 4 0.000000 0.000000 0.000000 0.050715 0.000000 0.000000
# 5 0.000000 0.000000 0.000000 0.000000 0.034212 0.000000
# 6 0.000000 0.000000 0.000000 0.000000 0.000000 0.049133
#
#
# Mechanical properties :
#
#
# Convention : Reuss Voigt Hill
#
# Bulk Modulus (GPa) = 44.62347 48.41381 46.51864
# Shear Modulus (GPa) = 24.98225 26.65242 25.81733
#
# Velocity S-wave (km/s) = 3.59910 3.71747 3.65876
# Velocity P-wave (km/s) = 6.35682 6.59766 6.47836
#
# Compressibility (1/GPa) = 0.02240973
#
# Stress axis : x y z
#
# Youngs Moduli (GPa) = 82.69669 55.97936 94.74218
#
# Poissons Ratio (x) = 0.18961 0.30870
# Poissons Ratio (y) = 0.28010 0.22788
# Poissons Ratio (z) = 0.26946 0.13464
#
# Static dielectric constant tensor:
#      x y z
#    x 3.513220 0.000000 0.000000 
#    y 0.000000 3.559670 0.000000 
#    z 0.000000 0.000000 3.391210 
# 
# 
# High freq. dielectric constant tensor:
#      x y z
#    x 1.758130 0.000000 0.000000 
#    y 0.000000 1.753990 0.000000 
#    z 0.000000 0.000000 1.734820 
# 
# From -- ./inp_files/9109.got.cif
#   From: 2010.03.12/outbox.cif.g09.slc.cpg/sg66_5_cif.got.tgz:9109.got - 2010.04.10 21:57:39.
