data_PCOD8276171
_publ_section_title
;
Structure prediction by ZEFSAII (Michael W. Deem and Ramdas Pophale) SiO2 
 PCOD8276171
Probable space group: C C C M
;
_chemical_formula_sum "Si O2"
_cell_formula_units_Z 56
_cell_length_a 14.786616
_cell_length_b 13.312960
_cell_length_c 14.216738
_cell_angle_alpha 90.000000
_cell_angle_beta 90.000000
_cell_angle_gamma 90.000000
_cell_volume 2798.616444
_symmetry_space_group_name_H-M "C C C M"
_symmetry_group_IT_number 66
_symmetry_cell_setting 'orthorhombic'
loop_
_space_group_symop_operation_xyz
x,y,z
-x,-y,z
x,-y,1/2-z
-x,y,1/2-z
-x,-y,-z
x,y,-z
-x,y,1/2+z
x,-y,1/2+z
1/2+x,1/2+y,z
1/2-x,1/2-y,z
1/2+x,1/2-y,1/2-z
1/2-x,1/2+y,1/2-z
1/2-x,1/2-y,-z
1/2+x,1/2+y,-z
1/2-x,1/2+y,1/2+z
1/2+x,1/2-y,1/2+z
loop_
_atom_site_type_symbol
_atom_site_label
_atom_site_fract_x
_atom_site_fract_y
_atom_site_fract_z
Si Si1 0.721034 0.468996 0.604245
Si Si2 0.500000 0.762340 0.250000
Si Si3 0.582393 0.057135 0.347684
Si Si4 0.321387 0.339891 0.721586
O O1 0.677752 0.459091 0.500000
O O2 0.827493 0.445328 0.591607
O O3 0.707148 0.581466 0.641927
O O4 0.676614 0.389245 0.674704
O O5 0.448034 0.828774 0.327966
O O6 0.576603 0.695437 0.300729
O O7 0.500000 0.000000 0.400531
O O8 0.603528 0.000000 0.250000
O O9 0.250000 0.250000 0.718611
#
# Coordination Sequence:
#
# PCOD8276171 Si02
#       4
#    16   8  16  16
#     4  11  23  38  60  91 127 162 201 255 310 361
#     4  10  19  35  66  86 112 168 206 242 296 368
#     4   9  16  35  61  86 114 155 207 255 302 352
#     4  11  21  42  63  89 122 166 204 252 306 363
#
# _framework density 20.009886000000002
#
# number of rings (size 3 to 8) (size 9 to 14) (size 15 to 20)
#    0.000    2.000    5.714    1.714    0.000    4.000 
#    0.000    4.286    0.000    0.000    0.000    0.000 
#    0.000    0.000    0.000    0.000    0.000    0.000 
#
# Total GULP energy -347103.201635 kJ/mol
# GULP energy per Si atom -12396.542916 kJ/mol
# Density = 1.996434 g / cm^3
# Si number density = 20.009886 Si / 1000 Ang^3
#
#
#
# Elastic Constant Matrix: (Units=GPa)
#
#
# Indices 1 2 3 4 5 6 
#
# 1 120.7668 43.9182 10.5945 0.0000 0.0000 0.0000
# 2 43.9182 116.8176 32.8767 0.0000 0.0000 0.0000
# 3 10.5945 32.8767 108.5120 0.0000 0.0000 0.0000
# 4 0.0000 0.0000 0.0000 4.7237 0.0000 0.0000
# 5 0.0000 0.0000 0.0000 0.0000 16.4919 0.0000
# 6 0.0000 0.0000 0.0000 0.0000 0.0000 36.9482
#
#
#
# Elastic Compliance Matrix: (Units=1/GPa)
#
#
# Indices 1 2 3 4 5 6 
#
# 1 0.009595 -0.003655 0.000171 0.000000 0.000000 0.000000
# 2 -0.003655 0.010751 -0.002900 0.000000 0.000000 0.000000
# 3 0.000171 -0.002900 0.010078 0.000000 0.000000 0.000000
# 4 0.000000 0.000000 0.000000 0.211697 0.000000 0.000000
# 5 0.000000 0.000000 0.000000 0.000000 0.060636 0.000000
# 6 0.000000 0.000000 0.000000 0.000000 0.000000 0.027065
#
#
# Mechanical properties :
#
#
# Convention : Reuss Voigt Hill
#
# Bulk Modulus (GPa) = 56.64649 57.87502 57.26075
# Shear Modulus (GPa) = 14.34824 28.87990 21.61407
#
# Velocity S-wave (km/s) = 2.68070 3.80318 3.29016
# Velocity P-wave (km/s) = 6.16054 6.94777 6.56596
#
# Compressibility (1/GPa) = 0.01765334
#
# Stress axis : x y z
#
# Youngs Moduli (GPa) = 104.22412 93.01606 99.22939
#
# Poissons Ratio (x) = 0.33999 -0.01694
# Poissons Ratio (y) = 0.38096 0.28780
# Poissons Ratio (z) = -0.01779 0.26978
#
# Static dielectric constant tensor:
#      x y z
#    x 3.841830 0.000000 0.000000 
#    y 0.000000 3.798800 0.000000 
#    z 0.000000 0.000000 3.176540 
# 
# 
# High freq. dielectric constant tensor:
#      x y z
#    x 1.786290 0.000000 0.000000 
#    y 0.000000 1.788800 0.000000 
#    z 0.000000 0.000000 1.742120 
# 
# From -- ./inp_files/27648.got.cif
#   From: 2010.03.12/outbox.cif.g09.slc.cpg/sg66_14_cif.got.tgz:27648.got - 2010.04.10 21:57:39.
