data_PCOD8276075
_publ_section_title
;
Structure prediction by ZEFSAII (Michael W. Deem and Ramdas Pophale) SiO2 
 PCOD8276075
Probable space group: C C C M
;
_chemical_formula_sum "Si O2"
_cell_formula_units_Z 116
_cell_length_a 28.316686
_cell_length_b 22.635028
_cell_length_c 9.169700
_cell_angle_alpha 90.000000
_cell_angle_beta 90.000000
_cell_angle_gamma 90.000000
_cell_volume 5877.309866
_symmetry_space_group_name_H-M "C C C M"
_symmetry_group_IT_number 66
_symmetry_cell_setting 'orthorhombic'
loop_
_space_group_symop_operation_xyz
x,y,z
-x,-y,z
x,-y,1/2-z
-x,y,1/2-z
-x,-y,-z
x,y,-z
-x,y,1/2+z
x,-y,1/2+z
1/2+x,1/2+y,z
1/2-x,1/2-y,z
1/2+x,1/2-y,1/2-z
1/2-x,1/2+y,1/2-z
1/2-x,1/2-y,-z
1/2+x,1/2+y,-z
1/2-x,1/2+y,1/2+z
1/2+x,1/2-y,1/2+z
loop_
_atom_site_type_symbol
_atom_site_label
_atom_site_fract_x
_atom_site_fract_y
_atom_site_fract_z
Si Si1 0.802237 0.262810 0.834244
Si Si2 0.749682 0.942195 0.328931
Si Si3 0.500000 0.000000 0.750000
Si Si4 0.615820 0.317741 0.836012
Si Si5 0.068988 0.602326 0.662644
Si Si6 0.953705 0.280516 0.174123
Si Si7 0.858662 0.058343 0.827730
Si Si8 0.173182 0.628390 0.668860
O O1 0.750000 0.250000 0.773657
O O2 0.829205 0.200338 0.833812
O O3 0.832997 0.304913 0.727844
O O4 0.800466 0.288532 0.000000
O O5 0.742103 0.948655 0.500000
O O6 0.803985 0.931894 0.286676
O O7 0.717240 0.890652 0.267387
O O8 0.729979 0.000000 0.250000
O O9 0.463587 0.956841 0.664701
O O10 0.585178 0.265479 0.763344
O O11 0.612955 0.383868 0.767305
O O12 0.597035 0.323558 0.000000
O O13 0.064473 0.629038 0.500000
O O14 0.053032 0.651516 0.777341
O O15 0.124919 0.590353 0.693977
O O16 0.000000 0.255264 0.250000
O O17 0.956618 0.281692 0.000000
O O18 0.879130 0.000000 0.750000
O O19 0.864742 0.050782 0.000000
O O20 0.187651 0.627691 0.500000
#
# Coordination Sequence:
#
# PCOD8276075 Si02
#       8
#    16  16   4  16  16  16  16  16
#     4  10  19  34  57  83 112 152 198 238 287 355
#     4  10  20  35  55  79 111 154 198 239 284 343
#     4  12  26  44  68  86 110 152 204 252 314 356
#     4   9  18  34  57  85 113 150 191 233 288 351
#     4  11  25  43  61  85 114 147 194 249 302 357
#     4  11  22  39  64  88 116 150 190 240 295 351
#     4   9  18  35  58  85 117 150 193 236 278 338
#     4  11  23  37  53  80 117 151 190 246 301 350
#
# _framework density 19.736920999999999
#
# number of rings (size 3 to 8) (size 9 to 14) (size 15 to 20)
#    0.000    1.793    2.069    2.276    0.966    4.138 
#    0.000    2.069    0.000    0.414    0.000    2.897 
#    0.000    0.000    0.000    0.000    0.000    0.000 
#
# Total GULP energy -718597.310519 kJ/mol
# GULP energy per Si atom -12389.608802 kJ/mol
# Density = 1.969200 g / cm^3
# Si number density = 19.736921 Si / 1000 Ang^3
#
#
#
# Elastic Constant Matrix: (Units=GPa)
#
#
# Indices 1 2 3 4 5 6 
#
# 1 81.8135 48.4706 29.4470 0.0000 0.0000 0.0000
# 2 48.4706 133.2548 35.1893 0.0000 0.0000 0.0000
# 3 29.4470 35.1893 75.8000 0.0000 0.0000 0.0000
# 4 0.0000 0.0000 0.0000 28.5784 0.0000 0.0000
# 5 0.0000 0.0000 0.0000 0.0000 21.9427 0.0000
# 6 0.0000 0.0000 0.0000 0.0000 0.0000 36.2290
#
#
#
# Elastic Compliance Matrix: (Units=1/GPa)
#
#
# Indices 1 2 3 4 5 6 
#
# 1 0.016662 -0.004959 -0.004171 0.000000 0.000000 0.000000
# 2 -0.004959 0.010029 -0.002729 0.000000 0.000000 0.000000
# 3 -0.004171 -0.002729 0.016080 0.000000 0.000000 0.000000
# 4 0.000000 0.000000 0.000000 0.034991 0.000000 0.000000
# 5 0.000000 0.000000 0.000000 0.000000 0.045573 0.000000
# 6 0.000000 0.000000 0.000000 0.000000 0.000000 0.027602
#
#
# Mechanical properties :
#
#
# Convention : Reuss Voigt Hill
#
# Bulk Modulus (GPa) = 52.48627 57.45354 54.96991
# Shear Modulus (GPa) = 27.62315 29.20079 28.41197
#
# Velocity S-wave (km/s) = 3.74514 3.85060 3.79824
# Velocity P-wave (km/s) = 6.73440 6.99588 6.86638
#
# Compressibility (1/GPa) = 0.01905260
#
# Stress axis : x y z
#
# Youngs Moduli (GPa) = 60.01579 99.70978 62.18963
#
# Poissons Ratio (x) = 0.49450 0.25937
# Poissons Ratio (y) = 0.29764 0.16973
# Poissons Ratio (z) = 0.25030 0.27213
#
# Static dielectric constant tensor:
#      x y z
#    x 3.651050 0.000000 0.000000 
#    y 0.000000 3.716870 0.000000 
#    z 0.000000 0.000000 3.421570 
# 
# 
# High freq. dielectric constant tensor:
#      x y z
#    x 1.760320 0.000000 0.000000 
#    y 0.000000 1.770400 0.000000 
#    z 0.000000 0.000000 1.751370 
# 
# From -- ./inp_files/10598.got.cif
#   From: 2010.03.12/outbox.cif.g09.slc.cpg/sg66_6_cif.got.tgz:10598.got - 2010.04.10 21:57:39.
