data_PCOD8276664
_publ_section_title
;
Structure prediction by ZEFSAII (Michael W. Deem and Ramdas Pophale) SiO2 
 PCOD8276664
Probable space group: C C C M
;
_chemical_formula_sum "Si O2"
_cell_formula_units_Z 88
_cell_length_a 21.634345
_cell_length_b 13.043015
_cell_length_c 15.489575
_cell_angle_alpha 90.000000
_cell_angle_beta 90.000000
_cell_angle_gamma 90.000000
_cell_volume 4370.803142
_symmetry_space_group_name_H-M "C C C M"
_symmetry_group_IT_number 66
_symmetry_cell_setting 'orthorhombic'
loop_
_space_group_symop_operation_xyz
x,y,z
-x,-y,z
x,-y,1/2-z
-x,y,1/2-z
-x,-y,-z
x,y,-z
-x,y,1/2+z
x,-y,1/2+z
1/2+x,1/2+y,z
1/2-x,1/2-y,z
1/2+x,1/2-y,1/2-z
1/2-x,1/2+y,1/2-z
1/2-x,1/2-y,-z
1/2+x,1/2+y,-z
1/2-x,1/2+y,1/2+z
1/2+x,1/2-y,1/2+z
loop_
_atom_site_type_symbol
_atom_site_label
_atom_site_fract_x
_atom_site_fract_y
_atom_site_fract_z
Si Si1 0.063898 0.451482 0.896870
Si Si2 0.855176 0.885667 0.756943
Si Si3 0.073902 0.815327 0.905413
Si Si4 0.568615 0.281387 0.598759
Si Si5 0.654158 0.120695 0.096807
Si Si6 0.250000 0.250000 0.700083
O O1 0.073611 0.334798 0.864640
O O2 0.123816 0.516566 0.863894
O O3 0.000000 0.500000 0.859688
O O4 0.060566 0.454133 0.000000
O O5 0.896100 0.879280 0.670807
O O6 0.893339 0.860605 0.842888
O O7 0.798087 0.808226 0.760171
O O8 0.829075 0.000000 0.750000
O O9 0.097123 0.699098 0.900651
O O10 0.001149 0.818133 0.894340
O O11 0.091919 0.861500 0.000000
O O12 0.592571 0.287632 0.500000
O O13 0.714498 0.163846 0.144446
O O14 0.676977 0.099700 0.000000
#
# Coordination Sequence:
#
# PCOD8276664 Si02
#       6
#    16  16  16  16  16   8
#     4   9  15  28  56  92 125 152 181 237 311 373
#     4  11  25  42  59  81 116 157 199 252 301 348
#     4   9  18  35  61  89 118 150 190 240 293 361
#     4  10  20  36  60  91 125 155 190 239 304 368
#     4   9  16  31  58  89 117 151 196 247 302 355
#     4  10  23  40  57  76 110 160 214 258 286 346
#
# _framework density 20.133600000000001
#
# number of rings (size 3 to 8) (size 9 to 14) (size 15 to 20)
#    0.000    2.364    1.818    0.818    0.000    4.364 
#    0.000    5.000    0.000    0.000    0.000    0.000 
#    0.000    0.000    0.000    0.000    0.000    0.000 
#
# Total GULP energy -545379.015827 kJ/mol
# GULP energy per Si atom -12394.977632 kJ/mol
# Density = 2.008777 g / cm^3
# Si number density = 20.133600 Si / 1000 Ang^3
#
#
#
# Elastic Constant Matrix: (Units=GPa)
#
#
# Indices 1 2 3 4 5 6 
#
# 1 91.7056 24.0937 38.2721 0.0000 0.0000 0.0000
# 2 24.0937 85.8984 28.6347 0.0000 0.0000 0.0000
# 3 38.2721 28.6347 83.8413 0.0000 0.0000 0.0000
# 4 0.0000 0.0000 0.0000 23.4192 0.0000 0.0000
# 5 0.0000 0.0000 0.0000 0.0000 11.7082 0.0000
# 6 0.0000 0.0000 0.0000 0.0000 0.0000 22.8424
#
#
#
# Elastic Compliance Matrix: (Units=1/GPa)
#
#
# Indices 1 2 3 4 5 6 
#
# 1 0.013767 -0.001994 -0.005603 0.000000 0.000000 0.000000
# 2 -0.001994 0.013426 -0.003675 0.000000 0.000000 0.000000
# 3 -0.005603 -0.003675 0.015740 0.000000 0.000000 0.000000
# 4 0.000000 0.000000 0.000000 0.042700 0.000000 0.000000
# 5 0.000000 0.000000 0.000000 0.000000 0.085410 0.000000
# 6 0.000000 0.000000 0.000000 0.000000 0.000000 0.043778
#
#
# Mechanical properties :
#
#
# Convention : Reuss Voigt Hill
#
# Bulk Modulus (GPa) = 49.04734 49.27181 49.15958
# Shear Modulus (GPa) = 20.47814 22.95695 21.71754
#
# Velocity S-wave (km/s) = 3.19268 3.38039 3.28788
# Velocity P-wave (km/s) = 6.16480 6.30568 6.23564
#
# Compressibility (1/GPa) = 0.02038846
#
# Stress axis : x y z
#
# Youngs Moduli (GPa) = 72.63894 74.48208 63.53061
#
# Poissons Ratio (x) = 0.14848 0.35599
# Poissons Ratio (y) = 0.14481 0.23350
# Poissons Ratio (z) = 0.40703 0.27376
#
# Static dielectric constant tensor:
#      x y z
#    x 3.531140 0.000000 0.000000 
#    y 0.000000 3.633120 0.000000 
#    z 0.000000 0.000000 3.587770 
# 
# 
# High freq. dielectric constant tensor:
#      x y z
#    x 1.776240 0.000000 0.000000 
#    y 0.000000 1.779370 0.000000 
#    z 0.000000 0.000000 1.772900 
# 
# From -- ./inp_files/32215.got.cif
#   From: 2010.03.12/outbox.cif.g09.slc.cpg/sg66_17_cif.got.tgz:32215.got - 2010.04.10 21:57:39.
