data_PCOD8276067
_publ_section_title
;
Structure prediction by ZEFSAII (Michael W. Deem and Ramdas Pophale) SiO2 
 PCOD8276067
Probable space group: C C C M
;
_chemical_formula_sum "Si O2"
_cell_formula_units_Z 64
_cell_length_a 14.676417
_cell_length_b 8.432214
_cell_length_c 24.645832
_cell_angle_alpha 90.000000
_cell_angle_beta 90.000000
_cell_angle_gamma 90.000000
_cell_volume 3050.037272
_symmetry_space_group_name_H-M "C C C M"
_symmetry_group_IT_number 66
_symmetry_cell_setting 'orthorhombic'
loop_
_space_group_symop_operation_xyz
x,y,z
-x,-y,z
x,-y,1/2-z
-x,y,1/2-z
-x,-y,-z
x,y,-z
-x,y,1/2+z
x,-y,1/2+z
1/2+x,1/2+y,z
1/2-x,1/2-y,z
1/2+x,1/2-y,1/2-z
1/2-x,1/2+y,1/2-z
1/2-x,1/2-y,-z
1/2+x,1/2+y,-z
1/2-x,1/2+y,1/2+z
1/2+x,1/2-y,1/2+z
loop_
_atom_site_type_symbol
_atom_site_label
_atom_site_fract_x
_atom_site_fract_y
_atom_site_fract_z
Si Si1 0.502869 0.687715 0.189815
Si Si2 0.346739 0.174224 0.500000
Si Si3 0.917153 0.634345 0.000000
Si Si4 0.851383 0.186967 0.891911
Si Si5 0.147432 0.811575 0.603429
O O1 0.500000 0.500000 0.194178
O O2 0.500000 0.764208 0.250000
O O3 0.412607 0.744314 0.158214
O O4 0.594240 0.741683 0.158098
O O5 0.250000 0.250000 0.500000
O O6 0.397556 0.234083 0.554371
O O7 0.330474 0.984365 0.500000
O O8 0.910365 0.743417 0.947049
O O9 0.000000 0.500000 0.000000
O O10 0.750000 0.250000 0.881313
O O11 0.851629 0.000020 0.901064
O O12 0.250000 0.750000 0.605994
#
# Coordination Sequence:
#
# PCOD8276067 Si02
#       5
#    16   8   8  16  16
#     4   9  20  38  58  82 114 154 198 241 288 347
#     4  10  19  34  56  81 112 145 181 225 280 346
#     4  12  24  38  59  87 123 155 192 245 297 350
#     4  10  20  37  61  86 116 153 194 238 292 356
#     4  11  22  37  60  89 120 153 194 245 298 350
#
# _framework density 20.983349
#
# number of rings (size 3 to 8) (size 9 to 14) (size 15 to 20)
#    0.000    1.750    0.000    5.625    0.000    1.000 
#    0.000    5.000    0.000   17.250    0.000    0.000 
#    0.000    0.000    0.000    0.000    0.000    0.000 
#
# Total GULP energy -396523.599029 kJ/mol
# GULP energy per Si atom -12391.362470 kJ/mol
# Density = 2.093559 g / cm^3
# Si number density = 20.983349 Si / 1000 Ang^3
#
#
#
# Elastic Constant Matrix: (Units=GPa)
#
#
# Indices 1 2 3 4 5 6 
#
# 1 129.4200 25.6644 72.1709 0.0000 0.0000 0.0000
# 2 25.6644 94.2653 40.2273 0.0000 0.0000 0.0000
# 3 72.1709 40.2273 213.2377 0.0000 0.0000 0.0000
# 4 0.0000 0.0000 0.0000 15.9775 0.0000 0.0000
# 5 0.0000 0.0000 0.0000 0.0000 91.8105 0.0000
# 6 0.0000 0.0000 0.0000 0.0000 0.0000 26.7271
#
#
#
# Elastic Compliance Matrix: (Units=1/GPa)
#
#
# Indices 1 2 3 4 5 6 
#
# 1 0.009679 -0.001346 -0.003022 0.000000 0.000000 0.000000
# 2 -0.001346 0.011724 -0.001756 0.000000 0.000000 0.000000
# 3 -0.003022 -0.001756 0.006044 0.000000 0.000000 0.000000
# 4 0.000000 0.000000 0.000000 0.062588 0.000000 0.000000
# 5 0.000000 0.000000 0.000000 0.000000 0.010892 0.000000
# 6 0.000000 0.000000 0.000000 0.000000 0.000000 0.037415
#
#
# Mechanical properties :
#
#
# Convention : Reuss Voigt Hill
#
# Bulk Modulus (GPa) = 65.79376 79.22757 72.51066
# Shear Modulus (GPa) = 32.12207 46.82705 39.47456
#
# Velocity S-wave (km/s) = 3.91683 4.72914 4.34202
# Velocity P-wave (km/s) = 7.20269 8.22551 7.73103
#
# Compressibility (1/GPa) = 0.01519901
#
# Stress axis : x y z
#
# Youngs Moduli (GPa) = 103.31856 85.29361 165.46032
#
# Poissons Ratio (x) = 0.11476 0.50002
# Poissons Ratio (y) = 0.13902 0.29061
# Poissons Ratio (z) = 0.31223 0.14981
#
# Static dielectric constant tensor:
#      x y z
#    x 4.270470 0.000000 0.000000 
#    y 0.000000 5.250110 0.000000 
#    z 0.000000 0.000000 5.446700 
# 
# 
# High freq. dielectric constant tensor:
#      x y z
#    x 1.834780 0.000000 0.000000 
#    y 0.000000 1.815490 0.000000 
#    z 0.000000 0.000000 1.825550 
# 
# From -- ./inp_files/57734.got.cif
#   From: 2010.03.12/outbox.cif.g09.slc.cpg/sg66_29_cif.got.tgz:57734.got - 2010.04.10 21:57:39.
