data_PCOD8276589
_publ_section_title
;
Structure prediction by ZEFSAII (Michael W. Deem and Ramdas Pophale) SiO2 
 PCOD8276589
Probable space group: C C C M
;
_chemical_formula_sum "Si O2"
_cell_formula_units_Z 104
_cell_length_a 31.082183
_cell_length_b 19.913782
_cell_length_c 9.298021
_cell_angle_alpha 90.000000
_cell_angle_beta 90.000000
_cell_angle_gamma 90.000000
_cell_volume 5755.138563
_symmetry_space_group_name_H-M "C C C M"
_symmetry_group_IT_number 66
_symmetry_cell_setting 'orthorhombic'
loop_
_space_group_symop_operation_xyz
x,y,z
-x,-y,z
x,-y,1/2-z
-x,y,1/2-z
-x,-y,-z
x,y,-z
-x,y,1/2+z
x,-y,1/2+z
1/2+x,1/2+y,z
1/2-x,1/2-y,z
1/2+x,1/2-y,1/2-z
1/2-x,1/2+y,1/2-z
1/2-x,1/2-y,-z
1/2+x,1/2+y,-z
1/2-x,1/2+y,1/2+z
1/2+x,1/2-y,1/2+z
loop_
_atom_site_type_symbol
_atom_site_label
_atom_site_fract_x
_atom_site_fract_y
_atom_site_fract_z
Si Si1 0.164116 0.111741 0.343331
Si Si2 0.543160 0.748813 0.171788
Si Si3 0.607084 0.500000 0.750000
Si Si4 0.372190 0.246447 0.331238
Si Si5 0.537318 0.596149 0.843084
Si Si6 0.710421 0.797808 0.164695
Si Si7 0.742421 0.567162 0.835884
O O1 0.185867 0.123285 0.500000
O O2 0.133522 0.174045 0.304580
O O3 0.199419 0.102458 0.221224
O O4 0.135928 0.044460 0.355747
O O5 0.500000 0.777493 0.250000
O O6 0.585859 0.780939 0.244812
O O7 0.547825 0.670608 0.212081
O O8 0.541934 0.763328 0.000000
O O9 0.579094 0.549834 0.846995
O O10 0.377337 0.229171 0.500000
O O11 0.329825 0.211036 0.269207
O O12 0.500000 0.561914 0.750000
O O13 0.517335 0.602040 0.000000
O O14 0.750000 0.750000 0.215347
O O15 0.720896 0.876796 0.176915
O O16 0.698510 0.778921 0.000000
O O17 0.755357 0.500000 0.750000
O O18 0.734342 0.545737 0.000000
#
# Coordination Sequence:
#
# PCOD8276589 Si02
#       7
#    16  16   8  16  16  16  16
#     4  11  23  34  49  73 102 136 178 226 274 322
#     4  10  20  36  54  74 100 135 177 225 279 333
#     4  12  21  34  48  68  94 130 178 222 273 320
#     4  11  22  36  55  80 106 137 180 231 276 324
#     4  10  22  35  48  64  88 127 172 221 273 320
#     4  10  21  38  58  81 109 146 186 226 272 330
#     4  11  23  38  57  79 110 144 180 224 273 325
#
# _framework density 18.070806999999999
#
# number of rings (size 3 to 8) (size 9 to 14) (size 15 to 20)
#    0.000    1.385    3.846    2.077    0.000    5.231 
#    0.000    0.000    0.000    0.000    0.000    0.000 
#    0.000    0.615    0.000    6.462    0.000    3.538 
#
# Total GULP energy -644644.117430 kJ/mol
# GULP energy per Si atom -12397.002258 kJ/mol
# Density = 1.802968 g / cm^3
# Si number density = 18.070807 Si / 1000 Ang^3
#
#
#
# Elastic Constant Matrix: (Units=GPa)
#
#
# Indices 1 2 3 4 5 6 
#
# 1 116.9630 19.2579 64.4020 0.0000 0.0000 0.0000
# 2 19.2579 35.5537 29.9953 0.0000 0.0000 0.0000
# 3 64.4020 29.9953 122.8579 0.0000 0.0000 0.0000
# 4 0.0000 0.0000 0.0000 21.2199 0.0000 0.0000
# 5 0.0000 0.0000 0.0000 0.0000 32.3986 0.0000
# 6 0.0000 0.0000 0.0000 0.0000 0.0000 23.5994
#
#
#
# Elastic Compliance Matrix: (Units=1/GPa)
#
#
# Indices 1 2 3 4 5 6 
#
# 1 0.012083 -0.001513 -0.005965 0.000000 0.000000 0.000000
# 2 -0.001513 0.035612 -0.007902 0.000000 0.000000 0.000000
# 3 -0.005965 -0.007902 0.013195 0.000000 0.000000 0.000000
# 4 0.000000 0.000000 0.000000 0.047125 0.000000 0.000000
# 5 0.000000 0.000000 0.000000 0.000000 0.030866 0.000000
# 6 0.000000 0.000000 0.000000 0.000000 0.000000 0.042374
#
#
# Mechanical properties :
#
#
# Convention : Reuss Voigt Hill
#
# Bulk Modulus (GPa) = 33.18671 55.85389 44.52030
# Shear Modulus (GPa) = 22.51672 26.22489 24.37081
#
# Velocity S-wave (km/s) = 3.53374 3.81363 3.67635
# Velocity P-wave (km/s) = 5.92068 7.09698 6.53535
#
# Compressibility (1/GPa) = 0.03013254
#
# Stress axis : x y z
#
# Youngs Moduli (GPa) = 82.76097 28.08035 75.78497
#
# Poissons Ratio (x) = 0.04248 0.45202
# Poissons Ratio (y) = 0.12520 0.59882
# Poissons Ratio (z) = 0.49363 0.22188
#
# Static dielectric constant tensor:
#      x y z
#    x 3.314340 0.000000 0.000000 
#    y 0.000000 3.045780 0.000000 
#    z 0.000000 0.000000 3.391160 
# 
# 
# High freq. dielectric constant tensor:
#      x y z
#    x 1.691770 0.000000 0.000000 
#    y 0.000000 1.655540 0.000000 
#    z 0.000000 0.000000 1.713080 
# 
# From -- ./inp_files/11561.got.cif
#   From: 2010.03.12/outbox.cif.g09.slc.cpg/sg66_6_cif.got.tgz:11561.got - 2010.04.10 21:57:39.
