data_PCOD8276837
_publ_section_title
;
Structure prediction by ZEFSAII (Michael W. Deem and Ramdas Pophale) SiO2 
 PCOD8276837
Probable space group: C C C M
;
_chemical_formula_sum "Si O2"
_cell_formula_units_Z 116
_cell_length_a 12.244303
_cell_length_b 27.958051
_cell_length_c 15.014492
_cell_angle_alpha 90.000000
_cell_angle_beta 90.000000
_cell_angle_gamma 90.000000
_cell_volume 5139.863717
_symmetry_space_group_name_H-M "C C C M"
_symmetry_group_IT_number 66
_symmetry_cell_setting 'orthorhombic'
loop_
_space_group_symop_operation_xyz
x,y,z
-x,-y,z
x,-y,1/2-z
-x,y,1/2-z
-x,-y,-z
x,y,-z
-x,y,1/2+z
x,-y,1/2+z
1/2+x,1/2+y,z
1/2-x,1/2-y,z
1/2+x,1/2-y,1/2-z
1/2-x,1/2+y,1/2-z
1/2-x,1/2-y,-z
1/2+x,1/2+y,-z
1/2-x,1/2+y,1/2+z
1/2+x,1/2-y,1/2+z
loop_
_atom_site_type_symbol
_atom_site_label
_atom_site_fract_x
_atom_site_fract_y
_atom_site_fract_z
Si Si1 0.358512 0.118609 0.894025
Si Si2 0.792937 0.799492 0.102045
Si Si3 0.121169 0.489719 0.852315
Si Si4 0.199062 0.153147 0.397368
Si Si5 0.000000 0.000000 0.250000
Si Si6 0.340279 0.457019 0.600878
Si Si7 0.567079 0.170972 0.099931
Si Si8 0.476806 0.725465 0.151767
O O1 0.261390 0.152673 0.856325
O O2 0.341750 0.064993 0.861505
O O3 0.469919 0.141249 0.853683
O O4 0.359695 0.118543 0.000000
O O5 0.750000 0.750000 0.147957
O O6 0.922573 0.803922 0.110486
O O7 0.755202 0.797973 0.000000
O O8 0.111395 0.500000 0.750000
O O9 0.216969 0.522188 0.893803
O O10 0.000000 0.500000 0.896011
O O11 0.197787 0.170087 0.500000
O O12 0.160511 0.099414 0.387285
O O13 0.318457 0.159187 0.352470
O O14 0.123005 0.188955 0.342782
O O15 0.079962 0.972535 0.181407
O O16 0.383294 0.469715 0.500000
O O17 0.545083 0.227538 0.094319
O O18 0.576949 0.151409 0.000000
O O19 0.500000 0.744355 0.250000
#
# Coordination Sequence:
#
# PCOD8276837 Si02
#       8
#    16  16  16  16   4  16  16  16
#     4  10  21  39  71 101 127 174 227 279 346 420
#     4  10  20  39  64  90 126 168 218 273 326 392
#     4  11  24  44  68 105 145 188 230 297 368 426
#     4  10  23  42  68  94 124 175 230 278 334 407
#     4  12  26  48  74 102 140 184 226 306 360 426
#     4  11  25  47  74 104 140 187 242 299 358 424
#     4  10  20  42  68  94 130 171 221 279 332 405
#     4  12  25  38  58  94 136 178 215 269 337 407
#
# _framework density 22.568691000000001
#
# number of rings (size 3 to 8) (size 9 to 14) (size 15 to 20)
#    0.000    1.379    2.069    3.103    0.966    6.621 
#    4.966    1.379    0.000    0.000    0.000    0.000 
#    0.000    0.000    0.000    0.000    0.000    0.000 
#
# Total GULP energy -718927.305747 kJ/mol
# GULP energy per Si atom -12395.298375 kJ/mol
# Density = 2.251732 g / cm^3
# Si number density = 22.568691 Si / 1000 Ang^3
#
#
#
# Elastic Constant Matrix: (Units=GPa)
#
#
# Indices 1 2 3 4 5 6 
#
# 1 89.9452 -14.7687 19.0368 0.0000 0.0000 0.0000
# 2 -14.7687 58.3824 9.4952 0.0000 0.0000 0.0000
# 3 19.0368 9.4952 68.6109 0.0000 0.0000 0.0000
# 4 0.0000 0.0000 0.0000 -14.1991 0.0000 0.0000
# 5 0.0000 0.0000 0.0000 0.0000 19.8977 0.0000
# 6 0.0000 0.0000 0.0000 0.0000 0.0000 41.5081
#
#
#
# Elastic Compliance Matrix: (Units=1/GPa)
#
#
# Indices 1 2 3 4 5 6 
#
# 1 0.012601 0.003843 -0.004028 0.000000 0.000000 0.000000
# 2 0.003843 0.018695 -0.003653 0.000000 0.000000 0.000000
# 3 -0.004028 -0.003653 0.016198 0.000000 0.000000 0.000000
# 4 0.000000 0.000000 0.000000 -0.070427 0.000000 0.000000
# 5 0.000000 0.000000 0.000000 0.000000 0.050257 0.000000
# 6 0.000000 0.000000 0.000000 0.000000 0.000000 0.024092
#
#
# Mechanical properties :
#
#
# Convention : Reuss Voigt Hill
#
# Bulk Modulus (GPa) = 25.11503 27.16279 26.13891
# Shear Modulus (GPa) = 69.09309 22.98634 46.03971
#
# Velocity S-wave (km/s) = 5.53905 3.19487 4.52152
# Velocity P-wave (km/s) = 7.21529 5.06668 6.23425
#
# Compressibility (1/GPa) = 0.03981679
#
# Stress axis : x y z
#
# Youngs Moduli (GPa) = 79.35599 53.49099 61.73515
#
# Poissons Ratio (x) = -0.20556 0.24868
# Poissons Ratio (y) = -0.30495 0.22555
# Poissons Ratio (z) = 0.31966 0.19543
#
# Static dielectric constant tensor:
#      x y z
#    x 4.420550 0.000000 0.000000 
#    y 0.000000 -0.258080 0.000000 
#    z 0.000000 0.000000 3.912800 
# 
# 
# High freq. dielectric constant tensor:
#      x y z
#    x 1.900690 0.000000 0.000000 
#    y 0.000000 1.890730 0.000000 
#    z 0.000000 0.000000 1.879630 
# 
# From -- ./inp_files/39157.got.cif
#   From: 2010.03.12/outbox.cif.g09.slc.cpg/sg66_20_cif.got.tgz:39157.got - 2010.04.10 21:57:39.
