data_PCOD8276424
_publ_section_title
;
Structure prediction by ZEFSAII (Michael W. Deem and Ramdas Pophale) SiO2 
 PCOD8276424
Probable space group: C C C M
;
_chemical_formula_sum "Si O2"
_cell_formula_units_Z 104
_cell_length_a 21.484525
_cell_length_b 26.961557
_cell_length_c 9.377375
_cell_angle_alpha 90.000000
_cell_angle_beta 90.000000
_cell_angle_gamma 90.000000
_cell_volume 5431.903034
_symmetry_space_group_name_H-M "C C C M"
_symmetry_group_IT_number 66
_symmetry_cell_setting 'orthorhombic'
loop_
_space_group_symop_operation_xyz
x,y,z
-x,-y,z
x,-y,1/2-z
-x,y,1/2-z
-x,-y,-z
x,y,-z
-x,y,1/2+z
x,-y,1/2+z
1/2+x,1/2+y,z
1/2-x,1/2-y,z
1/2+x,1/2-y,1/2-z
1/2-x,1/2+y,1/2-z
1/2-x,1/2-y,-z
1/2+x,1/2+y,-z
1/2-x,1/2+y,1/2+z
1/2+x,1/2-y,1/2+z
loop_
_atom_site_type_symbol
_atom_site_label
_atom_site_fract_x
_atom_site_fract_y
_atom_site_fract_z
Si Si1 0.881888 0.276760 0.341293
Si Si2 0.940171 0.350215 0.836309
Si Si3 0.750000 0.750000 0.230774
Si Si4 0.693237 0.649660 0.336508
Si Si5 0.606518 0.956529 0.341397
Si Si6 0.251601 0.950996 0.830678
Si Si7 0.938664 0.810740 0.671327
O O1 0.910983 0.281404 0.500000
O O2 0.881703 0.328125 0.252304
O O3 0.810918 0.259538 0.363659
O O4 0.925015 0.242304 0.242037
O O5 0.937132 0.409094 0.829282
O O6 0.000000 0.331118 0.750000
O O7 0.940422 0.331584 0.000000
O O8 0.734373 0.699798 0.318407
O O9 0.695472 0.637164 0.500000
O O10 0.719771 0.599152 0.265163
O O11 0.621313 0.655871 0.288594
O O12 0.608839 0.977293 0.500000
O O13 0.676157 0.943957 0.290546
O O14 0.575582 0.000000 0.250000
O O15 0.225088 0.000000 0.750000
O O16 0.240911 0.957513 0.000000
O O17 0.948123 0.806353 0.500000
O O18 0.000000 0.833120 0.750000
#
# Coordination Sequence:
#
# PCOD8276424 Si02
#       7
#    16  16   8  16  16  16  16
#     4  11  22  36  53  76 106 138 170 210 256 309
#     4  11  23  38  54  74 100 136 178 219 260 307
#     4  10  20  34  54  82 111 138 171 216 269 316
#     4   9  18  32  54  80 108 140 176 215 262 317
#     4   9  19  34  53  74  99 130 167 212 262 310
#     4   9  17  33  54  79 106 135 172 215 260 314
#     4  10  20  35  54  76 102 137 174 212 255 306
#
# _framework density 19.146144
#
# number of rings (size 3 to 8) (size 9 to 14) (size 15 to 20)
#    0.000    2.154    0.000    3.231    0.000    4.615 
#    0.000    9.231    0.000    0.462    0.000    3.231 
#    0.000    0.000    0.000    0.000    0.000    0.000 
#
# Total GULP energy -644266.354422 kJ/mol
# GULP energy per Si atom -12389.737585 kJ/mol
# Density = 1.910257 g / cm^3
# Si number density = 19.146144 Si / 1000 Ang^3
#
#
#
# Elastic Constant Matrix: (Units=GPa)
#
#
# Indices 1 2 3 4 5 6 
#
# 1 75.1354 28.9099 38.4333 0.0000 0.0000 0.0000
# 2 28.9099 96.9014 33.6774 0.0000 0.0000 0.0000
# 3 38.4333 33.6774 98.1632 0.0000 0.0000 0.0000
# 4 0.0000 0.0000 0.0000 25.9767 0.0000 0.0000
# 5 0.0000 0.0000 0.0000 0.0000 14.4620 0.0000
# 6 0.0000 0.0000 0.0000 0.0000 0.0000 21.2272
#
#
#
# Elastic Compliance Matrix: (Units=1/GPa)
#
#
# Indices 1 2 3 4 5 6 
#
# 1 0.017485 -0.003221 -0.005741 0.000000 0.000000 0.000000
# 2 -0.003221 0.012310 -0.002962 0.000000 0.000000 0.000000
# 3 -0.005741 -0.002962 0.013451 0.000000 0.000000 0.000000
# 4 0.000000 0.000000 0.000000 0.038496 0.000000 0.000000
# 5 0.000000 0.000000 0.000000 0.000000 0.069147 0.000000
# 6 0.000000 0.000000 0.000000 0.000000 0.000000 0.047109
#
#
# Mechanical properties :
#
#
# Convention : Reuss Voigt Hill
#
# Bulk Modulus (GPa) = 51.55159 52.47126 52.01142
# Shear Modulus (GPa) = 21.89974 23.61181 22.75577
#
# Velocity S-wave (km/s) = 3.38571 3.51556 3.45125
# Velocity P-wave (km/s) = 6.50137 6.62903 6.56551
#
# Compressibility (1/GPa) = 0.01939804
#
# Stress axis : x y z
#
# Youngs Moduli (GPa) = 57.19078 81.23256 74.34407
#
# Poissons Ratio (x) = 0.26169 0.42679
# Poissons Ratio (y) = 0.18424 0.22021
# Poissons Ratio (z) = 0.32832 0.24062
#
# Static dielectric constant tensor:
#      x y z
#    x 3.554060 0.000000 0.000000 
#    y 0.000000 3.622390 0.000000 
#    z 0.000000 0.000000 3.403870 
# 
# 
# High freq. dielectric constant tensor:
#      x y z
#    x 1.739190 0.000000 0.000000 
#    y 0.000000 1.734190 0.000000 
#    z 0.000000 0.000000 1.739760 
# 
# From -- ./inp_files/8313.got.cif
#   From: 2010.03.12/outbox.cif.g09.slc.cpg/sg66_5_cif.got.tgz:8313.got - 2010.04.10 21:57:39.
