data_PCOD8276858
_publ_section_title
;
Structure prediction by ZEFSAII (Michael W. Deem and Ramdas Pophale) SiO2 
 PCOD8276858
Probable space group: C C C M
;
_chemical_formula_sum "Si O2"
_cell_formula_units_Z 72
_cell_length_a 9.530182
_cell_length_b 27.176798
_cell_length_c 14.239721
_cell_angle_alpha 90.000000
_cell_angle_beta 90.000000
_cell_angle_gamma 90.000000
_cell_volume 3688.085334
_symmetry_space_group_name_H-M "C C C M"
_symmetry_group_IT_number 66
_symmetry_cell_setting 'orthorhombic'
loop_
_space_group_symop_operation_xyz
x,y,z
-x,-y,z
x,-y,1/2-z
-x,y,1/2-z
-x,-y,-z
x,y,-z
-x,y,1/2+z
x,-y,1/2+z
1/2+x,1/2+y,z
1/2-x,1/2-y,z
1/2+x,1/2-y,1/2-z
1/2-x,1/2+y,1/2-z
1/2-x,1/2-y,-z
1/2+x,1/2+y,-z
1/2-x,1/2+y,1/2+z
1/2+x,1/2-y,1/2+z
loop_
_atom_site_type_symbol
_atom_site_label
_atom_site_fract_x
_atom_site_fract_y
_atom_site_fract_z
Si Si1 0.006463 0.907417 0.888804
Si Si2 0.395377 0.304254 0.890064
Si Si3 0.000000 0.620895 0.250000
Si Si4 0.419822 0.803662 0.610377
Si Si5 0.225112 0.943205 0.253960
O O1 0.147223 0.927846 0.842153
O O2 0.996376 0.849347 0.862393
O O3 0.872294 0.934926 0.845110
O O4 0.009386 0.916924 0.000000
O O5 0.463460 0.252149 0.859132
O O6 0.238450 0.312381 0.850416
O O7 0.371373 0.301562 0.000000
O O8 0.020054 0.656590 0.160017
O O9 0.866155 0.587050 0.235875
O O10 0.436124 0.812144 0.500000
O O11 0.265995 0.000000 0.250000
#
# Coordination Sequence:
#
# PCOD8276858 Si02
#       5
#    16  16   8  16  16
#     4  10  20  40  65  86 111 148 193 240 291 345
#     4   8  15  33  60  85 113 148 186 231 280 337
#     4  12  23  38  58  84 118 160 191 232 288 356
#     4   9  18  34  56  86 120 155 189 224 278 349
#     4  11  25  40  57  84 115 149 196 250 294 335
#
# _framework density 19.522324999999999
#
# number of rings (size 3 to 8) (size 9 to 14) (size 15 to 20)
#    0.000    2.222    2.222    3.000    0.000    4.444 
#    0.000    0.000    0.000    8.000    0.000    0.000 
#    0.000    0.000    0.000    0.000    0.000    0.000 
#
# Total GULP energy -446247.796317 kJ/mol
# GULP energy per Si atom -12395.772120 kJ/mol
# Density = 1.947789 g / cm^3
# Si number density = 19.522325 Si / 1000 Ang^3
#
#
#
# Elastic Constant Matrix: (Units=GPa)
#
#
# Indices 1 2 3 4 5 6 
#
# 1 37.2111 19.3327 15.4150 0.0000 0.0000 0.0000
# 2 19.3327 148.7831 37.4356 0.0000 0.0000 0.0000
# 3 15.4150 37.4356 99.8359 0.0000 0.0000 0.0000
# 4 0.0000 0.0000 0.0000 25.3839 0.0000 0.0000
# 5 0.0000 0.0000 0.0000 0.0000 12.1987 0.0000
# 6 0.0000 0.0000 0.0000 0.0000 0.0000 15.0559
#
#
#
# Elastic Compliance Matrix: (Units=1/GPa)
#
#
# Indices 1 2 3 4 5 6 
#
# 1 0.029879 -0.003005 -0.003487 0.000000 0.000000 0.000000
# 2 -0.003005 0.007724 -0.002432 0.000000 0.000000 0.000000
# 3 -0.003487 -0.002432 0.011467 0.000000 0.000000 0.000000
# 4 0.000000 0.000000 0.000000 0.039395 0.000000 0.000000
# 5 0.000000 0.000000 0.000000 0.000000 0.081976 0.000000
# 6 0.000000 0.000000 0.000000 0.000000 0.000000 0.066419
#
#
# Mechanical properties :
#
#
# Convention : Reuss Voigt Hill
#
# Bulk Modulus (GPa) = 32.02884 47.79965 39.91424
# Shear Modulus (GPa) = 18.85972 24.77082 21.81527
#
# Velocity S-wave (km/s) = 3.11152 3.56595 3.34646
# Velocity P-wave (km/s) = 5.41762 6.44146 5.95160
#
# Compressibility (1/GPa) = 0.03122187
#
# Stress axis : x y z
#
# Youngs Moduli (GPa) = 33.46790 129.47263 87.20863
#
# Poissons Ratio (x) = 0.38909 0.30406
# Poissons Ratio (y) = 0.10058 0.21210
# Poissons Ratio (z) = 0.11669 0.31489
#
# Static dielectric constant tensor:
#      x y z
#    x 3.431330 0.000000 0.000000 
#    y 0.000000 3.947600 0.000000 
#    z 0.000000 0.000000 3.435050 
# 
# 
# High freq. dielectric constant tensor:
#      x y z
#    x 1.731420 0.000000 0.000000 
#    y 0.000000 1.780020 0.000000 
#    z 0.000000 0.000000 1.752760 
# 
# From -- ./inp_files/24494.got.cif
#   From: 2010.03.12/outbox.cif.g09.slc.cpg/sg66_13_cif.got.tgz:24494.got - 2010.04.10 21:57:39.
