data_PCOD8276983
_publ_section_title
;
Structure prediction by ZEFSAII (Michael W. Deem and Ramdas Pophale) SiO2 
 PCOD8276983
Probable space group: C C C M
;
_chemical_formula_sum "Si O2"
_cell_formula_units_Z 60
_cell_length_a 8.379906
_cell_length_b 17.871777
_cell_length_c 19.371007
_cell_angle_alpha 90.000000
_cell_angle_beta 90.000000
_cell_angle_gamma 90.000000
_cell_volume 2901.075837
_symmetry_space_group_name_H-M "C C C M"
_symmetry_group_IT_number 66
_symmetry_cell_setting 'orthorhombic'
loop_
_space_group_symop_operation_xyz
x,y,z
-x,-y,z
x,-y,1/2-z
-x,y,1/2-z
-x,-y,-z
x,y,-z
-x,y,1/2+z
x,-y,1/2+z
1/2+x,1/2+y,z
1/2-x,1/2-y,z
1/2+x,1/2-y,1/2-z
1/2-x,1/2+y,1/2-z
1/2-x,1/2-y,-z
1/2+x,1/2+y,-z
1/2-x,1/2+y,1/2+z
1/2+x,1/2-y,1/2+z
loop_
_atom_site_type_symbol
_atom_site_label
_atom_site_fract_x
_atom_site_fract_y
_atom_site_fract_z
Si Si1 0.957446 0.902154 0.500000
Si Si2 0.750000 0.250000 0.884348
Si Si3 0.005858 0.730920 0.000000
Si Si4 0.811836 0.412312 0.500000
Si Si5 0.000000 0.500000 0.111471
Si Si6 0.500000 0.500000 0.750000
Si Si7 0.209630 0.909445 0.854286
O O1 0.031190 0.818615 0.500000
O O2 0.852583 0.920365 0.567113
O O3 0.128385 0.943891 0.500000
O O4 0.796816 0.179422 0.836812
O O5 0.889121 0.285618 0.932001
O O6 0.848461 0.677801 0.000000
O O7 0.890425 0.444858 0.432077
O O8 0.883754 0.446902 0.156163
O O9 0.599543 0.446374 0.798216
#
# Coordination Sequence:
#
# PCOD8276983 Si02
#       7
#     8   8   8   8   8   4  16
#     4  10  21  36  65  90 135 156 204 254 326 357
#     4   9  18  38  66  84 126 159 206 248 316 357
#     4   9  16  31  59  98 122 156 195 258 303 372
#     4  11  18  30  54 103 126 159 194 258 305 381
#     4  11  22  33  62  86 128 154 212 246 318 364
#     4  12  28  44  64  84 128 158 220 248 328 368
#     4  11  23  44  63  95 119 173 200 268 306 386
#
# _framework density 20.681982000000001
#
# number of rings (size 3 to 8) (size 9 to 14) (size 15 to 20)
#    0.000    1.600    2.667    4.400    0.000    2.133 
#    0.000    2.667    5.867    0.000    0.000    0.000 
#    0.000    0.000    0.000    0.000    0.000    0.000 
#
# Total GULP energy -371789.011462 kJ/mol
# GULP energy per Si atom -12392.967049 kJ/mol
# Density = 2.063491 g / cm^3
# Si number density = 20.681982 Si / 1000 Ang^3
#
#
#
# Elastic Constant Matrix: (Units=GPa)
#
#
# Indices 1 2 3 4 5 6 
#
# 1 127.6744 38.8232 37.3752 0.0000 0.0000 0.0000
# 2 38.8232 143.4525 52.2196 0.0000 0.0000 0.0000
# 3 37.3752 52.2196 85.2888 0.0000 0.0000 0.0000
# 4 0.0000 0.0000 0.0000 31.3502 0.0000 0.0000
# 5 0.0000 0.0000 0.0000 0.0000 52.3631 0.0000
# 6 0.0000 0.0000 0.0000 0.0000 0.0000 36.8301
#
#
#
# Elastic Compliance Matrix: (Units=1/GPa)
#
#
# Indices 1 2 3 4 5 6 
#
# 1 0.009173 -0.001312 -0.003217 0.000000 0.000000 0.000000
# 2 -0.001312 0.009158 -0.005032 0.000000 0.000000 0.000000
# 3 -0.003217 -0.005032 0.016216 0.000000 0.000000 0.000000
# 4 0.000000 0.000000 0.000000 0.031898 0.000000 0.000000
# 5 0.000000 0.000000 0.000000 0.000000 0.019097 0.000000
# 6 0.000000 0.000000 0.000000 0.000000 0.000000 0.027152
#
#
# Mechanical properties :
#
#
# Convention : Reuss Voigt Hill
#
# Bulk Modulus (GPa) = 64.82904 68.13908 66.48406
# Shear Modulus (GPa) = 36.50813 39.30853 37.90833
#
# Velocity S-wave (km/s) = 4.20600 4.36434 4.28590
# Velocity P-wave (km/s) = 7.41627 7.64292 7.53045
#
# Compressibility (1/GPa) = 0.01542518
#
# Stress axis : x y z
#
# Youngs Moduli (GPa) = 109.01677 109.19731 61.66907
#
# Poissons Ratio (x) = 0.14322 0.19837
# Poissons Ratio (y) = 0.14298 0.31033
# Poissons Ratio (z) = 0.35068 0.54951
#
# Static dielectric constant tensor:
#      x y z
#    x 3.894690 0.000000 0.000000 
#    y 0.000000 4.101530 0.000000 
#    z 0.000000 0.000000 3.292720 
# 
# 
# High freq. dielectric constant tensor:
#      x y z
#    x 1.815110 0.000000 0.000000 
#    y 0.000000 1.841530 0.000000 
#    z 0.000000 0.000000 1.756040 
# 
# From -- ./inp_files/36179.got.cif
#   From: 2010.03.12/outbox.cif.g09.slc.cpg/sg66_19_cif.got.tgz:36179.got - 2010.04.10 21:57:39.
