data_PCOD8276166
_publ_section_title
;
Structure prediction by ZEFSAII (Michael W. Deem and Ramdas Pophale) SiO2 
 PCOD8276166
Probable space group: C C C M
;
_chemical_formula_sum "Si O2"
_cell_formula_units_Z 68
_cell_length_a 9.721833
_cell_length_b 17.527192
_cell_length_c 18.503445
_cell_angle_alpha 90.000000
_cell_angle_beta 90.000000
_cell_angle_gamma 90.000000
_cell_volume 3152.921037
_symmetry_space_group_name_H-M "C C C M"
_symmetry_group_IT_number 66
_symmetry_cell_setting 'orthorhombic'
loop_
_space_group_symop_operation_xyz
x,y,z
-x,-y,z
x,-y,1/2-z
-x,y,1/2-z
-x,-y,-z
x,y,-z
-x,y,1/2+z
x,-y,1/2+z
1/2+x,1/2+y,z
1/2-x,1/2-y,z
1/2+x,1/2-y,1/2-z
1/2-x,1/2+y,1/2-z
1/2-x,1/2-y,-z
1/2+x,1/2+y,-z
1/2-x,1/2+y,1/2+z
1/2+x,1/2-y,1/2+z
loop_
_atom_site_type_symbol
_atom_site_label
_atom_site_fract_x
_atom_site_fract_y
_atom_site_fract_z
Si Si1 0.500000 0.000000 0.750000
Si Si2 0.954101 0.862872 0.413059
Si Si3 0.509248 0.195279 0.582002
Si Si4 0.752393 0.596575 0.916930
Si Si5 0.681824 0.066851 0.869806
O O1 0.601985 0.056382 0.794023
O O2 0.926632 0.872285 0.500000
O O3 0.840309 0.906547 0.365206
O O4 0.958004 0.775191 0.384918
O O5 0.097641 0.900844 0.387110
O O6 0.544985 0.215010 0.500000
O O7 0.647507 0.160522 0.619741
O O8 0.390402 0.132122 0.583409
O O9 0.824325 0.514939 0.908274
O O10 0.744018 0.617730 0.000000
#
# Coordination Sequence:
#
# PCOD8276166 Si02
#       5
#     4  16  16  16  16
#     4  12  28  44  60  76 112 176 232 270 284 328
#     4  10  21  36  63 103 131 146 180 248 327 387
#     4  10  19  35  64  98 127 154 183 238 319 380
#     4  10  19  35  62  97 129 155 182 236 316 382
#     4  12  22  40  61  79 121 160 217 254 286 346
#
# _framework density 21.567302999999999
#
# number of rings (size 3 to 8) (size 9 to 14) (size 15 to 20)
#    0.000    1.412    2.353    4.235    0.000    8.471 
#    0.000    2.353   10.353    0.000    0.000    0.000 
#    0.000    0.000    0.000    0.000    0.000    0.000 
#
# Total GULP energy -421281.712639 kJ/mol
# GULP energy per Si atom -12390.638607 kJ/mol
# Density = 2.151821 g / cm^3
# Si number density = 21.567303 Si / 1000 Ang^3
#
#
#
# Elastic Constant Matrix: (Units=GPa)
#
#
# Indices 1 2 3 4 5 6 
#
# 1 125.5003 26.8411 34.8017 0.0000 0.0000 0.0000
# 2 26.8411 114.6969 21.5487 0.0000 0.0000 0.0000
# 3 34.8017 21.5487 35.4144 0.0000 0.0000 0.0000
# 4 0.0000 0.0000 0.0000 9.6720 0.0000 0.0000
# 5 0.0000 0.0000 0.0000 0.0000 30.7449 0.0000
# 6 0.0000 0.0000 0.0000 0.0000 0.0000 46.5569
#
#
#
# Elastic Compliance Matrix: (Units=1/GPa)
#
#
# Indices 1 2 3 4 5 6 
#
# 1 0.010991 -0.000613 -0.010428 0.000000 0.000000 0.000000
# 2 -0.000613 0.009878 -0.005408 0.000000 0.000000 0.000000
# 3 -0.010428 -0.005408 0.041775 0.000000 0.000000 0.000000
# 4 0.000000 0.000000 0.000000 0.103391 0.000000 0.000000
# 5 0.000000 0.000000 0.000000 0.000000 0.032526 0.000000
# 6 0.000000 0.000000 0.000000 0.000000 0.000000 0.021479
#
#
# Mechanical properties :
#
#
# Convention : Reuss Voigt Hill
#
# Bulk Modulus (GPa) = 33.61760 49.11053 41.36406
# Shear Modulus (GPa) = 19.02203 30.22276 24.62240
#
# Velocity S-wave (km/s) = 2.97304 3.74749 3.38250
# Velocity P-wave (km/s) = 5.23512 6.44555 5.87161
#
# Compressibility (1/GPa) = 0.02974633
#
# Stress axis : x y z
#
# Youngs Moduli (GPa) = 90.98484 101.23353 23.93767
#
# Poissons Ratio (x) = 0.06205 0.24962
# Poissons Ratio (y) = 0.05577 0.12946
# Poissons Ratio (z) = 0.94876 0.54750
#
# Static dielectric constant tensor:
#      x y z
#    x 4.473760 0.000000 0.000000 
#    y 0.000000 4.086900 0.000000 
#    z 0.000000 0.000000 3.238710 
# 
# 
# High freq. dielectric constant tensor:
#      x y z
#    x 1.874050 0.000000 0.000000 
#    y 0.000000 1.864550 0.000000 
#    z 0.000000 0.000000 1.766150 
# 
# From -- ./inp_files/42516.got.cif
#   From: 2010.03.12/outbox.cif.g09.slc.cpg/sg66_22_cif.got.tgz:42516.got - 2010.04.10 21:57:39.
