data_PCOD8276949
_publ_section_title
;
Structure prediction by ZEFSAII (Michael W. Deem and Ramdas Pophale) SiO2 
 PCOD8276949
Probable space group: C C C M
;
_chemical_formula_sum "Si O2"
_cell_formula_units_Z 64
_cell_length_a 4.927903
_cell_length_b 24.928451
_cell_length_c 25.819092
_cell_angle_alpha 90.000000
_cell_angle_beta 90.000000
_cell_angle_gamma 90.000000
_cell_volume 3171.746059
_symmetry_space_group_name_H-M "C C C M"
_symmetry_group_IT_number 66
_symmetry_cell_setting 'orthorhombic'
loop_
_space_group_symop_operation_xyz
x,y,z
-x,-y,z
x,-y,1/2-z
-x,y,1/2-z
-x,-y,-z
x,y,-z
-x,y,1/2+z
x,-y,1/2+z
1/2+x,1/2+y,z
1/2-x,1/2-y,z
1/2+x,1/2-y,1/2-z
1/2-x,1/2+y,1/2-z
1/2-x,1/2-y,-z
1/2+x,1/2+y,-z
1/2-x,1/2+y,1/2+z
1/2+x,1/2-y,1/2+z
loop_
_atom_site_type_symbol
_atom_site_label
_atom_site_fract_x
_atom_site_fract_y
_atom_site_fract_z
Si Si1 0.109547 0.693742 0.107606
Si Si2 0.405931 0.106934 0.307482
Si Si3 0.888369 0.145872 0.559505
Si Si4 0.103950 0.941275 0.644416
O O1 0.250000 0.750000 0.121052
O O2 0.071040 0.662362 0.161280
O O3 0.303941 0.664666 0.066464
O O4 0.813656 0.693093 0.080334
O O5 0.500000 0.120941 0.250000
O O6 0.601907 0.059691 0.328808
O O7 0.099682 0.085946 0.313962
O O8 0.827580 0.133550 0.500000
O O9 0.858909 0.090727 0.590954
O O10 0.000000 0.000000 0.630135
#
# Coordination Sequence:
#
# PCOD8276949 Si02
#       4
#    16  16  16  16
#     4  10  21  37  55  79 109 140 179 223 267 319
#     4  10  21  37  55  79 109 140 179 224 269 321
#     4  10  21  36  55  80 109 141 179 222 267 319
#     4  10  21  36  55  80 109 141 179 222 268 322
#
# _framework density 20.178162
#
# number of rings (size 3 to 8) (size 9 to 14) (size 15 to 20)
#    0.000    2.000    0.000    3.000    0.000    6.500 
#    0.000    7.500    0.000    9.000    0.000    0.000 
#    0.000    0.000    0.000    0.000    0.000    0.000 
#
# Total GULP energy -396632.035432 kJ/mol
# GULP energy per Si atom -12394.751107 kJ/mol
# Density = 2.013224 g / cm^3
# Si number density = 20.178162 Si / 1000 Ang^3
#
#
#
# Elastic Constant Matrix: (Units=GPa)
#
#
# Indices 1 2 3 4 5 6 
#
# 1 88.1077 19.2317 35.8908 0.0000 0.0000 0.0000
# 2 19.2317 96.9332 60.1843 0.0000 0.0000 0.0000
# 3 35.8908 60.1843 118.9176 0.0000 0.0000 0.0000
# 4 0.0000 0.0000 0.0000 10.1251 0.0000 0.0000
# 5 0.0000 0.0000 0.0000 0.0000 20.7066 0.0000
# 6 0.0000 0.0000 0.0000 0.0000 0.0000 37.0655
#
#
#
# Elastic Compliance Matrix: (Units=1/GPa)
#
#
# Indices 1 2 3 4 5 6 
#
# 1 0.012944 -0.000208 -0.003801 0.000000 0.000000 0.000000
# 2 -0.000208 0.015047 -0.007552 0.000000 0.000000 0.000000
# 3 -0.003801 -0.007552 0.013379 0.000000 0.000000 0.000000
# 4 0.000000 0.000000 0.000000 0.098765 0.000000 0.000000
# 5 0.000000 0.000000 0.000000 0.000000 0.048294 0.000000
# 6 0.000000 0.000000 0.000000 0.000000 0.000000 0.026979
#
#
# Mechanical properties :
#
#
# Convention : Reuss Voigt Hill
#
# Bulk Modulus (GPa) = 54.80689 59.39691 57.10190
# Shear Modulus (GPa) = 20.44052 26.15621 23.29836
#
# Velocity S-wave (km/s) = 3.18622 3.60427 3.40167
# Velocity P-wave (km/s) = 6.38408 6.84260 6.61731
#
# Compressibility (1/GPa) = 0.01824588
#
# Stress axis : x y z
#
# Youngs Moduli (GPa) = 77.25829 66.45912 74.74512
#
# Poissons Ratio (x) = 0.01381 0.28413
# Poissons Ratio (y) = 0.01606 0.56451
# Poissons Ratio (z) = 0.29369 0.50193
#
# Static dielectric constant tensor:
#      x y z
#    x 4.028040 0.000000 0.000000 
#    y 0.000000 3.430450 0.000000 
#    z 0.000000 0.000000 3.457270 
# 
# 
# High freq. dielectric constant tensor:
#      x y z
#    x 1.814510 0.000000 0.000000 
#    y 0.000000 1.771560 0.000000 
#    z 0.000000 0.000000 1.777040 
# 
# From -- ./inp_files/54102.got.cif
#   From: 2010.03.12/outbox.cif.g09.slc.cpg/sg66_28_cif.got.tgz:54102.got - 2010.04.10 21:57:39.
