data_PCOD8276788
_publ_section_title
;
Structure prediction by ZEFSAII (Michael W. Deem and Ramdas Pophale) SiO2 
 PCOD8276788
Probable space group: C C C M
;
_chemical_formula_sum "Si O2"
_cell_formula_units_Z 112
_cell_length_a 12.981673
_cell_length_b 25.513237
_cell_length_c 16.744973
_cell_angle_alpha 90.000000
_cell_angle_beta 90.000000
_cell_angle_gamma 90.000000
_cell_volume 5546.010408
_symmetry_space_group_name_H-M "C C C M"
_symmetry_group_IT_number 66
_symmetry_cell_setting 'orthorhombic'
loop_
_space_group_symop_operation_xyz
x,y,z
-x,-y,z
x,-y,1/2-z
-x,y,1/2-z
-x,-y,-z
x,y,-z
-x,y,1/2+z
x,-y,1/2+z
1/2+x,1/2+y,z
1/2-x,1/2-y,z
1/2+x,1/2-y,1/2-z
1/2-x,1/2+y,1/2-z
1/2-x,1/2-y,-z
1/2+x,1/2+y,-z
1/2-x,1/2+y,1/2+z
1/2+x,1/2-y,1/2+z
loop_
_atom_site_type_symbol
_atom_site_label
_atom_site_fract_x
_atom_site_fract_y
_atom_site_fract_z
Si Si1 0.137281 0.883073 0.407593
Si Si2 0.983290 0.281666 0.907997
Si Si3 0.067518 0.832441 0.093970
Si Si4 0.798577 0.696039 0.843397
Si Si5 0.380145 0.506587 0.657320
Si Si6 0.101168 0.368615 0.294206
Si Si7 0.243327 0.911859 0.092505
O O1 0.125996 0.896400 0.500000
O O2 0.220946 0.837455 0.397398
O O3 0.166578 0.936755 0.363627
O O4 0.028417 0.864639 0.369537
O O5 0.105589 0.286627 0.897844
O O6 0.938404 0.226867 0.873203
O O7 0.928692 0.326165 0.858979
O O8 0.953393 0.288720 0.000000
O O9 0.174337 0.860893 0.115506
O O10 0.049931 0.829859 0.000000
O O11 0.750000 0.750000 0.811039
O O12 0.826478 0.659056 0.769812
O O13 0.500000 0.500000 0.635897
O O14 0.357972 0.500000 0.750000
O O15 0.320948 0.464412 0.603945
O O16 0.161227 0.412978 0.345048
O O17 0.000000 0.392646 0.250000
O O18 0.279770 0.908915 0.000000
#
# Coordination Sequence:
#
# PCOD8276788 Si02
#       7
#    16  16  16  16  16  16  16
#     4  11  21  37  60  89 125 163 204 253 307 368
#     4  10  20  38  59  84 119 162 213 259 304 363
#     4   9  19  32  54  90 125 159 199 250 302 358
#     4  11  22  36  57  87 122 162 203 252 313 375
#     4  11  23  39  59  94 132 167 200 252 317 379
#     4  10  24  41  57  87 124 163 210 262 315 362
#     4  11  22  40  66  91 123 169 214 254 310 375
#
# _framework density 20.194697000000001
#
# number of rings (size 3 to 8) (size 9 to 14) (size 15 to 20)
#    0.000    1.571    2.857    2.143    2.000    1.143 
#    0.000    2.143    0.000    9.857    0.000   14.000 
#    0.000    0.000    0.000    0.000    0.000    0.000 
#
# Total GULP energy -694391.824732 kJ/mol
# GULP energy per Si atom -12399.854013 kJ/mol
# Density = 2.014873 g / cm^3
# Si number density = 20.194697 Si / 1000 Ang^3
#
#
#
# Elastic Constant Matrix: (Units=GPa)
#
#
# Indices 1 2 3 4 5 6 
#
# 1 75.1110 33.3680 32.7112 0.0000 0.0000 0.0000
# 2 33.3680 85.4643 24.0891 0.0000 0.0000 0.0000
# 3 32.7112 24.0891 85.4639 0.0000 0.0000 0.0000
# 4 0.0000 0.0000 0.0000 -142.3514 0.0000 0.0000
# 5 0.0000 0.0000 0.0000 0.0000 32.4893 0.0000
# 6 0.0000 0.0000 0.0000 0.0000 0.0000 29.6381
#
#
#
# Elastic Compliance Matrix: (Units=1/GPa)
#
#
# Indices 1 2 3 4 5 6 
#
# 1 0.018123 -0.005563 -0.005369 0.000000 0.000000 0.000000
# 2 -0.005563 0.014418 -0.001935 0.000000 0.000000 0.000000
# 3 -0.005369 -0.001935 0.014301 0.000000 0.000000 0.000000
# 4 0.000000 0.000000 0.000000 -0.007025 0.000000 0.000000
# 5 0.000000 0.000000 0.000000 0.000000 0.030779 0.000000
# 6 0.000000 0.000000 0.000000 0.000000 0.000000 0.033740
#
#
# Mechanical properties :
#
#
# Convention : Reuss Voigt Hill
#
# Bulk Modulus (GPa) = 47.37127 47.37510 47.37318
# Shear Modulus (GPa) = 36.46834 -5.65341 15.40746
#
# Velocity S-wave (km/s) = 4.25412 -1.67497 2.76514
# Velocity P-wave (km/s) = 6.90205 4.44628 5.80550
#
# Compressibility (1/GPa) = 0.02110984
#
# Stress axis : x y z
#
# Youngs Moduli (GPa) = 55.17904 69.35802 69.92503
#
# Poissons Ratio (x) = 0.38581 0.37540
# Poissons Ratio (y) = 0.30693 0.13529
# Poissons Ratio (z) = 0.29624 0.13420
#
# Static dielectric constant tensor:
#      x y z
#    x 3.838710 0.000000 0.000000 
#    y 0.000000 3.609670 0.000000 
#    z 0.000000 0.000000 3.587540 
# 
# 
# High freq. dielectric constant tensor:
#      x y z
#    x 1.782890 0.000000 0.000000 
#    y 0.000000 1.783600 0.000000 
#    z 0.000000 0.000000 1.789810 
# 
# From -- ./inp_files/28744.got.cif
#   From: 2010.03.12/outbox.cif.g09.slc.cpg/sg66_15_cif.got.tgz:28744.got - 2010.04.10 21:57:39.
