data_PCOD8276369
_publ_section_title
;
Structure prediction by ZEFSAII (Michael W. Deem and Ramdas Pophale) SiO2 
 PCOD8276369
Probable space group: C C C M
;
_chemical_formula_sum "Si O2"
_cell_formula_units_Z 80
_cell_length_a 26.224899
_cell_length_b 9.047098
_cell_length_c 16.000324
_cell_angle_alpha 90.000000
_cell_angle_beta 90.000000
_cell_angle_gamma 90.000000
_cell_volume 3796.224573
_symmetry_space_group_name_H-M "C C C M"
_symmetry_group_IT_number 66
_symmetry_cell_setting 'orthorhombic'
loop_
_space_group_symop_operation_xyz
x,y,z
-x,-y,z
x,-y,1/2-z
-x,y,1/2-z
-x,-y,-z
x,y,-z
-x,y,1/2+z
x,-y,1/2+z
1/2+x,1/2+y,z
1/2-x,1/2-y,z
1/2+x,1/2-y,1/2-z
1/2-x,1/2+y,1/2-z
1/2-x,1/2-y,-z
1/2+x,1/2+y,-z
1/2-x,1/2+y,1/2+z
1/2+x,1/2-y,1/2+z
loop_
_atom_site_type_symbol
_atom_site_label
_atom_site_fract_x
_atom_site_fract_y
_atom_site_fract_z
Si Si1 0.158752 0.935220 0.157355
Si Si2 0.745321 0.090806 0.404713
Si Si3 0.342689 0.116613 0.597407
Si Si4 0.047499 0.075192 0.339678
Si Si5 0.049602 0.576417 0.839170
O O1 0.165556 0.758651 0.156298
O O2 0.102136 0.964047 0.118458
O O3 0.165106 0.000000 0.250000
O O4 0.201015 0.006985 0.098870
O O5 0.730030 0.117639 0.500000
O O6 0.750000 0.250000 0.358916
O O7 0.698756 0.998120 0.365601
O O8 0.332728 0.155833 0.500000
O O9 0.399569 0.049505 0.606397
O O10 0.038824 0.249630 0.330413
O O11 0.048843 0.000000 0.250000
O O12 0.000000 0.000000 0.390287
O O13 0.058046 0.500000 0.750000
O O14 0.000000 0.500000 0.882547
#
# Coordination Sequence:
#
# PCOD8276369 Si02
#       5
#    16  16  16  16  16
#     4  10  21  35  57  85 108 143 192 240 286 338
#     4  10  22  38  56  80 112 150 188 231 287 345
#     4  10  22  40  60  82 116 160 196 233 291 356
#     4   9  17  31  51  77 109 142 177 223 285 341
#     4  10  20  33  55  85 114 149 193 241 290 339
#
# _framework density 21.07357
#
# number of rings (size 3 to 8) (size 9 to 14) (size 15 to 20)
#    0.000    2.200    0.000    3.600    0.000   10.800 
#    0.000    0.000    0.000   15.000    0.000    0.000 
#    0.000    0.800    0.000    0.000    0.000    0.000 
#
# Total GULP energy -495652.600160 kJ/mol
# GULP energy per Si atom -12391.315004 kJ/mol
# Density = 2.102561 g / cm^3
# Si number density = 21.073570 Si / 1000 Ang^3
#
#
#
# Elastic Constant Matrix: (Units=GPa)
#
#
# Indices 1 2 3 4 5 6 
#
# 1 204.4259 108.5297 13.7132 0.0000 0.0000 0.0000
# 2 108.5297 156.8467 24.0457 0.0000 0.0000 0.0000
# 3 13.7132 24.0457 38.1419 0.0000 0.0000 0.0000
# 4 0.0000 0.0000 0.0000 23.8506 0.0000 0.0000
# 5 0.0000 0.0000 0.0000 0.0000 -13.1418 0.0000
# 6 0.0000 0.0000 0.0000 0.0000 0.0000 40.9341
#
#
#
# Elastic Compliance Matrix: (Units=1/GPa)
#
#
# Indices 1 2 3 4 5 6 
#
# 1 0.007747 -0.005461 0.000658 0.000000 0.000000 0.000000
# 2 -0.005461 0.010908 -0.004913 0.000000 0.000000 0.000000
# 3 0.000658 -0.004913 0.029079 0.000000 0.000000 0.000000
# 4 0.000000 0.000000 0.000000 0.041928 0.000000 0.000000
# 5 0.000000 0.000000 0.000000 0.000000 -0.076093 0.000000
# 6 0.000000 0.000000 0.000000 0.000000 0.000000 0.024430
#
#
# Mechanical properties :
#
#
# Convention : Reuss Voigt Hill
#
# Bulk Modulus (GPa) = 35.33552 76.88797 56.11175
# Shear Modulus (GPa) = 74.77805 27.20364 50.99084
#
# Velocity S-wave (km/s) = 5.96333 3.59679 4.92434
# Velocity P-wave (km/s) = 8.01369 7.33580 7.68222
#
# Compressibility (1/GPa) = 0.02830013
#
# Stress axis : x y z
#
# Youngs Moduli (GPa) = 129.08060 91.67685 34.38941
#
# Poissons Ratio (x) = 0.50069 -0.02262
# Poissons Ratio (y) = 0.70496 0.16896
# Poissons Ratio (z) = -0.08490 0.45041
#
# Static dielectric constant tensor:
#      x y z
#    x 5.045220 0.000000 0.000000 
#    y 0.000000 4.038920 0.000000 
#    z 0.000000 0.000000 3.247170 
# 
# 
# High freq. dielectric constant tensor:
#      x y z
#    x 1.855600 0.000000 0.000000 
#    y 0.000000 1.835220 0.000000 
#    z 0.000000 0.000000 1.775430 
# 
# From -- ./inp_files/37015.got.cif
#   From: 2010.03.12/outbox.cif.g09.slc.cpg/sg66_19_cif.got.tgz:37015.got - 2010.04.10 21:57:39.
