data_PCOD8276957
_publ_section_title
;
Structure prediction by ZEFSAII (Michael W. Deem and Ramdas Pophale) SiO2 
 PCOD8276957
Probable space group: C C C M
;
_chemical_formula_sum "Si O2"
_cell_formula_units_Z 56
_cell_length_a 22.714010
_cell_length_b 12.940586
_cell_length_c 9.507407
_cell_angle_alpha 90.000000
_cell_angle_beta 90.000000
_cell_angle_gamma 90.000000
_cell_volume 2794.536857
_symmetry_space_group_name_H-M "C C C M"
_symmetry_group_IT_number 66
_symmetry_cell_setting 'orthorhombic'
loop_
_space_group_symop_operation_xyz
x,y,z
-x,-y,z
x,-y,1/2-z
-x,y,1/2-z
-x,-y,-z
x,y,-z
-x,y,1/2+z
x,-y,1/2+z
1/2+x,1/2+y,z
1/2-x,1/2-y,z
1/2+x,1/2-y,1/2-z
1/2-x,1/2+y,1/2-z
1/2-x,1/2-y,-z
1/2+x,1/2+y,-z
1/2-x,1/2+y,1/2+z
1/2+x,1/2-y,1/2+z
loop_
_atom_site_type_symbol
_atom_site_label
_atom_site_fract_x
_atom_site_fract_y
_atom_site_fract_z
Si Si1 0.598618 0.099700 0.338866
Si Si2 0.590842 0.403755 0.154210
Si Si3 0.500000 0.247400 0.750000
Si Si4 0.317920 0.237908 0.335411
O O1 0.614704 0.071101 0.500000
O O2 0.543490 0.177601 0.343026
O O3 0.655502 0.148116 0.261966
O O4 0.579381 0.000000 0.250000
O O5 0.574982 0.500000 0.250000
O O6 0.538435 0.320155 0.148850
O O7 0.650704 0.346551 0.202341
O O8 0.598944 0.450549 0.000000
O O9 0.327846 0.210089 0.500000
O O10 0.250000 0.250000 0.297376
#
# Coordination Sequence:
#
# PCOD8276957 Si02
#       4
#    16  16   8  16
#     4  11  23  38  59  86 115 149 190 236 287 343
#     4  10  21  36  56  82 111 144 183 227 277 332
#     4  10  22  38  58  80 110 150 192 232 278 336
#     4   9  20  40  61  82 113 151 190 234 282 334
#
# _framework density 20.039099
#
# number of rings (size 3 to 8) (size 9 to 14) (size 15 to 20)
#    0.000    2.000    0.000    2.571    0.000   13.143 
#    0.000    2.857    0.000    0.000    0.000    0.000 
#    0.000    0.000    0.000    0.000    0.000    0.000 
#
# Total GULP energy -347193.701081 kJ/mol
# GULP energy per Si atom -12399.775039 kJ/mol
# Density = 1.999349 g / cm^3
# Si number density = 20.039099 Si / 1000 Ang^3
#
#
#
# Elastic Constant Matrix: (Units=GPa)
#
#
# Indices 1 2 3 4 5 6 
#
# 1 142.5213 53.6143 35.4577 0.0000 0.0000 0.0000
# 2 53.6143 125.8024 60.0028 0.0000 0.0000 0.0000
# 3 35.4577 60.0028 114.9451 0.0000 0.0000 0.0000
# 4 0.0000 0.0000 0.0000 30.0126 0.0000 0.0000
# 5 0.0000 0.0000 0.0000 0.0000 1.1238 0.0000
# 6 0.0000 0.0000 0.0000 0.0000 0.0000 16.3171
#
#
#
# Elastic Compliance Matrix: (Units=1/GPa)
#
#
# Indices 1 2 3 4 5 6 
#
# 1 0.008436 -0.003134 -0.000966 0.000000 0.000000 0.000000
# 2 -0.003134 0.011749 -0.005166 0.000000 0.000000 0.000000
# 3 -0.000966 -0.005166 0.011695 0.000000 0.000000 0.000000
# 4 0.000000 0.000000 0.000000 0.033319 0.000000 0.000000
# 5 0.000000 0.000000 0.000000 0.000000 0.889871 0.000000
# 6 0.000000 0.000000 0.000000 0.000000 0.000000 0.061285
#
#
# Mechanical properties :
#
#
# Convention : Reuss Voigt Hill
#
# Bulk Modulus (GPa) = 74.92824 75.71315 75.32070
# Shear Modulus (GPa) = 4.81076 25.10363 14.95720
#
# Velocity S-wave (km/s) = 1.55110 3.54324 2.73500
# Velocity P-wave (km/s) = 6.37809 7.38946 6.90232
#
# Compressibility (1/GPa) = 0.01334610
#
# Stress axis : x y z
#
# Youngs Moduli (GPa) = 118.53991 85.11462 85.50954
#
# Poissons Ratio (x) = 0.26679 0.08261
# Poissons Ratio (y) = 0.37156 0.44176
# Poissons Ratio (z) = 0.11452 0.43971
#
# Static dielectric constant tensor:
#      x y z
#    x 3.678920 0.000000 0.000000 
#    y 0.000000 3.606630 0.000000 
#    z 0.000000 0.000000 3.463800 
# 
# 
# High freq. dielectric constant tensor:
#      x y z
#    x 1.783470 0.000000 0.000000 
#    y 0.000000 1.781260 0.000000 
#    z 0.000000 0.000000 1.777490 
# 
# From -- ./inp_files/3736.got.cif
#   From: 2010.03.12/outbox.cif.g09.slc.cpg/sg66_2_cif.got.tgz:3736.got - 2010.04.10 21:57:39.
