data_PCOD8276423
_publ_section_title
;
Structure prediction by ZEFSAII (Michael W. Deem and Ramdas Pophale) SiO2 
 PCOD8276423
Probable space group: C C C M
;
_chemical_formula_sum "Si O2"
_cell_formula_units_Z 52
_cell_length_a 26.657170
_cell_length_b 9.702177
_cell_length_c 9.916470
_cell_angle_alpha 90.000000
_cell_angle_beta 90.000000
_cell_angle_gamma 90.000000
_cell_volume 2564.722237
_symmetry_space_group_name_H-M "C C C M"
_symmetry_group_IT_number 66
_symmetry_cell_setting 'orthorhombic'
loop_
_space_group_symop_operation_xyz
x,y,z
-x,-y,z
x,-y,1/2-z
-x,y,1/2-z
-x,-y,-z
x,y,-z
-x,y,1/2+z
x,-y,1/2+z
1/2+x,1/2+y,z
1/2-x,1/2-y,z
1/2+x,1/2-y,1/2-z
1/2-x,1/2+y,1/2-z
1/2-x,1/2-y,-z
1/2+x,1/2+y,-z
1/2-x,1/2+y,1/2+z
1/2+x,1/2-y,1/2+z
loop_
_atom_site_type_symbol
_atom_site_label
_atom_site_fract_x
_atom_site_fract_y
_atom_site_fract_z
Si Si1 0.903393 0.216438 0.000000
Si Si2 0.421387 0.800621 0.708756
Si Si3 0.666443 0.000000 0.750000
Si Si4 0.555873 0.430733 0.500000
Si Si5 0.702847 0.150753 0.000000
Si Si6 0.500000 0.000000 0.250000
O O1 0.930891 0.275453 0.132102
O O2 0.845498 0.253582 0.000000
O O3 0.904166 0.052141 0.000000
O O4 0.367533 0.875018 0.688029
O O5 0.430230 0.658308 0.631360
O O6 0.464131 0.905352 0.656779
O O7 0.702721 0.945231 0.632525
O O8 0.500000 0.500000 0.500000
O O9 0.750000 0.250000 0.000000
#
# Coordination Sequence:
#
# PCOD8276423 Si02
#       6
#     8  16   8   8   8   4
#     4  10  22  39  57  81 118 155 190 247 302 356
#     4  10  21  36  58  81 116 158 198 244 292 345
#     4   9  20  41  64  86 120 154 203 250 309 366
#     4  12  23  36  54  87 126 160 198 241 293 361
#     4  10  21  43  64  92 119 152 198 261 306 374
#     4  10  20  34  54  82 104 154 204 236 274 334
#
# _framework density 20.275099999999998
#
# number of rings (size 3 to 8) (size 9 to 14) (size 15 to 20)
#    0.000    1.846    0.000    3.692    0.000    6.154 
#   11.077    0.769    0.000    0.000    0.000    0.000 
#    0.000    0.000    0.000    0.000    0.000    0.000 
#
# Total GULP energy -322224.204819 kJ/mol
# GULP energy per Si atom -12393.238647 kJ/mol
# Density = 2.022895 g / cm^3
# Si number density = 20.275100 Si / 1000 Ang^3
#
#
#
# Elastic Constant Matrix: (Units=GPa)
#
#
# Indices 1 2 3 4 5 6 
#
# 1 82.1519 48.0273 60.7767 0.0000 0.0000 0.0000
# 2 48.0273 145.4552 70.8101 0.0000 0.0000 0.0000
# 3 60.7767 70.8101 155.7663 0.0000 0.0000 0.0000
# 4 0.0000 0.0000 0.0000 45.2230 0.0000 0.0000
# 5 0.0000 0.0000 0.0000 0.0000 11.3595 0.0000
# 6 0.0000 0.0000 0.0000 0.0000 0.0000 44.4104
#
#
#
# Elastic Compliance Matrix: (Units=1/GPa)
#
#
# Indices 1 2 3 4 5 6 
#
# 1 0.018260 -0.003289 -0.005630 0.000000 0.000000 0.000000
# 2 -0.003289 0.009421 -0.003000 0.000000 0.000000 0.000000
# 3 -0.005630 -0.003000 0.009980 0.000000 0.000000 0.000000
# 4 0.000000 0.000000 0.000000 0.022113 0.000000 0.000000
# 5 0.000000 0.000000 0.000000 0.000000 0.088032 0.000000
# 6 0.000000 0.000000 0.000000 0.000000 0.000000 0.022517
#
#
# Mechanical properties :
#
#
# Convention : Reuss Voigt Hill
#
# Bulk Modulus (GPa) = 72.33077 82.51127 77.42102
# Shear Modulus (GPa) = 25.15500 33.78253 29.46876
#
# Velocity S-wave (km/s) = 3.52616 4.08635 3.81654
# Velocity P-wave (km/s) = 7.23398 7.94031 7.59536
#
# Compressibility (1/GPa) = 0.01382538
#
# Stress axis : x y z
#
# Youngs Moduli (GPa) = 54.76444 106.14509 100.19971
#
# Poissons Ratio (x) = 0.34907 0.56410
# Poissons Ratio (y) = 0.18010 0.30056
# Poissons Ratio (z) = 0.30831 0.31839
#
# Static dielectric constant tensor:
#      x y z
#    x 3.384050 0.000000 0.000000 
#    y 0.000000 3.923360 0.000000 
#    z 0.000000 0.000000 3.797800 
# 
# 
# High freq. dielectric constant tensor:
#      x y z
#    x 1.764870 0.000000 0.000000 
#    y 0.000000 1.809790 0.000000 
#    z 0.000000 0.000000 1.792540 
# 
# From -- ./inp_files/20317.got.cif
#   From: 2010.03.12/outbox.cif.g09.slc.cpg/sg66_11_cif.got.tgz:20317.got - 2010.04.10 21:57:39.
