data_PCOD8276792
_publ_section_title
;
Structure prediction by ZEFSAII (Michael W. Deem and Ramdas Pophale) SiO2 
 PCOD8276792
Probable space group: C C C M
;
_chemical_formula_sum "Si O2"
_cell_formula_units_Z 72
_cell_length_a 16.327273
_cell_length_b 11.850745
_cell_length_c 19.450205
_cell_angle_alpha 90.000000
_cell_angle_beta 90.000000
_cell_angle_gamma 90.000000
_cell_volume 3763.426951
_symmetry_space_group_name_H-M "C C C M"
_symmetry_group_IT_number 66
_symmetry_cell_setting 'orthorhombic'
loop_
_space_group_symop_operation_xyz
x,y,z
-x,-y,z
x,-y,1/2-z
-x,y,1/2-z
-x,-y,-z
x,y,-z
-x,y,1/2+z
x,-y,1/2+z
1/2+x,1/2+y,z
1/2-x,1/2-y,z
1/2+x,1/2-y,1/2-z
1/2-x,1/2+y,1/2-z
1/2-x,1/2-y,-z
1/2+x,1/2+y,-z
1/2-x,1/2+y,1/2+z
1/2+x,1/2-y,1/2+z
loop_
_atom_site_type_symbol
_atom_site_label
_atom_site_fract_x
_atom_site_fract_y
_atom_site_fract_z
Si Si1 0.149910 0.609899 0.785476
Si Si2 0.343622 0.218935 0.423132
Si Si3 0.079209 0.817349 0.295300
Si Si4 0.806334 0.000000 0.750000
Si Si5 0.492859 0.629513 0.077021
O O1 0.106809 0.500000 0.750000
O O2 0.122786 0.632730 0.864425
O O3 0.128966 0.712825 0.735338
O O4 0.248006 0.588314 0.790762
O O5 0.352979 0.165585 0.500000
O O6 0.250000 0.250000 0.408244
O O7 0.398117 0.332215 0.417717
O O8 0.137056 0.926802 0.300169
O O9 0.000000 0.845226 0.250000
O O10 0.049096 0.793615 0.373058
O O11 0.500000 0.500000 0.100475
O O12 0.526824 0.645777 0.000000
#
# Coordination Sequence:
#
# PCOD8276792 Si02
#       5
#    16  16  16   8  16
#     4  10  24  39  59  86 125 157 204 249 298 360
#     4  10  20  38  60  86 122 163 204 246 303 367
#     4  12  21  37  62  90 117 153 203 250 309 352
#     4  10  23  38  61  86 116 154 204 254 297 358
#     4  10  22  37  57  91 125 156 201 259 308 356
#
# _framework density 19.131499000000002
#
# number of rings (size 3 to 8) (size 9 to 14) (size 15 to 20)
#    0.667    0.889    2.222    3.667    3.111    0.444 
#    0.000    1.111    0.000    4.000    0.000    0.000 
#    0.000    0.000    0.000    0.000    0.000    0.000 
#
# Total GULP energy -446008.120212 kJ/mol
# GULP energy per Si atom -12389.114450 kJ/mol
# Density = 1.908795 g / cm^3
# Si number density = 19.131499 Si / 1000 Ang^3
#
#
#
# Elastic Constant Matrix: (Units=GPa)
#
#
# Indices 1 2 3 4 5 6 
#
# 1 92.3470 54.3529 39.0384 0.0000 0.0000 0.0000
# 2 54.3529 98.0374 71.5117 0.0000 0.0000 0.0000
# 3 39.0384 71.5117 161.8407 0.0000 0.0000 0.0000
# 4 0.0000 0.0000 0.0000 27.1181 0.0000 0.0000
# 5 0.0000 0.0000 0.0000 0.0000 25.2363 0.0000
# 6 0.0000 0.0000 0.0000 0.0000 0.0000 37.3762
#
#
#
# Elastic Compliance Matrix: (Units=1/GPa)
#
#
# Indices 1 2 3 4 5 6 
#
# 1 0.016075 -0.008977 0.000089 0.000000 0.000000 0.000000
# 2 -0.008977 0.020065 -0.006700 0.000000 0.000000 0.000000
# 3 0.000089 -0.006700 0.009118 0.000000 0.000000 0.000000
# 4 0.000000 0.000000 0.000000 0.036876 0.000000 0.000000
# 5 0.000000 0.000000 0.000000 0.000000 0.039626 0.000000
# 6 0.000000 0.000000 0.000000 0.000000 0.000000 0.026755
#
#
# Mechanical properties :
#
#
# Convention : Reuss Voigt Hill
#
# Bulk Modulus (GPa) = 71.01861 75.78127 73.39994
# Shear Modulus (GPa) = 27.11733 30.43424 28.77578
#
# Velocity S-wave (km/s) = 3.76895 3.99280 3.88249
# Velocity P-wave (km/s) = 7.49278 7.80726 7.65164
#
# Compressibility (1/GPa) = 0.01408082
#
# Stress axis : x y z
#
# Youngs Moduli (GPa) = 62.20980 49.83882 109.67176
#
# Poissons Ratio (x) = 0.44740 -0.00978
# Poissons Ratio (y) = 0.55846 0.73485
# Poissons Ratio (z) = -0.00555 0.33394
#
# Static dielectric constant tensor:
#      x y z
#    x 3.527940 0.000000 0.000000 
#    y 0.000000 3.388760 0.000000 
#    z 0.000000 0.000000 3.687550 
# 
# 
# High freq. dielectric constant tensor:
#      x y z
#    x 1.741550 0.000000 0.000000 
#    y 0.000000 1.725730 0.000000 
#    z 0.000000 0.000000 1.748610 
# 
# From -- ./inp_files/51723.got.cif
#   From: 2010.03.12/outbox.cif.g09.slc.cpg/sg66_26_cif.got.tgz:51723.got - 2010.04.10 21:57:39.
