data_PCOD8276972
_publ_section_title
;
Structure prediction by ZEFSAII (Michael W. Deem and Ramdas Pophale) SiO2 
 PCOD8276972
Probable space group: C C C M
;
_chemical_formula_sum "Si O2"
_cell_formula_units_Z 116
_cell_length_a 11.545014
_cell_length_b 25.925851
_cell_length_c 17.697542
_cell_angle_alpha 90.000000
_cell_angle_beta 90.000000
_cell_angle_gamma 90.000000
_cell_volume 5297.127621
_symmetry_space_group_name_H-M "C C C M"
_symmetry_group_IT_number 66
_symmetry_cell_setting 'orthorhombic'
loop_
_space_group_symop_operation_xyz
x,y,z
-x,-y,z
x,-y,1/2-z
-x,y,1/2-z
-x,-y,-z
x,y,-z
-x,y,1/2+z
x,-y,1/2+z
1/2+x,1/2+y,z
1/2-x,1/2-y,z
1/2+x,1/2-y,1/2-z
1/2-x,1/2+y,1/2-z
1/2-x,1/2-y,-z
1/2+x,1/2+y,-z
1/2-x,1/2+y,1/2+z
1/2+x,1/2-y,1/2+z
loop_
_atom_site_type_symbol
_atom_site_label
_atom_site_fract_x
_atom_site_fract_y
_atom_site_fract_z
Si Si1 0.521796 0.190853 0.333599
Si Si2 0.507774 0.709336 0.088740
Si Si3 0.253479 0.066969 0.918327
Si Si4 0.282023 0.334600 0.832125
Si Si5 0.606556 0.627920 0.692730
Si Si6 0.245516 0.050047 0.412402
Si Si7 0.500000 0.000000 0.750000
Si Si8 0.002957 0.422563 0.870804
O O1 0.500000 0.212291 0.250000
O O2 0.465536 0.232433 0.391205
O O3 0.656877 0.186367 0.350514
O O4 0.465910 0.134443 0.343071
O O5 0.634868 0.704803 0.124878
O O6 0.429358 0.665512 0.125398
O O7 0.507669 0.700993 0.000000
O O8 0.197061 0.106653 0.860090
O O9 0.392079 0.077522 0.929689
O O10 0.217366 0.009351 0.895164
O O11 0.198497 0.078771 0.000000
O O12 0.303192 0.338504 0.742252
O O13 0.500000 0.611847 0.750000
O O14 0.670534 0.580697 0.650128
O O15 0.215660 0.064951 0.500000
O O16 0.384325 0.054349 0.402303
O O17 0.563505 0.958830 0.805090
#
# Coordination Sequence:
#
# PCOD8276972 Si02
#       8
#    16  16  16  16  16  16   4  16
#     4  11  22  37  61  92 122 156 194 249 302 362
#     4  11  24  43  62  83 117 157 204 259 309 359
#     4  10  21  36  58  93 131 160 195 249 307 365
#     4  10  22  39  65  89 115 156 204 255 306 365
#     4  10  23  43  63  86 117 160 211 263 310 358
#     4  11  22  38  62  89 126 168 203 245 310 377
#     4  12  20  36  58  96 134 176 194 248 282 348
#     4  11  22  35  62  94 134 163 203 241 297 364
#
# _framework density 21.898661000000001
#
# number of rings (size 3 to 8) (size 9 to 14) (size 15 to 20)
#    0.000    1.379    2.069    3.724    1.931    5.517 
#    0.000    6.897    0.000   11.586    0.000    0.000 
#    0.000    0.000    0.000    0.000    0.000    0.000 
#
# Total GULP energy -718535.928357 kJ/mol
# GULP energy per Si atom -12388.550489 kJ/mol
# Density = 2.184882 g / cm^3
# Si number density = 21.898661 Si / 1000 Ang^3
#
#
#
# Elastic Constant Matrix: (Units=GPa)
#
#
# Indices 1 2 3 4 5 6 
#
# 1 20.5893 16.2053 7.6494 0.0000 0.0000 0.0000
# 2 16.2053 121.9983 55.3451 0.0000 0.0000 0.0000
# 3 7.6494 55.3451 140.6236 0.0000 0.0000 0.0000
# 4 0.0000 0.0000 0.0000 33.2715 0.0000 0.0000
# 5 0.0000 0.0000 0.0000 0.0000 18.5210 0.0000
# 6 0.0000 0.0000 0.0000 0.0000 0.0000 26.1576
#
#
#
# Elastic Compliance Matrix: (Units=1/GPa)
#
#
# Indices 1 2 3 4 5 6 
#
# 1 0.054242 -0.007142 -0.000140 0.000000 0.000000 0.000000
# 2 -0.007142 0.010919 -0.003909 0.000000 0.000000 0.000000
# 3 -0.000140 -0.003909 0.008657 0.000000 0.000000 0.000000
# 4 0.000000 0.000000 0.000000 0.030056 0.000000 0.000000
# 5 0.000000 0.000000 0.000000 0.000000 0.053993 0.000000
# 6 0.000000 0.000000 0.000000 0.000000 0.000000 0.038230
#
#
# Mechanical properties :
#
#
# Convention : Reuss Voigt Hill
#
# Bulk Modulus (GPa) = 19.44115 49.06789 34.25452
# Shear Modulus (GPa) = 21.22039 29.19078 25.20558
#
# Velocity S-wave (km/s) = 3.11630 3.65498 3.39633
# Velocity P-wave (km/s) = 4.67391 6.34565 5.57282
#
# Compressibility (1/GPa) = 0.05143730
#
# Stress axis : x y z
#
# Youngs Moduli (GPa) = 18.43590 91.58577 115.51118
#
# Poissons Ratio (x) = 0.65407 0.01615
# Poissons Ratio (y) = 0.13166 0.45151
# Poissons Ratio (z) = 0.00258 0.35799
#
# Static dielectric constant tensor:
#      x y z
#    x 3.694480 0.000000 0.000000 
#    y 0.000000 4.137130 0.000000 
#    z 0.000000 0.000000 4.061540 
# 
# 
# High freq. dielectric constant tensor:
#      x y z
#    x 1.833130 0.000000 0.000000 
#    y 0.000000 1.875490 0.000000 
#    z 0.000000 0.000000 1.868430 
# 
# From -- ./inp_files/39109.got.cif
#   From: 2010.03.12/outbox.cif.g09.slc.cpg/sg66_20_cif.got.tgz:39109.got - 2010.04.10 21:57:39.
