data_PCOD8276903
_publ_section_title
;
Structure prediction by ZEFSAII (Michael W. Deem and Ramdas Pophale) SiO2 
 PCOD8276903
Probable space group: C C C M
;
_chemical_formula_sum "Si O2"
_cell_formula_units_Z 112
_cell_length_a 29.009701
_cell_length_b 13.707355
_cell_length_c 14.186279
_cell_angle_alpha 90.000000
_cell_angle_beta 90.000000
_cell_angle_gamma 90.000000
_cell_volume 5641.120930
_symmetry_space_group_name_H-M "C C C M"
_symmetry_group_IT_number 66
_symmetry_cell_setting 'orthorhombic'
loop_
_space_group_symop_operation_xyz
x,y,z
-x,-y,z
x,-y,1/2-z
-x,y,1/2-z
-x,-y,-z
x,y,-z
-x,y,1/2+z
x,-y,1/2+z
1/2+x,1/2+y,z
1/2-x,1/2-y,z
1/2+x,1/2-y,1/2-z
1/2-x,1/2+y,1/2-z
1/2-x,1/2-y,-z
1/2+x,1/2+y,-z
1/2-x,1/2+y,1/2+z
1/2+x,1/2-y,1/2+z
loop_
_atom_site_type_symbol
_atom_site_label
_atom_site_fract_x
_atom_site_fract_y
_atom_site_fract_z
Si Si1 0.447785 0.335980 0.751546
Si Si2 0.422142 0.502659 0.108119
Si Si3 0.642637 0.998390 0.111382
Si Si4 0.174360 0.928873 0.397380
Si Si5 0.256485 0.070818 0.605625
Si Si6 0.876262 0.660628 0.258700
Si Si7 0.293870 0.289951 0.750055
O O1 0.500000 0.297806 0.750000
O O2 0.439883 0.403248 0.843431
O O3 0.440404 0.400575 0.658015
O O4 0.415965 0.240745 0.751644
O O5 0.366569 0.506791 0.116727
O O6 0.438969 0.502914 0.000000
O O7 0.630493 0.894291 0.158348
O O8 0.694761 0.027984 0.139261
O O9 0.610798 0.082811 0.159025
O O10 0.633640 0.991649 0.000000
O O11 0.168594 0.878409 0.500000
O O12 0.171077 0.850011 0.315112
O O13 0.223404 0.978303 0.388804
O O14 0.260381 0.112419 0.500000
O O15 0.233206 0.154284 0.667470
O O16 0.827415 0.707738 0.292273
O O17 0.250000 0.250000 0.811155
#
# Coordination Sequence:
#
# PCOD8276903 Si02
#       7
#    16  16  16  16  16  16  16
#     4  11  24  41  64  94 125 156 196 251 311 374
#     4  10  21  40  63  92 130 165 196 237 297 370
#     4  10  23  43  62  83 119 164 212 259 305 355
#     4  10  21  34  53  82 119 160 196 233 278 340
#     4  10  21  35  53  82 120 161 200 239 289 349
#     4  11  23  40  61  91 118 159 205 254 309 361
#     4  12  21  32  58  85 120 156 196 243 296 351
#
# _framework density 19.854209999999998
#
# number of rings (size 3 to 8) (size 9 to 14) (size 15 to 20)
#    0.000    1.429    2.857    3.000    4.000    4.000 
#    0.000    1.429    0.000    0.857    0.000    0.000 
#    0.000    0.000    0.000    0.000    0.000    0.000 
#
# Total GULP energy -694113.060604 kJ/mol
# GULP energy per Si atom -12394.876082 kJ/mol
# Density = 1.980902 g / cm^3
# Si number density = 19.854210 Si / 1000 Ang^3
#
#
#
# Elastic Constant Matrix: (Units=GPa)
#
#
# Indices 1 2 3 4 5 6 
#
# 1 110.8727 60.1278 39.6028 0.0000 0.0000 0.0000
# 2 60.1278 116.7884 60.0460 0.0000 0.0000 0.0000
# 3 39.6028 60.0460 135.8809 0.0000 0.0000 0.0000
# 4 0.0000 0.0000 0.0000 36.4631 0.0000 0.0000
# 5 0.0000 0.0000 0.0000 0.0000 146.4154 0.0000
# 6 0.0000 0.0000 0.0000 0.0000 0.0000 23.4495
#
#
#
# Elastic Compliance Matrix: (Units=1/GPa)
#
#
# Indices 1 2 3 4 5 6 
#
# 1 0.012627 -0.005964 -0.001045 0.000000 0.000000 0.000000
# 2 -0.005964 0.013896 -0.004403 0.000000 0.000000 0.000000
# 3 -0.001045 -0.004403 0.009609 0.000000 0.000000 0.000000
# 4 0.000000 0.000000 0.000000 0.027425 0.000000 0.000000
# 5 0.000000 0.000000 0.000000 0.000000 0.006830 0.000000
# 6 0.000000 0.000000 0.000000 0.000000 0.000000 0.042645
#
#
# Mechanical properties :
#
#
# Convention : Reuss Voigt Hill
#
# Bulk Modulus (GPa) = 75.12939 75.89947 75.51443
# Shear Modulus (GPa) = 35.64010 54.84995 45.24502
#
# Velocity S-wave (km/s) = 4.24145 5.26178 4.77892
# Velocity P-wave (km/s) = 7.86824 8.67332 8.28057
#
# Compressibility (1/GPa) = 0.01331037
#
# Stress axis : x y z
#
# Youngs Moduli (GPa) = 79.19737 71.96066 104.06406
#
# Poissons Ratio (x) = 0.42915 0.10872
# Poissons Ratio (y) = 0.47230 0.45817
# Poissons Ratio (z) = 0.08274 0.31683
#
# Static dielectric constant tensor:
#      x y z
#    x 3.635280 0.000000 0.000000 
#    y 0.000000 3.599670 0.000000 
#    z 0.000000 0.000000 3.745320 
# 
# 
# High freq. dielectric constant tensor:
#      x y z
#    x 1.763530 0.000000 0.000000 
#    y 0.000000 1.769470 0.000000 
#    z 0.000000 0.000000 1.776990 
# 
# From -- ./inp_files/33811.got.cif
#   From: 2010.03.12/outbox.cif.g09.slc.cpg/sg66_17_cif.got.tgz:33811.got - 2010.04.10 21:57:39.
