data_PCOD8276970
_publ_section_title
;
Structure prediction by ZEFSAII (Michael W. Deem and Ramdas Pophale) SiO2 
 PCOD8276970
Probable space group: C C C M
;
_chemical_formula_sum "Si O2"
_cell_formula_units_Z 52
_cell_length_a 19.334387
_cell_length_b 15.234554
_cell_length_c 9.099548
_cell_angle_alpha 90.000000
_cell_angle_beta 90.000000
_cell_angle_gamma 90.000000
_cell_volume 2680.278805
_symmetry_space_group_name_H-M "C C C M"
_symmetry_group_IT_number 66
_symmetry_cell_setting 'orthorhombic'
loop_
_space_group_symop_operation_xyz
x,y,z
-x,-y,z
x,-y,1/2-z
-x,y,1/2-z
-x,-y,-z
x,y,-z
-x,y,1/2+z
x,-y,1/2+z
1/2+x,1/2+y,z
1/2-x,1/2-y,z
1/2+x,1/2-y,1/2-z
1/2-x,1/2+y,1/2-z
1/2-x,1/2-y,-z
1/2+x,1/2+y,-z
1/2-x,1/2+y,1/2+z
1/2+x,1/2-y,1/2+z
loop_
_atom_site_type_symbol
_atom_site_label
_atom_site_fract_x
_atom_site_fract_y
_atom_site_fract_z
Si Si1 0.500000 0.000000 0.750000
Si Si2 0.329343 0.249123 0.170773
Si Si3 0.928611 0.908690 0.174931
Si Si4 0.130877 0.419679 0.338691
O O1 0.450999 0.059817 0.646981
O O2 0.250000 0.250000 0.221932
O O3 0.367469 0.340061 0.209359
O O4 0.365719 0.171641 0.256401
O O5 0.335546 0.227469 0.000000
O O6 0.000000 0.875886 0.250000
O O7 0.906028 0.000000 0.250000
O O8 0.939564 0.920747 0.000000
O O9 0.168269 0.500000 0.250000
O O10 0.164594 0.413027 0.500000
#
# Coordination Sequence:
#
# PCOD8276970 Si02
#       4
#     4  16  16  16
#     4   8  22  36  58  88 120 148 188 236 294 344
#     4  10  23  41  59  84 120 158 195 237 291 348
#     4  10  21  38  61  86 113 148 192 243 290 339
#     4  10  21  36  58  86 118 153 192 235 286 346
#
# _framework density 19.400967000000001
#
# number of rings (size 3 to 8) (size 9 to 14) (size 15 to 20)
#    0.923    1.231    0.000    3.231    2.154    4.308 
#    0.000    3.077    0.000    0.000    0.000    0.000 
#    0.000    0.000    0.000    0.000    0.000    0.000 
#
# Total GULP energy -322204.507284 kJ/mol
# GULP energy per Si atom -12392.481049 kJ/mol
# Density = 1.935681 g / cm^3
# Si number density = 19.400967 Si / 1000 Ang^3
#
#
#
# Elastic Constant Matrix: (Units=GPa)
#
#
# Indices 1 2 3 4 5 6 
#
# 1 115.5305 72.6825 43.9551 0.0000 0.0000 0.0000
# 2 72.6825 146.8335 68.4593 0.0000 0.0000 0.0000
# 3 43.9551 68.4593 93.4807 0.0000 0.0000 0.0000
# 4 0.0000 0.0000 0.0000 19.3352 0.0000 0.0000
# 5 0.0000 0.0000 0.0000 0.0000 10.9627 0.0000
# 6 0.0000 0.0000 0.0000 0.0000 0.0000 19.1857
#
#
#
# Elastic Compliance Matrix: (Units=1/GPa)
#
#
# Indices 1 2 3 4 5 6 
#
# 1 0.012836 -0.005375 -0.002099 0.000000 0.000000 0.000000
# 2 -0.005375 0.012592 -0.006694 0.000000 0.000000 0.000000
# 3 -0.002099 -0.006694 0.016587 0.000000 0.000000 0.000000
# 4 0.000000 0.000000 0.000000 0.051719 0.000000 0.000000
# 5 0.000000 0.000000 0.000000 0.000000 0.091219 0.000000
# 6 0.000000 0.000000 0.000000 0.000000 0.000000 0.052122
#
#
# Mechanical properties :
#
#
# Convention : Reuss Voigt Hill
#
# Bulk Modulus (GPa) = 73.11046 80.67096 76.89071
# Shear Modulus (GPa) = 18.52043 21.27987 19.90015
#
# Velocity S-wave (km/s) = 3.09303 3.31546 3.20618
# Velocity P-wave (km/s) = 7.10785 7.50517 7.30921
#
# Compressibility (1/GPa) = 0.01367793
#
# Stress axis : x y z
#
# Youngs Moduli (GPa) = 77.90620 79.41372 60.28824
#
# Poissons Ratio (x) = 0.42686 0.12655
# Poissons Ratio (y) = 0.41875 0.40359
# Poissons Ratio (z) = 0.16354 0.53163
#
# Static dielectric constant tensor:
#      x y z
#    x 3.448590 0.000000 0.000000 
#    y 0.000000 3.489940 0.000000 
#    z 0.000000 0.000000 3.535030 
# 
# 
# High freq. dielectric constant tensor:
#      x y z
#    x 1.738480 0.000000 0.000000 
#    y 0.000000 1.759770 0.000000 
#    z 0.000000 0.000000 1.760920 
# 
# From -- ./inp_files/7271.got.cif
#   From: 2010.03.12/outbox.cif.g09.slc.cpg/sg66_4_cif.got.tgz:7271.got - 2010.04.10 21:57:39.
