data_PCOD8276388
_publ_section_title
;
Structure prediction by ZEFSAII (Michael W. Deem and Ramdas Pophale) SiO2 
 PCOD8276388
Probable space group: C C C M
;
_chemical_formula_sum "Si O2"
_cell_formula_units_Z 96
_cell_length_a 13.058280
_cell_length_b 26.427980
_cell_length_c 15.505145
_cell_angle_alpha 90.000000
_cell_angle_beta 90.000000
_cell_angle_gamma 90.000000
_cell_volume 5350.886981
_symmetry_space_group_name_H-M "C C C M"
_symmetry_group_IT_number 66
_symmetry_cell_setting 'orthorhombic'
loop_
_space_group_symop_operation_xyz
x,y,z
-x,-y,z
x,-y,1/2-z
-x,y,1/2-z
-x,-y,-z
x,y,-z
-x,y,1/2+z
x,-y,1/2+z
1/2+x,1/2+y,z
1/2-x,1/2-y,z
1/2+x,1/2-y,1/2-z
1/2-x,1/2+y,1/2-z
1/2-x,1/2-y,-z
1/2+x,1/2+y,-z
1/2-x,1/2+y,1/2+z
1/2+x,1/2-y,1/2+z
loop_
_atom_site_type_symbol
_atom_site_label
_atom_site_fract_x
_atom_site_fract_y
_atom_site_fract_z
Si Si1 0.067904 0.623972 0.333919
Si Si2 0.727255 0.806675 0.248273
Si Si3 0.274174 0.558976 0.097424
Si Si4 0.879848 0.105043 0.253622
Si Si5 0.632574 0.151008 0.906379
Si Si6 0.744694 0.942240 0.099763
O O1 0.147481 0.669286 0.318252
O O2 0.133969 0.576750 0.367484
O O3 0.000000 0.609305 0.250000
O O4 0.989902 0.644269 0.405718
O O5 0.750000 0.750000 0.218193
O O6 0.831021 0.839195 0.252845
O O7 0.673040 0.806228 0.341716
O O8 0.358640 0.570839 0.169351
O O9 0.179195 0.596046 0.116934
O O10 0.236009 0.502181 0.108716
O O11 0.317616 0.567458 0.000000
O O12 0.837802 0.078245 0.340714
O O13 0.000000 0.112665 0.250000
O O14 0.667092 0.169571 0.000000
O O15 0.764865 0.926066 0.000000
#
# Coordination Sequence:
#
# PCOD8276388 Si02
#       6
#    16  16  16  16  16  16
#     4   9  18  32  51  75 101 132 165 203 251 304
#     4   9  19  35  53  71  95 128 165 207 256 305
#     4   9  19  34  51  75 106 138 171 208 248 295
#     4  10  21  35  52  74 101 135 175 217 255 295
#     4   9  17  31  51  75 101 125 156 202 252 301
#     4  10  20  34  52  76 108 142 173 205 248 301
#
# _framework density 17.940950999999998
#
# number of rings (size 3 to 8) (size 9 to 14) (size 15 to 20)
#    0.000    2.667    0.000    2.000    0.000    5.000 
#    0.000    8.333    0.000   16.500    0.000    0.000 
#    0.000    0.000    0.000    0.000    0.000    0.000 
#
# Total GULP energy -594959.727658 kJ/mol
# GULP energy per Si atom -12394.994326 kJ/mol
# Density = 1.790012 g / cm^3
# Si number density = 17.940951 Si / 1000 Ang^3
#
#
#
# Elastic Constant Matrix: (Units=GPa)
#
#
# Indices 1 2 3 4 5 6 
#
# 1 123.4170 32.5004 38.7218 0.0000 0.0000 0.0000
# 2 32.5004 92.7887 36.4650 0.0000 0.0000 0.0000
# 3 38.7218 36.4650 93.4858 0.0000 0.0000 0.0000
# 4 0.0000 0.0000 0.0000 18.7330 0.0000 0.0000
# 5 0.0000 0.0000 0.0000 0.0000 16.2334 0.0000
# 6 0.0000 0.0000 0.0000 0.0000 0.0000 11.7384
#
#
#
# Elastic Compliance Matrix: (Units=1/GPa)
#
#
# Indices 1 2 3 4 5 6 
#
# 1 0.009659 -0.002139 -0.003167 0.000000 0.000000 0.000000
# 2 -0.002139 0.013202 -0.004264 0.000000 0.000000 0.000000
# 3 -0.003167 -0.004264 0.013671 0.000000 0.000000 0.000000
# 4 0.000000 0.000000 0.000000 0.053382 0.000000 0.000000
# 5 0.000000 0.000000 0.000000 0.000000 0.061601 0.000000
# 6 0.000000 0.000000 0.000000 0.000000 0.000000 0.085190
#
#
# Mechanical properties :
#
#
# Convention : Reuss Voigt Hill
#
# Bulk Modulus (GPa) = 57.48925 58.34067 57.91496
# Shear Modulus (GPa) = 19.11005 22.80793 20.95899
#
# Velocity S-wave (km/s) = 3.26723 3.56937 3.42163
# Velocity P-wave (km/s) = 6.80780 7.04102 6.92539
#
# Compressibility (1/GPa) = 0.01739456
#
# Stress axis : x y z
#
# Youngs Moduli (GPa) = 103.52628 75.74672 73.14491
#
# Poissons Ratio (x) = 0.16201 0.23162
# Poissons Ratio (y) = 0.22143 0.31186
# Poissons Ratio (z) = 0.32783 0.32295
#
# Static dielectric constant tensor:
#      x y z
#    x 3.236170 0.000000 0.000000 
#    y 0.000000 3.069470 0.000000 
#    z 0.000000 0.000000 3.597410 
# 
# 
# High freq. dielectric constant tensor:
#      x y z
#    x 1.688640 0.000000 0.000000 
#    y 0.000000 1.676010 0.000000 
#    z 0.000000 0.000000 1.705270 
# 
# From -- ./inp_files/38858.got.cif
#   From: 2010.03.12/outbox.cif.g09.slc.cpg/sg66_20_cif.got.tgz:38858.got - 2010.04.10 21:57:39.
