data_PCOD8276854
_publ_section_title
;
Structure prediction by ZEFSAII (Michael W. Deem and Ramdas Pophale) SiO2 
 PCOD8276854
Probable space group: C C C M
;
_chemical_formula_sum "Si O2"
_cell_formula_units_Z 84
_cell_length_a 5.948236
_cell_length_b 25.922178
_cell_length_c 23.831907
_cell_angle_alpha 90.000000
_cell_angle_beta 90.000000
_cell_angle_gamma 90.000000
_cell_volume 3674.671110
_symmetry_space_group_name_H-M "C C C M"
_symmetry_group_IT_number 66
_symmetry_cell_setting 'orthorhombic'
loop_
_space_group_symop_operation_xyz
x,y,z
-x,-y,z
x,-y,1/2-z
-x,y,1/2-z
-x,-y,-z
x,y,-z
-x,y,1/2+z
x,-y,1/2+z
1/2+x,1/2+y,z
1/2-x,1/2-y,z
1/2+x,1/2-y,1/2-z
1/2-x,1/2+y,1/2-z
1/2-x,1/2-y,-z
1/2+x,1/2+y,-z
1/2-x,1/2+y,1/2+z
1/2+x,1/2-y,1/2+z
loop_
_atom_site_type_symbol
_atom_site_label
_atom_site_fract_x
_atom_site_fract_y
_atom_site_fract_z
Si Si1 0.868807 0.870380 0.632882
Si Si2 0.813789 0.956310 0.156053
Si Si3 0.516819 0.091048 0.436976
Si Si4 0.075586 0.293592 0.687395
Si Si5 0.000000 0.500000 0.250000
Si Si6 0.754766 0.805381 0.089925
O O1 0.733356 0.906324 0.588959
O O2 0.697013 0.848770 0.679172
O O3 0.054878 0.903012 0.666425
O O4 0.989202 0.824294 0.598461
O O5 0.663492 0.948960 0.100062
O O6 0.657900 0.965299 0.210300
O O7 0.000000 0.000000 0.146871
O O8 0.504702 0.068913 0.500000
O O9 0.616925 0.149208 0.440445
O O10 0.250000 0.250000 0.668476
O O11 0.000000 0.284988 0.750000
O O12 0.854395 0.292385 0.649928
O O13 0.750000 0.750000 0.056492
#
# Coordination Sequence:
#
# PCOD8276854 Si02
#       6
#    16  16  16  16   4  16
#     4  10  23  44  64  97 138 179 226 283 347 407
#     4  11  25  50  74 102 136 178 224 284 348 419
#     4  10  24  45  70 104 138 176 232 287 343 410
#     4  11  22  37  59  95 137 184 233 282 338 409
#     4  12  26  52  74 102 140 172 230 278 348 414
#     4  10  20  40  63  91 138 184 232 280 336 404
#
# _framework density 22.859188
#
# number of rings (size 3 to 8) (size 9 to 14) (size 15 to 20)
#    0.000    1.524    1.905    2.000    0.000    3.810 
#   41.143    4.286    0.000    0.000    0.000    0.000 
#    0.000    0.000    0.000    0.000    0.000    0.000 
#
# Total GULP energy -520670.130002 kJ/mol
# GULP energy per Si atom -12396.907857 kJ/mol
# Density = 2.280716 g / cm^3
# Si number density = 22.859188 Si / 1000 Ang^3
#
#
#
# Elastic Constant Matrix: (Units=GPa)
#
#
# Indices 1 2 3 4 5 6 
#
# 1 138.2291 43.9101 51.2904 0.0000 0.0000 0.0000
# 2 43.9101 92.2923 37.3882 0.0000 0.0000 0.0000
# 3 51.2904 37.3882 132.1166 0.0000 0.0000 0.0000
# 4 0.0000 0.0000 0.0000 12.7444 0.0000 0.0000
# 5 0.0000 0.0000 0.0000 0.0000 7.2454 0.0000
# 6 0.0000 0.0000 0.0000 0.0000 0.0000 49.3689
#
#
#
# Elastic Compliance Matrix: (Units=1/GPa)
#
#
# Indices 1 2 3 4 5 6 
#
# 1 0.009281 -0.003339 -0.002658 0.000000 0.000000 0.000000
# 2 -0.003339 0.013439 -0.002507 0.000000 0.000000 0.000000
# 3 -0.002658 -0.002507 0.009311 0.000000 0.000000 0.000000
# 4 0.000000 0.000000 0.000000 0.078466 0.000000 0.000000
# 5 0.000000 0.000000 0.000000 0.000000 0.138018 0.000000
# 6 0.000000 0.000000 0.000000 0.000000 0.000000 0.020256
#
#
# Mechanical properties :
#
#
# Convention : Reuss Voigt Hill
#
# Bulk Modulus (GPa) = 66.56575 69.75727 68.16151
# Shear Modulus (GPa) = 17.19471 29.20838 23.20155
#
# Velocity S-wave (km/s) = 2.74560 3.57844 3.18933
# Velocity P-wave (km/s) = 6.26373 6.90333 6.59129
#
# Compressibility (1/GPa) = 0.01502274
#
# Stress axis : x y z
#
# Youngs Moduli (GPa) = 107.74240 74.40854 107.40495
#
# Poissons Ratio (x) = 0.24844 0.28552
# Poissons Ratio (y) = 0.35974 0.26927
# Poissons Ratio (z) = 0.28641 0.18654
#
# Static dielectric constant tensor:
#      x y z
#    x 4.441190 0.000000 0.000000 
#    y 0.000000 4.301120 0.000000 
#    z 0.000000 0.000000 3.696770 
# 
# 
# High freq. dielectric constant tensor:
#      x y z
#    x 1.921470 0.000000 0.000000 
#    y 0.000000 1.910090 0.000000 
#    z 0.000000 0.000000 1.871130 
# 
# From -- ./inp_files/54435.got.cif
#   From: 2010.03.12/outbox.cif.g09.slc.cpg/sg66_28_cif.got.tgz:54435.got - 2010.04.10 21:57:39.
