data_PCOD8276947
_publ_section_title
;
Structure prediction by ZEFSAII (Michael W. Deem and Ramdas Pophale) SiO2 
 PCOD8276947
Probable space group: C C C M
;
_chemical_formula_sum "Si O2"
_cell_formula_units_Z 96
_cell_length_a 21.805573
_cell_length_b 16.366133
_cell_length_c 15.507314
_cell_angle_alpha 90.000000
_cell_angle_beta 90.000000
_cell_angle_gamma 90.000000
_cell_volume 5534.140240
_symmetry_space_group_name_H-M "C C C M"
_symmetry_group_IT_number 66
_symmetry_cell_setting 'orthorhombic'
loop_
_space_group_symop_operation_xyz
x,y,z
-x,-y,z
x,-y,1/2-z
-x,y,1/2-z
-x,-y,-z
x,y,-z
-x,y,1/2+z
x,-y,1/2+z
1/2+x,1/2+y,z
1/2-x,1/2-y,z
1/2+x,1/2-y,1/2-z
1/2-x,1/2+y,1/2-z
1/2-x,1/2-y,-z
1/2+x,1/2+y,-z
1/2-x,1/2+y,1/2+z
1/2+x,1/2-y,1/2+z
loop_
_atom_site_type_symbol
_atom_site_label
_atom_site_fract_x
_atom_site_fract_y
_atom_site_fract_z
Si Si1 0.293662 0.817239 0.600046
Si Si2 0.760523 0.112829 0.000000
Si Si3 0.400509 0.993168 0.901891
Si Si4 0.925414 0.336866 0.333106
Si Si5 0.268871 0.998557 0.651878
Si Si6 0.351211 0.763364 0.000000
Si Si7 0.057481 0.322441 0.634882
O O1 0.291487 0.803167 0.500000
O O2 0.250000 0.750000 0.645854
O O3 0.363575 0.801360 0.627344
O O4 0.266917 0.905348 0.622068
O O5 0.694228 0.158200 0.000000
O O6 0.814437 0.179095 0.000000
O O7 0.768777 0.056877 0.085871
O O8 0.443113 0.913924 0.904079
O O9 0.433352 0.066913 0.852433
O O10 0.338612 0.969669 0.850712
O O11 0.384175 0.020854 0.000000
O O12 0.920002 0.323038 0.232093
O O13 0.986455 0.292120 0.370970
O O14 0.243097 0.000000 0.750000
O O15 0.395872 0.764898 0.082822
#
# Coordination Sequence:
#
# PCOD8276947 Si02
#       7
#    16   8  16  16  16   8  16
#     4  10  21  36  55  80 105 135 176 226 271 316
#     4  11  22  40  50  83 110 145 190 220 262 329
#     4  11  18  29  48  73 105 146 185 218 256 310
#     4  10  22  31  51  73 106 138 182 222 261 319
#     4  11  19  34  56  75 109 147 179 222 267 311
#     4  11  24  34  56  72 116 150 177 220 264 316
#     4  11  20  35  46  75 105 145 182 216 258 315
#
# _framework density 17.346869000000002
#
# number of rings (size 3 to 8) (size 9 to 14) (size 15 to 20)
#    0.000    1.333    4.167    4.500    2.333    3.333 
#    0.000    0.000    0.000    0.000    0.000    2.333 
#    0.000    4.000    0.000    0.000    0.000    0.000 
#
# Total GULP energy -594965.007332 kJ/mol
# GULP energy per Si atom -12395.104319 kJ/mol
# Density = 1.730739 g / cm^3
# Si number density = 17.346869 Si / 1000 Ang^3
#
#
#
# Elastic Constant Matrix: (Units=GPa)
#
#
# Indices 1 2 3 4 5 6 
#
# 1 98.4943 62.7705 47.7509 0.0000 0.0000 0.0000
# 2 62.7705 79.2093 40.9455 0.0000 0.0000 0.0000
# 3 47.7509 40.9455 121.1973 0.0000 0.0000 0.0000
# 4 0.0000 0.0000 0.0000 15.5919 0.0000 0.0000
# 5 0.0000 0.0000 0.0000 0.0000 23.3295 0.0000
# 6 0.0000 0.0000 0.0000 0.0000 0.0000 23.8759
#
#
#
# Elastic Compliance Matrix: (Units=1/GPa)
#
#
# Indices 1 2 3 4 5 6 
#
# 1 0.021547 -0.015371 -0.003296 0.000000 0.000000 0.000000
# 2 -0.015371 0.026262 -0.002816 0.000000 0.000000 0.000000
# 3 -0.003296 -0.002816 0.010501 0.000000 0.000000 0.000000
# 4 0.000000 0.000000 0.000000 0.064136 0.000000 0.000000
# 5 0.000000 0.000000 0.000000 0.000000 0.042864 0.000000
# 6 0.000000 0.000000 0.000000 0.000000 0.000000 0.041883
#
#
# Mechanical properties :
#
#
# Convention : Reuss Voigt Hill
#
# Bulk Modulus (GPa) = 65.17873 66.87052 66.02463
# Shear Modulus (GPa) = 19.58671 22.38839 20.98755
#
# Velocity S-wave (km/s) = 3.36388 3.59643 3.48210
# Velocity P-wave (km/s) = 7.26244 7.47519 7.36958
#
# Compressibility (1/GPa) = 0.01534243
#
# Stress axis : x y z
#
# Youngs Moduli (GPa) = 46.40982 38.07817 95.22765
#
# Poissons Ratio (x) = 0.58531 0.31390
# Poissons Ratio (y) = 0.71338 0.26817
# Poissons Ratio (z) = 0.15298 0.10723
#
# Static dielectric constant tensor:
#      x y z
#    x 3.230670 0.000000 0.000000 
#    y 0.000000 3.104390 0.000000 
#    z 0.000000 0.000000 3.401350 
# 
# 
# High freq. dielectric constant tensor:
#      x y z
#    x 1.655640 0.000000 0.000000 
#    y 0.000000 1.628920 0.000000 
#    z 0.000000 0.000000 1.687630 
# 
# From -- ./inp_files/32399.got.cif
#   From: 2010.03.12/outbox.cif.g09.slc.cpg/sg66_17_cif.got.tgz:32399.got - 2010.04.10 21:57:39.
