data_PCOD8276227
_publ_section_title
;
Structure prediction by ZEFSAII (Michael W. Deem and Ramdas Pophale) SiO2 
 PCOD8276227
Probable space group: C C C M
;
_chemical_formula_sum "Si O2"
_cell_formula_units_Z 80
_cell_length_a 15.037422
_cell_length_b 18.867538
_cell_length_c 13.681775
_cell_angle_alpha 90.000000
_cell_angle_beta 90.000000
_cell_angle_gamma 90.000000
_cell_volume 3881.781314
_symmetry_space_group_name_H-M "C C C M"
_symmetry_group_IT_number 66
_symmetry_cell_setting 'orthorhombic'
loop_
_space_group_symop_operation_xyz
x,y,z
-x,-y,z
x,-y,1/2-z
-x,y,1/2-z
-x,-y,-z
x,y,-z
-x,y,1/2+z
x,-y,1/2+z
1/2+x,1/2+y,z
1/2-x,1/2-y,z
1/2+x,1/2-y,1/2-z
1/2-x,1/2+y,1/2-z
1/2-x,1/2-y,-z
1/2+x,1/2+y,-z
1/2-x,1/2+y,1/2+z
1/2+x,1/2-y,1/2+z
loop_
_atom_site_type_symbol
_atom_site_label
_atom_site_fract_x
_atom_site_fract_y
_atom_site_fract_z
Si Si1 0.748097 0.074066 0.769986
Si Si2 0.426412 0.056372 0.384160
Si Si3 0.814491 0.314572 0.614479
Si Si4 0.169754 0.197057 0.385015
Si Si5 0.988388 0.708155 0.614650
O O1 0.667361 0.042804 0.834297
O O2 0.714151 0.115577 0.673503
O O3 0.814443 0.123052 0.831462
O O4 0.800732 0.000000 0.750000
O O5 0.414138 0.052812 0.500000
O O6 0.455842 0.133023 0.346055
O O7 0.500000 0.000000 0.348990
O O8 0.816228 0.336126 0.500000
O O9 0.750000 0.250000 0.636784
O O10 0.910014 0.283561 0.648733
O O11 0.167285 0.182311 0.500000
O O12 0.250000 0.250000 0.358262
O O13 0.076857 0.230226 0.345216
O O14 0.979644 0.709644 0.500000
#
# Coordination Sequence:
#
# PCOD8276227 Si02
#       5
#    16  16  16  16  16
#     4  12  24  36  55  89 128 163 198 243 316 372
#     4  10  20  35  56  88 126 158 191 237 307 383
#     4  10  23  42  60  83 117 161 210 253 299 364
#     4  10  19  37  62  88 115 150 205 258 297 353
#     4   9  18  35  61  85 110 150 200 250 297 349
#
# _framework density 20.609095
#
# number of rings (size 3 to 8) (size 9 to 14) (size 15 to 20)
#    0.000    1.800    2.000    2.400    0.000    6.000 
#    0.000    0.000    0.000    3.000    0.000    5.600 
#    0.000    0.000    0.000    0.000    0.000    0.000 
#
# Total GULP energy -495854.467580 kJ/mol
# GULP energy per Si atom -12396.361689 kJ/mol
# Density = 2.056219 g / cm^3
# Si number density = 20.609095 Si / 1000 Ang^3
#
#
#
# Elastic Constant Matrix: (Units=GPa)
#
#
# Indices 1 2 3 4 5 6 
#
# 1 77.8547 67.0888 22.2413 0.0000 0.0000 0.0000
# 2 67.0888 180.8793 50.1275 0.0000 0.0000 0.0000
# 3 22.2413 50.1275 77.7781 0.0000 0.0000 0.0000
# 4 0.0000 0.0000 0.0000 29.2169 0.0000 0.0000
# 5 0.0000 0.0000 0.0000 0.0000 0.3676 0.0000
# 6 0.0000 0.0000 0.0000 0.0000 0.0000 38.1860
#
#
#
# Elastic Compliance Matrix: (Units=1/GPa)
#
#
# Indices 1 2 3 4 5 6 
#
# 1 0.018953 -0.006730 -0.001082 0.000000 0.000000 0.000000
# 2 -0.006730 0.009120 -0.003954 0.000000 0.000000 0.000000
# 3 -0.001082 -0.003954 0.015715 0.000000 0.000000 0.000000
# 4 0.000000 0.000000 0.000000 0.034227 0.000000 0.000000
# 5 0.000000 0.000000 0.000000 0.000000 2.720050 0.000000
# 6 0.000000 0.000000 0.000000 0.000000 0.000000 0.026188
#
#
# Mechanical properties :
#
#
# Convention : Reuss Voigt Hill
#
# Bulk Modulus (GPa) = 49.36729 68.38080 58.87405
# Shear Modulus (GPa) = 1.75160 26.69106 14.22133
#
# Velocity S-wave (km/s) = 0.92291 3.60267 2.62973
# Velocity P-wave (km/s) = 5.01416 7.11039 6.15221
#
# Compressibility (1/GPa) = 0.02025633
#
# Stress axis : x y z
#
# Youngs Moduli (GPa) = 52.76279 109.64593 63.63475
#
# Poissons Ratio (x) = 0.73788 0.06888
# Poissons Ratio (y) = 0.35508 0.25158
# Poissons Ratio (z) = 0.05711 0.43349
#
# Static dielectric constant tensor:
#      x y z
#    x 3.787920 0.000000 0.000000 
#    y 0.000000 4.089800 0.000000 
#    z 0.000000 0.000000 3.843460 
# 
# 
# High freq. dielectric constant tensor:
#      x y z
#    x 1.784510 0.000000 0.000000 
#    y 0.000000 1.799690 0.000000 
#    z 0.000000 0.000000 1.827340 
# 
# From -- ./inp_files/28110.got.cif
#   From: 2010.03.12/outbox.cif.g09.slc.cpg/sg66_15_cif.got.tgz:28110.got - 2010.04.10 21:57:39.
