data_PCOD8276813
_publ_section_title
;
Structure prediction by ZEFSAII (Michael W. Deem and Ramdas Pophale) SiO2 
 PCOD8276813
Probable space group: C C C M
;
_chemical_formula_sum "Si O2"
_cell_formula_units_Z 60
_cell_length_a 17.422673
_cell_length_b 16.675540
_cell_length_c 9.988615
_cell_angle_alpha 90.000000
_cell_angle_beta 90.000000
_cell_angle_gamma 90.000000
_cell_volume 2902.017093
_symmetry_space_group_name_H-M "C C C M"
_symmetry_group_IT_number 66
_symmetry_cell_setting 'orthorhombic'
loop_
_space_group_symop_operation_xyz
x,y,z
-x,-y,z
x,-y,1/2-z
-x,y,1/2-z
-x,-y,-z
x,y,-z
-x,y,1/2+z
x,-y,1/2+z
1/2+x,1/2+y,z
1/2-x,1/2-y,z
1/2+x,1/2-y,1/2-z
1/2-x,1/2+y,1/2-z
1/2-x,1/2-y,-z
1/2+x,1/2+y,-z
1/2-x,1/2+y,1/2+z
1/2+x,1/2-y,1/2+z
loop_
_atom_site_type_symbol
_atom_site_label
_atom_site_fract_x
_atom_site_fract_y
_atom_site_fract_z
Si Si1 0.158924 0.753122 0.500000
Si Si2 0.087649 0.329151 0.747866
Si Si3 0.181744 0.308648 0.500000
Si Si4 0.095934 0.066048 0.000000
Si Si5 0.500000 0.500000 0.750000
Si Si6 0.742775 0.987277 0.500000
Si Si7 0.851951 0.500000 0.250000
O O1 0.250000 0.750000 0.500000
O O2 0.129517 0.702543 0.623280
O O3 0.127685 0.843737 0.500000
O O4 0.128737 0.287536 0.624543
O O5 0.093010 0.424798 0.724068
O O6 0.000000 0.302675 0.750000
O O7 0.250000 0.250000 0.500000
O O8 0.222569 0.394164 0.500000
O O9 0.049859 0.053055 0.857909
O O10 0.166250 0.002997 0.000000
O O11 0.703584 0.026266 0.370676
#
# Coordination Sequence:
#
# PCOD8276813 Si02
#       7
#     8  16   8   8   4   8   8
#     4  12  26  42  65  96 133 171 221 274 335 390
#     4  11  23  40  62  95 127 170 208 266 329 389
#     4  10  23  41  62  92 127 168 215 265 323 392
#     4  11  24  45  67  95 130 168 226 273 332 394
#     4  10  26  46  68  96 124 180 218 278 336 388
#     4  10  21  38  65  91 119 170 214 266 313 390
#     4  10  20  38  64  92 130 162 216 254 319 391
#
# _framework density 20.675274000000002
#
# number of rings (size 3 to 8) (size 9 to 14) (size 15 to 20)
#    0.000    1.333    0.000    5.200    1.867    6.400 
#    4.800    5.333    0.000    0.000    0.000    0.000 
#    0.000    0.000    0.000    0.000    0.000    0.000 
#
# Total GULP energy -371813.770612 kJ/mol
# GULP energy per Si atom -12393.792354 kJ/mol
# Density = 2.062822 g / cm^3
# Si number density = 20.675274 Si / 1000 Ang^3
#
#
#
# Elastic Constant Matrix: (Units=GPa)
#
#
# Indices 1 2 3 4 5 6 
#
# 1 173.7213 48.9387 75.8562 0.0000 0.0000 0.0000
# 2 48.9387 74.4783 33.2183 0.0000 0.0000 0.0000
# 3 75.8562 33.2183 188.3003 0.0000 0.0000 0.0000
# 4 0.0000 0.0000 0.0000 33.1385 0.0000 0.0000
# 5 0.0000 0.0000 0.0000 0.0000 40.2374 0.0000
# 6 0.0000 0.0000 0.0000 0.0000 0.0000 31.3967
#
#
#
# Elastic Compliance Matrix: (Units=1/GPa)
#
#
# Indices 1 2 3 4 5 6 
#
# 1 0.008017 -0.004154 -0.002497 0.000000 0.000000 0.000000
# 2 -0.004154 0.016726 -0.001277 0.000000 0.000000 0.000000
# 3 -0.002497 -0.001277 0.006542 0.000000 0.000000 0.000000
# 4 0.000000 0.000000 0.000000 0.030176 0.000000 0.000000
# 5 0.000000 0.000000 0.000000 0.000000 0.024852 0.000000
# 6 0.000000 0.000000 0.000000 0.000000 0.000000 0.031850
#
#
# Mechanical properties :
#
#
# Convention : Reuss Voigt Hill
#
# Bulk Modulus (GPa) = 64.81506 83.61403 74.21454
# Shear Modulus (GPa) = 35.92911 39.52029 37.72470
#
# Velocity S-wave (km/s) = 4.17319 4.37679 4.27620
# Velocity P-wave (km/s) = 7.39174 8.12841 7.76881
#
# Compressibility (1/GPa) = 0.01542851
#
# Stress axis : x y z
#
# Youngs Moduli (GPa) = 124.73792 59.78707 152.86398
#
# Poissons Ratio (x) = 0.24837 0.38166
# Poissons Ratio (y) = 0.51818 0.19523
# Poissons Ratio (z) = 0.31143 0.07636
#
# Static dielectric constant tensor:
#      x y z
#    x 3.803530 0.000000 0.000000 
#    y 0.000000 3.020840 0.000000 
#    z 0.000000 0.000000 3.993870 
# 
# 
# High freq. dielectric constant tensor:
#      x y z
#    x 1.820500 0.000000 0.000000 
#    y 0.000000 1.805950 0.000000 
#    z 0.000000 0.000000 1.831880 
# 
# From -- ./inp_files/6061.got.cif
#   From: 2010.03.12/outbox.cif.g09.slc.cpg/sg66_4_cif.got.tgz:6061.got - 2010.04.10 21:57:39.
