data_PCOD8276847
_publ_section_title
;
Structure prediction by ZEFSAII (Michael W. Deem and Ramdas Pophale) SiO2 
 PCOD8276847
Probable space group: C C C M
;
_chemical_formula_sum "Si O2"
_cell_formula_units_Z 96
_cell_length_a 9.538460
_cell_length_b 24.468523
_cell_length_c 21.438798
_cell_angle_alpha 90.000000
_cell_angle_beta 90.000000
_cell_angle_gamma 90.000000
_cell_volume 5003.644541
_symmetry_space_group_name_H-M "C C C M"
_symmetry_group_IT_number 66
_symmetry_cell_setting 'orthorhombic'
loop_
_space_group_symop_operation_xyz
x,y,z
-x,-y,z
x,-y,1/2-z
-x,y,1/2-z
-x,-y,-z
x,y,-z
-x,y,1/2+z
x,-y,1/2+z
1/2+x,1/2+y,z
1/2-x,1/2-y,z
1/2+x,1/2-y,1/2-z
1/2-x,1/2+y,1/2-z
1/2-x,1/2-y,-z
1/2+x,1/2+y,-z
1/2-x,1/2+y,1/2+z
1/2+x,1/2-y,1/2+z
loop_
_atom_site_type_symbol
_atom_site_label
_atom_site_fract_x
_atom_site_fract_y
_atom_site_fract_z
Si Si1 0.021649 0.374333 0.929416
Si Si2 0.665437 0.096099 0.263602
Si Si3 0.956535 0.882706 0.926078
Si Si4 0.250240 0.586360 0.127836
Si Si5 0.727500 0.037850 0.614128
Si Si6 0.257913 0.186922 0.856203
O O1 0.105261 0.431614 0.924109
O O2 0.113879 0.324580 0.903208
O O3 0.879732 0.375750 0.890281
O O4 0.983122 0.361829 0.000000
O O5 0.500000 0.096285 0.250000
O O6 0.758695 0.084857 0.202642
O O7 0.700507 0.047851 0.312350
O O8 0.714957 0.153772 0.292463
O O9 0.876869 0.938610 0.908039
O O10 0.884396 0.831931 0.890577
O O11 0.113826 0.886663 0.901808
O O12 0.952757 0.872684 0.000000
O O13 0.226108 0.526078 0.099611
O O14 0.250000 0.250000 0.838707
#
# Coordination Sequence:
#
# PCOD8276847 Si02
#       6
#    16  16  16  16  16  16
#     4  10  21  35  56  88 116 150 204 240 273 345
#     4  10  20  40  59  89 118 147 200 250 281 343
#     4  10  23  40  57  88 124 154 197 245 288 345
#     4  12  21  35  57  88 125 158 186 237 296 336
#     4  10  21  34  59  83 119 170 196 222 279 351
#     4  10  22  44  67  82 105 156 200 246 305 357
#
# _framework density 19.186015000000001
#
# number of rings (size 3 to 8) (size 9 to 14) (size 15 to 20)
#    0.000    2.000    3.333    4.000    0.000    8.667 
#    3.000    4.167    0.000    2.000    0.000    0.000 
#    0.000    0.000    0.000    0.000    0.000    0.000 
#
# Total GULP energy -595224.447813 kJ/mol
# GULP energy per Si atom -12400.509329 kJ/mol
# Density = 1.914235 g / cm^3
# Si number density = 19.186015 Si / 1000 Ang^3
#
#
#
# Elastic Constant Matrix: (Units=GPa)
#
#
# Indices 1 2 3 4 5 6 
#
# 1 117.8451 23.9121 14.8522 0.0000 0.0000 0.0000
# 2 23.9121 77.8849 -4.3449 0.0000 0.0000 0.0000
# 3 14.8522 -4.3449 71.2478 0.0000 0.0000 0.0000
# 4 0.0000 0.0000 0.0000 10.3141 0.0000 0.0000
# 5 0.0000 0.0000 0.0000 0.0000 34.9300 0.0000
# 6 0.0000 0.0000 0.0000 0.0000 0.0000 8.9257
#
#
#
# Elastic Compliance Matrix: (Units=1/GPa)
#
#
# Indices 1 2 3 4 5 6 
#
# 1 0.009362 -0.002993 -0.002134 0.000000 0.000000 0.000000
# 2 -0.002993 0.013840 0.001468 0.000000 0.000000 0.000000
# 3 -0.002134 0.001468 0.014570 0.000000 0.000000 0.000000
# 4 0.000000 0.000000 0.000000 0.096955 0.000000 0.000000
# 5 0.000000 0.000000 0.000000 0.000000 0.028629 0.000000
# 6 0.000000 0.000000 0.000000 0.000000 0.000000 0.112037
#
#
# Mechanical properties :
#
#
# Convention : Reuss Voigt Hill
#
# Bulk Modulus (GPa) = 32.83711 37.31296 35.07503
# Shear Modulus (GPa) = 17.07283 26.33783 21.70533
#
# Velocity S-wave (km/s) = 2.98629 3.70910 3.36714
# Velocity P-wave (km/s) = 5.38914 6.15089 5.78257
#
# Compressibility (1/GPa) = 0.03045335
#
# Stress axis : x y z
#
# Youngs Moduli (GPa) = 106.81394 72.25237 68.63451
#
# Poissons Ratio (x) = 0.21628 0.14648
# Poissons Ratio (y) = 0.31974 -0.10076
# Poissons Ratio (z) = 0.22796 -0.10607
#
# Static dielectric constant tensor:
#      x y z
#    x 3.546250 0.000000 0.000000 
#    y 0.000000 3.180570 0.000000 
#    z 0.000000 0.000000 3.653790 
# 
# 
# High freq. dielectric constant tensor:
#      x y z
#    x 1.750890 0.000000 0.000000 
#    y 0.000000 1.715080 0.000000 
#    z 0.000000 0.000000 1.758530 
# 
# From -- ./inp_files/47307.got.cif
#   From: 2010.03.12/outbox.cif.g09.slc.cpg/sg66_24_cif.got.tgz:47307.got - 2010.04.10 21:57:39.
