data_PCOD8276597
_publ_section_title
;
Structure prediction by ZEFSAII (Michael W. Deem and Ramdas Pophale) SiO2 
 PCOD8276597
Probable space group: C C C M
;
_chemical_formula_sum "Si O2"
_cell_formula_units_Z 96
_cell_length_a 23.799925
_cell_length_b 23.900516
_cell_length_c 8.973406
_cell_angle_alpha 90.000000
_cell_angle_beta 90.000000
_cell_angle_gamma 90.000000
_cell_volume 5104.346916
_symmetry_space_group_name_H-M "C C C M"
_symmetry_group_IT_number 66
_symmetry_cell_setting 'orthorhombic'
loop_
_space_group_symop_operation_xyz
x,y,z
-x,-y,z
x,-y,1/2-z
-x,y,1/2-z
-x,-y,-z
x,y,-z
-x,y,1/2+z
x,-y,1/2+z
1/2+x,1/2+y,z
1/2-x,1/2-y,z
1/2+x,1/2-y,1/2-z
1/2-x,1/2+y,1/2-z
1/2-x,1/2-y,-z
1/2+x,1/2+y,-z
1/2-x,1/2+y,1/2+z
1/2+x,1/2-y,1/2+z
loop_
_atom_site_type_symbol
_atom_site_label
_atom_site_fract_x
_atom_site_fract_y
_atom_site_fract_z
Si Si1 0.654604 0.442317 0.169266
Si Si2 0.151103 0.650717 0.669162
Si Si3 0.059291 0.441507 0.822274
Si Si4 0.558456 0.639838 0.328311
Si Si5 0.358938 0.277901 0.170446
Si Si6 0.732373 0.342918 0.176153
O O1 0.662028 0.500000 0.250000
O O2 0.592133 0.418066 0.190266
O O3 0.698716 0.397413 0.231967
O O4 0.668910 0.454538 0.000000
O O5 0.170624 0.638413 0.500000
O O6 0.104434 0.606016 0.719840
O O7 0.125628 0.712672 0.681564
O O8 0.203854 0.647376 0.778182
O O9 0.079705 0.500000 0.750000
O O10 0.000000 0.423717 0.750000
O O11 0.052509 0.448140 0.000000
O O12 0.500000 0.630068 0.250000
O O13 0.549261 0.655261 0.500000
O O14 0.591416 0.690965 0.255335
O O15 0.297853 0.289807 0.245192
O O16 0.356499 0.298145 0.000000
O O17 0.727518 0.333660 0.000000
#
# Coordination Sequence:
#
# PCOD8276597 Si02
#       6
#    16  16  16  16  16  16
#     4   9  20  36  53  76 106 140 180 223 267 315
#     4  10  22  37  56  83 110 140 179 219 263 320
#     4  10  21  39  59  80 108 140 176 219 268 318
#     4  10  21  37  55  79 109 142 182 225 271 320
#     4  10  20  36  56  79 110 145 179 220 270 318
#     4  10  21  36  54  80 112 144 179 221 268 317
#
# _framework density 18.807500000000001
#
# number of rings (size 3 to 8) (size 9 to 14) (size 15 to 20)
#    0.000    2.167    0.000    4.000    0.000   10.333 
#    0.000    6.667    0.000    0.000    0.000    0.000 
#    0.000    0.000    0.000    0.000    0.000    0.000 
#
# Total GULP energy -595246.213450 kJ/mol
# GULP energy per Si atom -12400.962780 kJ/mol
# Density = 1.876469 g / cm^3
# Si number density = 18.807500 Si / 1000 Ang^3
#
#
#
# Elastic Constant Matrix: (Units=GPa)
#
#
# Indices 1 2 3 4 5 6 
#
# 1 47.9642 24.4502 17.3782 0.0000 0.0000 0.0000
# 2 24.4502 99.2547 35.8029 0.0000 0.0000 0.0000
# 3 17.3782 35.8029 92.2610 0.0000 0.0000 0.0000
# 4 0.0000 0.0000 0.0000 27.8581 0.0000 0.0000
# 5 0.0000 0.0000 0.0000 0.0000 28.4895 0.0000
# 6 0.0000 0.0000 0.0000 0.0000 0.0000 25.6130
#
#
#
# Elastic Compliance Matrix: (Units=1/GPa)
#
#
# Indices 1 2 3 4 5 6 
#
# 1 0.024379 -0.005057 -0.002630 0.000000 0.000000 0.000000
# 2 -0.005057 0.012764 -0.004001 0.000000 0.000000 0.000000
# 3 -0.002630 -0.004001 0.012887 0.000000 0.000000 0.000000
# 4 0.000000 0.000000 0.000000 0.035896 0.000000 0.000000
# 5 0.000000 0.000000 0.000000 0.000000 0.035101 0.000000
# 6 0.000000 0.000000 0.000000 0.000000 0.000000 0.039043
#
#
# Mechanical properties :
#
#
# Convention : Reuss Voigt Hill
#
# Bulk Modulus (GPa) = 37.51587 43.86028 40.68808
# Shear Modulus (GPa) = 25.99708 27.18204 26.58956
#
# Velocity S-wave (km/s) = 3.72192 3.80580 3.76410
# Velocity P-wave (km/s) = 6.20169 6.53326 6.36963
#
# Compressibility (1/GPa) = 0.02665538
#
# Stress axis : x y z
#
# Youngs Moduli (GPa) = 41.01808 78.34581 77.59977
#
# Poissons Ratio (x) = 0.39620 0.20406
# Poissons Ratio (y) = 0.20743 0.31045
# Poissons Ratio (z) = 0.10786 0.31343
#
# Static dielectric constant tensor:
#      x y z
#    x 3.404710 0.000000 0.000000 
#    y 0.000000 3.543520 0.000000 
#    z 0.000000 0.000000 3.597960 
# 
# 
# High freq. dielectric constant tensor:
#      x y z
#    x 1.728280 0.000000 0.000000 
#    y 0.000000 1.732840 0.000000 
#    z 0.000000 0.000000 1.742380 
# 
# From -- ./inp_files/9120.got.cif
#   From: 2010.03.12/outbox.cif.g09.slc.cpg/sg66_5_cif.got.tgz:9120.got - 2010.04.10 21:57:39.
