data_PCOD8276404
_publ_section_title
;
Structure prediction by ZEFSAII (Michael W. Deem and Ramdas Pophale) SiO2 
 PCOD8276404
Probable space group: C C C M
;
_chemical_formula_sum "Si O2"
_cell_formula_units_Z 72
_cell_length_a 4.881176
_cell_length_b 22.202401
_cell_length_c 30.500187
_cell_angle_alpha 90.000000
_cell_angle_beta 90.000000
_cell_angle_gamma 90.000000
_cell_volume 3305.421986
_symmetry_space_group_name_H-M "C C C M"
_symmetry_group_IT_number 66
_symmetry_cell_setting 'orthorhombic'
loop_
_space_group_symop_operation_xyz
x,y,z
-x,-y,z
x,-y,1/2-z
-x,y,1/2-z
-x,-y,-z
x,y,-z
-x,y,1/2+z
x,-y,1/2+z
1/2+x,1/2+y,z
1/2-x,1/2-y,z
1/2+x,1/2-y,1/2-z
1/2-x,1/2+y,1/2-z
1/2-x,1/2-y,-z
1/2+x,1/2+y,-z
1/2-x,1/2+y,1/2+z
1/2+x,1/2-y,1/2+z
loop_
_atom_site_type_symbol
_atom_site_label
_atom_site_fract_x
_atom_site_fract_y
_atom_site_fract_z
Si Si1 0.133627 0.563442 0.638431
Si Si2 0.888134 0.617767 0.048600
Si Si3 0.500000 0.708743 0.750000
Si Si4 0.875074 0.134682 0.164794
Si Si5 0.395546 0.311890 0.425298
O O1 0.185952 0.568574 0.585882
O O2 0.425964 0.575851 0.661670
O O3 0.000000 0.500000 0.650853
O O4 0.936880 0.615026 0.657402
O O5 0.692651 0.677181 0.052712
O O6 0.202391 0.635362 0.056442
O O7 0.857733 0.589442 0.000000
O O8 0.750000 0.750000 0.766412
O O9 0.397389 0.666417 0.788832
O O10 0.945291 0.183222 0.126960
O O11 0.250000 0.250000 0.438652
#
# Coordination Sequence:
#
# PCOD8276404 Si02
#       5
#    16  16   8  16  16
#     4  10  21  40  61  80 113 154 190 237 289 329
#     4  10  21  34  52  81 110 143 194 240 276 336
#     4  12  24  40  65  92 121 150 182 228 280 336
#     4  10  22  39  58  87 115 145 193 233 276 343
#     4  10  20  34  53  76 112 152 183 227 288 343
#
# _framework density 21.782391000000001
#
# number of rings (size 3 to 8) (size 9 to 14) (size 15 to 20)
#    0.000    1.778    0.000    4.000    0.000    6.667 
#    0.000    3.333    0.000    8.000    0.000    0.000 
#    0.000    0.000    0.000    0.000    0.000    0.000 
#
# Total GULP energy -446337.945597 kJ/mol
# GULP energy per Si atom -12398.276267 kJ/mol
# Density = 2.173281 g / cm^3
# Si number density = 21.782391 Si / 1000 Ang^3
#
#
#
# Elastic Constant Matrix: (Units=GPa)
#
#
# Indices 1 2 3 4 5 6 
#
# 1 93.4778 -0.4661 14.9553 0.0000 0.0000 0.0000
# 2 -0.4661 52.6031 12.3892 0.0000 0.0000 0.0000
# 3 14.9553 12.3892 129.6748 0.0000 0.0000 0.0000
# 4 0.0000 0.0000 0.0000 12.4438 0.0000 0.0000
# 5 0.0000 0.0000 0.0000 0.0000 23.7076 0.0000
# 6 0.0000 0.0000 0.0000 0.0000 0.0000 27.9050
#
#
#
# Elastic Compliance Matrix: (Units=1/GPa)
#
#
# Indices 1 2 3 4 5 6 
#
# 1 0.010907 0.000402 -0.001296 0.000000 0.000000 0.000000
# 2 0.000402 0.019463 -0.001906 0.000000 0.000000 0.000000
# 3 -0.001296 -0.001906 0.008043 0.000000 0.000000 0.000000
# 4 0.000000 0.000000 0.000000 0.080362 0.000000 0.000000
# 5 0.000000 0.000000 0.000000 0.000000 0.042181 0.000000
# 6 0.000000 0.000000 0.000000 0.000000 0.000000 0.035836
#
#
# Mechanical properties :
#
#
# Convention : Reuss Voigt Hill
#
# Bulk Modulus (GPa) = 30.47605 36.61249 33.54427
# Shear Modulus (GPa) = 23.43799 29.40309 26.42054
#
# Velocity S-wave (km/s) = 3.28381 3.67802 3.48649
# Velocity P-wave (km/s) = 5.32911 5.90609 5.62500
#
# Compressibility (1/GPa) = 0.03281265
#
# Stress axis : x y z
#
# Youngs Moduli (GPa) = 91.68315 51.38025 124.32885
#
# Poissons Ratio (x) = -0.02065 0.16117
# Poissons Ratio (y) = -0.03685 0.23695
# Poissons Ratio (z) = 0.11885 0.09792
#
# Static dielectric constant tensor:
#      x y z
#    x 4.165960 0.000000 0.000000 
#    y 0.000000 3.469100 0.000000 
#    z 0.000000 0.000000 3.829280 
# 
# 
# High freq. dielectric constant tensor:
#      x y z
#    x 1.879780 0.000000 0.000000 
#    y 0.000000 1.819260 0.000000 
#    z 0.000000 0.000000 1.846600 
# 
# From -- ./inp_files/61442.got.cif
#   From: 2010.03.12/outbox.cif.g09.slc.cpg/sg66_31_cif.got.tgz:61442.got - 2010.04.10 21:57:39.
