data_PCOD8276466
_publ_section_title
;
Structure prediction by ZEFSAII (Michael W. Deem and Ramdas Pophale) SiO2 
 PCOD8276466
Probable space group: C C C M
;
_chemical_formula_sum "Si O2"
_cell_formula_units_Z 88
_cell_length_a 15.070182
_cell_length_b 12.533969
_cell_length_c 23.324626
_cell_angle_alpha 90.000000
_cell_angle_beta 90.000000
_cell_angle_gamma 90.000000
_cell_volume 4405.769806
_symmetry_space_group_name_H-M "C C C M"
_symmetry_group_IT_number 66
_symmetry_cell_setting 'orthorhombic'
loop_
_space_group_symop_operation_xyz
x,y,z
-x,-y,z
x,-y,1/2-z
-x,y,1/2-z
-x,-y,-z
x,y,-z
-x,y,1/2+z
x,-y,1/2+z
1/2+x,1/2+y,z
1/2-x,1/2-y,z
1/2+x,1/2-y,1/2-z
1/2-x,1/2+y,1/2-z
1/2-x,1/2-y,-z
1/2+x,1/2+y,-z
1/2-x,1/2+y,1/2+z
1/2+x,1/2-y,1/2+z
loop_
_atom_site_type_symbol
_atom_site_label
_atom_site_fract_x
_atom_site_fract_y
_atom_site_fract_z
Si Si1 0.250000 0.250000 0.199494
Si Si2 0.334418 0.825717 0.000000
Si Si3 0.100098 0.377484 0.733501
Si Si4 0.687023 0.649477 0.000000
Si Si5 0.500000 0.500000 0.903708
Si Si6 0.800509 0.637613 0.376742
Si Si7 0.984456 0.160502 0.000000
Si Si8 0.315882 0.559146 0.376841
O O1 0.171340 0.299442 0.237192
O O2 0.289371 0.339237 0.158922
O O3 0.250000 0.750000 0.000000
O O4 0.332578 0.893161 0.941119
O O5 0.427225 0.765531 0.000000
O O6 0.117439 0.500000 0.750000
O O7 0.114005 0.362311 0.665136
O O8 0.000000 0.343007 0.750000
O O9 0.750000 0.750000 0.000000
O O10 0.587060 0.694032 0.000000
O O11 0.702907 0.576620 0.055647
O O12 0.579718 0.541798 0.864436
O O13 0.459356 0.592843 0.943767
O O14 0.750000 0.750000 0.375177
O O15 0.735473 0.544818 0.354695
#
# Coordination Sequence:
#
# PCOD8276466 Si02
#       8
#     8   8  16   8   8  16   8  16
#     4  12  24  43  68  95 126 170 222 274 310 394
#     4  10  20  34  60  99 126 166 211 265 328 388
#     4  11  25  46  68  91 131 182 221 258 329 393
#     4  10  20  37  59  92 130 176 200 266 338 386
#     4   9  18  34  58  93 126 170 203 271 328 380
#     4  11  22  40  68  93 134 172 215 274 323 391
#     4   9  18  33  56  89 132 164 211 252 325 394
#     4  11  22  38  64  96 130 167 220 267 328 384
#
# _framework density 19.973807000000001
#
# number of rings (size 3 to 8) (size 9 to 14) (size 15 to 20)
#    0.000    1.455    3.636    3.273    0.000    4.364 
#    0.000    0.000    0.000    3.273    0.000    0.000 
#    0.000    0.000    0.000    0.000    0.000    0.000 
#
# Total GULP energy -545558.104564 kJ/mol
# GULP energy per Si atom -12399.047831 kJ/mol
# Density = 1.992835 g / cm^3
# Si number density = 19.973807 Si / 1000 Ang^3
#
#
#
# Elastic Constant Matrix: (Units=GPa)
#
#
# Indices 1 2 3 4 5 6 
#
# 1 138.5602 60.3981 59.2000 0.0000 0.0000 0.0000
# 2 60.3981 108.7960 30.7095 0.0000 0.0000 0.0000
# 3 59.2000 30.7095 133.1718 0.0000 0.0000 0.0000
# 4 0.0000 0.0000 0.0000 94.5429 0.0000 0.0000
# 5 0.0000 0.0000 0.0000 0.0000 -363.0193 0.0000
# 6 0.0000 0.0000 0.0000 0.0000 0.0000 38.6221
#
#
#
# Elastic Compliance Matrix: (Units=1/GPa)
#
#
# Indices 1 2 3 4 5 6 
#
# 1 0.011018 -0.005064 -0.003730 0.000000 0.000000 0.000000
# 2 -0.005064 0.012159 -0.000553 0.000000 0.000000 0.000000
# 3 -0.003730 -0.000553 0.009295 0.000000 0.000000 0.000000
# 4 0.000000 0.000000 0.000000 0.010577 0.000000 0.000000
# 5 0.000000 0.000000 0.000000 0.000000 -0.002755 0.000000
# 6 0.000000 0.000000 0.000000 0.000000 0.000000 0.025892
#
#
# Mechanical properties :
#
#
# Convention : Reuss Voigt Hill
#
# Bulk Modulus (GPa) = 72.57940 75.68259 74.13099
# Shear Modulus (GPa) = 55.88313 -30.62284 12.63015
#
# Velocity S-wave (km/s) = 5.29518 -3.91979 2.51736
# Velocity P-wave (km/s) = 8.59078 4.18172 6.75604
#
# Compressibility (1/GPa) = 0.01377801
#
# Stress axis : x y z
#
# Youngs Moduli (GPa) = 90.75943 82.24561 107.58693
#
# Poissons Ratio (x) = 0.41647 0.40133
# Poissons Ratio (y) = 0.45959 0.05947
# Poissons Ratio (z) = 0.33856 0.04546
#
# Static dielectric constant tensor:
#      x y z
#    x 3.615650 0.000000 0.000000 
#    y 0.000000 3.514810 0.000000 
#    z 0.000000 0.000000 3.868260 
# 
# 
# High freq. dielectric constant tensor:
#      x y z
#    x 1.780190 0.000000 0.000000 
#    y 0.000000 1.775020 0.000000 
#    z 0.000000 0.000000 1.779180 
# 
# From -- ./inp_files/64574.got.cif
#   From: 2010.03.12/outbox.cif.g09.slc.cpg/sg66_33_cif.got.tgz:64574.got - 2010.04.10 21:57:39.
