data_PCOD8276463
_publ_section_title
;
Structure prediction by ZEFSAII (Michael W. Deem and Ramdas Pophale) SiO2 
 PCOD8276463
Probable space group: C C C M
;
_chemical_formula_sum "Si O2"
_cell_formula_units_Z 96
_cell_length_a 11.157536
_cell_length_b 22.609736
_cell_length_c 18.821575
_cell_angle_alpha 90.000000
_cell_angle_beta 90.000000
_cell_angle_gamma 90.000000
_cell_volume 4748.098838
_symmetry_space_group_name_H-M "C C C M"
_symmetry_group_IT_number 66
_symmetry_cell_setting 'orthorhombic'
loop_
_space_group_symop_operation_xyz
x,y,z
-x,-y,z
x,-y,1/2-z
-x,y,1/2-z
-x,-y,-z
x,y,-z
-x,y,1/2+z
x,-y,1/2+z
1/2+x,1/2+y,z
1/2-x,1/2-y,z
1/2+x,1/2-y,1/2-z
1/2-x,1/2+y,1/2-z
1/2-x,1/2-y,-z
1/2+x,1/2+y,-z
1/2-x,1/2+y,1/2+z
1/2+x,1/2-y,1/2+z
loop_
_atom_site_type_symbol
_atom_site_label
_atom_site_fract_x
_atom_site_fract_y
_atom_site_fract_z
Si Si1 0.314502 0.017931 0.674388
Si Si2 0.440038 0.562713 0.179077
Si Si3 0.963173 0.158852 0.416891
Si Si4 0.618576 0.233457 0.084563
Si Si5 0.543592 0.107214 0.081361
Si Si6 0.769904 0.592909 0.919441
O O1 0.201919 0.059429 0.691913
O O2 0.415806 0.051402 0.628540
O O3 0.373173 0.000000 0.750000
O O4 0.258168 0.962936 0.631892
O O5 0.500000 0.500000 0.161351
O O6 0.500000 0.589806 0.250000
O O7 0.457281 0.605868 0.113248
O O8 0.985348 0.158555 0.500000
O O9 0.823463 0.145514 0.397794
O O10 0.015269 0.221297 0.386800
O O11 0.750000 0.250000 0.113053
O O12 0.597869 0.167300 0.113077
O O13 0.614268 0.232279 0.000000
O O14 0.402470 0.118374 0.086600
O O15 0.582858 0.094410 0.000000
O O16 0.741863 0.572101 0.000000
#
# Coordination Sequence:
#
# PCOD8276463 Si02
#       6
#    16  16  16  16  16  16
#     4  12  22  36  58  83 114 156 193 242 292 351
#     4  11  20  37  55  82 117 152 185 232 300 353
#     4  10  20  34  59  88 115 149 195 244 286 348
#     4   9  18  35  57  84 113 145 188 236 288 344
#     4  10  22  38  57  83 118 155 191 239 295 347
#     4  10  21  36  54  83 117 150 192 238 292 349
#
# _framework density 20.218617999999999
#
# number of rings (size 3 to 8) (size 9 to 14) (size 15 to 20)
#    0.000    1.667    3.333    2.000    0.000    6.333 
#    0.000    3.333    3.667    0.000    0.000    0.000 
#    0.000    0.000    0.000    0.000    0.000    0.000 
#
# Total GULP energy -595053.478594 kJ/mol
# GULP energy per Si atom -12396.947471 kJ/mol
# Density = 2.017260 g / cm^3
# Si number density = 20.218618 Si / 1000 Ang^3
#
#
#
# Elastic Constant Matrix: (Units=GPa)
#
#
# Indices 1 2 3 4 5 6 
#
# 1 111.4718 47.6963 39.0256 0.0000 0.0000 0.0000
# 2 47.6963 103.0241 46.8135 0.0000 0.0000 0.0000
# 3 39.0256 46.8135 67.5893 0.0000 0.0000 0.0000
# 4 0.0000 0.0000 0.0000 10.7073 0.0000 0.0000
# 5 0.0000 0.0000 0.0000 0.0000 20.1110 0.0000
# 6 0.0000 0.0000 0.0000 0.0000 0.0000 39.4171
#
#
#
# Elastic Compliance Matrix: (Units=1/GPa)
#
#
# Indices 1 2 3 4 5 6 
#
# 1 0.012064 -0.003532 -0.004520 0.000000 0.000000 0.000000
# 2 -0.003532 0.015198 -0.008487 0.000000 0.000000 0.000000
# 3 -0.004520 -0.008487 0.023283 0.000000 0.000000 0.000000
# 4 0.000000 0.000000 0.000000 0.093394 0.000000 0.000000
# 5 0.000000 0.000000 0.000000 0.000000 0.049724 0.000000
# 6 0.000000 0.000000 0.000000 0.000000 0.000000 0.025370
#
#
# Mechanical properties :
#
#
# Convention : Reuss Voigt Hill
#
# Bulk Modulus (GPa) = 57.24639 61.01735 59.13187
# Shear Modulus (GPa) = 19.38478 23.95038 21.66758
#
# Velocity S-wave (km/s) = 3.09974 3.44549 3.27718
# Velocity P-wave (km/s) = 6.41766 6.78770 6.60527
#
# Compressibility (1/GPa) = 0.01746835
#
# Stress axis : x y z
#
# Youngs Moduli (GPa) = 82.88912 65.79802 42.94899
#
# Poissons Ratio (x) = 0.23237 0.19412
# Poissons Ratio (y) = 0.29273 0.36452
# Poissons Ratio (z) = 0.37465 0.55845
#
# Static dielectric constant tensor:
#      x y z
#    x 3.842160 0.000000 0.000000 
#    y 0.000000 3.697590 0.000000 
#    z 0.000000 0.000000 3.538100 
# 
# 
# High freq. dielectric constant tensor:
#      x y z
#    x 1.805250 0.000000 0.000000 
#    y 0.000000 1.776160 0.000000 
#    z 0.000000 0.000000 1.765190 
# 
# From -- ./inp_files/43608.got.cif
#   From: 2010.03.12/outbox.cif.g09.slc.cpg/sg66_22_cif.got.tgz:43608.got - 2010.04.10 21:57:39.
