data_PCOD8276951
_publ_section_title
;
Structure prediction by ZEFSAII (Michael W. Deem and Ramdas Pophale) SiO2 
 PCOD8276951
Probable space group: C C C M
;
_chemical_formula_sum "Si O2"
_cell_formula_units_Z 68
_cell_length_a 27.673925
_cell_length_b 14.939102
_cell_length_c 8.834825
_cell_angle_alpha 90.000000
_cell_angle_beta 90.000000
_cell_angle_gamma 90.000000
_cell_volume 3652.525054
_symmetry_space_group_name_H-M "C C C M"
_symmetry_group_IT_number 66
_symmetry_cell_setting 'orthorhombic'
loop_
_space_group_symop_operation_xyz
x,y,z
-x,-y,z
x,-y,1/2-z
-x,y,1/2-z
-x,-y,-z
x,y,-z
-x,y,1/2+z
x,-y,1/2+z
1/2+x,1/2+y,z
1/2-x,1/2-y,z
1/2+x,1/2-y,1/2-z
1/2-x,1/2+y,1/2-z
1/2-x,1/2-y,-z
1/2+x,1/2+y,-z
1/2-x,1/2+y,1/2+z
1/2+x,1/2-y,1/2+z
loop_
_atom_site_type_symbol
_atom_site_label
_atom_site_fract_x
_atom_site_fract_y
_atom_site_fract_z
Si Si1 0.500000 0.000000 0.750000
Si Si2 0.545997 0.171341 0.832318
Si Si3 0.642271 0.770708 0.820814
Si Si4 0.673298 0.407290 0.823870
Si Si5 0.786376 0.592712 0.675942
O O1 0.534618 0.064869 0.849415
O O2 0.500000 0.219066 0.750000
O O3 0.592669 0.183765 0.729328
O O4 0.554042 0.211823 0.000000
O O5 0.643545 0.670208 0.758329
O O6 0.687135 0.825030 0.754082
O O7 0.645945 0.770086 0.000000
O O8 0.656449 0.500000 0.750000
O O9 0.729932 0.391594 0.797055
O O10 0.660237 0.408219 0.000000
O O11 0.803678 0.500000 0.750000
O O12 0.800004 0.590364 0.500000
#
# Coordination Sequence:
#
# PCOD8276951 Si02
#       5
#     4  16  16  16  16
#     4   8  22  36  62  80 112 148 182 224 278 332
#     4  10  21  37  57  81 113 146 184 228 276 332
#     4  12  24  36  56  84 115 152 194 234 279 336
#     4  10  21  39  60  82 111 148 191 239 290 337
#     4  10  21  36  55  81 115 152 190 235 285 338
#
# _framework density 18.617259000000001
#
# number of rings (size 3 to 8) (size 9 to 14) (size 15 to 20)
#    0.706    0.941    0.000    5.294    1.647    5.647 
#    0.000    0.000    0.000    0.706    0.000    4.941 
#    0.000    0.000    0.000    0.000    0.000    0.000 
#
# Total GULP energy -421576.482553 kJ/mol
# GULP energy per Si atom -12399.308310 kJ/mol
# Density = 1.857488 g / cm^3
# Si number density = 18.617259 Si / 1000 Ang^3
#
#
#
# Elastic Constant Matrix: (Units=GPa)
#
#
# Indices 1 2 3 4 5 6 
#
# 1 57.5170 37.4172 36.0591 0.0000 0.0000 0.0000
# 2 37.4172 116.3823 47.9194 0.0000 0.0000 0.0000
# 3 36.0591 47.9194 147.9117 0.0000 0.0000 0.0000
# 4 0.0000 0.0000 0.0000 33.8566 0.0000 0.0000
# 5 0.0000 0.0000 0.0000 0.0000 9.4342 0.0000
# 6 0.0000 0.0000 0.0000 0.0000 0.0000 23.8177
#
#
#
# Elastic Compliance Matrix: (Units=1/GPa)
#
#
# Indices 1 2 3 4 5 6 
#
# 1 0.023719 -0.006052 -0.003822 0.000000 0.000000 0.000000
# 2 -0.006052 0.011459 -0.002237 0.000000 0.000000 0.000000
# 3 -0.003822 -0.002237 0.008417 0.000000 0.000000 0.000000
# 4 0.000000 0.000000 0.000000 0.029536 0.000000 0.000000
# 5 0.000000 0.000000 0.000000 0.000000 0.105997 0.000000
# 6 0.000000 0.000000 0.000000 0.000000 0.000000 0.041986
#
#
# Mechanical properties :
#
#
# Convention : Reuss Voigt Hill
#
# Bulk Modulus (GPa) = 51.61607 62.73360 57.17483
# Shear Modulus (GPa) = 19.85740 26.78271 23.32005
#
# Velocity S-wave (km/s) = 3.26945 3.79700 3.54305
# Velocity P-wave (km/s) = 6.48363 7.27960 6.89311
#
# Compressibility (1/GPa) = 0.01937381
#
# Stress axis : x y z
#
# Youngs Moduli (GPa) = 42.15963 87.26563 118.80409
#
# Poissons Ratio (x) = 0.52816 0.45404
# Poissons Ratio (y) = 0.25516 0.26577
# Poissons Ratio (z) = 0.16112 0.19521
#
# Static dielectric constant tensor:
#      x y z
#    x 3.232440 0.000000 0.000000 
#    y 0.000000 3.342310 0.000000 
#    z 0.000000 0.000000 3.515910 
# 
# 
# High freq. dielectric constant tensor:
#      x y z
#    x 1.707330 0.000000 0.000000 
#    y 0.000000 1.711670 0.000000 
#    z 0.000000 0.000000 1.740590 
# 
# From -- ./inp_files/9936.got.cif
#   From: 2010.03.12/outbox.cif.g09.slc.cpg/sg66_5_cif.got.tgz:9936.got - 2010.04.10 21:57:39.
