data_PCOD8276409
_publ_section_title
;
Structure prediction by ZEFSAII (Michael W. Deem and Ramdas Pophale) SiO2 
 PCOD8276409
Probable space group: C C C M
;
_chemical_formula_sum "Si O2"
_cell_formula_units_Z 80
_cell_length_a 26.900036
_cell_length_b 18.290748
_cell_length_c 8.752398
_cell_angle_alpha 90.000000
_cell_angle_beta 90.000000
_cell_angle_gamma 90.000000
_cell_volume 4306.370440
_symmetry_space_group_name_H-M "C C C M"
_symmetry_group_IT_number 66
_symmetry_cell_setting 'orthorhombic'
loop_
_space_group_symop_operation_xyz
x,y,z
-x,-y,z
x,-y,1/2-z
-x,y,1/2-z
-x,-y,-z
x,y,-z
-x,y,1/2+z
x,-y,1/2+z
1/2+x,1/2+y,z
1/2-x,1/2-y,z
1/2+x,1/2-y,1/2-z
1/2-x,1/2+y,1/2-z
1/2-x,1/2-y,-z
1/2+x,1/2+y,-z
1/2-x,1/2+y,1/2+z
1/2+x,1/2-y,1/2+z
loop_
_atom_site_type_symbol
_atom_site_label
_atom_site_fract_x
_atom_site_fract_y
_atom_site_fract_z
Si Si1 0.053014 0.425284 0.178635
Si Si2 0.850059 0.076097 0.680546
Si Si3 0.200259 0.210931 0.323237
Si Si4 0.599930 0.792618 0.673580
Si Si5 0.947378 0.141057 0.820439
O O1 0.074416 0.500000 0.250000
O O2 0.090561 0.359626 0.213186
O O3 0.000000 0.405350 0.250000
O O4 0.046815 0.436154 0.000000
O O5 0.852925 0.070717 0.500000
O O6 0.810437 0.138145 0.726994
O O7 0.904831 0.092135 0.745103
O O8 0.830810 0.000000 0.750000
O O9 0.205096 0.187765 0.500000
O O10 0.250000 0.250000 0.262719
O O11 0.156341 0.268745 0.300572
O O12 0.590875 0.818270 0.500000
O O13 0.563058 0.726115 0.714611
O O14 0.000000 0.118215 0.750000
O O15 0.946947 0.125382 0.000000
#
# Coordination Sequence:
#
# PCOD8276409 Si02
#       5
#    16  16  16  16  16
#     4  11  21  33  50  72 102 138 176 215 260 311
#     4  11  22  37  57  81 111 144 180 220 264 315
#     4   9  19  38  62  84 107 137 174 219 270 319
#     4   9  18  33  53  77 105 135 171 215 261 312
#     4  10  20  34  53  79 110 144 181 219 262 313
#
# _framework density 18.577127999999998
#
# number of rings (size 3 to 8) (size 9 to 14) (size 15 to 20)
#    0.000    2.000    0.000    6.600    0.000    6.400 
#    0.000    3.000    0.000    0.000    0.000    0.000 
#    0.000    0.000    0.000    0.000    0.000    0.000 
#
# Total GULP energy -496147.886874 kJ/mol
# GULP energy per Si atom -12403.697172 kJ/mol
# Density = 1.853485 g / cm^3
# Si number density = 18.577128 Si / 1000 Ang^3
#
#
#
# Elastic Constant Matrix: (Units=GPa)
#
#
# Indices 1 2 3 4 5 6 
#
# 1 95.6995 43.5147 37.9986 0.0000 0.0000 0.0000
# 2 43.5147 117.0959 60.7452 0.0000 0.0000 0.0000
# 3 37.9986 60.7452 134.3319 0.0000 0.0000 0.0000
# 4 0.0000 0.0000 0.0000 33.8395 0.0000 0.0000
# 5 0.0000 0.0000 0.0000 0.0000 26.1153 0.0000
# 6 0.0000 0.0000 0.0000 0.0000 0.0000 16.0394
#
#
#
# Elastic Compliance Matrix: (Units=1/GPa)
#
#
# Indices 1 2 3 4 5 6 
#
# 1 0.012951 -0.003805 -0.001943 0.000000 0.000000 0.000000
# 2 -0.003805 0.012275 -0.004475 0.000000 0.000000 0.000000
# 3 -0.001943 -0.004475 0.010017 0.000000 0.000000 0.000000
# 4 0.000000 0.000000 0.000000 0.029551 0.000000 0.000000
# 5 0.000000 0.000000 0.000000 0.000000 0.038292 0.000000
# 6 0.000000 0.000000 0.000000 0.000000 0.000000 0.062347
#
#
# Mechanical properties :
#
#
# Convention : Reuss Voigt Hill
#
# Bulk Modulus (GPa) = 67.57347 70.18271 68.87809
# Shear Modulus (GPa) = 26.20401 28.85676 27.53038
#
# Velocity S-wave (km/s) = 3.75981 3.94553 3.85379
# Velocity P-wave (km/s) = 7.43651 7.65620 7.54715
#
# Compressibility (1/GPa) = 0.01479871
#
# Stress axis : x y z
#
# Youngs Moduli (GPa) = 77.21479 81.46495 99.82779
#
# Poissons Ratio (x) = 0.30996 0.19395
# Poissons Ratio (y) = 0.29379 0.44669
# Poissons Ratio (z) = 0.15002 0.36452
#
# Static dielectric constant tensor:
#      x y z
#    x 3.353890 0.000000 0.000000 
#    y 0.000000 3.417510 0.000000 
#    z 0.000000 0.000000 3.423520 
# 
# 
# High freq. dielectric constant tensor:
#      x y z
#    x 1.704020 0.000000 0.000000 
#    y 0.000000 1.723980 0.000000 
#    z 0.000000 0.000000 1.728030 
# 
# From -- ./inp_files/6679.got.cif
#   From: 2010.03.12/outbox.cif.g09.slc.cpg/sg66_4_cif.got.tgz:6679.got - 2010.04.10 21:57:39.
