data_PCOD8276216
_publ_section_title
;
Structure prediction by ZEFSAII (Michael W. Deem and Ramdas Pophale) SiO2 
 PCOD8276216
Probable space group: C C C M
;
_chemical_formula_sum "Si O2"
_cell_formula_units_Z 104
_cell_length_a 9.808885
_cell_length_b 22.475645
_cell_length_c 24.396899
_cell_angle_alpha 90.000000
_cell_angle_beta 90.000000
_cell_angle_gamma 90.000000
_cell_volume 5378.565168
_symmetry_space_group_name_H-M "C C C M"
_symmetry_group_IT_number 66
_symmetry_cell_setting 'orthorhombic'
loop_
_space_group_symop_operation_xyz
x,y,z
-x,-y,z
x,-y,1/2-z
-x,y,1/2-z
-x,-y,-z
x,y,-z
-x,y,1/2+z
x,-y,1/2+z
1/2+x,1/2+y,z
1/2-x,1/2-y,z
1/2+x,1/2-y,1/2-z
1/2-x,1/2+y,1/2-z
1/2-x,1/2-y,-z
1/2+x,1/2+y,-z
1/2-x,1/2+y,1/2+z
1/2+x,1/2-y,1/2+z
loop_
_atom_site_type_symbol
_atom_site_label
_atom_site_fract_x
_atom_site_fract_y
_atom_site_fract_z
Si Si1 0.963341 0.641359 0.882475
Si Si2 0.789413 0.053310 0.382122
Si Si3 0.404150 0.754416 0.699438
Si Si4 0.250709 0.916472 0.119986
Si Si5 0.004777 0.126892 0.184873
Si Si6 0.793254 0.938687 0.000000
Si Si7 0.447149 0.859197 0.500000
Si Si8 0.299570 0.066385 0.500000
O O1 0.851377 0.589293 0.886364
O O2 0.913975 0.691611 0.842043
O O3 0.104096 0.611588 0.862980
O O4 0.978474 0.674118 0.942465
O O5 0.887991 0.078600 0.336056
O O6 0.871953 0.057459 0.441285
O O7 0.753437 0.986207 0.365199
O O8 0.500000 0.769114 0.750000
O O9 0.250000 0.750000 0.721312
O O10 0.447132 0.693344 0.669608
O O11 0.140371 0.881945 0.156193
O O12 0.224476 0.907946 0.054542
O O13 0.000000 0.119306 0.250000
O O14 0.693783 0.995485 0.000000
O O15 0.710370 0.877537 0.000000
O O16 0.541998 0.917575 0.500000
#
# Coordination Sequence:
#
# PCOD8276216 Si02
#       8
#    16  16  16  16  16   8   8   8
#     4  10  20  37  63  89 119 149 196 237 281 344
#     4  10  19  37  58  89 122 153 190 232 287 346
#     4  11  25  44  66  84 108 151 204 248 285 339
#     4  10  21  35  61  89 120 156 186 235 287 344
#     4  11  25  41  57  80 116 155 195 241 298 341
#     4   8  15  27  55  83 115 155 190 226 270 339
#     4   8  15  30  53  88 120 149 176 233 294 333
#     4   8  15  31  51  84 119 152 193 220 270 345
#
# _framework density 19.336012
#
# number of rings (size 3 to 8) (size 9 to 14) (size 15 to 20)
#    0.000    2.154    1.538    1.154    4.308    5.538 
#    0.000    4.231    0.000    5.538    0.000    0.000 
#    0.000    0.000    0.000    0.000    0.000    0.000 
#
# Total GULP energy -644312.537232 kJ/mol
# GULP energy per Si atom -12390.625716 kJ/mol
# Density = 1.929200 g / cm^3
# Si number density = 19.336012 Si / 1000 Ang^3
#
#
#
# Elastic Constant Matrix: (Units=GPa)
#
#
# Indices 1 2 3 4 5 6 
#
# 1 104.2870 24.8377 39.8001 0.0000 0.0000 0.0000
# 2 24.8377 76.7543 38.2909 0.0000 0.0000 0.0000
# 3 39.8001 38.2909 92.3240 0.0000 0.0000 0.0000
# 4 0.0000 0.0000 0.0000 -34.0075 0.0000 0.0000
# 5 0.0000 0.0000 0.0000 0.0000 29.8632 0.0000
# 6 0.0000 0.0000 0.0000 0.0000 0.0000 30.0544
#
#
#
# Elastic Compliance Matrix: (Units=1/GPa)
#
#
# Indices 1 2 3 4 5 6 
#
# 1 0.011629 -0.001592 -0.004353 0.000000 0.000000 0.000000
# 2 -0.001592 0.016645 -0.006217 0.000000 0.000000 0.000000
# 3 -0.004353 -0.006217 0.015287 0.000000 0.000000 0.000000
# 4 0.000000 0.000000 0.000000 -0.029405 0.000000 0.000000
# 5 0.000000 0.000000 0.000000 0.000000 0.033486 0.000000
# 6 0.000000 0.000000 0.000000 0.000000 0.000000 0.033273
#
#
# Mechanical properties :
#
#
# Convention : Reuss Voigt Hill
#
# Bulk Modulus (GPa) = 51.98334 53.24699 52.61516
# Shear Modulus (GPa) = 44.78203 16.54447 30.66325
#
# Velocity S-wave (km/s) = 4.81770 2.92829 3.98654
# Velocity P-wave (km/s) = 7.60851 6.24745 6.96133
#
# Compressibility (1/GPa) = 0.01923693
#
# Stress axis : x y z
#
# Youngs Moduli (GPa) = 85.98943 60.07679 65.41619
#
# Poissons Ratio (x) = 0.09561 0.28477
# Poissons Ratio (y) = 0.13685 0.40672
# Poissons Ratio (z) = 0.37433 0.37353
#
# Static dielectric constant tensor:
#      x y z
#    x 3.452310 0.000000 0.000000 
#    y 0.000000 3.406560 0.000000 
#    z 0.000000 0.000000 3.815730 
# 
# 
# High freq. dielectric constant tensor:
#      x y z
#    x 1.748820 0.000000 0.000000 
#    y 0.000000 1.736310 0.000000 
#    z 0.000000 0.000000 1.762370 
# 
# From -- ./inp_files/47440.got.cif
#   From: 2010.03.12/outbox.cif.g09.slc.cpg/sg66_24_cif.got.tgz:47440.got - 2010.04.10 21:57:39.
