data_PCOD8276280
_publ_section_title
;
Structure prediction by ZEFSAII (Michael W. Deem and Ramdas Pophale) SiO2 
 PCOD8276280
Probable space group: C C C M
;
_chemical_formula_sum "Si O2"
_cell_formula_units_Z 112
_cell_length_a 28.543071
_cell_length_b 32.306643
_cell_length_c 9.939981
_cell_angle_alpha 90.000000
_cell_angle_beta 90.000000
_cell_angle_gamma 90.000000
_cell_volume 9165.962680
_symmetry_space_group_name_H-M "C C C M"
_symmetry_group_IT_number 66
_symmetry_cell_setting 'orthorhombic'
loop_
_space_group_symop_operation_xyz
x,y,z
-x,-y,z
x,-y,1/2-z
-x,y,1/2-z
-x,-y,-z
x,y,-z
-x,y,1/2+z
x,-y,1/2+z
1/2+x,1/2+y,z
1/2-x,1/2-y,z
1/2+x,1/2-y,1/2-z
1/2-x,1/2+y,1/2-z
1/2-x,1/2-y,-z
1/2+x,1/2+y,-z
1/2-x,1/2+y,1/2+z
1/2+x,1/2-y,1/2+z
loop_
_atom_site_type_symbol
_atom_site_label
_atom_site_fract_x
_atom_site_fract_y
_atom_site_fract_z
Si Si1 0.769154 0.815057 0.849065
Si Si2 0.542689 0.124318 0.155867
Si Si3 0.133028 0.677505 0.154207
Si Si4 0.805573 0.536131 0.346301
Si Si5 0.414448 0.963549 0.154222
Si Si6 0.774669 0.373819 0.153904
Si Si7 0.675127 0.237576 0.348890
O O1 0.765601 0.853417 0.746363
O O2 0.722318 0.788509 0.840001
O O3 0.812852 0.785233 0.810530
O O4 0.775782 0.832463 0.000000
O O5 0.500000 0.137679 0.250000
O O6 0.584812 0.155182 0.190137
O O7 0.557466 0.077649 0.190721
O O8 0.528103 0.128014 0.000000
O O9 0.174502 0.645283 0.184770
O O10 0.137454 0.718633 0.245629
O O11 0.134376 0.692020 0.000000
O O12 0.786451 0.500000 0.250000
O O13 0.798049 0.522128 0.500000
O O14 0.859974 0.545298 0.318156
O O15 0.776550 0.577503 0.314065
O O16 0.433368 0.000000 0.250000
O O17 0.422759 0.976859 0.000000
O O18 0.760507 0.365696 0.000000
O O19 0.654528 0.235441 0.500000
#
# Coordination Sequence:
#
# PCOD8276280 Si02
#       7
#    16  16  16  16  16  16  16
#     4   8  14  23  34  51  73  90 103 124 153 186
#     4  10  20  32  42  52  67  84 105 137 174 211
#     4   9  16  27  40  51  65  85 106 131 164 199
#     4   9  16  26  38  51  66  85 109 138 169 202
#     4   9  17  30  43  52  64  80 102 135 174 213
#     4   9  15  24  38  52  67  86 108 133 162 196
#     4   8  14  24  36  51  71  89 104 124 151 188
#
# _framework density 12.21912
#
# number of rings (size 3 to 8) (size 9 to 14) (size 15 to 20)
#    0.000    3.143    1.429    0.857    0.000    2.571 
#    0.000    4.286    0.000    0.000    0.000    0.000 
#    0.000    0.000    0.000    0.000    0.000    0.000 
#
# Total GULP energy -694191.990138 kJ/mol
# GULP energy per Si atom -12396.285538 kJ/mol
# Density = 1.219131 g / cm^3
# Si number density = 12.219120 Si / 1000 Ang^3
#
#
#
# Elastic Constant Matrix: (Units=GPa)
#
#
# Indices 1 2 3 4 5 6 
#
# 1 33.1329 36.6959 37.1027 0.0000 0.0000 0.0000
# 2 36.6959 72.5625 60.2536 0.0000 0.0000 0.0000
# 3 37.1027 60.2536 82.2515 0.0000 0.0000 0.0000
# 4 0.0000 0.0000 0.0000 25.1459 0.0000 0.0000
# 5 0.0000 0.0000 0.0000 0.0000 17.0722 0.0000
# 6 0.0000 0.0000 0.0000 0.0000 0.0000 15.4488
#
#
#
# Elastic Compliance Matrix: (Units=1/GPa)
#
#
# Indices 1 2 3 4 5 6 
#
# 1 0.075699 -0.025344 -0.015581 0.000000 0.000000 0.000000
# 2 -0.025344 0.043667 -0.020556 0.000000 0.000000 0.000000
# 3 -0.015581 -0.020556 0.034245 0.000000 0.000000 0.000000
# 4 0.000000 0.000000 0.000000 0.039768 0.000000 0.000000
# 5 0.000000 0.000000 0.000000 0.000000 0.058575 0.000000
# 6 0.000000 0.000000 0.000000 0.000000 0.000000 0.064730
#
#
# Mechanical properties :
#
#
# Convention : Reuss Voigt Hill
#
# Bulk Modulus (GPa) = 32.62813 50.67236 41.65025
# Shear Modulus (GPa) = 11.11450 15.12634 13.12042
#
# Velocity S-wave (km/s) = 3.01923 3.52223 3.28038
# Velocity P-wave (km/s) = 6.23817 7.62242 6.96477
#
# Compressibility (1/GPa) = 0.03064840
#
# Stress axis : x y z
#
# Youngs Moduli (GPa) = 13.21024 22.90040 29.20144
#
# Poissons Ratio (x) = 0.58039 0.45499
# Poissons Ratio (y) = 0.33480 0.60027
# Poissons Ratio (z) = 0.20583 0.47075
#
# Static dielectric constant tensor:
#      x y z
#    x 2.196250 0.000000 0.000000 
#    y 0.000000 2.569930 0.000000 
#    z 0.000000 0.000000 2.646740 
# 
# 
# High freq. dielectric constant tensor:
#      x y z
#    x 1.409590 0.000000 0.000000 
#    y 0.000000 1.450280 0.000000 
#    z 0.000000 0.000000 1.473570 
# 
# From -- ./inp_files/20036.got.cif
#   From: 2010.03.12/outbox.cif.g09.slc.cpg/sg66_11_cif.got.tgz:20036.got - 2010.04.10 21:57:39.
