data_PCOD8276715
_publ_section_title
;
Structure prediction by ZEFSAII (Michael W. Deem and Ramdas Pophale) SiO2 
 PCOD8276715
Probable space group: C C C M
;
_chemical_formula_sum "Si O2"
_cell_formula_units_Z 120
_cell_length_a 12.573077
_cell_length_b 19.260170
_cell_length_c 25.364193
_cell_angle_alpha 90.000000
_cell_angle_beta 90.000000
_cell_angle_gamma 90.000000
_cell_volume 6142.182842
_symmetry_space_group_name_H-M "C C C M"
_symmetry_group_IT_number 66
_symmetry_cell_setting 'orthorhombic'
loop_
_space_group_symop_operation_xyz
x,y,z
-x,-y,z
x,-y,1/2-z
-x,y,1/2-z
-x,-y,-z
x,y,-z
-x,y,1/2+z
x,-y,1/2+z
1/2+x,1/2+y,z
1/2-x,1/2-y,z
1/2+x,1/2-y,1/2-z
1/2-x,1/2+y,1/2-z
1/2-x,1/2-y,-z
1/2+x,1/2+y,-z
1/2-x,1/2+y,1/2+z
1/2+x,1/2-y,1/2+z
loop_
_atom_site_type_symbol
_atom_site_label
_atom_site_fract_x
_atom_site_fract_y
_atom_site_fract_z
Si Si1 0.379684 0.499653 0.596148
Si Si2 0.839652 0.803920 0.334289
Si Si3 0.750000 0.250000 0.361113
Si Si4 0.957427 0.569044 0.691529
Si Si5 0.135260 0.850299 0.559225
Si Si6 0.530174 0.787483 0.188863
Si Si7 0.287587 0.549283 0.799668
Si Si8 0.612314 0.352119 0.057697
O O1 0.500000 0.500000 0.616801
O O2 0.344700 0.567740 0.564845
O O3 0.310467 0.495292 0.648798
O O4 0.366754 0.434688 0.557055
O O5 0.750000 0.750000 0.313074
O O6 0.846663 0.875238 0.299737
O O7 0.815038 0.820317 0.395842
O O8 0.957665 0.772738 0.334854
O O9 0.791375 0.188569 0.398444
O O10 0.654507 0.226009 0.322528
O O11 0.832915 0.571380 0.697156
O O12 0.000000 0.500000 0.661096
O O13 0.000000 0.567360 0.750000
O O14 0.999331 0.638403 0.662223
O O15 0.168969 0.828307 0.500000
O O16 0.011172 0.833866 0.568410
O O17 0.500000 0.790975 0.250000
O O18 0.316375 0.500000 0.750000
O O19 0.646677 0.323604 0.000000
#
# Coordination Sequence:
#
# PCOD8276715 Si02
#       8
#    16  16   8  16  16  16  16  16
#     4   9  20  35  56  87 119 156 201 252 319 382
#     4  11  22  41  60  90 125 161 209 253 312 374
#     4  12  25  40  62  94 126 162 213 252 314 384
#     4  10  20  37  59  84 110 158 216 243 287 360
#     4  10  20  37  61  87 121 158 205 265 319 372
#     4  11  26  41  61  89 126 169 203 254 305 372
#     4  11  22  37  61  87 123 165 206 260 306 369
#     4   9  18  37  61  87 118 155 204 259 316 374
#
# _framework density 19.537026999999998
#
# number of rings (size 3 to 8) (size 9 to 14) (size 15 to 20)
#    0.000    1.733    4.000    0.600    2.800    3.200 
#    0.000    0.000    0.000    0.000    0.000    0.933 
#    0.000    0.000    0.000    0.000    0.000    0.000 
#
# Total GULP energy -743532.379684 kJ/mol
# GULP energy per Si atom -12392.206328 kJ/mol
# Density = 1.949256 g / cm^3
# Si number density = 19.537027 Si / 1000 Ang^3
#
#
#
# Elastic Constant Matrix: (Units=GPa)
#
#
# Indices 1 2 3 4 5 6 
#
# 1 84.7609 40.9946 36.0911 0.0000 0.0000 0.0000
# 2 40.9946 130.7753 37.5821 0.0000 0.0000 0.0000
# 3 36.0911 37.5821 93.8710 0.0000 0.0000 0.0000
# 4 0.0000 0.0000 0.0000 19.1772 0.0000 0.0000
# 5 0.0000 0.0000 0.0000 0.0000 22.8850 0.0000
# 6 0.0000 0.0000 0.0000 0.0000 0.0000 33.5905
#
#
#
# Elastic Compliance Matrix: (Units=1/GPa)
#
#
# Indices 1 2 3 4 5 6 
#
# 1 0.015433 -0.003540 -0.004516 0.000000 0.000000 0.000000
# 2 -0.003540 0.009453 -0.002424 0.000000 0.000000 0.000000
# 3 -0.004516 -0.002424 0.013360 0.000000 0.000000 0.000000
# 4 0.000000 0.000000 0.000000 0.052145 0.000000 0.000000
# 5 0.000000 0.000000 0.000000 0.000000 0.043697 0.000000
# 6 0.000000 0.000000 0.000000 0.000000 0.000000 0.029770
#
#
# Mechanical properties :
#
#
# Convention : Reuss Voigt Hill
#
# Bulk Modulus (GPa) = 57.85073 59.86030 58.85551
# Shear Modulus (GPa) = 26.23577 28.11317 27.17447
#
# Velocity S-wave (km/s) = 3.66850 3.79749 3.73355
# Velocity P-wave (km/s) = 6.90065 7.06639 6.98401
#
# Compressibility (1/GPa) = 0.01728587
#
# Stress axis : x y z
#
# Youngs Moduli (GPa) = 64.79599 105.78821 74.85239
#
# Poissons Ratio (x) = 0.37448 0.33806
# Poissons Ratio (y) = 0.22937 0.18141
# Poissons Ratio (z) = 0.29264 0.25638
#
# Static dielectric constant tensor:
#      x y z
#    x 3.380940 0.000000 0.000000 
#    y 0.000000 5.224380 0.000000 
#    z 0.000000 0.000000 3.415010 
# 
# 
# High freq. dielectric constant tensor:
#      x y z
#    x 1.748500 0.000000 0.000000 
#    y 0.000000 1.776270 0.000000 
#    z 0.000000 0.000000 1.743340 
# 
# From -- ./inp_files/63954.got.cif
#   From: 2010.03.12/outbox.cif.g09.slc.cpg/sg66_32_cif.got.tgz:63954.got - 2010.04.10 21:57:39.
