data_PCOD8276932
_publ_section_title
;
Structure prediction by ZEFSAII (Michael W. Deem and Ramdas Pophale) SiO2 
 PCOD8276932
Probable space group: C C C M
;
_chemical_formula_sum "Si O2"
_cell_formula_units_Z 80
_cell_length_a 21.990512
_cell_length_b 23.162228
_cell_length_c 9.556207
_cell_angle_alpha 90.000000
_cell_angle_beta 90.000000
_cell_angle_gamma 90.000000
_cell_volume 4867.446895
_symmetry_space_group_name_H-M "C C C M"
_symmetry_group_IT_number 66
_symmetry_cell_setting 'orthorhombic'
loop_
_space_group_symop_operation_xyz
x,y,z
-x,-y,z
x,-y,1/2-z
-x,y,1/2-z
-x,-y,-z
x,y,-z
-x,y,1/2+z
x,-y,1/2+z
1/2+x,1/2+y,z
1/2-x,1/2-y,z
1/2+x,1/2-y,1/2-z
1/2-x,1/2+y,1/2-z
1/2-x,1/2-y,-z
1/2+x,1/2+y,-z
1/2-x,1/2+y,1/2+z
1/2+x,1/2-y,1/2+z
loop_
_atom_site_type_symbol
_atom_site_label
_atom_site_fract_x
_atom_site_fract_y
_atom_site_fract_z
Si Si1 0.403432 0.476571 0.500000
Si Si2 0.288806 0.378413 0.162552
Si Si3 0.307419 0.791353 0.653657
Si Si4 0.000000 0.167661 0.750000
Si Si5 0.478297 0.407607 0.000000
Si Si6 0.178114 0.000000 0.750000
Si Si7 0.873301 0.794250 0.336593
O O1 0.434406 0.538536 0.500000
O O2 0.450986 0.424736 0.500000
O O3 0.363361 0.469123 0.635891
O O4 0.221094 0.353626 0.195295
O O5 0.282729 0.447267 0.188034
O O6 0.339711 0.347261 0.258383
O O7 0.306743 0.367302 0.000000
O O8 0.339386 0.794016 0.500000
O O9 0.250000 0.750000 0.644275
O O10 0.353654 0.767407 0.770066
O O11 0.964614 0.128724 0.637563
O O12 0.946611 0.204567 0.821862
O O13 0.855459 0.795896 0.500000
#
# Coordination Sequence:
#
# PCOD8276932 Si02
#       7
#     8  16  16   8   8   8  16
#     4  11  22  34  48  64  92 134 176 211 242 274
#     4  10  21  36  52  71  98 131 165 203 256 305
#     4   8  17  34  54  71  92 125 159 200 256 311
#     4  12  24  33  48  70  96 131 168 214 250 292
#     4  11  22  36  46  62  94 134 176 209 244 280
#     4  12  22  33  50  72  96 129 170 214 244 290
#     4  11  22  34  51  74  96 125 168 212 254 294
#
# _framework density 16.435721000000001
#
# number of rings (size 3 to 8) (size 9 to 14) (size 15 to 20)
#    0.000    1.600    2.000    5.400    4.200    5.200 
#    0.000    0.000    0.000    0.000    0.000    0.000 
#    0.000    0.800    0.000    6.200    0.000    1.400 
#
# Total GULP energy -495847.413741 kJ/mol
# GULP energy per Si atom -12396.185344 kJ/mol
# Density = 1.639831 g / cm^3
# Si number density = 16.435721 Si / 1000 Ang^3
#
#
#
# Elastic Constant Matrix: (Units=GPa)
#
#
# Indices 1 2 3 4 5 6 
#
# 1 48.8728 37.2741 30.4790 0.0000 0.0000 0.0000
# 2 37.2741 77.9818 29.8066 0.0000 0.0000 0.0000
# 3 30.4790 29.8066 114.5684 0.0000 0.0000 0.0000
# 4 0.0000 0.0000 0.0000 24.3679 0.0000 0.0000
# 5 0.0000 0.0000 0.0000 0.0000 21.8190 0.0000
# 6 0.0000 0.0000 0.0000 0.0000 0.0000 11.1738
#
#
#
# Elastic Compliance Matrix: (Units=1/GPa)
#
#
# Indices 1 2 3 4 5 6 
#
# 1 0.035084 -0.014660 -0.005520 0.000000 0.000000 0.000000
# 2 -0.014660 0.020365 -0.001398 0.000000 0.000000 0.000000
# 3 -0.005520 -0.001398 0.010561 0.000000 0.000000 0.000000
# 4 0.000000 0.000000 0.000000 0.041038 0.000000 0.000000
# 5 0.000000 0.000000 0.000000 0.000000 0.045832 0.000000
# 6 0.000000 0.000000 0.000000 0.000000 0.000000 0.089495
#
#
# Mechanical properties :
#
#
# Convention : Reuss Voigt Hill
#
# Bulk Modulus (GPa) = 43.75521 48.50469 46.12995
# Shear Modulus (GPa) = 17.05619 21.06302 19.05960
#
# Velocity S-wave (km/s) = 3.22491 3.58374 3.40905
# Velocity P-wave (km/s) = 6.36762 6.83375 6.60480
#
# Compressibility (1/GPa) = 0.02285442
#
# Stress axis : x y z
#
# Youngs Moduli (GPa) = 28.50270 49.10328 94.69183
#
# Poissons Ratio (x) = 0.71986 0.52266
# Poissons Ratio (y) = 0.41785 0.13240
# Poissons Ratio (z) = 0.15732 0.06866
#
# Static dielectric constant tensor:
#      x y z
#    x 3.003070 0.000000 0.000000 
#    y 0.000000 3.296320 0.000000 
#    z 0.000000 0.000000 3.294620 
# 
# 
# High freq. dielectric constant tensor:
#      x y z
#    x 1.593010 0.000000 0.000000 
#    y 0.000000 1.611250 0.000000 
#    z 0.000000 0.000000 1.653010 
# 
# From -- ./inp_files/10223.got.cif
#   From: 2010.03.12/outbox.cif.g09.slc.cpg/sg66_6_cif.got.tgz:10223.got - 2010.04.10 21:57:39.
