data_PCOD8276928
_publ_section_title
;
Structure prediction by ZEFSAII (Michael W. Deem and Ramdas Pophale) SiO2 
 PCOD8276928
Probable space group: C C C M
;
_chemical_formula_sum "Si O2"
_cell_formula_units_Z 112
_cell_length_a 10.769898
_cell_length_b 22.021458
_cell_length_c 23.602955
_cell_angle_alpha 90.000000
_cell_angle_beta 90.000000
_cell_angle_gamma 90.000000
_cell_volume 5597.885847
_symmetry_space_group_name_H-M "C C C M"
_symmetry_group_IT_number 66
_symmetry_cell_setting 'orthorhombic'
loop_
_space_group_symop_operation_xyz
x,y,z
-x,-y,z
x,-y,1/2-z
-x,y,1/2-z
-x,-y,-z
x,y,-z
-x,y,1/2+z
x,-y,1/2+z
1/2+x,1/2+y,z
1/2-x,1/2-y,z
1/2+x,1/2-y,1/2-z
1/2-x,1/2+y,1/2-z
1/2-x,1/2-y,-z
1/2+x,1/2+y,-z
1/2-x,1/2+y,1/2+z
1/2+x,1/2-y,1/2+z
loop_
_atom_site_type_symbol
_atom_site_label
_atom_site_fract_x
_atom_site_fract_y
_atom_site_fract_z
Si Si1 0.938187 0.634281 0.063816
Si Si2 0.366320 0.529208 0.563607
Si Si3 0.644075 0.699433 0.755917
Si Si4 0.037457 0.772850 0.564945
Si Si5 0.688002 0.315213 0.131886
Si Si6 0.307976 0.920524 0.935456
Si Si7 0.196268 0.142906 0.127404
O O1 0.992748 0.702022 0.072757
O O2 0.838299 0.624496 0.113385
O O3 0.041835 0.581245 0.069281
O O4 0.880463 0.630759 0.000000
O O5 0.500000 0.500000 0.564755
O O6 0.333157 0.551047 0.500000
O O7 0.255920 0.483405 0.584107
O O8 0.381734 0.585714 0.605433
O O9 0.500000 0.724442 0.750000
O O10 0.750000 0.750000 0.766450
O O11 0.671151 0.665635 0.697176
O O12 0.663614 0.651432 0.806552
O O13 0.032468 0.792489 0.500000
O O14 0.167993 0.794886 0.592225
O O15 0.941881 0.813685 0.599863
O O16 0.750000 0.250000 0.126374
O O17 0.770903 0.366008 0.104524
O O18 0.266460 0.906764 0.000000
#
# Coordination Sequence:
#
# PCOD8276928 Si02
#       7
#    16  16  16  16  16  16  16
#     4  10  21  35  58  94 128 160 200 258 328 394
#     4  10  22  40  63  91 125 168 214 266 320 385
#     4  11  25  42  65  92 128 171 219 266 323 385
#     4  11  20  32  56  88 123 156 197 256 322 385
#     4  11  21  36  60  88 122 158 209 257 316 374
#     4  10  21  38  61  93 130 166 209 260 323 388
#     4  12  23  39  60  85 125 169 216 256 321 386
#
# _framework density 20.007553999999999
#
# number of rings (size 3 to 8) (size 9 to 14) (size 15 to 20)
#    0.000    1.286    2.857    3.857    0.000    3.429 
#    0.000    2.857    0.000    0.000    0.000    2.000 
#    0.000    0.000    0.000    0.000    0.000    0.000 
#
# Total GULP energy -693999.906707 kJ/mol
# GULP energy per Si atom -12392.855477 kJ/mol
# Density = 1.996202 g / cm^3
# Si number density = 20.007554 Si / 1000 Ang^3
#
#
#
# Elastic Constant Matrix: (Units=GPa)
#
#
# Indices 1 2 3 4 5 6 
#
# 1 101.6827 30.5268 27.0176 0.0000 0.0000 0.0000
# 2 30.5268 54.7005 34.9787 0.0000 0.0000 0.0000
# 3 27.0176 34.9787 117.8591 0.0000 0.0000 0.0000
# 4 0.0000 0.0000 0.0000 23.6018 0.0000 0.0000
# 5 0.0000 0.0000 0.0000 0.0000 45.2288 0.0000
# 6 0.0000 0.0000 0.0000 0.0000 0.0000 35.1014
#
#
#
# Elastic Compliance Matrix: (Units=1/GPa)
#
#
# Indices 1 2 3 4 5 6 
#
# 1 0.011897 -0.006042 -0.000934 0.000000 0.000000 0.000000
# 2 -0.006042 0.025632 -0.006222 0.000000 0.000000 0.000000
# 3 -0.000934 -0.006222 0.010545 0.000000 0.000000 0.000000
# 4 0.000000 0.000000 0.000000 0.042370 0.000000 0.000000
# 5 0.000000 0.000000 0.000000 0.000000 0.022110 0.000000
# 6 0.000000 0.000000 0.000000 0.000000 0.000000 0.028489
#
#
# Mechanical properties :
#
#
# Convention : Reuss Voigt Hill
#
# Bulk Modulus (GPa) = 46.12984 51.03205 48.58094
# Shear Modulus (GPa) = 28.62635 32.90103 30.76369
#
# Velocity S-wave (km/s) = 3.78666 4.05956 3.92548
# Velocity P-wave (km/s) = 6.49805 6.89457 6.69925
#
# Compressibility (1/GPa) = 0.02167794
#
# Stress axis : x y z
#
# Youngs Moduli (GPa) = 84.05806 39.01380 94.82764
#
# Poissons Ratio (x) = 0.23572 0.08857
# Poissons Ratio (y) = 0.50787 0.59003
# Poissons Ratio (z) = 0.07851 0.24275
#
# Static dielectric constant tensor:
#      x y z
#    x 3.855170 0.000000 0.000000 
#    y 0.000000 3.483320 0.000000 
#    z 0.000000 0.000000 3.657920 
# 
# 
# High freq. dielectric constant tensor:
#      x y z
#    x 1.796730 0.000000 0.000000 
#    y 0.000000 1.761580 0.000000 
#    z 0.000000 0.000000 1.767760 
# 
# From -- ./inp_files/57168.got.cif
#   From: 2010.03.12/outbox.cif.g09.slc.cpg/sg66_29_cif.got.tgz:57168.got - 2010.04.10 21:57:39.
