data_PCOD8276606
_publ_section_title
;
Structure prediction by ZEFSAII (Michael W. Deem and Ramdas Pophale) SiO2 
 PCOD8276606
Probable space group: C C C M
;
_chemical_formula_sum "Si O2"
_cell_formula_units_Z 88
_cell_length_a 8.842630
_cell_length_b 21.376965
_cell_length_c 26.086048
_cell_angle_alpha 90.000000
_cell_angle_beta 90.000000
_cell_angle_gamma 90.000000
_cell_volume 4931.008925
_symmetry_space_group_name_H-M "C C C M"
_symmetry_group_IT_number 66
_symmetry_cell_setting 'orthorhombic'
loop_
_space_group_symop_operation_xyz
x,y,z
-x,-y,z
x,-y,1/2-z
-x,y,1/2-z
-x,-y,-z
x,y,-z
-x,y,1/2+z
x,-y,1/2+z
1/2+x,1/2+y,z
1/2-x,1/2-y,z
1/2+x,1/2-y,1/2-z
1/2-x,1/2+y,1/2-z
1/2-x,1/2-y,-z
1/2+x,1/2+y,-z
1/2-x,1/2+y,1/2+z
1/2+x,1/2-y,1/2+z
loop_
_atom_site_type_symbol
_atom_site_label
_atom_site_fract_x
_atom_site_fract_y
_atom_site_fract_z
Si Si1 0.935107 0.117938 0.306349
Si Si2 0.000000 0.000000 0.128460
Si Si3 0.831885 0.314665 0.647159
Si Si4 0.232572 0.531916 0.057695
Si Si5 0.933667 0.401266 0.557827
Si Si6 0.925180 0.761224 0.695055
O O1 0.762999 0.145826 0.310166
O O2 0.000000 0.102404 0.250000
O O3 0.041347 0.171821 0.332878
O O4 0.927630 0.053543 0.336878
O O5 0.875504 0.035588 0.094701
O O6 0.750000 0.250000 0.633715
O O7 0.855050 0.351616 0.594646
O O8 0.998145 0.298833 0.668940
O O9 0.165366 0.463087 0.059573
O O10 0.105212 0.582076 0.075162
O O11 0.285928 0.547663 0.000000
O O12 0.934941 0.374065 0.500000
O O13 0.750000 0.750000 0.699628
O O14 0.000000 0.771802 0.750000
#
# Coordination Sequence:
#
# PCOD8276606 Si02
#       6
#    16   8  16  16  16  16
#     4  10  21  36  51  80 113 146 178 222 274 317
#     4  12  20  32  58  82 112 144 176 230 270 326
#     4  10  20  36  57  81 111 145 186 219 270 332
#     4   9  19  34  55  79 107 143 184 227 268 322
#     4   9  18  36  56  78 109 143 183 229 275 323
#     4  10  20  36  58  79 105 144 186 225 263 322
#
# _framework density 17.846246000000001
#
# number of rings (size 3 to 8) (size 9 to 14) (size 15 to 20)
#    0.000    2.182    1.818    4.364    2.545    0.364 
#    0.000    0.000    0.000    0.545    0.000    0.000 
#    0.000    0.000    0.000    0.000    0.000    0.000 
#
# Total GULP energy -545236.094466 kJ/mol
# GULP energy per Si atom -12391.729420 kJ/mol
# Density = 1.780563 g / cm^3
# Si number density = 17.846246 Si / 1000 Ang^3
#
#
#
# Elastic Constant Matrix: (Units=GPa)
#
#
# Indices 1 2 3 4 5 6 
#
# 1 120.0929 31.3475 40.2002 0.0000 0.0000 0.0000
# 2 31.3475 77.3872 34.0682 0.0000 0.0000 0.0000
# 3 40.2002 34.0682 83.5287 0.0000 0.0000 0.0000
# 4 0.0000 0.0000 0.0000 19.3710 0.0000 0.0000
# 5 0.0000 0.0000 0.0000 0.0000 27.9544 0.0000
# 6 0.0000 0.0000 0.0000 0.0000 0.0000 16.6801
#
#
#
# Elastic Compliance Matrix: (Units=1/GPa)
#
#
# Indices 1 2 3 4 5 6 
#
# 1 0.010285 -0.002422 -0.003962 0.000000 0.000000 0.000000
# 2 -0.002422 0.016320 -0.005491 0.000000 0.000000 0.000000
# 3 -0.003962 -0.005491 0.016118 0.000000 0.000000 0.000000
# 4 0.000000 0.000000 0.000000 0.051623 0.000000 0.000000
# 5 0.000000 0.000000 0.000000 0.000000 0.035773 0.000000
# 6 0.000000 0.000000 0.000000 0.000000 0.000000 0.059952
#
#
# Mechanical properties :
#
#
# Convention : Reuss Voigt Hill
#
# Bulk Modulus (GPa) = 52.70382 54.69341 53.69862
# Shear Modulus (GPa) = 22.71214 24.49397 23.60305
#
# Velocity S-wave (km/s) = 3.57130 3.70875 3.64067
# Velocity P-wave (km/s) = 6.82656 7.00380 6.91575
#
# Compressibility (1/GPa) = 0.01897396
#
# Stress axis : x y z
#
# Youngs Moduli (GPa) = 97.22481 61.27317 62.04112
#
# Poissons Ratio (x) = 0.14841 0.24582
# Poissons Ratio (y) = 0.23548 0.34065
# Poissons Ratio (z) = 0.38523 0.33644
#
# Static dielectric constant tensor:
#      x y z
#    x 3.409630 0.000000 0.000000 
#    y 0.000000 3.381530 0.000000 
#    z 0.000000 0.000000 3.291630 
# 
# 
# High freq. dielectric constant tensor:
#      x y z
#    x 1.693920 0.000000 0.000000 
#    y 0.000000 1.687730 0.000000 
#    z 0.000000 0.000000 1.675980 
# 
# From -- ./inp_files/55468.got.cif
#   From: 2010.03.12/outbox.cif.g09.slc.cpg/sg66_28_cif.got.tgz:55468.got - 2010.04.10 21:57:39.
