data_PCOD8276015
_publ_section_title
;
Structure prediction by ZEFSAII (Michael W. Deem and Ramdas Pophale) SiO2 
 PCOD8276015
Probable space group: C C C M
;
_chemical_formula_sum "Si O2"
_cell_formula_units_Z 116
_cell_length_a 10.050888
_cell_length_b 24.034304
_cell_length_c 24.700951
_cell_angle_alpha 90.000000
_cell_angle_beta 90.000000
_cell_angle_gamma 90.000000
_cell_volume 5966.912342
_symmetry_space_group_name_H-M "C C C M"
_symmetry_group_IT_number 66
_symmetry_cell_setting 'orthorhombic'
loop_
_space_group_symop_operation_xyz
x,y,z
-x,-y,z
x,-y,1/2-z
-x,y,1/2-z
-x,-y,-z
x,y,-z
-x,y,1/2+z
x,-y,1/2+z
1/2+x,1/2+y,z
1/2-x,1/2-y,z
1/2+x,1/2-y,1/2-z
1/2-x,1/2+y,1/2-z
1/2-x,1/2-y,-z
1/2+x,1/2+y,-z
1/2-x,1/2+y,1/2+z
1/2+x,1/2-y,1/2+z
loop_
_atom_site_type_symbol
_atom_site_label
_atom_site_fract_x
_atom_site_fract_y
_atom_site_fract_z
Si Si1 0.794464 0.387065 0.060232
Si Si2 0.941307 0.191520 0.906675
Si Si3 0.286731 0.948540 0.173505
Si Si4 0.611439 0.459590 0.366539
Si Si5 0.000000 0.500000 0.250000
Si Si6 0.062579 0.871793 0.195784
Si Si7 0.531059 0.192765 0.560518
Si Si8 0.710153 0.634292 0.938100
O O1 0.684601 0.338028 0.065311
O O2 0.796129 0.431662 0.109316
O O3 0.939594 0.361030 0.061845
O O4 0.773250 0.414685 0.000000
O O5 0.929876 0.181022 0.842955
O O6 0.950614 0.257992 0.909947
O O7 0.072720 0.166553 0.933509
O O8 0.418331 0.959573 0.209058
O O9 0.207314 0.899569 0.204312
O O10 0.207959 0.006553 0.173208
O O11 0.500000 0.500000 0.394704
O O12 0.534813 0.417508 0.328431
O O13 0.698680 0.426084 0.410131
O O14 0.000000 0.848004 0.250000
O O15 0.558968 0.214401 0.500000
O O16 0.671748 0.173114 0.587236
O O17 0.747091 0.622242 0.000000
#
# Coordination Sequence:
#
# PCOD8276015 Si02
#       8
#    16  16  16  16   4  16  16  16
#     4  10  21  37  57  83 114 149 187 231 282 342
#     4  10  19  33  58  83 108 145 190 230 272 334
#     4  10  22  36  56  82 108 144 190 230 276 337
#     4   9  19  34  55  80 105 142 183 228 277 327
#     4  12  24  36  56  76 108 152 188 232 280 336
#     4   9  18  36  58  80 105 137 184 238 280 326
#     4  10  20  34  54  80 114 150 180 222 280 337
#     4  10  20  32  52  83 115 144 178 222 273 328
#
# _framework density 19.440539999999999
#
# number of rings (size 3 to 8) (size 9 to 14) (size 15 to 20)
#    0.000    2.207    0.000    3.724    1.931    4.966 
#    0.000    0.345    1.517    4.966    0.000    0.000 
#    0.000    0.000    0.000    0.000    0.000    0.000 
#
# Total GULP energy -718702.473804 kJ/mol
# GULP energy per Si atom -12391.421962 kJ/mol
# Density = 1.939629 g / cm^3
# Si number density = 19.440540 Si / 1000 Ang^3
#
#
#
# Elastic Constant Matrix: (Units=GPa)
#
#
# Indices 1 2 3 4 5 6 
#
# 1 104.3208 22.0275 33.3376 0.0000 0.0000 0.0000
# 2 22.0275 56.4906 23.8596 0.0000 0.0000 0.0000
# 3 33.3376 23.8596 107.4572 0.0000 0.0000 0.0000
# 4 0.0000 0.0000 0.0000 15.9647 0.0000 0.0000
# 5 0.0000 0.0000 0.0000 0.0000 29.6794 0.0000
# 6 0.0000 0.0000 0.0000 0.0000 0.0000 25.6563
#
#
#
# Elastic Compliance Matrix: (Units=1/GPa)
#
#
# Indices 1 2 3 4 5 6 
#
# 1 0.011136 -0.003181 -0.002748 0.000000 0.000000 0.000000
# 2 -0.003181 0.020443 -0.003552 0.000000 0.000000 0.000000
# 3 -0.002748 -0.003552 0.010947 0.000000 0.000000 0.000000
# 4 0.000000 0.000000 0.000000 0.062638 0.000000 0.000000
# 5 0.000000 0.000000 0.000000 0.000000 0.033693 0.000000
# 6 0.000000 0.000000 0.000000 0.000000 0.000000 0.038977
#
#
# Mechanical properties :
#
#
# Convention : Reuss Voigt Hill
#
# Bulk Modulus (GPa) = 42.44066 47.41314 44.92690
# Shear Modulus (GPa) = 24.43167 26.86301 25.64734
#
# Velocity S-wave (km/s) = 3.54890 3.72130 3.63612
# Velocity P-wave (km/s) = 6.21862 6.55025 6.38659
#
# Compressibility (1/GPa) = 0.02356231
#
# Stress axis : x y z
#
# Youngs Moduli (GPa) = 89.79982 48.91679 91.34589
#
# Poissons Ratio (x) = 0.15562 0.25106
# Poissons Ratio (y) = 0.28569 0.32447
# Poissons Ratio (z) = 0.24681 0.17376
#
# Static dielectric constant tensor:
#      x y z
#    x 3.694190 0.000000 0.000000 
#    y 0.000000 3.457150 0.000000 
#    z 0.000000 0.000000 3.572430 
# 
# 
# High freq. dielectric constant tensor:
#      x y z
#    x 1.767660 0.000000 0.000000 
#    y 0.000000 1.741250 0.000000 
#    z 0.000000 0.000000 1.741850 
# 
# From -- ./inp_files/55917.got.cif
#   From: 2010.03.12/outbox.cif.g09.slc.cpg/sg66_28_cif.got.tgz:55917.got - 2010.04.10 21:57:39.
