data_PCOD8276533
_publ_section_title
;
Structure prediction by ZEFSAII (Michael W. Deem and Ramdas Pophale) SiO2 
 PCOD8276533
Probable space group: C C C M
;
_chemical_formula_sum "Si O2"
_cell_formula_units_Z 68
_cell_length_a 6.755185
_cell_length_b 31.156700
_cell_length_c 18.259697
_cell_angle_alpha 90.000000
_cell_angle_beta 90.000000
_cell_angle_gamma 90.000000
_cell_volume 3843.105143
_symmetry_space_group_name_H-M "C C C M"
_symmetry_group_IT_number 66
_symmetry_cell_setting 'orthorhombic'
loop_
_space_group_symop_operation_xyz
x,y,z
-x,-y,z
x,-y,1/2-z
-x,y,1/2-z
-x,-y,-z
x,y,-z
-x,y,1/2+z
x,-y,1/2+z
1/2+x,1/2+y,z
1/2-x,1/2-y,z
1/2+x,1/2-y,1/2-z
1/2-x,1/2+y,1/2-z
1/2-x,1/2-y,-z
1/2+x,1/2+y,-z
1/2-x,1/2+y,1/2+z
1/2+x,1/2-y,1/2+z
loop_
_atom_site_type_symbol
_atom_site_label
_atom_site_fract_x
_atom_site_fract_y
_atom_site_fract_z
Si Si1 0.868029 0.918151 0.684079
Si Si2 0.886934 0.863996 0.085625
Si Si3 0.514748 0.141024 0.829670
Si Si4 0.000000 0.000000 0.250000
Si Si5 0.288900 0.297232 0.585647
O O1 0.641546 0.902440 0.683819
O O2 0.000000 0.896771 0.750000
O O3 0.967407 0.903229 0.607508
O O4 0.867235 0.969812 0.696358
O O5 0.694542 0.869960 0.135024
O O6 0.995567 0.818141 0.103282
O O7 0.834976 0.867680 0.000000
O O8 0.500000 0.163386 0.750000
O O9 0.617995 0.173150 0.884205
O O10 0.255684 0.295297 0.500000
O O11 0.250000 0.250000 0.619625
#
# Coordination Sequence:
#
# PCOD8276533 Si02
#       5
#    16  16  16   4  16
#     4   9  18  35  57  79 105 140 187 227 276 343
#     4  10  20  35  57  82 110 144 183 232 283 334
#     4  11  19  33  54  79 108 143 184 230 278 335
#     4   8  16  36  60  80 104 154 190 228 290 340
#     4   9  20  37  53  75 108 145 185 224 271 333
#
# _framework density 17.694026000000001
#
# number of rings (size 3 to 8) (size 9 to 14) (size 15 to 20)
#    0.706    1.647    2.353    0.706    0.000    1.882 
#    4.235    9.412    0.000    1.412    0.000    0.000 
#    0.000    0.000    0.000    0.000    0.000    0.000 
#
# Total GULP energy -421217.254499 kJ/mol
# GULP energy per Si atom -12388.742779 kJ/mol
# Density = 1.765375 g / cm^3
# Si number density = 17.694026 Si / 1000 Ang^3
#
#
#
# Elastic Constant Matrix: (Units=GPa)
#
#
# Indices 1 2 3 4 5 6 
#
# 1 108.1695 44.9463 41.6818 0.0000 0.0000 0.0000
# 2 44.9463 128.8643 25.9162 0.0000 0.0000 0.0000
# 3 41.6818 25.9162 57.1585 0.0000 0.0000 0.0000
# 4 0.0000 0.0000 0.0000 26.9433 0.0000 0.0000
# 5 0.0000 0.0000 0.0000 0.0000 36.3014 0.0000
# 6 0.0000 0.0000 0.0000 0.0000 0.0000 6.0410
#
#
#
# Elastic Compliance Matrix: (Units=1/GPa)
#
#
# Indices 1 2 3 4 5 6 
#
# 1 0.013893 -0.003090 -0.008730 0.000000 0.000000 0.000000
# 2 -0.003090 0.009226 -0.001930 0.000000 0.000000 0.000000
# 3 -0.008730 -0.001930 0.024736 0.000000 0.000000 0.000000
# 4 0.000000 0.000000 0.000000 0.037115 0.000000 0.000000
# 5 0.000000 0.000000 0.000000 0.000000 0.027547 0.000000
# 6 0.000000 0.000000 0.000000 0.000000 0.000000 0.165534
#
#
# Mechanical properties :
#
#
# Convention : Reuss Voigt Hill
#
# Bulk Modulus (GPa) = 49.12675 57.69786 53.41230
# Shear Modulus (GPa) = 16.00840 25.96703 20.98771
#
# Velocity S-wave (km/s) = 3.01114 3.83503 3.44778
# Velocity P-wave (km/s) = 6.31777 7.23114 6.78983
#
# Compressibility (1/GPa) = 0.02035551
#
# Stress axis : x y z
#
# Youngs Moduli (GPa) = 71.98062 108.39013 40.42625
#
# Poissons Ratio (x) = 0.33491 0.35292
# Poissons Ratio (y) = 0.22241 0.07802
# Poissons Ratio (z) = 0.62839 0.20918
#
# Static dielectric constant tensor:
#      x y z
#    x 3.259340 0.000000 0.000000 
#    y 0.000000 3.187710 0.000000 
#    z 0.000000 0.000000 3.324650 
# 
# 
# High freq. dielectric constant tensor:
#      x y z
#    x 1.686920 0.000000 0.000000 
#    y 0.000000 1.660240 0.000000 
#    z 0.000000 0.000000 1.687090 
# 
# From -- ./inp_files/45875.got.cif
#   From: 2010.03.12/outbox.cif.g09.slc.cpg/sg66_23_cif.got.tgz:45875.got - 2010.04.10 21:57:39.
