data_PCOD8276484
_publ_section_title
;
Structure prediction by ZEFSAII (Michael W. Deem and Ramdas Pophale) SiO2 
 PCOD8276484
Probable space group: C C C M
;
_chemical_formula_sum "Si O2"
_cell_formula_units_Z 96
_cell_length_a 19.832144
_cell_length_b 30.613950
_cell_length_c 8.526126
_cell_angle_alpha 90.000000
_cell_angle_beta 90.000000
_cell_angle_gamma 90.000000
_cell_volume 5176.554397
_symmetry_space_group_name_H-M "C C C M"
_symmetry_group_IT_number 66
_symmetry_cell_setting 'orthorhombic'
loop_
_space_group_symop_operation_xyz
x,y,z
-x,-y,z
x,-y,1/2-z
-x,y,1/2-z
-x,-y,-z
x,y,-z
-x,y,1/2+z
x,-y,1/2+z
1/2+x,1/2+y,z
1/2-x,1/2-y,z
1/2+x,1/2-y,1/2-z
1/2-x,1/2+y,1/2-z
1/2-x,1/2-y,-z
1/2+x,1/2+y,-z
1/2-x,1/2+y,1/2+z
1/2+x,1/2-y,1/2+z
loop_
_atom_site_type_symbol
_atom_site_label
_atom_site_fract_x
_atom_site_fract_y
_atom_site_fract_z
Si Si1 0.324923 0.135433 0.182572
Si Si2 0.333764 0.542777 0.829463
Si Si3 0.674217 0.043719 0.174304
Si Si4 0.426743 0.295452 0.185155
Si Si5 0.928964 0.298347 0.183963
Si Si6 0.678753 0.362909 0.186573
O O1 0.343551 0.085281 0.218983
O O2 0.372894 0.165618 0.286070
O O3 0.248858 0.147563 0.228616
O O4 0.336535 0.144731 0.000000
O O5 0.366363 0.500000 0.750000
O O6 0.253822 0.537606 0.837306
O O7 0.349352 0.589966 0.750041
O O8 0.366713 0.543185 0.000000
O O9 0.642113 0.000000 0.250000
O O10 0.644046 0.050418 0.000000
O O11 0.500000 0.307878 0.250000
O O12 0.408264 0.245803 0.226127
O O13 0.373533 0.325726 0.272357
O O14 0.423504 0.303081 0.000000
O O15 0.000000 0.315850 0.250000
O O16 0.935536 0.288232 0.000000
O O17 0.691803 0.365721 0.000000
#
# Coordination Sequence:
#
# PCOD8276484 Si02
#       6
#    16  16  16  16  16  16
#     4  11  21  34  53  81 111 141 177 220 265 313
#     4   8  15  26  44  69 101 135 170 208 253 303
#     4   9  16  28  46  72 104 140 176 215 260 309
#     4  11  22  38  58  80 104 137 176 216 262 319
#     4  11  22  39  59  79 104 138 176 217 262 316
#     4  10  20  35  53  79 110 141 176 220 266 310
#
# _framework density 18.545152999999999
#
# number of rings (size 3 to 8) (size 9 to 14) (size 15 to 20)
#    0.000    2.000    0.000    7.500    0.000    5.333 
#    0.000    3.333    0.000    1.000    0.000    7.000 
#    0.000    0.000    0.000    0.000    0.000    0.000 
#
# Total GULP energy -595058.222284 kJ/mol
# GULP energy per Si atom -12397.046298 kJ/mol
# Density = 1.850294 g / cm^3
# Si number density = 18.545153 Si / 1000 Ang^3
#
#
#
# Elastic Constant Matrix: (Units=GPa)
#
#
# Indices 1 2 3 4 5 6 
#
# 1 57.4846 53.1566 7.3365 0.0000 0.0000 0.0000
# 2 53.1566 102.1620 7.5019 0.0000 0.0000 0.0000
# 3 7.3365 7.5019 82.0157 0.0000 0.0000 0.0000
# 4 0.0000 0.0000 0.0000 31.2875 0.0000 0.0000
# 5 0.0000 0.0000 0.0000 0.0000 22.9866 0.0000
# 6 0.0000 0.0000 0.0000 0.0000 0.0000 -22.1710
#
#
#
# Elastic Compliance Matrix: (Units=1/GPa)
#
#
# Indices 1 2 3 4 5 6 
#
# 1 0.033691 -0.017426 -0.001420 0.000000 0.000000 0.000000
# 2 -0.017426 0.018867 -0.000167 0.000000 0.000000 0.000000
# 3 -0.001420 -0.000167 0.012335 0.000000 0.000000 0.000000
# 4 0.000000 0.000000 0.000000 0.031962 0.000000 0.000000
# 5 0.000000 0.000000 0.000000 0.000000 0.043504 0.000000
# 6 0.000000 0.000000 0.000000 0.000000 0.000000 -0.045104
#
#
# Mechanical properties :
#
#
# Convention : Reuss Voigt Hill
#
# Bulk Modulus (GPa) = 37.21843 41.96137 39.58990
# Shear Modulus (GPa) = 35.15291 17.99844 26.57568
#
# Velocity S-wave (km/s) = 4.35849 3.11870 3.78964
# Velocity P-wave (km/s) = 6.74101 5.97027 6.36731
#
# Compressibility (1/GPa) = 0.02686841
#
# Stress axis : x y z
#
# Youngs Moduli (GPa) = 29.68169 53.00120 81.06962
#
# Poissons Ratio (x) = 0.92358 0.11510
# Poissons Ratio (y) = 0.51722 0.01354
# Poissons Ratio (z) = 0.04214 0.00885
#
# Static dielectric constant tensor:
#      x y z
#    x 3.016580 0.000000 0.000000 
#    y 0.000000 3.643140 0.000000 
#    z 0.000000 0.000000 3.586500 
# 
# 
# High freq. dielectric constant tensor:
#      x y z
#    x 1.673110 0.000000 0.000000 
#    y 0.000000 1.735000 0.000000 
#    z 0.000000 0.000000 1.734310 
# 
# From -- ./inp_files/8049.got.cif
#   From: 2010.03.12/outbox.cif.g09.slc.cpg/sg66_5_cif.got.tgz:8049.got - 2010.04.10 21:57:39.
