data_PCOD8276437
_publ_section_title
;
Structure prediction by ZEFSAII (Michael W. Deem and Ramdas Pophale) SiO2 
 PCOD8276437
Probable space group: C C C M
;
_chemical_formula_sum "Si O2"
_cell_formula_units_Z 128
_cell_length_a 13.460378
_cell_length_b 23.679811
_cell_length_c 23.785134
_cell_angle_alpha 90.000000
_cell_angle_beta 90.000000
_cell_angle_gamma 90.000000
_cell_volume 7581.254750
_symmetry_space_group_name_H-M "C C C M"
_symmetry_group_IT_number 66
_symmetry_cell_setting 'orthorhombic'
loop_
_space_group_symop_operation_xyz
x,y,z
-x,-y,z
x,-y,1/2-z
-x,y,1/2-z
-x,-y,-z
x,y,-z
-x,y,1/2+z
x,-y,1/2+z
1/2+x,1/2+y,z
1/2-x,1/2-y,z
1/2+x,1/2-y,1/2-z
1/2-x,1/2+y,1/2-z
1/2-x,1/2-y,-z
1/2+x,1/2+y,-z
1/2-x,1/2+y,1/2+z
1/2+x,1/2-y,1/2+z
loop_
_atom_site_type_symbol
_atom_site_label
_atom_site_fract_x
_atom_site_fract_y
_atom_site_fract_z
Si Si1 0.571549 0.134285 0.300479
Si Si2 0.860044 0.246808 0.341132
Si Si3 0.316174 0.302652 0.372409
Si Si4 0.021001 0.746438 0.063731
Si Si5 0.220147 0.438174 0.263357
Si Si6 0.848371 0.638246 0.436554
Si Si7 0.064255 0.443570 0.363432
Si Si8 0.388581 0.655123 0.242333
O O1 0.500000 0.149238 0.250000
O O2 0.623605 0.192671 0.313538
O O3 0.650022 0.085542 0.285505
O O4 0.508014 0.108950 0.350921
O O5 0.750000 0.250000 0.366681
O O6 0.865885 0.197505 0.294024
O O7 0.933255 0.237984 0.393386
O O8 0.250000 0.250000 0.354923
O O9 0.388683 0.289274 0.424366
O O10 0.242859 0.352011 0.393310
O O11 0.382082 0.313637 0.317351
O O12 0.063298 0.683479 0.072434
O O13 0.983051 0.755430 0.000000
O O14 0.262408 0.500000 0.250000
O O15 0.153507 0.445826 0.318957
O O16 0.313822 0.396890 0.265439
O O17 0.808459 0.640477 0.500000
O O18 0.889177 0.575098 0.423303
O O19 0.000000 0.500000 0.367480
O O20 0.500000 0.631484 0.250000
#
# Coordination Sequence:
#
# PCOD8276437 Si02
#       8
#    16  16  16  16  16  16  16  16
#     4  10  21  32  52  78 113 148 175 218 276 342
#     4  12  22  34  53  82 111 143 184 229 278 331
#     4  10  20  34  55  82 115 144 176 226 279 336
#     4  10  21  36  53  76 111 150 186 224 272 336
#     4  11  22  37  54  80 111 143 185 224 275 347
#     4  10  20  35  56  81 112 150 188 229 278 325
#     4  11  20  34  57  83 110 149 187 224 280 334
#     4  12  23  35  56  83 111 144 183 229 284 331
#
# _framework density 16.883749000000002
#
# number of rings (size 3 to 8) (size 9 to 14) (size 15 to 20)
#    0.000    1.250    6.250    1.125    0.000    2.250 
#    0.000    0.000    0.000    0.000    0.000    0.000 
#    0.000    2.000    0.000    0.000    0.000    0.000 
#
# Total GULP energy -793027.964659 kJ/mol
# GULP energy per Si atom -12391.061948 kJ/mol
# Density = 1.684532 g / cm^3
# Si number density = 16.883749 Si / 1000 Ang^3
#
#
#
# Elastic Constant Matrix: (Units=GPa)
#
#
# Indices 1 2 3 4 5 6 
#
# 1 99.4432 43.1651 47.2749 0.0000 0.0000 0.0000
# 2 43.1651 102.0808 40.4445 0.0000 0.0000 0.0000
# 3 47.2749 40.4445 90.0507 0.0000 0.0000 0.0000
# 4 0.0000 0.0000 0.0000 19.7563 0.0000 0.0000
# 5 0.0000 0.0000 0.0000 0.0000 -18.8677 0.0000
# 6 0.0000 0.0000 0.0000 0.0000 0.0000 31.6820
#
#
#
# Elastic Compliance Matrix: (Units=1/GPa)
#
#
# Indices 1 2 3 4 5 6 
#
# 1 0.014515 -0.003794 -0.005916 0.000000 0.000000 0.000000
# 2 -0.003794 0.012908 -0.003806 0.000000 0.000000 0.000000
# 3 -0.005916 -0.003806 0.015920 0.000000 0.000000 0.000000
# 4 0.000000 0.000000 0.000000 0.050617 0.000000 0.000000
# 5 0.000000 0.000000 0.000000 0.000000 -0.053001 0.000000
# 6 0.000000 0.000000 0.000000 0.000000 0.000000 0.031564
#
#
# Mechanical properties :
#
#
# Convention : Reuss Voigt Hill
#
# Bulk Modulus (GPa) = 61.30534 61.48261 61.39397
# Shear Modulus (GPa) = 47.62230 17.22679 32.42454
#
# Velocity S-wave (km/s) = 5.31669 3.19771 4.38706
# Velocity P-wave (km/s) = 8.60690 7.08012 7.88057
#
# Compressibility (1/GPa) = 0.01631179
#
# Stress axis : x y z
#
# Youngs Moduli (GPa) = 68.89239 77.46984 62.81347
#
# Poissons Ratio (x) = 0.29390 0.37163
# Poissons Ratio (y) = 0.26136 0.23906
# Poissons Ratio (z) = 0.40759 0.29484
#
# Static dielectric constant tensor:
#      x y z
#    x 3.276350 0.000000 0.000000 
#    y 0.000000 3.060940 0.000000 
#    z 0.000000 0.000000 3.052360 
# 
# 
# High freq. dielectric constant tensor:
#      x y z
#    x 1.654200 0.000000 0.000000 
#    y 0.000000 1.638740 0.000000 
#    z 0.000000 0.000000 1.643450 
# 
# From -- ./inp_files/57356.got.cif
#   From: 2010.03.12/outbox.cif.g09.slc.cpg/sg66_29_cif.got.tgz:57356.got - 2010.04.10 21:57:39.
