data_PCOD8276740
_publ_section_title
;
Structure prediction by ZEFSAII (Michael W. Deem and Ramdas Pophale) SiO2 
 PCOD8276740
Probable space group: C C C M
;
_chemical_formula_sum "Si O2"
_cell_formula_units_Z 96
_cell_length_a 27.322892
_cell_length_b 20.542516
_cell_length_c 8.557738
_cell_angle_alpha 90.000000
_cell_angle_beta 90.000000
_cell_angle_gamma 90.000000
_cell_volume 4803.295281
_symmetry_space_group_name_H-M "C C C M"
_symmetry_group_IT_number 66
_symmetry_cell_setting 'orthorhombic'
loop_
_space_group_symop_operation_xyz
x,y,z
-x,-y,z
x,-y,1/2-z
-x,y,1/2-z
-x,-y,-z
x,y,-z
-x,y,1/2+z
x,-y,1/2+z
1/2+x,1/2+y,z
1/2-x,1/2-y,z
1/2+x,1/2-y,1/2-z
1/2-x,1/2+y,1/2-z
1/2-x,1/2-y,-z
1/2+x,1/2+y,-z
1/2-x,1/2+y,1/2+z
1/2+x,1/2-y,1/2+z
loop_
_atom_site_type_symbol
_atom_site_label
_atom_site_fract_x
_atom_site_fract_y
_atom_site_fract_z
Si Si1 0.447018 0.316787 0.684678
Si Si2 0.284311 0.193589 0.814346
Si Si3 0.604784 0.191687 0.315069
Si Si4 0.731000 0.432569 0.316146
Si Si5 0.053015 0.430758 0.315422
Si Si6 0.118655 0.069029 0.814839
O O1 0.500000 0.334864 0.750000
O O2 0.449012 0.310025 0.500000
O O3 0.430270 0.248506 0.756425
O O4 0.410587 0.373680 0.733041
O O5 0.250000 0.250000 0.743813
O O6 0.339787 0.206980 0.762272
O O7 0.264626 0.125018 0.747374
O O8 0.280099 0.193065 0.000000
O O9 0.599869 0.185295 0.500000
O O10 0.591112 0.123609 0.236960
O O11 0.751697 0.500000 0.250000
O O12 0.734741 0.435531 0.500000
O O13 0.674961 0.421175 0.264992
O O14 0.071136 0.500000 0.250000
O O15 0.049900 0.434831 0.500000
O O16 0.000000 0.412016 0.250000
O O17 0.099259 0.000000 0.750000
O O18 0.111039 0.072445 0.000000
#
# Coordination Sequence:
#
# PCOD8276740 Si02
#       6
#    16  16  16  16  16  16
#     4  12  25  41  60  84 114 149 192 238 287 341
#     4   9  18  34  57  83 111 147 190 233 278 331
#     4  11  22  38  60  86 117 152 191 236 287 339
#     4   9  18  34  57  84 114 149 187 228 276 331
#     4  11  22  39  61  86 116 150 191 235 285 341
#     4  10  20  37  61  88 118 152 190 233 283 337
#
# _framework density 19.986277999999999
#
# number of rings (size 3 to 8) (size 9 to 14) (size 15 to 20)
#    0.000    1.667    0.000    6.000    0.000    4.333 
#    0.000    5.000    0.000    3.500    0.000    0.000 
#    0.000    0.000    0.000    0.000    0.000    0.000 
#
# Total GULP energy -595381.912391 kJ/mol
# GULP energy per Si atom -12403.789841 kJ/mol
# Density = 1.994079 g / cm^3
# Si number density = 19.986278 Si / 1000 Ang^3
#
#
#
# Elastic Constant Matrix: (Units=GPa)
#
#
# Indices 1 2 3 4 5 6 
#
# 1 50.9981 20.5823 30.5933 0.0000 0.0000 0.0000
# 2 20.5823 112.2418 31.0018 0.0000 0.0000 0.0000
# 3 30.5933 31.0018 94.5727 0.0000 0.0000 0.0000
# 4 0.0000 0.0000 0.0000 37.7935 0.0000 0.0000
# 5 0.0000 0.0000 0.0000 0.0000 17.1874 0.0000
# 6 0.0000 0.0000 0.0000 0.0000 0.0000 128.8086
#
#
#
# Elastic Compliance Matrix: (Units=1/GPa)
#
#
# Indices 1 2 3 4 5 6 
#
# 1 0.024993 -0.002584 -0.007238 0.000000 0.000000 0.000000
# 2 -0.002584 0.010063 -0.002463 0.000000 0.000000 0.000000
# 3 -0.007238 -0.002463 0.013723 0.000000 0.000000 0.000000
# 4 0.000000 0.000000 0.000000 0.026460 0.000000 0.000000
# 5 0.000000 0.000000 0.000000 0.000000 0.058182 0.000000
# 6 0.000000 0.000000 0.000000 0.000000 0.000000 0.007763
#
#
# Mechanical properties :
#
#
# Convention : Reuss Voigt Hill
#
# Bulk Modulus (GPa) = 41.30603 46.90750 44.10676
# Shear Modulus (GPa) = 28.76457 48.46690 38.61574
#
# Velocity S-wave (km/s) = 3.79782 4.92978 4.40035
# Velocity P-wave (km/s) = 6.32007 7.47826 6.92343
#
# Compressibility (1/GPa) = 0.02420954
#
# Stress axis : x y z
#
# Youngs Moduli (GPa) = 40.01044 99.36934 72.87189
#
# Poissons Ratio (x) = 0.25677 0.52745
# Poissons Ratio (y) = 0.10339 0.17948
# Poissons Ratio (z) = 0.28960 0.24475
#
# Static dielectric constant tensor:
#      x y z
#    x 3.725320 0.000000 0.000000 
#    y 0.000000 3.894000 0.000000 
#    z 0.000000 0.000000 3.585670 
# 
# 
# High freq. dielectric constant tensor:
#      x y z
#    x 1.780250 0.000000 0.000000 
#    y 0.000000 1.797980 0.000000 
#    z 0.000000 0.000000 1.772950 
# 
# From -- ./inp_files/10253.got.cif
#   From: 2010.03.12/outbox.cif.g09.slc.cpg/sg66_6_cif.got.tgz:10253.got - 2010.04.10 21:57:39.
