data_PCOD8276546
_publ_section_title
;
Structure prediction by ZEFSAII (Michael W. Deem and Ramdas Pophale) SiO2 
 PCOD8276546
Probable space group: C C C M
;
_chemical_formula_sum "Si O2"
_cell_formula_units_Z 112
_cell_length_a 13.432462
_cell_length_b 22.532085
_cell_length_c 17.143177
_cell_angle_alpha 90.000000
_cell_angle_beta 90.000000
_cell_angle_gamma 90.000000
_cell_volume 5188.577532
_symmetry_space_group_name_H-M "C C C M"
_symmetry_group_IT_number 66
_symmetry_cell_setting 'orthorhombic'
loop_
_space_group_symop_operation_xyz
x,y,z
-x,-y,z
x,-y,1/2-z
-x,y,1/2-z
-x,-y,-z
x,y,-z
-x,y,1/2+z
x,-y,1/2+z
1/2+x,1/2+y,z
1/2-x,1/2-y,z
1/2+x,1/2-y,1/2-z
1/2-x,1/2+y,1/2-z
1/2-x,1/2-y,-z
1/2+x,1/2+y,-z
1/2-x,1/2+y,1/2+z
1/2+x,1/2-y,1/2+z
loop_
_atom_site_type_symbol
_atom_site_label
_atom_site_fract_x
_atom_site_fract_y
_atom_site_fract_z
Si Si1 0.663517 0.622168 0.909008
Si Si2 0.752760 0.511537 0.839249
Si Si3 0.984620 0.783220 0.912709
Si Si4 0.655049 0.906065 0.410740
Si Si5 0.436647 0.068997 0.911442
Si Si6 0.642989 0.185984 0.359439
Si Si7 0.352743 0.215329 0.682928
O O1 0.668936 0.555404 0.874542
O O2 0.553099 0.649272 0.894585
O O3 0.743988 0.664356 0.866604
O O4 0.690561 0.619592 0.000000
O O5 0.727897 0.500000 0.750000
O O6 0.754027 0.447912 0.882973
O O7 0.861738 0.541137 0.848478
O O8 0.881844 0.745501 0.907387
O O9 0.065635 0.760448 0.851753
O O10 0.029249 0.779947 0.000000
O O11 0.669143 0.888514 0.500000
O O12 0.553653 0.946631 0.399615
O O13 0.655345 0.845246 0.364559
O O14 0.434387 0.139321 0.896318
O O15 0.401911 0.053556 0.000000
O O16 0.616221 0.197744 0.269598
O O17 0.250000 0.250000 0.681420
#
# Coordination Sequence:
#
# PCOD8276546 Si02
#       7
#    16  16  16  16  16  16  16
#     4  10  21  38  62  90 122 163 217 266 308 369
#     4  11  22  35  57  88 126 162 198 254 313 374
#     4  11  22  38  61  86 117 163 211 260 309 363
#     4  11  22  37  58  83 120 164 205 250 307 381
#     4  10  20  35  57  87 123 162 206 251 304 382
#     4  11  20  35  59  88 123 158 203 260 316 374
#     4  12  26  40  58  89 127 165 205 257 323 386
#
# _framework density 21.585878000000001
#
# number of rings (size 3 to 8) (size 9 to 14) (size 15 to 20)
#    0.000    1.143    1.429    7.714    0.000    5.714 
#    0.000    0.000    0.000    0.857    0.000    6.000 
#    0.000    0.000    0.000    0.286    0.000    0.000 
#
# Total GULP energy -694206.150716 kJ/mol
# GULP energy per Si atom -12396.538406 kJ/mol
# Density = 2.153675 g / cm^3
# Si number density = 21.585878 Si / 1000 Ang^3
#
#
#
# Elastic Constant Matrix: (Units=GPa)
#
#
# Indices 1 2 3 4 5 6 
#
# 1 45.0509 29.5527 21.4908 0.0000 0.0000 0.0000
# 2 29.5527 77.3647 27.7295 0.0000 0.0000 0.0000
# 3 21.4908 27.7295 117.8101 0.0000 0.0000 0.0000
# 4 0.0000 0.0000 0.0000 11.2483 0.0000 0.0000
# 5 0.0000 0.0000 0.0000 0.0000 76.1680 0.0000
# 6 0.0000 0.0000 0.0000 0.0000 0.0000 41.6926
#
#
#
# Elastic Compliance Matrix: (Units=1/GPa)
#
#
# Indices 1 2 3 4 5 6 
#
# 1 0.030618 -0.010587 -0.003093 0.000000 0.000000 0.000000
# 2 -0.010587 0.017778 -0.002253 0.000000 0.000000 0.000000
# 3 -0.003093 -0.002253 0.009583 0.000000 0.000000 0.000000
# 4 0.000000 0.000000 0.000000 0.088903 0.000000 0.000000
# 5 0.000000 0.000000 0.000000 0.000000 0.013129 0.000000
# 6 0.000000 0.000000 0.000000 0.000000 0.000000 0.023985
#
#
# Mechanical properties :
#
#
# Convention : Reuss Voigt Hill
#
# Bulk Modulus (GPa) = 38.29780 44.19686 41.24733
# Shear Modulus (GPa) = 22.26526 36.58527 29.42526
#
# Velocity S-wave (km/s) = 3.21514 4.12135 3.69612
# Velocity P-wave (km/s) = 5.61813 6.57014 6.11270
#
# Compressibility (1/GPa) = 0.02611116
#
# Stress axis : x y z
#
# Youngs Moduli (GPa) = 32.66090 56.25081 104.35314
#
# Poissons Ratio (x) = 0.59553 0.32280
# Poissons Ratio (y) = 0.34578 0.23512
# Poissons Ratio (z) = 0.10103 0.12674
#
# Static dielectric constant tensor:
#      x y z
#    x 3.594490 0.000000 0.000000 
#    y 0.000000 4.198610 0.000000 
#    z 0.000000 0.000000 3.897660 
# 
# 
# High freq. dielectric constant tensor:
#      x y z
#    x 1.807330 0.000000 0.000000 
#    y 0.000000 1.862760 0.000000 
#    z 0.000000 0.000000 1.853580 
# 
# From -- ./inp_files/28740.got.cif
#   From: 2010.03.12/outbox.cif.g09.slc.cpg/sg66_15_cif.got.tgz:28740.got - 2010.04.10 21:57:39.
