data_PCOD8276429
_publ_section_title
;
Structure prediction by ZEFSAII (Michael W. Deem and Ramdas Pophale) SiO2 
 PCOD8276429
Probable space group: C C C M
;
_chemical_formula_sum "Si O2"
_cell_formula_units_Z 120
_cell_length_a 26.982440
_cell_length_b 28.549528
_cell_length_c 9.126469
_cell_angle_alpha 90.000000
_cell_angle_beta 90.000000
_cell_angle_gamma 90.000000
_cell_volume 7030.446951
_symmetry_space_group_name_H-M "C C C M"
_symmetry_group_IT_number 66
_symmetry_cell_setting 'orthorhombic'
loop_
_space_group_symop_operation_xyz
x,y,z
-x,-y,z
x,-y,1/2-z
-x,y,1/2-z
-x,-y,-z
x,y,-z
-x,y,1/2+z
x,-y,1/2+z
1/2+x,1/2+y,z
1/2-x,1/2-y,z
1/2+x,1/2-y,1/2-z
1/2-x,1/2+y,1/2-z
1/2-x,1/2-y,-z
1/2+x,1/2+y,-z
1/2-x,1/2+y,1/2+z
1/2+x,1/2-y,1/2+z
loop_
_atom_site_type_symbol
_atom_site_label
_atom_site_fract_x
_atom_site_fract_y
_atom_site_fract_z
Si Si1 0.261570 0.547907 0.672329
Si Si2 0.123060 0.047049 0.169772
Si Si3 0.544478 0.780316 0.159729
Si Si4 0.500000 0.690085 0.750000
Si Si5 0.275812 0.137979 0.672445
Si Si6 0.408707 0.634516 0.836342
Si Si7 0.180218 0.799647 0.830149
Si Si8 0.344744 0.792021 0.324847
O O1 0.245406 0.500000 0.750000
O O2 0.249436 0.545588 0.500000
O O3 0.319452 0.557633 0.700431
O O4 0.230276 0.588180 0.750123
O O5 0.090846 0.090016 0.230027
O O6 0.105769 0.000000 0.250000
O O7 0.111469 0.040704 0.000000
O O8 0.500000 0.805320 0.250000
O O9 0.533043 0.724345 0.146979
O O10 0.598306 0.788544 0.230610
O O11 0.544200 0.803135 0.000000
O O12 0.463012 0.657392 0.841441
O O13 0.285353 0.131127 0.500000
O O14 0.227683 0.169020 0.702977
O O15 0.322753 0.161981 0.749243
O O16 0.368432 0.672006 0.781001
O O17 0.394362 0.617914 0.000000
O O18 0.184827 0.753286 0.732410
O O19 0.177555 0.784595 0.000000
O O20 0.340334 0.794579 0.500000
#
# Coordination Sequence:
#
# PCOD8276429 Si02
#       8
#    16  16  16   8  16  16  16  16
#     4  10  20  35  56  80 106 138 175 218 262 313
#     4  10  21  36  56  78 102 130 168 215 269 324
#     4   9  19  34  52  72  98 133 174 215 255 303
#     4  10  20  34  55  74  96 130 175 220 272 316
#     4  11  22  35  52  76 107 142 178 214 256 313
#     4  11  21  35  56  77 101 131 172 222 269 320
#     4  10  20  35  51  71 101 140 177 211 256 314
#     4  11  22  34  50  75 108 141 175 218 263 310
#
# _framework density 17.068615000000001
#
# number of rings (size 3 to 8) (size 9 to 14) (size 15 to 20)
#    0.400    1.333    2.667    2.400    0.000    6.400 
#    0.000    0.333    0.000    1.600    0.000    0.000 
#    0.000    0.533    0.000    5.600    0.000    3.067 
#
# Total GULP energy -743964.704293 kJ/mol
# GULP energy per Si atom -12399.411738 kJ/mol
# Density = 1.702977 g / cm^3
# Si number density = 17.068615 Si / 1000 Ang^3
#
#
#
# Elastic Constant Matrix: (Units=GPa)
#
#
# Indices 1 2 3 4 5 6 
#
# 1 93.2137 55.7738 40.5153 0.0000 0.0000 0.0000
# 2 55.7738 80.8021 40.2728 0.0000 0.0000 0.0000
# 3 40.5153 40.2728 90.4604 0.0000 0.0000 0.0000
# 4 0.0000 0.0000 0.0000 31.2175 0.0000 0.0000
# 5 0.0000 0.0000 0.0000 0.0000 23.7718 0.0000
# 6 0.0000 0.0000 0.0000 0.0000 0.0000 23.8803
#
#
#
# Elastic Compliance Matrix: (Units=1/GPa)
#
#
# Indices 1 2 3 4 5 6 
#
# 1 0.019077 -0.011450 -0.003447 0.000000 0.000000 0.000000
# 2 -0.011450 0.022778 -0.005012 0.000000 0.000000 0.000000
# 3 -0.003447 -0.005012 0.014830 0.000000 0.000000 0.000000
# 4 0.000000 0.000000 0.000000 0.032033 0.000000 0.000000
# 5 0.000000 0.000000 0.000000 0.000000 0.042067 0.000000
# 6 0.000000 0.000000 0.000000 0.000000 0.000000 0.041876
#
#
# Mechanical properties :
#
#
# Convention : Reuss Voigt Hill
#
# Bulk Modulus (GPa) = 59.28990 59.73332 59.51161
# Shear Modulus (GPa) = 22.92517 24.30152 23.61335
#
# Velocity S-wave (km/s) = 3.66883 3.77736 3.72349
# Velocity P-wave (km/s) = 7.26352 7.35504 7.30942
#
# Compressibility (1/GPa) = 0.01686628
#
# Stress axis : x y z
#
# Youngs Moduli (GPa) = 52.41823 43.90262 67.43222
#
# Poissons Ratio (x) = 0.50270 0.23242
# Poissons Ratio (y) = 0.60020 0.33799
# Poissons Ratio (z) = 0.18067 0.22005
#
# Static dielectric constant tensor:
#      x y z
#    x 3.105610 0.000000 0.000000 
#    y 0.000000 3.013310 0.000000 
#    z 0.000000 0.000000 3.165020 
# 
# 
# High freq. dielectric constant tensor:
#      x y z
#    x 1.642820 0.000000 0.000000 
#    y 0.000000 1.636720 0.000000 
#    z 0.000000 0.000000 1.667740 
# 
# From -- ./inp_files/10784.got.cif
#   From: 2010.03.12/outbox.cif.g09.slc.cpg/sg66_6_cif.got.tgz:10784.got - 2010.04.10 21:57:39.
