data_PCOD8276816
_publ_section_title
;
Structure prediction by ZEFSAII (Michael W. Deem and Ramdas Pophale) SiO2 
 PCOD8276816
Probable space group: C C C M
;
_chemical_formula_sum "Si O2"
_cell_formula_units_Z 112
_cell_length_a 26.798863
_cell_length_b 11.575495
_cell_length_c 17.196520
_cell_angle_alpha 90.000000
_cell_angle_beta 90.000000
_cell_angle_gamma 90.000000
_cell_volume 5334.534269
_symmetry_space_group_name_H-M "C C C M"
_symmetry_group_IT_number 66
_symmetry_cell_setting 'orthorhombic'
loop_
_space_group_symop_operation_xyz
x,y,z
-x,-y,z
x,-y,1/2-z
-x,y,1/2-z
-x,-y,-z
x,y,-z
-x,y,1/2+z
x,-y,1/2+z
1/2+x,1/2+y,z
1/2-x,1/2-y,z
1/2+x,1/2-y,1/2-z
1/2-x,1/2+y,1/2-z
1/2-x,1/2-y,-z
1/2+x,1/2+y,-z
1/2-x,1/2+y,1/2+z
1/2+x,1/2-y,1/2+z
loop_
_atom_site_type_symbol
_atom_site_label
_atom_site_fract_x
_atom_site_fract_y
_atom_site_fract_z
Si Si1 0.569368 0.967217 0.661367
Si Si2 0.233647 0.127942 0.409391
Si Si3 0.048017 0.923413 0.410277
Si Si4 0.679764 0.988320 0.838626
Si Si5 0.350191 0.483076 0.840464
Si Si6 0.513313 0.173726 0.590921
Si Si7 0.691003 0.749735 0.911434
O O1 0.538123 0.853327 0.637404
O O2 0.557236 0.000000 0.750000
O O3 0.628052 0.941607 0.650005
O O4 0.553120 0.072691 0.605951
O O5 0.226925 0.142641 0.500000
O O6 0.250000 0.250000 0.371083
O O7 0.276976 0.035505 0.393674
O O8 0.180071 0.088992 0.377882
O O9 0.063955 0.918952 0.500000
O O10 0.091980 0.985462 0.363250
O O11 0.036763 0.794140 0.379315
O O12 0.000000 0.000000 0.396059
O O13 0.669441 0.856356 0.862282
O O14 0.698262 0.000000 0.750000
O O15 0.344351 0.500000 0.750000
O O16 0.326900 0.363581 0.868128
O O17 0.500412 0.181801 0.500000
O O18 0.750000 0.750000 0.911824
O O19 0.670252 0.752893 0.000000
#
# Coordination Sequence:
#
# PCOD8276816 Si02
#       7
#    16  16  16  16  16  16  16
#     4  10  21  38  58  94 131 166 199 262 330 382
#     4  11  25  43  65  93 131 176 216 263 327 400
#     4  10  23  45  67  91 124 167 218 266 316 387
#     4  11  24  39  64  97 136 172 216 271 330 395
#     4  12  26  43  67  97 133 169 217 279 333 387
#     4  10  20  38  65  91 118 161 213 264 314 374
#     4  11  23  41  69  97 127 176 228 271 320 391
#
# _framework density 20.995272
#
# number of rings (size 3 to 8) (size 9 to 14) (size 15 to 20)
#    0.000    1.286    1.429    4.714    2.000    4.857 
#    7.714    2.857    0.000    0.000    0.000    0.000 
#    0.000    0.000    0.000    0.000    0.000    0.000 
#
# Total GULP energy -694601.648231 kJ/mol
# GULP energy per Si atom -12403.600861 kJ/mol
# Density = 2.094749 g / cm^3
# Si number density = 20.995272 Si / 1000 Ang^3
#
#
#
# Elastic Constant Matrix: (Units=GPa)
#
#
# Indices 1 2 3 4 5 6 
#
# 1 110.9438 35.0098 36.6023 0.0000 0.0000 0.0000
# 2 35.0098 117.3200 44.5970 0.0000 0.0000 0.0000
# 3 36.6023 44.5970 118.4906 0.0000 0.0000 0.0000
# 4 0.0000 0.0000 0.0000 -16.2933 0.0000 0.0000
# 5 0.0000 0.0000 0.0000 0.0000 68.6033 0.0000
# 6 0.0000 0.0000 0.0000 0.0000 0.0000 29.5292
#
#
#
# Elastic Compliance Matrix: (Units=1/GPa)
#
#
# Indices 1 2 3 4 5 6 
#
# 1 0.010509 -0.002220 -0.002411 0.000000 0.000000 0.000000
# 2 -0.002220 0.010416 -0.003235 0.000000 0.000000 0.000000
# 3 -0.002411 -0.003235 0.010402 0.000000 0.000000 0.000000
# 4 0.000000 0.000000 0.000000 -0.061375 0.000000 0.000000
# 5 0.000000 0.000000 0.000000 0.000000 0.014577 0.000000
# 6 0.000000 0.000000 0.000000 0.000000 0.000000 0.033865
#
#
# Mechanical properties :
#
#
# Convention : Reuss Voigt Hill
#
# Bulk Modulus (GPa) = 64.11751 64.35251 64.23501
# Shear Modulus (GPa) = 127.15406 31.73752 79.44579
#
# Velocity S-wave (km/s) = 7.79068 3.89221 6.15808
# Velocity P-wave (km/s) = 10.56085 7.13559 9.01244
#
# Compressibility (1/GPa) = 0.01559636
#
# Stress axis : x y z
#
# Youngs Moduli (GPa) = 95.15252 96.00977 96.13858
#
# Poissons Ratio (x) = 0.21311 0.23179
# Poissons Ratio (y) = 0.21121 0.31096
# Poissons Ratio (z) = 0.22941 0.31055
#
# Static dielectric constant tensor:
#      x y z
#    x 3.119160 0.000000 0.000000 
#    y 0.000000 3.931740 0.000000 
#    z 0.000000 0.000000 3.801250 
# 
# 
# High freq. dielectric constant tensor:
#      x y z
#    x 1.833220 0.000000 0.000000 
#    y 0.000000 1.820860 0.000000 
#    z 0.000000 0.000000 1.824610 
# 
# From -- ./inp_files/33838.got.cif
#   From: 2010.03.12/outbox.cif.g09.slc.cpg/sg66_17_cif.got.tgz:33838.got - 2010.04.10 21:57:39.
