data_PCOD8276492
_publ_section_title
;
Structure prediction by ZEFSAII (Michael W. Deem and Ramdas Pophale) SiO2 
 PCOD8276492
Probable space group: C C C M
;
_chemical_formula_sum "Si O2"
_cell_formula_units_Z 128
_cell_length_a 11.912733
_cell_length_b 23.890671
_cell_length_c 24.063756
_cell_angle_alpha 90.000000
_cell_angle_beta 90.000000
_cell_angle_gamma 90.000000
_cell_volume 6848.621596
_symmetry_space_group_name_H-M "C C C M"
_symmetry_group_IT_number 66
_symmetry_cell_setting 'orthorhombic'
loop_
_space_group_symop_operation_xyz
x,y,z
-x,-y,z
x,-y,1/2-z
-x,y,1/2-z
-x,-y,-z
x,y,-z
-x,y,1/2+z
x,-y,1/2+z
1/2+x,1/2+y,z
1/2-x,1/2-y,z
1/2+x,1/2-y,1/2-z
1/2-x,1/2+y,1/2-z
1/2-x,1/2-y,-z
1/2+x,1/2+y,-z
1/2-x,1/2+y,1/2+z
1/2+x,1/2-y,1/2+z
loop_
_atom_site_type_symbol
_atom_site_label
_atom_site_fract_x
_atom_site_fract_y
_atom_site_fract_z
Si Si1 0.710469 0.906659 0.062365
Si Si2 0.477703 0.936368 0.898676
Si Si3 0.863919 0.146660 0.648428
Si Si4 0.067503 0.353101 0.693839
Si Si5 0.683379 0.364828 0.223123
Si Si6 0.467144 0.269604 0.686191
Si Si7 0.051085 0.940500 0.149956
Si Si8 0.761676 0.966721 0.436190
O O1 0.574747 0.911299 0.061661
O O2 0.760485 0.859409 0.104767
O O3 0.754560 0.967946 0.080069
O O4 0.748600 0.890561 0.000000
O O5 0.489415 0.899181 0.844090
O O6 0.355665 0.933464 0.927387
O O7 0.500000 0.000000 0.881094
O O8 0.818572 0.140582 0.710781
O O9 0.930472 0.206329 0.647803
O O10 0.950398 0.098954 0.630609
O O11 0.191131 0.374972 0.704889
O O12 0.066850 0.291814 0.664097
O O13 0.000000 0.349353 0.750000
O O14 0.638238 0.311843 0.187495
O O15 0.608425 0.418329 0.206565
O O16 0.500000 0.264730 0.750000
O O17 0.141605 0.939451 0.100630
O O18 0.000000 0.000000 0.163867
O O19 0.796712 0.959851 0.500000
#
# Coordination Sequence:
#
# PCOD8276492 Si02
#       8
#    16  16  16  16  16  16  16  16
#     4  10  20  36  57  79 109 151 194 238 281 332
#     4  10  21  37  54  80 113 146 191 233 287 339
#     4  10  20  35  54  83 116 146 187 230 284 339
#     4  11  20  34  57  82 111 149 188 233 282 335
#     4  10  20  35  54  82 115 149 186 226 277 347
#     4   8  18  34  55  81 110 145 186 228 278 338
#     4  11  20  34  52  84 114 149 182 223 287 345
#     4  10  20  36  56  79 109 149 198 241 275 329
#
# _framework density 18.689892
#
# number of rings (size 3 to 8) (size 9 to 14) (size 15 to 20)
#    0.000    2.000    2.500    2.625    0.000    3.500 
#    0.000    3.125    0.000    2.250    0.000    1.750 
#    0.000    0.000    0.000    0.000    0.000    0.000 
#
# Total GULP energy -793242.008630 kJ/mol
# GULP energy per Si atom -12394.406385 kJ/mol
# Density = 1.864735 g / cm^3
# Si number density = 18.689892 Si / 1000 Ang^3
#
#
#
# Elastic Constant Matrix: (Units=GPa)
#
#
# Indices 1 2 3 4 5 6 
#
# 1 73.8393 32.7500 13.5325 0.0000 0.0000 0.0000
# 2 32.7500 75.2036 32.0259 0.0000 0.0000 0.0000
# 3 13.5325 32.0259 72.1468 0.0000 0.0000 0.0000
# 4 0.0000 0.0000 0.0000 13.0854 0.0000 0.0000
# 5 0.0000 0.0000 0.0000 0.0000 26.3920 0.0000
# 6 0.0000 0.0000 0.0000 0.0000 0.0000 23.9695
#
#
#
# Elastic Compliance Matrix: (Units=1/GPa)
#
#
# Indices 1 2 3 4 5 6 
#
# 1 0.016786 -0.007361 0.000119 0.000000 0.000000 0.000000
# 2 -0.007361 0.019624 -0.007331 0.000000 0.000000 0.000000
# 3 0.000119 -0.007331 0.017092 0.000000 0.000000 0.000000
# 4 0.000000 0.000000 0.000000 0.076421 0.000000 0.000000
# 5 0.000000 0.000000 0.000000 0.000000 0.037890 0.000000
# 6 0.000000 0.000000 0.000000 0.000000 0.000000 0.041720
#
#
# Mechanical properties :
#
#
# Convention : Reuss Voigt Hill
#
# Bulk Modulus (GPa) = 41.05441 41.97848 41.51645
# Shear Modulus (GPa) = 20.25948 22.21478 21.23713
#
# Velocity S-wave (km/s) = 3.29596 3.45135 3.37455
# Velocity P-wave (km/s) = 6.04138 6.19610 6.11923
#
# Compressibility (1/GPa) = 0.02435792
#
# Stress axis : x y z
#
# Youngs Moduli (GPa) = 59.57421 50.95683 58.50549
#
# Poissons Ratio (x) = 0.37507 -0.00695
# Poissons Ratio (y) = 0.43850 0.42888
# Poissons Ratio (z) = -0.00708 0.37355
#
# Static dielectric constant tensor:
#      x y z
#    x 3.610450 0.000000 0.000000 
#    y 0.000000 3.639580 0.000000 
#    z 0.000000 0.000000 3.071690 
# 
# 
# High freq. dielectric constant tensor:
#      x y z
#    x 1.740630 0.000000 0.000000 
#    y 0.000000 1.712140 0.000000 
#    z 0.000000 0.000000 1.700720 
# 
# From -- ./inp_files/57363.got.cif
#   From: 2010.03.12/outbox.cif.g09.slc.cpg/sg66_29_cif.got.tgz:57363.got - 2010.04.10 21:57:39.
