data_PCOD8276694
_publ_section_title
;
Structure prediction by ZEFSAII (Michael W. Deem and Ramdas Pophale) SiO2 
 PCOD8276694
Probable space group: C C C M
;
_chemical_formula_sum "Si O2"
_cell_formula_units_Z 112
_cell_length_a 16.518642
_cell_length_b 14.133082
_cell_length_c 22.844747
_cell_angle_alpha 90.000000
_cell_angle_beta 90.000000
_cell_angle_gamma 90.000000
_cell_volume 5333.319144
_symmetry_space_group_name_H-M "C C C M"
_symmetry_group_IT_number 66
_symmetry_cell_setting 'orthorhombic'
loop_
_space_group_symop_operation_xyz
x,y,z
-x,-y,z
x,-y,1/2-z
-x,y,1/2-z
-x,-y,-z
x,y,-z
-x,y,1/2+z
x,-y,1/2+z
1/2+x,1/2+y,z
1/2-x,1/2-y,z
1/2+x,1/2-y,1/2-z
1/2-x,1/2+y,1/2-z
1/2-x,1/2-y,-z
1/2+x,1/2+y,-z
1/2-x,1/2+y,1/2+z
1/2+x,1/2-y,1/2+z
loop_
_atom_site_type_symbol
_atom_site_label
_atom_site_fract_x
_atom_site_fract_y
_atom_site_fract_z
Si Si1 0.365508 0.397140 0.768361
Si Si2 0.786260 0.457239 0.342206
Si Si3 0.950056 0.777697 0.863040
Si Si4 0.462888 0.911588 0.312978
Si Si5 0.819673 0.680722 0.062323
Si Si6 0.442759 0.410783 0.431043
Si Si7 0.705932 0.349935 0.850704
O O1 0.399814 0.500000 0.750000
O O2 0.286230 0.408428 0.807513
O O3 0.433844 0.345314 0.807096
O O4 0.343476 0.336171 0.710239
O O5 0.866574 0.424627 0.308382
O O6 0.789493 0.417153 0.408434
O O7 0.775865 0.570928 0.343041
O O8 0.995625 0.684083 0.841690
O O9 0.868301 0.742368 0.891552
O O10 0.004132 0.821075 0.913909
O O11 0.500000 0.913901 0.250000
O O12 0.500000 0.000000 0.349819
O O13 0.750000 0.750000 0.044128
O O14 0.863626 0.655122 0.000000
O O15 0.500000 0.500000 0.412182
O O16 0.424570 0.414045 0.500000
O O17 0.356738 0.396817 0.397921
O O18 0.750000 0.250000 0.868648
#
# Coordination Sequence:
#
# PCOD8276694 Si02
#       7
#    16  16  16  16  16  16  16
#     4  10  22  38  63  99 134 175 212 272 336 405
#     4  10  22  42  61  92 134 165 217 273 319 397
#     4  11  23  41  66  95 135 167 220 276 328 394
#     4  10  25  37  63  93 130 171 215 256 323 393
#     4  10  20  36  66  96 123 165 219 275 323 370
#     4  11  26  47  69  94 131 178 231 286 342 409
#     4  11  27  40  69  97 137 179 221 269 348 418
#
# _framework density 21.000055
#
# number of rings (size 3 to 8) (size 9 to 14) (size 15 to 20)
#    0.000    1.571    1.429    2.143   14.000    0.857 
#    0.000    2.857    0.000    2.143    0.000    0.000 
#    0.000    0.000    0.000    0.000    0.000    0.000 
#
# Total GULP energy -693753.440425 kJ/mol
# GULP energy per Si atom -12388.454293 kJ/mol
# Density = 2.095226 g / cm^3
# Si number density = 21.000055 Si / 1000 Ang^3
#
#
#
# Elastic Constant Matrix: (Units=GPa)
#
#
# Indices 1 2 3 4 5 6 
#
# 1 53.5783 34.0111 24.0175 0.0000 0.0000 0.0000
# 2 34.0111 129.8221 48.6558 0.0000 0.0000 0.0000
# 3 24.0175 48.6558 126.6219 0.0000 0.0000 0.0000
# 4 0.0000 0.0000 0.0000 29.2180 0.0000 0.0000
# 5 0.0000 0.0000 0.0000 0.0000 28.4175 0.0000
# 6 0.0000 0.0000 0.0000 0.0000 0.0000 36.0654
#
#
#
# Elastic Compliance Matrix: (Units=1/GPa)
#
#
# Indices 1 2 3 4 5 6 
#
# 1 0.022991 -0.005127 -0.002391 0.000000 0.000000 0.000000
# 2 -0.005127 0.010142 -0.002925 0.000000 0.000000 0.000000
# 3 -0.002391 -0.002925 0.009475 0.000000 0.000000 0.000000
# 4 0.000000 0.000000 0.000000 0.034225 0.000000 0.000000
# 5 0.000000 0.000000 0.000000 0.000000 0.035190 0.000000
# 6 0.000000 0.000000 0.000000 0.000000 0.000000 0.027727
#
#
# Mechanical properties :
#
#
# Convention : Reuss Voigt Hill
#
# Bulk Modulus (GPa) = 46.03506 58.15458 52.09482
# Shear Modulus (GPa) = 29.78385 32.29604 31.03995
#
# Velocity S-wave (km/s) = 3.77008 3.92586 3.84876
# Velocity P-wave (km/s) = 6.39690 6.95001 6.67918
#
# Compressibility (1/GPa) = 0.02172258
#
# Stress axis : x y z
#
# Youngs Moduli (GPa) = 43.49599 98.59762 105.54252
#
# Poissons Ratio (x) = 0.50552 0.25232
# Poissons Ratio (y) = 0.22301 0.30869
# Poissons Ratio (z) = 0.10398 0.28837
#
# Static dielectric constant tensor:
#      x y z
#    x 3.667940 0.000000 0.000000 
#    y 0.000000 3.776990 0.000000 
#    z 0.000000 0.000000 4.040610 
# 
# 
# High freq. dielectric constant tensor:
#      x y z
#    x 1.812460 0.000000 0.000000 
#    y 0.000000 1.832080 0.000000 
#    z 0.000000 0.000000 1.823210 
# 
# From -- ./inp_files/58246.got.cif
#   From: 2010.03.12/outbox.cif.g09.slc.cpg/sg66_30_cif.got.tgz:58246.got - 2010.04.10 21:57:39.
