data_PCOD8276249
_publ_section_title
;
Structure prediction by ZEFSAII (Michael W. Deem and Ramdas Pophale) SiO2 
 PCOD8276249
Probable space group: C C C M
;
_chemical_formula_sum "Si O2"
_cell_formula_units_Z 84
_cell_length_a 9.717191
_cell_length_b 19.974372
_cell_length_c 20.946490
_cell_angle_alpha 90.000000
_cell_angle_beta 90.000000
_cell_angle_gamma 90.000000
_cell_volume 4065.604532
_symmetry_space_group_name_H-M "C C C M"
_symmetry_group_IT_number 66
_symmetry_cell_setting 'orthorhombic'
loop_
_space_group_symop_operation_xyz
x,y,z
-x,-y,z
x,-y,1/2-z
-x,y,1/2-z
-x,-y,-z
x,y,-z
-x,y,1/2+z
x,-y,1/2+z
1/2+x,1/2+y,z
1/2-x,1/2-y,z
1/2+x,1/2-y,1/2-z
1/2-x,1/2+y,1/2-z
1/2-x,1/2-y,-z
1/2+x,1/2+y,-z
1/2-x,1/2+y,1/2+z
1/2+x,1/2-y,1/2+z
loop_
_atom_site_type_symbol
_atom_site_label
_atom_site_fract_x
_atom_site_fract_y
_atom_site_fract_z
Si Si1 0.280442 0.589720 0.072678
Si Si2 0.295912 0.059100 0.072959
Si Si3 0.588894 0.755969 0.191978
Si Si4 0.538580 0.894115 0.656590
Si Si5 0.439316 0.662727 0.573904
Si Si6 0.000000 0.500000 0.250000
O O1 0.279739 0.510768 0.087616
O O2 0.431260 0.616010 0.087954
O O3 0.170465 0.629674 0.116121
O O4 0.239856 0.604775 0.000000
O O5 0.433596 0.064496 0.113026
O O6 0.195025 0.119887 0.089912
O O7 0.341468 0.062947 0.000000
O O8 0.500000 0.722381 0.250000
O O9 0.750000 0.750000 0.209424
O O10 0.540154 0.832501 0.188448
O O11 0.558026 0.724494 0.122615
O O12 0.593171 0.948683 0.708385
O O13 0.438207 0.688329 0.500000
#
# Coordination Sequence:
#
# PCOD8276249 Si02
#       6
#    16  16  16  16  16   4
#     4  10  21  38  65  99 130 164 210 267 323 374
#     4  10  19  38  66  95 127 164 210 265 321 376
#     4  12  28  46  67  92 128 174 216 263 324 391
#     4  12  23  40  65  93 123 166 215 263 319 378
#     4  10  23  42  66  97 133 170 213 266 321 381
#     4  12  24  40  62  90 128 160 210 268 316 368
#
# _framework density 20.661135000000002
#
# number of rings (size 3 to 8) (size 9 to 14) (size 15 to 20)
#    0.000    1.143    4.762    1.143    2.667    5.714 
#    0.000    1.905    0.000    2.286    0.000    0.000 
#    0.000    0.000    0.000    0.000    0.000    0.000 
#
# Total GULP energy -520705.040487 kJ/mol
# GULP energy per Si atom -12397.739059 kJ/mol
# Density = 2.061411 g / cm^3
# Si number density = 20.661135 Si / 1000 Ang^3
#
#
#
# Elastic Constant Matrix: (Units=GPa)
#
#
# Indices 1 2 3 4 5 6 
#
# 1 79.5667 18.9800 57.3805 0.0000 0.0000 0.0000
# 2 18.9800 82.5935 43.5841 0.0000 0.0000 0.0000
# 3 57.3805 43.5841 111.0949 0.0000 0.0000 0.0000
# 4 0.0000 0.0000 0.0000 24.8194 0.0000 0.0000
# 5 0.0000 0.0000 0.0000 0.0000 26.8593 0.0000
# 6 0.0000 0.0000 0.0000 0.0000 0.0000 27.9889
#
#
#
# Elastic Compliance Matrix: (Units=1/GPa)
#
#
# Indices 1 2 3 4 5 6 
#
# 1 0.020105 0.001084 -0.010809 0.000000 0.000000 0.000000
# 2 0.001084 0.015327 -0.006573 0.000000 0.000000 0.000000
# 3 -0.010809 -0.006573 0.017163 0.000000 0.000000 0.000000
# 4 0.000000 0.000000 0.000000 0.040291 0.000000 0.000000
# 5 0.000000 0.000000 0.000000 0.000000 0.037231 0.000000
# 6 0.000000 0.000000 0.000000 0.000000 0.000000 0.035728
#
#
# Mechanical properties :
#
#
# Convention : Reuss Voigt Hill
#
# Bulk Modulus (GPa) = 50.00463 57.01605 53.51034
# Shear Modulus (GPa) = 24.37744 26.15422 25.26583
#
# Velocity S-wave (km/s) = 3.43865 3.56176 3.50075
# Velocity P-wave (km/s) = 6.32618 6.67612 6.50350
#
# Compressibility (1/GPa) = 0.01999815
#
# Stress axis : x y z
#
# Youngs Moduli (GPa) = 49.73929 65.24514 58.26500
#
# Poissons Ratio (x) = -0.07072 0.62981
# Poissons Ratio (y) = -0.05391 0.38296
# Poissons Ratio (z) = 0.53765 0.42884
#
# Static dielectric constant tensor:
#      x y z
#    x 3.777760 0.000000 0.000000 
#    y 0.000000 3.654480 0.000000 
#    z 0.000000 0.000000 4.163280 
# 
# 
# High freq. dielectric constant tensor:
#      x y z
#    x 1.802000 0.000000 0.000000 
#    y 0.000000 1.804780 0.000000 
#    z 0.000000 0.000000 1.820480 
# 
# From -- ./inp_files/55402.got.cif
#   From: 2010.03.12/outbox.cif.g09.slc.cpg/sg66_28_cif.got.tgz:55402.got - 2010.04.10 21:57:39.
