data_PCOD8276656
_publ_section_title
;
Structure prediction by ZEFSAII (Michael W. Deem and Ramdas Pophale) SiO2 
 PCOD8276656
Probable space group: C C C M
;
_chemical_formula_sum "Si O2"
_cell_formula_units_Z 88
_cell_length_a 26.040839
_cell_length_b 10.564595
_cell_length_c 16.548901
_cell_angle_alpha 90.000000
_cell_angle_beta 90.000000
_cell_angle_gamma 90.000000
_cell_volume 4552.783338
_symmetry_space_group_name_H-M "C C C M"
_symmetry_group_IT_number 66
_symmetry_cell_setting 'orthorhombic'
loop_
_space_group_symop_operation_xyz
x,y,z
-x,-y,z
x,-y,1/2-z
-x,y,1/2-z
-x,-y,-z
x,y,-z
-x,y,1/2+z
x,-y,1/2+z
1/2+x,1/2+y,z
1/2-x,1/2-y,z
1/2+x,1/2-y,1/2-z
1/2-x,1/2+y,1/2-z
1/2-x,1/2-y,-z
1/2+x,1/2+y,-z
1/2-x,1/2+y,1/2+z
1/2+x,1/2-y,1/2+z
loop_
_atom_site_type_symbol
_atom_site_label
_atom_site_fract_x
_atom_site_fract_y
_atom_site_fract_z
Si Si1 0.603437 0.000000 0.250000
Si Si2 0.757389 0.107949 0.313890
Si Si3 0.942078 0.233766 0.228627
Si Si4 0.159224 0.409561 0.908828
Si Si5 0.129321 0.138154 0.136126
Si Si6 0.551827 0.438494 0.911129
O O1 0.566618 0.882043 0.263142
O O2 0.636041 0.988637 0.166746
O O3 0.750000 0.250000 0.275767
O O4 0.720083 0.099168 0.391743
O O5 0.814963 0.082603 0.342931
O O6 0.741594 0.000000 0.250000
O O7 0.902379 0.154711 0.281841
O O8 0.931545 0.185223 0.138362
O O9 0.000000 0.201136 0.250000
O O10 0.133864 0.270680 0.910700
O O11 0.150728 0.467527 0.000000
O O12 0.098449 0.038340 0.082405
O O13 0.500000 0.500000 0.873775
O O14 0.539087 0.387942 0.000000
#
# Coordination Sequence:
#
# PCOD8276656 Si02
#       6
#     8  16  16  16  16  16
#     4  10  23  40  60  86 116 158 199 244 296 346
#     4  10  20  36  60  89 120 156 199 245 297 356
#     4  11  21  38  60  81 113 156 199 237 287 354
#     4  10  21  39  63  88 118 154 198 248 296 357
#     4  10  21  36  60  87 116 155 193 242 293 350
#     4  11  22  35  55  85 120 149 187 242 296 347
#
# _framework density 19.328835000000002
#
# number of rings (size 3 to 8) (size 9 to 14) (size 15 to 20)
#    0.000    1.636    2.727    2.455    0.000    4.727 
#    0.000    0.000    0.000    3.818    0.000    0.000 
#    0.000    0.000    0.000    0.000    0.000    0.000 
#
# Total GULP energy -545383.353286 kJ/mol
# GULP energy per Si atom -12395.076211 kJ/mol
# Density = 1.928484 g / cm^3
# Si number density = 19.328835 Si / 1000 Ang^3
#
#
#
# Elastic Constant Matrix: (Units=GPa)
#
#
# Indices 1 2 3 4 5 6 
#
# 1 117.1914 16.7273 34.7665 0.0000 0.0000 0.0000
# 2 16.7273 64.5839 40.2768 0.0000 0.0000 0.0000
# 3 34.7665 40.2768 137.6175 0.0000 0.0000 0.0000
# 4 0.0000 0.0000 0.0000 23.8525 0.0000 0.0000
# 5 0.0000 0.0000 0.0000 0.0000 15.0645 0.0000
# 6 0.0000 0.0000 0.0000 0.0000 0.0000 12.4503
#
#
#
# Elastic Compliance Matrix: (Units=1/GPa)
#
#
# Indices 1 2 3 4 5 6 
#
# 1 0.009294 -0.001153 -0.002010 0.000000 0.000000 0.000000
# 2 -0.001153 0.019084 -0.005294 0.000000 0.000000 0.000000
# 3 -0.002010 -0.005294 0.009324 0.000000 0.000000 0.000000
# 4 0.000000 0.000000 0.000000 0.041924 0.000000 0.000000
# 5 0.000000 0.000000 0.000000 0.000000 0.066381 0.000000
# 6 0.000000 0.000000 0.000000 0.000000 0.000000 0.080319
#
#
# Mechanical properties :
#
#
# Convention : Reuss Voigt Hill
#
# Bulk Modulus (GPa) = 48.10861 55.88156 51.99509
# Shear Modulus (GPa) = 19.98630 25.44826 22.71728
#
# Velocity S-wave (km/s) = 3.21910 3.63243 3.43199
# Velocity P-wave (km/s) = 6.22578 6.82396 6.53172
#
# Compressibility (1/GPa) = 0.02078630
#
# Stress axis : x y z
#
# Youngs Moduli (GPa) = 107.59518 52.39999 107.25234
#
# Poissons Ratio (x) = 0.06044 0.21562
# Poissons Ratio (y) = 0.12410 0.56779
# Poissons Ratio (z) = 0.21631 0.27740
#
# Static dielectric constant tensor:
#      x y z
#    x 3.637120 0.000000 0.000000 
#    y 0.000000 3.444280 0.000000 
#    z 0.000000 0.000000 3.403540 
# 
# 
# High freq. dielectric constant tensor:
#      x y z
#    x 1.765010 0.000000 0.000000 
#    y 0.000000 1.738260 0.000000 
#    z 0.000000 0.000000 1.744530 
# 
# From -- ./inp_files/33172.got.cif
#   From: 2010.03.12/outbox.cif.g09.slc.cpg/sg66_17_cif.got.tgz:33172.got - 2010.04.10 21:57:39.
