data_PCOD8276600
_publ_section_title
;
Structure prediction by ZEFSAII (Michael W. Deem and Ramdas Pophale) SiO2 
 PCOD8276600
Probable space group: C C C M
;
_chemical_formula_sum "Si O2"
_cell_formula_units_Z 64
_cell_length_a 24.853222
_cell_length_b 4.996762
_cell_length_c 27.500799
_cell_angle_alpha 90.000000
_cell_angle_beta 90.000000
_cell_angle_gamma 90.000000
_cell_volume 3415.204194
_symmetry_space_group_name_H-M "C C C M"
_symmetry_group_IT_number 66
_symmetry_cell_setting 'orthorhombic'
loop_
_space_group_symop_operation_xyz
x,y,z
-x,-y,z
x,-y,1/2-z
-x,y,1/2-z
-x,-y,-z
x,y,-z
-x,y,1/2+z
x,-y,1/2+z
1/2+x,1/2+y,z
1/2-x,1/2-y,z
1/2+x,1/2-y,1/2-z
1/2-x,1/2+y,1/2-z
1/2-x,1/2-y,-z
1/2+x,1/2+y,-z
1/2-x,1/2+y,1/2+z
1/2+x,1/2-y,1/2+z
loop_
_atom_site_type_symbol
_atom_site_label
_atom_site_fract_x
_atom_site_fract_y
_atom_site_fract_z
Si Si1 0.786517 0.000000 0.750000
Si Si2 0.288485 0.996813 0.500000
Si Si3 0.964143 0.759974 0.944926
Si Si4 0.851173 0.633968 0.095391
Si Si5 0.689308 0.351432 0.852693
O O1 0.750000 0.250000 0.734265
O O2 0.823035 0.071568 0.796649
O O3 0.250000 0.750000 0.500000
O O4 0.326786 0.993212 0.453346
O O5 0.250000 0.250000 0.500000
O O6 0.912273 0.725589 0.911436
O O7 0.000000 0.500000 0.943807
O O8 0.945521 0.828039 0.000000
O O9 0.000000 0.000000 0.923461
O O10 0.850332 0.393213 0.134433
O O11 0.817766 0.891764 0.112807
O O12 0.750000 0.250000 0.859253
#
# Coordination Sequence:
#
# PCOD8276600 Si02
#       5
#     8   8  16  16  16
#     4  10  20  36  56  80 111 150 191 232 274 320
#     4  12  24  34  48  76 118 154 182 212 265 342
#     4  10  21  38  58  78 107 146 195 245 278 316
#     4  12  22  37  55  83 112 153 189 228 281 335
#     4  11  22  36  57  82 117 149 186 230 275 337
#
# _framework density 18.739730000000002
#
# number of rings (size 3 to 8) (size 9 to 14) (size 15 to 20)
#    0.000    1.000    1.250    9.000    0.000    0.000 
#    0.000    0.000    0.000    0.000    0.000   13.125 
#    0.000    0.000    0.000    0.000    0.000    0.000 
#
# Total GULP energy -396918.893442 kJ/mol
# GULP energy per Si atom -12403.715420 kJ/mol
# Density = 1.869708 g / cm^3
# Si number density = 18.739730 Si / 1000 Ang^3
#
#
#
# Elastic Constant Matrix: (Units=GPa)
#
#
# Indices 1 2 3 4 5 6 
#
# 1 97.5591 49.6694 62.4913 0.0000 0.0000 0.0000
# 2 49.6694 152.8403 56.3061 0.0000 0.0000 0.0000
# 3 62.4913 56.3061 114.9605 0.0000 0.0000 0.0000
# 4 0.0000 0.0000 0.0000 37.9783 0.0000 0.0000
# 5 0.0000 0.0000 0.0000 0.0000 18.4538 0.0000
# 6 0.0000 0.0000 0.0000 0.0000 0.0000 35.8968
#
#
#
# Elastic Compliance Matrix: (Units=1/GPa)
#
#
# Indices 1 2 3 4 5 6 
#
# 1 0.016478 -0.002507 -0.007729 0.000000 0.000000 0.000000
# 2 -0.002507 0.008365 -0.002734 0.000000 0.000000 0.000000
# 3 -0.007729 -0.002734 0.014239 0.000000 0.000000 0.000000
# 4 0.000000 0.000000 0.000000 0.026331 0.000000 0.000000
# 5 0.000000 0.000000 0.000000 0.000000 0.054189 0.000000
# 6 0.000000 0.000000 0.000000 0.000000 0.000000 0.027858
#
#
# Mechanical properties :
#
#
# Convention : Reuss Voigt Hill
#
# Bulk Modulus (GPa) = 76.09901 78.03261 77.06581
# Shear Modulus (GPa) = 28.12466 31.59199 29.85833
#
# Velocity S-wave (km/s) = 3.87822 4.11034 3.99597
# Velocity P-wave (km/s) = 7.79427 8.01605 7.90594
#
# Compressibility (1/GPa) = 0.01314077
#
# Stress axis : x y z
#
# Youngs Moduli (GPa) = 60.68878 119.54817 70.22962
#
# Poissons Ratio (x) = 0.29977 0.54279
# Poissons Ratio (y) = 0.15218 0.19200
# Poissons Ratio (z) = 0.46905 0.32684
#
# Static dielectric constant tensor:
#      x y z
#    x 3.202690 0.000000 0.000000 
#    y 0.000000 3.647130 0.000000 
#    z 0.000000 0.000000 3.625620 
# 
# 
# High freq. dielectric constant tensor:
#      x y z
#    x 1.698810 0.000000 0.000000 
#    y 0.000000 1.759450 0.000000 
#    z 0.000000 0.000000 1.716760 
# 
# From -- ./inp_files/59730.got.cif
#   From: 2010.03.12/outbox.cif.g09.slc.cpg/sg66_30_cif.got.tgz:59730.got - 2010.04.10 21:57:39.
