data_PCOD8276776
_publ_section_title
;
Structure prediction by ZEFSAII (Michael W. Deem and Ramdas Pophale) SiO2 
 PCOD8276776
Probable space group: C C C M
;
_chemical_formula_sum "Si O2"
_cell_formula_units_Z 72
_cell_length_a 5.051281
_cell_length_b 24.207303
_cell_length_c 29.415473
_cell_angle_alpha 90.000000
_cell_angle_beta 90.000000
_cell_angle_gamma 90.000000
_cell_volume 3596.861963
_symmetry_space_group_name_H-M "C C C M"
_symmetry_group_IT_number 66
_symmetry_cell_setting 'orthorhombic'
loop_
_space_group_symop_operation_xyz
x,y,z
-x,-y,z
x,-y,1/2-z
-x,y,1/2-z
-x,-y,-z
x,y,-z
-x,y,1/2+z
x,-y,1/2+z
1/2+x,1/2+y,z
1/2-x,1/2-y,z
1/2+x,1/2-y,1/2-z
1/2-x,1/2+y,1/2-z
1/2-x,1/2-y,-z
1/2+x,1/2+y,-z
1/2-x,1/2+y,1/2+z
1/2+x,1/2-y,1/2+z
loop_
_atom_site_type_symbol
_atom_site_label
_atom_site_fract_x
_atom_site_fract_y
_atom_site_fract_z
Si Si1 0.568322 0.376731 0.624185
Si Si2 0.742278 0.039297 0.000000
Si Si3 0.991812 0.213395 0.448778
Si Si4 0.402590 0.937682 0.903046
Si Si5 0.503128 0.286329 0.697034
O O1 0.469713 0.338858 0.583002
O O2 0.357334 0.427106 0.627824
O O3 0.538693 0.344091 0.671278
O O4 0.863972 0.397291 0.613446
O O5 0.705504 0.075600 0.954347
O O6 0.500000 0.000000 0.000000
O O7 0.000000 0.000000 0.000000
O O8 0.933669 0.192457 0.500000
O O9 0.250000 0.250000 0.446787
O O10 0.750000 0.250000 0.430215
O O11 0.500000 0.000000 0.897342
O O12 0.500000 0.301270 0.750000
O O13 0.750000 0.250000 0.683040
O O14 0.250000 0.250000 0.682312
#
# Coordination Sequence:
#
# PCOD8276776 Si02
#       5
#    16   8  16  16  16
#     4  12  22  36  62  84 114 156 197 240 294 361
#     4  10  20  38  56  76 110 154 206 254 294 328
#     4  10  21  35  51  77 114 147 182 227 281 352
#     4  11  24  38  57  83 117 155 201 255 289 337
#     4  10  21  39  64  93 121 148 190 246 299 358
#
# _framework density 20.01745
#
# number of rings (size 3 to 8) (size 9 to 14) (size 15 to 20)
#    0.000    1.333    0.000    7.333    3.111    0.000 
#    0.000    0.000    0.000    4.000    0.000    0.000 
#    0.000    0.000    0.000    0.000    0.000    0.000 
#
# Total GULP energy -446261.525636 kJ/mol
# GULP energy per Si atom -12396.153490 kJ/mol
# Density = 1.997189 g / cm^3
# Si number density = 20.017450 Si / 1000 Ang^3
#
#
#
# Elastic Constant Matrix: (Units=GPa)
#
#
# Indices 1 2 3 4 5 6 
#
# 1 154.8377 30.8682 36.2913 0.0000 0.0000 0.0000
# 2 30.8682 72.1577 47.8768 0.0000 0.0000 0.0000
# 3 36.2913 47.8768 90.2630 0.0000 0.0000 0.0000
# 4 0.0000 0.0000 0.0000 38.8853 0.0000 0.0000
# 5 0.0000 0.0000 0.0000 0.0000 36.9376 0.0000
# 6 0.0000 0.0000 0.0000 0.0000 0.0000 38.2568
#
#
#
# Elastic Compliance Matrix: (Units=1/GPa)
#
#
# Indices 1 2 3 4 5 6 
#
# 1 0.007280 -0.001809 -0.001968 0.000000 0.000000 0.000000
# 2 -0.001809 0.021834 -0.010854 0.000000 0.000000 0.000000
# 3 -0.001968 -0.010854 0.017627 0.000000 0.000000 0.000000
# 4 0.000000 0.000000 0.000000 0.025717 0.000000 0.000000
# 5 0.000000 0.000000 0.000000 0.000000 0.027073 0.000000
# 6 0.000000 0.000000 0.000000 0.000000 0.000000 0.026139
#
#
# Mechanical properties :
#
#
# Convention : Reuss Voigt Hill
#
# Bulk Modulus (GPa) = 57.20686 60.81454 59.01070
# Shear Modulus (GPa) = 31.10295 36.29741 33.70018
#
# Velocity S-wave (km/s) = 3.94609 4.26289 4.10755
# Velocity P-wave (km/s) = 7.02871 7.39435 7.21385
#
# Compressibility (1/GPa) = 0.01748042
#
# Stress axis : x y z
#
# Youngs Moduli (GPa) = 137.35958 45.80056 56.73173
#
# Poissons Ratio (x) = 0.08285 0.11163
# Poissons Ratio (y) = 0.24846 0.61575
# Poissons Ratio (z) = 0.27027 0.49711
#
# Static dielectric constant tensor:
#      x y z
#    x 3.924920 0.000000 0.000000 
#    y 0.000000 3.506830 0.000000 
#    z 0.000000 0.000000 2.974950 
# 
# 
# High freq. dielectric constant tensor:
#      x y z
#    x 1.809900 0.000000 0.000000 
#    y 0.000000 1.773440 0.000000 
#    z 0.000000 0.000000 1.763400 
# 
# From -- ./inp_files/67169.got.cif
#   From: 2010.03.12/outbox.cif.g09.slc.cpg/sg66_34_cif.got.tgz:67169.got - 2010.04.10 21:57:39.
