data_PCOD8276751
_publ_section_title
;
Structure prediction by ZEFSAII (Michael W. Deem and Ramdas Pophale) SiO2 
 PCOD8276751
Probable space group: C C C M
;
_chemical_formula_sum "Si O2"
_cell_formula_units_Z 88
_cell_length_a 21.878162
_cell_length_b 12.373469
_cell_length_c 15.344186
_cell_angle_alpha 90.000000
_cell_angle_beta 90.000000
_cell_angle_gamma 90.000000
_cell_volume 4153.805554
_symmetry_space_group_name_H-M "C C C M"
_symmetry_group_IT_number 66
_symmetry_cell_setting 'orthorhombic'
loop_
_space_group_symop_operation_xyz
x,y,z
-x,-y,z
x,-y,1/2-z
-x,y,1/2-z
-x,-y,-z
x,y,-z
-x,y,1/2+z
x,-y,1/2+z
1/2+x,1/2+y,z
1/2-x,1/2-y,z
1/2+x,1/2-y,1/2-z
1/2-x,1/2+y,1/2-z
1/2-x,1/2-y,-z
1/2+x,1/2+y,-z
1/2-x,1/2+y,1/2+z
1/2+x,1/2-y,1/2+z
loop_
_atom_site_type_symbol
_atom_site_label
_atom_site_fract_x
_atom_site_fract_y
_atom_site_fract_z
Si Si1 0.536755 0.398451 0.603060
Si Si2 0.225667 0.552512 0.100506
Si Si3 0.498842 0.170996 0.396345
Si Si4 0.093393 0.498990 0.897494
Si Si5 0.669930 0.586302 0.823238
Si Si6 0.750000 0.250000 0.775056
O O1 0.500000 0.500000 0.644105
O O2 0.531222 0.403376 0.500000
O O3 0.502952 0.292146 0.641510
O O4 0.608199 0.392189 0.624878
O O5 0.164039 0.489641 0.128463
O O6 0.280567 0.468665 0.112907
O O7 0.226099 0.655790 0.162509
O O8 0.223856 0.591064 0.000000
O O9 0.502780 0.177501 0.500000
O O10 0.436179 0.113058 0.365266
O O11 0.556123 0.102038 0.358271
O O12 0.084644 0.495641 0.000000
O O13 0.653819 0.500000 0.750000
O O14 0.696459 0.699070 0.785147
#
# Coordination Sequence:
#
# PCOD8276751 Si02
#       6
#    16  16  16  16  16   8
#     4  10  21  37  59  86 116 153 200 249 293 358
#     4  10  20  37  62  88 114 155 211 258 296 363
#     4   8  15  29  50  82 117 141 178 240 300 346
#     4   8  15  29  52  83 112 141 183 243 301 339
#     4  10  23  40  56  84 120 161 197 245 308 365
#     4  10  23  40  57  84 122 164 194 250 319 374
#
# _framework density 21.185393000000001
#
# number of rings (size 3 to 8) (size 9 to 14) (size 15 to 20)
#    0.000    2.727    0.000    1.909    2.545    3.273 
#    0.000    6.364    0.000    0.000    0.000    0.000 
#    0.000    0.000    0.000    0.000    0.000    0.000 
#
# Total GULP energy -545278.245976 kJ/mol
# GULP energy per Si atom -12392.687409 kJ/mol
# Density = 2.113717 g / cm^3
# Si number density = 21.185393 Si / 1000 Ang^3
#
#
#
# Elastic Constant Matrix: (Units=GPa)
#
#
# Indices 1 2 3 4 5 6 
#
# 1 117.2195 48.5839 17.1566 0.0000 0.0000 0.0000
# 2 48.5839 148.0287 24.5840 0.0000 0.0000 0.0000
# 3 17.1566 24.5840 35.1082 0.0000 0.0000 0.0000
# 4 0.0000 0.0000 0.0000 11.7919 0.0000 0.0000
# 5 0.0000 0.0000 0.0000 0.0000 19.0458 0.0000
# 6 0.0000 0.0000 0.0000 0.0000 0.0000 24.3102
#
#
#
# Elastic Compliance Matrix: (Units=1/GPa)
#
#
# Indices 1 2 3 4 5 6 
#
# 1 0.010141 -0.002835 -0.002970 0.000000 0.000000 0.000000
# 2 -0.002835 0.008437 -0.004523 0.000000 0.000000 0.000000
# 3 -0.002970 -0.004523 0.033102 0.000000 0.000000 0.000000
# 4 0.000000 0.000000 0.000000 0.084804 0.000000 0.000000
# 5 0.000000 0.000000 0.000000 0.000000 0.052505 0.000000
# 6 0.000000 0.000000 0.000000 0.000000 0.000000 0.041135
#
#
# Mechanical properties :
#
#
# Convention : Reuss Voigt Hill
#
# Bulk Modulus (GPa) = 32.23333 53.44504 42.83918
# Shear Modulus (GPa) = 19.14825 25.03171 22.08998
#
# Velocity S-wave (km/s) = 3.00966 3.44110 3.23259
# Velocity P-wave (km/s) = 5.22736 6.40861 5.84789
#
# Compressibility (1/GPa) = 0.03102379
#
# Stress axis : x y z
#
# Youngs Moduli (GPa) = 98.61194 118.52594 30.20981
#
# Poissons Ratio (x) = 0.33601 0.08974
# Poissons Ratio (y) = 0.27956 0.13662
# Poissons Ratio (z) = 0.29292 0.53603
#
# Static dielectric constant tensor:
#      x y z
#    x 3.915900 0.000000 0.000000 
#    y 0.000000 4.218320 0.000000 
#    z 0.000000 0.000000 3.518750 
# 
# 
# High freq. dielectric constant tensor:
#      x y z
#    x 1.832450 0.000000 0.000000 
#    y 0.000000 1.835680 0.000000 
#    z 0.000000 0.000000 1.809330 
# 
# From -- ./inp_files/33184.got.cif
#   From: 2010.03.12/outbox.cif.g09.slc.cpg/sg66_17_cif.got.tgz:33184.got - 2010.04.10 21:57:39.
