data_PCOD8276538
_publ_section_title
;
Structure prediction by ZEFSAII (Michael W. Deem and Ramdas Pophale) SiO2 
 PCOD8276538
Probable space group: C C C M
;
_chemical_formula_sum "Si O2"
_cell_formula_units_Z 96
_cell_length_a 27.453500
_cell_length_b 20.306707
_cell_length_c 8.671638
_cell_angle_alpha 90.000000
_cell_angle_beta 90.000000
_cell_angle_gamma 90.000000
_cell_volume 4834.353035
_symmetry_space_group_name_H-M "C C C M"
_symmetry_group_IT_number 66
_symmetry_cell_setting 'orthorhombic'
loop_
_space_group_symop_operation_xyz
x,y,z
-x,-y,z
x,-y,1/2-z
-x,y,1/2-z
-x,-y,-z
x,y,-z
-x,y,1/2+z
x,-y,1/2+z
1/2+x,1/2+y,z
1/2-x,1/2-y,z
1/2+x,1/2-y,1/2-z
1/2-x,1/2+y,1/2-z
1/2-x,1/2-y,-z
1/2+x,1/2+y,-z
1/2-x,1/2+y,1/2+z
1/2+x,1/2-y,1/2+z
loop_
_atom_site_type_symbol
_atom_site_label
_atom_site_fract_x
_atom_site_fract_y
_atom_site_fract_z
Si Si1 0.447166 0.816686 0.317850
Si Si2 0.211030 0.804366 0.821168
Si Si3 0.108208 0.812969 0.319371
Si Si4 0.771983 0.431985 0.179649
Si Si5 0.124271 0.569797 0.682790
Si Si6 0.051650 0.070308 0.318063
O O1 0.500000 0.827597 0.250000
O O2 0.450159 0.819180 0.500000
O O3 0.425699 0.746915 0.263045
O O4 0.412648 0.874869 0.255661
O O5 0.250000 0.750000 0.768627
O O6 0.163634 0.794540 0.717537
O O7 0.231955 0.876717 0.789160
O O8 0.197344 0.794712 0.000000
O O9 0.102254 0.826422 0.500000
O O10 0.093089 0.877699 0.225517
O O11 0.751665 0.500000 0.250000
O O12 0.822130 0.410905 0.259838
O O13 0.782614 0.441832 0.000000
O O14 0.107098 0.500000 0.750000
O O15 0.124746 0.565878 0.500000
O O16 0.046867 0.064127 0.500000
O O17 0.000000 0.093994 0.250000
O O18 0.067085 0.000000 0.250000
#
# Coordination Sequence:
#
# PCOD8276538 Si02
#       6
#    16  16  16  16  16  16
#     4  10  23  39  57  82 112 147 187 231 279 333
#     4  10  22  39  58  82 112 148 191 237 286 339
#     4  11  23  39  59  85 115 150 191 235 286 340
#     4  10  20  35  57  83 111 145 183 224 275 331
#     4  10  20  36  57  83 113 146 186 229 277 332
#     4  11  22  39  62  88 118 152 190 233 282 337
#
# _framework density 19.857880999999999
#
# number of rings (size 3 to 8) (size 9 to 14) (size 15 to 20)
#    0.000    1.667    0.000    6.000    0.000    6.667 
#    0.000    3.333    0.000    0.000    0.000    0.000 
#    0.000    0.000    0.000    0.000    0.000    0.000 
#
# Total GULP energy -595466.448382 kJ/mol
# GULP energy per Si atom -12405.551008 kJ/mol
# Density = 1.981268 g / cm^3
# Si number density = 19.857881 Si / 1000 Ang^3
#
#
#
# Elastic Constant Matrix: (Units=GPa)
#
#
# Indices 1 2 3 4 5 6 
#
# 1 61.8929 17.2864 21.4731 0.0000 0.0000 0.0000
# 2 17.2864 77.0925 31.8857 0.0000 0.0000 0.0000
# 3 21.4731 31.8857 90.3173 0.0000 0.0000 0.0000
# 4 0.0000 0.0000 0.0000 44.3181 0.0000 0.0000
# 5 0.0000 0.0000 0.0000 0.0000 35.2247 0.0000
# 6 0.0000 0.0000 0.0000 0.0000 0.0000 41.2801
#
#
#
# Elastic Compliance Matrix: (Units=1/GPa)
#
#
# Indices 1 2 3 4 5 6 
#
# 1 0.018065 -0.002663 -0.003355 0.000000 0.000000 0.000000
# 2 -0.002663 0.015582 -0.004868 0.000000 0.000000 0.000000
# 3 -0.003355 -0.004868 0.013588 0.000000 0.000000 0.000000
# 4 0.000000 0.000000 0.000000 0.022564 0.000000 0.000000
# 5 0.000000 0.000000 0.000000 0.000000 0.028389 0.000000
# 6 0.000000 0.000000 0.000000 0.000000 0.000000 0.024225
#
#
# Mechanical properties :
#
#
# Convention : Reuss Voigt Hill
#
# Bulk Modulus (GPa) = 39.27208 41.17699 40.22453
# Shear Modulus (GPa) = 32.74994 34.74176 33.74585
#
# Velocity S-wave (km/s) = 4.06546 4.18726 4.12681
# Velocity P-wave (km/s) = 6.46968 6.64518 6.55802
#
# Compressibility (1/GPa) = 0.02546338
#
# Stress axis : x y z
#
# Youngs Moduli (GPa) = 55.35686 64.17685 73.59313
#
# Poissons Ratio (x) = 0.17091 0.24688
# Poissons Ratio (y) = 0.14742 0.35824
# Poissons Ratio (z) = 0.18571 0.31241
#
# Static dielectric constant tensor:
#      x y z
#    x -0.797170 0.000000 0.000000 
#    y 0.000000 3.857550 0.000000 
#    z 0.000000 0.000000 3.593000 
# 
# 
# High freq. dielectric constant tensor:
#      x y z
#    x 1.772560 0.000000 0.000000 
#    y 0.000000 1.789890 0.000000 
#    z 0.000000 0.000000 1.779690 
# 
# From -- ./inp_files/8046.got.cif
#   From: 2010.03.12/outbox.cif.g09.slc.cpg/sg66_5_cif.got.tgz:8046.got - 2010.04.10 21:57:39.
