data_PCOD8276643
_publ_section_title
;
Structure prediction by ZEFSAII (Michael W. Deem and Ramdas Pophale) SiO2 
 PCOD8276643
Probable space group: C C C M
;
_chemical_formula_sum "Si O2"
_cell_formula_units_Z 116
_cell_length_a 22.250264
_cell_length_b 26.116346
_cell_length_c 9.439753
_cell_angle_alpha 90.000000
_cell_angle_beta 90.000000
_cell_angle_gamma 90.000000
_cell_volume 5485.398869
_symmetry_space_group_name_H-M "C C C M"
_symmetry_group_IT_number 66
_symmetry_cell_setting 'orthorhombic'
loop_
_space_group_symop_operation_xyz
x,y,z
-x,-y,z
x,-y,1/2-z
-x,y,1/2-z
-x,-y,-z
x,y,-z
-x,y,1/2+z
x,-y,1/2+z
1/2+x,1/2+y,z
1/2-x,1/2-y,z
1/2+x,1/2-y,1/2-z
1/2-x,1/2+y,1/2-z
1/2-x,1/2-y,-z
1/2+x,1/2+y,-z
1/2-x,1/2+y,1/2+z
1/2+x,1/2-y,1/2+z
loop_
_atom_site_type_symbol
_atom_site_label
_atom_site_fract_x
_atom_site_fract_y
_atom_site_fract_z
Si Si1 0.285945 0.911142 0.333093
Si Si2 0.000000 0.500000 0.250000
Si Si3 0.945097 0.885910 0.342919
Si Si4 0.170314 0.049582 0.331465
Si Si5 0.057906 0.690746 0.834936
Si Si6 0.901429 0.578187 0.660264
Si Si7 0.768010 0.805374 0.163319
Si Si8 0.123100 0.790315 0.840835
O O1 0.282338 0.925649 0.500000
O O2 0.232128 0.935398 0.245142
O O3 0.347564 0.934701 0.269020
O O4 0.282366 0.849289 0.312238
O O5 0.955714 0.536916 0.338967
O O6 0.962357 0.903267 0.500000
O O7 0.880923 0.909147 0.300435
O O8 0.937629 0.824319 0.331087
O O9 0.000000 0.906115 0.250000
O O10 0.181293 0.041254 0.500000
O O11 0.146362 0.000000 0.250000
O O12 0.075712 0.633630 0.790059
O O13 0.109729 0.731731 0.794759
O O14 0.000000 0.707888 0.750000
O O15 0.042558 0.693995 0.000000
O O16 0.876310 0.580614 0.500000
O O17 0.750000 0.750000 0.225428
O O18 0.828859 0.819184 0.243420
O O19 0.784521 0.800652 0.000000
O O20 0.148872 0.791363 0.000000
#
# Coordination Sequence:
#
# PCOD8276643 Si02
#       8
#    16   4  16  16  16  16  16  16
#     4  11  24  42  67  98 131 171 216 268 330 392
#     4  12  26  48  72  94 130 176 222 278 332 388
#     4  10  22  39  62  93 128 168 211 260 314 378
#     4  11  24  44  67  93 128 168 215 270 324 386
#     4  10  21  38  60  89 125 166 213 266 326 390
#     4  11  25  44  67  95 126 167 218 274 332 392
#     4  10  21  37  59  92 131 169 211 259 317 384
#     4  10  20  36  59  90 127 167 212 259 317 384
#
# _framework density 21.147048999999999
#
# number of rings (size 3 to 8) (size 9 to 14) (size 15 to 20)
#    0.000    1.517    2.069    2.276    0.966    4.966 
#    0.000    1.379    0.000    0.000    0.000    0.000 
#    0.000    0.000    0.000    0.000    0.000    0.000 
#
# Total GULP energy -718952.366868 kJ/mol
# GULP energy per Si atom -12395.730463 kJ/mol
# Density = 2.109892 g / cm^3
# Si number density = 21.147049 Si / 1000 Ang^3
#
#
#
# Elastic Constant Matrix: (Units=GPa)
#
#
# Indices 1 2 3 4 5 6 
#
# 1 123.1002 34.3551 63.2637 0.0000 0.0000 0.0000
# 2 34.3551 100.9558 37.0678 0.0000 0.0000 0.0000
# 3 63.2637 37.0678 96.9129 0.0000 0.0000 0.0000
# 4 0.0000 0.0000 0.0000 29.5790 0.0000 0.0000
# 5 0.0000 0.0000 0.0000 0.0000 38.8181 0.0000
# 6 0.0000 0.0000 0.0000 0.0000 0.0000 26.1498
#
#
#
# Elastic Compliance Matrix: (Units=1/GPa)
#
#
# Indices 1 2 3 4 5 6 
#
# 1 0.012405 -0.001452 -0.007542 0.000000 0.000000 0.000000
# 2 -0.001452 0.011694 -0.003525 0.000000 0.000000 0.000000
# 3 -0.007542 -0.003525 0.016590 0.000000 0.000000 0.000000
# 4 0.000000 0.000000 0.000000 0.033808 0.000000 0.000000
# 5 0.000000 0.000000 0.000000 0.000000 0.025761 0.000000
# 6 0.000000 0.000000 0.000000 0.000000 0.000000 0.038241
#
#
# Mechanical properties :
#
#
# Convention : Reuss Voigt Hill
#
# Bulk Modulus (GPa) = 63.89602 65.59357 64.74479
# Shear Modulus (GPa) = 29.62889 31.32820 30.47855
#
# Velocity S-wave (km/s) = 3.74717 3.85313 3.80052
# Velocity P-wave (km/s) = 7.00017 7.13307 7.06693
#
# Compressibility (1/GPa) = 0.01565043
#
# Stress axis : x y z
#
# Youngs Moduli (GPa) = 80.61344 85.51659 60.27617
#
# Poissons Ratio (x) = 0.12417 0.45463
# Poissons Ratio (y) = 0.11705 0.21246
# Poissons Ratio (z) = 0.60802 0.30143
#
# Static dielectric constant tensor:
#      x y z
#    x 3.582420 0.000000 0.000000 
#    y 0.000000 4.151710 0.000000 
#    z 0.000000 0.000000 3.741770 
# 
# 
# High freq. dielectric constant tensor:
#      x y z
#    x 1.818590 0.000000 0.000000 
#    y 0.000000 1.842470 0.000000 
#    z 0.000000 0.000000 1.827180 
# 
# From -- ./inp_files/9466.got.cif
#   From: 2010.03.12/outbox.cif.g09.slc.cpg/sg66_5_cif.got.tgz:9466.got - 2010.04.10 21:57:39.
