data_PCOD8276502
_publ_section_title
;
Structure prediction by ZEFSAII (Michael W. Deem and Ramdas Pophale) SiO2 
 PCOD8276502
Probable space group: C C C M
;
_chemical_formula_sum "Si O2"
_cell_formula_units_Z 64
_cell_length_a 8.117988
_cell_length_b 22.990452
_cell_length_c 16.765109
_cell_angle_alpha 90.000000
_cell_angle_beta 90.000000
_cell_angle_gamma 90.000000
_cell_volume 3128.976462
_symmetry_space_group_name_H-M "C C C M"
_symmetry_group_IT_number 66
_symmetry_cell_setting 'orthorhombic'
loop_
_space_group_symop_operation_xyz
x,y,z
-x,-y,z
x,-y,1/2-z
-x,y,1/2-z
-x,-y,-z
x,y,-z
-x,y,1/2+z
x,-y,1/2+z
1/2+x,1/2+y,z
1/2-x,1/2-y,z
1/2+x,1/2-y,1/2-z
1/2-x,1/2+y,1/2-z
1/2-x,1/2-y,-z
1/2+x,1/2+y,-z
1/2-x,1/2+y,1/2+z
1/2+x,1/2-y,1/2+z
loop_
_atom_site_type_symbol
_atom_site_label
_atom_site_fract_x
_atom_site_fract_y
_atom_site_fract_z
Si Si1 0.162748 0.868973 0.298049
Si Si2 0.016936 0.785412 0.090522
Si Si3 0.548608 0.938618 0.840968
Si Si4 0.153885 0.330762 0.353988
O O1 0.254888 0.923340 0.341679
O O2 0.291429 0.838182 0.238079
O O3 0.000000 0.890451 0.250000
O O4 0.122931 0.822198 0.365758
O O5 0.036841 0.725357 0.138829
O O6 0.187363 0.821773 0.090052
O O7 0.962336 0.773325 0.000000
O O8 0.500000 0.943817 0.750000
O O9 0.445196 0.887472 0.884028
O O10 0.500000 0.000000 0.883426
#
# Coordination Sequence:
#
# PCOD8276502 Si02
#       4
#    16  16  16  16
#     4   9  19  33  54  84 111 141 182 229 279 331
#     4  10  20  35  55  80 111 143 181 229 280 329
#     4   9  18  34  54  78 106 138 181 228 271 322
#     4   9  18  32  54  79 106 142 180 222 275 330
#
# _framework density 20.453973000000001
#
# number of rings (size 3 to 8) (size 9 to 14) (size 15 to 20)
#    0.000    2.750    0.000    1.500    0.000   18.000 
#    0.000   25.000    0.000    8.250    0.000    0.000 
#    0.000    0.000    0.000    0.000    0.000    0.000 
#
# Total GULP energy -396596.950086 kJ/mol
# GULP energy per Si atom -12393.654690 kJ/mol
# Density = 2.040742 g / cm^3
# Si number density = 20.453973 Si / 1000 Ang^3
#
#
#
# Elastic Constant Matrix: (Units=GPa)
#
#
# Indices 1 2 3 4 5 6 
#
# 1 110.6268 91.3280 29.9104 0.0000 0.0000 0.0000
# 2 91.3280 178.4416 34.9055 0.0000 0.0000 0.0000
# 3 29.9104 34.9055 62.1270 0.0000 0.0000 0.0000
# 4 0.0000 0.0000 0.0000 0.6733 0.0000 0.0000
# 5 0.0000 0.0000 0.0000 0.0000 11.2083 0.0000
# 6 0.0000 0.0000 0.0000 0.0000 0.0000 34.8117
#
#
#
# Elastic Compliance Matrix: (Units=1/GPa)
#
#
# Indices 1 2 3 4 5 6 
#
# 1 0.016324 -0.007659 -0.003556 0.000000 0.000000 0.000000
# 2 -0.007659 0.009890 -0.001869 0.000000 0.000000 0.000000
# 3 -0.003556 -0.001869 0.018858 0.000000 0.000000 0.000000
# 4 0.000000 0.000000 0.000000 1.485288 0.000000 0.000000
# 5 0.000000 0.000000 0.000000 0.000000 0.089219 0.000000
# 6 0.000000 0.000000 0.000000 0.000000 0.000000 0.028726
#
#
# Mechanical properties :
#
#
# Convention : Reuss Voigt Hill
#
# Bulk Modulus (GPa) = 52.89950 73.72036 63.30993
# Shear Modulus (GPa) = 2.97482 22.34211 12.65846
#
# Velocity S-wave (km/s) = 1.20729 3.30860 2.49042
# Velocity P-wave (km/s) = 5.27847 7.12152 6.26811
#
# Compressibility (1/GPa) = 0.01890377
#
# Stress axis : x y z
#
# Youngs Moduli (GPa) = 61.26055 101.11558 53.02790
#
# Poissons Ratio (x) = 0.77445 0.18855
# Poissons Ratio (y) = 0.46920 0.09911
# Poissons Ratio (z) = 0.21782 0.18899
#
# Static dielectric constant tensor:
#      x y z
#    x 3.900150 0.000000 0.000000 
#    y 0.000000 4.342760 0.000000 
#    z 0.000000 0.000000 3.292810 
# 
# 
# High freq. dielectric constant tensor:
#      x y z
#    x 1.805660 0.000000 0.000000 
#    y 0.000000 1.788510 0.000000 
#    z 0.000000 0.000000 1.759170 
# 
# From -- ./inp_files/24147.got.cif
#   From: 2010.03.12/outbox.cif.g09.slc.cpg/sg66_13_cif.got.tgz:24147.got - 2010.04.10 21:57:39.
