data_PCOD8276799
_publ_section_title
;
Structure prediction by ZEFSAII (Michael W. Deem and Ramdas Pophale) SiO2 
 PCOD8276799
Probable space group: C C C M
;
_chemical_formula_sum "Si O2"
_cell_formula_units_Z 96
_cell_length_a 15.020692
_cell_length_b 14.053530
_cell_length_c 22.681894
_cell_angle_alpha 90.000000
_cell_angle_beta 90.000000
_cell_angle_gamma 90.000000
_cell_volume 4788.005963
_symmetry_space_group_name_H-M "C C C M"
_symmetry_group_IT_number 66
_symmetry_cell_setting 'orthorhombic'
loop_
_space_group_symop_operation_xyz
x,y,z
-x,-y,z
x,-y,1/2-z
-x,y,1/2-z
-x,-y,-z
x,y,-z
-x,y,1/2+z
x,-y,1/2+z
1/2+x,1/2+y,z
1/2-x,1/2-y,z
1/2+x,1/2-y,1/2-z
1/2-x,1/2+y,1/2-z
1/2-x,1/2-y,-z
1/2+x,1/2+y,-z
1/2-x,1/2+y,1/2+z
1/2+x,1/2-y,1/2+z
loop_
_atom_site_type_symbol
_atom_site_label
_atom_site_fract_x
_atom_site_fract_y
_atom_site_fract_z
Si Si1 0.858215 0.947239 0.500000
Si Si2 0.067336 0.252298 0.500000
Si Si3 0.661564 0.196792 0.819994
Si Si4 0.103513 0.500865 0.873177
Si Si5 0.349889 0.958090 0.000000
Si Si6 0.664689 0.811181 0.181439
Si Si7 0.999187 0.206101 0.374205
Si Si8 0.000000 0.000000 0.093029
O O1 0.861976 0.833095 0.500000
O O2 0.755724 0.976702 0.500000
O O3 0.909269 0.989489 0.443877
O O4 0.124866 0.347294 0.500000
O O5 0.005283 0.242979 0.441931
O O6 0.750000 0.250000 0.841124
O O7 0.650730 0.098744 0.855156
O O8 0.661022 0.175625 0.751120
O O9 0.585170 0.269702 0.836601
O O10 0.107138 0.490326 0.943681
O O11 0.162267 0.417021 0.845134
O O12 0.000000 0.500000 0.852086
O O13 0.750000 0.750000 0.161580
O O14 0.581351 0.755782 0.157332
O O15 0.986053 0.093243 0.367752
#
# Coordination Sequence:
#
# PCOD8276799 Si02
#       8
#     8   8  16  16   8  16  16   8
#     4   9  21  37  58  90 132 176 210 250 334 410
#     4  10  20  38  62 100 128 167 214 278 324 398
#     4  11  25  43  70  98 125 171 237 277 324 383
#     4  12  25  44  69  97 136 173 220 275 340 398
#     4  12  23  35  66  99 129 163 219 275 332 389
#     4  11  26  45  64  96 133 178 225 272 327 405
#     4  11  22  41  68  92 136 171 219 273 339 385
#     4   9  22  38  59  92 132 170 213 259 328 412
#
# _framework density 20.050101000000002
#
# number of rings (size 3 to 8) (size 9 to 14) (size 15 to 20)
#    0.000    1.167    3.333    2.000    7.000    1.333 
#    0.000    4.167    0.000    0.000    0.000    0.000 
#    0.000    0.000    0.000    0.000    0.000    0.000 
#
# Total GULP energy -595301.390508 kJ/mol
# GULP energy per Si atom -12402.112302 kJ/mol
# Density = 2.000447 g / cm^3
# Si number density = 20.050101 Si / 1000 Ang^3
#
#
#
# Elastic Constant Matrix: (Units=GPa)
#
#
# Indices 1 2 3 4 5 6 
#
# 1 118.5379 33.0663 24.5621 0.0000 0.0000 0.0000
# 2 33.0663 127.7084 31.3434 0.0000 0.0000 0.0000
# 3 24.5621 31.3434 70.9803 0.0000 0.0000 0.0000
# 4 0.0000 0.0000 0.0000 27.0813 0.0000 0.0000
# 5 0.0000 0.0000 0.0000 0.0000 29.6546 0.0000
# 6 0.0000 0.0000 0.0000 0.0000 0.0000 122.6928
#
#
#
# Elastic Compliance Matrix: (Units=1/GPa)
#
#
# Indices 1 2 3 4 5 6 
#
# 1 0.009461 -0.001846 -0.002459 0.000000 0.000000 0.000000
# 2 -0.001846 0.009142 -0.003398 0.000000 0.000000 0.000000
# 3 -0.002459 -0.003398 0.016440 0.000000 0.000000 0.000000
# 4 0.000000 0.000000 0.000000 0.036926 0.000000 0.000000
# 5 0.000000 0.000000 0.000000 0.000000 0.033722 0.000000
# 6 0.000000 0.000000 0.000000 0.000000 0.000000 0.008150
#
#
# Mechanical properties :
#
#
# Convention : Reuss Voigt Hill
#
# Bulk Modulus (GPa) = 50.92463 55.01894 52.97178
# Shear Modulus (GPa) = 36.82104 51.10272 43.96188
#
# Velocity S-wave (km/s) = 4.29003 5.05399 4.68760
# Velocity P-wave (km/s) = 7.07057 7.84585 7.46828
#
# Compressibility (1/GPa) = 0.01963686
#
# Stress axis : x y z
#
# Youngs Moduli (GPa) = 105.70232 109.38086 60.82815
#
# Poissons Ratio (x) = 0.20193 0.14955
# Poissons Ratio (y) = 0.19514 0.20671
# Poissons Ratio (z) = 0.25987 0.37170
#
# Static dielectric constant tensor:
#      x y z
#    x 3.600580 0.000000 0.000000 
#    y 0.000000 3.847830 0.000000 
#    z 0.000000 0.000000 3.982610 
# 
# 
# High freq. dielectric constant tensor:
#      x y z
#    x 1.784410 0.000000 0.000000 
#    y 0.000000 1.794680 0.000000 
#    z 0.000000 0.000000 1.785740 
# 
# From -- ./inp_files/49929.got.cif
#   From: 2010.03.12/outbox.cif.g09.slc.cpg/sg66_25_cif.got.tgz:49929.got - 2010.04.10 21:57:39.
