data_PCOD8276454
_publ_section_title
;
Structure prediction by ZEFSAII (Michael W. Deem and Ramdas Pophale) SiO2 
 PCOD8276454
Probable space group: C C C M
;
_chemical_formula_sum "Si O2"
_cell_formula_units_Z 96
_cell_length_a 9.750304
_cell_length_b 17.795623
_cell_length_c 27.766032
_cell_angle_alpha 90.000000
_cell_angle_beta 90.000000
_cell_angle_gamma 90.000000
_cell_volume 4817.760128
_symmetry_space_group_name_H-M "C C C M"
_symmetry_group_IT_number 66
_symmetry_cell_setting 'orthorhombic'
loop_
_space_group_symop_operation_xyz
x,y,z
-x,-y,z
x,-y,1/2-z
-x,y,1/2-z
-x,-y,-z
x,y,-z
-x,y,1/2+z
x,-y,1/2+z
1/2+x,1/2+y,z
1/2-x,1/2-y,z
1/2+x,1/2-y,1/2-z
1/2-x,1/2+y,1/2-z
1/2-x,1/2-y,-z
1/2+x,1/2+y,-z
1/2-x,1/2+y,1/2+z
1/2+x,1/2-y,1/2+z
loop_
_atom_site_type_symbol
_atom_site_label
_atom_site_fract_x
_atom_site_fract_y
_atom_site_fract_z
Si Si1 0.959425 0.843079 0.644256
Si Si2 0.245443 0.910168 0.675533
Si Si3 0.012451 0.327892 0.652698
Si Si4 0.643633 0.965095 0.611466
Si Si5 0.112642 0.063303 0.553812
Si Si6 0.731812 0.834467 0.726466
O O1 0.991815 0.756661 0.634394
O O2 0.906966 0.872238 0.593125
O O3 0.844359 0.851462 0.685287
O O4 0.093458 0.889989 0.658572
O O5 0.356602 0.855769 0.650856
O O6 0.252054 0.898606 0.733084
O O7 0.286250 0.995050 0.658972
O O8 0.115781 0.377057 0.620264
O O9 0.076619 0.335562 0.706206
O O10 0.741614 0.975698 0.565497
O O11 0.500000 0.000000 0.597504
O O12 0.113350 0.097701 0.500000
O O13 0.000000 0.000000 0.558742
O O14 0.750000 0.750000 0.748442
#
# Coordination Sequence:
#
# PCOD8276454 Si02
#       6
#    16  16  16  16  16  16
#     4  11  21  38  62  89 119 159 206 254 297 357
#     4  11  21  35  59  89 124 168 201 234 297 365
#     4  10  21  37  58  86 130 158 199 244 298 351
#     4  10  22  40  60  89 119 157 198 247 303 361
#     4  11  23  43  67  88 116 155 201 259 322 366
#     4  10  20  34  57  88 125 162 202 242 289 349
#
# _framework density 19.926272000000001
#
# number of rings (size 3 to 8) (size 9 to 14) (size 15 to 20)
#    0.000    1.500    3.333    2.500    0.000    3.667 
#    0.000    4.167    0.000    3.000    0.000    0.000 
#    0.000    0.000    0.000    0.000    0.000    0.000 
#
# Total GULP energy -594928.665509 kJ/mol
# GULP energy per Si atom -12394.347198 kJ/mol
# Density = 1.988092 g / cm^3
# Si number density = 19.926272 Si / 1000 Ang^3
#
#
#
# Elastic Constant Matrix: (Units=GPa)
#
#
# Indices 1 2 3 4 5 6 
#
# 1 98.4061 7.0583 28.5347 0.0000 0.0000 0.0000
# 2 7.0583 51.8129 25.9184 0.0000 0.0000 0.0000
# 3 28.5347 25.9184 115.2125 0.0000 0.0000 0.0000
# 4 0.0000 0.0000 0.0000 20.8132 0.0000 0.0000
# 5 0.0000 0.0000 0.0000 0.0000 14.4003 0.0000
# 6 0.0000 0.0000 0.0000 0.0000 0.0000 22.9669
#
#
#
# Elastic Compliance Matrix: (Units=1/GPa)
#
#
# Indices 1 2 3 4 5 6 
#
# 1 0.010949 -0.000152 -0.002678 0.000000 0.000000 0.000000
# 2 -0.000152 0.021750 -0.004855 0.000000 0.000000 0.000000
# 3 -0.002678 -0.004855 0.010435 0.000000 0.000000 0.000000
# 4 0.000000 0.000000 0.000000 0.048046 0.000000 0.000000
# 5 0.000000 0.000000 0.000000 0.000000 0.069443 0.000000
# 6 0.000000 0.000000 0.000000 0.000000 0.000000 0.043541
#
#
# Mechanical properties :
#
#
# Convention : Reuss Voigt Hill
#
# Bulk Modulus (GPa) = 36.01771 43.16158 39.58965
# Shear Modulus (GPa) = 21.85423 25.23076 23.54249
#
# Velocity S-wave (km/s) = 3.31532 3.56224 3.44100
# Velocity P-wave (km/s) = 5.72450 6.21507 5.97482
#
# Compressibility (1/GPa) = 0.02776412
#
# Stress axis : x y z
#
# Youngs Moduli (GPa) = 91.33001 45.97782 95.83143
#
# Poissons Ratio (x) = 0.00700 0.25660
# Poissons Ratio (y) = 0.01390 0.46528
# Poissons Ratio (z) = 0.24454 0.22323
#
# Static dielectric constant tensor:
#      x y z
#    x 3.947960 0.000000 0.000000 
#    y 0.000000 3.734100 0.000000 
#    z 0.000000 0.000000 3.441890 
# 
# 
# High freq. dielectric constant tensor:
#      x y z
#    x 1.806280 0.000000 0.000000 
#    y 0.000000 1.776080 0.000000 
#    z 0.000000 0.000000 1.741720 
# 
# From -- ./inp_files/62563.got.cif
#   From: 2010.03.12/outbox.cif.g09.slc.cpg/sg66_32_cif.got.tgz:62563.got - 2010.04.10 21:57:39.
