data_PCOD8276247
_publ_section_title
;
Structure prediction by ZEFSAII (Michael W. Deem and Ramdas Pophale) SiO2 
 PCOD8276247
Probable space group: C C C M
;
_chemical_formula_sum "Si O2"
_cell_formula_units_Z 72
_cell_length_a 13.822133
_cell_length_b 13.857506
_cell_length_c 17.172772
_cell_angle_alpha 90.000000
_cell_angle_beta 90.000000
_cell_angle_gamma 90.000000
_cell_volume 3289.277746
_symmetry_space_group_name_H-M "C C C M"
_symmetry_group_IT_number 66
_symmetry_cell_setting 'orthorhombic'
loop_
_space_group_symop_operation_xyz
x,y,z
-x,-y,z
x,-y,1/2-z
-x,y,1/2-z
-x,-y,-z
x,y,-z
-x,y,1/2+z
x,-y,1/2+z
1/2+x,1/2+y,z
1/2-x,1/2-y,z
1/2+x,1/2-y,1/2-z
1/2-x,1/2+y,1/2-z
1/2-x,1/2-y,-z
1/2+x,1/2+y,-z
1/2-x,1/2+y,1/2+z
1/2+x,1/2-y,1/2+z
loop_
_atom_site_type_symbol
_atom_site_label
_atom_site_fract_x
_atom_site_fract_y
_atom_site_fract_z
Si Si1 0.149733 0.286371 0.629425
Si Si2 0.131843 0.072606 0.000000
Si Si3 0.131844 0.427394 0.500000
Si Si4 0.350268 0.713629 0.629425
Si Si5 0.411251 0.637676 0.000000
Si Si6 0.588749 0.137676 0.500000
Si Si7 0.500000 0.750000 0.750000
O O1 0.250000 0.250000 0.667606
O O2 0.176455 0.379476 0.577573
O O3 0.105804 0.200906 0.576448
O O4 0.071544 0.314365 0.696098
O O5 0.176454 0.120524 0.077573
O O6 0.019053 0.098541 0.000000
O O7 0.156379 0.958447 0.000000
O O8 0.156379 0.541553 0.500000
O O9 0.019053 0.401459 0.500000
O O10 0.250000 0.750000 0.667605
O O11 0.394196 0.799094 0.576448
O O12 0.428455 0.685635 0.696099
#
# Coordination Sequence:
#
# PCOD8276247 Si02
#       7
#    16   8   8  16   8   8   8
#     4  11  22  38  62  86 114 153 191 236 287 336
#     4  10  19  38  65  87 113 148 191 244 287 328
#     4  10  19  38  65  87 113 148 191 244 287 328
#     4  11  22  38  62  86 114 153 191 236 287 336
#     4  10  19  38  65  87 113 148 191 244 287 328
#     4  10  19  38  65  87 113 148 191 244 287 328
#     4  12  22  42  54  82 128 152 190 228 282 356
#
# _framework density 21.889302000000001
#
# number of rings (size 3 to 8) (size 9 to 14) (size 15 to 20)
#    0.000    1.333    4.444    4.667    0.000    3.556 
#    0.000    4.444    0.000    5.333    0.000    0.000 
#    0.000    0.000    0.000    0.000    0.000    0.000 
#
# Total GULP energy -446205.822315 kJ/mol
# GULP energy per Si atom -12394.606175 kJ/mol
# Density = 2.183948 g / cm^3
# Si number density = 21.889302 Si / 1000 Ang^3
#
#
#
# Elastic Constant Matrix: (Units=GPa)
#
#
# Indices 1 2 3 4 5 6 
#
# 1 90.1045 8.6512 47.8258 0.0000 0.0000 0.0000
# 2 8.6512 133.3201 33.9677 0.0000 0.0000 0.0000
# 3 47.8258 33.9677 120.1071 0.0000 0.0000 0.0000
# 4 0.0000 0.0000 0.0000 -8.5418 0.0000 0.0000
# 5 0.0000 0.0000 0.0000 0.0000 17.3895 0.0000
# 6 0.0000 0.0000 0.0000 0.0000 0.0000 31.3453
#
#
#
# Elastic Compliance Matrix: (Units=1/GPa)
#
#
# Indices 1 2 3 4 5 6 
#
# 1 0.014111 0.000556 -0.005776 0.000000 0.000000 0.000000
# 2 0.000556 0.008105 -0.002514 0.000000 0.000000 0.000000
# 3 -0.005776 -0.002514 0.011337 0.000000 0.000000 0.000000
# 4 0.000000 0.000000 0.000000 -0.117071 0.000000 0.000000
# 5 0.000000 0.000000 0.000000 0.000000 0.057506 0.000000
# 6 0.000000 0.000000 0.000000 0.000000 0.000000 0.031903
#
#
# Mechanical properties :
#
#
# Convention : Reuss Voigt Hill
#
# Bulk Modulus (GPa) = 55.29372 58.26900 56.78136
# Shear Modulus (GPa) = 182.57742 24.91107 103.74424
#
# Velocity S-wave (km/s) = 9.14278 3.37716 6.89187
# Velocity P-wave (km/s) = 11.69485 6.47183 9.45130
#
# Compressibility (1/GPa) = 0.01808524
#
# Stress axis : x y z
#
# Youngs Moduli (GPa) = 70.86850 123.37922 88.20872
#
# Poissons Ratio (x) = -0.06860 0.50949
# Poissons Ratio (y) = -0.03940 0.22172
# Poissons Ratio (z) = 0.40934 0.31013
#
# Static dielectric constant tensor:
#      x y z
#    x 4.343140 0.000000 0.000000 
#    y 0.000000 4.154450 0.000000 
#    z 0.000000 0.000000 3.887090 
# 
# 
# High freq. dielectric constant tensor:
#      x y z
#    x 1.899840 0.000000 0.000000 
#    y 0.000000 1.824950 0.000000 
#    z 0.000000 0.000000 1.842960 
# 
# From -- ./inp_files/27954.got.cif
#   From: 2010.03.12/outbox.cif.g09.slc.cpg/sg66_14_cif.got.tgz:27954.got - 2010.04.10 21:57:39.
