data_PCOD8276323
_publ_section_title
;
Structure prediction by ZEFSAII (Michael W. Deem and Ramdas Pophale) SiO2 
 PCOD8276323
Probable space group: C C C M
;
_chemical_formula_sum "Si O2"
_cell_formula_units_Z 96
_cell_length_a 20.645951
_cell_length_b 29.969321
_cell_length_c 9.287719
_cell_angle_alpha 90.000000
_cell_angle_beta 90.000000
_cell_angle_gamma 90.000000
_cell_volume 5746.730927
_symmetry_space_group_name_H-M "C C C M"
_symmetry_group_IT_number 66
_symmetry_cell_setting 'orthorhombic'
loop_
_space_group_symop_operation_xyz
x,y,z
-x,-y,z
x,-y,1/2-z
-x,y,1/2-z
-x,-y,-z
x,y,-z
-x,y,1/2+z
x,-y,1/2+z
1/2+x,1/2+y,z
1/2-x,1/2-y,z
1/2+x,1/2-y,1/2-z
1/2-x,1/2+y,1/2-z
1/2-x,1/2-y,-z
1/2+x,1/2+y,-z
1/2-x,1/2+y,1/2+z
1/2+x,1/2-y,1/2+z
loop_
_atom_site_type_symbol
_atom_site_label
_atom_site_fract_x
_atom_site_fract_y
_atom_site_fract_z
Si Si1 0.615353 0.042371 0.837280
Si Si2 0.268909 0.627966 0.333852
Si Si3 0.688520 0.723934 0.829503
Si Si4 0.269744 0.457741 0.662670
Si Si5 0.882017 0.371979 0.665323
Si Si6 0.064383 0.276424 0.830563
O O1 0.692551 0.041209 0.834695
O O2 0.590892 0.087829 0.762929
O O3 0.587513 0.000000 0.750000
O O4 0.588845 0.040610 0.000000
O O5 0.280982 0.615603 0.500000
O O6 0.308450 0.671902 0.286961
O O7 0.295033 0.587322 0.237696
O O8 0.193417 0.637516 0.306331
O O9 0.750000 0.750000 0.761932
O O10 0.622212 0.745268 0.770741
O O11 0.691140 0.729917 0.000000
O O12 0.297538 0.500000 0.750000
O O13 0.296180 0.459597 0.500000
O O14 0.893197 0.385552 0.500000
O O15 0.920688 0.327705 0.707781
O O16 0.000000 0.260919 0.750000
O O17 0.054872 0.270028 0.000000
#
# Coordination Sequence:
#
# PCOD8276323 Si02
#       6
#    16  16  16  16  16  16
#     4   9  16  25  39  60  86 115 148 187 231 277
#     4   9  15  25  45  68  88 114 154 197 231 266
#     4   9  15  28  50  72  91 119 161 200 231 272
#     4   9  16  25  37  58  91 124 151 181 225 276
#     4   9  16  27  44  64  86 115 152 192 232 272
#     4  10  20  33  49  69  94 124 157 194 235 280
#
# _framework density 16.70515
#
# number of rings (size 3 to 8) (size 9 to 14) (size 15 to 20)
#    0.000    2.833    1.667    1.000    0.000    4.667 
#    0.000    0.833    0.000    1.500    0.000    3.500 
#    0.000    0.667    0.000    7.667    0.000    2.667 
#
# Total GULP energy -595150.879025 kJ/mol
# GULP energy per Si atom -12398.976646 kJ/mol
# Density = 1.666713 g / cm^3
# Si number density = 16.705150 Si / 1000 Ang^3
#
#
#
# Elastic Constant Matrix: (Units=GPa)
#
#
# Indices 1 2 3 4 5 6 
#
# 1 64.2635 52.6254 29.8738 0.0000 0.0000 0.0000
# 2 52.6254 118.5300 60.3687 0.0000 0.0000 0.0000
# 3 29.8738 60.3687 86.4096 0.0000 0.0000 0.0000
# 4 0.0000 0.0000 0.0000 26.1812 0.0000 0.0000
# 5 0.0000 0.0000 0.0000 0.0000 14.9348 0.0000
# 6 0.0000 0.0000 0.0000 0.0000 0.0000 12.5736
#
#
#
# Elastic Compliance Matrix: (Units=1/GPa)
#
#
# Indices 1 2 3 4 5 6 
#
# 1 0.024552 -0.010211 -0.001355 0.000000 0.000000 0.000000
# 2 -0.010211 0.017343 -0.008587 0.000000 0.000000 0.000000
# 3 -0.001355 -0.008587 0.018040 0.000000 0.000000 0.000000
# 4 0.000000 0.000000 0.000000 0.038195 0.000000 0.000000
# 5 0.000000 0.000000 0.000000 0.000000 0.066958 0.000000
# 6 0.000000 0.000000 0.000000 0.000000 0.000000 0.079532
#
#
# Mechanical properties :
#
#
# Convention : Reuss Voigt Hill
#
# Bulk Modulus (GPa) = 50.93839 61.65989 56.29914
# Shear Modulus (GPa) = 17.15449 19.16025 18.15737
#
# Velocity S-wave (km/s) = 3.20800 3.39036 3.30044
# Velocity P-wave (km/s) = 6.65436 7.23304 6.94973
#
# Compressibility (1/GPa) = 0.01963156
#
# Stress axis : x y z
#
# Youngs Moduli (GPa) = 40.72922 57.65887 55.43255
#
# Poissons Ratio (x) = 0.58875 0.07509
# Poissons Ratio (y) = 0.41588 0.47597
# Poissons Ratio (z) = 0.05517 0.49509
#
# Static dielectric constant tensor:
#      x y z
#    x 2.703490 0.000000 0.000000 
#    y 0.000000 3.287110 0.000000 
#    z 0.000000 0.000000 3.048230 
# 
# 
# High freq. dielectric constant tensor:
#      x y z
#    x 1.585300 0.000000 0.000000 
#    y 0.000000 1.654420 0.000000 
#    z 0.000000 0.000000 1.630860 
# 
# From -- ./inp_files/8012.got.cif
#   From: 2010.03.12/outbox.cif.g09.slc.cpg/sg66_5_cif.got.tgz:8012.got - 2010.04.10 21:57:39.
