data_PCOD8276954
_publ_section_title
;
Structure prediction by ZEFSAII (Michael W. Deem and Ramdas Pophale) SiO2 
 PCOD8276954
Probable space group: C C C M
;
_chemical_formula_sum "Si O2"
_cell_formula_units_Z 104
_cell_length_a 23.332078
_cell_length_b 25.515391
_cell_length_c 8.951553
_cell_angle_alpha 90.000000
_cell_angle_beta 90.000000
_cell_angle_gamma 90.000000
_cell_volume 5329.102025
_symmetry_space_group_name_H-M "C C C M"
_symmetry_group_IT_number 66
_symmetry_cell_setting 'orthorhombic'
loop_
_space_group_symop_operation_xyz
x,y,z
-x,-y,z
x,-y,1/2-z
-x,y,1/2-z
-x,-y,-z
x,y,-z
-x,y,1/2+z
x,-y,1/2+z
1/2+x,1/2+y,z
1/2-x,1/2-y,z
1/2+x,1/2-y,1/2-z
1/2-x,1/2+y,1/2-z
1/2-x,1/2-y,-z
1/2+x,1/2+y,-z
1/2-x,1/2+y,1/2+z
1/2+x,1/2-y,1/2+z
loop_
_atom_site_type_symbol
_atom_site_label
_atom_site_fract_x
_atom_site_fract_y
_atom_site_fract_z
Si Si1 0.810042 0.230711 0.674444
Si Si2 0.228670 0.410676 0.332668
Si Si3 0.439452 0.444967 0.320281
Si Si4 0.646919 0.000000 0.250000
Si Si5 0.161237 0.884681 0.321857
Si Si6 0.357416 0.162317 0.175269
Si Si7 0.944100 0.419758 0.663120
O O1 0.799991 0.222784 0.500000
O O2 0.750000 0.250000 0.746649
O O3 0.829548 0.174786 0.737147
O O4 0.858711 0.275209 0.705933
O O5 0.247988 0.396642 0.500000
O O6 0.188176 0.461860 0.343340
O O7 0.284925 0.420302 0.230832
O O8 0.196284 0.361297 0.262409
O O9 0.419596 0.500000 0.250000
O O10 0.500000 0.428486 0.250000
O O11 0.443040 0.448615 0.500000
O O12 0.394765 0.401815 0.267051
O O13 0.604699 0.035548 0.349867
O O14 0.152995 0.889894 0.500000
O O15 0.415927 0.133738 0.230778
O O16 0.348156 0.150054 0.000000
O O17 0.967476 0.407431 0.500000
O O18 0.000000 0.438800 0.750000
#
# Coordination Sequence:
#
# PCOD8276954 Si02
#       7
#    16  16  16   8  16  16  16
#     4   9  16  32  59  85 111 153 197 231 276 345
#     4  11  22  35  53  82 116 148 188 240 294 342
#     4  11  23  43  67  91 120 154 195 237 290 347
#     4  10  23  38  54  74 109 152 196 234 282 338
#     4  11  22  37  60  89 121 155 195 235 282 343
#     4   9  18  36  57  79 109 148 191 234 287 347
#     4  10  21  36  56  78 105 144 189 237 282 334
#
# _framework density 19.515483
#
# number of rings (size 3 to 8) (size 9 to 14) (size 15 to 20)
#    0.000    1.846    1.538    3.462    1.077    5.538 
#    0.000    3.077    0.000    1.846    0.000    0.000 
#    0.000    0.000    0.000    0.000    0.000    0.000 
#
# Total GULP energy -644463.831148 kJ/mol
# GULP energy per Si atom -12393.535214 kJ/mol
# Density = 1.947106 g / cm^3
# Si number density = 19.515483 Si / 1000 Ang^3
#
#
#
# Elastic Constant Matrix: (Units=GPa)
#
#
# Indices 1 2 3 4 5 6 
#
# 1 110.1274 72.1046 42.8338 0.0000 0.0000 0.0000
# 2 72.1046 119.1664 29.4915 0.0000 0.0000 0.0000
# 3 42.8338 29.4915 102.8064 0.0000 0.0000 0.0000
# 4 0.0000 0.0000 0.0000 19.0814 0.0000 0.0000
# 5 0.0000 0.0000 0.0000 0.0000 24.3124 0.0000
# 6 0.0000 0.0000 0.0000 0.0000 0.0000 27.9704
#
#
#
# Elastic Compliance Matrix: (Units=1/GPa)
#
#
# Indices 1 2 3 4 5 6 
#
# 1 0.016678 -0.009011 -0.004364 0.000000 0.000000 0.000000
# 2 -0.009011 0.013902 -0.000233 0.000000 0.000000 0.000000
# 3 -0.004364 -0.000233 0.011612 0.000000 0.000000 0.000000
# 4 0.000000 0.000000 0.000000 0.052407 0.000000 0.000000
# 5 0.000000 0.000000 0.000000 0.000000 0.041131 0.000000
# 6 0.000000 0.000000 0.000000 0.000000 0.000000 0.035752
#
#
# Mechanical properties :
#
#
# Convention : Reuss Voigt Hill
#
# Bulk Modulus (GPa) = 66.77861 68.99556 67.88708
# Shear Modulus (GPa) = 24.54704 26.78420 25.66562
#
# Velocity S-wave (km/s) = 3.55043 3.70869 3.63042
# Velocity P-wave (km/s) = 7.14842 7.33282 7.24121
#
# Compressibility (1/GPa) = 0.01497486
#
# Stress axis : x y z
#
# Youngs Moduli (GPa) = 59.96038 71.93247 86.11728
#
# Poissons Ratio (x) = 0.64821 0.37578
# Poissons Ratio (y) = 0.54032 0.02010
# Poissons Ratio (z) = 0.26165 0.01679
#
# Static dielectric constant tensor:
#      x y z
#    x 3.539420 0.000000 0.000000 
#    y 0.000000 3.710070 0.000000 
#    z 0.000000 0.000000 3.348560 
# 
# 
# High freq. dielectric constant tensor:
#      x y z
#    x 1.752850 0.000000 0.000000 
#    y 0.000000 1.759960 0.000000 
#    z 0.000000 0.000000 1.745320 
# 
# From -- ./inp_files/8132.got.cif
#   From: 2010.03.12/outbox.cif.g09.slc.cpg/sg66_5_cif.got.tgz:8132.got - 2010.04.10 21:57:39.
