data_PCOD8276966
_publ_section_title
;
Structure prediction by ZEFSAII (Michael W. Deem and Ramdas Pophale) SiO2 
 PCOD8276966
Probable space group: C C C M
;
_chemical_formula_sum "Si O2"
_cell_formula_units_Z 104
_cell_length_a 19.367512
_cell_length_b 7.904131
_cell_length_c 32.222847
_cell_angle_alpha 90.000000
_cell_angle_beta 90.000000
_cell_angle_gamma 90.000000
_cell_volume 4932.781429
_symmetry_space_group_name_H-M "C C C M"
_symmetry_group_IT_number 66
_symmetry_cell_setting 'orthorhombic'
loop_
_space_group_symop_operation_xyz
x,y,z
-x,-y,z
x,-y,1/2-z
-x,y,1/2-z
-x,-y,-z
x,y,-z
-x,y,1/2+z
x,-y,1/2+z
1/2+x,1/2+y,z
1/2-x,1/2-y,z
1/2+x,1/2-y,1/2-z
1/2-x,1/2+y,1/2-z
1/2-x,1/2-y,-z
1/2+x,1/2+y,-z
1/2-x,1/2+y,1/2+z
1/2+x,1/2-y,1/2+z
loop_
_atom_site_type_symbol
_atom_site_label
_atom_site_fract_x
_atom_site_fract_y
_atom_site_fract_z
Si Si1 0.000000 0.000000 0.682839
Si Si2 0.000000 0.500000 0.428138
Si Si3 0.684871 0.000000 0.250000
Si Si4 0.756829 0.445797 0.338551
Si Si5 0.886413 0.999238 0.376952
Si Si6 0.939560 0.316073 0.221287
Si Si7 0.394391 0.111720 0.366481
Si Si8 0.446243 0.648710 0.454023
O O1 0.057153 0.910028 0.653283
O O2 0.042851 0.122670 0.712508
O O3 0.068460 0.501409 0.400368
O O4 0.013311 0.671258 0.454121
O O5 0.734141 0.974957 0.210611
O O6 0.633842 0.836374 0.254626
O O7 0.750000 0.250000 0.349736
O O8 0.685961 0.523540 0.354054
O O9 0.816476 0.542384 0.363886
O O10 0.905640 0.802627 0.383126
O O11 0.886552 0.111946 0.419305
O O12 0.931772 0.416141 0.177908
O O13 0.000000 0.394162 0.250000
O O14 0.500000 0.500000 0.445015
O O15 0.413135 0.629714 0.500000
#
# Coordination Sequence:
#
# PCOD8276966 Si02
#       8
#     8   8   8  16  16  16  16  16
#     4  10  21  36  63  90 114 170 218 272 331 389
#     4  12  21  40  69  98 142 168 226 264 333 410
#     4  10  25  40  56  85 126 172 222 280 332 387
#     4  11  25  40  63  85 128 177 231 274 334 397
#     4  11  21  44  64  92 130 168 224 271 335 402
#     4  10  21  36  57  87 124 159 215 279 327 368
#     4  10  23  39  64  93 124 181 220 274 330 398
#     4  11  22  40  69 106 138 167 208 274 339 406
#
# _framework density 21.083441000000001
#
# number of rings (size 3 to 8) (size 9 to 14) (size 15 to 20)
#    0.000    1.385    2.308    3.000    6.462    3.692 
#    0.000    0.000    0.000    6.923    0.000    0.000 
#    0.000    0.000    0.000    0.000    0.000    0.000 
#
# Total GULP energy -644264.237071 kJ/mol
# GULP energy per Si atom -12389.696867 kJ/mol
# Density = 2.103545 g / cm^3
# Si number density = 21.083441 Si / 1000 Ang^3
#
#
#
# Elastic Constant Matrix: (Units=GPa)
#
#
# Indices 1 2 3 4 5 6 
#
# 1 121.2968 23.8562 59.1142 0.0000 0.0000 0.0000
# 2 23.8562 107.8796 37.2970 0.0000 0.0000 0.0000
# 3 59.1142 37.2970 125.9435 0.0000 0.0000 0.0000
# 4 0.0000 0.0000 0.0000 7.7486 0.0000 0.0000
# 5 0.0000 0.0000 0.0000 0.0000 31.4182 0.0000
# 6 0.0000 0.0000 0.0000 0.0000 0.0000 34.8639
#
#
#
# Elastic Compliance Matrix: (Units=1/GPa)
#
#
# Indices 1 2 3 4 5 6 
#
# 1 0.010737 -0.000704 -0.004831 0.000000 0.000000 0.000000
# 2 -0.000704 0.010373 -0.002741 0.000000 0.000000 0.000000
# 3 -0.004831 -0.002741 0.011020 0.000000 0.000000 0.000000
# 4 0.000000 0.000000 0.000000 0.129055 0.000000 0.000000
# 5 0.000000 0.000000 0.000000 0.000000 0.031829 0.000000
# 6 0.000000 0.000000 0.000000 0.000000 0.000000 0.028683
#
#
# Mechanical properties :
#
#
# Convention : Reuss Voigt Hill
#
# Bulk Modulus (GPa) = 64.19977 66.18384 65.19181
# Shear Modulus (GPa) = 20.53877 30.46297 25.50087
#
# Velocity S-wave (km/s) = 3.12455 3.80528 3.48159
# Velocity P-wave (km/s) = 6.59799 7.12505 6.86658
#
# Compressibility (1/GPa) = 0.01557638
#
# Stress axis : x y z
#
# Youngs Moduli (GPa) = 93.13387 96.40336 90.74782
#
# Poissons Ratio (x) = 0.06788 0.43842
# Poissons Ratio (y) = 0.06558 0.24878
# Poissons Ratio (z) = 0.44995 0.26428
#
# Static dielectric constant tensor:
#      x y z
#    x 3.833750 0.000000 0.000000 
#    y 0.000000 3.954780 0.000000 
#    z 0.000000 0.000000 3.827820 
# 
# 
# High freq. dielectric constant tensor:
#      x y z
#    x 1.811500 0.000000 0.000000 
#    y 0.000000 1.838080 0.000000 
#    z 0.000000 0.000000 1.815140 
# 
# From -- ./inp_files/70229.got.cif
#   From: 2010.03.12/outbox.cif.g09.slc.cpg/sg66_36_cif.got.tgz:70229.got - 2010.04.10 21:57:39.
