data_PCOD8276748
_publ_section_title
;
Structure prediction by ZEFSAII (Michael W. Deem and Ramdas Pophale) SiO2 
 PCOD8276748
Probable space group: C C C M
;
_chemical_formula_sum "Si O2"
_cell_formula_units_Z 96
_cell_length_a 9.968499
_cell_length_b 27.996946
_cell_length_c 18.427966
_cell_angle_alpha 90.000000
_cell_angle_beta 90.000000
_cell_angle_gamma 90.000000
_cell_volume 5143.015481
_symmetry_space_group_name_H-M "C C C M"
_symmetry_group_IT_number 66
_symmetry_cell_setting 'orthorhombic'
loop_
_space_group_symop_operation_xyz
x,y,z
-x,-y,z
x,-y,1/2-z
-x,y,1/2-z
-x,-y,-z
x,y,-z
-x,y,1/2+z
x,-y,1/2+z
1/2+x,1/2+y,z
1/2-x,1/2-y,z
1/2+x,1/2-y,1/2-z
1/2-x,1/2+y,1/2-z
1/2-x,1/2-y,-z
1/2+x,1/2+y,-z
1/2-x,1/2+y,1/2+z
1/2+x,1/2-y,1/2+z
loop_
_atom_site_type_symbol
_atom_site_label
_atom_site_fract_x
_atom_site_fract_y
_atom_site_fract_z
Si Si1 0.099511 0.803971 0.683165
Si Si2 0.742579 0.933337 0.415578
Si Si3 0.594153 0.198802 0.318859
Si Si4 0.502018 0.401119 0.836800
Si Si5 0.781951 0.956548 0.084678
Si Si6 0.540384 0.110253 0.414942
O O1 0.253722 0.809989 0.707908
O O2 0.080153 0.752059 0.645648
O O3 0.000000 0.805428 0.750000
O O4 0.058157 0.850005 0.634861
O O5 0.773351 0.923408 0.500000
O O6 0.847723 0.905228 0.366035
O O7 0.597963 0.914227 0.392044
O O8 0.744410 0.989256 0.398308
O O9 0.500000 0.191957 0.250000
O O10 0.551562 0.162210 0.380407
O O11 0.500000 0.405287 0.750000
O O12 0.414951 0.443714 0.870798
O O13 0.659594 0.923906 0.112206
O O14 0.812005 0.948798 0.000000
O O15 0.549047 0.117685 0.500000
#
# Coordination Sequence:
#
# PCOD8276748 Si02
#       6
#    16  16  16  16  16  16
#     4   9  20  37  56  86 110 144 184 221 273 330
#     4  10  22  38  57  79 110 151 187 222 271 333
#     4  10  20  37  62  83 108 146 187 223 272 332
#     4  11  22  36  56  84 114 142 181 231 278 318
#     4  10  20  38  59  79 108 149 190 223 269 331
#     4  10  21  37  57  84 112 142 184 233 276 317
#
# _framework density 18.666093
#
# number of rings (size 3 to 8) (size 9 to 14) (size 15 to 20)
#    0.000    2.000    1.667    1.500    4.667    4.667 
#    0.000    3.333    0.000    5.000    0.000    0.000 
#    0.000    0.000    0.000    0.000    0.000    0.000 
#
# Total GULP energy -595107.423397 kJ/mol
# GULP energy per Si atom -12398.071321 kJ/mol
# Density = 1.862361 g / cm^3
# Si number density = 18.666093 Si / 1000 Ang^3
#
#
#
# Elastic Constant Matrix: (Units=GPa)
#
#
# Indices 1 2 3 4 5 6 
#
# 1 110.2950 48.6401 33.9733 0.0000 0.0000 0.0000
# 2 48.6401 126.3791 33.9517 0.0000 0.0000 0.0000
# 3 33.9733 33.9517 39.7831 0.0000 0.0000 0.0000
# 4 0.0000 0.0000 0.0000 32.4008 0.0000 0.0000
# 5 0.0000 0.0000 0.0000 0.0000 30.0069 0.0000
# 6 0.0000 0.0000 0.0000 0.0000 0.0000 33.3362
#
#
#
# Elastic Compliance Matrix: (Units=1/GPa)
#
#
# Indices 1 2 3 4 5 6 
#
# 1 0.012933 -0.002609 -0.008818 0.000000 0.000000 0.000000
# 2 -0.002609 0.010793 -0.006983 0.000000 0.000000 0.000000
# 3 -0.008818 -0.006983 0.038626 0.000000 0.000000 0.000000
# 4 0.000000 0.000000 0.000000 0.030863 0.000000 0.000000
# 5 0.000000 0.000000 0.000000 0.000000 0.033326 0.000000
# 6 0.000000 0.000000 0.000000 0.000000 0.000000 0.029997
#
#
# Mechanical properties :
#
#
# Convention : Reuss Voigt Hill
#
# Bulk Modulus (GPa) = 39.16604 56.62083 47.89343
# Shear Modulus (GPa) = 24.76851 29.80823 27.28837
#
# Velocity S-wave (km/s) = 3.64665 4.00048 3.82766
# Velocity P-wave (km/s) = 6.22565 7.19290 6.72669
#
# Compressibility (1/GPa) = 0.02553233
#
# Stress axis : x y z
#
# Youngs Moduli (GPa) = 77.32024 92.65531 25.88918
#
# Poissons Ratio (x) = 0.24171 0.22830
# Poissons Ratio (y) = 0.20170 0.18078
# Poissons Ratio (z) = 0.68183 0.64701
#
# Static dielectric constant tensor:
#      x y z
#    x 3.652990 0.000000 0.000000 
#    y 0.000000 3.986090 0.000000 
#    z 0.000000 0.000000 3.097270 
# 
# 
# High freq. dielectric constant tensor:
#      x y z
#    x 1.744950 0.000000 0.000000 
#    y 0.000000 1.744530 0.000000 
#    z 0.000000 0.000000 1.689540 
# 
# From -- ./inp_files/47306.got.cif
#   From: 2010.03.12/outbox.cif.g09.slc.cpg/sg66_24_cif.got.tgz:47306.got - 2010.04.10 21:57:39.
