data_PCOD8276344
_publ_section_title
;
Structure prediction by ZEFSAII (Michael W. Deem and Ramdas Pophale) SiO2 
 PCOD8276344
Probable space group: C C C M
;
_chemical_formula_sum "Si O2"
_cell_formula_units_Z 72
_cell_length_a 26.987086
_cell_length_b 5.208931
_cell_length_c 24.593357
_cell_angle_alpha 90.000000
_cell_angle_beta 90.000000
_cell_angle_gamma 90.000000
_cell_volume 3457.183342
_symmetry_space_group_name_H-M "C C C M"
_symmetry_group_IT_number 66
_symmetry_cell_setting 'orthorhombic'
loop_
_space_group_symop_operation_xyz
x,y,z
-x,-y,z
x,-y,1/2-z
-x,y,1/2-z
-x,-y,-z
x,y,-z
-x,y,1/2+z
x,-y,1/2+z
1/2+x,1/2+y,z
1/2-x,1/2-y,z
1/2+x,1/2-y,1/2-z
1/2-x,1/2+y,1/2-z
1/2-x,1/2-y,-z
1/2+x,1/2+y,-z
1/2-x,1/2+y,1/2+z
1/2+x,1/2-y,1/2+z
loop_
_atom_site_type_symbol
_atom_site_label
_atom_site_fract_x
_atom_site_fract_y
_atom_site_fract_z
Si Si1 0.864707 0.737381 0.563310
Si Si2 0.943746 0.249631 0.726295
Si Si3 0.195490 0.252865 0.937651
Si Si4 0.033337 0.745957 0.500000
Si Si5 0.056529 0.923759 0.608022
O O1 0.882273 0.707991 0.500000
O O2 0.839954 0.476813 0.587365
O O3 0.826161 0.970462 0.569332
O O4 0.911002 0.816776 0.602186
O O5 0.916503 0.500000 0.750000
O O6 0.936226 0.246338 0.661616
O O7 0.000000 0.249374 0.750000
O O8 0.916279 0.000000 0.750000
O O9 0.250000 0.250000 0.909886
O O10 0.201917 0.335918 0.000000
O O11 0.067922 0.746867 0.554238
O O12 0.000000 0.500000 0.500000
O O13 0.000000 0.000000 0.500000
O O14 0.000000 0.000000 0.608295
#
# Coordination Sequence:
#
# PCOD8276344 Si02
#       5
#    16  16  16   8  16
#     4  10  20  33  51  82 111 148 196 236 290 359
#     4  10  21  37  55  73  97 150 205 244 280 332
#     4   9  18  34  54  75 108 149 191 239 288 346
#     4  10  24  34  50  74 103 154 191 230 300 356
#     4  11  22  39  55  80 119 157 197 247 298 355
#
# _framework density 20.826201999999999
#
# number of rings (size 3 to 8) (size 9 to 14) (size 15 to 20)
#    0.000    2.000    3.333    0.667    3.111    8.000 
#    0.000    0.000    0.000    0.000    0.000    0.000 
#    0.000    5.333    0.000    0.444    0.000    0.222 
#
# Total GULP energy -446074.779372 kJ/mol
# GULP energy per Si atom -12390.966094 kJ/mol
# Density = 2.077880 g / cm^3
# Si number density = 20.826202 Si / 1000 Ang^3
#
#
#
# Elastic Constant Matrix: (Units=GPa)
#
#
# Indices 1 2 3 4 5 6 
#
# 1 80.5005 7.4456 11.5159 0.0000 0.0000 0.0000
# 2 7.4456 122.4539 44.2299 0.0000 0.0000 0.0000
# 3 11.5159 44.2299 147.6619 0.0000 0.0000 0.0000
# 4 0.0000 0.0000 0.0000 48.5968 0.0000 0.0000
# 5 0.0000 0.0000 0.0000 0.0000 -0.8143 0.0000
# 6 0.0000 0.0000 0.0000 0.0000 0.0000 24.2881
#
#
#
# Elastic Compliance Matrix: (Units=1/GPa)
#
#
# Indices 1 2 3 4 5 6 
#
# 1 0.012586 -0.000461 -0.000844 0.000000 0.000000 0.000000
# 2 -0.000461 0.009174 -0.002712 0.000000 0.000000 0.000000
# 3 -0.000844 -0.002712 0.007650 0.000000 0.000000 0.000000
# 4 0.000000 0.000000 0.000000 0.020577 0.000000 0.000000
# 5 0.000000 0.000000 0.000000 0.000000 -1.228047 0.000000
# 6 0.000000 0.000000 0.000000 0.000000 0.000000 0.041172
#
#
# Mechanical properties :
#
#
# Convention : Reuss Voigt Hill
#
# Bulk Modulus (GPa) = 46.77794 52.99989 49.88892
# Shear Modulus (GPa) = -4.45740 33.57577 14.55918
#
# Velocity S-wave (km/s) = -1.46456 4.01956 2.64688
# Velocity P-wave (km/s) = 4.43283 6.85904 5.77479
#
# Compressibility (1/GPa) = 0.02137760
#
# Stress axis : x y z
#
# Youngs Moduli (GPa) = 79.45613 109.00489 130.71299
#
# Poissons Ratio (x) = 0.05020 0.11027
# Poissons Ratio (y) = 0.03659 0.35449
# Poissons Ratio (z) = 0.06703 0.29562
#
# Static dielectric constant tensor:
#      x y z
#    x 3.636700 0.000000 0.000000 
#    y 0.000000 4.746900 0.000000 
#    z 0.000000 0.000000 -1.053260 
# 
# 
# High freq. dielectric constant tensor:
#      x y z
#    x 1.781000 0.000000 0.000000 
#    y 0.000000 1.842700 0.000000 
#    z 0.000000 0.000000 1.769150 
# 
# From -- ./inp_files/60037.got.cif
#   From: 2010.03.12/outbox.cif.g09.slc.cpg/sg66_31_cif.got.tgz:60037.got - 2010.04.10 21:57:39.
