data_PCOD8276444
_publ_section_title
;
Structure prediction by ZEFSAII (Michael W. Deem and Ramdas Pophale) SiO2 
 PCOD8276444
Probable space group: C C C M
;
_chemical_formula_sum "Si O2"
_cell_formula_units_Z 128
_cell_length_a 10.586100
_cell_length_b 26.403083
_cell_length_c 23.049296
_cell_angle_alpha 90.000000
_cell_angle_beta 90.000000
_cell_angle_gamma 90.000000
_cell_volume 6442.409082
_symmetry_space_group_name_H-M "C C C M"
_symmetry_group_IT_number 66
_symmetry_cell_setting 'orthorhombic'
loop_
_space_group_symop_operation_xyz
x,y,z
-x,-y,z
x,-y,1/2-z
-x,y,1/2-z
-x,-y,-z
x,y,-z
-x,y,1/2+z
x,-y,1/2+z
1/2+x,1/2+y,z
1/2-x,1/2-y,z
1/2+x,1/2-y,1/2-z
1/2-x,1/2+y,1/2-z
1/2-x,1/2-y,-z
1/2+x,1/2+y,-z
1/2-x,1/2+y,1/2+z
1/2+x,1/2-y,1/2+z
loop_
_atom_site_type_symbol
_atom_site_label
_atom_site_fract_x
_atom_site_fract_y
_atom_site_fract_z
Si Si1 0.899030 0.839563 0.565361
Si Si2 0.835707 0.118280 0.436509
Si Si3 0.469053 0.771919 0.065565
Si Si4 0.397552 0.956788 0.930701
Si Si5 0.693647 0.195611 0.638917
Si Si6 0.360081 0.495115 0.933220
Si Si7 0.140991 0.709424 0.234432
Si Si8 0.157827 0.354475 0.621432
O O1 0.843796 0.834165 0.500000
O O2 0.945269 0.784486 0.588447
O O3 0.805808 0.866054 0.611611
O O4 0.013977 0.878326 0.564542
O O5 0.784437 0.135743 0.500000
O O6 0.778636 0.152035 0.386687
O O7 0.801565 0.060497 0.425152
O O8 0.558279 0.803998 0.108715
O O9 0.348240 0.807875 0.073951
O O10 0.520821 0.770513 0.000000
O O11 0.426405 0.903808 0.896427
O O12 0.500000 0.000000 0.912948
O O13 0.255083 0.970618 0.909375
O O14 0.404064 0.947682 0.000000
O O15 0.750000 0.250000 0.624331
O O16 0.689020 0.183413 0.706797
O O17 0.500000 0.500000 0.902788
O O18 0.379282 0.509576 0.000000
O O19 0.250000 0.750000 0.215279
O O20 0.127839 0.665370 0.186306
O O21 0.000000 0.732803 0.250000
#
# Coordination Sequence:
#
# PCOD8276444 Si02
#       8
#    16  16  16  16  16  16  16  16
#     4  10  20  34  55  91 126 155 191 241 306 377
#     4  10  20  34  59  89 122 158 194 245 314 375
#     4  11  21  32  54  85 121 153 187 233 299 367
#     4  10  22  38  58  89 124 156 197 253 312 369
#     4  11  22  37  56  83 120 157 201 242 295 355
#     4   9  18  34  56  83 115 152 194 241 298 363
#     4  11  25  43  64  86 119 166 212 257 295 354
#     4  12  23  38  60  82 118 160 208 241 303 357
#
# _framework density 19.868345000000001
#
# number of rings (size 3 to 8) (size 9 to 14) (size 15 to 20)
#    0.000    1.500    2.500    3.375    1.750    3.500 
#    0.000    0.000    0.000    2.625    0.000    0.875 
#    0.000    0.000    0.000    0.000    0.000    0.000 
#
# Total GULP energy -792938.323199 kJ/mol
# GULP energy per Si atom -12389.661300 kJ/mol
# Density = 1.982312 g / cm^3
# Si number density = 19.868345 Si / 1000 Ang^3
#
#
#
# Elastic Constant Matrix: (Units=GPa)
#
#
# Indices 1 2 3 4 5 6 
#
# 1 73.5191 21.1585 22.8912 0.0000 0.0000 0.0000
# 2 21.1585 78.9606 35.4505 0.0000 0.0000 0.0000
# 3 22.8912 35.4505 84.6896 0.0000 0.0000 0.0000
# 4 0.0000 0.0000 0.0000 -18.8035 0.0000 0.0000
# 5 0.0000 0.0000 0.0000 0.0000 20.4818 0.0000
# 6 0.0000 0.0000 0.0000 0.0000 0.0000 24.7005
#
#
#
# Elastic Compliance Matrix: (Units=1/GPa)
#
#
# Indices 1 2 3 4 5 6 
#
# 1 0.015328 -0.002767 -0.002985 0.000000 0.000000 0.000000
# 2 -0.002767 0.016095 -0.005989 0.000000 0.000000 0.000000
# 3 -0.002985 -0.005989 0.015122 0.000000 0.000000 0.000000
# 4 0.000000 0.000000 0.000000 -0.053182 0.000000 0.000000
# 5 0.000000 0.000000 0.000000 0.000000 0.048824 0.000000
# 6 0.000000 0.000000 0.000000 0.000000 0.000000 0.040485
#
#
# Mechanical properties :
#
#
# Convention : Reuss Voigt Hill
#
# Bulk Modulus (GPa) = 43.36149 44.01887 43.69018
# Shear Modulus (GPa) = 43.92077 15.78702 29.85390
#
# Velocity S-wave (km/s) = 4.70679 2.82189 3.88053
# Velocity P-wave (km/s) = 7.17010 5.72894 6.48965
#
# Compressibility (1/GPa) = 0.02306194
#
# Stress axis : x y z
#
# Youngs Moduli (GPa) = 65.24176 62.13083 66.13031
#
# Poissons Ratio (x) = 0.17193 0.19737
# Poissons Ratio (y) = 0.18054 0.39608
# Poissons Ratio (z) = 0.19472 0.37212
#
# Static dielectric constant tensor:
#      x y z
#    x 3.986090 0.000000 0.000000 
#    y 0.000000 3.543960 0.000000 
#    z 0.000000 0.000000 3.314740 
# 
# 
# High freq. dielectric constant tensor:
#      x y z
#    x 1.792820 0.000000 0.000000 
#    y 0.000000 1.770650 0.000000 
#    z 0.000000 0.000000 1.732550 
# 
# From -- ./inp_files/57343.got.cif
#   From: 2010.03.12/outbox.cif.g09.slc.cpg/sg66_29_cif.got.tgz:57343.got - 2010.04.10 21:57:39.
