data_PCOD8276808
_publ_section_title
;
Structure prediction by ZEFSAII (Michael W. Deem and Ramdas Pophale) SiO2 
 PCOD8276808
Probable space group: C C C M
;
_chemical_formula_sum "Si O2"
_cell_formula_units_Z 112
_cell_length_a 22.175113
_cell_length_b 15.675002
_cell_length_c 14.756978
_cell_angle_alpha 90.000000
_cell_angle_beta 90.000000
_cell_angle_gamma 90.000000
_cell_volume 5129.450892
_symmetry_space_group_name_H-M "C C C M"
_symmetry_group_IT_number 66
_symmetry_cell_setting 'orthorhombic'
loop_
_space_group_symop_operation_xyz
x,y,z
-x,-y,z
x,-y,1/2-z
-x,y,1/2-z
-x,-y,-z
x,y,-z
-x,y,1/2+z
x,-y,1/2+z
1/2+x,1/2+y,z
1/2-x,1/2-y,z
1/2+x,1/2-y,1/2-z
1/2-x,1/2+y,1/2-z
1/2-x,1/2-y,-z
1/2+x,1/2+y,-z
1/2-x,1/2+y,1/2+z
1/2+x,1/2-y,1/2+z
loop_
_atom_site_type_symbol
_atom_site_label
_atom_site_fract_x
_atom_site_fract_y
_atom_site_fract_z
Si Si1 0.988244 0.365094 0.107072
Si Si2 0.337778 0.381733 0.104587
Si Si3 0.712941 0.061223 0.672180
Si Si4 0.434289 0.477821 0.607274
Si Si5 0.410419 0.286685 0.392318
Si Si6 0.680596 0.763849 0.245930
Si Si7 0.589479 0.018603 0.604534
O O1 0.969183 0.269381 0.138127
O O2 0.940012 0.433542 0.147402
O O3 0.054827 0.395202 0.141692
O O4 0.984755 0.363583 0.000000
O O5 0.268906 0.414983 0.108535
O O6 0.384044 0.454287 0.140292
O O7 0.344846 0.299177 0.167790
O O8 0.351554 0.356773 0.000000
O O9 0.675319 0.140465 0.710861
O O10 0.661016 0.012477 0.617511
O O11 0.739081 0.000000 0.750000
O O12 0.500000 0.500000 0.647706
O O13 0.436657 0.479316 0.500000
O O14 0.418345 0.383403 0.641346
O O15 0.398213 0.281607 0.500000
O O16 0.352997 0.248712 0.340687
O O17 0.750000 0.750000 0.267912
O O18 0.574201 0.017271 0.500000
#
# Coordination Sequence:
#
# PCOD8276808 Si02
#       7
#    16  16  16  16  16  16  16
#     4   8  16  32  55  85 119 155 199 252 305 374
#     4  10  23  43  65  87 120 165 210 258 315 377
#     4  11  23  37  58  86 122 158 203 260 310 364
#     4   9  20  39  64  93 120 156 206 257 311 371
#     4  10  20  38  63  89 123 161 200 255 322 377
#     4  10  24  40  59  88 122 159 201 259 306 371
#     4   9  17  33  57  82 114 160 206 248 307 371
#
# _framework density 21.834696000000001
#
# number of rings (size 3 to 8) (size 9 to 14) (size 15 to 20)
#    0.000    2.429    0.000    2.143    4.000    4.571 
#    0.000   11.429    0.000    0.000    0.000    0.000 
#    0.000    0.000    0.000    0.000    0.000    0.000 
#
# Total GULP energy -693923.532125 kJ/mol
# GULP energy per Si atom -12391.491645 kJ/mol
# Density = 2.178500 g / cm^3
# Si number density = 21.834696 Si / 1000 Ang^3
#
#
#
# Elastic Constant Matrix: (Units=GPa)
#
#
# Indices 1 2 3 4 5 6 
#
# 1 96.2884 25.3746 19.8885 0.0000 0.0000 0.0000
# 2 25.3746 118.9834 28.8176 0.0000 0.0000 0.0000
# 3 19.8885 28.8176 57.2085 0.0000 0.0000 0.0000
# 4 0.0000 0.0000 0.0000 19.8602 0.0000 0.0000
# 5 0.0000 0.0000 0.0000 0.0000 -0.8799 0.0000
# 6 0.0000 0.0000 0.0000 0.0000 0.0000 36.6474
#
#
#
# Elastic Compliance Matrix: (Units=1/GPa)
#
#
# Indices 1 2 3 4 5 6 
#
# 1 0.011479 -0.001687 -0.003141 0.000000 0.000000 0.000000
# 2 -0.001687 0.009820 -0.004360 0.000000 0.000000 0.000000
# 3 -0.003141 -0.004360 0.020768 0.000000 0.000000 0.000000
# 4 0.000000 0.000000 0.000000 0.050352 0.000000 0.000000
# 5 0.000000 0.000000 0.000000 0.000000 -1.136540 0.000000
# 6 0.000000 0.000000 0.000000 0.000000 0.000000 0.027287
#
#
# Mechanical properties :
#
#
# Convention : Reuss Voigt Hill
#
# Bulk Modulus (GPa) = 42.21017 46.73796 44.47407
# Shear Modulus (GPa) = -5.04765 24.35220 9.65227
#
# Velocity S-wave (km/s) = -1.52210 3.34323 2.10481
# Velocity P-wave (km/s) = 4.03542 6.02949 5.13027
#
# Compressibility (1/GPa) = 0.02369097
#
# Stress axis : x y z
#
# Youngs Moduli (GPa) = 87.11685 101.82871 48.15068
#
# Poissons Ratio (x) = 0.17182 0.15122
# Poissons Ratio (y) = 0.14700 0.20995
# Poissons Ratio (z) = 0.27360 0.44400
#
# Static dielectric constant tensor:
#      x y z
#    x 3.928690 0.000000 0.000000 
#    y 0.000000 4.340050 0.000000 
#    z 0.000000 0.000000 3.574330 
# 
# 
# High freq. dielectric constant tensor:
#      x y z
#    x 1.859380 0.000000 0.000000 
#    y 0.000000 1.864730 0.000000 
#    z 0.000000 0.000000 1.840620 
# 
# From -- ./inp_files/32507.got.cif
#   From: 2010.03.12/outbox.cif.g09.slc.cpg/sg66_17_cif.got.tgz:32507.got - 2010.04.10 21:57:39.
