data_PCOD8276464
_publ_section_title
;
Structure prediction by ZEFSAII (Michael W. Deem and Ramdas Pophale) SiO2 
 PCOD8276464
Probable space group: C C C M
;
_chemical_formula_sum "Si O2"
_cell_formula_units_Z 104
_cell_length_a 7.797513
_cell_length_b 22.228202
_cell_length_c 29.137630
_cell_angle_alpha 90.000000
_cell_angle_beta 90.000000
_cell_angle_gamma 90.000000
_cell_volume 5050.270805
_symmetry_space_group_name_H-M "C C C M"
_symmetry_group_IT_number 66
_symmetry_cell_setting 'orthorhombic'
loop_
_space_group_symop_operation_xyz
x,y,z
-x,-y,z
x,-y,1/2-z
-x,y,1/2-z
-x,-y,-z
x,y,-z
-x,y,1/2+z
x,-y,1/2+z
1/2+x,1/2+y,z
1/2-x,1/2-y,z
1/2+x,1/2-y,1/2-z
1/2-x,1/2+y,1/2-z
1/2-x,1/2-y,-z
1/2+x,1/2+y,-z
1/2-x,1/2+y,1/2+z
1/2+x,1/2-y,1/2+z
loop_
_atom_site_type_symbol
_atom_site_label
_atom_site_fract_x
_atom_site_fract_y
_atom_site_fract_z
Si Si1 0.950751 0.736674 0.947799
Si Si2 0.353212 0.544955 0.948702
Si Si3 0.500000 0.000000 0.080796
Si Si4 0.461271 0.182847 0.700275
Si Si5 0.560463 0.680003 0.701492
Si Si6 0.512823 0.645924 0.104324
Si Si7 0.101727 0.626811 0.610740
O O1 0.750000 0.750000 0.947660
O O2 0.036979 0.789062 0.917057
O O3 0.995833 0.672477 0.924243
O O4 0.022351 0.736760 0.000000
O O5 0.500000 0.500000 0.931734
O O6 0.366017 0.601450 0.914526
O O7 0.168417 0.512578 0.949437
O O8 0.393864 0.567610 0.000000
O O9 0.526976 0.940425 0.111149
O O10 0.500000 0.154153 0.750000
O O11 0.514654 0.252650 0.700152
O O12 0.261127 0.176169 0.691722
O O13 0.578402 0.150320 0.662501
O O14 0.500000 0.650776 0.750000
O O15 0.480301 0.644092 0.659375
O O16 0.704116 0.624806 0.091567
#
# Coordination Sequence:
#
# PCOD8276464 Si02
#       7
#    16  16   8  16  16  16  16
#     4   9  19  34  57  90 124 160 202 255 318 378
#     4  11  24  43  65  91 125 172 221 265 311 375
#     4  12  25  44  63  90 126 174 220 265 315 374
#     4  10  20  36  58  90 127 161 207 259 320 383
#     4  10  20  34  60  92 126 162 203 258 321 387
#     4  11  20  39  65  91 127 160 209 261 325 376
#     4  11  22  38  62  90 126 169 206 263 314 379
#
# _framework density 20.592955
#
# number of rings (size 3 to 8) (size 9 to 14) (size 15 to 20)
#    0.000    1.538    3.077    2.538    0.000    3.077 
#    0.000    0.385    0.000    3.231    0.000    0.000 
#    0.000    0.000    0.000    0.000    0.000    0.000 
#
# Total GULP energy -644668.128546 kJ/mol
# GULP energy per Si atom -12397.464011 kJ/mol
# Density = 2.054608 g / cm^3
# Si number density = 20.592955 Si / 1000 Ang^3
#
#
#
# Elastic Constant Matrix: (Units=GPa)
#
#
# Indices 1 2 3 4 5 6 
#
# 1 74.3392 32.2956 11.6064 0.0000 0.0000 0.0000
# 2 32.2956 122.0120 58.3976 0.0000 0.0000 0.0000
# 3 11.6064 58.3976 149.4430 0.0000 0.0000 0.0000
# 4 0.0000 0.0000 0.0000 20.5581 0.0000 0.0000
# 5 0.0000 0.0000 0.0000 0.0000 24.5845 0.0000
# 6 0.0000 0.0000 0.0000 0.0000 0.0000 27.6668
#
#
#
# Elastic Compliance Matrix: (Units=1/GPa)
#
#
# Indices 1 2 3 4 5 6 
#
# 1 0.015228 -0.004262 0.000483 0.000000 0.000000 0.000000
# 2 -0.004262 0.011274 -0.004075 0.000000 0.000000 0.000000
# 3 0.000483 -0.004075 0.008246 0.000000 0.000000 0.000000
# 4 0.000000 0.000000 0.000000 0.048643 0.000000 0.000000
# 5 0.000000 0.000000 0.000000 0.000000 0.040676 0.000000
# 6 0.000000 0.000000 0.000000 0.000000 0.000000 0.036144
#
#
# Mechanical properties :
#
#
# Convention : Reuss Voigt Hill
#
# Bulk Modulus (GPa) = 52.51812 61.15481 56.83646
# Shear Modulus (GPa) = 27.43247 30.79486 29.11367
#
# Velocity S-wave (km/s) = 3.65379 3.87124 3.76409
# Velocity P-wave (km/s) = 6.58472 7.05291 6.82283
#
# Compressibility (1/GPa) = 0.01904105
#
# Stress axis : x y z
#
# Youngs Moduli (GPa) = 65.66874 88.69855 121.26729
#
# Poissons Ratio (x) = 0.37801 -0.05853
# Poissons Ratio (y) = 0.27986 0.49411
# Poissons Ratio (z) = -0.03170 0.36141
#
# Static dielectric constant tensor:
#      x y z
#    x 3.651470 0.000000 0.000000 
#    y 0.000000 3.563050 0.000000 
#    z 0.000000 0.000000 3.737020 
# 
# 
# High freq. dielectric constant tensor:
#      x y z
#    x 1.807260 0.000000 0.000000 
#    y 0.000000 1.779480 0.000000 
#    z 0.000000 0.000000 1.807240 
# 
# From -- ./inp_files/68267.got.cif
#   From: 2010.03.12/outbox.cif.g09.slc.cpg/sg66_35_cif.got.tgz:68267.got - 2010.04.10 21:57:39.
