data_PCOD8276953
_publ_section_title
;
Structure prediction by ZEFSAII (Michael W. Deem and Ramdas Pophale) SiO2 
 PCOD8276953
Probable space group: C C C M
;
_chemical_formula_sum "Si O2"
_cell_formula_units_Z 120
_cell_length_a 22.644855
_cell_length_b 14.152046
_cell_length_c 19.994269
_cell_angle_alpha 90.000000
_cell_angle_beta 90.000000
_cell_angle_gamma 90.000000
_cell_volume 6407.583973
_symmetry_space_group_name_H-M "C C C M"
_symmetry_group_IT_number 66
_symmetry_cell_setting 'orthorhombic'
loop_
_space_group_symop_operation_xyz
x,y,z
-x,-y,z
x,-y,1/2-z
-x,y,1/2-z
-x,-y,-z
x,y,-z
-x,y,1/2+z
x,-y,1/2+z
1/2+x,1/2+y,z
1/2-x,1/2-y,z
1/2+x,1/2-y,1/2-z
1/2-x,1/2+y,1/2-z
1/2-x,1/2-y,-z
1/2+x,1/2+y,-z
1/2-x,1/2+y,1/2+z
1/2+x,1/2-y,1/2+z
loop_
_atom_site_type_symbol
_atom_site_label
_atom_site_fract_x
_atom_site_fract_y
_atom_site_fract_z
Si Si1 0.633079 0.150775 0.075605
Si Si2 0.617005 0.676204 0.193956
Si Si3 0.184558 0.790183 0.823098
Si Si4 0.694279 0.495731 0.676306
Si Si5 0.392420 0.183315 0.923680
Si Si6 0.500000 0.753749 0.750000
Si Si7 0.011592 0.394005 0.368216
Si Si8 0.793580 0.531805 0.076336
O O1 0.641671 0.236529 0.126207
O O2 0.568904 0.104488 0.084797
O O3 0.683286 0.073414 0.089924
O O4 0.638643 0.188538 0.000000
O O5 0.662468 0.722608 0.246974
O O6 0.634388 0.566867 0.181129
O O7 0.621442 0.728603 0.123504
O O8 0.551293 0.684450 0.223934
O O9 0.250000 0.750000 0.828792
O O10 0.179235 0.898656 0.847001
O O11 0.724396 0.500000 0.750000
O O12 0.738884 0.446442 0.624766
O O13 0.457054 0.141492 0.912146
O O14 0.345491 0.103259 0.905958
O O15 0.386899 0.217820 0.000000
O O16 0.523868 0.823114 0.692687
O O17 0.000000 0.500000 0.341322
O O18 0.772452 0.544191 0.000000
#
# Coordination Sequence:
#
# PCOD8276953 Si02
#       8
#    16  16  16  16  16   8  16  16
#     4  11  22  36  59  89 124 160 193 241 300 356
#     4  10  23  40  63  85 118 154 200 246 301 346
#     4  11  22  40  61  87 119 150 197 247 296 358
#     4  10  23  40  60  85 113 155 200 244 298 348
#     4  10  22  36  57  87 121 161 197 237 293 358
#     4  10  21  40  61  90 116 152 206 255 295 352
#     4  11  20  36  59  89 126 158 196 243 299 357
#     4  10  21  36  55  89 125 159 196 234 291 357
#
# _framework density 18.727806999999999
#
# number of rings (size 3 to 8) (size 9 to 14) (size 15 to 20)
#    0.000    1.600    4.000    0.600    3.733    1.867 
#    0.000    4.333    0.000    0.000    0.000    2.800 
#    0.000    0.000    0.000    0.000    0.000    0.000 
#
# Total GULP energy -744086.387529 kJ/mol
# GULP energy per Si atom -12401.439792 kJ/mol
# Density = 1.868518 g / cm^3
# Si number density = 18.727807 Si / 1000 Ang^3
#
#
#
# Elastic Constant Matrix: (Units=GPa)
#
#
# Indices 1 2 3 4 5 6 
#
# 1 91.4390 50.4330 47.9732 0.0000 0.0000 0.0000
# 2 50.4330 112.5062 51.4265 0.0000 0.0000 0.0000
# 3 47.9732 51.4265 102.6810 0.0000 0.0000 0.0000
# 4 0.0000 0.0000 0.0000 22.8333 0.0000 0.0000
# 5 0.0000 0.0000 0.0000 0.0000 27.0785 0.0000
# 6 0.0000 0.0000 0.0000 0.0000 0.0000 28.9085
#
#
#
# Elastic Compliance Matrix: (Units=1/GPa)
#
#
# Indices 1 2 3 4 5 6 
#
# 1 0.016397 -0.004991 -0.005161 0.000000 0.000000 0.000000
# 2 -0.004991 0.013047 -0.004202 0.000000 0.000000 0.000000
# 3 -0.005161 -0.004202 0.014255 0.000000 0.000000 0.000000
# 4 0.000000 0.000000 0.000000 0.043796 0.000000 0.000000
# 5 0.000000 0.000000 0.000000 0.000000 0.036930 0.000000
# 6 0.000000 0.000000 0.000000 0.000000 0.000000 0.034592
#
#
# Mechanical properties :
#
#
# Convention : Reuss Voigt Hill
#
# Bulk Modulus (GPa) = 66.71376 67.36575 67.03975
# Shear Modulus (GPa) = 25.94428 26.21697 26.08062
#
# Velocity S-wave (km/s) = 3.72605 3.74558 3.73582
# Velocity P-wave (km/s) = 7.36284 7.39965 7.38127
#
# Compressibility (1/GPa) = 0.01498941
#
# Stress axis : x y z
#
# Youngs Moduli (GPa) = 60.98770 76.64797 70.15167
#
# Poissons Ratio (x) = 0.38256 0.36205
# Poissons Ratio (y) = 0.30440 0.29480
# Poissons Ratio (z) = 0.31475 0.32210
#
# Static dielectric constant tensor:
#      x y z
#    x 3.384170 0.000000 0.000000 
#    y 0.000000 3.372510 0.000000 
#    z 0.000000 0.000000 3.485970 
# 
# 
# High freq. dielectric constant tensor:
#      x y z
#    x 1.725450 0.000000 0.000000 
#    y 0.000000 1.720090 0.000000 
#    z 0.000000 0.000000 1.734060 
# 
# From -- ./inp_files/51986.got.cif
#   From: 2010.03.12/outbox.cif.g09.slc.cpg/sg66_26_cif.got.tgz:51986.got - 2010.04.10 21:57:39.
