data_PCOD8276324
_publ_section_title
;
Structure prediction by ZEFSAII (Michael W. Deem and Ramdas Pophale) SiO2 
 PCOD8276324
Probable space group: C C C M
;
_chemical_formula_sum "Si O2"
_cell_formula_units_Z 68
_cell_length_a 29.442859
_cell_length_b 14.609794
_cell_length_c 9.045082
_cell_angle_alpha 90.000000
_cell_angle_beta 90.000000
_cell_angle_gamma 90.000000
_cell_volume 3890.779150
_symmetry_space_group_name_H-M "C C C M"
_symmetry_group_IT_number 66
_symmetry_cell_setting 'orthorhombic'
loop_
_space_group_symop_operation_xyz
x,y,z
-x,-y,z
x,-y,1/2-z
-x,y,1/2-z
-x,-y,-z
x,y,-z
-x,y,1/2+z
x,-y,1/2+z
1/2+x,1/2+y,z
1/2-x,1/2-y,z
1/2+x,1/2-y,1/2-z
1/2-x,1/2+y,1/2-z
1/2-x,1/2-y,-z
1/2+x,1/2+y,-z
1/2-x,1/2+y,1/2+z
1/2+x,1/2-y,1/2+z
loop_
_atom_site_type_symbol
_atom_site_label
_atom_site_fract_x
_atom_site_fract_y
_atom_site_fract_z
Si Si1 0.587131 0.414016 0.164809
Si Si2 0.000000 0.000000 0.250000
Si Si3 0.353811 0.714034 0.674341
Si Si4 0.731916 0.351435 0.834847
Si Si5 0.181470 0.411990 0.825810
O O1 0.610390 0.500000 0.250000
O O2 0.532622 0.432314 0.155182
O O3 0.598658 0.321102 0.255837
O O4 0.606895 0.405486 0.000000
O O5 0.353185 0.698939 0.500000
O O6 0.315506 0.649681 0.747572
O O7 0.346994 0.820856 0.713919
O O8 0.750000 0.250000 0.848830
O O9 0.767840 0.409071 0.740355
O O10 0.725905 0.393283 0.000000
O O11 0.157008 0.500000 0.750000
O O12 0.184651 0.426101 0.000000
#
# Coordination Sequence:
#
# PCOD8276324 Si02
#       5
#    16   4  16  16  16
#     4  10  20  34  54  77 104 132 162 200 248 307
#     4   8  22  36  58  80 108 132 162 200 258 312
#     4  10  20  33  50  74 103 133 171 215 257 303
#     4   9  17  30  47  66  92 127 168 212 255 297
#     4  10  20  33  49  70  99 137 177 218 258 299
#
# _framework density 17.477219000000002
#
# number of rings (size 3 to 8) (size 9 to 14) (size 15 to 20)
#    0.706    1.647    0.000    3.176    0.000    6.588 
#    0.000    4.706    0.000    0.000    0.000    0.824 
#    0.000    5.647    0.000    0.000    0.000    0.000 
#
# Total GULP energy -421293.261618 kJ/mol
# GULP energy per Si atom -12390.978283 kJ/mol
# Density = 1.743744 g / cm^3
# Si number density = 17.477219 Si / 1000 Ang^3
#
#
#
# Elastic Constant Matrix: (Units=GPa)
#
#
# Indices 1 2 3 4 5 6 
#
# 1 71.1811 43.7458 34.6804 0.0000 0.0000 0.0000
# 2 43.7458 107.4121 62.6827 0.0000 0.0000 0.0000
# 3 34.6804 62.6827 134.6330 0.0000 0.0000 0.0000
# 4 0.0000 0.0000 0.0000 29.5944 0.0000 0.0000
# 5 0.0000 0.0000 0.0000 0.0000 21.5535 0.0000
# 6 0.0000 0.0000 0.0000 0.0000 0.0000 26.3408
#
#
#
# Elastic Compliance Matrix: (Units=1/GPa)
#
#
# Indices 1 2 3 4 5 6 
#
# 1 0.019044 -0.006719 -0.001777 0.000000 0.000000 0.000000
# 2 -0.006719 0.015153 -0.005325 0.000000 0.000000 0.000000
# 3 -0.001777 -0.005325 0.010364 0.000000 0.000000 0.000000
# 4 0.000000 0.000000 0.000000 0.033790 0.000000 0.000000
# 5 0.000000 0.000000 0.000000 0.000000 0.046396 0.000000
# 6 0.000000 0.000000 0.000000 0.000000 0.000000 0.037964
#
#
# Mechanical properties :
#
#
# Convention : Reuss Voigt Hill
#
# Bulk Modulus (GPa) = 59.10011 66.16044 62.63028
# Shear Modulus (GPa) = 25.51105 26.97222 26.24163
#
# Velocity S-wave (km/s) = 3.82471 3.93272 3.87909
# Velocity P-wave (km/s) = 7.30709 7.65239 7.48173
#
# Compressibility (1/GPa) = 0.01692044
#
# Stress axis : x y z
#
# Youngs Moduli (GPa) = 52.51062 65.99136 96.48379
#
# Poissons Ratio (x) = 0.44338 0.17149
# Poissons Ratio (y) = 0.35280 0.51373
# Poissons Ratio (z) = 0.09333 0.35137
#
# Static dielectric constant tensor:
#      x y z
#    x 2.942020 0.000000 0.000000 
#    y 0.000000 3.258920 0.000000 
#    z 0.000000 0.000000 3.348410 
# 
# 
# High freq. dielectric constant tensor:
#      x y z
#    x 1.631610 0.000000 0.000000 
#    y 0.000000 1.667100 0.000000 
#    z 0.000000 0.000000 1.694730 
# 
# From -- ./inp_files/11337.got.cif
#   From: 2010.03.12/outbox.cif.g09.slc.cpg/sg66_6_cif.got.tgz:11337.got - 2010.04.10 21:57:39.
