data_PCOD8276415
_publ_section_title
;
Structure prediction by ZEFSAII (Michael W. Deem and Ramdas Pophale) SiO2 
 PCOD8276415
Probable space group: C C C M
;
_chemical_formula_sum "Si O2"
_cell_formula_units_Z 72
_cell_length_a 29.029696
_cell_length_b 14.585003
_cell_length_c 8.964704
_cell_angle_alpha 90.000000
_cell_angle_beta 90.000000
_cell_angle_gamma 90.000000
_cell_volume 3795.639566
_symmetry_space_group_name_H-M "C C C M"
_symmetry_group_IT_number 66
_symmetry_cell_setting 'orthorhombic'
loop_
_space_group_symop_operation_xyz
x,y,z
-x,-y,z
x,-y,1/2-z
-x,y,1/2-z
-x,-y,-z
x,y,-z
-x,y,1/2+z
x,-y,1/2+z
1/2+x,1/2+y,z
1/2-x,1/2-y,z
1/2+x,1/2-y,1/2-z
1/2-x,1/2+y,1/2-z
1/2-x,1/2-y,-z
1/2+x,1/2+y,-z
1/2-x,1/2+y,1/2+z
1/2+x,1/2-y,1/2+z
loop_
_atom_site_type_symbol
_atom_site_label
_atom_site_fract_x
_atom_site_fract_y
_atom_site_fract_z
Si Si1 0.273726 0.500000 0.750000
Si Si2 0.216845 0.331116 0.667231
Si Si3 0.362491 0.582773 0.338950
Si Si4 0.373255 0.787222 0.322435
Si Si5 0.048860 0.404038 0.679460
O O1 0.242216 0.428936 0.660334
O O2 0.307768 0.559751 0.644034
O O3 0.199732 0.307831 0.500000
O O4 0.250000 0.250000 0.725432
O O5 0.173556 0.339398 0.777976
O O6 0.387592 0.500000 0.250000
O O7 0.385850 0.585546 0.500000
O O8 0.369246 0.682159 0.265207
O O9 0.380637 0.796374 0.500000
O O10 0.415431 0.827387 0.229761
O O11 0.065460 0.500000 0.750000
O O12 0.045749 0.411045 0.500000
O O13 0.000000 0.376601 0.750000
#
# Coordination Sequence:
#
# PCOD8276415 Si02
#       5
#     8  16  16  16  16
#     4  10  20  34  54  76 108 154 202 246 290 332
#     4  11  22  37  55  78 114 158 203 246 291 342
#     4   9  19  35  56  79 110 152 195 238 285 339
#     4  11  23  38  58  87 118 153 197 242 292 349
#     4  11  23  43  68  92 119 150 186 234 290 350
#
# _framework density 18.969135999999999
#
# number of rings (size 3 to 8) (size 9 to 14) (size 15 to 20)
#    0.667    0.889    2.222    4.000    1.556    4.000 
#    0.000    0.000    0.000    0.667    0.000    4.667 
#    0.000    0.000    0.000    0.000    0.000    0.000 
#
# Total GULP energy -446141.618140 kJ/mol
# GULP energy per Si atom -12392.822726 kJ/mol
# Density = 1.892596 g / cm^3
# Si number density = 18.969136 Si / 1000 Ang^3
#
#
#
# Elastic Constant Matrix: (Units=GPa)
#
#
# Indices 1 2 3 4 5 6 
#
# 1 85.1572 65.6861 40.8353 0.0000 0.0000 0.0000
# 2 65.6861 140.6963 41.2538 0.0000 0.0000 0.0000
# 3 40.8353 41.2538 115.8842 0.0000 0.0000 0.0000
# 4 0.0000 0.0000 0.0000 28.6196 0.0000 0.0000
# 5 0.0000 0.0000 0.0000 0.0000 27.4069 0.0000
# 6 0.0000 0.0000 0.0000 0.0000 0.0000 30.8674
#
#
#
# Elastic Compliance Matrix: (Units=1/GPa)
#
#
# Indices 1 2 3 4 5 6 
#
# 1 0.019998 -0.008117 -0.004157 0.000000 0.000000 0.000000
# 2 -0.008117 0.011231 -0.001138 0.000000 0.000000 0.000000
# 3 -0.004157 -0.001138 0.010499 0.000000 0.000000 0.000000
# 4 0.000000 0.000000 0.000000 0.034941 0.000000 0.000000
# 5 0.000000 0.000000 0.000000 0.000000 0.036487 0.000000
# 6 0.000000 0.000000 0.000000 0.000000 0.000000 0.032397
#
#
# Mechanical properties :
#
#
# Convention : Reuss Voigt Hill
#
# Bulk Modulus (GPa) = 67.09838 70.80978 68.95408
# Shear Modulus (GPa) = 28.19370 30.30962 29.25166
#
# Velocity S-wave (km/s) = 3.85943 4.00163 3.93117
# Velocity P-wave (km/s) = 7.43703 7.66556 7.55216
#
# Compressibility (1/GPa) = 0.01490349
#
# Stress axis : x y z
#
# Youngs Moduli (GPa) = 50.00566 89.04103 95.24539
#
# Poissons Ratio (x) = 0.72277 0.39595
# Poissons Ratio (y) = 0.40591 0.10836
# Poissons Ratio (z) = 0.20788 0.10130
#
# Static dielectric constant tensor:
#      x y z
#    x 3.193860 0.000000 0.000000 
#    y 0.000000 3.566380 0.000000 
#    z 0.000000 0.000000 3.389410 
# 
# 
# High freq. dielectric constant tensor:
#      x y z
#    x 1.705190 0.000000 0.000000 
#    y 0.000000 1.747240 0.000000 
#    z 0.000000 0.000000 1.740520 
# 
# From -- ./inp_files/11298.got.cif
#   From: 2010.03.12/outbox.cif.g09.slc.cpg/sg66_6_cif.got.tgz:11298.got - 2010.04.10 21:57:39.
