data_PCOD8277342
_publ_section_title
;
Structure prediction by ZEFSAII (Michael W. Deem and Ramdas Pophale) SiO2 
 PCOD8277342
Probable space group: C C C M
;
_chemical_formula_sum "Si O2"
_cell_formula_units_Z 64
_cell_length_a 7.143998
_cell_length_b 17.215726
_cell_length_c 25.263071
_cell_angle_alpha 90.000000
_cell_angle_beta 90.000000
_cell_angle_gamma 90.000000
_cell_volume 3107.082672
_symmetry_space_group_name_H-M "C C C M"
_symmetry_group_IT_number 66
_symmetry_cell_setting 'orthorhombic'
loop_
_space_group_symop_operation_xyz
x,y,z
-x,-y,z
x,-y,1/2-z
-x,y,1/2-z
-x,-y,-z
x,y,-z
-x,y,1/2+z
x,-y,1/2+z
1/2+x,1/2+y,z
1/2-x,1/2-y,z
1/2+x,1/2-y,1/2-z
1/2-x,1/2+y,1/2-z
1/2-x,1/2-y,-z
1/2+x,1/2+y,-z
1/2-x,1/2+y,1/2+z
1/2+x,1/2-y,1/2+z
loop_
_atom_site_type_symbol
_atom_site_label
_atom_site_fract_x
_atom_site_fract_y
_atom_site_fract_z
Si Si1 0.962320 0.760246 0.689451
Si Si2 0.636239 0.932196 0.560114
Si Si3 0.998600 0.085323 0.867664
Si Si4 0.160520 0.674306 0.403190
O O1 0.750000 0.750000 0.672963
O O2 0.998283 0.851087 0.678489
O O3 0.000000 0.739410 0.750000
O O4 0.091669 0.702516 0.655227
O O5 0.695004 0.951086 0.500000
O O6 0.821239 0.915634 0.593488
O O7 0.514495 0.853320 0.562315
O O8 0.500000 0.000000 0.583264
O O9 0.187535 0.104145 0.900833
O O10 0.000000 0.000000 0.841152
O O11 0.250000 0.750000 0.431617
#
# Coordination Sequence:
#
# PCOD8277342 Si02
#       4
#    16  16  16  16
#     4  11  22  41  65  91 125 164 205 254 318 376
#     4  11  23  40  64  93 127 169 211 258 318 372
#     4  11  22  39  64  90 129 163 208 261 306 368
#     4  10  22  40  62  92 126 162 206 261 309 368
#
# _framework density 20.598101
#
# number of rings (size 3 to 8) (size 9 to 14) (size 15 to 20)
#    0.000    1.250    5.000    2.250    0.000    2.500 
#    0.000    8.750    0.000    0.750    0.000    0.000 
#    0.000    0.000    0.000    0.000    0.000    0.000 
#
# Total GULP energy -396559.043985 kJ/mol
# GULP energy per Si atom -12392.470125 kJ/mol
# Density = 2.055122 g / cm^3
# Si number density = 20.598101 Si / 1000 Ang^3
#
#
#
# Elastic Constant Matrix: (Units=GPa)
#
#
# Indices 1 2 3 4 5 6 
#
# 1 132.8047 37.7810 23.9117 0.0000 0.0000 0.0000
# 2 37.7810 101.7454 9.3580 0.0000 0.0000 0.0000
# 3 23.9117 9.3580 55.2523 0.0000 0.0000 0.0000
# 4 0.0000 0.0000 0.0000 12.5728 0.0000 0.0000
# 5 0.0000 0.0000 0.0000 0.0000 15.6222 0.0000
# 6 0.0000 0.0000 0.0000 0.0000 0.0000 42.9706
#
#
#
# Elastic Compliance Matrix: (Units=1/GPa)
#
#
# Indices 1 2 3 4 5 6 
#
# 1 0.009001 -0.003031 -0.003382 0.000000 0.000000 0.000000
# 2 -0.003031 0.011005 -0.000552 0.000000 0.000000 0.000000
# 3 -0.003382 -0.000552 0.019656 0.000000 0.000000 0.000000
# 4 0.000000 0.000000 0.000000 0.079537 0.000000 0.000000
# 5 0.000000 0.000000 0.000000 0.000000 0.064011 0.000000
# 6 0.000000 0.000000 0.000000 0.000000 0.000000 0.023272
#
#
# Mechanical properties :
#
#
# Convention : Reuss Voigt Hill
#
# Bulk Modulus (GPa) = 38.86333 47.98932 43.42632
# Shear Modulus (GPa) = 21.83503 28.81657 25.32580
#
# Velocity S-wave (km/s) = 3.25937 3.74437 3.51026
# Velocity P-wave (km/s) = 5.75092 6.48400 6.12843
#
# Compressibility (1/GPa) = 0.02573120
#
# Stress axis : x y z
#
# Youngs Moduli (GPa) = 111.09662 90.86904 50.87521
#
# Poissons Ratio (x) = 0.27545 0.17206
# Poissons Ratio (y) = 0.33677 0.02808
# Poissons Ratio (z) = 0.37574 0.05016
#
# Static dielectric constant tensor:
#      x y z
#    x 4.133520 0.000000 0.000000 
#    y 0.000000 4.140440 0.000000 
#    z 0.000000 0.000000 3.196870 
# 
# 
# High freq. dielectric constant tensor:
#      x y z
#    x 1.836780 0.000000 0.000000 
#    y 0.000000 1.814780 0.000000 
#    z 0.000000 0.000000 1.764800 
# 
# From -- ./inp_files/54972.got.cif
#   From: 2010.03.12/outbox.cif.g09.slc.cpg/sg66_28_cif.got.tgz:54972.got - 2010.04.10 21:57:39.
