data_PCOD8277354
_publ_section_title
;
Structure prediction by ZEFSAII (Michael W. Deem and Ramdas Pophale) SiO2 
 PCOD8277354
Probable space group: C C C M
;
_chemical_formula_sum "Si O2"
_cell_formula_units_Z 72
_cell_length_a 10.039768
_cell_length_b 14.850057
_cell_length_c 24.822589
_cell_angle_alpha 90.000000
_cell_angle_beta 90.000000
_cell_angle_gamma 90.000000
_cell_volume 3700.827771
_symmetry_space_group_name_H-M "C C C M"
_symmetry_group_IT_number 66
_symmetry_cell_setting 'orthorhombic'
loop_
_space_group_symop_operation_xyz
x,y,z
-x,-y,z
x,-y,1/2-z
-x,y,1/2-z
-x,-y,-z
x,y,-z
-x,y,1/2+z
x,-y,1/2+z
1/2+x,1/2+y,z
1/2-x,1/2-y,z
1/2+x,1/2-y,1/2-z
1/2-x,1/2+y,1/2-z
1/2-x,1/2-y,-z
1/2+x,1/2+y,-z
1/2-x,1/2+y,1/2+z
1/2+x,1/2-y,1/2+z
loop_
_atom_site_type_symbol
_atom_site_label
_atom_site_fract_x
_atom_site_fract_y
_atom_site_fract_z
Si Si1 0.750000 0.250000 0.914837
Si Si2 0.389596 0.898760 0.852762
Si Si3 0.250000 0.250000 0.186622
Si Si4 0.324155 0.911305 0.386613
Si Si5 0.500000 0.812578 0.250000
Si Si6 0.807228 0.058710 0.500000
Si Si7 0.403019 0.641798 0.000000
O O1 0.707286 0.175662 0.873452
O O2 0.632071 0.295285 0.949298
O O3 0.518899 0.892394 0.891105
O O4 0.430454 0.880281 0.791549
O O5 0.310371 0.992801 0.856526
O O6 0.244686 0.161802 0.148814
O O7 0.385330 0.249342 0.222518
O O8 0.270464 0.911168 0.447083
O O9 0.944374 0.113493 0.500000
O O10 0.817947 0.950376 0.500000
#
# Coordination Sequence:
#
# PCOD8277354 Si02
#       7
#     8  16   8  16   8   8   8
#     4  11  21  42  61  94 121 168 209 247 316 380
#     4  10  22  40  66  91 122 164 206 267 303 377
#     4  10  23  41  63  98 123 165 211 266 316 374
#     4  10  23  40  64  92 125 162 212 250 309 371
#     4  10  22  43  66  91 124 162 216 265 322 359
#     4  11  22  42  58  94 131 171 196 257 314 380
#     4  10  24  36  62  88 131 167 200 253 317 375
#
# _framework density 19.455106000000001
#
# number of rings (size 3 to 8) (size 9 to 14) (size 15 to 20)
#    0.000    1.778    2.222    0.667    6.222   11.111 
#    0.000    0.000    0.000    8.000    0.000    0.000 
#    0.000    0.000    0.000    0.000    0.000    0.000 
#
# Total GULP energy -446242.064229 kJ/mol
# GULP energy per Si atom -12395.612895 kJ/mol
# Density = 1.941083 g / cm^3
# Si number density = 19.455106 Si / 1000 Ang^3
#
#
#
# Elastic Constant Matrix: (Units=GPa)
#
#
# Indices 1 2 3 4 5 6 
#
# 1 70.6770 52.3698 60.2732 0.0000 0.0000 0.0000
# 2 52.3698 140.1722 66.7870 0.0000 0.0000 0.0000
# 3 60.2732 66.7870 155.7275 0.0000 0.0000 0.0000
# 4 0.0000 0.0000 0.0000 19.2137 0.0000 0.0000
# 5 0.0000 0.0000 0.0000 0.0000 24.7492 0.0000
# 6 0.0000 0.0000 0.0000 0.0000 0.0000 35.3250
#
#
#
# Elastic Compliance Matrix: (Units=1/GPa)
#
#
# Indices 1 2 3 4 5 6 
#
# 1 0.024365 -0.005794 -0.006946 0.000000 0.000000 0.000000
# 2 -0.005794 0.010344 -0.002194 0.000000 0.000000 0.000000
# 3 -0.006946 -0.002194 0.010051 0.000000 0.000000 0.000000
# 4 0.000000 0.000000 0.000000 0.052046 0.000000 0.000000
# 5 0.000000 0.000000 0.000000 0.000000 0.040405 0.000000
# 6 0.000000 0.000000 0.000000 0.000000 0.000000 0.028309
#
#
# Mechanical properties :
#
#
# Convention : Reuss Voigt Hill
#
# Bulk Modulus (GPa) = 67.14391 80.60408 73.87400
# Shear Modulus (GPa) = 24.95629 28.33401 26.64515
#
# Velocity S-wave (km/s) = 3.58545 3.82039 3.70479
# Velocity P-wave (km/s) = 7.19220 7.80905 7.50697
#
# Compressibility (1/GPa) = 0.01489338
#
# Stress axis : x y z
#
# Youngs Moduli (GPa) = 41.04241 96.67492 99.49698
#
# Poissons Ratio (x) = 0.56011 0.69106
# Poissons Ratio (y) = 0.23779 0.21828
# Poissons Ratio (z) = 0.28506 0.21208
#
# Static dielectric constant tensor:
#      x y z
#    x 3.480440 0.000000 0.000000 
#    y 0.000000 3.632440 0.000000 
#    z 0.000000 0.000000 3.977980 
# 
# 
# High freq. dielectric constant tensor:
#      x y z
#    x 1.749160 0.000000 0.000000 
#    y 0.000000 1.771150 0.000000 
#    z 0.000000 0.000000 1.766180 
# 
# From -- ./inp_files/62274.got.cif
#   From: 2010.03.12/outbox.cif.g09.slc.cpg/sg66_32_cif.got.tgz:62274.got - 2010.04.10 21:57:39.
