data_PCOD8277229
_publ_section_title
;
Structure prediction by ZEFSAII (Michael W. Deem and Ramdas Pophale) SiO2 
 PCOD8277229
Probable space group: C C C M
;
_chemical_formula_sum "Si O2"
_cell_formula_units_Z 116
_cell_length_a 9.381166
_cell_length_b 25.580818
_cell_length_c 23.333241
_cell_angle_alpha 90.000000
_cell_angle_beta 90.000000
_cell_angle_gamma 90.000000
_cell_volume 5599.462177
_symmetry_space_group_name_H-M "C C C M"
_symmetry_group_IT_number 66
_symmetry_cell_setting 'orthorhombic'
loop_
_space_group_symop_operation_xyz
x,y,z
-x,-y,z
x,-y,1/2-z
-x,y,1/2-z
-x,-y,-z
x,y,-z
-x,y,1/2+z
x,-y,1/2+z
1/2+x,1/2+y,z
1/2-x,1/2-y,z
1/2+x,1/2-y,1/2-z
1/2-x,1/2+y,1/2-z
1/2-x,1/2-y,-z
1/2+x,1/2+y,-z
1/2-x,1/2+y,1/2+z
1/2+x,1/2-y,1/2+z
loop_
_atom_site_type_symbol
_atom_site_label
_atom_site_fract_x
_atom_site_fract_y
_atom_site_fract_z
Si Si1 0.437991 0.129268 0.692601
Si Si2 0.871149 0.714117 0.935718
Si Si3 0.538573 0.352862 0.315105
Si Si4 0.500000 0.500000 0.250000
Si Si5 0.669731 0.997264 0.067721
Si Si6 0.304738 0.887290 0.382653
Si Si7 0.829495 0.067789 0.158868
Si Si8 0.085028 0.258637 0.655666
O O1 0.500000 0.105191 0.750000
O O2 0.536042 0.108403 0.641523
O O3 0.283211 0.105777 0.687668
O O4 0.432590 0.192468 0.698451
O O5 0.750000 0.750000 0.906635
O O6 0.812510 0.655049 0.933385
O O7 0.020011 0.722889 0.904360
O O8 0.898781 0.731829 0.000000
O O9 0.500000 0.370129 0.250000
O O10 0.702408 0.365559 0.331466
O O11 0.452701 0.390813 0.359286
O O12 0.497737 0.292118 0.321186
O O13 0.392643 0.530125 0.207662
O O14 0.735872 0.942373 0.089089
O O15 0.500000 0.000000 0.080395
O O16 0.760992 0.039645 0.103517
O O17 0.698639 0.005568 0.000000
O O18 0.250000 0.250000 0.644710
#
# Coordination Sequence:
#
# PCOD8277229 Si02
#       8
#    16  16  16   4  16  16  16  16
#     4  11  24  40  65 101 135 171 225 275 331 414
#     4  10  21  41  67  95 124 163 220 278 331 394
#     4  12  24  43  66  95 139 178 215 270 341 408
#     4  12  28  44  72  96 144 176 222 290 336 402
#     4  11  25  47  71  98 133 176 230 290 343 400
#     4  11  23  43  67  97 129 174 223 277 338 404
#     4  12  25  45  66 101 129 178 225 272 340 400
#     4  11  23  41  63  95 138 174 218 268 334 415
#
# _framework density 20.716276000000001
#
# number of rings (size 3 to 8) (size 9 to 14) (size 15 to 20)
#    0.000    0.828    4.828    2.483    1.931    0.276 
#    0.000    4.483    0.000    0.000    0.000    0.000 
#    0.000    0.000    0.000    0.000    0.000    0.000 
#
# Total GULP energy -718785.651429 kJ/mol
# GULP energy per Si atom -12392.856059 kJ/mol
# Density = 2.066912 g / cm^3
# Si number density = 20.716276 Si / 1000 Ang^3
#
#
#
# Elastic Constant Matrix: (Units=GPa)
#
#
# Indices 1 2 3 4 5 6 
#
# 1 88.9779 19.0144 31.1592 0.0000 0.0000 0.0000
# 2 19.0144 114.7497 36.1756 0.0000 0.0000 0.0000
# 3 31.1592 36.1756 94.5271 0.0000 0.0000 0.0000
# 4 0.0000 0.0000 0.0000 16.7335 0.0000 0.0000
# 5 0.0000 0.0000 0.0000 0.0000 19.6809 0.0000
# 6 0.0000 0.0000 0.0000 0.0000 0.0000 37.1827
#
#
#
# Elastic Compliance Matrix: (Units=1/GPa)
#
#
# Indices 1 2 3 4 5 6 
#
# 1 0.012786 -0.000898 -0.003871 0.000000 0.000000 0.000000
# 2 -0.000898 0.009973 -0.003521 0.000000 0.000000 0.000000
# 3 -0.003871 -0.003521 0.013202 0.000000 0.000000 0.000000
# 4 0.000000 0.000000 0.000000 0.059760 0.000000 0.000000
# 5 0.000000 0.000000 0.000000 0.000000 0.050811 0.000000
# 6 0.000000 0.000000 0.000000 0.000000 0.000000 0.026894
#
#
# Mechanical properties :
#
#
# Convention : Reuss Voigt Hill
#
# Bulk Modulus (GPa) = 51.59436 52.32812 51.96124
# Shear Modulus (GPa) = 25.44945 28.84646 27.14796
#
# Velocity S-wave (km/s) = 3.50877 3.73561 3.62396
# Velocity P-wave (km/s) = 6.43230 6.62726 6.53051
#
# Compressibility (1/GPa) = 0.01938196
#
# Stress axis : x y z
#
# Youngs Moduli (GPa) = 78.20863 100.26660 75.74410
#
# Poissons Ratio (x) = 0.09008 0.29320
# Poissons Ratio (y) = 0.07026 0.26667
# Poissons Ratio (z) = 0.30274 0.35301
#
# Static dielectric constant tensor:
#      x y z
#    x 3.947380 0.000000 0.000000 
#    y 0.000000 3.999650 0.000000 
#    z 0.000000 0.000000 3.486340 
# 
# 
# High freq. dielectric constant tensor:
#      x y z
#    x 1.820900 0.000000 0.000000 
#    y 0.000000 1.827770 0.000000 
#    z 0.000000 0.000000 1.793040 
# 
# From -- ./inp_files/55913.got.cif
#   From: 2010.03.12/outbox.cif.g09.slc.cpg/sg66_28_cif.got.tgz:55913.got - 2010.04.10 21:57:39.
