data_PCOD8277547
_publ_section_title
;
Structure prediction by ZEFSAII (Michael W. Deem and Ramdas Pophale) SiO2 
 PCOD8277547
Probable space group: C C C M
;
_chemical_formula_sum "Si O2"
_cell_formula_units_Z 88
_cell_length_a 25.140742
_cell_length_b 5.073699
_cell_length_c 31.697219
_cell_angle_alpha 90.000000
_cell_angle_beta 90.000000
_cell_angle_gamma 90.000000
_cell_volume 4043.188139
_symmetry_space_group_name_H-M "C C C M"
_symmetry_group_IT_number 66
_symmetry_cell_setting 'orthorhombic'
loop_
_space_group_symop_operation_xyz
x,y,z
-x,-y,z
x,-y,1/2-z
-x,y,1/2-z
-x,-y,-z
x,y,-z
-x,y,1/2+z
x,-y,1/2+z
1/2+x,1/2+y,z
1/2-x,1/2-y,z
1/2+x,1/2-y,1/2-z
1/2-x,1/2+y,1/2-z
1/2-x,1/2-y,-z
1/2+x,1/2+y,-z
1/2-x,1/2+y,1/2+z
1/2+x,1/2-y,1/2+z
loop_
_atom_site_type_symbol
_atom_site_label
_atom_site_fract_x
_atom_site_fract_y
_atom_site_fract_z
Si Si1 0.845432 0.490645 0.340304
Si Si2 0.000000 0.500000 0.906339
Si Si3 0.388521 0.914185 0.430420
Si Si4 0.173249 0.085943 0.453786
Si Si5 0.750000 0.750000 0.384604
Si Si6 0.000000 0.000000 0.651407
Si Si7 0.108101 0.004716 0.200465
O O1 0.882040 0.438993 0.380425
O O2 0.785461 0.560371 0.355231
O O3 0.869312 0.725724 0.313343
O O4 0.848021 0.225769 0.312337
O O5 0.048922 0.448251 0.938217
O O6 0.986935 0.249361 0.877417
O O7 0.372284 0.627466 0.446465
O O8 0.353596 0.128201 0.454653
O O9 0.200180 0.044206 0.500000
O O10 0.215559 0.061825 0.415710
O O11 0.949000 0.065954 0.680089
O O12 0.100093 0.000000 0.250000
#
# Coordination Sequence:
#
# PCOD8277547 Si02
#       7
#    16   8  16  16   8   8  16
#     4  11  23  43  64  96 129 175 225 265 328 385
#     4  12  22  38  68  98 130 174 226 258 310 398
#     4  11  22  41  65  95 133 173 213 265 319 400
#     4  11  24  43  67  99 130 163 213 279 340 381
#     4  10  25  44  74  94 126 172 226 282 318 396
#     4  12  21  40  66 100 133 170 222 268 321 388
#     4  12  24  41  65 100 139 170 211 277 329 382
#
# _framework density 21.765004000000001
#
# number of rings (size 3 to 8) (size 9 to 14) (size 15 to 20)
#    0.000    0.727    3.636    4.909    0.000    6.545 
#    0.000   11.818    0.000    0.000    0.000    0.000 
#    0.000    0.000    0.000    0.000    0.000    0.000 
#
# Total GULP energy -545723.851977 kJ/mol
# GULP energy per Si atom -12402.814818 kJ/mol
# Density = 2.171547 g / cm^3
# Si number density = 21.765004 Si / 1000 Ang^3
#
#
#
# Elastic Constant Matrix: (Units=GPa)
#
#
# Indices 1 2 3 4 5 6 
#
# 1 111.7932 5.7798 25.6865 0.0000 0.0000 0.0000
# 2 5.7798 106.6897 27.0593 0.0000 0.0000 0.0000
# 3 25.6865 27.0593 84.7171 0.0000 0.0000 0.0000
# 4 0.0000 0.0000 0.0000 19.9874 0.0000 0.0000
# 5 0.0000 0.0000 0.0000 0.0000 -40.5046 0.0000
# 6 0.0000 0.0000 0.0000 0.0000 0.0000 300.2938
#
#
#
# Elastic Compliance Matrix: (Units=1/GPa)
#
#
# Indices 1 2 3 4 5 6 
#
# 1 0.009620 0.000238 -0.002993 0.000000 0.000000 0.000000
# 2 0.000238 0.010205 -0.003332 0.000000 0.000000 0.000000
# 3 -0.002993 -0.003332 0.013776 0.000000 0.000000 0.000000
# 4 0.000000 0.000000 0.000000 0.050031 0.000000 0.000000
# 5 0.000000 0.000000 0.000000 0.000000 -0.024689 0.000000
# 6 0.000000 0.000000 0.000000 0.000000 0.000000 0.003330
#
#
# Mechanical properties :
#
#
# Convention : Reuss Voigt Hill
#
# Bulk Modulus (GPa) = 46.66859 46.69458 46.68158
# Shear Modulus (GPa) = 61.28176 72.26694 66.77435
#
# Velocity S-wave (km/s) = 5.31199 5.76848 5.54493
# Velocity P-wave (km/s) = 7.68840 8.11589 7.90504
#
# Compressibility (1/GPa) = 0.02142769
#
# Stress axis : x y z
#
# Youngs Moduli (GPa) = 103.94502 97.99023 72.59185
#
# Poissons Ratio (x) = -0.02331 0.21726
# Poissons Ratio (y) = -0.02473 0.24186
# Poissons Ratio (z) = 0.31110 0.32648
#
# Static dielectric constant tensor:
#      x y z
#    x 4.036510 0.000000 0.000000 
#    y 0.000000 5.782210 0.000000 
#    z 0.000000 0.000000 3.947150 
# 
# 
# High freq. dielectric constant tensor:
#      x y z
#    x 1.856000 0.000000 0.000000 
#    y 0.000000 1.869660 0.000000 
#    z 0.000000 0.000000 1.846720 
# 
# From -- ./inp_files/70405.got.cif
#   From: 2010.03.12/outbox.cif.g09.slc.cpg/sg66_36_cif.got.tgz:70405.got - 2010.04.10 21:57:39.
