data_PCOD8277373
_publ_section_title
;
Structure prediction by ZEFSAII (Michael W. Deem and Ramdas Pophale) SiO2 
 PCOD8277373
Probable space group: C C C M
;
_chemical_formula_sum "Si O2"
_cell_formula_units_Z 68
_cell_length_a 16.290158
_cell_length_b 20.917702
_cell_length_c 9.396535
_cell_angle_alpha 90.000000
_cell_angle_beta 90.000000
_cell_angle_gamma 90.000000
_cell_volume 3201.894395
_symmetry_space_group_name_H-M "C C C M"
_symmetry_group_IT_number 66
_symmetry_cell_setting 'orthorhombic'
loop_
_space_group_symop_operation_xyz
x,y,z
-x,-y,z
x,-y,1/2-z
-x,y,1/2-z
-x,-y,-z
x,y,-z
-x,y,1/2+z
x,-y,1/2+z
1/2+x,1/2+y,z
1/2-x,1/2-y,z
1/2+x,1/2-y,1/2-z
1/2-x,1/2+y,1/2-z
1/2-x,1/2-y,-z
1/2+x,1/2+y,-z
1/2-x,1/2+y,1/2+z
1/2+x,1/2-y,1/2+z
loop_
_atom_site_type_symbol
_atom_site_label
_atom_site_fract_x
_atom_site_fract_y
_atom_site_fract_z
Si Si1 0.160576 0.220440 0.832288
Si Si2 0.314915 0.055940 0.343072
Si Si3 0.500000 0.500000 0.250000
Si Si4 0.363793 0.404396 0.343844
Si Si5 0.077780 0.327957 0.668417
O O1 0.250000 0.250000 0.798929
O O2 0.144898 0.148064 0.780359
O O3 0.094951 0.260484 0.742918
O O4 0.141613 0.223196 0.000000
O O5 0.347736 0.041887 0.500000
O O6 0.216993 0.052251 0.333223
O O7 0.345890 0.125785 0.296598
O O8 0.354511 0.000000 0.250000
O O9 0.441701 0.451930 0.337825
O O10 0.366534 0.370791 0.500000
O O11 0.062297 0.319051 0.500000
O O12 0.000000 0.358070 0.750000
#
# Coordination Sequence:
#
# PCOD8277373 Si02
#       5
#    16  16   4  16  16
#     4  11  24  42  68  99 130 173 225 278 336 399
#     4  10  22  41  66  93 125 172 218 266 330 399
#     4  12  26  44  68 102 140 180 230 282 342 412
#     4  11  24  43  66  95 133 177 223 273 333 401
#     4  11  24  43  66  95 131 171 220 276 337 399
#
# _framework density 21.237428000000001
#
# number of rings (size 3 to 8) (size 9 to 14) (size 15 to 20)
#    0.000    1.176    3.529    1.765    1.647    6.118 
#    0.000    2.353    0.000    0.000    0.000    0.000 
#    0.000    0.000    0.000    0.000    0.000    0.000 
#
# Total GULP energy -421430.384682 kJ/mol
# GULP energy per Si atom -12395.011314 kJ/mol
# Density = 2.118909 g / cm^3
# Si number density = 21.237428 Si / 1000 Ang^3
#
#
#
# Elastic Constant Matrix: (Units=GPa)
#
#
# Indices 1 2 3 4 5 6 
#
# 1 98.5128 25.3334 44.7618 0.0000 0.0000 0.0000
# 2 25.3334 109.7617 66.7289 0.0000 0.0000 0.0000
# 3 44.7618 66.7289 140.8737 0.0000 0.0000 0.0000
# 4 0.0000 0.0000 0.0000 40.7550 0.0000 0.0000
# 5 0.0000 0.0000 0.0000 0.0000 30.1143 0.0000
# 6 0.0000 0.0000 0.0000 0.0000 0.0000 33.3815
#
#
#
# Elastic Compliance Matrix: (Units=1/GPa)
#
#
# Indices 1 2 3 4 5 6 
#
# 1 0.011895 -0.000629 -0.003482 0.000000 0.000000 0.000000
# 2 -0.000629 0.012829 -0.005877 0.000000 0.000000 0.000000
# 3 -0.003482 -0.005877 0.010989 0.000000 0.000000 0.000000
# 4 0.000000 0.000000 0.000000 0.024537 0.000000 0.000000
# 5 0.000000 0.000000 0.000000 0.000000 0.033207 0.000000
# 6 0.000000 0.000000 0.000000 0.000000 0.000000 0.029957
#
#
# Mechanical properties :
#
#
# Convention : Reuss Voigt Hill
#
# Bulk Modulus (GPa) = 63.54301 69.19959 66.37130
# Shear Modulus (GPa) = 33.64005 35.00508 34.32256
#
# Velocity S-wave (km/s) = 3.98427 4.06430 4.02448
# Velocity P-wave (km/s) = 7.15200 7.39454 7.27428
#
# Compressibility (1/GPa) = 0.01573737
#
# Stress axis : x y z
#
# Youngs Moduli (GPa) = 84.07165 77.95117 91.00364
#
# Poissons Ratio (x) = 0.04901 0.31684
# Poissons Ratio (y) = 0.05285 0.53481
# Poissons Ratio (z) = 0.29271 0.45811
#
# Static dielectric constant tensor:
#      x y z
#    x 3.864730 0.000000 0.000000 
#    y 0.000000 3.622260 0.000000 
#    z 0.000000 0.000000 3.873220 
# 
# 
# High freq. dielectric constant tensor:
#      x y z
#    x 1.834360 0.000000 0.000000 
#    y 0.000000 1.829650 0.000000 
#    z 0.000000 0.000000 1.839160 
# 
# From -- ./inp_files/6267.got.cif
#   From: 2010.03.12/outbox.cif.g09.slc.cpg/sg66_4_cif.got.tgz:6267.got - 2010.04.10 21:57:39.
