data_PCOD8277982
_publ_section_title
;
Structure prediction by ZEFSAII (Michael W. Deem and Ramdas Pophale) SiO2 
 PCOD8277982
Probable space group: C M M A
;
_chemical_formula_sum "Si O2"
_cell_formula_units_Z 64
_cell_length_a 17.379188
_cell_length_b 5.286637
_cell_length_c 35.885958
_cell_angle_alpha 90.000000
_cell_angle_beta 90.000000
_cell_angle_gamma 90.000000
_cell_volume 3297.110610
_symmetry_space_group_name_H-M "C M M A"
_symmetry_group_IT_number 67
_symmetry_cell_setting 'orthorhombic'
loop_
_space_group_symop_operation_xyz
x,y,z
-x,1/2-y,z
x,-y,-z
-x,1/2+y,-z
-x,-y,-z
x,1/2+y,-z
-x,y,z
x,1/2-y,z
1/2+x,1/2+y,z
1/2-x,-y,z
1/2+x,1/2-y,-z
1/2-x,y,-z
1/2-x,1/2-y,-z
1/2+x,y,-z
1/2-x,1/2+y,z
1/2+x,-y,z
loop_
_atom_site_type_symbol
_atom_site_label
_atom_site_fract_x
_atom_site_fract_y
_atom_site_fract_z
Si Si1 0.336258 0.250000 0.015914
Si Si2 0.910666 0.250000 0.830963
Si Si3 0.159931 0.250000 0.294458
Si Si4 0.169042 0.250000 0.674091
Si Si5 0.590552 0.750000 0.521911
Si Si6 0.589955 0.750000 0.214831
Si Si7 0.200121 0.250000 0.899357
Si Si8 0.797223 0.750000 0.412672
O O1 0.338564 0.250000 0.060256
O O2 0.378944 0.500000 0.000000
O O3 0.250000 0.250000 0.000000
O O4 0.887934 0.500245 0.808126
O O5 0.867915 0.250000 0.869944
O O6 0.000000 0.250000 0.840635
O O7 0.122266 0.499654 0.313439
O O8 0.250608 0.250000 0.303421
O O9 0.143843 0.250000 0.250821
O O10 0.180677 0.250000 0.630318
O O11 0.500000 0.750000 0.527625
O O12 0.618161 0.500000 0.500000
O O13 0.625919 0.750000 0.563010
O O14 0.500000 0.750000 0.226100
O O15 0.250000 0.500000 0.893661
O O16 0.750000 0.500000 0.422761
#
# Coordination Sequence:
#
# PCOD8277982 Si02
#       8
#     8   8   8   8   8   8   8   8
#     4  10  16  30  51  77 109 147 170 226 283 326
#     4  10  23  42  57  78 119 155 183 232 292 339
#     4  10  18  35  56  79 105 147 179 225 280 329
#     4  10  19  35  54  79 118 144 170 229 294 323
#     4  10  23  42  60  85 121 156 194 241 287 332
#     4  10  21  40  60  78 108 154 194 225 276 347
#     4  12  21  35  57  88 112 141 194 235 275 335
#     4  12  21  37  63  86 121 155 191 234 287 346
#
# _framework density 19.410936
#
# number of rings (size 3 to 8) (size 9 to 14) (size 15 to 20)
#    0.000    1.500    5.000    2.250    0.000    1.500 
#   13.500    1.250    0.000    0.750    0.000    0.000 
#    0.000    0.000    0.000    0.000    0.000    0.000 
#
# Total GULP energy -396729.194923 kJ/mol
# GULP energy per Si atom -12397.787341 kJ/mol
# Density = 1.936676 g / cm^3
# Si number density = 19.410936 Si / 1000 Ang^3
#
#
#
# Elastic Constant Matrix: (Units=GPa)
#
#
# Indices 1 2 3 4 5 6 
#
# 1 35.0068 34.8622 68.7681 0.0000 0.0000 0.0000
# 2 34.8622 222.1414 71.1536 0.0000 0.0000 0.0000
# 3 68.7681 71.1536 175.0683 0.0000 0.0000 0.0000
# 4 0.0000 0.0000 0.0000 57.3876 0.0000 0.0000
# 5 0.0000 0.0000 0.0000 0.0000 -6.7281 0.0000
# 6 0.0000 0.0000 0.0000 0.0000 0.0000 7.8137
#
#
#
# Elastic Compliance Matrix: (Units=1/GPa)
#
#
# Indices 1 2 3 4 5 6 
#
# 1 0.129084 -0.004618 -0.048828 0.000000 0.000000 0.000000
# 2 -0.004618 0.005341 -0.000357 0.000000 0.000000 0.000000
# 3 -0.048828 -0.000357 0.025037 0.000000 0.000000 0.000000
# 4 0.000000 0.000000 0.000000 0.017425 0.000000 0.000000
# 5 0.000000 0.000000 0.000000 0.000000 -0.148630 0.000000
# 6 0.000000 0.000000 0.000000 0.000000 0.000000 0.127981
#
#
# Mechanical properties :
#
#
# Convention : Reuss Voigt Hill
#
# Bulk Modulus (GPa) = 19.28421 86.86493 53.07457
# Shear Modulus (GPa) = 17.78549 28.85680 23.32114
#
# Velocity S-wave (km/s) = 3.03026 3.85986 3.46994
# Velocity P-wave (km/s) = 4.71165 8.04440 6.59212
#
# Compressibility (1/GPa) = 0.05185590
#
# Stress axis : x y z
#
# Youngs Moduli (GPa) = 7.74691 187.24490 39.94084
#
# Poissons Ratio (x) = 0.86470 1.95024
# Poissons Ratio (y) = 0.03578 0.01424
# Poissons Ratio (z) = 0.37827 0.06677
#
# Static dielectric constant tensor:
#      x y z
#    x 3.057050 0.000000 0.000000 
#    y 0.000000 8.782950 0.000000 
#    z 0.000000 0.000000 3.504070 
# 
# 
# High freq. dielectric constant tensor:
#      x y z
#    x 1.703900 0.000000 0.000000 
#    y 0.000000 1.797740 0.000000 
#    z 0.000000 0.000000 1.764980 
# 
# From -- ./inp_files/45747.got.cif
#   From: 2010.03.12/outbox.cif.g09.slc.cpg/sg67_23_cif.got.tgz:45747.got - 2010.04.10 22:41:39.
