data_PCOD8277275
_publ_section_title
;
Structure prediction by ZEFSAII (Michael W. Deem and Ramdas Pophale) SiO2 
 PCOD8277275
Probable space group: C C C M
;
_chemical_formula_sum "Si O2"
_cell_formula_units_Z 120
_cell_length_a 27.200605
_cell_length_b 26.268828
_cell_length_c 9.633833
_cell_angle_alpha 90.000000
_cell_angle_beta 90.000000
_cell_angle_gamma 90.000000
_cell_volume 6883.643563
_symmetry_space_group_name_H-M "C C C M"
_symmetry_group_IT_number 66
_symmetry_cell_setting 'orthorhombic'
loop_
_space_group_symop_operation_xyz
x,y,z
-x,-y,z
x,-y,1/2-z
-x,y,1/2-z
-x,-y,-z
x,y,-z
-x,y,1/2+z
x,-y,1/2+z
1/2+x,1/2+y,z
1/2-x,1/2-y,z
1/2+x,1/2-y,1/2-z
1/2-x,1/2+y,1/2-z
1/2-x,1/2-y,-z
1/2+x,1/2+y,-z
1/2-x,1/2+y,1/2+z
1/2+x,1/2-y,1/2+z
loop_
_atom_site_type_symbol
_atom_site_label
_atom_site_fract_x
_atom_site_fract_y
_atom_site_fract_z
Si Si1 0.355718 0.746805 0.664598
Si Si2 0.043393 0.423710 0.154375
Si Si3 0.175888 0.840193 0.157203
Si Si4 0.121298 0.500000 0.250000
Si Si5 0.953476 0.308129 0.661095
Si Si6 0.693942 0.454658 0.838317
Si Si7 0.709581 0.818826 0.340146
Si Si8 0.798634 0.571988 0.344685
O O1 0.346531 0.743731 0.500000
O O2 0.357472 0.690562 0.732347
O O3 0.406770 0.774355 0.700667
O O4 0.310879 0.776170 0.737612
O O5 0.089395 0.461673 0.158341
O O6 0.059195 0.366861 0.199426
O O7 0.000000 0.445185 0.250000
O O8 0.021907 0.423167 0.000000
O O9 0.168146 0.900218 0.187896
O O10 0.232038 0.822734 0.175889
O O11 0.158714 0.828181 0.000000
O O12 0.155892 0.466518 0.348529
O O13 0.967052 0.302352 0.500000
O O14 0.000000 0.289144 0.750000
O O15 0.667991 0.500000 0.750000
O O16 0.749721 0.451025 0.775252
O O17 0.692053 0.469813 0.000000
O O18 0.695028 0.805662 0.500000
O O19 0.686288 0.872583 0.285293
O O20 0.780899 0.584651 0.500000
#
# Coordination Sequence:
#
# PCOD8277275 Si02
#       8
#    16  16  16   8  16  16  16  16
#     4  11  21  32  49  75 101 120 154 206 253 294
#     4  10  22  37  50  64  85 115 151 196 253 305
#     4   9  19  33  49  70 100 135 169 199 232 286
#     4  12  19  28  48  68  92 116 154 208 253 288
#     4   9  20  38  54  70  93 122 157 201 252 306
#     4   9  17  32  49  68  96 130 166 198 226 266
#     4   9  18  33  49  65  94 134 170 199 236 292
#     4   9  18  30  44  65  90 121 160 198 238 283
#
# _framework density 17.432628000000001
#
# number of rings (size 3 to 8) (size 9 to 14) (size 15 to 20)
#    0.000    2.400    0.667    3.800    0.000    5.333 
#    0.000    5.333    0.000    0.000    0.000    0.000 
#    0.000    0.533    0.000    5.867    0.000    4.267 
#
# Total GULP energy -743676.825181 kJ/mol
# GULP energy per Si atom -12394.613753 kJ/mol
# Density = 1.739295 g / cm^3
# Si number density = 17.432628 Si / 1000 Ang^3
#
#
#
# Elastic Constant Matrix: (Units=GPa)
#
#
# Indices 1 2 3 4 5 6 
#
# 1 45.9564 34.6167 24.7432 0.0000 0.0000 0.0000
# 2 34.6167 118.5021 53.5228 0.0000 0.0000 0.0000
# 3 24.7432 53.5228 80.6692 0.0000 0.0000 0.0000
# 4 0.0000 0.0000 0.0000 28.6113 0.0000 0.0000
# 5 0.0000 0.0000 0.0000 0.0000 22.8915 0.0000
# 6 0.0000 0.0000 0.0000 0.0000 0.0000 29.1852
#
#
#
# Elastic Compliance Matrix: (Units=1/GPa)
#
#
# Indices 1 2 3 4 5 6 
#
# 1 0.029090 -0.006380 -0.004690 0.000000 0.000000 0.000000
# 2 -0.006380 0.013449 -0.006966 0.000000 0.000000 0.000000
# 3 -0.004690 -0.006966 0.018457 0.000000 0.000000 0.000000
# 4 0.000000 0.000000 0.000000 0.034951 0.000000 0.000000
# 5 0.000000 0.000000 0.000000 0.000000 0.043684 0.000000
# 6 0.000000 0.000000 0.000000 0.000000 0.000000 0.034264
#
#
# Mechanical properties :
#
#
# Convention : Reuss Voigt Hill
#
# Bulk Modulus (GPa) = 40.12151 52.32144 46.22148
# Shear Modulus (GPa) = 22.90692 24.95393 23.93043
#
# Velocity S-wave (km/s) = 3.62888 3.78756 3.70907
# Velocity P-wave (km/s) = 6.37366 7.01471 6.70185
#
# Compressibility (1/GPa) = 0.02492429
#
# Stress axis : x y z
#
# Youngs Moduli (GPa) = 34.37577 74.35718 54.18059
#
# Poissons Ratio (x) = 0.47436 0.25411
# Poissons Ratio (y) = 0.21930 0.37743
# Poissons Ratio (z) = 0.16122 0.51799
#
# Static dielectric constant tensor:
#      x y z
#    x 2.878790 0.000000 0.000000 
#    y 0.000000 3.464020 0.000000 
#    z 0.000000 0.000000 3.128030 
# 
# 
# High freq. dielectric constant tensor:
#      x y z
#    x 1.628160 0.000000 0.000000 
#    y 0.000000 1.683590 0.000000 
#    z 0.000000 0.000000 1.666580 
# 
# From -- ./inp_files/10755.got.cif
#   From: 2010.03.12/outbox.cif.g09.slc.cpg/sg66_6_cif.got.tgz:10755.got - 2010.04.10 21:57:39.
