data_PCOD8277983
_publ_section_title
;
Structure prediction by ZEFSAII (Michael W. Deem and Ramdas Pophale) SiO2 
 PCOD8277983
Probable space group: C M M A
;
_chemical_formula_sum "Si O2"
_cell_formula_units_Z 96
_cell_length_a 15.123942
_cell_length_b 14.176927
_cell_length_c 21.584948
_cell_angle_alpha 90.000000
_cell_angle_beta 90.000000
_cell_angle_gamma 90.000000
_cell_volume 4628.050754
_symmetry_space_group_name_H-M "C M M A"
_symmetry_group_IT_number 67
_symmetry_cell_setting 'orthorhombic'
loop_
_space_group_symop_operation_xyz
x,y,z
-x,1/2-y,z
x,-y,-z
-x,1/2+y,-z
-x,-y,-z
x,1/2+y,-z
-x,y,z
x,1/2-y,z
1/2+x,1/2+y,z
1/2-x,-y,z
1/2+x,1/2-y,-z
1/2-x,y,-z
1/2-x,1/2-y,-z
1/2+x,y,-z
1/2-x,1/2+y,z
1/2+x,-y,z
loop_
_atom_site_type_symbol
_atom_site_label
_atom_site_fract_x
_atom_site_fract_y
_atom_site_fract_z
Si Si1 0.150936 0.854924 0.479526
Si Si2 0.099043 0.525790 0.592736
Si Si3 0.695146 0.360734 0.059637
Si Si4 0.000000 0.397603 0.973135
Si Si5 0.174208 0.362194 0.160283
Si Si6 0.500000 0.351660 0.894975
Si Si7 0.603882 0.640670 0.289824
O O1 0.113014 0.750000 0.462889
O O2 0.250000 0.843205 0.500000
O O3 0.096211 0.901514 0.535272
O O4 0.150509 0.927925 0.421578
O O5 0.138459 0.578265 0.652714
O O6 0.000000 0.494742 0.607402
O O7 0.707291 0.250000 0.056957
O O8 0.590740 0.383685 0.064847
O O9 0.739424 0.400755 0.123644
O O10 0.750000 0.402598 0.000000
O O11 0.000000 0.500000 0.000000
O O12 0.000000 0.328958 0.031973
O O13 0.172296 0.250000 0.154183
O O14 0.088540 0.406583 0.125160
O O15 0.166450 0.390777 0.232387
O O16 0.500000 0.250000 0.860276
O O17 0.500000 0.623416 0.274392
O O18 0.618884 0.750000 0.306916
#
# Coordination Sequence:
#
# PCOD8277983 Si02
#       7
#    16  16  16   8  16   8  16
#     4  10  20  34  52  74 110 156 194 233 281 332
#     4  10  19  30  50  82 117 149 187 234 283 336
#     4  10  19  33  55  80 105 142 188 231 281 343
#     4  12  24  34  48  74 116 148 173 227 290 347
#     4   9  16  28  51  80 110 143 186 233 282 342
#     4  10  16  30  54  78 104 141 183 228 280 337
#     4   9  16  27  47  81 120 150 181 231 291 351
#
# _framework density 20.743075000000001
#
# number of rings (size 3 to 8) (size 9 to 14) (size 15 to 20)
#    0.000    2.167    2.500    3.250    0.000    2.333 
#    0.000    0.000    0.000    4.000    0.000    0.000 
#   10.000    4.000    8.000    0.000    0.000    0.167 
#
# Total GULP energy -594628.687137 kJ/mol
# GULP energy per Si atom -12388.097649 kJ/mol
# Density = 2.069586 g / cm^3
# Si number density = 20.743075 Si / 1000 Ang^3
#
#
#
# Elastic Constant Matrix: (Units=GPa)
#
#
# Indices 1 2 3 4 5 6 
#
# 1 115.9519 23.2693 60.8307 0.0000 0.0000 0.0000
# 2 23.2693 102.8772 57.2780 0.0000 0.0000 0.0000
# 3 60.8307 57.2780 150.8416 0.0000 0.0000 0.0000
# 4 0.0000 0.0000 0.0000 14.4284 0.0000 0.0000
# 5 0.0000 0.0000 0.0000 0.0000 32.8357 0.0000
# 6 0.0000 0.0000 0.0000 0.0000 0.0000 16.8998
#
#
#
# Elastic Compliance Matrix: (Units=1/GPa)
#
#
# Indices 1 2 3 4 5 6 
#
# 1 0.010939 -0.000023 -0.004403 0.000000 0.000000 0.000000
# 2 -0.000023 0.012326 -0.004671 0.000000 0.000000 0.000000
# 3 -0.004403 -0.004671 0.010179 0.000000 0.000000 0.000000
# 4 0.000000 0.000000 0.000000 0.069308 0.000000 0.000000
# 5 0.000000 0.000000 0.000000 0.000000 0.030455 0.000000
# 6 0.000000 0.000000 0.000000 0.000000 0.000000 0.059172
#
#
# Mechanical properties :
#
#
# Convention : Reuss Voigt Hill
#
# Bulk Modulus (GPa) = 65.57408 72.49186 69.03297
# Shear Modulus (GPa) = 23.18515 28.05229 25.61872
#
# Velocity S-wave (km/s) = 3.34687 3.68145 3.51814
# Velocity P-wave (km/s) = 6.82763 7.28657 7.06083
#
# Compressibility (1/GPa) = 0.01524993
#
# Stress axis : x y z
#
# Youngs Moduli (GPa) = 91.41999 81.12710 98.24432
#
# Poissons Ratio (x) = 0.00186 0.43252
# Poissons Ratio (y) = 0.00210 0.45893
# Poissons Ratio (z) = 0.40248 0.37897
#
# Static dielectric constant tensor:
#      x y z
#    x 3.050270 0.000000 0.000000 
#    y 0.000000 3.737500 0.000000 
#    z 0.000000 0.000000 3.577650 
# 
# 
# High freq. dielectric constant tensor:
#      x y z
#    x 1.806310 0.000000 0.000000 
#    y 0.000000 1.798950 0.000000 
#    z 0.000000 0.000000 1.789460 
# 
# From -- ./inp_files/38526.got.cif
#   From: 2010.03.12/outbox.cif.g09.slc.cpg/sg67_20_cif.got.tgz:38526.got - 2010.04.10 22:41:39.
