data_PCOD8277466
_publ_section_title
;
Structure prediction by ZEFSAII (Michael W. Deem and Ramdas Pophale) SiO2 
 PCOD8277466
Probable space group: C C C M
;
_chemical_formula_sum "Si O2"
_cell_formula_units_Z 96
_cell_length_a 24.363837
_cell_length_b 11.338948
_cell_length_c 17.556635
_cell_angle_alpha 90.000000
_cell_angle_beta 90.000000
_cell_angle_gamma 90.000000
_cell_volume 4850.200915
_symmetry_space_group_name_H-M "C C C M"
_symmetry_group_IT_number 66
_symmetry_cell_setting 'orthorhombic'
loop_
_space_group_symop_operation_xyz
x,y,z
-x,-y,z
x,-y,1/2-z
-x,y,1/2-z
-x,-y,-z
x,y,-z
-x,y,1/2+z
x,-y,1/2+z
1/2+x,1/2+y,z
1/2-x,1/2-y,z
1/2+x,1/2-y,1/2-z
1/2-x,1/2+y,1/2-z
1/2-x,1/2-y,-z
1/2+x,1/2+y,-z
1/2-x,1/2+y,1/2+z
1/2+x,1/2-y,1/2+z
loop_
_atom_site_type_symbol
_atom_site_label
_atom_site_fract_x
_atom_site_fract_y
_atom_site_fract_z
Si Si1 0.057672 0.549049 0.833298
Si Si2 0.441711 0.692089 0.782870
Si Si3 0.242915 0.113236 0.194235
Si Si4 0.437434 0.529435 0.082649
Si Si5 0.154600 0.426427 0.913844
Si Si6 0.370798 0.677681 0.634806
O O1 0.070880 0.500000 0.750000
O O2 0.049090 0.687505 0.827411
O O3 0.108876 0.520784 0.887582
O O4 0.000000 0.500000 0.866105
O O5 0.500000 0.646912 0.750000
O O6 0.416717 0.605289 0.846147
O O7 0.396379 0.701197 0.717875
O O8 0.250000 0.250000 0.229041
O O9 0.293316 0.075174 0.141355
O O10 0.189208 0.120907 0.142481
O O11 0.236411 0.000000 0.250000
O O12 0.500000 0.500000 0.095021
O O13 0.405631 0.407386 0.082485
O O14 0.427743 0.591072 0.000000
O O15 0.127726 0.298171 0.911833
O O16 0.172469 0.458141 0.000000
#
# Coordination Sequence:
#
# PCOD8277466 Si02
#       6
#    16  16  16  16  16  16
#     4  11  21  39  62  92 121 158 205 256 311 365
#     4  12  21  37  64  88 122 162 211 254 303 373
#     4  10  23  41  67  95 121 161 216 263 313 373
#     4  11  24  37  55  87 129 163 197 250 312 369
#     4  11  24  41  65  93 126 161 200 261 321 377
#     4  11  22  40  64  92 118 165 211 258 302 368
#
# _framework density 19.792995000000001
#
# number of rings (size 3 to 8) (size 9 to 14) (size 15 to 20)
#    0.000    1.000    5.000    2.500    2.333    4.667 
#    0.000    0.000    0.000    0.500    0.000    0.000 
#    0.000    0.000    0.000    0.000    0.000    0.000 
#
# Total GULP energy -594951.594705 kJ/mol
# GULP energy per Si atom -12394.824890 kJ/mol
# Density = 1.974795 g / cm^3
# Si number density = 19.792995 Si / 1000 Ang^3
#
#
#
# Elastic Constant Matrix: (Units=GPa)
#
#
# Indices 1 2 3 4 5 6 
#
# 1 92.0158 5.4008 8.8898 0.0000 0.0000 0.0000
# 2 5.4008 70.0608 17.8903 0.0000 0.0000 0.0000
# 3 8.8898 17.8903 76.5263 0.0000 0.0000 0.0000
# 4 0.0000 0.0000 0.0000 23.7523 0.0000 0.0000
# 5 0.0000 0.0000 0.0000 0.0000 42.2143 0.0000
# 6 0.0000 0.0000 0.0000 0.0000 0.0000 32.4411
#
#
#
# Elastic Compliance Matrix: (Units=1/GPa)
#
#
# Indices 1 2 3 4 5 6 
#
# 1 0.011011 -0.000555 -0.001149 0.000000 0.000000 0.000000
# 2 -0.000555 0.015207 -0.003491 0.000000 0.000000 0.000000
# 3 -0.001149 -0.003491 0.014017 0.000000 0.000000 0.000000
# 4 0.000000 0.000000 0.000000 0.042101 0.000000 0.000000
# 5 0.000000 0.000000 0.000000 0.000000 0.023689 0.000000
# 6 0.000000 0.000000 0.000000 0.000000 0.000000 0.030825
#
#
# Mechanical properties :
#
#
# Convention : Reuss Voigt Hill
#
# Bulk Modulus (GPa) = 33.50637 33.66274 33.58455
# Shear Modulus (GPa) = 31.80869 33.44300 32.62585
#
# Velocity S-wave (km/s) = 4.01317 4.11498 4.06440
# Velocity P-wave (km/s) = 6.19994 6.29458 6.24744
#
# Compressibility (1/GPa) = 0.02984507
#
# Stress axis : x y z
#
# Youngs Moduli (GPa) = 90.81552 65.75712 71.34210
#
# Poissons Ratio (x) = 0.03652 0.08200
# Poissons Ratio (y) = 0.05043 0.24903
# Poissons Ratio (z) = 0.10438 0.22954
#
# Static dielectric constant tensor:
#      x y z
#    x 3.630510 0.000000 0.000000 
#    y 0.000000 3.653180 0.000000 
#    z 0.000000 0.000000 3.533530 
# 
# 
# High freq. dielectric constant tensor:
#      x y z
#    x 1.778530 0.000000 0.000000 
#    y 0.000000 1.775360 0.000000 
#    z 0.000000 0.000000 1.759420 
# 
# From -- ./inp_files/38863.got.cif
#   From: 2010.03.12/outbox.cif.g09.slc.cpg/sg66_20_cif.got.tgz:38863.got - 2010.04.10 21:57:39.
