data_PCOD8277309
_publ_section_title
;
Structure prediction by ZEFSAII (Michael W. Deem and Ramdas Pophale) SiO2 
 PCOD8277309
Probable space group: C C C M
;
_chemical_formula_sum "Si O2"
_cell_formula_units_Z 84
_cell_length_a 15.533308
_cell_length_b 18.740269
_cell_length_c 14.647916
_cell_angle_alpha 90.000000
_cell_angle_beta 90.000000
_cell_angle_gamma 90.000000
_cell_volume 4263.984477
_symmetry_space_group_name_H-M "C C C M"
_symmetry_group_IT_number 66
_symmetry_cell_setting 'orthorhombic'
loop_
_space_group_symop_operation_xyz
x,y,z
-x,-y,z
x,-y,1/2-z
-x,y,1/2-z
-x,-y,-z
x,y,-z
-x,y,1/2+z
x,-y,1/2+z
1/2+x,1/2+y,z
1/2-x,1/2-y,z
1/2+x,1/2-y,1/2-z
1/2-x,1/2+y,1/2-z
1/2-x,1/2-y,-z
1/2+x,1/2+y,-z
1/2-x,1/2+y,1/2+z
1/2+x,1/2-y,1/2+z
loop_
_atom_site_type_symbol
_atom_site_label
_atom_site_fract_x
_atom_site_fract_y
_atom_site_fract_z
Si Si1 0.786167 0.637216 0.500000
Si Si2 0.500000 0.000000 0.250000
Si Si3 0.379059 0.713628 0.000000
Si Si4 0.083955 0.766358 0.195984
Si Si5 0.820708 0.898287 0.751836
Si Si6 0.102436 0.996596 0.605675
Si Si7 0.140116 0.605192 0.187217
O O1 0.682307 0.643656 0.500000
O O2 0.820991 0.716746 0.500000
O O3 0.819076 0.595346 0.412227
O O4 0.438716 0.949915 0.189656
O O5 0.437209 0.714340 0.090486
O O6 0.162683 0.814127 0.234483
O O7 0.105750 0.683864 0.208692
O O8 0.000000 0.788621 0.250000
O O9 0.863444 0.923787 0.846621
O O10 0.717431 0.911677 0.758332
O O11 0.859883 0.938525 0.664185
O O12 0.133875 0.998803 0.500000
O O13 0.000000 0.000000 0.610441
#
# Coordination Sequence:
#
# PCOD8277309 Si02
#       7
#     8   4   8  16  16  16  16
#     4   9  18  37  62  90 113 153 216 265 302 355
#     4  12  24  42  60  88 134 172 200 252 322 392
#     4   9  18  34  62  94 120 151 209 268 305 356
#     4  11  21  38  63  95 127 158 210 267 311 360
#     4  11  21  38  64  91 121 169 208 256 313 371
#     4  10  22  39  59  91 128 159 202 253 317 386
#     4  11  23  40  62  89 124 165 210 261 316 368
#
# _framework density 19.699884000000001
#
# number of rings (size 3 to 8) (size 9 to 14) (size 15 to 20)
#    0.000    1.524    2.857    4.000    2.667    0.381 
#    1.714    0.000    4.190    1.143    0.000    0.000 
#    0.000    0.000    0.000    0.000    0.000    0.000 
#
# Total GULP energy -520654.893963 kJ/mol
# GULP energy per Si atom -12396.545094 kJ/mol
# Density = 1.965505 g / cm^3
# Si number density = 19.699884 Si / 1000 Ang^3
#
#
#
# Elastic Constant Matrix: (Units=GPa)
#
#
# Indices 1 2 3 4 5 6 
#
# 1 119.2042 35.8007 54.4923 0.0000 0.0000 0.0000
# 2 35.8007 107.1632 34.7191 0.0000 0.0000 0.0000
# 3 54.4923 34.7191 137.7776 0.0000 0.0000 0.0000
# 4 0.0000 0.0000 0.0000 14.7287 0.0000 0.0000
# 5 0.0000 0.0000 0.0000 0.0000 24.0335 0.0000
# 6 0.0000 0.0000 0.0000 0.0000 0.0000 29.8986
#
#
#
# Elastic Compliance Matrix: (Units=1/GPa)
#
#
# Indices 1 2 3 4 5 6 
#
# 1 0.010787 -0.002419 -0.003657 0.000000 0.000000 0.000000
# 2 -0.002419 0.010704 -0.001741 0.000000 0.000000 0.000000
# 3 -0.003657 -0.001741 0.009143 0.000000 0.000000 0.000000
# 4 0.000000 0.000000 0.000000 0.067895 0.000000 0.000000
# 5 0.000000 0.000000 0.000000 0.000000 0.041609 0.000000
# 6 0.000000 0.000000 0.000000 0.000000 0.000000 0.033446
#
#
# Mechanical properties :
#
#
# Convention : Reuss Voigt Hill
#
# Bulk Modulus (GPa) = 66.66202 68.24103 67.45152
# Shear Modulus (GPa) = 25.74451 29.67436 27.70944
#
# Velocity S-wave (km/s) = 3.61894 3.88535 3.75451
# Velocity P-wave (km/s) = 7.16760 7.40563 7.28759
#
# Compressibility (1/GPa) = 0.01500105
#
# Stress axis : x y z
#
# Youngs Moduli (GPa) = 92.70315 93.42672 109.37352
#
# Poissons Ratio (x) = 0.22600 0.39996
# Poissons Ratio (y) = 0.22425 0.19037
# Poissons Ratio (z) = 0.33900 0.16261
#
# Static dielectric constant tensor:
#      x y z
#    x 3.630100 0.000000 0.000000 
#    y 0.000000 3.628570 0.000000 
#    z 0.000000 0.000000 3.792180 
# 
# 
# High freq. dielectric constant tensor:
#      x y z
#    x 1.764850 0.000000 0.000000 
#    y 0.000000 1.773780 0.000000 
#    z 0.000000 0.000000 1.757980 
# 
# From -- ./inp_files/28273.got.cif
#   From: 2010.03.12/outbox.cif.g09.slc.cpg/sg66_15_cif.got.tgz:28273.got - 2010.04.10 21:57:39.
