data_PCOD8277882
_publ_section_title
;
Structure prediction by ZEFSAII (Michael W. Deem and Ramdas Pophale) SiO2 
 PCOD8277882
Probable space group: C C C M
;
_chemical_formula_sum "Si O2"
_cell_formula_units_Z 48
_cell_length_a 5.486598
_cell_length_b 17.254997
_cell_length_c 21.721891
_cell_angle_alpha 90.000000
_cell_angle_beta 90.000000
_cell_angle_gamma 90.000000
_cell_volume 2056.438183
_symmetry_space_group_name_H-M "C C C M"
_symmetry_group_IT_number 66
_symmetry_cell_setting 'orthorhombic'
loop_
_space_group_symop_operation_xyz
x,y,z
-x,-y,z
x,-y,1/2-z
-x,y,1/2-z
-x,-y,-z
x,y,-z
-x,y,1/2+z
x,-y,1/2+z
1/2+x,1/2+y,z
1/2-x,1/2-y,z
1/2+x,1/2-y,1/2-z
1/2-x,1/2+y,1/2-z
1/2-x,1/2-y,-z
1/2+x,1/2+y,-z
1/2-x,1/2+y,1/2+z
1/2+x,1/2-y,1/2+z
loop_
_atom_site_type_symbol
_atom_site_label
_atom_site_fract_x
_atom_site_fract_y
_atom_site_fract_z
Si Si1 0.000000 0.848345 0.250000
Si Si2 0.607812 0.830360 0.430528
Si Si3 0.750000 0.750000 0.849474
Si Si4 0.249228 0.047838 0.336807
O O1 0.056666 0.793534 0.307232
O O2 0.226086 0.901658 0.226519
O O3 0.545140 0.856191 0.500000
O O4 0.750000 0.750000 0.430345
O O5 0.361833 0.817051 0.392099
O O6 0.754837 0.898841 0.397661
O O7 0.500000 0.000000 0.333185
O O8 0.000000 0.000000 0.342498
#
# Coordination Sequence:
#
# PCOD8277882 Si02
#       4
#     8  16   8  16
#     4  12  25  44  76 108 149 196 242 306 373 446
#     4  11  25  48  75 104 141 194 252 306 363 435
#     4  12  23  46  74 112 143 188 250 318 358 438
#     4  12  28  49  72 110 153 195 243 303 376 447
#
# _framework density 23.341329000000002
#
# number of rings (size 3 to 8) (size 9 to 14) (size 15 to 20)
#    0.000    0.333    3.333    5.000    0.000    9.333 
#    0.000    0.000    0.000    0.000    0.000    0.000 
#    0.000    0.000    0.000    0.000    0.000    0.000 
#
# Total GULP energy -297563.119469 kJ/mol
# GULP energy per Si atom -12398.463311 kJ/mol
# Density = 2.328820 g / cm^3
# Si number density = 23.341329 Si / 1000 Ang^3
#
#
#
# Elastic Constant Matrix: (Units=GPa)
#
#
# Indices 1 2 3 4 5 6 
#
# 1 133.6072 53.4123 54.4281 0.0000 0.0000 0.0000
# 2 53.4123 105.3778 55.8542 0.0000 0.0000 0.0000
# 3 54.4281 55.8542 187.0587 0.0000 0.0000 0.0000
# 4 0.0000 0.0000 0.0000 156.7877 0.0000 0.0000
# 5 0.0000 0.0000 0.0000 0.0000 34.5631 0.0000
# 6 0.0000 0.0000 0.0000 0.0000 0.0000 36.3755
#
#
#
# Elastic Compliance Matrix: (Units=1/GPa)
#
#
# Indices 1 2 3 4 5 6 
#
# 1 0.009785 -0.004099 -0.001623 0.000000 0.000000 0.000000
# 2 -0.004099 0.012991 -0.002686 0.000000 0.000000 0.000000
# 3 -0.001623 -0.002686 0.006620 0.000000 0.000000 0.000000
# 4 0.000000 0.000000 0.000000 0.006378 0.000000 0.000000
# 5 0.000000 0.000000 0.000000 0.000000 0.028933 0.000000
# 6 0.000000 0.000000 0.000000 0.000000 0.000000 0.027491
#
#
# Mechanical properties :
#
#
# Convention : Reuss Voigt Hill
#
# Bulk Modulus (GPa) = 79.49758 83.71476 81.60617
# Shear Modulus (GPa) = 44.16658 63.03521 53.60090
#
# Velocity S-wave (km/s) = 4.35467 5.20235 4.79727
# Velocity P-wave (km/s) = 7.70823 8.48701 8.10698
#
# Compressibility (1/GPa) = 0.01257900
#
# Stress axis : x y z
#
# Youngs Moduli (GPa) = 102.20217 76.97484 151.05104
#
# Poissons Ratio (x) = 0.31553 0.24516
# Poissons Ratio (y) = 0.41894 0.40578
# Poissons Ratio (z) = 0.16587 0.20678
#
# Static dielectric constant tensor:
#      x y z
#    x 4.111130 0.000000 0.000000 
#    y 0.000000 4.562760 0.000000 
#    z 0.000000 0.000000 4.568220 
# 
# 
# High freq. dielectric constant tensor:
#      x y z
#    x 1.918840 0.000000 0.000000 
#    y 0.000000 1.934260 0.000000 
#    z 0.000000 0.000000 1.935670 
# 
# From -- ./inp_files/53801.got.cif
#   From: 2010.03.12/outbox.cif.g09.slc.cpg/sg66_27_cif.got.tgz:53801.got - 2010.04.10 21:57:39.
