data_PCOD8277874
_publ_section_title
;
Structure prediction by ZEFSAII (Michael W. Deem and Ramdas Pophale) SiO2 
 PCOD8277874
Probable space group: C C C M
;
_chemical_formula_sum "Si O2"
_cell_formula_units_Z 64
_cell_length_a 15.343664
_cell_length_b 13.253828
_cell_length_c 15.038623
_cell_angle_alpha 90.000000
_cell_angle_beta 90.000000
_cell_angle_gamma 90.000000
_cell_volume 3058.288715
_symmetry_space_group_name_H-M "C C C M"
_symmetry_group_IT_number 66
_symmetry_cell_setting 'orthorhombic'
loop_
_space_group_symop_operation_xyz
x,y,z
-x,-y,z
x,-y,1/2-z
-x,y,1/2-z
-x,-y,-z
x,y,-z
-x,y,1/2+z
x,-y,1/2+z
1/2+x,1/2+y,z
1/2-x,1/2-y,z
1/2+x,1/2-y,1/2-z
1/2-x,1/2+y,1/2-z
1/2-x,1/2-y,-z
1/2+x,1/2+y,-z
1/2-x,1/2+y,1/2+z
1/2+x,1/2-y,1/2+z
loop_
_atom_site_type_symbol
_atom_site_label
_atom_site_fract_x
_atom_site_fract_y
_atom_site_fract_z
Si Si1 0.877787 0.186185 0.500000
Si Si2 0.306016 0.090083 0.000000
Si Si3 0.845685 0.259878 0.102356
Si Si4 0.507523 0.382180 0.146786
Si Si5 0.597220 0.971712 0.350242
O O1 0.797860 0.107342 0.500000
O O2 0.850920 0.301874 0.500000
O O3 0.932923 0.171841 0.410211
O O4 0.332642 0.026569 0.913042
O O5 0.750000 0.250000 0.146260
O O6 0.898004 0.155878 0.115011
O O7 0.897161 0.351107 0.147387
O O8 0.835076 0.287647 0.000000
O O9 0.500000 0.500000 0.128339
O O10 0.500000 0.354535 0.250000
O O11 0.500000 0.000000 0.380757
O O12 0.618260 0.000000 0.250000
#
# Coordination Sequence:
#
# PCOD8277874 Si02
#       5
#     8   8  16  16  16
#     4  11  25  44  72  98 142 180 232 284 347 416
#     4  11  25  44  68 103 138 185 228 286 344 417
#     4  11  25  43  70  99 132 177 232 285 339 408
#     4  11  26  45  70  98 139 181 227 283 347 409
#     4  11  25  43  71 100 140 180 231 286 349 410
#
# _framework density 20.926735000000001
#
# number of rings (size 3 to 8) (size 9 to 14) (size 15 to 20)
#    0.000    1.000    2.500    2.250   10.500    2.000 
#    0.000    0.000    0.000    0.000    0.000    0.000 
#    0.000    0.000    0.000    0.000    0.000    0.000 
#
# Total GULP energy -396950.327212 kJ/mol
# GULP energy per Si atom -12404.697725 kJ/mol
# Density = 2.087911 g / cm^3
# Si number density = 20.926735 Si / 1000 Ang^3
#
#
#
# Elastic Constant Matrix: (Units=GPa)
#
#
# Indices 1 2 3 4 5 6 
#
# 1 163.9871 63.2351 41.8106 0.0000 0.0000 0.0000
# 2 63.2351 126.7356 30.4796 0.0000 0.0000 0.0000
# 3 41.8106 30.4796 115.3601 0.0000 0.0000 0.0000
# 4 0.0000 0.0000 0.0000 -91.2708 0.0000 0.0000
# 5 0.0000 0.0000 0.0000 0.0000 31.1140 0.0000
# 6 0.0000 0.0000 0.0000 0.0000 0.0000 37.5131
#
#
#
# Elastic Compliance Matrix: (Units=1/GPa)
#
#
# Indices 1 2 3 4 5 6 
#
# 1 0.007944 -0.003493 -0.001956 0.000000 0.000000 0.000000
# 2 -0.003493 0.009962 -0.001366 0.000000 0.000000 0.000000
# 3 -0.001956 -0.001366 0.009738 0.000000 0.000000 0.000000
# 4 0.000000 0.000000 0.000000 -0.010956 0.000000 0.000000
# 5 0.000000 0.000000 0.000000 0.000000 0.032140 0.000000
# 6 0.000000 0.000000 0.000000 0.000000 0.000000 0.026657
#
#
# Mechanical properties :
#
#
# Convention : Reuss Voigt Hill
#
# Bulk Modulus (GPa) = 71.36014 75.23704 73.29859
# Shear Modulus (GPa) = 53.31247 13.50841 33.41044
#
# Velocity S-wave (km/s) = 5.05283 2.54344 4.00001
# Velocity P-wave (km/s) = 8.25926 6.68252 7.51238
#
# Compressibility (1/GPa) = 0.01401342
#
# Stress axis : x y z
#
# Youngs Moduli (GPa) = 125.88472 100.38277 102.68605
#
# Poissons Ratio (x) = 0.35065 0.20087
# Poissons Ratio (y) = 0.43973 0.14027
# Poissons Ratio (z) = 0.24625 0.13713
#
# Static dielectric constant tensor:
#      x y z
#    x 3.957330 0.000000 0.000000 
#    y 0.000000 3.872740 0.000000 
#    z 0.000000 0.000000 3.574630 
# 
# 
# High freq. dielectric constant tensor:
#      x y z
#    x 1.825470 0.000000 0.000000 
#    y 0.000000 1.835220 0.000000 
#    z 0.000000 0.000000 1.824460 
# 
# From -- ./inp_files/29607.got.cif
#   From: 2010.03.12/outbox.cif.g09.slc.cpg/sg66_15_cif.got.tgz:29607.got - 2010.04.10 21:57:39.
