data_PCOD8277394
_publ_section_title
;
Structure prediction by ZEFSAII (Michael W. Deem and Ramdas Pophale) SiO2 
 PCOD8277394
Probable space group: C C C M
;
_chemical_formula_sum "Si O2"
_cell_formula_units_Z 104
_cell_length_a 9.173608
_cell_length_b 27.116797
_cell_length_c 19.220643
_cell_angle_alpha 90.000000
_cell_angle_beta 90.000000
_cell_angle_gamma 90.000000
_cell_volume 4781.305354
_symmetry_space_group_name_H-M "C C C M"
_symmetry_group_IT_number 66
_symmetry_cell_setting 'orthorhombic'
loop_
_space_group_symop_operation_xyz
x,y,z
-x,-y,z
x,-y,1/2-z
-x,y,1/2-z
-x,-y,-z
x,y,-z
-x,y,1/2+z
x,-y,1/2+z
1/2+x,1/2+y,z
1/2-x,1/2-y,z
1/2+x,1/2-y,1/2-z
1/2-x,1/2+y,1/2-z
1/2-x,1/2-y,-z
1/2+x,1/2+y,-z
1/2-x,1/2+y,1/2+z
1/2+x,1/2-y,1/2+z
loop_
_atom_site_type_symbol
_atom_site_label
_atom_site_fract_x
_atom_site_fract_y
_atom_site_fract_z
Si Si1 0.238471 0.500000 0.250000
Si Si2 0.897781 0.727588 0.079051
Si Si3 0.583407 0.863270 0.823372
Si Si4 0.392667 0.409747 0.189368
Si Si5 0.087227 0.546543 0.874193
Si Si6 0.161694 0.206604 0.578467
Si Si7 0.367808 0.400811 0.420383
O O1 0.337644 0.464925 0.203379
O O2 0.134951 0.533969 0.203828
O O3 0.750000 0.750000 0.107626
O O4 0.950736 0.685173 0.131282
O O5 0.995987 0.776446 0.080094
O O6 0.886460 0.706426 0.000000
O O7 0.500000 0.858211 0.750000
O O8 0.757671 0.871552 0.815235
O O9 0.524096 0.908451 0.869357
O O10 0.500000 0.390665 0.250000
O O11 0.486207 0.416865 0.119273
O O12 0.233861 0.560790 0.915999
O O13 0.000000 0.500000 0.908402
O O14 0.225486 0.202533 0.500000
O O15 0.250000 0.250000 0.618669
O O16 0.180537 0.152432 0.612203
O O17 0.415309 0.394512 0.500000
#
# Coordination Sequence:
#
# PCOD8277394 Si02
#       7
#     8  16  16  16  16  16  16
#     4  12  22  42  70  90 118 182 228 264 310 420
#     4  10  22  42  68  95 130 179 225 269 337 422
#     4  12  23  41  68 102 133 169 226 292 345 394
#     4  12  24  40  69  94 128 178 230 269 331 410
#     4  12  23  42  70  97 133 180 227 270 334 410
#     4   9  18  37  63  88 122 171 217 259 319 403
#     4  11  25  43  65 100 137 171 222 283 340 395
#
# _framework density 21.751382
#
# number of rings (size 3 to 8) (size 9 to 14) (size 15 to 20)
#    0.000    0.923    4.615    2.308    0.000    4.000 
#    0.000    6.923    0.000    0.000    0.000    0.000 
#    0.000    0.000    0.000    0.000    0.000    0.000 
#
# Total GULP energy -644599.570533 kJ/mol
# GULP energy per Si atom -12396.145587 kJ/mol
# Density = 2.170188 g / cm^3
# Si number density = 21.751382 Si / 1000 Ang^3
#
#
#
# Elastic Constant Matrix: (Units=GPa)
#
#
# Indices 1 2 3 4 5 6 
#
# 1 121.6623 33.4267 27.4760 0.0000 0.0000 0.0000
# 2 33.4267 127.8253 30.5857 0.0000 0.0000 0.0000
# 3 27.4760 30.5857 76.3094 0.0000 0.0000 0.0000
# 4 0.0000 0.0000 0.0000 27.6274 0.0000 0.0000
# 5 0.0000 0.0000 0.0000 0.0000 15.6870 0.0000
# 6 0.0000 0.0000 0.0000 0.0000 0.0000 35.5357
#
#
#
# Elastic Compliance Matrix: (Units=1/GPa)
#
#
# Indices 1 2 3 4 5 6 
#
# 1 0.009309 -0.001805 -0.002628 0.000000 0.000000 0.000000
# 2 -0.001805 0.009003 -0.002959 0.000000 0.000000 0.000000
# 3 -0.002628 -0.002959 0.015237 0.000000 0.000000 0.000000
# 4 0.000000 0.000000 0.000000 0.036196 0.000000 0.000000
# 5 0.000000 0.000000 0.000000 0.000000 0.063747 0.000000
# 6 0.000000 0.000000 0.000000 0.000000 0.000000 0.028141
#
#
# Mechanical properties :
#
#
# Convention : Reuss Voigt Hill
#
# Bulk Modulus (GPa) = 53.29182 56.53043 54.91112
# Shear Modulus (GPa) = 27.37146 31.39058 29.38102
#
# Velocity S-wave (km/s) = 3.55121 3.80301 3.67926
# Velocity P-wave (km/s) = 6.43183 6.73272 6.58400
#
# Compressibility (1/GPa) = 0.01876461
#
# Stress axis : x y z
#
# Youngs Moduli (GPa) = 107.42208 111.07134 65.63125
#
# Poissons Ratio (x) = 0.20054 0.17249
# Poissons Ratio (y) = 0.19395 0.19417
# Poissons Ratio (z) = 0.28232 0.32861
#
# Static dielectric constant tensor:
#      x y z
#    x 4.152310 0.000000 0.000000 
#    y 0.000000 4.208810 0.000000 
#    z 0.000000 0.000000 3.645000 
# 
# 
# High freq. dielectric constant tensor:
#      x y z
#    x 1.874200 0.000000 0.000000 
#    y 0.000000 1.860670 0.000000 
#    z 0.000000 0.000000 1.822550 
# 
# From -- ./inp_files/47393.got.cif
#   From: 2010.03.12/outbox.cif.g09.slc.cpg/sg66_24_cif.got.tgz:47393.got - 2010.04.10 21:57:39.
