data_PCOD8277649
_publ_section_title
;
Structure prediction by ZEFSAII (Michael W. Deem and Ramdas Pophale) SiO2 
 PCOD8277649
Probable space group: C C C M
;
_chemical_formula_sum "Si O2"
_cell_formula_units_Z 80
_cell_length_a 9.476594
_cell_length_b 25.292438
_cell_length_c 18.141803
_cell_angle_alpha 90.000000
_cell_angle_beta 90.000000
_cell_angle_gamma 90.000000
_cell_volume 4348.339209
_symmetry_space_group_name_H-M "C C C M"
_symmetry_group_IT_number 66
_symmetry_cell_setting 'orthorhombic'
loop_
_space_group_symop_operation_xyz
x,y,z
-x,-y,z
x,-y,1/2-z
-x,y,1/2-z
-x,-y,-z
x,y,-z
-x,y,1/2+z
x,-y,1/2+z
1/2+x,1/2+y,z
1/2-x,1/2-y,z
1/2+x,1/2-y,1/2-z
1/2-x,1/2+y,1/2-z
1/2-x,1/2-y,-z
1/2+x,1/2+y,-z
1/2-x,1/2+y,1/2+z
1/2+x,1/2-y,1/2+z
loop_
_atom_site_type_symbol
_atom_site_label
_atom_site_fract_x
_atom_site_fract_y
_atom_site_fract_z
Si Si1 0.727809 0.922676 0.084974
Si Si2 0.465964 0.117182 0.330081
Si Si3 0.956034 0.898195 0.584384
Si Si4 0.757983 0.973372 0.328429
Si Si5 0.242486 0.690691 0.914971
O O1 0.612882 0.889848 0.128770
O O2 0.878027 0.894832 0.100013
O O3 0.728434 0.982998 0.110430
O O4 0.686229 0.921930 0.000000
O O5 0.500000 0.139965 0.250000
O O6 0.381786 0.062131 0.322042
O O7 0.379724 0.160892 0.372748
O O8 0.926868 0.917437 0.500000
O O9 0.889863 0.939090 0.642746
O O10 0.890836 0.839839 0.596480
O O11 0.795109 0.000000 0.250000
O O12 0.250000 0.750000 0.883188
O O13 0.198393 0.692034 0.000000
#
# Coordination Sequence:
#
# PCOD8277649 Si02
#       5
#    16  16  16  16  16
#     4  11  22  35  55  83 116 153 190 234 282 337
#     4  11  22  38  55  82 118 147 188 239 284 342
#     4   9  20  37  56  84 116 146 192 239 277 335
#     4  11  21  35  54  81 116 158 190 224 275 339
#     4   9  19  40  66  84 106 149 196 240 293 349
#
# _framework density 18.397829999999999
#
# number of rings (size 3 to 8) (size 9 to 14) (size 15 to 20)
#    0.000    1.800    2.000    2.400    0.000    6.400 
#    0.000    3.000    0.000    4.800    0.000    0.000 
#    0.000    0.000    0.000    0.000    0.000    0.000 
#
# Total GULP energy -496103.580079 kJ/mol
# GULP energy per Si atom -12402.589502 kJ/mol
# Density = 1.835596 g / cm^3
# Si number density = 18.397830 Si / 1000 Ang^3
#
#
#
# Elastic Constant Matrix: (Units=GPa)
#
#
# Indices 1 2 3 4 5 6 
#
# 1 127.1136 60.2309 68.0625 0.0000 0.0000 0.0000
# 2 60.2309 128.8253 54.3745 0.0000 0.0000 0.0000
# 3 68.0625 54.3745 112.1064 0.0000 0.0000 0.0000
# 4 0.0000 0.0000 0.0000 26.4160 0.0000 0.0000
# 5 0.0000 0.0000 0.0000 0.0000 50.6476 0.0000
# 6 0.0000 0.0000 0.0000 0.0000 0.0000 191.2863
#
#
#
# Elastic Compliance Matrix: (Units=1/GPa)
#
#
# Indices 1 2 3 4 5 6 
#
# 1 0.012729 -0.003382 -0.006088 0.000000 0.000000 0.000000
# 2 -0.003382 0.010659 -0.003117 0.000000 0.000000 0.000000
# 3 -0.006088 -0.003117 0.014128 0.000000 0.000000 0.000000
# 4 0.000000 0.000000 0.000000 0.037856 0.000000 0.000000
# 5 0.000000 0.000000 0.000000 0.000000 0.019744 0.000000
# 6 0.000000 0.000000 0.000000 0.000000 0.000000 0.005228
#
#
# Mechanical properties :
#
#
# Convention : Reuss Voigt Hill
#
# Bulk Modulus (GPa) = 81.01614 81.48679 81.25146
# Shear Modulus (GPa) = 38.57090 66.02846 52.29968
#
# Velocity S-wave (km/s) = 4.58371 5.99726 5.33749
# Velocity P-wave (km/s) = 8.49383 9.60957 9.06888
#
# Compressibility (1/GPa) = 0.01234322
#
# Stress axis : x y z
#
# Youngs Moduli (GPa) = 78.55994 93.81657 70.78174
#
# Poissons Ratio (x) = 0.31727 0.43091
# Poissons Ratio (y) = 0.26567 0.22061
# Poissons Ratio (z) = 0.47827 0.29241
#
# Static dielectric constant tensor:
#      x y z
#    x 3.513250 0.000000 0.000000 
#    y 0.000000 3.325160 0.000000 
#    z 0.000000 0.000000 3.527090 
# 
# 
# High freq. dielectric constant tensor:
#      x y z
#    x 1.721160 0.000000 0.000000 
#    y 0.000000 1.694500 0.000000 
#    z 0.000000 0.000000 1.724150 
# 
# From -- ./inp_files/36937.got.cif
#   From: 2010.03.12/outbox.cif.g09.slc.cpg/sg66_19_cif.got.tgz:36937.got - 2010.04.10 21:57:39.
