data_PCOD8277383
_publ_section_title
;
Structure prediction by ZEFSAII (Michael W. Deem and Ramdas Pophale) SiO2 
 PCOD8277383
Probable space group: C C C M
;
_chemical_formula_sum "Si O2"
_cell_formula_units_Z 108
_cell_length_a 14.922152
_cell_length_b 14.906144
_cell_length_c 23.661118
_cell_angle_alpha 90.000000
_cell_angle_beta 90.000000
_cell_angle_gamma 90.000000
_cell_volume 5262.983801
_symmetry_space_group_name_H-M "C C C M"
_symmetry_group_IT_number 66
_symmetry_cell_setting 'orthorhombic'
loop_
_space_group_symop_operation_xyz
x,y,z
-x,-y,z
x,-y,1/2-z
-x,y,1/2-z
-x,-y,-z
x,y,-z
-x,y,1/2+z
x,-y,1/2+z
1/2+x,1/2+y,z
1/2-x,1/2-y,z
1/2+x,1/2-y,1/2-z
1/2-x,1/2+y,1/2-z
1/2-x,1/2-y,-z
1/2+x,1/2+y,-z
1/2-x,1/2+y,1/2+z
1/2+x,1/2-y,1/2+z
loop_
_atom_site_type_symbol
_atom_site_label
_atom_site_fract_x
_atom_site_fract_y
_atom_site_fract_z
Si Si1 0.405469 0.616098 0.341626
Si Si2 0.500000 0.500000 0.750000
Si Si3 0.412938 0.701548 0.144983
Si Si4 0.630616 0.951275 0.197035
Si Si5 0.715530 0.463281 0.867917
Si Si6 0.153542 0.256585 0.241660
Si Si7 0.500000 0.000000 0.102482
Si Si8 0.861981 0.635352 0.563583
O O1 0.437174 0.558562 0.288886
O O2 0.489460 0.663635 0.374103
O O3 0.347022 0.550937 0.383505
O O4 0.345359 0.691305 0.312384
O O5 0.346921 0.617960 0.150720
O O6 0.420674 0.741733 0.208860
O O7 0.375035 0.777028 0.102698
O O8 0.644450 0.850930 0.213278
O O9 0.583343 0.000000 0.250000
O O10 0.722090 0.006324 0.184229
O O11 0.570497 0.948908 0.141524
O O12 0.777374 0.426882 0.919028
O O13 0.250000 0.250000 0.272494
O O14 0.548707 0.074605 0.064505
O O15 0.845788 0.669564 0.500000
#
# Coordination Sequence:
#
# PCOD8277383 Si02
#       8
#    16   4  16  16  16  16   8  16
#     4  12  22  37  60  93 132 176 210 251 315 391
#     4  12  20  36  60  84 132 174 208 232 308 384
#     4  12  23  38  60  93 127 166 215 263 318 384
#     4  11  22  35  58  90 131 169 204 249 318 388
#     4  11  23  40  60  89 128 170 213 263 313 390
#     4  12  21  34  56  89 130 170 207 242 300 386
#     4  10  22  42  62  88 118 154 208 266 326 394
#     4  11  25  45  68  88 116 163 221 284 342 384
#
# _framework density 20.520679000000001
#
# number of rings (size 3 to 8) (size 9 to 14) (size 15 to 20)
#    0.000    0.593    4.444    5.333    1.037    2.370 
#    0.000    0.741    0.000    1.778    0.000    5.185 
#    0.000    0.000    0.000    0.000    0.000    0.000 
#
# Total GULP energy -669298.426273 kJ/mol
# GULP energy per Si atom -12394.415301 kJ/mol
# Density = 2.047397 g / cm^3
# Si number density = 20.520679 Si / 1000 Ang^3
#
#
#
# Elastic Constant Matrix: (Units=GPa)
#
#
# Indices 1 2 3 4 5 6 
#
# 1 103.7016 48.1597 30.4292 0.0000 0.0000 0.0000
# 2 48.1597 145.7493 55.8754 0.0000 0.0000 0.0000
# 3 30.4292 55.8754 89.6455 0.0000 0.0000 0.0000
# 4 0.0000 0.0000 0.0000 50.9132 0.0000 0.0000
# 5 0.0000 0.0000 0.0000 0.0000 20.0540 0.0000
# 6 0.0000 0.0000 0.0000 0.0000 0.0000 28.2003
#
#
#
# Elastic Compliance Matrix: (Units=1/GPa)
#
#
# Indices 1 2 3 4 5 6 
#
# 1 0.011670 -0.003071 -0.002047 0.000000 0.000000 0.000000
# 2 -0.003071 0.009824 -0.005080 0.000000 0.000000 0.000000
# 3 -0.002047 -0.005080 0.015016 0.000000 0.000000 0.000000
# 4 0.000000 0.000000 0.000000 0.019641 0.000000 0.000000
# 5 0.000000 0.000000 0.000000 0.000000 0.049865 0.000000
# 6 0.000000 0.000000 0.000000 0.000000 0.000000 0.035461
#
#
# Mechanical properties :
#
#
# Convention : Reuss Voigt Hill
#
# Bulk Modulus (GPa) = 62.06299 67.55832 64.81066
# Shear Modulus (GPa) = 29.89613 33.47565 31.68589
#
# Velocity S-wave (km/s) = 3.82105 4.04333 3.93376
# Velocity P-wave (km/s) = 7.05528 7.40214 7.23079
#
# Compressibility (1/GPa) = 0.01611266
#
# Stress axis : x y z
#
# Youngs Moduli (GPa) = 85.68945 101.79515 66.59360
#
# Poissons Ratio (x) = 0.31265 0.13631
# Poissons Ratio (y) = 0.26319 0.33833
# Poissons Ratio (z) = 0.17540 0.51717
#
# Static dielectric constant tensor:
#      x y z
#    x 9.097210 0.000000 0.000000 
#    y 0.000000 3.793890 0.000000 
#    z 0.000000 0.000000 3.530710 
# 
# 
# High freq. dielectric constant tensor:
#      x y z
#    x 1.818860 0.000000 0.000000 
#    y 0.000000 1.826280 0.000000 
#    z 0.000000 0.000000 1.747440 
# 
# From -- ./inp_files/58267.got.cif
#   From: 2010.03.12/outbox.cif.g09.slc.cpg/sg66_30_cif.got.tgz:58267.got - 2010.04.10 21:57:39.
