data_PCOD8277541
_publ_section_title
;
Structure prediction by ZEFSAII (Michael W. Deem and Ramdas Pophale) SiO2 
 PCOD8277541
Probable space group: C C C M
;
_chemical_formula_sum "Si O2"
_cell_formula_units_Z 88
_cell_length_a 22.355194
_cell_length_b 8.192073
_cell_length_c 22.718286
_cell_angle_alpha 90.000000
_cell_angle_beta 90.000000
_cell_angle_gamma 90.000000
_cell_volume 4160.521966
_symmetry_space_group_name_H-M "C C C M"
_symmetry_group_IT_number 66
_symmetry_cell_setting 'orthorhombic'
loop_
_space_group_symop_operation_xyz
x,y,z
-x,-y,z
x,-y,1/2-z
-x,y,1/2-z
-x,-y,-z
x,y,-z
-x,y,1/2+z
x,-y,1/2+z
1/2+x,1/2+y,z
1/2-x,1/2-y,z
1/2+x,1/2-y,1/2-z
1/2-x,1/2+y,1/2-z
1/2-x,1/2-y,-z
1/2+x,1/2+y,-z
1/2-x,1/2+y,1/2+z
1/2+x,1/2-y,1/2+z
loop_
_atom_site_type_symbol
_atom_site_label
_atom_site_fract_x
_atom_site_fract_y
_atom_site_fract_z
Si Si1 0.750000 0.250000 0.901758
Si Si2 0.315001 0.679694 0.278580
Si Si3 0.008588 0.189444 0.681216
Si Si4 0.257409 0.492720 0.000000
Si Si5 0.892309 0.686494 0.127614
Si Si6 0.351459 0.753300 0.500000
Si Si7 0.364339 0.827472 0.168668
O O1 0.754540 0.409109 0.940988
O O2 0.690693 0.265180 0.862451
O O3 0.313213 0.500000 0.250000
O O4 0.250000 0.750000 0.291856
O O5 0.351778 0.675093 0.339944
O O6 0.350797 0.808710 0.237954
O O7 0.072974 0.239238 0.655868
O O8 0.000000 0.228162 0.750000
O O9 0.961097 0.297363 0.645811
O O10 0.000000 0.000000 0.667775
O O11 0.326452 0.431996 0.000000
O O12 0.208895 0.353614 0.000000
O O13 0.866319 0.512600 0.147318
O O14 0.890695 0.709286 0.057447
#
# Coordination Sequence:
#
# PCOD8277541 Si02
#       7
#     8  16  16   8  16   8  16
#     4  11  24  44  72 106 144 177 238 294 352 415
#     4  12  26  40  66 105 144 180 230 298 359 419
#     4  11  25  46  72 102 141 188 235 289 353 424
#     4  10  24  46  68  98 142 197 231 281 345 424
#     4  12  26  46  70 103 143 185 239 285 353 419
#     4  11  26  44  70 104 141 189 237 279 344 420
#     4  12  24  43  72 108 138 178 231 294 362 416
#
# _framework density 21.151192000000002
#
# number of rings (size 3 to 8) (size 9 to 14) (size 15 to 20)
#    0.000    0.545    4.545    3.273    7.636    0.727 
#    0.000    4.091    0.000    0.000    0.000    0.000 
#    0.000    0.000    0.000    0.000    0.000    0.000 
#
# Total GULP energy -545710.267279 kJ/mol
# GULP energy per Si atom -12402.506075 kJ/mol
# Density = 2.110305 g / cm^3
# Si number density = 21.151192 Si / 1000 Ang^3
#
#
#
# Elastic Constant Matrix: (Units=GPa)
#
#
# Indices 1 2 3 4 5 6 
#
# 1 172.2776 27.1648 53.9805 0.0000 0.0000 0.0000
# 2 27.1648 62.4092 33.5247 0.0000 0.0000 0.0000
# 3 53.9805 33.5247 136.6767 0.0000 0.0000 0.0000
# 4 0.0000 0.0000 0.0000 2.2200 0.0000 0.0000
# 5 0.0000 0.0000 0.0000 0.0000 25.6045 0.0000
# 6 0.0000 0.0000 0.0000 0.0000 0.0000 32.2855
#
#
#
# Elastic Compliance Matrix: (Units=1/GPa)
#
#
# Indices 1 2 3 4 5 6 
#
# 1 0.006785 -0.001744 -0.002252 0.000000 0.000000 0.000000
# 2 -0.001744 0.018903 -0.003948 0.000000 0.000000 0.000000
# 3 -0.002252 -0.003948 0.009174 0.000000 0.000000 0.000000
# 4 0.000000 0.000000 0.000000 0.450444 0.000000 0.000000
# 5 0.000000 0.000000 0.000000 0.000000 0.039056 0.000000
# 6 0.000000 0.000000 0.000000 0.000000 0.000000 0.030974
#
#
# Mechanical properties :
#
#
# Convention : Reuss Voigt Hill
#
# Bulk Modulus (GPa) = 52.70055 66.74485 59.72270
# Shear Modulus (GPa) = 8.65729 29.13491 18.89610
#
# Velocity S-wave (km/s) = 2.02532 3.71544 2.99219
# Velocity P-wave (km/s) = 5.51720 7.07323 6.34311
#
# Compressibility (1/GPa) = 0.01897514
#
# Stress axis : x y z
#
# Youngs Moduli (GPa) = 147.37988 52.90179 108.99897
#
# Poissons Ratio (x) = 0.09224 0.24548
# Poissons Ratio (y) = 0.25697 0.43033
# Poissons Ratio (z) = 0.33192 0.20886
#
# Static dielectric constant tensor:
#      x y z
#    x 3.900880 0.000000 0.000000 
#    y 0.000000 3.872280 0.000000 
#    z 0.000000 0.000000 3.890690 
# 
# 
# High freq. dielectric constant tensor:
#      x y z
#    x 1.837800 0.000000 0.000000 
#    y 0.000000 1.836500 0.000000 
#    z 0.000000 0.000000 1.822290 
# 
# From -- ./inp_files/59411.got.cif
#   From: 2010.03.12/outbox.cif.g09.slc.cpg/sg66_30_cif.got.tgz:59411.got - 2010.04.10 21:57:39.
