data_PCOD8277428
_publ_section_title
;
Structure prediction by ZEFSAII (Michael W. Deem and Ramdas Pophale) SiO2 
 PCOD8277428
Probable space group: C C C M
;
_chemical_formula_sum "Si O2"
_cell_formula_units_Z 64
_cell_length_a 19.034153
_cell_length_b 10.710438
_cell_length_c 15.125224
_cell_angle_alpha 90.000000
_cell_angle_beta 90.000000
_cell_angle_gamma 90.000000
_cell_volume 3083.490414
_symmetry_space_group_name_H-M "C C C M"
_symmetry_group_IT_number 66
_symmetry_cell_setting 'orthorhombic'
loop_
_space_group_symop_operation_xyz
x,y,z
-x,-y,z
x,-y,1/2-z
-x,y,1/2-z
-x,-y,-z
x,y,-z
-x,y,1/2+z
x,-y,1/2+z
1/2+x,1/2+y,z
1/2-x,1/2-y,z
1/2+x,1/2-y,1/2-z
1/2-x,1/2+y,1/2-z
1/2-x,1/2-y,-z
1/2+x,1/2+y,-z
1/2-x,1/2+y,1/2+z
1/2+x,1/2-y,1/2+z
loop_
_atom_site_type_symbol
_atom_site_label
_atom_site_fract_x
_atom_site_fract_y
_atom_site_fract_z
Si Si1 0.524202 0.360575 0.000000
Si Si2 0.809853 0.858203 0.500000
Si Si3 0.485284 0.807555 0.649689
Si Si4 0.108769 0.512924 0.101191
Si Si5 0.748847 0.102532 0.178992
O O1 0.500000 0.500000 0.000000
O O2 0.486432 0.312983 0.911355
O O3 0.607392 0.323345 0.000000
O O4 0.750000 0.750000 0.500000
O O5 0.796247 0.928893 0.407646
O O6 0.500000 0.768947 0.750000
O O7 0.541795 0.899824 0.607932
O O8 0.409959 0.877075 0.642113
O O9 0.168372 0.574935 0.159253
O O10 0.133390 0.499439 0.000000
O O11 0.750000 0.250000 0.208793
O O12 0.776352 0.000000 0.250000
#
# Coordination Sequence:
#
# PCOD8277428 Si02
#       5
#     8   8  16  16  16
#     4  12  26  46  62  98 143 176 220 272 346 420
#     4  10  22  45  73  89 127 188 227 265 338 421
#     4  11  21  38  66  98 127 173 222 279 332 391
#     4  11  19  38  70  97 128 166 224 287 330 383
#     4  11  23  42  67 100 131 175 228 283 334 403
#
# _framework density 20.755699
#
# number of rings (size 3 to 8) (size 9 to 14) (size 15 to 20)
#    0.000    1.000    3.750    6.750    0.000    0.500 
#   13.500    0.625    0.000    0.000    0.000    0.000 
#    0.000    0.000    0.000    0.000    0.000    0.000 
#
# Total GULP energy -396497.068205 kJ/mol
# GULP energy per Si atom -12390.533381 kJ/mol
# Density = 2.070846 g / cm^3
# Si number density = 20.755699 Si / 1000 Ang^3
#
#
#
# Elastic Constant Matrix: (Units=GPa)
#
#
# Indices 1 2 3 4 5 6 
#
# 1 81.6505 43.8237 15.6629 0.0000 0.0000 0.0000
# 2 43.8237 148.7881 81.4827 0.0000 0.0000 0.0000
# 3 15.6629 81.4827 179.2519 0.0000 0.0000 0.0000
# 4 0.0000 0.0000 0.0000 32.2019 0.0000 0.0000
# 5 0.0000 0.0000 0.0000 0.0000 21.2581 0.0000
# 6 0.0000 0.0000 0.0000 0.0000 0.0000 27.4935
#
#
#
# Elastic Compliance Matrix: (Units=1/GPa)
#
#
# Indices 1 2 3 4 5 6 
#
# 1 0.014657 -0.004814 0.000908 0.000000 0.000000 0.000000
# 2 -0.004814 0.010530 -0.004366 0.000000 0.000000 0.000000
# 3 0.000908 -0.004366 0.007484 0.000000 0.000000 0.000000
# 4 0.000000 0.000000 0.000000 0.031054 0.000000 0.000000
# 5 0.000000 0.000000 0.000000 0.000000 0.047041 0.000000
# 6 0.000000 0.000000 0.000000 0.000000 0.000000 0.036372
#
#
# Mechanical properties :
#
#
# Convention : Reuss Voigt Hill
#
# Bulk Modulus (GPa) = 62.01097 76.84770 69.42934
# Shear Modulus (GPa) = 29.57555 34.10542 31.84049
#
# Velocity S-wave (km/s) = 3.77893 4.05802 3.92096
# Velocity P-wave (km/s) = 6.99870 7.68518 7.34996
#
# Compressibility (1/GPa) = 0.01612618
#
# Stress axis : x y z
#
# Youngs Moduli (GPa) = 68.22650 94.96785 133.61736
#
# Poissons Ratio (x) = 0.45719 -0.12128
# Poissons Ratio (y) = 0.32845 0.58336
# Poissons Ratio (z) = -0.06193 0.41462
#
# Static dielectric constant tensor:
#      x y z
#    x 3.884290 0.000000 0.000000 
#    y 0.000000 8.253180 0.000000 
#    z 0.000000 0.000000 4.263420 
# 
# 
# High freq. dielectric constant tensor:
#      x y z
#    x 1.800930 0.000000 0.000000 
#    y 0.000000 1.790710 0.000000 
#    z 0.000000 0.000000 1.830980 
# 
# From -- ./inp_files/25838.got.cif
#   From: 2010.03.12/outbox.cif.g09.slc.cpg/sg66_13_cif.got.tgz:25838.got - 2010.04.10 21:57:39.
