data_PCOD8277439
_publ_section_title
;
Structure prediction by ZEFSAII (Michael W. Deem and Ramdas Pophale) SiO2 
 PCOD8277439
Probable space group: C C C M
;
_chemical_formula_sum "Si O2"
_cell_formula_units_Z 72
_cell_length_a 10.252196
_cell_length_b 25.428374
_cell_length_c 14.171805
_cell_angle_alpha 90.000000
_cell_angle_beta 90.000000
_cell_angle_gamma 90.000000
_cell_volume 3694.542431
_symmetry_space_group_name_H-M "C C C M"
_symmetry_group_IT_number 66
_symmetry_cell_setting 'orthorhombic'
loop_
_space_group_symop_operation_xyz
x,y,z
-x,-y,z
x,-y,1/2-z
-x,y,1/2-z
-x,-y,-z
x,y,-z
-x,y,1/2+z
x,-y,1/2+z
1/2+x,1/2+y,z
1/2-x,1/2-y,z
1/2+x,1/2-y,1/2-z
1/2-x,1/2+y,1/2-z
1/2-x,1/2-y,-z
1/2+x,1/2+y,-z
1/2-x,1/2+y,1/2+z
1/2+x,1/2-y,1/2+z
loop_
_atom_site_type_symbol
_atom_site_label
_atom_site_fract_x
_atom_site_fract_y
_atom_site_fract_z
Si Si1 0.684941 0.552077 0.799137
Si Si2 0.110891 0.608089 0.815980
Si Si3 0.157241 0.010072 0.000000
Si Si4 0.000000 0.144999 0.250000
Si Si5 0.088886 0.449474 0.500000
Si Si6 0.809747 0.806818 0.389638
O O1 0.620059 0.500000 0.750000
O O2 0.820094 0.561962 0.744718
O O3 0.701169 0.542881 0.909687
O O4 0.605512 0.605930 0.793667
O O5 0.205867 0.652855 0.850620
O O6 0.000000 0.633687 0.750000
O O7 0.047137 0.582678 0.908119
O O8 0.251416 0.958460 0.000000
O O9 0.000000 0.000000 0.000000
O O10 0.943012 0.183128 0.168443
O O11 0.000000 0.500000 0.500000
O O12 0.839024 0.815714 0.500000
O O13 0.750000 0.750000 0.369988
#
# Coordination Sequence:
#
# PCOD8277439 Si02
#       6
#    16  16   8   8   8  16
#     4  11  22  37  56  90 126 164 205 249 305 374
#     4  11  24  40  62  89 123 167 213 251 309 378
#     4  12  24  34  60  86 128 169 207 256 306 368
#     4  10  23  38  66  88 124 158 203 258 322 376
#     4  12  24  40  61  88 127 174 206 256 308 380
#     4  10  23  44  68  92 118 158 212 265 321 374
#
# _framework density 19.488205000000001
#
# number of rings (size 3 to 8) (size 9 to 14) (size 15 to 20)
#    0.000    1.111    3.333    3.000    6.222    0.000 
#    0.000    0.000    0.000    0.667    0.000    0.000 
#    0.000    0.000    0.000    0.000    0.000    0.000 
#
# Total GULP energy -446225.469193 kJ/mol
# GULP energy per Si atom -12395.151922 kJ/mol
# Density = 1.944385 g / cm^3
# Si number density = 19.488205 Si / 1000 Ang^3
#
#
#
# Elastic Constant Matrix: (Units=GPa)
#
#
# Indices 1 2 3 4 5 6 
#
# 1 72.1166 33.1898 48.5200 0.0000 0.0000 0.0000
# 2 33.1898 97.1096 67.3924 0.0000 0.0000 0.0000
# 3 48.5200 67.3924 189.9101 0.0000 0.0000 0.0000
# 4 0.0000 0.0000 0.0000 31.5594 0.0000 0.0000
# 5 0.0000 0.0000 0.0000 0.0000 31.1996 0.0000
# 6 0.0000 0.0000 0.0000 0.0000 0.0000 21.6446
#
#
#
# Elastic Compliance Matrix: (Units=1/GPa)
#
#
# Indices 1 2 3 4 5 6 
#
# 1 0.017783 -0.003880 -0.003166 0.000000 0.000000 0.000000
# 2 -0.003880 0.014509 -0.004157 0.000000 0.000000 0.000000
# 3 -0.003166 -0.004157 0.007550 0.000000 0.000000 0.000000
# 4 0.000000 0.000000 0.000000 0.031686 0.000000 0.000000
# 5 0.000000 0.000000 0.000000 0.000000 0.032052 0.000000
# 6 0.000000 0.000000 0.000000 0.000000 0.000000 0.046201
#
#
# Mechanical properties :
#
#
# Convention : Reuss Voigt Hill
#
# Bulk Modulus (GPa) = 57.36075 73.03787 65.19931
# Shear Modulus (GPa) = 28.09000 30.88299 29.48650
#
# Velocity S-wave (km/s) = 3.80068 3.98515 3.89401
# Velocity P-wave (km/s) = 6.98267 7.66385 7.33117
#
# Compressibility (1/GPa) = 0.01743352
#
# Stress axis : x y z
#
# Youngs Moduli (GPa) = 56.23503 68.92293 132.45239
#
# Poissons Ratio (x) = 0.26744 0.41938
# Poissons Ratio (y) = 0.21821 0.55065
# Poissons Ratio (z) = 0.17805 0.28654
#
# Static dielectric constant tensor:
#      x y z
#    x 3.675920 0.000000 0.000000 
#    y 0.000000 3.558940 0.000000 
#    z 0.000000 0.000000 5.364880 
# 
# 
# High freq. dielectric constant tensor:
#      x y z
#    x 1.755640 0.000000 0.000000 
#    y 0.000000 1.745570 0.000000 
#    z 0.000000 0.000000 1.780510 
# 
# From -- ./inp_files/26322.got.cif
#   From: 2010.03.12/outbox.cif.g09.slc.cpg/sg66_14_cif.got.tgz:26322.got - 2010.04.10 21:57:39.
