data_PCOD8277357
_publ_section_title
;
Structure prediction by ZEFSAII (Michael W. Deem and Ramdas Pophale) SiO2 
 PCOD8277357
Probable space group: C C C M
;
_chemical_formula_sum "Si O2"
_cell_formula_units_Z 52
_cell_length_a 14.460128
_cell_length_b 12.263556
_cell_length_c 13.313799
_cell_angle_alpha 90.000000
_cell_angle_beta 90.000000
_cell_angle_gamma 90.000000
_cell_volume 2360.970453
_symmetry_space_group_name_H-M "C C C M"
_symmetry_group_IT_number 66
_symmetry_cell_setting 'orthorhombic'
loop_
_space_group_symop_operation_xyz
x,y,z
-x,-y,z
x,-y,1/2-z
-x,y,1/2-z
-x,-y,-z
x,y,-z
-x,y,1/2+z
x,-y,1/2+z
1/2+x,1/2+y,z
1/2-x,1/2-y,z
1/2+x,1/2-y,1/2-z
1/2-x,1/2+y,1/2-z
1/2-x,1/2-y,-z
1/2+x,1/2+y,-z
1/2-x,1/2+y,1/2+z
1/2+x,1/2-y,1/2+z
loop_
_atom_site_type_symbol
_atom_site_label
_atom_site_fract_x
_atom_site_fract_y
_atom_site_fract_z
Si Si1 0.000000 0.000000 0.750000
Si Si2 0.397281 0.830468 0.721009
Si Si3 0.328655 0.977465 0.114236
Si Si4 0.146317 0.117454 0.882138
O O1 0.941955 0.926962 0.825203
O O2 0.500000 0.790737 0.750000
O O3 0.339489 0.868226 0.819680
O O4 0.337876 0.737360 0.665027
O O5 0.406616 0.933971 0.645354
O O6 0.231092 0.035975 0.137084
O O7 0.339360 0.941337 0.000000
O O8 0.125833 0.130283 0.000000
#
# Coordination Sequence:
#
# PCOD8277357 Si02
#       4
#     4  16  16  16
#     4  12  22  44  68  96 130 168 218 272 324 388
#     4  11  22  40  64  98 131 171 215 269 319 380
#     4  10  22  40  66  95 130 173 218 266 323 385
#     4  11  24  43  67  96 131 173 217 267 327 385
#
# _framework density 22.024840000000001
#
# number of rings (size 3 to 8) (size 9 to 14) (size 15 to 20)
#    0.000    1.231    1.538    6.000    0.000    6.154 
#    0.000    0.000    0.000   20.308    0.000    0.000 
#    0.000    0.000    0.000    0.000    0.000    0.000 
#
# Total GULP energy -322332.344531 kJ/mol
# GULP energy per Si atom -12397.397867 kJ/mol
# Density = 2.197471 g / cm^3
# Si number density = 22.024840 Si / 1000 Ang^3
#
#
#
# Elastic Constant Matrix: (Units=GPa)
#
#
# Indices 1 2 3 4 5 6 
#
# 1 92.9498 34.1699 62.1386 0.0000 0.0000 0.0000
# 2 34.1699 104.5996 83.7531 0.0000 0.0000 0.0000
# 3 62.1386 83.7531 211.5192 0.0000 0.0000 0.0000
# 4 0.0000 0.0000 0.0000 29.3054 0.0000 0.0000
# 5 0.0000 0.0000 0.0000 0.0000 39.2026 0.0000
# 6 0.0000 0.0000 0.0000 0.0000 0.0000 2.8958
#
#
#
# Elastic Compliance Matrix: (Units=1/GPa)
#
#
# Indices 1 2 3 4 5 6 
#
# 1 0.013621 -0.001824 -0.003279 0.000000 0.000000 0.000000
# 2 -0.001824 0.014243 -0.005104 0.000000 0.000000 0.000000
# 3 -0.003279 -0.005104 0.007712 0.000000 0.000000 0.000000
# 4 0.000000 0.000000 0.000000 0.034123 0.000000 0.000000
# 5 0.000000 0.000000 0.000000 0.000000 0.025509 0.000000
# 6 0.000000 0.000000 0.000000 0.000000 0.000000 0.345325
#
#
# Mechanical properties :
#
#
# Convention : Reuss Voigt Hill
#
# Bulk Modulus (GPa) = 65.95468 85.46577 75.71022
# Shear Modulus (GPa) = 10.72960 29.54791 20.13876
#
# Velocity S-wave (km/s) = 2.20956 3.66672 3.02713
# Velocity P-wave (km/s) = 6.04319 7.53757 6.83137
#
# Compressibility (1/GPa) = 0.01516193
#
# Stress axis : x y z
#
# Youngs Moduli (GPa) = 73.41435 70.21183 129.66893
#
# Poissons Ratio (x) = 0.12806 0.42523
# Poissons Ratio (y) = 0.13390 0.66179
# Poissons Ratio (z) = 0.24075 0.35834
#
# Static dielectric constant tensor:
#      x y z
#    x 3.871850 0.000000 0.000000 
#    y 0.000000 4.043450 0.000000 
#    z 0.000000 0.000000 4.127180 
# 
# 
# High freq. dielectric constant tensor:
#      x y z
#    x 1.867410 0.000000 0.000000 
#    y 0.000000 1.863000 0.000000 
#    z 0.000000 0.000000 1.877820 
# 
# From -- ./inp_files/29430.got.cif
#   From: 2010.03.12/outbox.cif.g09.slc.cpg/sg66_15_cif.got.tgz:29430.got - 2010.04.10 21:57:39.
