data_PCOD8277213
_publ_section_title
;
Structure prediction by ZEFSAII (Michael W. Deem and Ramdas Pophale) SiO2 
 PCOD8277213
Probable space group: C C C M
;
_chemical_formula_sum "Si O2"
_cell_formula_units_Z 72
_cell_length_a 14.671758
_cell_length_b 12.717354
_cell_length_c 17.572635
_cell_angle_alpha 90.000000
_cell_angle_beta 90.000000
_cell_angle_gamma 90.000000
_cell_volume 3278.806625
_symmetry_space_group_name_H-M "C C C M"
_symmetry_group_IT_number 66
_symmetry_cell_setting 'orthorhombic'
loop_
_space_group_symop_operation_xyz
x,y,z
-x,-y,z
x,-y,1/2-z
-x,y,1/2-z
-x,-y,-z
x,y,-z
-x,y,1/2+z
x,-y,1/2+z
1/2+x,1/2+y,z
1/2-x,1/2-y,z
1/2+x,1/2-y,1/2-z
1/2-x,1/2+y,1/2-z
1/2-x,1/2-y,-z
1/2+x,1/2+y,-z
1/2-x,1/2+y,1/2+z
1/2+x,1/2-y,1/2+z
loop_
_atom_site_type_symbol
_atom_site_label
_atom_site_fract_x
_atom_site_fract_y
_atom_site_fract_z
Si Si1 0.419233 0.221739 0.302078
Si Si2 0.294962 0.136409 0.414418
Si Si3 0.013986 0.882539 0.585982
Si Si4 0.250000 0.250000 0.798957
Si Si5 0.278415 0.585836 0.584635
O O1 0.500000 0.175213 0.250000
O O2 0.378641 0.127856 0.354690
O O3 0.459915 0.309744 0.356921
O O4 0.338646 0.274006 0.252093
O O5 0.333297 0.129848 0.500000
O O6 0.250000 0.250000 0.399757
O O7 0.225006 0.040071 0.398665
O O8 0.975231 0.866519 0.500000
O O9 0.121634 0.863571 0.587880
O O10 0.000000 0.000000 0.614466
O O11 0.222903 0.350669 0.851320
O O12 0.237329 0.605865 0.500000
#
# Coordination Sequence:
#
# PCOD8277213 Si02
#       5
#    16  16  16   8  16
#     4  12  24  42  63  98 143 181 218 282 347 409
#     4  10  21  42  70 101 136 179 229 283 345 409
#     4  10  21  40  67 100 132 170 228 288 337 402
#     4  12  25  44  63  98 142 182 224 274 347 410
#     4  10  22  43  71  97 132 182 232 281 332 406
#
# _framework density 21.959209000000001
#
# number of rings (size 3 to 8) (size 9 to 14) (size 15 to 20)
#    0.000    1.333    3.333    2.333    0.000    4.889 
#    4.000    2.222    0.000    2.667    0.000    0.000 
#    0.000    0.000    0.000    0.000    0.000    0.000 
#
# Total GULP energy -446230.982427 kJ/mol
# GULP energy per Si atom -12395.305067 kJ/mol
# Density = 2.190923 g / cm^3
# Si number density = 21.959209 Si / 1000 Ang^3
#
#
#
# Elastic Constant Matrix: (Units=GPa)
#
#
# Indices 1 2 3 4 5 6 
#
# 1 102.3555 32.6849 61.8562 0.0000 0.0000 0.0000
# 2 32.6849 107.1926 60.1799 0.0000 0.0000 0.0000
# 3 61.8562 60.1799 145.7537 0.0000 0.0000 0.0000
# 4 0.0000 0.0000 0.0000 4.8569 0.0000 0.0000
# 5 0.0000 0.0000 0.0000 0.0000 42.7955 0.0000
# 6 0.0000 0.0000 0.0000 0.0000 0.0000 34.0818
#
#
#
# Elastic Compliance Matrix: (Units=1/GPa)
#
#
# Indices 1 2 3 4 5 6 
#
# 1 0.013248 -0.001150 -0.005148 0.000000 0.000000 0.000000
# 2 -0.001150 0.012244 -0.004567 0.000000 0.000000 0.000000
# 3 -0.005148 -0.004567 0.010931 0.000000 0.000000 0.000000
# 4 0.000000 0.000000 0.000000 0.205894 0.000000 0.000000
# 5 0.000000 0.000000 0.000000 0.000000 0.023367 0.000000
# 6 0.000000 0.000000 0.000000 0.000000 0.000000 0.029341
#
#
# Mechanical properties :
#
#
# Convention : Reuss Voigt Hill
#
# Bulk Modulus (GPa) = 68.05628 73.86043 70.95835
# Shear Modulus (GPa) = 15.54475 29.71889 22.63182
#
# Velocity S-wave (km/s) = 2.66351 3.68281 3.21383
# Velocity P-wave (km/s) = 6.36541 7.19669 6.79378
#
# Compressibility (1/GPa) = 0.01469372
#
# Stress axis : x y z
#
# Youngs Moduli (GPa) = 75.48441 81.67421 91.48042
#
# Poissons Ratio (x) = 0.09389 0.47090
# Poissons Ratio (y) = 0.08677 0.41783
# Poissons Ratio (z) = 0.38856 0.37304
#
# Static dielectric constant tensor:
#      x y z
#    x 4.017050 0.000000 0.000000 
#    y 0.000000 3.713940 0.000000 
#    z 0.000000 0.000000 4.474900 
# 
# 
# High freq. dielectric constant tensor:
#      x y z
#    x 1.848700 0.000000 0.000000 
#    y 0.000000 1.837930 0.000000 
#    z 0.000000 0.000000 1.890060 
# 
# From -- ./inp_files/41288.got.cif
#   From: 2010.03.12/outbox.cif.g09.slc.cpg/sg66_21_cif.got.tgz:41288.got - 2010.04.10 21:57:39.
