data_PCOD8277763
_publ_section_title
;
Structure prediction by ZEFSAII (Michael W. Deem and Ramdas Pophale) SiO2 
 PCOD8277763
Probable space group: C C C M
;
_chemical_formula_sum "Si O2"
_cell_formula_units_Z 80
_cell_length_a 13.423800
_cell_length_b 11.967296
_cell_length_c 22.476112
_cell_angle_alpha 90.000000
_cell_angle_beta 90.000000
_cell_angle_gamma 90.000000
_cell_volume 3610.710705
_symmetry_space_group_name_H-M "C C C M"
_symmetry_group_IT_number 66
_symmetry_cell_setting 'orthorhombic'
loop_
_space_group_symop_operation_xyz
x,y,z
-x,-y,z
x,-y,1/2-z
-x,y,1/2-z
-x,-y,-z
x,y,-z
-x,y,1/2+z
x,-y,1/2+z
1/2+x,1/2+y,z
1/2-x,1/2-y,z
1/2+x,1/2-y,1/2-z
1/2-x,1/2+y,1/2-z
1/2-x,1/2-y,-z
1/2+x,1/2+y,-z
1/2-x,1/2+y,1/2+z
1/2+x,1/2-y,1/2+z
loop_
_atom_site_type_symbol
_atom_site_label
_atom_site_fract_x
_atom_site_fract_y
_atom_site_fract_z
Si Si1 0.076305 0.397676 0.644716
Si Si2 0.198916 0.930678 0.850717
Si Si3 0.538195 0.693508 0.430580
Si Si4 0.338964 0.320158 0.132145
Si Si5 0.105201 0.780185 0.756892
O O1 0.188576 0.427441 0.625773
O O2 0.039651 0.321145 0.590500
O O3 0.080862 0.332634 0.707123
O O4 0.000000 0.500000 0.650255
O O5 0.122481 0.880774 0.898951
O O6 0.186153 0.858532 0.790048
O O7 0.183365 0.060432 0.838704
O O8 0.556809 0.682323 0.500000
O O9 0.426894 0.654313 0.414247
O O10 0.250000 0.250000 0.099788
O O11 0.362786 0.244190 0.190313
O O12 0.000000 0.847190 0.750000
#
# Coordination Sequence:
#
# PCOD8277763 Si02
#       5
#    16  16  16  16  16
#     4  11  24  46  68 102 135 174 220 277 346 411
#     4  11  24  41  70  96 134 178 224 276 337 410
#     4  11  25  46  68  93 130 176 232 285 341 409
#     4  12  24  42  65 100 137 176 222 280 340 402
#     4  11  22  41  67  99 138 176 218 268 334 413
#
# _framework density 22.156303000000001
#
# number of rings (size 3 to 8) (size 9 to 14) (size 15 to 20)
#    0.000    0.800    4.000    6.000    0.000    5.200 
#    0.000    2.000    0.000    0.000    0.000    0.000 
#    0.000    0.000    0.000    0.000    0.000    0.000 
#
# Total GULP energy -495754.116912 kJ/mol
# GULP energy per Si atom -12393.852923 kJ/mol
# Density = 2.210587 g / cm^3
# Si number density = 22.156303 Si / 1000 Ang^3
#
#
#
# Elastic Constant Matrix: (Units=GPa)
#
#
# Indices 1 2 3 4 5 6 
#
# 1 132.1855 43.9628 4.1116 0.0000 0.0000 0.0000
# 2 43.9628 117.0143 14.1961 0.0000 0.0000 0.0000
# 3 4.1116 14.1961 102.8376 0.0000 0.0000 0.0000
# 4 0.0000 0.0000 0.0000 12.7114 0.0000 0.0000
# 5 0.0000 0.0000 0.0000 0.0000 14.7375 0.0000
# 6 0.0000 0.0000 0.0000 0.0000 0.0000 41.7659
#
#
#
# Elastic Compliance Matrix: (Units=1/GPa)
#
#
# Indices 1 2 3 4 5 6 
#
# 1 0.008647 -0.003261 0.000104 0.000000 0.000000 0.000000
# 2 -0.003261 0.009922 -0.001239 0.000000 0.000000 0.000000
# 3 0.000104 -0.001239 0.009891 0.000000 0.000000 0.000000
# 4 0.000000 0.000000 0.000000 0.078669 0.000000 0.000000
# 5 0.000000 0.000000 0.000000 0.000000 0.067854 0.000000
# 6 0.000000 0.000000 0.000000 0.000000 0.000000 0.023943
#
#
# Mechanical properties :
#
#
# Convention : Reuss Voigt Hill
#
# Bulk Modulus (GPa) = 50.84623 52.95315 51.89969
# Shear Modulus (GPa) = 23.33470 33.16076 28.24773
#
# Velocity S-wave (km/s) = 3.24880 3.87288 3.57449
# Velocity P-wave (km/s) = 6.08865 6.62953 6.36484
#
# Compressibility (1/GPa) = 0.01966714
#
# Stress axis : x y z
#
# Youngs Moduli (GPa) = 115.65370 100.79065 101.10240
#
# Poissons Ratio (x) = 0.32870 -0.01056
# Poissons Ratio (y) = 0.37717 0.12529
# Poissons Ratio (z) = -0.01208 0.12490
#
# Static dielectric constant tensor:
#      x y z
#    x 4.533270 0.000000 0.000000 
#    y 0.000000 3.948720 0.000000 
#    z 0.000000 0.000000 3.687630 
# 
# 
# High freq. dielectric constant tensor:
#      x y z
#    x 1.900550 0.000000 0.000000 
#    y 0.000000 1.869470 0.000000 
#    z 0.000000 0.000000 1.841730 
# 
# From -- ./inp_files/57903.got.cif
#   From: 2010.03.12/outbox.cif.g09.slc.cpg/sg66_29_cif.got.tgz:57903.got - 2010.04.10 21:57:39.
