data_PCOD8277075
_publ_section_title
;
Structure prediction by ZEFSAII (Michael W. Deem and Ramdas Pophale) SiO2 
 PCOD8277075
Probable space group: C C C M
;
_chemical_formula_sum "Si O2"
_cell_formula_units_Z 72
_cell_length_a 16.233824
_cell_length_b 8.404372
_cell_length_c 25.283886
_cell_angle_alpha 90.000000
_cell_angle_beta 90.000000
_cell_angle_gamma 90.000000
_cell_volume 3449.609411
_symmetry_space_group_name_H-M "C C C M"
_symmetry_group_IT_number 66
_symmetry_cell_setting 'orthorhombic'
loop_
_space_group_symop_operation_xyz
x,y,z
-x,-y,z
x,-y,1/2-z
-x,y,1/2-z
-x,-y,-z
x,y,-z
-x,y,1/2+z
x,-y,1/2+z
1/2+x,1/2+y,z
1/2-x,1/2-y,z
1/2+x,1/2-y,1/2-z
1/2-x,1/2+y,1/2-z
1/2-x,1/2-y,-z
1/2+x,1/2+y,-z
1/2-x,1/2+y,1/2+z
1/2+x,1/2-y,1/2+z
loop_
_atom_site_type_symbol
_atom_site_label
_atom_site_fract_x
_atom_site_fract_y
_atom_site_fract_z
Si Si1 0.172432 0.861839 0.557236
Si Si2 0.074503 0.606869 0.608043
Si Si3 0.452904 0.337630 0.200748
Si Si4 0.259003 0.929596 0.138332
Si Si5 0.803822 0.000000 0.250000
O O1 0.160875 0.949566 0.500000
O O2 0.250000 0.750000 0.553831
O O3 0.094524 0.746184 0.566259
O O4 0.184513 0.979666 0.607245
O O5 0.042885 0.697388 0.659399
O O6 0.153351 0.498188 0.620715
O O7 0.000000 0.500000 0.585543
O O8 0.500000 0.500000 0.181894
O O9 0.500000 0.263414 0.250000
O O10 0.359623 0.368663 0.220386
O O11 0.250000 0.750000 0.118781
O O12 0.252015 0.933000 0.202231
#
# Coordination Sequence:
#
# PCOD8277075 Si02
#       5
#    16  16  16  16   8
#     4   9  20  43  66  87 120 161 209 260 312 362
#     4  11  24  38  61  94 125 160 207 250 314 367
#     4   9  21  38  59  87 125 171 194 254 309 362
#     4  11  25  38  63  93 123 165 205 257 299 370
#     4  10  21  38  61  86 128 164 210 242 303 376
#
# _framework density 20.871929000000002
#
# number of rings (size 3 to 8) (size 9 to 14) (size 15 to 20)
#    0.000    2.222    2.222    0.000    9.333    1.333 
#    0.000    0.000    0.000    4.667    0.000    0.000 
#    0.000    0.000    0.000    0.000    0.000    0.000 
#
# Total GULP energy -446049.010251 kJ/mol
# GULP energy per Si atom -12390.250285 kJ/mol
# Density = 2.082442 g / cm^3
# Si number density = 20.871929 Si / 1000 Ang^3
#
#
#
# Elastic Constant Matrix: (Units=GPa)
#
#
# Indices 1 2 3 4 5 6 
#
# 1 88.8293 35.6814 19.2922 0.0000 0.0000 0.0000
# 2 35.6814 106.9722 47.1559 0.0000 0.0000 0.0000
# 3 19.2922 47.1559 115.7915 0.0000 0.0000 0.0000
# 4 0.0000 0.0000 0.0000 15.7839 0.0000 0.0000
# 5 0.0000 0.0000 0.0000 0.0000 -7.3665 0.0000
# 6 0.0000 0.0000 0.0000 0.0000 0.0000 28.1774
#
#
#
# Elastic Compliance Matrix: (Units=1/GPa)
#
#
# Indices 1 2 3 4 5 6 
#
# 1 0.013022 -0.004128 -0.000488 0.000000 0.000000 0.000000
# 2 -0.004128 0.012702 -0.004485 0.000000 0.000000 0.000000
# 3 -0.000488 -0.004485 0.010544 0.000000 0.000000 0.000000
# 4 0.000000 0.000000 0.000000 0.063356 0.000000 0.000000
# 5 0.000000 0.000000 0.000000 0.000000 -0.135750 0.000000
# 6 0.000000 0.000000 0.000000 0.000000 0.000000 0.035489
#
#
# Mechanical properties :
#
#
# Convention : Reuss Voigt Hill
#
# Bulk Modulus (GPa) = 55.35636 57.31690 56.33663
# Shear Modulus (GPa) = 211.95945 21.28318 116.62132
#
# Velocity S-wave (km/s) = 10.08825 3.19674 7.48305
# Velocity P-wave (km/s) = 12.73879 6.41455 10.08521
#
# Compressibility (1/GPa) = 0.01806477
#
# Stress axis : x y z
#
# Youngs Moduli (GPa) = 76.79381 78.72504 94.83901
#
# Poissons Ratio (x) = 0.32500 0.04632
# Poissons Ratio (y) = 0.31703 0.42538
# Poissons Ratio (z) = 0.03750 0.35310
#
# Static dielectric constant tensor:
#      x y z
#    x 3.774540 0.000000 0.000000 
#    y 0.000000 3.702890 0.000000 
#    z 0.000000 0.000000 4.078270 
# 
# 
# High freq. dielectric constant tensor:
#      x y z
#    x 1.810640 0.000000 0.000000 
#    y 0.000000 1.803990 0.000000 
#    z 0.000000 0.000000 1.813310 
# 
# From -- ./inp_files/64314.got.cif
#   From: 2010.03.12/outbox.cif.g09.slc.cpg/sg66_33_cif.got.tgz:64314.got - 2010.04.10 21:57:39.
