data_PCOD8277824
_publ_section_title
;
Structure prediction by ZEFSAII (Michael W. Deem and Ramdas Pophale) SiO2 
 PCOD8277824
Probable space group: C C C M
;
_chemical_formula_sum "Si O2"
_cell_formula_units_Z 88
_cell_length_a 21.921541
_cell_length_b 7.770392
_cell_length_c 23.925151
_cell_angle_alpha 90.000000
_cell_angle_beta 90.000000
_cell_angle_gamma 90.000000
_cell_volume 4075.385502
_symmetry_space_group_name_H-M "C C C M"
_symmetry_group_IT_number 66
_symmetry_cell_setting 'orthorhombic'
loop_
_space_group_symop_operation_xyz
x,y,z
-x,-y,z
x,-y,1/2-z
-x,y,1/2-z
-x,-y,-z
x,y,-z
-x,y,1/2+z
x,-y,1/2+z
1/2+x,1/2+y,z
1/2-x,1/2-y,z
1/2+x,1/2-y,1/2-z
1/2-x,1/2+y,1/2-z
1/2-x,1/2-y,-z
1/2+x,1/2+y,-z
1/2-x,1/2+y,1/2+z
1/2+x,1/2-y,1/2+z
loop_
_atom_site_type_symbol
_atom_site_label
_atom_site_fract_x
_atom_site_fract_y
_atom_site_fract_z
Si Si1 0.202808 0.394180 0.063741
Si Si2 0.571986 0.193592 0.252577
Si Si3 0.622188 0.669710 0.640372
Si Si4 0.520151 0.195293 0.063733
Si Si5 0.598598 0.290381 0.623983
Si Si6 0.250000 0.750000 0.895158
O O1 0.250000 0.250000 0.084319
O O2 0.141004 0.362252 0.099325
O O3 0.234012 0.581778 0.067984
O O4 0.183403 0.363721 0.000000
O O5 0.500000 0.190418 0.250000
O O6 0.595310 0.313463 0.202353
O O7 0.593982 0.271739 0.310070
O O8 0.598150 0.000000 0.250000
O O9 0.583679 0.785596 0.596805
O O10 0.625488 0.479056 0.614897
O O11 0.691941 0.728129 0.644546
O O12 0.467407 0.300796 0.094835
O O13 0.500000 0.000000 0.065925
O O14 0.528420 0.259491 0.000000
#
# Coordination Sequence:
#
# PCOD8277824 Si02
#       6
#    16  16  16  16  16   8
#     4  11  24  45  71 101 140 188 235 285 345 415
#     4  11  23  43  72  99 133 179 227 287 350 417
#     4  12  26  43  68 104 137 186 232 284 349 420
#     4  11  24  42  67  99 136 177 228 291 353 416
#     4  12  24  44  70 102 140 173 235 291 353 412
#     4  12  25  48  70 100 144 190 239 284 342 422
#
# _framework density 21.593048
#
# number of rings (size 3 to 8) (size 9 to 14) (size 15 to 20)
#    0.000    0.545    3.636    5.182    0.000    5.818 
#    1.636    0.000    0.000    0.000    0.000    0.000 
#    0.000    0.000    0.000    0.000    0.000    0.000 
#
# Total GULP energy -545641.439042 kJ/mol
# GULP energy per Si atom -12400.941796 kJ/mol
# Density = 2.154390 g / cm^3
# Si number density = 21.593048 Si / 1000 Ang^3
#
#
#
# Elastic Constant Matrix: (Units=GPa)
#
#
# Indices 1 2 3 4 5 6 
#
# 1 135.9027 36.1285 57.0877 0.0000 0.0000 0.0000
# 2 36.1285 105.5043 20.8490 0.0000 0.0000 0.0000
# 3 57.0877 20.8490 149.5839 0.0000 0.0000 0.0000
# 4 0.0000 0.0000 0.0000 34.1026 0.0000 0.0000
# 5 0.0000 0.0000 0.0000 0.0000 27.8517 0.0000
# 6 0.0000 0.0000 0.0000 0.0000 0.0000 35.0732
#
#
#
# Elastic Compliance Matrix: (Units=1/GPa)
#
#
# Indices 1 2 3 4 5 6 
#
# 1 0.009400 -0.002581 -0.003228 0.000000 0.000000 0.000000
# 2 -0.002581 0.010455 -0.000472 0.000000 0.000000 0.000000
# 3 -0.003228 -0.000472 0.007983 0.000000 0.000000 0.000000
# 4 0.000000 0.000000 0.000000 0.029323 0.000000 0.000000
# 5 0.000000 0.000000 0.000000 0.000000 0.035904 0.000000
# 6 0.000000 0.000000 0.000000 0.000000 0.000000 0.028512
#
#
# Mechanical properties :
#
#
# Convention : Reuss Voigt Hill
#
# Bulk Modulus (GPa) = 65.46062 68.79124 67.12593
# Shear Modulus (GPa) = 35.91114 37.86721 36.88917
#
# Velocity S-wave (km/s) = 4.08252 4.19223 4.13774
# Velocity P-wave (km/s) = 7.25287 7.44045 7.34726
#
# Compressibility (1/GPa) = 0.01527636
#
# Stress axis : x y z
#
# Youngs Moduli (GPa) = 106.38020 95.64363 125.26796
#
# Poissons Ratio (x) = 0.24687 0.40434
# Poissons Ratio (y) = 0.27458 0.05915
# Poissons Ratio (z) = 0.34337 0.04516
#
# Static dielectric constant tensor:
#      x y z
#    x 3.623830 0.000000 0.000000 
#    y 0.000000 4.119010 0.000000 
#    z 0.000000 0.000000 3.766030 
# 
# 
# High freq. dielectric constant tensor:
#      x y z
#    x 1.850660 0.000000 0.000000 
#    y 0.000000 1.864200 0.000000 
#    z 0.000000 0.000000 1.845170 
# 
# From -- ./inp_files/59398.got.cif
#   From: 2010.03.12/outbox.cif.g09.slc.cpg/sg66_30_cif.got.tgz:59398.got - 2010.04.10 21:57:39.
