data_PCOD8277106
_publ_section_title
;
Structure prediction by ZEFSAII (Michael W. Deem and Ramdas Pophale) SiO2 
 PCOD8277106
Probable space group: C C C M
;
_chemical_formula_sum "Si O2"
_cell_formula_units_Z 96
_cell_length_a 19.810786
_cell_length_b 8.979640
_cell_length_c 26.552601
_cell_angle_alpha 90.000000
_cell_angle_beta 90.000000
_cell_angle_gamma 90.000000
_cell_volume 4723.541137
_symmetry_space_group_name_H-M "C C C M"
_symmetry_group_IT_number 66
_symmetry_cell_setting 'orthorhombic'
loop_
_space_group_symop_operation_xyz
x,y,z
-x,-y,z
x,-y,1/2-z
-x,y,1/2-z
-x,-y,-z
x,y,-z
-x,y,1/2+z
x,-y,1/2+z
1/2+x,1/2+y,z
1/2-x,1/2-y,z
1/2+x,1/2-y,1/2-z
1/2-x,1/2+y,1/2-z
1/2-x,1/2-y,-z
1/2+x,1/2+y,-z
1/2-x,1/2+y,1/2+z
1/2+x,1/2-y,1/2+z
loop_
_atom_site_type_symbol
_atom_site_label
_atom_site_fract_x
_atom_site_fract_y
_atom_site_fract_z
Si Si1 0.180223 0.393797 0.442299
Si Si2 0.675678 0.431437 0.094132
Si Si3 0.428212 0.923642 0.604618
Si Si4 0.816552 0.932312 0.801761
Si Si5 0.558324 0.389572 0.556841
Si Si6 0.839799 0.412828 0.299382
O O1 0.194111 0.350741 0.500000
O O2 0.246770 0.471554 0.418914
O O3 0.163227 0.244502 0.411239
O O4 0.117362 0.506174 0.439766
O O5 0.652660 0.483191 0.150051
O O6 0.628930 0.522578 0.055785
O O7 0.437935 0.749413 0.594552
O O8 0.388708 0.961367 0.655791
O O9 0.500000 0.000000 0.606626
O O10 0.841295 0.764438 0.796690
O O11 0.736971 0.960000 0.808822
O O12 0.843574 0.000000 0.750000
O O13 0.500000 0.500000 0.576589
O O14 0.542139 0.335254 0.500000
O O15 0.866634 0.500000 0.250000
#
# Coordination Sequence:
#
# PCOD8277106 Si02
#       6
#    16  16  16  16  16  16
#     4  11  24  39  63  99 132 171 215 265 325 387
#     4  11  21  40  66  95 132 166 210 267 325 386
#     4  12  25  42  64  91 128 173 221 268 323 388
#     4  10  21  38  68  99 122 161 209 261 327 388
#     4  11  24  43  66  92 128 174 218 269 326 389
#     4  10  22  41  64  93 129 161 207 263 327 386
#
# _framework density 20.323734000000002
#
# number of rings (size 3 to 8) (size 9 to 14) (size 15 to 20)
#    0.000    1.167    3.333    3.500    2.333    5.000 
#    0.000    1.667    0.000    0.500    0.000    0.000 
#    0.000    0.000    0.000    0.000    0.000    0.000 
#
# Total GULP energy -595231.065793 kJ/mol
# GULP energy per Si atom -12400.647204 kJ/mol
# Density = 2.027748 g / cm^3
# Si number density = 20.323734 Si / 1000 Ang^3
#
#
#
# Elastic Constant Matrix: (Units=GPa)
#
#
# Indices 1 2 3 4 5 6 
#
# 1 100.1391 48.1695 19.2901 0.0000 0.0000 0.0000
# 2 48.1695 102.1819 41.6076 0.0000 0.0000 0.0000
# 3 19.2901 41.6076 123.8959 0.0000 0.0000 0.0000
# 4 0.0000 0.0000 0.0000 38.7507 0.0000 0.0000
# 5 0.0000 0.0000 0.0000 0.0000 25.0623 0.0000
# 6 0.0000 0.0000 0.0000 0.0000 0.0000 32.6249
#
#
#
# Elastic Compliance Matrix: (Units=1/GPa)
#
#
# Indices 1 2 3 4 5 6 
#
# 1 0.012915 -0.006104 0.000039 0.000000 0.000000 0.000000
# 2 -0.006104 0.014222 -0.003826 0.000000 0.000000 0.000000
# 3 0.000039 -0.003826 0.009350 0.000000 0.000000 0.000000
# 4 0.000000 0.000000 0.000000 0.025806 0.000000 0.000000
# 5 0.000000 0.000000 0.000000 0.000000 0.039901 0.000000
# 6 0.000000 0.000000 0.000000 0.000000 0.000000 0.030651
#
#
# Mechanical properties :
#
#
# Convention : Reuss Voigt Hill
#
# Bulk Modulus (GPa) = 59.86132 60.48348 60.17240
# Shear Modulus (GPa) = 31.60672 33.76422 32.68547
#
# Velocity S-wave (km/s) = 3.94783 4.08035 4.01464
# Velocity P-wave (km/s) = 7.09213 7.21274 7.15269
#
# Compressibility (1/GPa) = 0.01670528
#
# Stress axis : x y z
#
# Youngs Moduli (GPa) = 77.43065 70.31475 106.95226
#
# Poissons Ratio (x) = 0.42921 -0.00419
# Poissons Ratio (y) = 0.47264 0.40916
# Poissons Ratio (z) = -0.00303 0.26900
#
# Static dielectric constant tensor:
#      x y z
#    x 3.603960 0.000000 0.000000 
#    y 0.000000 3.684140 0.000000 
#    z 0.000000 0.000000 3.746580 
# 
# 
# High freq. dielectric constant tensor:
#      x y z
#    x 1.782160 0.000000 0.000000 
#    y 0.000000 1.799240 0.000000 
#    z 0.000000 0.000000 1.798810 
# 
# From -- ./inp_files/65666.got.cif
#   From: 2010.03.12/outbox.cif.g09.slc.cpg/sg66_33_cif.got.tgz:65666.got - 2010.04.10 21:57:39.
