data_PCOD8277397
_publ_section_title
;
Structure prediction by ZEFSAII (Michael W. Deem and Ramdas Pophale) SiO2 
 PCOD8277397
Probable space group: C C C M
;
_chemical_formula_sum "Si O2"
_cell_formula_units_Z 52
_cell_length_a 13.611207
_cell_length_b 5.834979
_cell_length_c 29.648769
_cell_angle_alpha 90.000000
_cell_angle_beta 90.000000
_cell_angle_gamma 90.000000
_cell_volume 2354.738055
_symmetry_space_group_name_H-M "C C C M"
_symmetry_group_IT_number 66
_symmetry_cell_setting 'orthorhombic'
loop_
_space_group_symop_operation_xyz
x,y,z
-x,-y,z
x,-y,1/2-z
-x,y,1/2-z
-x,-y,-z
x,y,-z
-x,y,1/2+z
x,-y,1/2+z
1/2+x,1/2+y,z
1/2-x,1/2-y,z
1/2+x,1/2-y,1/2-z
1/2-x,1/2+y,1/2-z
1/2-x,1/2-y,-z
1/2+x,1/2+y,-z
1/2-x,1/2+y,1/2+z
1/2+x,1/2-y,1/2+z
loop_
_atom_site_type_symbol
_atom_site_label
_atom_site_fract_x
_atom_site_fract_y
_atom_site_fract_z
Si Si1 0.250000 0.250000 0.630914
Si Si2 0.443346 0.248989 0.000000
Si Si3 0.849920 0.628220 0.179054
Si Si4 0.106363 0.894569 0.408338
Si Si5 0.000000 0.500000 0.750000
O O1 0.172799 0.366986 0.665229
O O2 0.305813 0.424282 0.597828
O O3 0.500000 0.500000 0.000000
O O4 0.376434 0.251277 0.954652
O O5 0.500000 0.000000 0.000000
O O6 0.750000 0.750000 0.195261
O O7 0.895560 0.731669 0.134287
O O8 0.929502 0.654119 0.218726
O O9 0.000000 0.000000 0.411507
#
# Coordination Sequence:
#
# PCOD8277397 Si02
#       5
#     8   8  16  16   4
#     4  10  22  43  66  94 138 174 228 293 350 424
#     4  10  24  39  69 105 142 185 245 293 350 442
#     4  10  24  43  64  99 136 174 234 293 347 441
#     4  10  22  42  68  96 135 182 227 292 358 422
#     4  12  24  40  74  92 132 190 224 288 378 416
#
# _framework density 22.083136
#
# number of rings (size 3 to 8) (size 9 to 14) (size 15 to 20)
#    0.000    1.846    0.000    1.846   12.923    0.615 
#    0.000   13.077    0.000    0.000    0.000    0.000 
#    0.000    0.000    0.000    0.000    0.000    0.000 
#
# Total GULP energy -322111.710309 kJ/mol
# GULP energy per Si atom -12388.911935 kJ/mol
# Density = 2.203287 g / cm^3
# Si number density = 22.083136 Si / 1000 Ang^3
#
#
#
# Elastic Constant Matrix: (Units=GPa)
#
#
# Indices 1 2 3 4 5 6 
#
# 1 107.9402 25.4088 89.4614 0.0000 0.0000 0.0000
# 2 25.4088 114.0405 68.6105 0.0000 0.0000 0.0000
# 3 89.4614 68.6105 219.4269 0.0000 0.0000 0.0000
# 4 0.0000 0.0000 0.0000 27.7914 0.0000 0.0000
# 5 0.0000 0.0000 0.0000 0.0000 -23.6727 0.0000
# 6 0.0000 0.0000 0.0000 0.0000 0.0000 25.2608
#
#
#
# Elastic Compliance Matrix: (Units=1/GPa)
#
#
# Indices 1 2 3 4 5 6 
#
# 1 0.014007 0.000388 -0.005832 0.000000 0.000000 0.000000
# 2 0.000388 0.010811 -0.003539 0.000000 0.000000 0.000000
# 3 -0.005832 -0.003539 0.008041 0.000000 0.000000 0.000000
# 4 0.000000 0.000000 0.000000 0.035982 0.000000 0.000000
# 5 0.000000 0.000000 0.000000 0.000000 -0.042243 0.000000
# 6 0.000000 0.000000 0.000000 0.000000 0.000000 0.039587
#
#
# Mechanical properties :
#
#
# Convention : Reuss Voigt Hill
#
# Bulk Modulus (GPa) = 67.14029 89.81877 78.47953
# Shear Modulus (GPa) = 56.10683 23.07105 39.58894
#
# Velocity S-wave (km/s) = 5.04601 3.23574 4.23865
# Velocity P-wave (km/s) = 8.02615 7.39739 7.71818
#
# Compressibility (1/GPa) = 0.01489419
#
# Stress axis : x y z
#
# Youngs Moduli (GPa) = 71.39540 92.49540 124.35584
#
# Poissons Ratio (x) = -0.03588 0.72522
# Poissons Ratio (y) = -0.02769 0.44005
# Poissons Ratio (z) = 0.41636 0.32731
#
# Static dielectric constant tensor:
#      x y z
#    x 4.002670 0.000000 0.000000 
#    y 0.000000 4.193320 0.000000 
#    z 0.000000 0.000000 4.494970 
# 
# 
# High freq. dielectric constant tensor:
#      x y z
#    x 1.867660 0.000000 0.000000 
#    y 0.000000 1.864030 0.000000 
#    z 0.000000 0.000000 1.885130 
# 
# From -- ./inp_files/66823.got.cif
#   From: 2010.03.12/outbox.cif.g09.slc.cpg/sg66_34_cif.got.tgz:66823.got - 2010.04.10 21:57:39.
