data_PCOD8277656
_publ_section_title
;
Structure prediction by ZEFSAII (Michael W. Deem and Ramdas Pophale) SiO2 
 PCOD8277656
Probable space group: C C C M
;
_chemical_formula_sum "Si O2"
_cell_formula_units_Z 96
_cell_length_a 28.861744
_cell_length_b 18.357859
_cell_length_c 8.454895
_cell_angle_alpha 90.000000
_cell_angle_beta 90.000000
_cell_angle_gamma 90.000000
_cell_volume 4479.740103
_symmetry_space_group_name_H-M "C C C M"
_symmetry_group_IT_number 66
_symmetry_cell_setting 'orthorhombic'
loop_
_space_group_symop_operation_xyz
x,y,z
-x,-y,z
x,-y,1/2-z
-x,y,1/2-z
-x,-y,-z
x,y,-z
-x,y,1/2+z
x,-y,1/2+z
1/2+x,1/2+y,z
1/2-x,1/2-y,z
1/2+x,1/2-y,1/2-z
1/2-x,1/2+y,1/2-z
1/2-x,1/2-y,-z
1/2+x,1/2+y,-z
1/2-x,1/2+y,1/2+z
1/2+x,1/2-y,1/2+z
loop_
_atom_site_type_symbol
_atom_site_label
_atom_site_fract_x
_atom_site_fract_y
_atom_site_fract_z
Si Si1 0.949772 0.291322 0.684485
Si Si2 0.306172 0.322799 0.682860
Si Si3 0.545401 0.634308 0.681275
Si Si4 0.273111 0.081068 0.814167
Si Si5 0.129013 0.069211 0.821694
Si Si6 0.350595 0.832068 0.816605
O O1 0.948266 0.308671 0.500000
O O2 0.945086 0.205538 0.714007
O O3 0.904313 0.326892 0.764021
O O4 0.000000 0.319779 0.750000
O O5 0.317301 0.341586 0.500000
O O6 0.255491 0.354037 0.725178
O O7 0.339603 0.360806 0.807770
O O8 0.317343 0.238231 0.713190
O O9 0.500000 0.595577 0.750000
O O10 0.540470 0.658272 0.500000
O O11 0.585446 0.576153 0.705029
O O12 0.326702 0.101545 0.779400
O O13 0.261776 0.000000 0.750000
O O14 0.261912 0.082286 0.000000
O O15 0.156816 0.000000 0.750000
O O16 0.113029 0.057820 0.000000
O O17 0.350982 0.852063 0.000000
#
# Coordination Sequence:
#
# PCOD8277656 Si02
#       6
#    16  16  16  16  16  16
#     4  11  21  36  61  93 128 165 208 257 313 370
#     4  11  23  41  64  91 125 164 209 258 311 368
#     4  11  21  36  55  79 111 152 200 253 311 369
#     4  12  26  44  66  93 129 168 212 260 317 378
#     4  12  24  38  56  80 114 157 206 257 311 371
#     4  11  23  41  67  97 130 166 211 261 314 372
#
# _framework density 21.429814
#
# number of rings (size 3 to 8) (size 9 to 14) (size 15 to 20)
#    0.000    0.667    1.667    9.000    0.000    4.333 
#    0.000    1.667    0.000    0.500    0.000    3.500 
#    0.000    0.000    0.000    0.000    0.000    0.000 
#
# Total GULP energy -594857.572329 kJ/mol
# GULP energy per Si atom -12392.866090 kJ/mol
# Density = 2.138104 g / cm^3
# Si number density = 21.429814 Si / 1000 Ang^3
#
#
#
# Elastic Constant Matrix: (Units=GPa)
#
#
# Indices 1 2 3 4 5 6 
#
# 1 122.8516 39.7693 33.7616 0.0000 0.0000 0.0000
# 2 39.7693 42.9722 17.8979 0.0000 0.0000 0.0000
# 3 33.7616 17.8979 110.4931 0.0000 0.0000 0.0000
# 4 0.0000 0.0000 0.0000 24.4676 0.0000 0.0000
# 5 0.0000 0.0000 0.0000 0.0000 40.4113 0.0000
# 6 0.0000 0.0000 0.0000 0.0000 0.0000 119.4668
#
#
#
# Elastic Compliance Matrix: (Units=1/GPa)
#
#
# Indices 1 2 3 4 5 6 
#
# 1 0.012023 -0.010291 -0.002007 0.000000 0.000000 0.000000
# 2 -0.010291 0.033763 -0.002325 0.000000 0.000000 0.000000
# 3 -0.002007 -0.002325 0.010040 0.000000 0.000000 0.000000
# 4 0.000000 0.000000 0.000000 0.040870 0.000000 0.000000
# 5 0.000000 0.000000 0.000000 0.000000 0.024746 0.000000
# 6 0.000000 0.000000 0.000000 0.000000 0.000000 0.008371
#
#
# Mechanical properties :
#
#
# Convention : Reuss Voigt Hill
#
# Bulk Modulus (GPa) = 37.62024 51.01942 44.31983
# Shear Modulus (GPa) = 29.77669 49.19502 39.48585
#
# Velocity S-wave (km/s) = 3.73164 4.79648 4.29717
# Velocity P-wave (km/s) = 6.01332 7.38473 6.73403
#
# Compressibility (1/GPa) = 0.02658144
#
# Stress axis : x y z
#
# Youngs Moduli (GPa) = 83.17601 29.61836 99.60136
#
# Poissons Ratio (x) = 0.30480 0.19987
# Poissons Ratio (y) = 0.85595 0.23153
# Poissons Ratio (z) = 0.16691 0.06885
#
# Static dielectric constant tensor:
#      x y z
#    x 4.349830 0.000000 0.000000 
#    y 0.000000 3.575280 0.000000 
#    z 0.000000 0.000000 3.763530 
# 
# 
# High freq. dielectric constant tensor:
#      x y z
#    x 1.854620 0.000000 0.000000 
#    y 0.000000 1.808400 0.000000 
#    z 0.000000 0.000000 1.855510 
# 
# From -- ./inp_files/10282.got.cif
#   From: 2010.03.12/outbox.cif.g09.slc.cpg/sg66_6_cif.got.tgz:10282.got - 2010.04.10 21:57:39.
