data_PCOD8277313
_publ_section_title
;
Structure prediction by ZEFSAII (Michael W. Deem and Ramdas Pophale) SiO2 
 PCOD8277313
Probable space group: C C C M
;
_chemical_formula_sum "Si O2"
_cell_formula_units_Z 80
_cell_length_a 11.130643
_cell_length_b 11.130635
_cell_length_c 32.066912
_cell_angle_alpha 90.000000
_cell_angle_beta 90.000000
_cell_angle_gamma 90.000000
_cell_volume 3972.805788
_symmetry_space_group_name_H-M "C C C M"
_symmetry_group_IT_number 66
_symmetry_cell_setting 'orthorhombic'
loop_
_space_group_symop_operation_xyz
x,y,z
-x,-y,z
x,-y,1/2-z
-x,y,1/2-z
-x,-y,-z
x,y,-z
-x,y,1/2+z
x,-y,1/2+z
1/2+x,1/2+y,z
1/2-x,1/2-y,z
1/2+x,1/2-y,1/2-z
1/2-x,1/2+y,1/2-z
1/2-x,1/2-y,-z
1/2+x,1/2+y,-z
1/2-x,1/2+y,1/2+z
1/2+x,1/2-y,1/2+z
loop_
_atom_site_type_symbol
_atom_site_label
_atom_site_fract_x
_atom_site_fract_y
_atom_site_fract_z
Si Si1 0.094535 0.405465 0.597200
Si Si2 0.695125 0.500000 0.750000
Si Si3 0.500000 0.304875 0.250000
Si Si4 0.005980 0.192060 0.954201
Si Si5 0.807940 0.994019 0.045799
Si Si6 0.847332 0.347332 0.811767
O O1 0.049545 0.278518 0.580301
O O2 0.221482 0.450456 0.580301
O O3 0.096357 0.403643 0.647077
O O4 0.000000 0.500000 0.580711
O O5 0.610466 0.610466 0.765768
O O6 0.782344 0.454359 0.786535
O O7 0.545641 0.217656 0.213465
O O8 0.136321 0.136321 0.940678
O O9 0.916706 0.083293 0.958880
O O10 0.017755 0.254983 0.000000
O O11 0.745017 0.982244 0.000000
O O12 0.750000 0.250000 0.825823
#
# Coordination Sequence:
#
# PCOD8277313 Si02
#       6
#    16   8   8  16  16  16
#     4  12  25  35  52  89 124 156 188 236 298 356
#     4   9  20  39  62  86 110 145 192 239 296 360
#     4   9  20  39  62  86 110 145 192 239 296 360
#     4   9  19  38  62  83 110 156 207 249 288 338
#     4   9  19  38  62  83 110 156 207 249 288 338
#     4  10  22  39  61  84 110 149 190 235 288 344
#
# _framework density 20.136903
#
# number of rings (size 3 to 8) (size 9 to 14) (size 15 to 20)
#    0.000    2.200    0.000    3.600    2.800    5.600 
#    0.000    6.000    0.000    0.000    0.000    0.000 
#    0.000    0.000    0.000    0.000    0.000    0.000 
#
# Total GULP energy -495682.897082 kJ/mol
# GULP energy per Si atom -12392.072427 kJ/mol
# Density = 2.009107 g / cm^3
# Si number density = 20.136903 Si / 1000 Ang^3
#
#
#
# Elastic Constant Matrix: (Units=GPa)
#
#
# Indices 1 2 3 4 5 6 
#
# 1 135.7273 7.9254 57.5324 0.0000 0.0000 0.0000
# 2 7.9254 135.7293 57.5332 0.0000 0.0000 0.0000
# 3 57.5324 57.5332 124.7571 0.0000 0.0000 0.0000
# 4 0.0000 0.0000 0.0000 51.7973 0.0000 0.0000
# 5 0.0000 0.0000 0.0000 0.0000 51.7982 0.0000
# 6 0.0000 0.0000 0.0000 0.0000 0.0000 36.0155
#
#
#
# Elastic Compliance Matrix: (Units=1/GPa)
#
#
# Indices 1 2 3 4 5 6 
#
# 1 0.009432 0.001607 -0.005091 0.000000 0.000000 0.000000
# 2 0.001607 0.009432 -0.005091 0.000000 0.000000 0.000000
# 3 -0.005091 -0.005091 0.012711 0.000000 0.000000 0.000000
# 4 0.000000 0.000000 0.000000 0.019306 0.000000 0.000000
# 5 0.000000 0.000000 0.000000 0.000000 0.019306 0.000000
# 6 0.000000 0.000000 0.000000 0.000000 0.000000 0.027766
#
#
# Mechanical properties :
#
#
# Convention : Reuss Voigt Hill
#
# Bulk Modulus (GPa) = 69.32044 71.35510 70.33777
# Shear Modulus (GPa) = 41.69851 46.13704 43.91778
#
# Velocity S-wave (km/s) = 4.55549 4.79181 4.67514
# Velocity P-wave (km/s) = 7.88475 8.13186 8.00926
#
# Compressibility (1/GPa) = 0.01442576
#
# Stress axis : x y z
#
# Youngs Moduli (GPa) = 106.02554 106.02670 78.67369
#
# Poissons Ratio (x) = -0.17039 0.40050
# Poissons Ratio (y) = -0.17039 0.40050
# Poissons Ratio (z) = 0.53973 0.53974
#
# Static dielectric constant tensor:
#      x y z
#    x 3.583130 0.000000 0.000000 
#    y 0.000000 3.583130 0.000000 
#    z 0.000000 0.000000 3.405940 
# 
# 
# High freq. dielectric constant tensor:
#      x y z
#    x 1.792720 0.000000 0.000000 
#    y 0.000000 1.792720 0.000000 
#    z 0.000000 0.000000 1.767470 
# 
# From -- ./inp_files/68792.got.cif
#   From: 2010.03.12/outbox.cif.g09.slc.cpg/sg66_35_cif.got.tgz:68792.got - 2010.04.10 21:57:39.
