data_PCOD8277855
_publ_section_title
;
Structure prediction by ZEFSAII (Michael W. Deem and Ramdas Pophale) SiO2 
 PCOD8277855
Probable space group: C C C M
;
_chemical_formula_sum "Si O2"
_cell_formula_units_Z 36
_cell_length_a 7.935085
_cell_length_b 6.700866
_cell_length_c 30.105411
_cell_angle_alpha 90.000000
_cell_angle_beta 90.000000
_cell_angle_gamma 90.000000
_cell_volume 1600.763146
_symmetry_space_group_name_H-M "C C C M"
_symmetry_group_IT_number 66
_symmetry_cell_setting 'orthorhombic'
loop_
_space_group_symop_operation_xyz
x,y,z
-x,-y,z
x,-y,1/2-z
-x,y,1/2-z
-x,-y,-z
x,y,-z
-x,y,1/2+z
x,-y,1/2+z
1/2+x,1/2+y,z
1/2-x,1/2-y,z
1/2+x,1/2-y,1/2-z
1/2-x,1/2+y,1/2-z
1/2-x,1/2-y,-z
1/2+x,1/2+y,-z
1/2-x,1/2+y,1/2+z
1/2+x,1/2-y,1/2+z
loop_
_atom_site_type_symbol
_atom_site_label
_atom_site_fract_x
_atom_site_fract_y
_atom_site_fract_z
Si Si1 0.807676 0.471476 0.000000
Si Si2 0.500000 0.500000 0.867595
Si Si3 0.250000 0.750000 0.578563
Si Si4 0.750000 0.250000 0.190032
Si Si5 0.500000 0.000000 0.750000
O O1 0.750000 0.250000 0.000000
O O2 0.747860 0.560237 0.953628
O O3 0.000000 0.500000 0.000000
O O4 0.417729 0.307467 0.893238
O O5 0.345265 0.586379 0.839485
O O6 0.614204 0.139972 0.219969
#
# Coordination Sequence:
#
# PCOD8277855 Si02
#       5
#     8   8   8   8   4
#     4  11  24  43  70  95 135 198 236 289 348 411
#     4  12  26  44  70 106 142 180 232 294 352 410
#     4  11  26  43  66 103 142 184 242 291 346 415
#     4  12  26  45  74 104 138 184 226 284 358 413
#     4  12  24  48  72 100 140 178 232 276 342 450
#
# _framework density 22.489274000000002
#
# number of rings (size 3 to 8) (size 9 to 14) (size 15 to 20)
#    0.000    0.444    0.000    8.000    9.333    3.556 
#    0.000    0.000    0.000    0.000    0.000    0.000 
#    0.000    0.000    0.000    0.000    0.000    0.000 
#
# Total GULP energy -223003.519778 kJ/mol
# GULP energy per Si atom -12389.084432 kJ/mol
# Density = 2.243809 g / cm^3
# Si number density = 22.489274 Si / 1000 Ang^3
#
#
#
# Elastic Constant Matrix: (Units=GPa)
#
#
# Indices 1 2 3 4 5 6 
#
# 1 152.6231 68.5140 68.1724 0.0000 0.0000 0.0000
# 2 68.5140 172.1987 68.0437 0.0000 0.0000 0.0000
# 3 68.1724 68.0437 131.9767 0.0000 0.0000 0.0000
# 4 0.0000 0.0000 0.0000 26.0145 0.0000 0.0000
# 5 0.0000 0.0000 0.0000 0.0000 33.3431 0.0000
# 6 0.0000 0.0000 0.0000 0.0000 0.0000 67.9006
#
#
#
# Elastic Compliance Matrix: (Units=1/GPa)
#
#
# Indices 1 2 3 4 5 6 
#
# 1 0.009150 -0.002227 -0.003578 0.000000 0.000000 0.000000
# 2 -0.002227 0.007835 -0.002889 0.000000 0.000000 0.000000
# 3 -0.003578 -0.002889 0.010915 0.000000 0.000000 0.000000
# 4 0.000000 0.000000 0.000000 0.038440 0.000000 0.000000
# 5 0.000000 0.000000 0.000000 0.000000 0.029991 0.000000
# 6 0.000000 0.000000 0.000000 0.000000 0.000000 0.014727
#
#
# Mechanical properties :
#
#
# Convention : Reuss Voigt Hill
#
# Bulk Modulus (GPa) = 95.13509 96.25098 95.69303
# Shear Modulus (GPa) = 37.89277 42.25619 40.07448
#
# Velocity S-wave (km/s) = 4.10924 4.33939 4.22588
# Velocity P-wave (km/s) = 8.05659 8.24612 8.15191
#
# Compressibility (1/GPa) = 0.01051137
#
# Stress axis : x y z
#
# Youngs Moduli (GPa) = 109.28937 127.63492 91.61535
#
# Poissons Ratio (x) = 0.28419 0.32784
# Poissons Ratio (y) = 0.24334 0.26471
# Poissons Ratio (z) = 0.39109 0.36878
#
# Static dielectric constant tensor:
#      x y z
#    x 4.293810 0.000000 0.000000 
#    y 0.000000 4.133890 0.000000 
#    z 0.000000 0.000000 4.464980 
# 
# 
# High freq. dielectric constant tensor:
#      x y z
#    x 1.905220 0.000000 0.000000 
#    y 0.000000 1.897190 0.000000 
#    z 0.000000 0.000000 1.910340 
# 
# From -- ./inp_files/67650.got.cif
#   From: 2010.03.12/outbox.cif.g09.slc.cpg/sg66_34_cif.got.tgz:67650.got - 2010.04.10 21:57:39.
