data_PCOD8277085
_publ_section_title
;
Structure prediction by ZEFSAII (Michael W. Deem and Ramdas Pophale) SiO2 
 PCOD8277085
Probable space group: C C C M
;
_chemical_formula_sum "Si O2"
_cell_formula_units_Z 56
_cell_length_a 11.824261
_cell_length_b 15.013168
_cell_length_c 13.471253
_cell_angle_alpha 90.000000
_cell_angle_beta 90.000000
_cell_angle_gamma 90.000000
_cell_volume 2391.411671
_symmetry_space_group_name_H-M "C C C M"
_symmetry_group_IT_number 66
_symmetry_cell_setting 'orthorhombic'
loop_
_space_group_symop_operation_xyz
x,y,z
-x,-y,z
x,-y,1/2-z
-x,y,1/2-z
-x,-y,-z
x,y,-z
-x,y,1/2+z
x,-y,1/2+z
1/2+x,1/2+y,z
1/2-x,1/2-y,z
1/2+x,1/2-y,1/2-z
1/2-x,1/2+y,1/2-z
1/2-x,1/2-y,-z
1/2+x,1/2+y,-z
1/2-x,1/2+y,1/2+z
1/2+x,1/2-y,1/2+z
loop_
_atom_site_type_symbol
_atom_site_label
_atom_site_fract_x
_atom_site_fract_y
_atom_site_fract_z
Si Si1 0.875179 0.739327 0.386213
Si Si2 0.552722 0.095338 0.389765
Si Si3 0.403927 0.435713 0.386493
Si Si4 0.214224 0.500000 0.750000
O O1 0.853210 0.712901 0.500000
O O2 0.750000 0.750000 0.335511
O O3 0.942080 0.833081 0.375313
O O4 0.958626 0.662991 0.343908
O O5 0.596854 0.128171 0.500000
O O6 0.647538 0.080084 0.305724
O O7 0.500000 0.000000 0.405881
O O8 0.500000 0.500000 0.340828
O O9 0.381529 0.462015 0.500000
O O10 0.286243 0.448508 0.331507
#
# Coordination Sequence:
#
# PCOD8277085 Si02
#       4
#    16  16  16   8
#     4   9  18  37  65  90 116 159 210 258 315 383
#     4  10  21  38  61  91 126 163 207 260 316 375
#     4  10  22  42  65  89 125 172 216 261 321 391
#     4  12  22  38  62  94 130 164 210 272 328 372
#
# _framework density 23.41713
#
# number of rings (size 3 to 8) (size 9 to 14) (size 15 to 20)
#    0.000    2.000    0.000    3.429    0.000    4.571 
#    0.000   15.714    0.000    6.857    0.000    4.000 
#    0.000    4.571    0.000    0.000    0.000    0.000 
#
# Total GULP energy -346933.258998 kJ/mol
# GULP energy per Si atom -12390.473536 kJ/mol
# Density = 2.336383 g / cm^3
# Si number density = 23.417130 Si / 1000 Ang^3
#
#
#
# Elastic Constant Matrix: (Units=GPa)
#
#
# Indices 1 2 3 4 5 6 
#
# 1 157.5124 80.2490 65.7002 0.0000 0.0000 0.0000
# 2 80.2490 154.1367 31.7028 0.0000 0.0000 0.0000
# 3 65.7002 31.7028 98.5012 0.0000 0.0000 0.0000
# 4 0.0000 0.0000 0.0000 -172.5057 0.0000 0.0000
# 5 0.0000 0.0000 0.0000 0.0000 44.0264 0.0000
# 6 0.0000 0.0000 0.0000 0.0000 0.0000 49.9171
#
#
#
# Elastic Compliance Matrix: (Units=1/GPa)
#
#
# Indices 1 2 3 4 5 6 
#
# 1 0.011183 -0.004592 -0.005981 0.000000 0.000000 0.000000
# 2 -0.004592 0.008833 0.000220 0.000000 0.000000 0.000000
# 3 -0.005981 0.000220 0.014071 0.000000 0.000000 0.000000
# 4 0.000000 0.000000 0.000000 -0.005797 0.000000 0.000000
# 5 0.000000 0.000000 0.000000 0.000000 0.022714 0.000000
# 6 0.000000 0.000000 0.000000 0.000000 0.000000 0.020033
#
#
# Mechanical properties :
#
#
# Convention : Reuss Voigt Hill
#
# Bulk Modulus (GPa) = 74.73538 85.05049 79.89294
# Shear Modulus (GPa) = 51.97294 -0.21253 25.88020
#
# Velocity S-wave (km/s) = 4.71621 -0.30159 3.32804
# Velocity P-wave (km/s) = 7.85117 6.02307 6.99708
#
# Compressibility (1/GPa) = 0.01338054
#
# Stress axis : x y z
#
# Youngs Moduli (GPa) = 89.42091 113.20761 71.06929
#
# Poissons Ratio (x) = 0.51986 0.42507
# Poissons Ratio (y) = 0.41063 -0.01563
# Poissons Ratio (z) = 0.53484 -0.02489
#
# Static dielectric constant tensor:
#      x y z
#    x 4.154030 0.000000 0.000000 
#    y 0.000000 4.179270 0.000000 
#    z 0.000000 0.000000 4.708950 
# 
# 
# High freq. dielectric constant tensor:
#      x y z
#    x 1.905730 0.000000 0.000000 
#    y 0.000000 1.925700 0.000000 
#    z 0.000000 0.000000 1.931490 
# 
# From -- ./inp_files/25402.got.cif
#   From: 2010.03.12/outbox.cif.g09.slc.cpg/sg66_13_cif.got.tgz:25402.got - 2010.04.10 21:57:39.
