data_PCOD8277620
_publ_section_title
;
Structure prediction by ZEFSAII (Michael W. Deem and Ramdas Pophale) SiO2 
 PCOD8277620
Probable space group: C C C M
;
_chemical_formula_sum "Si O2"
_cell_formula_units_Z 64
_cell_length_a 10.207087
_cell_length_b 20.239334
_cell_length_c 15.032280
_cell_angle_alpha 90.000000
_cell_angle_beta 90.000000
_cell_angle_gamma 90.000000
_cell_volume 3105.438197
_symmetry_space_group_name_H-M "C C C M"
_symmetry_group_IT_number 66
_symmetry_cell_setting 'orthorhombic'
loop_
_space_group_symop_operation_xyz
x,y,z
-x,-y,z
x,-y,1/2-z
-x,y,1/2-z
-x,-y,-z
x,y,-z
-x,y,1/2+z
x,-y,1/2+z
1/2+x,1/2+y,z
1/2-x,1/2-y,z
1/2+x,1/2-y,1/2-z
1/2-x,1/2+y,1/2-z
1/2-x,1/2-y,-z
1/2+x,1/2+y,-z
1/2-x,1/2+y,1/2+z
1/2+x,1/2-y,1/2+z
loop_
_atom_site_type_symbol
_atom_site_label
_atom_site_fract_x
_atom_site_fract_y
_atom_site_fract_z
Si Si1 0.043417 0.275346 0.599719
Si Si2 0.216279 0.673496 0.655692
Si Si3 0.640194 0.559226 0.500000
Si Si4 0.332663 0.585504 0.500000
Si Si5 0.301981 0.342723 0.648341
O O1 0.989933 0.263950 0.500000
O O2 0.184294 0.308171 0.596690
O O3 0.065611 0.202932 0.644823
O O4 0.942312 0.323969 0.650894
O O5 0.250000 0.750000 0.639244
O O6 0.284104 0.625840 0.585147
O O7 0.263286 0.645203 0.749788
O O8 0.484600 0.566880 0.500000
O O9 0.719453 0.489710 0.500000
O O10 0.680464 0.590375 0.594412
#
# Coordination Sequence:
#
# PCOD8277620 Si02
#       5
#    16  16   8   8  16
#     4  11  20  39  64  96 129 164 209 269 325 377
#     4  12  24  39  64  99 133 161 214 271 328 380
#     4  11  24  46  65  87 130 172 224 257 321 400
#     4  11  27  43  63  92 126 180 214 265 318 391
#     4  11  22  39  66  99 128 166 210 268 330 381
#
# _framework density 20.609007999999999
#
# number of rings (size 3 to 8) (size 9 to 14) (size 15 to 20)
#    0.000    0.750    6.250    3.375    0.000    4.000 
#    0.000    5.000    0.000    3.000    0.000    0.000 
#    0.000    0.000    0.000    0.000    0.000    0.000 
#
# Total GULP energy -396418.115712 kJ/mol
# GULP energy per Si atom -12388.066116 kJ/mol
# Density = 2.056210 g / cm^3
# Si number density = 20.609008 Si / 1000 Ang^3
#
#
#
# Elastic Constant Matrix: (Units=GPa)
#
#
# Indices 1 2 3 4 5 6 
#
# 1 72.2725 35.7575 46.8153 0.0000 0.0000 0.0000
# 2 35.7575 136.5549 73.4537 0.0000 0.0000 0.0000
# 3 46.8153 73.4537 195.1530 0.0000 0.0000 0.0000
# 4 0.0000 0.0000 0.0000 63.7530 0.0000 0.0000
# 5 0.0000 0.0000 0.0000 0.0000 36.4285 0.0000
# 6 0.0000 0.0000 0.0000 0.0000 0.0000 25.9885
#
#
#
# Elastic Compliance Matrix: (Units=1/GPa)
#
#
# Indices 1 2 3 4 5 6 
#
# 1 0.017235 -0.002870 -0.003054 0.000000 0.000000 0.000000
# 2 -0.002870 0.009660 -0.002947 0.000000 0.000000 0.000000
# 3 -0.003054 -0.002947 0.006966 0.000000 0.000000 0.000000
# 4 0.000000 0.000000 0.000000 0.015686 0.000000 0.000000
# 5 0.000000 0.000000 0.000000 0.000000 0.027451 0.000000
# 6 0.000000 0.000000 0.000000 0.000000 0.000000 0.038479
#
#
# Mechanical properties :
#
#
# Convention : Reuss Voigt Hill
#
# Bulk Modulus (GPa) = 62.04372 79.55926 70.80149
# Shear Modulus (GPa) = 36.07698 41.76426 38.92062
#
# Velocity S-wave (km/s) = 4.18849 4.50656 4.35043
# Velocity P-wave (km/s) = 7.31859 8.10966 7.72426
#
# Compressibility (1/GPa) = 0.01611767
#
# Stress axis : x y z
#
# Youngs Moduli (GPa) = 58.02160 103.51887 143.54958
#
# Poissons Ratio (x) = 0.29712 0.43843
# Poissons Ratio (y) = 0.16653 0.42310
# Poissons Ratio (z) = 0.17721 0.30511
#
# Static dielectric constant tensor:
#      x y z
#    x 4.124240 0.000000 0.000000 
#    y 0.000000 3.997390 0.000000 
#    z 0.000000 0.000000 3.713580 
# 
# 
# High freq. dielectric constant tensor:
#      x y z
#    x 1.816820 0.000000 0.000000 
#    y 0.000000 1.774960 0.000000 
#    z 0.000000 0.000000 1.821240 
# 
# From -- ./inp_files/25860.got.cif
#   From: 2010.03.12/outbox.cif.g09.slc.cpg/sg66_13_cif.got.tgz:25860.got - 2010.04.10 21:57:39.
