data_PCOD8277758
_publ_section_title
;
Structure prediction by ZEFSAII (Michael W. Deem and Ramdas Pophale) SiO2 
 PCOD8277758
Probable space group: C C C M
;
_chemical_formula_sum "Si O2"
_cell_formula_units_Z 96
_cell_length_a 20.918605
_cell_length_b 22.219239
_cell_length_c 9.374519
_cell_angle_alpha 90.000000
_cell_angle_beta 90.000000
_cell_angle_gamma 90.000000
_cell_volume 4357.234096
_symmetry_space_group_name_H-M "C C C M"
_symmetry_group_IT_number 66
_symmetry_cell_setting 'orthorhombic'
loop_
_space_group_symop_operation_xyz
x,y,z
-x,-y,z
x,-y,1/2-z
-x,y,1/2-z
-x,-y,-z
x,y,-z
-x,y,1/2+z
x,-y,1/2+z
1/2+x,1/2+y,z
1/2-x,1/2-y,z
1/2+x,1/2-y,1/2-z
1/2-x,1/2+y,1/2-z
1/2-x,1/2-y,-z
1/2+x,1/2+y,-z
1/2-x,1/2+y,1/2+z
1/2+x,1/2-y,1/2+z
loop_
_atom_site_type_symbol
_atom_site_label
_atom_site_fract_x
_atom_site_fract_y
_atom_site_fract_z
Si Si1 0.936093 0.818866 0.172484
Si Si2 0.832516 0.483779 0.500000
Si Si3 0.097067 0.393829 0.500000
Si Si4 0.740870 0.500000 0.250000
Si Si5 0.404575 0.181727 0.221921
Si Si6 0.673315 0.614541 0.337061
Si Si7 0.235292 0.682366 0.345421
Si Si8 0.043009 0.600418 0.500000
O O1 0.923343 0.751627 0.229220
O O2 0.881508 0.864179 0.227944
O O3 0.000000 0.842042 0.250000
O O4 0.941000 0.821386 0.000000
O O5 0.848530 0.554951 0.500000
O O6 0.788655 0.467726 0.363417
O O7 0.899381 0.447707 0.500000
O O8 0.105911 0.347415 0.373523
O O9 0.028058 0.428691 0.500000
O O10 0.690795 0.544462 0.326082
O O11 0.339744 0.173738 0.134194
O O12 0.457546 0.143691 0.137567
O O13 0.655413 0.631142 0.500000
O O14 0.738803 0.645373 0.287782
O O15 0.266645 0.665368 0.500000
O O16 0.250000 0.750000 0.304776
#
# Coordination Sequence:
#
# PCOD8277758 Si02
#       8
#    16   8   8   8  16  16  16   8
#     4  12  26  47  74 108 147 189 231 284 353 428
#     4  12  25  48  72  98 135 192 242 304 356 408
#     4  12  27  42  64 103 141 190 248 300 342 417
#     4  12  28  48  72 102 138 176 238 298 362 428
#     4  12  25  41  66 102 147 189 238 291 357 415
#     4  12  27  46  72 107 139 182 235 291 361 423
#     4  11  22  40  65 100 138 182 233 287 349 417
#     4  12  23  44  68  97 139 194 244 294 344 421
#
# _framework density 22.032326000000001
#
# number of rings (size 3 to 8) (size 9 to 14) (size 15 to 20)
#    0.000    0.167    4.167    5.750    5.833    0.333 
#    0.000    2.917    0.000    2.000    0.000    0.000 
#    0.000    0.000    0.000    0.000    0.000    0.000 
#
# Total GULP energy -595054.915546 kJ/mol
# GULP energy per Si atom -12396.977407 kJ/mol
# Density = 2.198218 g / cm^3
# Si number density = 22.032326 Si / 1000 Ang^3
#
#
#
# Elastic Constant Matrix: (Units=GPa)
#
#
# Indices 1 2 3 4 5 6 
#
# 1 94.3439 23.5495 17.4041 0.0000 0.0000 0.0000
# 2 23.5495 73.0055 35.2170 0.0000 0.0000 0.0000
# 3 17.4041 35.2170 136.6275 0.0000 0.0000 0.0000
# 4 0.0000 0.0000 0.0000 34.0519 0.0000 0.0000
# 5 0.0000 0.0000 0.0000 0.0000 34.2731 0.0000
# 6 0.0000 0.0000 0.0000 0.0000 0.0000 27.5432
#
#
#
# Elastic Compliance Matrix: (Units=1/GPa)
#
#
# Indices 1 2 3 4 5 6 
#
# 1 0.011568 -0.003450 -0.000584 0.000000 0.000000 0.000000
# 2 -0.003450 0.016671 -0.003858 0.000000 0.000000 0.000000
# 3 -0.000584 -0.003858 0.008388 0.000000 0.000000 0.000000
# 4 0.000000 0.000000 0.000000 0.029367 0.000000 0.000000
# 5 0.000000 0.000000 0.000000 0.000000 0.029177 0.000000
# 6 0.000000 0.000000 0.000000 0.000000 0.000000 0.036307
#
#
# Mechanical properties :
#
#
# Convention : Reuss Voigt Hill
#
# Bulk Modulus (GPa) = 47.97563 50.70203 49.33883
# Shear Modulus (GPa) = 32.42322 34.36072 33.39197
#
# Velocity S-wave (km/s) = 3.84033 3.95341 3.89728
# Velocity P-wave (km/s) = 6.44101 6.62584 6.53408
#
# Compressibility (1/GPa) = 0.02084392
#
# Stress axis : x y z
#
# Youngs Moduli (GPa) = 86.44209 59.98328 119.21810
#
# Poissons Ratio (x) = 0.20693 0.06967
# Poissons Ratio (y) = 0.29820 0.45991
# Poissons Ratio (z) = 0.05052 0.23140
#
# Static dielectric constant tensor:
#      x y z
#    x 4.095490 0.000000 0.000000 
#    y 0.000000 3.839110 0.000000 
#    z 0.000000 0.000000 4.170000 
# 
# 
# High freq. dielectric constant tensor:
#      x y z
#    x 1.871750 0.000000 0.000000 
#    y 0.000000 1.857550 0.000000 
#    z 0.000000 0.000000 1.882660 
# 
# From -- ./inp_files/9204.got.cif
#   From: 2010.03.12/outbox.cif.g09.slc.cpg/sg66_5_cif.got.tgz:9204.got - 2010.04.10 21:57:39.
