data_PCOD8277448
_publ_section_title
;
Structure prediction by ZEFSAII (Michael W. Deem and Ramdas Pophale) SiO2 
 PCOD8277448
Probable space group: C C C M
;
_chemical_formula_sum "Si O2"
_cell_formula_units_Z 48
_cell_length_a 5.242981
_cell_length_b 13.953043
_cell_length_c 31.509974
_cell_angle_alpha 90.000000
_cell_angle_beta 90.000000
_cell_angle_gamma 90.000000
_cell_volume 2305.129143
_symmetry_space_group_name_H-M "C C C M"
_symmetry_group_IT_number 66
_symmetry_cell_setting 'orthorhombic'
loop_
_space_group_symop_operation_xyz
x,y,z
-x,-y,z
x,-y,1/2-z
-x,y,1/2-z
-x,-y,-z
x,y,-z
-x,y,1/2+z
x,-y,1/2+z
1/2+x,1/2+y,z
1/2-x,1/2-y,z
1/2+x,1/2-y,1/2-z
1/2-x,1/2+y,1/2-z
1/2-x,1/2-y,-z
1/2+x,1/2+y,-z
1/2-x,1/2+y,1/2+z
1/2+x,1/2-y,1/2+z
loop_
_atom_site_type_symbol
_atom_site_label
_atom_site_fract_x
_atom_site_fract_y
_atom_site_fract_z
Si Si1 0.750000 0.750000 0.721480
Si Si2 0.000000 0.000000 0.102250
Si Si3 0.751857 0.953073 0.683800
Si Si4 0.995196 0.190405 0.950963
O O1 0.500000 0.751368 0.750000
O O2 0.751845 0.839874 0.690177
O O3 0.240500 0.978518 0.133413
O O4 0.957543 0.908034 0.073375
O O5 0.500000 0.000000 0.704239
O O6 0.000000 0.000000 0.706758
O O7 0.750000 0.250000 0.933911
O O8 0.250000 0.250000 0.943752
O O9 0.950422 0.164658 0.000000
#
# Coordination Sequence:
#
# PCOD8277448 Si02
#       4
#     8   8  16  16
#     4  12  26  44  68  90 123 164 201 254 314 380
#     4  10  25  38  69  90 130 162 208 258 305 366
#     4  10  25  42  63  95 122 159 204 256 307 366
#     4  10  23  40  62  92 128 169 209 252 303 361
#
# _framework density 20.823126999999999
#
# number of rings (size 3 to 8) (size 9 to 14) (size 15 to 20)
#    1.000    0.667    0.000    2.500    7.000    4.000 
#    0.000    5.000    0.000    0.000    0.000    0.000 
#    0.000    0.000    0.000    0.000    0.000    0.000 
#
# Total GULP energy -297475.727156 kJ/mol
# GULP energy per Si atom -12394.821965 kJ/mol
# Density = 2.077573 g / cm^3
# Si number density = 20.823127 Si / 1000 Ang^3
#
#
#
# Elastic Constant Matrix: (Units=GPa)
#
#
# Indices 1 2 3 4 5 6 
#
# 1 173.9765 68.7559 38.4715 0.0000 0.0000 0.0000
# 2 68.7559 206.4032 73.7904 0.0000 0.0000 0.0000
# 3 38.4715 73.7904 81.0440 0.0000 0.0000 0.0000
# 4 0.0000 0.0000 0.0000 0.3340 0.0000 0.0000
# 5 0.0000 0.0000 0.0000 0.0000 -18.8934 0.0000
# 6 0.0000 0.0000 0.0000 0.0000 0.0000 27.8441
#
#
#
# Elastic Compliance Matrix: (Units=1/GPa)
#
#
# Indices 1 2 3 4 5 6 
#
# 1 0.006778 -0.001642 -0.001722 0.000000 0.000000 0.000000
# 2 -0.001642 0.007581 -0.006123 0.000000 0.000000 0.000000
# 3 -0.001722 -0.006123 0.018731 0.000000 0.000000 0.000000
# 4 0.000000 0.000000 0.000000 2.994264 0.000000 0.000000
# 5 0.000000 0.000000 0.000000 0.000000 -0.052929 0.000000
# 6 0.000000 0.000000 0.000000 0.000000 0.000000 0.035914
#
#
# Mechanical properties :
#
#
# Convention : Reuss Voigt Hill
#
# Bulk Modulus (GPa) = 70.84389 91.49547 81.16968
# Shear Modulus (GPa) = 1.64798 20.55068 11.09933
#
# Velocity S-wave (km/s) = 0.89058 3.14493 2.31125
# Velocity P-wave (km/s) = 5.92901 7.56454 6.79615
#
# Compressibility (1/GPa) = 0.01411554
#
# Stress axis : x y z
#
# Youngs Moduli (GPa) = 147.54301 131.91186 53.38631
#
# Poissons Ratio (x) = 0.21660 0.09195
# Poissons Ratio (y) = 0.24227 0.32688
# Poissons Ratio (z) = 0.25412 0.80768
#
# Static dielectric constant tensor:
#      x y z
#    x 3.954850 0.000000 0.000000 
#    y 0.000000 3.760100 0.000000 
#    z 0.000000 0.000000 3.607500 
# 
# 
# High freq. dielectric constant tensor:
#      x y z
#    x 1.824400 0.000000 0.000000 
#    y 0.000000 1.826370 0.000000 
#    z 0.000000 0.000000 1.809370 
# 
# From -- ./inp_files/66723.got.cif
#   From: 2010.03.12/outbox.cif.g09.slc.cpg/sg66_34_cif.got.tgz:66723.got - 2010.04.10 21:57:39.
