data_PCOD8277419
_publ_section_title
;
Structure prediction by ZEFSAII (Michael W. Deem and Ramdas Pophale) SiO2 
 PCOD8277419
Probable space group: C C C M
;
_chemical_formula_sum "Si O2"
_cell_formula_units_Z 88
_cell_length_a 24.579910
_cell_length_b 11.017974
_cell_length_c 14.474051
_cell_angle_alpha 90.000000
_cell_angle_beta 90.000000
_cell_angle_gamma 90.000000
_cell_volume 3919.874206
_symmetry_space_group_name_H-M "C C C M"
_symmetry_group_IT_number 66
_symmetry_cell_setting 'orthorhombic'
loop_
_space_group_symop_operation_xyz
x,y,z
-x,-y,z
x,-y,1/2-z
-x,y,1/2-z
-x,-y,-z
x,y,-z
-x,y,1/2+z
x,-y,1/2+z
1/2+x,1/2+y,z
1/2-x,1/2-y,z
1/2+x,1/2-y,1/2-z
1/2-x,1/2+y,1/2-z
1/2-x,1/2-y,-z
1/2+x,1/2+y,-z
1/2-x,1/2+y,1/2+z
1/2+x,1/2-y,1/2+z
loop_
_atom_site_type_symbol
_atom_site_label
_atom_site_fract_x
_atom_site_fract_y
_atom_site_fract_z
Si Si1 0.401219 0.120016 0.691862
Si Si2 0.843060 0.002265 0.348606
Si Si3 0.052592 0.837949 0.310160
Si Si4 0.439185 0.037443 0.500000
Si Si5 0.811127 0.741387 0.395213
Si Si6 0.423781 0.767772 0.500000
Si Si7 0.803004 0.834902 0.000000
O O1 0.421675 0.234567 0.747708
O O2 0.429052 0.116180 0.591533
O O3 0.337495 0.140764 0.671854
O O4 0.412464 0.000000 0.750000
O O5 0.904955 0.052934 0.333050
O O6 0.802186 0.082439 0.409229
O O7 0.813568 0.000000 0.250000
O O8 0.845162 0.867146 0.390346
O O9 0.041035 0.776885 0.410787
O O10 0.000000 0.884065 0.250000
O O11 0.500000 0.000000 0.500000
O O12 0.408234 0.909675 0.500000
O O13 0.812677 0.692755 0.500000
O O14 0.750000 0.750000 0.359411
O O15 0.362127 0.723641 0.500000
O O16 0.750000 0.750000 0.000000
#
# Coordination Sequence:
#
# PCOD8277419 Si02
#       7
#    16  16  16   8  16   8   8
#     4  12  25  43  68 105 141 185 243 293 350 437
#     4  11  23  45  70 103 142 181 239 301 346 440
#     4  11  24  44  72 103 144 190 238 297 365 426
#     4  12  24  39  68  97 141 188 230 294 353 414
#     4  11  25  48  72 100 140 187 236 301 368 423
#     4  10  22  44  63 102 146 182 242 301 351 433
#     4  10  24  43  73 103 143 191 232 298 368 429
#
# _framework density 22.4497
#
# number of rings (size 3 to 8) (size 9 to 14) (size 15 to 20)
#    0.000    0.909    5.455    1.091    0.000    3.273 
#    0.000    0.909    0.000    4.364    0.000    0.000 
#    0.000    0.000    0.000    0.000    0.000    0.000 
#
# Total GULP energy -545112.943225 kJ/mol
# GULP energy per Si atom -12388.930528 kJ/mol
# Density = 2.239860 g / cm^3
# Si number density = 22.449700 Si / 1000 Ang^3
#
#
#
# Elastic Constant Matrix: (Units=GPa)
#
#
# Indices 1 2 3 4 5 6 
#
# 1 124.2095 37.3935 53.5403 0.0000 0.0000 0.0000
# 2 37.3935 49.9200 6.1092 0.0000 0.0000 0.0000
# 3 53.5403 6.1092 159.9519 0.0000 0.0000 0.0000
# 4 0.0000 0.0000 0.0000 40.9258 0.0000 0.0000
# 5 0.0000 0.0000 0.0000 0.0000 63.0622 0.0000
# 6 0.0000 0.0000 0.0000 0.0000 0.0000 29.4855
#
#
#
# Elastic Compliance Matrix: (Units=1/GPa)
#
#
# Indices 1 2 3 4 5 6 
#
# 1 0.012324 -0.008768 -0.003790 0.000000 0.000000 0.000000
# 2 -0.008768 0.026364 0.001928 0.000000 0.000000 0.000000
# 3 -0.003790 0.001928 0.007447 0.000000 0.000000 0.000000
# 4 0.000000 0.000000 0.000000 0.024434 0.000000 0.000000
# 5 0.000000 0.000000 0.000000 0.000000 0.015857 0.000000
# 6 0.000000 0.000000 0.000000 0.000000 0.000000 0.033915
#
#
# Mechanical properties :
#
#
# Convention : Reuss Voigt Hill
#
# Bulk Modulus (GPa) = 40.20194 58.68524 49.44359
# Shear Modulus (GPa) = 33.35683 42.49726 37.92704
#
# Velocity S-wave (km/s) = 3.85885 4.35558 4.11472
# Velocity P-wave (km/s) = 6.14823 7.17581 6.68181
#
# Compressibility (1/GPa) = 0.02487442
#
# Stress axis : x y z
#
# Youngs Moduli (GPa) = 81.14009 37.93066 134.28224
#
# Poissons Ratio (x) = 0.33257 0.50899
# Poissons Ratio (y) = 0.71143 -0.25889
# Poissons Ratio (z) = 0.30755 -0.07313
#
# Static dielectric constant tensor:
#      x y z
#    x 3.967260 0.000000 0.000000 
#    y 0.000000 3.765470 0.000000 
#    z 0.000000 0.000000 4.526610 
# 
# 
# High freq. dielectric constant tensor:
#      x y z
#    x 1.868950 0.000000 0.000000 
#    y 0.000000 1.890940 0.000000 
#    z 0.000000 0.000000 1.908650 
# 
# From -- ./inp_files/26586.got.cif
#   From: 2010.03.12/outbox.cif.g09.slc.cpg/sg66_14_cif.got.tgz:26586.got - 2010.04.10 21:57:39.
