data_PCOD8277493
_publ_section_title
;
Structure prediction by ZEFSAII (Michael W. Deem and Ramdas Pophale) SiO2 
 PCOD8277493
Probable space group: C C C M
;
_chemical_formula_sum "Si O2"
_cell_formula_units_Z 112
_cell_length_a 15.409794
_cell_length_b 24.238656
_cell_length_c 14.521234
_cell_angle_alpha 90.000000
_cell_angle_beta 90.000000
_cell_angle_gamma 90.000000
_cell_volume 5423.865258
_symmetry_space_group_name_H-M "C C C M"
_symmetry_group_IT_number 66
_symmetry_cell_setting 'orthorhombic'
loop_
_space_group_symop_operation_xyz
x,y,z
-x,-y,z
x,-y,1/2-z
-x,y,1/2-z
-x,-y,-z
x,y,-z
-x,y,1/2+z
x,-y,1/2+z
1/2+x,1/2+y,z
1/2-x,1/2-y,z
1/2+x,1/2-y,1/2-z
1/2-x,1/2+y,1/2-z
1/2-x,1/2-y,-z
1/2+x,1/2+y,-z
1/2-x,1/2+y,1/2+z
1/2+x,1/2-y,1/2+z
loop_
_atom_site_type_symbol
_atom_site_label
_atom_site_fract_x
_atom_site_fract_y
_atom_site_fract_z
Si Si1 0.307687 0.198040 0.597598
Si Si2 0.403281 0.935490 0.254842
Si Si3 0.268850 0.407213 0.339248
Si Si4 0.403522 0.241080 0.229036
Si Si5 0.370660 0.462102 0.500000
Si Si6 0.160806 0.857719 0.338873
Si Si7 0.348785 0.145936 0.101647
Si Si8 0.938555 0.914766 0.000000
O O1 0.358343 0.187104 0.500000
O O2 0.250000 0.250000 0.583815
O O3 0.234718 0.151569 0.612578
O O4 0.370106 0.205762 0.684036
O O5 0.500000 0.908657 0.250000
O O6 0.333807 0.920990 0.175120
O O7 0.367071 0.912544 0.350480
O O8 0.412940 0.000000 0.250000
O O9 0.315908 0.450333 0.407052
O O10 0.321696 0.402581 0.242585
O O11 0.500000 0.258885 0.250000
O O12 0.356803 0.298528 0.207821
O O13 0.395605 0.198941 0.145001
O O14 0.388599 0.527182 0.500000
O O15 0.458201 0.425371 0.500000
O O16 0.245486 0.846489 0.399548
O O17 0.085676 0.880314 0.407296
O O18 0.385995 0.141378 0.000000
#
# Coordination Sequence:
#
# PCOD8277493 Si02
#       8
#    16  16  16  16   8  16  16   8
#     4  11  21  40  64  93 129 173 216 271 332 404
#     4  10  23  44  66  97 136 176 226 285 333 407
#     4  11  23  41  73  98 133 181 224 281 342 420
#     4  12  25  41  62  99 140 177 222 283 339 420
#     4  11  28  48  69 104 137 182 240 290 353 405
#     4  11  24  43  69  96 132 181 229 282 352 407
#     4  11  23  41  67  97 134 180 227 277 348 417
#     4  11  28  48  69 101 142 173 239 304 335 424
#
# _framework density 20.649481000000002
#
# number of rings (size 3 to 8) (size 9 to 14) (size 15 to 20)
#    0.000    1.000    5.714    0.857    7.000    1.143 
#    1.286    2.143    0.000    0.000    0.000    0.000 
#    0.000    0.000    0.000    0.000    0.000    0.000 
#
# Total GULP energy -693954.054107 kJ/mol
# GULP energy per Si atom -12392.036680 kJ/mol
# Density = 2.060248 g / cm^3
# Si number density = 20.649481 Si / 1000 Ang^3
#
#
#
# Elastic Constant Matrix: (Units=GPa)
#
#
# Indices 1 2 3 4 5 6 
#
# 1 103.0151 24.2609 41.0742 0.0000 0.0000 0.0000
# 2 24.2609 81.6301 33.9041 0.0000 0.0000 0.0000
# 3 41.0742 33.9041 142.8928 0.0000 0.0000 0.0000
# 4 0.0000 0.0000 0.0000 21.2188 0.0000 0.0000
# 5 0.0000 0.0000 0.0000 0.0000 21.6530 0.0000
# 6 0.0000 0.0000 0.0000 0.0000 0.0000 20.4561
#
#
#
# Elastic Compliance Matrix: (Units=1/GPa)
#
#
# Indices 1 2 3 4 5 6 
#
# 1 0.011319 -0.002233 -0.002724 0.000000 0.000000 0.000000
# 2 -0.002233 0.014030 -0.002687 0.000000 0.000000 0.000000
# 3 -0.002724 -0.002687 0.008419 0.000000 0.000000 0.000000
# 4 0.000000 0.000000 0.000000 0.047128 0.000000 0.000000
# 5 0.000000 0.000000 0.000000 0.000000 0.046183 0.000000
# 6 0.000000 0.000000 0.000000 0.000000 0.000000 0.048885
#
#
# Mechanical properties :
#
#
# Convention : Reuss Voigt Hill
#
# Bulk Modulus (GPa) = 54.11117 58.44629 56.27873
# Shear Modulus (GPa) = 25.32776 27.88551 26.60663
#
# Velocity S-wave (km/s) = 3.50602 3.67880 3.59345
# Velocity P-wave (km/s) = 6.53078 6.81250 6.67313
#
# Compressibility (1/GPa) = 0.01848047
#
# Stress axis : x y z
#
# Youngs Moduli (GPa) = 88.34514 71.27571 118.78175
#
# Poissons Ratio (x) = 0.15914 0.32355
# Poissons Ratio (y) = 0.19726 0.31918
# Poissons Ratio (z) = 0.24064 0.19152
#
# Static dielectric constant tensor:
#      x y z
#    x 3.859640 0.000000 0.000000 
#    y 0.000000 3.564240 0.000000 
#    z 0.000000 0.000000 4.906630 
# 
# 
# High freq. dielectric constant tensor:
#      x y z
#    x 1.803300 0.000000 0.000000 
#    y 0.000000 1.814850 0.000000 
#    z 0.000000 0.000000 1.813300 
# 
# From -- ./inp_files/28922.got.cif
#   From: 2010.03.12/outbox.cif.g09.slc.cpg/sg66_15_cif.got.tgz:28922.got - 2010.04.10 21:57:39.
