data_PCOD8277706
_publ_section_title
;
Structure prediction by ZEFSAII (Michael W. Deem and Ramdas Pophale) SiO2 
 PCOD8277706
Probable space group: C C C M
;
_chemical_formula_sum "Si O2"
_cell_formula_units_Z 64
_cell_length_a 26.974745
_cell_length_b 8.450129
_cell_length_c 13.921393
_cell_angle_alpha 90.000000
_cell_angle_beta 90.000000
_cell_angle_gamma 90.000000
_cell_volume 3173.243364
_symmetry_space_group_name_H-M "C C C M"
_symmetry_group_IT_number 66
_symmetry_cell_setting 'orthorhombic'
loop_
_space_group_symop_operation_xyz
x,y,z
-x,-y,z
x,-y,1/2-z
-x,y,1/2-z
-x,-y,-z
x,y,-z
-x,y,1/2+z
x,-y,1/2+z
1/2+x,1/2+y,z
1/2-x,1/2-y,z
1/2+x,1/2-y,1/2-z
1/2-x,1/2+y,1/2-z
1/2-x,1/2-y,-z
1/2+x,1/2+y,-z
1/2-x,1/2+y,1/2+z
1/2+x,1/2-y,1/2+z
loop_
_atom_site_type_symbol
_atom_site_label
_atom_site_fract_x
_atom_site_fract_y
_atom_site_fract_z
Si Si1 0.953499 0.100781 0.392754
Si Si2 0.802918 0.198760 0.613263
Si Si3 0.889301 0.676044 0.774847
Si Si4 0.857451 0.108533 0.105892
O O1 0.964896 0.171525 0.500000
O O2 0.938543 0.236418 0.315842
O O3 0.908697 0.981578 0.401416
O O4 0.000000 0.000000 0.353637
O O5 0.801672 0.212851 0.500000
O O6 0.750000 0.250000 0.657934
O O7 0.845564 0.320157 0.646836
O O8 0.816051 0.017357 0.642805
O O9 0.906328 0.500000 0.750000
O O10 0.864279 0.750825 0.680248
O O11 0.843237 0.175837 0.000000
#
# Coordination Sequence:
#
# PCOD8277706 Si02
#       4
#    16  16  16  16
#     4   9  18  36  60  79 101 141 189 233 280 336
#     4   9  18  35  58  81 108 147 195 239 278 331
#     4  11  22  33  53  84 117 148 181 232 289 345
#     4   9  19  35  54  77 108 148 187 224 272 329
#
# _framework density 20.168638000000001
#
# number of rings (size 3 to 8) (size 9 to 14) (size 15 to 20)
#    0.000    2.500    0.000    5.250    0.000    6.000 
#    0.000    2.500    0.000    9.750    0.000    0.000 
#    0.000    0.000    0.000    0.000    0.000    0.000 
#
# Total GULP energy -396577.180734 kJ/mol
# GULP energy per Si atom -12393.036898 kJ/mol
# Density = 2.012273 g / cm^3
# Si number density = 20.168638 Si / 1000 Ang^3
#
#
#
# Elastic Constant Matrix: (Units=GPa)
#
#
# Indices 1 2 3 4 5 6 
#
# 1 120.2389 61.0251 35.8575 0.0000 0.0000 0.0000
# 2 61.0251 121.4522 55.5749 0.0000 0.0000 0.0000
# 3 35.8575 55.5749 77.8588 0.0000 0.0000 0.0000
# 4 0.0000 0.0000 0.0000 21.6582 0.0000 0.0000
# 5 0.0000 0.0000 0.0000 0.0000 2.2231 0.0000
# 6 0.0000 0.0000 0.0000 0.0000 0.0000 25.6387
#
#
#
# Elastic Compliance Matrix: (Units=1/GPa)
#
#
# Indices 1 2 3 4 5 6 
#
# 1 0.011315 -0.004902 -0.001712 0.000000 0.000000 0.000000
# 2 -0.004902 0.014351 -0.007986 0.000000 0.000000 0.000000
# 3 -0.001712 -0.007986 0.019333 0.000000 0.000000 0.000000
# 4 0.000000 0.000000 0.000000 0.046172 0.000000 0.000000
# 5 0.000000 0.000000 0.000000 0.000000 0.449829 0.000000
# 6 0.000000 0.000000 0.000000 0.000000 0.000000 0.039004
#
#
# Mechanical properties :
#
#
# Convention : Reuss Voigt Hill
#
# Bulk Modulus (GPa) = 63.29707 69.38495 66.34101
# Shear Modulus (GPa) = 8.13709 21.04348 14.59028
#
# Velocity S-wave (km/s) = 2.01079 3.23364 2.69255
# Velocity P-wave (km/s) = 6.06985 6.95837 6.52924
#
# Compressibility (1/GPa) = 0.01579852
#
# Stress axis : x y z
#
# Youngs Moduli (GPa) = 88.37569 69.68103 51.72585
#
# Poissons Ratio (x) = 0.34158 0.08856
# Poissons Ratio (y) = 0.43322 0.41309
# Poissons Ratio (z) = 0.15132 0.55648
#
# Static dielectric constant tensor:
#      x y z
#    x 4.046430 0.000000 0.000000 
#    y 0.000000 3.572490 0.000000 
#    z 0.000000 0.000000 4.176820 
# 
# 
# High freq. dielectric constant tensor:
#      x y z
#    x 1.782000 0.000000 0.000000 
#    y 0.000000 1.747480 0.000000 
#    z 0.000000 0.000000 1.804520 
# 
# From -- ./inp_files/24136.got.cif
#   From: 2010.03.12/outbox.cif.g09.slc.cpg/sg66_13_cif.got.tgz:24136.got - 2010.04.10 21:57:39.
