data_PCOD8277066
_publ_section_title
;
Structure prediction by ZEFSAII (Michael W. Deem and Ramdas Pophale) SiO2 
 PCOD8277066
Probable space group: C C C M
;
_chemical_formula_sum "Si O2"
_cell_formula_units_Z 64
_cell_length_a 14.386243
_cell_length_b 7.880809
_cell_length_c 27.358966
_cell_angle_alpha 90.000000
_cell_angle_beta 90.000000
_cell_angle_gamma 90.000000
_cell_volume 3101.829153
_symmetry_space_group_name_H-M "C C C M"
_symmetry_group_IT_number 66
_symmetry_cell_setting 'orthorhombic'
loop_
_space_group_symop_operation_xyz
x,y,z
-x,-y,z
x,-y,1/2-z
-x,y,1/2-z
-x,-y,-z
x,y,-z
-x,y,1/2+z
x,-y,1/2+z
1/2+x,1/2+y,z
1/2-x,1/2-y,z
1/2+x,1/2-y,1/2-z
1/2-x,1/2+y,1/2-z
1/2-x,1/2-y,-z
1/2+x,1/2+y,-z
1/2-x,1/2+y,1/2+z
1/2+x,1/2-y,1/2+z
loop_
_atom_site_type_symbol
_atom_site_label
_atom_site_fract_x
_atom_site_fract_y
_atom_site_fract_z
Si Si1 0.917651 0.133406 0.054652
Si Si2 0.083839 0.378650 0.359358
Si Si3 0.105860 0.046691 0.696017
Si Si4 0.730026 0.562734 0.888112
O O1 0.947425 0.281826 0.091485
O O2 0.819544 0.048577 0.070044
O O3 0.905772 0.207049 0.000000
O O4 0.000000 0.000000 0.056480
O O5 0.113702 0.247407 0.316370
O O6 0.173364 0.485290 0.372106
O O7 0.000000 0.500000 0.341520
O O8 0.141590 0.000000 0.750000
O O9 0.164084 0.930269 0.659250
O O10 0.000000 0.000000 0.688696
O O11 0.750000 0.750000 0.908539
#
# Coordination Sequence:
#
# PCOD8277066 Si02
#       4
#    16  16  16  16
#     4  10  21  38  60  87 119 154 194 241 291 345
#     4  11  22  39  61  86 118 155 195 239 291 345
#     4  10  21  39  60  85 115 148 189 240 293 348
#     4  11  22  37  59  85 116 154 193 239 290 344
#
# _framework density 20.632988000000001
#
# number of rings (size 3 to 8) (size 9 to 14) (size 15 to 20)
#    0.000    1.500    0.000    9.000    0.000    5.000 
#    0.000    7.500    0.000    0.000    0.000    0.000 
#    0.000    0.000    0.000    0.000    0.000    0.000 
#
# Total GULP energy -396827.718796 kJ/mol
# GULP energy per Si atom -12400.866212 kJ/mol
# Density = 2.058603 g / cm^3
# Si number density = 20.632988 Si / 1000 Ang^3
#
#
#
# Elastic Constant Matrix: (Units=GPa)
#
#
# Indices 1 2 3 4 5 6 
#
# 1 65.0918 3.5879 -1.8892 0.0000 0.0000 0.0000
# 2 3.5879 99.6397 22.0638 0.0000 0.0000 0.0000
# 3 -1.8892 22.0638 130.9182 0.0000 0.0000 0.0000
# 4 0.0000 0.0000 0.0000 8.5213 0.0000 0.0000
# 5 0.0000 0.0000 0.0000 0.0000 65.2333 0.0000
# 6 0.0000 0.0000 0.0000 0.0000 0.0000 43.3412
#
#
#
# Elastic Compliance Matrix: (Units=1/GPa)
#
#
# Indices 1 2 3 4 5 6 
#
# 1 0.015407 -0.000627 0.000328 0.000000 0.000000 0.000000
# 2 -0.000627 0.010451 -0.001770 0.000000 0.000000 0.000000
# 3 0.000328 -0.001770 0.007941 0.000000 0.000000 0.000000
# 4 0.000000 0.000000 0.000000 0.117352 0.000000 0.000000
# 5 0.000000 0.000000 0.000000 0.000000 0.015330 0.000000
# 6 0.000000 0.000000 0.000000 0.000000 0.000000 0.023073
#
#
# Mechanical properties :
#
#
# Convention : Reuss Voigt Hill
#
# Bulk Modulus (GPa) = 33.71559 38.13051 35.92305
# Shear Modulus (GPa) = 24.56036 41.54498 33.05267
#
# Velocity S-wave (km/s) = 3.45388 4.49210 4.00676
# Velocity P-wave (km/s) = 5.68171 6.73986 6.23328
#
# Compressibility (1/GPa) = 0.02965987
#
# Stress axis : x y z
#
# Youngs Moduli (GPa) = 64.90541 95.68673 125.92162
#
# Poissons Ratio (x) = 0.06004 -0.04131
# Poissons Ratio (y) = 0.04072 0.22292
# Poissons Ratio (z) = -0.02129 0.16940
#
# Static dielectric constant tensor:
#      x y z
#    x 3.878450 0.000000 0.000000 
#    y 0.000000 4.235910 0.000000 
#    z 0.000000 0.000000 4.027570 
# 
# 
# High freq. dielectric constant tensor:
#      x y z
#    x 1.823120 0.000000 0.000000 
#    y 0.000000 1.805210 0.000000 
#    z 0.000000 0.000000 1.797940 
# 
# From -- ./inp_files/67886.got.cif
#   From: 2010.03.12/outbox.cif.g09.slc.cpg/sg66_34_cif.got.tgz:67886.got - 2010.04.10 21:57:39.
