data_PCOD8277054
_publ_section_title
;
Structure prediction by ZEFSAII (Michael W. Deem and Ramdas Pophale) SiO2 
 PCOD8277054
Probable space group: C C C M
;
_chemical_formula_sum "Si O2"
_cell_formula_units_Z 112
_cell_length_a 22.490664
_cell_length_b 14.436939
_cell_length_c 17.669099
_cell_angle_alpha 90.000000
_cell_angle_beta 90.000000
_cell_angle_gamma 90.000000
_cell_volume 5737.091851
_symmetry_space_group_name_H-M "C C C M"
_symmetry_group_IT_number 66
_symmetry_cell_setting 'orthorhombic'
loop_
_space_group_symop_operation_xyz
x,y,z
-x,-y,z
x,-y,1/2-z
-x,y,1/2-z
-x,-y,-z
x,y,-z
-x,y,1/2+z
x,-y,1/2+z
1/2+x,1/2+y,z
1/2-x,1/2-y,z
1/2+x,1/2-y,1/2-z
1/2-x,1/2+y,1/2-z
1/2-x,1/2-y,-z
1/2+x,1/2+y,-z
1/2-x,1/2+y,1/2+z
1/2+x,1/2-y,1/2+z
loop_
_atom_site_type_symbol
_atom_site_label
_atom_site_fract_x
_atom_site_fract_y
_atom_site_fract_z
Si Si1 0.144237 0.461620 0.410131
Si Si2 0.738738 0.642481 0.589311
Si Si3 0.397181 0.353164 0.912620
Si Si4 0.962883 0.343516 0.911864
Si Si5 0.405750 0.848919 0.590341
Si Si6 0.136481 0.972531 0.163570
Si Si7 0.965055 0.868458 0.413103
O O1 0.142261 0.452911 0.500000
O O2 0.205354 0.417487 0.381343
O O3 0.088594 0.405816 0.374040
O O4 0.138721 0.569086 0.384165
O O5 0.726340 0.629797 0.500000
O O6 0.750000 0.750000 0.608373
O O7 0.683175 0.604591 0.636521
O O8 0.383380 0.250702 0.878141
O O9 0.353312 0.429531 0.878327
O O10 0.465365 0.381237 0.896517
O O11 0.383198 0.349633 0.000000
O O12 0.945951 0.236981 0.898354
O O13 0.027674 0.368024 0.877393
O O14 0.965155 0.366417 0.000000
O O15 0.410480 0.842409 0.500000
O O16 0.071184 0.933136 0.144246
O O17 0.142674 0.000000 0.250000
O O18 0.950525 0.896948 0.500000
#
# Coordination Sequence:
#
# PCOD8277054 Si02
#       7
#    16  16  16  16  16  16  16
#     4   9  15  25  46  75 103 132 167 211 260 304
#     4  10  21  38  59  79 100 133 185 240 276 312
#     4   9  18  33  53  77 106 139 172 208 253 313
#     4   8  13  23  45  78 109 132 158 204 260 304
#     4   8  14  25  44  75 110 135 159 196 251 317
#     4  12  24  36  51  75 105 137 172 215 270 326
#     4   9  17  31  53  79 106 137 172 210 256 311
#
# _framework density 19.522085000000001
#
# number of rings (size 3 to 8) (size 9 to 14) (size 15 to 20)
#    0.000    2.714    0.000    4.714    0.000    6.286 
#    0.000    2.143    0.000    3.429    0.000    0.000 
#    0.000    5.714    0.000    0.000    0.000    0.000 
#
# Total GULP energy -694016.898723 kJ/mol
# GULP energy per Si atom -12393.158906 kJ/mol
# Density = 1.947765 g / cm^3
# Si number density = 19.522085 Si / 1000 Ang^3
#
#
#
# Elastic Constant Matrix: (Units=GPa)
#
#
# Indices 1 2 3 4 5 6 
#
# 1 55.1175 59.5790 30.2827 0.0000 0.0000 0.0000
# 2 59.5790 141.6835 41.0415 0.0000 0.0000 0.0000
# 3 30.2827 41.0415 46.1703 0.0000 0.0000 0.0000
# 4 0.0000 0.0000 0.0000 4.7902 0.0000 0.0000
# 5 0.0000 0.0000 0.0000 0.0000 27.8663 0.0000
# 6 0.0000 0.0000 0.0000 0.0000 0.0000 40.2548
#
#
#
# Elastic Compliance Matrix: (Units=1/GPa)
#
#
# Indices 1 2 3 4 5 6 
#
# 1 0.039815 -0.012361 -0.015127 0.000000 0.000000 0.000000
# 2 -0.012361 0.013343 -0.003753 0.000000 0.000000 0.000000
# 3 -0.015127 -0.003753 0.034917 0.000000 0.000000 0.000000
# 4 0.000000 0.000000 0.000000 0.208760 0.000000 0.000000
# 5 0.000000 0.000000 0.000000 0.000000 0.035886 0.000000
# 6 0.000000 0.000000 0.000000 0.000000 0.000000 0.024842
#
#
# Mechanical properties :
#
#
# Convention : Reuss Voigt Hill
#
# Bulk Modulus (GPa) = 39.07287 56.08638 47.57962
# Shear Modulus (GPa) = 11.66653 22.05348 16.86001
#
# Velocity S-wave (km/s) = 2.44725 3.36470 2.94196
# Velocity P-wave (km/s) = 5.29562 6.62473 5.99711
#
# Compressibility (1/GPa) = 0.02559321
#
# Stress axis : x y z
#
# Youngs Moduli (GPa) = 25.11586 74.94502 28.63934
#
# Poissons Ratio (x) = 0.92639 0.43322
# Poissons Ratio (y) = 0.31046 0.10750
# Poissons Ratio (z) = 0.37992 0.28130
#
# Static dielectric constant tensor:
#      x y z
#    x 3.553460 0.000000 0.000000 
#    y 0.000000 4.076820 0.000000 
#    z 0.000000 0.000000 2.908780 
# 
# 
# High freq. dielectric constant tensor:
#      x y z
#    x 1.744430 0.000000 0.000000 
#    y 0.000000 1.786170 0.000000 
#    z 0.000000 0.000000 1.688660 
# 
# From -- ./inp_files/32475.got.cif
#   From: 2010.03.12/outbox.cif.g09.slc.cpg/sg66_17_cif.got.tgz:32475.got - 2010.04.10 21:57:39.
