data_PCOD8277930
_publ_section_title
;
Structure prediction by ZEFSAII (Michael W. Deem and Ramdas Pophale) SiO2 
 PCOD8277930
Probable space group: C C C M
;
_chemical_formula_sum "Si O2"
_cell_formula_units_Z 48
_cell_length_a 27.000000
_cell_length_b 21.000000
_cell_length_c 9.000000
_cell_angle_alpha 90.000000
_cell_angle_beta 90.000000
_cell_angle_gamma 90.000000
_cell_volume 5103.000000
_symmetry_space_group_name_H-M "C C C M"
_symmetry_group_IT_number 66
_symmetry_cell_setting 'orthorhombic'
loop_
_space_group_symop_operation_xyz
x,y,z
-x,-y,z
x,-y,1/2-z
-x,y,1/2-z
-x,-y,-z
x,y,-z
-x,y,1/2+z
x,-y,1/2+z
1/2+x,1/2+y,z
1/2-x,1/2-y,z
1/2+x,1/2-y,1/2-z
1/2-x,1/2+y,1/2-z
1/2-x,1/2-y,-z
1/2+x,1/2+y,-z
1/2-x,1/2+y,1/2+z
1/2+x,1/2-y,1/2+z
loop_
_atom_site_type_symbol
_atom_site_label
_atom_site_fract_x
_atom_site_fract_y
_atom_site_fract_z
Si Si1 0.889475 0.690132 0.175236
Si Si2 0.446732 0.935713 0.321872
Si Si3 0.776858 0.683925 0.175099
Si Si4 0.947399 0.187177 0.325462
Si Si5 0.276770 0.565906 0.178906
Si Si6 0.117054 0.063919 0.176669
O O1 0.913422 0.623833 0.228284
O O2 0.833106 0.692528 0.228673
O O3 0.918489 0.751346 0.240682
O O4 0.891643 0.694941 0.000000
O O5 0.500000 0.924111 0.250000
O O6 0.450629 0.942538 0.500000
O O7 0.423468 0.000000 0.250000
O O8 0.750000 0.750000 0.214099
O O9 0.755853 0.625534 0.269895
O O10 0.772026 0.668204 0.000000
O O11 0.955101 0.194543 0.500000
O O12 0.918015 0.123032 0.287108
O O13 0.000000 0.182590 0.250000
O O14 0.255589 0.500000 0.250000
O O15 0.331255 0.577801 0.243146
O O16 0.277305 0.560882 0.000000
O O17 0.093617 0.000000 0.250000
O O18 0.124994 0.054846 0.000000
#
# Coordination Sequence:
#
# PCOD8277930 Si02
#       6
#    16  16  16  16  16  16
#     4   9  19  35  55  79 106 140 181 221 263 318
#     4  10  19  33  53  76 104 135 172 214 259 312
#     4  10  20  37  60  82 110 148 186 226 275 329
#     4  10  21  37  57  81 109 143 183 225 271 323
#     4  11  22  37  58  84 114 146 185 230 278 332
#     4  10  20  36  58  82 110 145 184 224 272 329
#
# _framework density 9.4062319999999993
#
# number of rings (size 3 to 8) (size 9 to 14) (size 15 to 20)
#    0.000    2.000    0.000    5.500    0.000    5.333 
#    0.000    6.667    0.000    0.000    0.000    0.000 
#    0.000    0.000    0.000    0.000    0.000    0.000 
#
# Total GULP energy -595161.713534 kJ/mol
# GULP energy per Si atom -12399.202365 kJ/mol
# Density = 0.938482 g / cm^3
# Si number density = 9.406232 Si / 1000 Ang^3
#
#
#
# Elastic Constant Matrix: (Units=GPa)
#
#
# Indices 1 2 3 4 5 6 
#
# 1 109.8457 89.3123 43.5958 0.0000 0.0000 0.0000
# 2 89.3123 194.8884 61.9019 0.0000 0.0000 0.0000
# 3 43.5958 61.9019 104.7357 0.0000 0.0000 0.0000
# 4 0.0000 0.0000 0.0000 34.6861 0.0000 0.0000
# 5 0.0000 0.0000 0.0000 0.0000 25.5223 0.0000
# 6 0.0000 0.0000 0.0000 0.0000 0.0000 37.8776
#
#
#
# Elastic Compliance Matrix: (Units=1/GPa)
#
#
# Indices 1 2 3 4 5 6 
#
# 1 0.015108 -0.006065 -0.002704 0.000000 0.000000 0.000000
# 2 -0.006065 0.008751 -0.002648 0.000000 0.000000 0.000000
# 3 -0.002704 -0.002648 0.012239 0.000000 0.000000 0.000000
# 4 0.000000 0.000000 0.000000 0.028830 0.000000 0.000000
# 5 0.000000 0.000000 0.000000 0.000000 0.039181 0.000000
# 6 0.000000 0.000000 0.000000 0.000000 0.000000 0.026401
#
#
# Mechanical properties :
#
#
# Convention : Reuss Voigt Hill
#
# Bulk Modulus (GPa) = 75.39106 88.78777 82.08942
# Shear Modulus (GPa) = 31.69265 33.92784 32.81024
#
# Velocity S-wave (km/s) = 4.10892 4.25134 4.18074
# Velocity P-wave (km/s) = 7.91663 8.44969 8.18750
#
# Compressibility (1/GPa) = 0.01326417
#
# Stress axis : x y z
#
# Youngs Moduli (GPa) = 66.19053 114.26645 81.70921
#
# Poissons Ratio (x) = 0.69298 0.22096
# Poissons Ratio (y) = 0.40142 0.21637
# Poissons Ratio (z) = 0.17900 0.30258
#
# Static dielectric constant tensor:
#      x y z
#    x 3.464950 0.000000 0.000000 
#    y 0.000000 3.985820 0.000000 
#    z 0.000000 0.000000 3.459900 
# 
# 
# High freq. dielectric constant tensor:
#      x y z
#    x 1.729190 0.000000 0.000000 
#    y 0.000000 1.762470 0.000000 
#    z 0.000000 0.000000 1.727370 
# 
# From -- ./inp_files/8048.got.cif
#   From: 2010.03.12/outbox.ucp.g09.slc.cvg/sg66_5_cif.got.tgz:8048.got - 2010.05.04 19:46:57.
