data_PCOD8277496
_publ_section_title
;
Structure prediction by ZEFSAII (Michael W. Deem and Ramdas Pophale) SiO2 
 PCOD8277496
Probable space group: C C C M
;
_chemical_formula_sum "Si O2"
_cell_formula_units_Z 52
_cell_length_a 22.551522
_cell_length_b 10.979997
_cell_length_c 9.206617
_cell_angle_alpha 90.000000
_cell_angle_beta 90.000000
_cell_angle_gamma 90.000000
_cell_volume 2279.702397
_symmetry_space_group_name_H-M "C C C M"
_symmetry_group_IT_number 66
_symmetry_cell_setting 'orthorhombic'
loop_
_space_group_symop_operation_xyz
x,y,z
-x,-y,z
x,-y,1/2-z
-x,y,1/2-z
-x,-y,-z
x,y,-z
-x,y,1/2+z
x,-y,1/2+z
1/2+x,1/2+y,z
1/2-x,1/2-y,z
1/2+x,1/2-y,1/2-z
1/2-x,1/2+y,1/2-z
1/2-x,1/2-y,-z
1/2+x,1/2+y,-z
1/2-x,1/2+y,1/2+z
1/2+x,1/2-y,1/2+z
loop_
_atom_site_type_symbol
_atom_site_label
_atom_site_fract_x
_atom_site_fract_y
_atom_site_fract_z
Si Si1 0.562928 0.114806 0.672057
Si Si2 0.399854 0.328930 0.343160
Si Si3 0.231777 0.883835 0.164238
Si Si4 0.000000 0.000000 0.750000
O O1 0.500000 0.131626 0.750000
O O2 0.556508 0.096903 0.500000
O O3 0.600032 0.235136 0.708746
O O4 0.594794 0.000000 0.750000
O O5 0.401094 0.260522 0.500000
O O6 0.338983 0.402625 0.329382
O O7 0.456638 0.417529 0.346884
O O8 0.250000 0.750000 0.228840
O O9 0.259765 0.000000 0.250000
O O10 0.256180 0.891613 0.000000
#
# Coordination Sequence:
#
# PCOD8277496 Si02
#       4
#    16  16  16   4
#     4  11  22  37  58  85 122 165 209 258 317 387
#     4  11  23  39  62  95 131 167 212 265 324 392
#     4  10  23  44  68  96 132 173 223 278 331 390
#     4  12  22  36  66  94 130 168 202 268 318 392
#
# _framework density 22.809994
#
# number of rings (size 3 to 8) (size 9 to 14) (size 15 to 20)
#    0.000    1.231    3.077    4.154    0.000    4.308 
#    0.000    3.077    0.000    0.000    0.000    0.000 
#    0.000    0.000    0.000    0.000    0.000    0.000 
#
# Total GULP energy -322176.498098 kJ/mol
# GULP energy per Si atom -12391.403773 kJ/mol
# Density = 2.275808 g / cm^3
# Si number density = 22.809994 Si / 1000 Ang^3
#
#
#
# Elastic Constant Matrix: (Units=GPa)
#
#
# Indices 1 2 3 4 5 6 
#
# 1 64.0875 16.1569 12.4744 0.0000 0.0000 0.0000
# 2 16.1569 165.0247 67.7629 0.0000 0.0000 0.0000
# 3 12.4744 67.7629 167.9296 0.0000 0.0000 0.0000
# 4 0.0000 0.0000 0.0000 41.8570 0.0000 0.0000
# 5 0.0000 0.0000 0.0000 0.0000 18.6948 0.0000
# 6 0.0000 0.0000 0.0000 0.0000 0.0000 15.9163
#
#
#
# Elastic Compliance Matrix: (Units=1/GPa)
#
#
# Indices 1 2 3 4 5 6 
#
# 1 0.016061 -0.001298 -0.000669 0.000000 0.000000 0.000000
# 2 -0.001298 0.007368 -0.002877 0.000000 0.000000 0.000000
# 3 -0.000669 -0.002877 0.007165 0.000000 0.000000 0.000000
# 4 0.000000 0.000000 0.000000 0.023891 0.000000 0.000000
# 5 0.000000 0.000000 0.000000 0.000000 0.053491 0.000000
# 6 0.000000 0.000000 0.000000 0.000000 0.000000 0.062829
#
#
# Mechanical properties :
#
#
# Convention : Reuss Voigt Hill
#
# Bulk Modulus (GPa) = 47.83100 65.53670 56.68385
# Shear Modulus (GPa) = 26.67213 35.33678 31.00446
#
# Velocity S-wave (km/s) = 3.42324 3.94023 3.69080
# Velocity P-wave (km/s) = 6.05306 7.03523 6.56255
#
# Compressibility (1/GPa) = 0.02090694
#
# Stress axis : x y z
#
# Youngs Moduli (GPa) = 62.26217 135.72207 139.55891
#
# Poissons Ratio (x) = 0.17611 0.09343
# Poissons Ratio (y) = 0.08079 0.40148
# Poissons Ratio (z) = 0.04168 0.39044
#
# Static dielectric constant tensor:
#      x y z
#    x 3.866540 0.000000 0.000000 
#    y 0.000000 4.460790 0.000000 
#    z 0.000000 0.000000 4.030710 
# 
# 
# High freq. dielectric constant tensor:
#      x y z
#    x 1.883430 0.000000 0.000000 
#    y 0.000000 1.906220 0.000000 
#    z 0.000000 0.000000 1.891780 
# 
# From -- ./inp_files/3627.got.cif
#   From: 2010.03.12/outbox.cif.g09.slc.cpg/sg66_2_cif.got.tgz:3627.got - 2010.04.10 21:57:39.
