data_PCOD8277633
_publ_section_title
;
Structure prediction by ZEFSAII (Michael W. Deem and Ramdas Pophale) SiO2 
 PCOD8277633
Probable space group: C C C M
;
_chemical_formula_sum "Si O2"
_cell_formula_units_Z 60
_cell_length_a 9.921793
_cell_length_b 20.250867
_cell_length_c 14.019333
_cell_angle_alpha 90.000000
_cell_angle_beta 90.000000
_cell_angle_gamma 90.000000
_cell_volume 2816.833228
_symmetry_space_group_name_H-M "C C C M"
_symmetry_group_IT_number 66
_symmetry_cell_setting 'orthorhombic'
loop_
_space_group_symop_operation_xyz
x,y,z
-x,-y,z
x,-y,1/2-z
-x,y,1/2-z
-x,-y,-z
x,y,-z
-x,y,1/2+z
x,-y,1/2+z
1/2+x,1/2+y,z
1/2-x,1/2-y,z
1/2+x,1/2-y,1/2-z
1/2-x,1/2+y,1/2-z
1/2-x,1/2-y,-z
1/2+x,1/2+y,-z
1/2-x,1/2+y,1/2+z
1/2+x,1/2-y,1/2+z
loop_
_atom_site_type_symbol
_atom_site_label
_atom_site_fract_x
_atom_site_fract_y
_atom_site_fract_z
Si Si1 0.931515 0.311767 0.500000
Si Si2 0.131279 0.198125 0.500000
Si Si3 0.896180 0.558577 0.500000
Si Si4 0.500000 0.500000 0.750000
Si Si5 0.151267 0.309281 0.790044
Si Si6 0.705223 0.404396 0.844580
O O1 0.843866 0.319432 0.595778
O O2 0.992392 0.238206 0.500000
O O3 0.045316 0.367554 0.500000
O O4 0.250000 0.250000 0.500000
O O5 0.138225 0.154122 0.594534
O O6 0.807357 0.551318 0.594238
O O7 0.000000 0.500000 0.500000
O O8 0.588255 0.453296 0.815666
O O9 0.250000 0.250000 0.759784
O O10 0.211909 0.375779 0.744949
O O11 0.000000 0.295684 0.750000
#
# Coordination Sequence:
#
# PCOD8277633 Si02
#       6
#     8   8   8   4  16  16
#     4  12  24  43  68 116 139 182 245 292 383 429
#     4  11  20  47  74 106 140 189 240 313 373 435
#     4  11  25  47  74 102 139 201 242 303 369 454
#     4  12  32  46  66 116 140 222 248 298 380 444
#     4  12  25  44  73 110 148 187 239 312 374 444
#     4  11  26  48  73  99 154 191 252 305 370 444
#
# _framework density 21.300516999999999
#
# number of rings (size 3 to 8) (size 9 to 14) (size 15 to 20)
#    0.000    0.533    5.333    2.800    9.333    2.133 
#    0.000    0.000    0.000    0.000    0.000    0.000 
#    0.000    0.000    0.000    0.000    0.000    0.000 
#
# Total GULP energy -372108.051725 kJ/mol
# GULP energy per Si atom -12403.601724 kJ/mol
# Density = 2.125204 g / cm^3
# Si number density = 21.300517 Si / 1000 Ang^3
#
#
#
# Elastic Constant Matrix: (Units=GPa)
#
#
# Indices 1 2 3 4 5 6 
#
# 1 140.2931 88.0449 72.2121 0.0000 0.0000 0.0000
# 2 88.0449 141.6274 75.4773 0.0000 0.0000 0.0000
# 3 72.2121 75.4773 174.9768 0.0000 0.0000 0.0000
# 4 0.0000 0.0000 0.0000 40.3001 0.0000 0.0000
# 5 0.0000 0.0000 0.0000 0.0000 42.1663 0.0000
# 6 0.0000 0.0000 0.0000 0.0000 0.0000 61.7055
#
#
#
# Elastic Compliance Matrix: (Units=1/GPa)
#
#
# Indices 1 2 3 4 5 6 
#
# 1 0.012374 -0.006455 -0.002322 0.000000 0.000000 0.000000
# 2 -0.006455 0.012536 -0.002743 0.000000 0.000000 0.000000
# 3 -0.002322 -0.002743 0.007857 0.000000 0.000000 0.000000
# 4 0.000000 0.000000 0.000000 0.024814 0.000000 0.000000
# 5 0.000000 0.000000 0.000000 0.000000 0.023716 0.000000
# 6 0.000000 0.000000 0.000000 0.000000 0.000000 0.016206
#
#
# Mechanical properties :
#
#
# Convention : Reuss Voigt Hill
#
# Bulk Modulus (GPa) = 102.82522 103.15179 102.98850
# Shear Modulus (GPa) = 40.39234 43.57858 41.98546
#
# Velocity S-wave (km/s) = 4.35939 4.52806 4.44452
# Velocity P-wave (km/s) = 8.58588 8.71033 8.64833
#
# Compressibility (1/GPa) = 0.00972524
#
# Stress axis : x y z
#
# Youngs Moduli (GPa) = 80.81213 79.77230 127.27712
#
# Poissons Ratio (x) = 0.51493 0.29559
# Poissons Ratio (y) = 0.52165 0.34917
# Poissons Ratio (z) = 0.18768 0.21885
#
# Static dielectric constant tensor:
#      x y z
#    x 3.915180 0.000000 0.000000 
#    y 0.000000 4.885500 0.000000 
#    z 0.000000 0.000000 3.542280 
# 
# 
# High freq. dielectric constant tensor:
#      x y z
#    x 1.836500 0.000000 0.000000 
#    y 0.000000 1.835030 0.000000 
#    z 0.000000 0.000000 1.853120 
# 
# From -- ./inp_files/14519.got.cif
#   From: 2010.03.12/outbox.cif.g09.slc.cpg/sg66_8_cif.got.tgz:14519.got - 2010.04.10 21:57:39.
