data_PCOD8277545
_publ_section_title
;
Structure prediction by ZEFSAII (Michael W. Deem and Ramdas Pophale) SiO2 
 PCOD8277545
Probable space group: C C C M
;
_chemical_formula_sum "Si O2"
_cell_formula_units_Z 56
_cell_length_a 24.046070
_cell_length_b 5.064952
_cell_length_c 20.966498
_cell_angle_alpha 90.000000
_cell_angle_beta 90.000000
_cell_angle_gamma 90.000000
_cell_volume 2553.555715
_symmetry_space_group_name_H-M "C C C M"
_symmetry_group_IT_number 66
_symmetry_cell_setting 'orthorhombic'
loop_
_space_group_symop_operation_xyz
x,y,z
-x,-y,z
x,-y,1/2-z
-x,y,1/2-z
-x,-y,-z
x,y,-z
-x,y,1/2+z
x,-y,1/2+z
1/2+x,1/2+y,z
1/2-x,1/2-y,z
1/2+x,1/2-y,1/2-z
1/2-x,1/2+y,1/2-z
1/2-x,1/2-y,-z
1/2+x,1/2+y,-z
1/2-x,1/2+y,1/2+z
1/2+x,1/2-y,1/2+z
loop_
_atom_site_type_symbol
_atom_site_label
_atom_site_fract_x
_atom_site_fract_y
_atom_site_fract_z
Si Si1 0.147191 0.260815 0.426498
Si Si2 0.390365 0.500000 0.250000
Si Si3 0.537901 0.744574 0.356741
Si Si4 0.186629 0.237248 0.145947
O O1 0.159804 0.316265 0.500000
O O2 0.080981 0.273607 0.414926
O O3 0.175396 0.478050 0.382792
O O4 0.174232 0.981129 0.407830
O O5 0.429048 0.307238 0.291259
O O6 0.352339 0.311669 0.206785
O O7 0.500000 0.500000 0.375422
O O8 0.500000 0.000000 0.347918
O O9 0.250000 0.250000 0.169160
#
# Coordination Sequence:
#
# PCOD8277545 Si02
#       4
#    16   8  16  16
#     4  11  25  44  65  95 130 166 216 264 309 377
#     4  10  25  42  64  96 130 162 213 264 314 384
#     4  11  24  41  64  92 126 168 210 260 320 376
#     4  11  25  43  67  96 128 169 210 261 322 375
#
# _framework density 21.930206999999999
#
# number of rings (size 3 to 8) (size 9 to 14) (size 15 to 20)
#    0.000    1.143    0.000    5.571    0.000   22.857 
#    0.000    0.000    0.000    0.000    0.000    0.000 
#    0.000    0.000    0.000    0.000    0.000    0.000 
#
# Total GULP energy -347352.287913 kJ/mol
# GULP energy per Si atom -12405.438854 kJ/mol
# Density = 2.188029 g / cm^3
# Si number density = 21.930207 Si / 1000 Ang^3
#
#
#
# Elastic Constant Matrix: (Units=GPa)
#
#
# Indices 1 2 3 4 5 6 
#
# 1 130.6831 33.8429 -4.2134 0.0000 0.0000 0.0000
# 2 33.8429 80.1051 -17.2322 0.0000 0.0000 0.0000
# 3 -4.2134 -17.2322 56.3088 0.0000 0.0000 0.0000
# 4 0.0000 0.0000 0.0000 25.2149 0.0000 0.0000
# 5 0.0000 0.0000 0.0000 0.0000 -13.1494 0.0000
# 6 0.0000 0.0000 0.0000 0.0000 0.0000 30.3012
#
#
#
# Elastic Compliance Matrix: (Units=1/GPa)
#
#
# Indices 1 2 3 4 5 6 
#
# 1 0.008605 -0.003744 -0.000502 0.000000 0.000000 0.000000
# 2 -0.003744 0.014992 0.004308 0.000000 0.000000 0.000000
# 3 -0.000502 0.004308 0.019040 0.000000 0.000000 0.000000
# 4 0.000000 0.000000 0.000000 0.039659 0.000000 0.000000
# 5 0.000000 0.000000 0.000000 0.000000 -0.076049 0.000000
# 6 0.000000 0.000000 0.000000 0.000000 0.000000 0.033002
#
#
# Mechanical properties :
#
#
# Convention : Reuss Voigt Hill
#
# Bulk Modulus (GPa) = 23.38499 32.43239 27.90869
# Shear Modulus (GPa) = 93.67109 25.45331 59.56220
#
# Velocity S-wave (km/s) = 6.54263 3.41053 5.21717
# Velocity P-wave (km/s) = 8.23172 5.50726 7.00325
#
# Compressibility (1/GPa) = 0.04276247
#
# Stress axis : x y z
#
# Youngs Moduli (GPa) = 116.20627 66.70270 52.52098
#
# Poissons Ratio (x) = 0.24970 0.02635
# Poissons Ratio (y) = 0.43502 -0.22625
# Poissons Ratio (z) = 0.05830 -0.28735
#
# Static dielectric constant tensor:
#      x y z
#    x 4.312770 0.000000 0.000000 
#    y 0.000000 3.986650 0.000000 
#    z 0.000000 0.000000 3.874280 
# 
# 
# High freq. dielectric constant tensor:
#      x y z
#    x 1.882790 0.000000 0.000000 
#    y 0.000000 1.878860 0.000000 
#    z 0.000000 0.000000 1.853480 
# 
# From -- ./inp_files/45467.got.cif
#   From: 2010.03.12/outbox.cif.g09.slc.cpg/sg66_23_cif.got.tgz:45467.got - 2010.04.10 21:57:39.
