data_PCOD8277018
_publ_section_title
;
Structure prediction by ZEFSAII (Michael W. Deem and Ramdas Pophale) SiO2 
 PCOD8277018
Probable space group: C C C M
;
_chemical_formula_sum "Si O2"
_cell_formula_units_Z 52
_cell_length_a 15.186173
_cell_length_b 19.218117
_cell_length_c 8.693579
_cell_angle_alpha 90.000000
_cell_angle_beta 90.000000
_cell_angle_gamma 90.000000
_cell_volume 2537.217984
_symmetry_space_group_name_H-M "C C C M"
_symmetry_group_IT_number 66
_symmetry_cell_setting 'orthorhombic'
loop_
_space_group_symop_operation_xyz
x,y,z
-x,-y,z
x,-y,1/2-z
-x,y,1/2-z
-x,-y,-z
x,y,-z
-x,y,1/2+z
x,-y,1/2+z
1/2+x,1/2+y,z
1/2-x,1/2-y,z
1/2+x,1/2-y,1/2-z
1/2-x,1/2+y,1/2-z
1/2-x,1/2-y,-z
1/2+x,1/2+y,-z
1/2-x,1/2+y,1/2+z
1/2+x,1/2-y,1/2+z
loop_
_atom_site_type_symbol
_atom_site_label
_atom_site_fract_x
_atom_site_fract_y
_atom_site_fract_z
Si Si1 0.740618 0.330134 0.179246
Si Si2 0.584128 0.131616 0.331394
Si Si3 0.000000 0.500000 0.250000
Si Si4 0.905098 0.073835 0.317758
O O1 0.750000 0.250000 0.227025
O O2 0.832624 0.365406 0.220475
O O3 0.662390 0.365200 0.274841
O O4 0.720375 0.339698 0.000000
O O5 0.500000 0.169920 0.250000
O O6 0.602384 0.164610 0.500000
O O7 0.561233 0.049912 0.354625
O O8 0.911929 0.067154 0.500000
O O9 0.000000 0.093810 0.250000
O O10 0.872261 0.000000 0.250000
#
# Coordination Sequence:
#
# PCOD8277018 Si02
#       4
#    16  16   4  16
#     4  11  25  43  63  90 126 167 211 258 310 369
#     4  10  21  37  60  89 124 161 201 249 302 365
#     4   8  22  36  62  92 124 156 196 248 302 364
#     4  11  23  42  68  95 125 161 208 262 314 370
#
# _framework density 20.494889000000001
#
# number of rings (size 3 to 8) (size 9 to 14) (size 15 to 20)
#    0.923    0.615    0.000    6.000    2.154    3.692 
#    0.000    0.000    0.000    0.000    0.000    0.000 
#    0.000    0.000    0.000    0.000    0.000    0.000 
#
# Total GULP energy -322267.273344 kJ/mol
# GULP energy per Si atom -12394.895129 kJ/mol
# Density = 2.044824 g / cm^3
# Si number density = 20.494889 Si / 1000 Ang^3
#
#
#
# Elastic Constant Matrix: (Units=GPa)
#
#
# Indices 1 2 3 4 5 6 
#
# 1 136.1427 59.1717 46.7599 0.0000 0.0000 0.0000
# 2 59.1717 103.0067 44.7158 0.0000 0.0000 0.0000
# 3 46.7599 44.7158 148.9949 0.0000 0.0000 0.0000
# 4 0.0000 0.0000 0.0000 37.6789 0.0000 0.0000
# 5 0.0000 0.0000 0.0000 0.0000 23.1907 0.0000
# 6 0.0000 0.0000 0.0000 0.0000 0.0000 7.0856
#
#
#
# Elastic Compliance Matrix: (Units=1/GPa)
#
#
# Indices 1 2 3 4 5 6 
#
# 1 0.010129 -0.005104 -0.001647 0.000000 0.000000 0.000000
# 2 -0.005104 0.013734 -0.002520 0.000000 0.000000 0.000000
# 3 -0.001647 -0.002520 0.007985 0.000000 0.000000 0.000000
# 4 0.000000 0.000000 0.000000 0.026540 0.000000 0.000000
# 5 0.000000 0.000000 0.000000 0.000000 0.043121 0.000000
# 6 0.000000 0.000000 0.000000 0.000000 0.000000 0.141132
#
#
# Mechanical properties :
#
#
# Convention : Reuss Voigt Hill
#
# Bulk Modulus (GPa) = 75.15319 76.60436 75.87878
# Shear Modulus (GPa) = 18.82402 29.42415 24.12408
#
# Velocity S-wave (km/s) = 3.03392 3.79315 3.43458
# Velocity P-wave (km/s) = 7.00155 7.52612 7.26857
#
# Compressibility (1/GPa) = 0.01330615
#
# Stress axis : x y z
#
# Youngs Moduli (GPa) = 98.72484 72.81306 125.23627
#
# Poissons Ratio (x) = 0.37161 0.20629
# Poissons Ratio (y) = 0.50385 0.31560
# Poissons Ratio (z) = 0.16262 0.18349
#
# Static dielectric constant tensor:
#      x y z
#    x 3.649160 0.000000 0.000000 
#    y 0.000000 3.655500 0.000000 
#    z 0.000000 0.000000 3.686860 
# 
# 
# High freq. dielectric constant tensor:
#      x y z
#    x 1.806350 0.000000 0.000000 
#    y 0.000000 1.784090 0.000000 
#    z 0.000000 0.000000 1.815570 
# 
# From -- ./inp_files/4726.got.cif
#   From: 2010.03.12/outbox.cif.g09.slc.cpg/sg66_3_cif.got.tgz:4726.got - 2010.04.10 21:57:39.
