data_PCOD8277800
_publ_section_title
;
Structure prediction by ZEFSAII (Michael W. Deem and Ramdas Pophale) SiO2 
 PCOD8277800
Probable space group: C C C M
;
_chemical_formula_sum "Si O2"
_cell_formula_units_Z 84
_cell_length_a 11.184102
_cell_length_b 11.183983
_cell_length_c 31.097158
_cell_angle_alpha 90.000000
_cell_angle_beta 90.000000
_cell_angle_gamma 90.000000
_cell_volume 3889.719801
_symmetry_space_group_name_H-M "C C C M"
_symmetry_group_IT_number 66
_symmetry_cell_setting 'orthorhombic'
loop_
_space_group_symop_operation_xyz
x,y,z
-x,-y,z
x,-y,1/2-z
-x,y,1/2-z
-x,-y,-z
x,y,-z
-x,y,1/2+z
x,-y,1/2+z
1/2+x,1/2+y,z
1/2-x,1/2-y,z
1/2+x,1/2-y,1/2-z
1/2-x,1/2+y,1/2-z
1/2-x,1/2-y,-z
1/2+x,1/2+y,-z
1/2-x,1/2+y,1/2+z
1/2+x,1/2-y,1/2+z
loop_
_atom_site_type_symbol
_atom_site_label
_atom_site_fract_x
_atom_site_fract_y
_atom_site_fract_z
Si Si1 0.059710 0.252036 0.864700
Si Si2 0.000000 0.000000 0.750000
Si Si3 0.248580 0.053312 0.547668
Si Si4 0.343366 0.343362 0.686784
Si Si5 0.553313 0.251412 0.047668
Si Si6 0.747972 0.059709 0.635299
O O1 0.140998 0.141002 0.850236
O O2 0.123983 0.376024 0.850471
O O3 0.931802 0.235859 0.842512
O O4 0.048664 0.252478 0.916376
O O5 0.914595 0.914594 0.722773
O O6 0.253889 0.995061 0.500000
O O7 0.360897 0.139098 0.554541
O O8 0.126253 0.126256 0.552803
O O9 0.252467 0.951333 0.583624
O O10 0.250000 0.250000 0.708267
O O11 0.264153 0.431798 0.657485
O O12 0.495064 0.246101 0.000000
#
# Coordination Sequence:
#
# PCOD8277800 Si02
#       6
#    16   4  16  16  16  16
#     4  11  23  40  65  98 137 179 226 274 326 391
#     4  12  28  52  76 108 138 164 208 260 344 412
#     4   9  18  33  55  87 129 178 230 280 329 378
#     4  12  26  48  77 103 135 172 211 269 332 399
#     4   9  18  33  55  87 129 178 230 280 329 378
#     4  11  23  40  65  98 137 179 226 274 326 391
#
# _framework density 21.595386000000001
#
# number of rings (size 3 to 8) (size 9 to 14) (size 15 to 20)
#    0.000    1.524    3.810    2.286    0.000    6.095 
#    0.000    5.714    0.000    0.000    0.000    0.000 
#    0.000    0.000    0.000    0.000    0.000    0.000 
#
# Total GULP energy -520755.970027 kJ/mol
# GULP energy per Si atom -12398.951667 kJ/mol
# Density = 2.154623 g / cm^3
# Si number density = 21.595386 Si / 1000 Ang^3
#
#
#
# Elastic Constant Matrix: (Units=GPa)
#
#
# Indices 1 2 3 4 5 6 
#
# 1 92.8755 74.6400 43.0024 0.0000 0.0000 0.0000
# 2 74.6400 92.8434 42.9958 0.0000 0.0000 0.0000
# 3 43.0024 42.9958 100.9930 0.0000 0.0000 0.0000
# 4 0.0000 0.0000 0.0000 16.3001 0.0000 0.0000
# 5 0.0000 0.0000 0.0000 0.0000 16.3028 0.0000
# 6 0.0000 0.0000 0.0000 0.0000 0.0000 36.5769
#
#
#
# Elastic Compliance Matrix: (Units=1/GPa)
#
#
# Indices 1 2 3 4 5 6 
#
# 1 0.031258 -0.023623 -0.003252 0.000000 0.000000 0.000000
# 2 -0.023623 0.031269 -0.003254 0.000000 0.000000 0.000000
# 3 -0.003252 -0.003254 0.012672 0.000000 0.000000 0.000000
# 4 0.000000 0.000000 0.000000 0.061349 0.000000 0.000000
# 5 0.000000 0.000000 0.000000 0.000000 0.061339 0.000000
# 6 0.000000 0.000000 0.000000 0.000000 0.000000 0.027340
#
#
# Mechanical properties :
#
#
# Convention : Reuss Voigt Hill
#
# Bulk Modulus (GPa) = 66.93246 67.55427 67.24337
# Shear Modulus (GPa) = 17.21378 22.24087 19.72732
#
# Velocity S-wave (km/s) = 2.82637 3.21267 3.02569
# Velocity P-wave (km/s) = 6.45851 6.71650 6.58877
#
# Compressibility (1/GPa) = 0.01494043
#
# Stress axis : x y z
#
# Youngs Moduli (GPa) = 31.99190 31.98051 78.91628
#
# Poissons Ratio (x) = 0.75548 0.25667
# Poissons Ratio (y) = 0.75575 0.25676
# Poissons Ratio (z) = 0.10405 0.10405
#
# Static dielectric constant tensor:
#      x y z
#    x 3.793950 0.000000 0.000000 
#    y 0.000000 3.793900 0.000000 
#    z 0.000000 0.000000 3.825530 
# 
# 
# High freq. dielectric constant tensor:
#      x y z
#    x 1.844280 0.000000 0.000000 
#    y 0.000000 1.844280 0.000000 
#    z 0.000000 0.000000 1.833060 
# 
# From -- ./inp_files/68899.got.cif
#   From: 2010.03.12/outbox.cif.g09.slc.cpg/sg66_35_cif.got.tgz:68899.got - 2010.04.10 21:57:39.
