data_PCOD8277393
_publ_section_title
;
Structure prediction by ZEFSAII (Michael W. Deem and Ramdas Pophale) SiO2 
 PCOD8277393
Probable space group: C C C M
;
_chemical_formula_sum "Si O2"
_cell_formula_units_Z 64
_cell_length_a 19.072369
_cell_length_b 5.244810
_cell_length_c 28.485618
_cell_angle_alpha 90.000000
_cell_angle_beta 90.000000
_cell_angle_gamma 90.000000
_cell_volume 2849.443477
_symmetry_space_group_name_H-M "C C C M"
_symmetry_group_IT_number 66
_symmetry_cell_setting 'orthorhombic'
loop_
_space_group_symop_operation_xyz
x,y,z
-x,-y,z
x,-y,1/2-z
-x,y,1/2-z
-x,-y,-z
x,y,-z
-x,y,1/2+z
x,-y,1/2+z
1/2+x,1/2+y,z
1/2-x,1/2-y,z
1/2+x,1/2-y,1/2-z
1/2-x,1/2+y,1/2-z
1/2-x,1/2-y,-z
1/2+x,1/2+y,-z
1/2-x,1/2+y,1/2+z
1/2+x,1/2-y,1/2+z
loop_
_atom_site_type_symbol
_atom_site_label
_atom_site_fract_x
_atom_site_fract_y
_atom_site_fract_z
Si Si1 0.956779 0.264358 0.349101
Si Si2 0.433090 0.672261 0.550419
Si Si3 0.330127 0.250462 0.219666
Si Si4 0.217195 0.001533 0.446118
O O1 0.941513 0.345954 0.403457
O O2 0.882216 0.237780 0.324198
O O3 0.000000 0.500000 0.326551
O O4 0.000000 0.000000 0.345154
O O5 0.500000 0.500000 0.544948
O O6 0.423370 0.823987 0.500000
O O7 0.366419 0.489481 0.558820
O O8 0.345183 0.500000 0.250000
O O9 0.250000 0.250000 0.201119
O O10 0.345832 0.000000 0.250000
O O11 0.242383 0.003384 0.500000
O O12 0.250000 0.750000 0.421722
O O13 0.250000 0.250000 0.420580
#
# Coordination Sequence:
#
# PCOD8277393 Si02
#       4
#    16  16  16  16
#     4  11  24  40  61  92 125 161 206 251 301 361
#     4   9  20  39  60  85 123 167 208 252 301 356
#     4  10  22  42  67  94 124 158 197 247 310 373
#     4   9  18  33  53  77 105 143 195 248 294 341
#
# _framework density 22.460526999999999
#
# number of rings (size 3 to 8) (size 9 to 14) (size 15 to 20)
#    0.000    2.250    0.000    1.500    0.000    8.500 
#    0.000   11.250    0.000    0.000    0.000    0.000 
#    0.000    0.000    0.000    0.000    0.000    0.000 
#
# Total GULP energy -396510.836437 kJ/mol
# GULP energy per Si atom -12390.963639 kJ/mol
# Density = 2.240941 g / cm^3
# Si number density = 22.460527 Si / 1000 Ang^3
#
#
#
# Elastic Constant Matrix: (Units=GPa)
#
#
# Indices 1 2 3 4 5 6 
#
# 1 175.7222 62.9581 61.5857 0.0000 0.0000 0.0000
# 2 62.9581 162.9770 29.7258 0.0000 0.0000 0.0000
# 3 61.5857 29.7258 118.4911 0.0000 0.0000 0.0000
# 4 0.0000 0.0000 0.0000 14.7370 0.0000 0.0000
# 5 0.0000 0.0000 0.0000 0.0000 49.0190 0.0000
# 6 0.0000 0.0000 0.0000 0.0000 0.0000 42.9308
#
#
#
# Elastic Compliance Matrix: (Units=1/GPa)
#
#
# Indices 1 2 3 4 5 6 
#
# 1 0.007740 -0.002364 -0.003430 0.000000 0.000000 0.000000
# 2 -0.002364 0.007152 -0.000565 0.000000 0.000000 0.000000
# 3 -0.003430 -0.000565 0.010364 0.000000 0.000000 0.000000
# 4 0.000000 0.000000 0.000000 0.067857 0.000000 0.000000
# 5 0.000000 0.000000 0.000000 0.000000 0.020400 0.000000
# 6 0.000000 0.000000 0.000000 0.000000 0.000000 0.023293
#
#
# Mechanical properties :
#
#
# Convention : Reuss Voigt Hill
#
# Bulk Modulus (GPa) = 79.76278 85.08106 82.42192
# Shear Modulus (GPa) = 32.53000 41.53207 37.03103
#
# Velocity S-wave (km/s) = 3.80981 4.30480 4.06484
# Velocity P-wave (km/s) = 7.41231 7.91649 7.66855
#
# Compressibility (1/GPa) = 0.01253718
#
# Stress axis : x y z
#
# Youngs Moduli (GPa) = 129.20033 139.81463 96.48912
#
# Poissons Ratio (x) = 0.33058 0.33093
# Poissons Ratio (y) = 0.30548 0.05456
# Poissons Ratio (z) = 0.44311 0.07905
#
# Static dielectric constant tensor:
#      x y z
#    x 4.162300 0.000000 0.000000 
#    y 0.000000 4.074110 0.000000 
#    z 0.000000 0.000000 4.100470 
# 
# 
# High freq. dielectric constant tensor:
#      x y z
#    x 1.907400 0.000000 0.000000 
#    y 0.000000 1.872140 0.000000 
#    z 0.000000 0.000000 1.860170 
# 
# From -- ./inp_files/66952.got.cif
#   From: 2010.03.12/outbox.cif.g09.slc.cpg/sg66_34_cif.got.tgz:66952.got - 2010.04.10 21:57:39.
