data_PCOD8277892
_publ_section_title
;
Structure prediction by ZEFSAII (Michael W. Deem and Ramdas Pophale) SiO2 
 PCOD8277892
Probable space group: C C C M
;
_chemical_formula_sum "Si O2"
_cell_formula_units_Z 64
_cell_length_a 12.384471
_cell_length_b 25.097575
_cell_length_c 9.927151
_cell_angle_alpha 90.000000
_cell_angle_beta 90.000000
_cell_angle_gamma 90.000000
_cell_volume 3085.558958
_symmetry_space_group_name_H-M "C C C M"
_symmetry_group_IT_number 66
_symmetry_cell_setting 'orthorhombic'
loop_
_space_group_symop_operation_xyz
x,y,z
-x,-y,z
x,-y,1/2-z
-x,y,1/2-z
-x,-y,-z
x,y,-z
-x,y,1/2+z
x,-y,1/2+z
1/2+x,1/2+y,z
1/2-x,1/2-y,z
1/2+x,1/2-y,1/2-z
1/2-x,1/2+y,1/2-z
1/2-x,1/2-y,-z
1/2+x,1/2+y,-z
1/2-x,1/2+y,1/2+z
1/2+x,1/2-y,1/2+z
loop_
_atom_site_type_symbol
_atom_site_label
_atom_site_fract_x
_atom_site_fract_y
_atom_site_fract_z
Si Si1 0.500000 0.134398 0.750000
Si Si2 0.202277 0.305458 0.845870
Si Si3 0.619710 0.384761 0.730585
Si Si4 0.278106 0.571781 0.000000
Si Si5 0.391349 0.532071 0.500000
Si Si6 0.472453 0.063415 0.500000
O O1 0.394498 0.172917 0.749461
O O2 0.520985 0.093680 0.627881
O O3 0.250000 0.250000 0.788757
O O4 0.304416 0.343955 0.845974
O O5 0.160022 0.299181 0.000000
O O6 0.500000 0.360059 0.750000
O O7 0.611942 0.436065 0.637598
O O8 0.669309 0.400133 0.872760
O O9 0.291953 0.508357 0.000000
O O10 0.151736 0.578633 0.000000
O O11 0.500000 0.500000 0.500000
O O12 0.500000 0.000000 0.500000
#
# Coordination Sequence:
#
# PCOD8277892 Si02
#       6
#     8  16  16   8   8   8
#     4  12  25  50  70 104 142 180 237 294 344 416
#     4  11  26  48  74 100 134 183 230 292 357 407
#     4  12  24  43  66 100 139 179 229 281 338 412
#     4  12  26  40  64 101 140 181 230 278 342 407
#     4  12  24  40  62  96 140 189 218 270 336 410
#     4  12  28  44  70 103 144 192 233 283 346 423
#
# _framework density 20.741785
#
# number of rings (size 3 to 8) (size 9 to 14) (size 15 to 20)
#    0.000    0.250    7.500    1.125    5.250    2.000 
#    0.000    2.500    0.000    0.000    0.000    0.000 
#    0.000    0.000    0.000    0.000    0.000    0.000 
#
# Total GULP energy -396776.967020 kJ/mol
# GULP energy per Si atom -12399.280219 kJ/mol
# Density = 2.069458 g / cm^3
# Si number density = 20.741785 Si / 1000 Ang^3
#
#
#
# Elastic Constant Matrix: (Units=GPa)
#
#
# Indices 1 2 3 4 5 6 
#
# 1 120.8996 44.3015 12.3133 0.0000 0.0000 0.0000
# 2 44.3015 129.1669 36.3037 0.0000 0.0000 0.0000
# 3 12.3133 36.3037 114.6356 0.0000 0.0000 0.0000
# 4 0.0000 0.0000 0.0000 41.6152 0.0000 0.0000
# 5 0.0000 0.0000 0.0000 0.0000 36.4526 0.0000
# 6 0.0000 0.0000 0.0000 0.0000 0.0000 40.7615
#
#
#
# Elastic Compliance Matrix: (Units=1/GPa)
#
#
# Indices 1 2 3 4 5 6 
#
# 1 0.009460 -0.003248 0.000013 0.000000 0.000000 0.000000
# 2 -0.003248 0.009614 -0.002696 0.000000 0.000000 0.000000
# 3 0.000013 -0.002696 0.009576 0.000000 0.000000 0.000000
# 4 0.000000 0.000000 0.000000 0.024030 0.000000 0.000000
# 5 0.000000 0.000000 0.000000 0.000000 0.027433 0.000000
# 6 0.000000 0.000000 0.000000 0.000000 0.000000 0.024533
#
#
# Mechanical properties :
#
#
# Convention : Reuss Voigt Hill
#
# Bulk Modulus (GPa) = 59.57020 61.17103 60.37061
# Shear Modulus (GPa) = 40.94891 41.88475 41.41683
#
# Velocity S-wave (km/s) = 4.44804 4.49858 4.47338
# Velocity P-wave (km/s) = 7.42714 7.51922 7.47332
#
# Compressibility (1/GPa) = 0.01678692
#
# Stress axis : x y z
#
# Youngs Moduli (GPa) = 105.70487 104.01907 104.43189
#
# Poissons Ratio (x) = 0.33787 -0.00131
# Poissons Ratio (y) = 0.34335 0.28151
# Poissons Ratio (z) = -0.00132 0.28040
#
# Static dielectric constant tensor:
#      x y z
#    x 4.014980 0.000000 0.000000 
#    y 0.000000 3.270160 0.000000 
#    z 0.000000 0.000000 3.795570 
# 
# 
# High freq. dielectric constant tensor:
#      x y z
#    x 1.826490 0.000000 0.000000 
#    y 0.000000 1.811080 0.000000 
#    z 0.000000 0.000000 1.818660 
# 
# From -- ./inp_files/14720.got.cif
#   From: 2010.03.12/outbox.cif.g09.slc.cpg/sg66_8_cif.got.tgz:14720.got - 2010.04.10 21:57:39.
