data_PCOD8277340
_publ_section_title
;
Structure prediction by ZEFSAII (Michael W. Deem and Ramdas Pophale) SiO2 
 PCOD8277340
Probable space group: C C C M
;
_chemical_formula_sum "Si O2"
_cell_formula_units_Z 80
_cell_length_a 29.068862
_cell_length_b 4.854159
_cell_length_c 25.269194
_cell_angle_alpha 90.000000
_cell_angle_beta 90.000000
_cell_angle_gamma 90.000000
_cell_volume 3565.606539
_symmetry_space_group_name_H-M "C C C M"
_symmetry_group_IT_number 66
_symmetry_cell_setting 'orthorhombic'
loop_
_space_group_symop_operation_xyz
x,y,z
-x,-y,z
x,-y,1/2-z
-x,y,1/2-z
-x,-y,-z
x,y,-z
-x,y,1/2+z
x,-y,1/2+z
1/2+x,1/2+y,z
1/2-x,1/2-y,z
1/2+x,1/2-y,1/2-z
1/2-x,1/2+y,1/2-z
1/2-x,1/2-y,-z
1/2+x,1/2+y,-z
1/2-x,1/2+y,1/2+z
1/2+x,1/2-y,1/2+z
loop_
_atom_site_type_symbol
_atom_site_label
_atom_site_fract_x
_atom_site_fract_y
_atom_site_fract_z
Si Si1 0.632279 0.809418 0.000000
Si Si2 0.571705 0.000000 0.250000
Si Si3 0.802113 0.260948 0.836549
Si Si4 0.500000 0.000000 0.662267
Si Si5 0.132881 0.000000 0.250000
Si Si6 0.500000 0.500000 0.088691
Si Si7 0.802221 0.238241 0.594699
Si Si8 0.569634 0.318815 0.000000
O O1 0.663346 0.853868 0.051163
O O2 0.615595 0.496641 0.000000
O O3 0.586887 0.002865 0.000000
O O4 0.541522 0.898215 0.300044
O O5 0.600991 0.743503 0.227353
O O6 0.750000 0.250000 0.814837
O O7 0.836433 0.156865 0.792477
O O8 0.810913 0.577077 0.852793
O O9 0.810486 0.077464 0.889021
O O10 0.517248 0.251359 0.625667
O O11 0.540944 0.381596 0.052746
O O12 0.750000 0.250000 0.573296
#
# Coordination Sequence:
#
# PCOD8277340 Si02
#       8
#     8   8  16   8   8   8  16   8
#     4  12  23  39  64  92 126 158 200 261 307 349
#     4  11  26  41  62  99 120 153 216 253 306 389
#     4  10  23  40  60  88 124 166 208 247 301 365
#     4  11  24  45  68  86 124 167 196 253 322 376
#     4  12  24  40  64  93 128 159 204 268 308 354
#     4  11  24  45  66  86 124 165 196 251 318 372
#     4  10  22  40  60  88 124 165 208 247 299 365
#     4  11  26  40  61  98 120 152 213 250 299 386
#
# _framework density 22.436577
#
# number of rings (size 3 to 8) (size 9 to 14) (size 15 to 20)
#    0.000    1.200    0.000    5.100    0.000   16.000 
#    0.000    4.000    0.000    0.000    0.000    0.000 
#    0.000    0.000    0.000    0.000    0.000    0.000 
#
# Total GULP energy -496030.807941 kJ/mol
# GULP energy per Si atom -12400.770199 kJ/mol
# Density = 2.238551 g / cm^3
# Si number density = 22.436577 Si / 1000 Ang^3
#
#
#
# Elastic Constant Matrix: (Units=GPa)
#
#
# Indices 1 2 3 4 5 6 
#
# 1 112.8531 27.7558 51.6233 0.0000 0.0000 0.0000
# 2 27.7558 98.8734 16.1788 0.0000 0.0000 0.0000
# 3 51.6233 16.1788 97.7956 0.0000 0.0000 0.0000
# 4 0.0000 0.0000 0.0000 26.4971 0.0000 0.0000
# 5 0.0000 0.0000 0.0000 0.0000 23.5764 0.0000
# 6 0.0000 0.0000 0.0000 0.0000 0.0000 45.5387
#
#
#
# Elastic Compliance Matrix: (Units=1/GPa)
#
#
# Indices 1 2 3 4 5 6 
#
# 1 0.012230 -0.002443 -0.006052 0.000000 0.000000 0.000000
# 2 -0.002443 0.010883 -0.000511 0.000000 0.000000 0.000000
# 3 -0.006052 -0.000511 0.013504 0.000000 0.000000 0.000000
# 4 0.000000 0.000000 0.000000 0.037740 0.000000 0.000000
# 5 0.000000 0.000000 0.000000 0.000000 0.042415 0.000000
# 6 0.000000 0.000000 0.000000 0.000000 0.000000 0.021959
#
#
# Mechanical properties :
#
#
# Convention : Reuss Voigt Hill
#
# Bulk Modulus (GPa) = 53.74424 55.62643 54.68533
# Shear Modulus (GPa) = 30.68493 33.38670 32.03581
#
# Velocity S-wave (km/s) = 3.70216 3.86171 3.78277
# Velocity P-wave (km/s) = 6.50235 6.68807 6.59586
#
# Compressibility (1/GPa) = 0.01860665
#
# Stress axis : x y z
#
# Youngs Moduli (GPa) = 81.76443 91.88349 74.04946
#
# Poissons Ratio (x) = 0.22447 0.44813
# Poissons Ratio (y) = 0.19975 0.03783
# Poissons Ratio (z) = 0.49482 0.04694
#
# Static dielectric constant tensor:
#      x y z
#    x 4.066350 0.000000 0.000000 
#    y 0.000000 4.213820 0.000000 
#    z 0.000000 0.000000 3.822970 
# 
# 
# High freq. dielectric constant tensor:
#      x y z
#    x 1.888950 0.000000 0.000000 
#    y 0.000000 1.901190 0.000000 
#    z 0.000000 0.000000 1.875060 
# 
# From -- ./inp_files/60389.got.cif
#   From: 2010.03.12/outbox.cif.g09.slc.cpg/sg66_31_cif.got.tgz:60389.got - 2010.04.10 21:57:39.
