data_PCOD8277799
_publ_section_title
;
Structure prediction by ZEFSAII (Michael W. Deem and Ramdas Pophale) SiO2 
 PCOD8277799
Probable space group: C C C M
;
_chemical_formula_sum "Si O2"
_cell_formula_units_Z 88
_cell_length_a 21.459979
_cell_length_b 12.426244
_cell_length_c 15.457974
_cell_angle_alpha 90.000000
_cell_angle_beta 90.000000
_cell_angle_gamma 90.000000
_cell_volume 4122.130552
_symmetry_space_group_name_H-M "C C C M"
_symmetry_group_IT_number 66
_symmetry_cell_setting 'orthorhombic'
loop_
_space_group_symop_operation_xyz
x,y,z
-x,-y,z
x,-y,1/2-z
-x,y,1/2-z
-x,-y,-z
x,y,-z
-x,y,1/2+z
x,-y,1/2+z
1/2+x,1/2+y,z
1/2-x,1/2-y,z
1/2+x,1/2-y,1/2-z
1/2-x,1/2+y,1/2-z
1/2-x,1/2-y,-z
1/2+x,1/2+y,-z
1/2-x,1/2+y,1/2+z
1/2+x,1/2-y,1/2+z
loop_
_atom_site_type_symbol
_atom_site_label
_atom_site_fract_x
_atom_site_fract_y
_atom_site_fract_z
Si Si1 0.127492 0.873823 0.750067
Si Si2 0.177461 0.260338 0.593780
Si Si3 0.333739 0.997447 0.648916
Si Si4 0.959944 0.394146 0.403309
Si Si5 0.783302 0.137916 0.595154
Si Si6 0.000000 0.242125 0.750000
O O1 0.161252 0.825088 0.833022
O O2 0.160260 0.839378 0.660883
O O3 0.057573 0.836188 0.758313
O O4 0.131092 0.000000 0.750000
O O5 0.146978 0.231169 0.500000
O O6 0.250000 0.250000 0.584194
O O7 0.156754 0.381767 0.615198
O O8 0.343173 0.000000 0.750000
O O9 0.386876 0.919392 0.610820
O O10 0.265140 0.953311 0.626605
O O11 0.967157 0.346061 0.500000
O O12 0.000000 0.500000 0.391834
O O13 0.989611 0.312144 0.335452
O O14 0.808903 0.103505 0.500000
O O15 0.750000 0.250000 0.586579
#
# Coordination Sequence:
#
# PCOD8277799 Si02
#       6
#    16  16  16  16  16   8
#     4  12  26  44  64  88 122 168 222 280 342 410
#     4  11  23  40  65  98 134 172 216 270 335 408
#     4  12  22  38  67 102 142 182 224 272 337 417
#     4  11  23  40  65  98 134 172 216 270 335 408
#     4  11  23  40  65  98 134 172 216 270 335 408
#     4  12  26  44  64  88 122 168 222 280 342 410
#
# _framework density 21.348182999999999
#
# number of rings (size 3 to 8) (size 9 to 14) (size 15 to 20)
#    0.000    0.545    0.000   10.909    0.000    6.545 
#    0.000    0.000    0.000    3.273    0.000    0.000 
#    0.000    0.000    0.000    0.000    0.000    0.000 
#
# Total GULP energy -545546.288027 kJ/mol
# GULP energy per Si atom -12398.779273 kJ/mol
# Density = 2.129959 g / cm^3
# Si number density = 21.348183 Si / 1000 Ang^3
#
#
#
# Elastic Constant Matrix: (Units=GPa)
#
#
# Indices 1 2 3 4 5 6 
#
# 1 91.8573 21.6745 33.6641 0.0000 0.0000 0.0000
# 2 21.6745 95.0140 46.5965 0.0000 0.0000 0.0000
# 3 33.6641 46.5965 150.7630 0.0000 0.0000 0.0000
# 4 0.0000 0.0000 0.0000 88.3559 0.0000 0.0000
# 5 0.0000 0.0000 0.0000 0.0000 64.1508 0.0000
# 6 0.0000 0.0000 0.0000 0.0000 0.0000 38.5283
#
#
#
# Elastic Compliance Matrix: (Units=1/GPa)
#
#
# Indices 1 2 3 4 5 6 
#
# 1 0.012082 -0.001689 -0.002176 0.000000 0.000000 0.000000
# 2 -0.001689 0.012641 -0.003530 0.000000 0.000000 0.000000
# 3 -0.002176 -0.003530 0.008210 0.000000 0.000000 0.000000
# 4 0.000000 0.000000 0.000000 0.011318 0.000000 0.000000
# 5 0.000000 0.000000 0.000000 0.000000 0.015588 0.000000
# 6 0.000000 0.000000 0.000000 0.000000 0.000000 0.025955
#
#
# Mechanical properties :
#
#
# Convention : Reuss Voigt Hill
#
# Bulk Modulus (GPa) = 55.11564 60.16717 57.64140
# Shear Modulus (GPa) = 46.89021 53.92028 50.40524
#
# Velocity S-wave (km/s) = 4.69171 5.03114 4.86439
# Velocity P-wave (km/s) = 7.43122 7.87368 7.65565
#
# Compressibility (1/GPa) = 0.01814367
#
# Stress axis : x y z
#
# Youngs Moduli (GPa) = 82.76478 79.10641 121.80639
#
# Poissons Ratio (x) = 0.13362 0.26503
# Poissons Ratio (y) = 0.13980 0.42996
# Poissons Ratio (z) = 0.18008 0.27923
#
# Static dielectric constant tensor:
#      x y z
#    x 4.073500 0.000000 0.000000 
#    y 0.000000 4.010830 0.000000 
#    z 0.000000 0.000000 17.957460 
# 
# 
# High freq. dielectric constant tensor:
#      x y z
#    x 1.836760 0.000000 0.000000 
#    y 0.000000 1.838080 0.000000 
#    z 0.000000 0.000000 1.863520 
# 
# From -- ./inp_files/32197.got.cif
#   From: 2010.03.12/outbox.cif.g09.slc.cpg/sg66_17_cif.got.tgz:32197.got - 2010.04.10 21:57:39.
