data_PCOD8277230
_publ_section_title
;
Structure prediction by ZEFSAII (Michael W. Deem and Ramdas Pophale) SiO2 
 PCOD8277230
Probable space group: C C C M
;
_chemical_formula_sum "Si O2"
_cell_formula_units_Z 88
_cell_length_a 13.392629
_cell_length_b 14.396199
_cell_length_c 23.927053
_cell_angle_alpha 90.000000
_cell_angle_beta 90.000000
_cell_angle_gamma 90.000000
_cell_volume 4613.206456
_symmetry_space_group_name_H-M "C C C M"
_symmetry_group_IT_number 66
_symmetry_cell_setting 'orthorhombic'
loop_
_space_group_symop_operation_xyz
x,y,z
-x,-y,z
x,-y,1/2-z
-x,y,1/2-z
-x,-y,-z
x,y,-z
-x,y,1/2+z
x,-y,1/2+z
1/2+x,1/2+y,z
1/2-x,1/2-y,z
1/2+x,1/2-y,1/2-z
1/2-x,1/2+y,1/2-z
1/2-x,1/2-y,-z
1/2+x,1/2+y,-z
1/2-x,1/2+y,1/2+z
1/2+x,1/2-y,1/2+z
loop_
_atom_site_type_symbol
_atom_site_label
_atom_site_fract_x
_atom_site_fract_y
_atom_site_fract_z
Si Si1 0.235768 0.646423 0.936782
Si Si2 0.457796 0.401691 0.563422
Si Si3 0.582615 0.926396 0.351024
Si Si4 0.285680 0.000000 0.250000
Si Si5 0.992766 0.222611 0.165084
Si Si6 0.163577 0.821681 0.745709
O O1 0.250000 0.750000 0.911032
O O2 0.338631 0.590602 0.933872
O O3 0.155160 0.588624 0.902983
O O4 0.195970 0.656225 0.000000
O O5 0.500000 0.500000 0.584508
O O6 0.493319 0.379880 0.500000
O O7 0.497176 0.318807 0.602702
O O8 0.644156 0.965391 0.299304
O O9 0.529383 0.831384 0.333945
O O10 0.500000 0.000000 0.370001
O O11 0.212939 0.081149 0.229422
O O12 0.908444 0.167682 0.200406
O O13 0.101450 0.212262 0.192310
O O14 0.250000 0.750000 0.761552
#
# Coordination Sequence:
#
# PCOD8277230 Si02
#       6
#    16  16  16   8  16  16
#     4  10  21  41  68  94 121 164 214 261 316 378
#     4  10  22  40  66  95 126 161 208 268 322 375
#     4  12  25  40  63  93 130 170 207 262 318 383
#     4  12  25  39  64  88 126 168 215 259 318 370
#     4  11  24  40  64  90 126 165 212 256 322 376
#     4  11  24  41  60  88 125 166 209 260 308 378
#
# _framework density 19.075669000000001
#
# number of rings (size 3 to 8) (size 9 to 14) (size 15 to 20)
#    0.000    1.091    3.636    2.455    7.636    1.091 
#    0.000    0.000    0.000    0.545    0.000    0.000 
#    0.000    0.000    0.000    0.000    0.000    0.000 
#
# Total GULP energy -545840.024035 kJ/mol
# GULP energy per Si atom -12405.455092 kJ/mol
# Density = 1.903225 g / cm^3
# Si number density = 19.075669 Si / 1000 Ang^3
#
#
#
# Elastic Constant Matrix: (Units=GPa)
#
#
# Indices 1 2 3 4 5 6 
#
# 1 102.7003 57.5465 41.9690 0.0000 0.0000 0.0000
# 2 57.5465 141.7336 47.0285 0.0000 0.0000 0.0000
# 3 41.9690 47.0285 106.5657 0.0000 0.0000 0.0000
# 4 0.0000 0.0000 0.0000 30.7502 0.0000 0.0000
# 5 0.0000 0.0000 0.0000 0.0000 13.4409 0.0000
# 6 0.0000 0.0000 0.0000 0.0000 0.0000 49.8108
#
#
#
# Elastic Compliance Matrix: (Units=1/GPa)
#
#
# Indices 1 2 3 4 5 6 
#
# 1 0.013590 -0.004384 -0.003418 0.000000 0.000000 0.000000
# 2 -0.004384 0.009680 -0.002545 0.000000 0.000000 0.000000
# 3 -0.003418 -0.002545 0.011853 0.000000 0.000000 0.000000
# 4 0.000000 0.000000 0.000000 0.032520 0.000000 0.000000
# 5 0.000000 0.000000 0.000000 0.000000 0.074400 0.000000
# 6 0.000000 0.000000 0.000000 0.000000 0.000000 0.020076
#
#
# Mechanical properties :
#
#
# Convention : Reuss Voigt Hill
#
# Bulk Modulus (GPa) = 69.30193 71.56530 70.43361
# Shear Modulus (GPa) = 26.64928 32.43076 29.54002
#
# Velocity S-wave (km/s) = 3.74174 4.12771 3.93946
# Velocity P-wave (km/s) = 7.42135 7.76630 7.59578
#
# Compressibility (1/GPa) = 0.01442961
#
# Stress axis : x y z
#
# Youngs Moduli (GPa) = 73.58295 103.30576 84.36590
#
# Poissons Ratio (x) = 0.45288 0.28833
# Poissons Ratio (y) = 0.32258 0.21474
# Poissons Ratio (z) = 0.25148 0.26295
#
# Static dielectric constant tensor:
#      x y z
#    x 3.615590 0.000000 0.000000 
#    y 0.000000 6.238220 0.000000 
#    z 0.000000 0.000000 3.618270 
# 
# 
# High freq. dielectric constant tensor:
#      x y z
#    x 1.747340 0.000000 0.000000 
#    y 0.000000 1.744480 0.000000 
#    z 0.000000 0.000000 1.743150 
# 
# From -- ./inp_files/56721.got.cif
#   From: 2010.03.12/outbox.cif.g09.slc.cpg/sg66_29_cif.got.tgz:56721.got - 2010.04.10 21:57:39.
