data_PCOD8277205
_publ_section_title
;
Structure prediction by ZEFSAII (Michael W. Deem and Ramdas Pophale) SiO2 
 PCOD8277205
Probable space group: C C C M
;
_chemical_formula_sum "Si O2"
_cell_formula_units_Z 112
_cell_length_a 32.138478
_cell_length_b 11.357659
_cell_length_c 15.713061
_cell_angle_alpha 90.000000
_cell_angle_beta 90.000000
_cell_angle_gamma 90.000000
_cell_volume 5735.548119
_symmetry_space_group_name_H-M "C C C M"
_symmetry_group_IT_number 66
_symmetry_cell_setting 'orthorhombic'
loop_
_space_group_symop_operation_xyz
x,y,z
-x,-y,z
x,-y,1/2-z
-x,y,1/2-z
-x,-y,-z
x,y,-z
-x,y,1/2+z
x,-y,1/2+z
1/2+x,1/2+y,z
1/2-x,1/2-y,z
1/2+x,1/2-y,1/2-z
1/2-x,1/2+y,1/2-z
1/2-x,1/2-y,-z
1/2+x,1/2+y,-z
1/2-x,1/2+y,1/2+z
1/2+x,1/2-y,1/2+z
loop_
_atom_site_type_symbol
_atom_site_label
_atom_site_fract_x
_atom_site_fract_y
_atom_site_fract_z
Si Si1 0.081913 0.259907 0.134277
Si Si2 0.153710 0.127548 0.596555
Si Si3 0.718558 0.360501 0.245984
Si Si4 0.837364 0.136999 0.406952
Si Si5 0.076630 0.258778 0.669596
Si Si6 0.999528 0.869722 0.596364
Si Si7 0.546987 0.989530 0.597847
O O1 0.125412 0.230022 0.090848
O O2 0.088333 0.238553 0.233594
O O3 0.071779 0.391502 0.108680
O O4 0.045960 0.178286 0.097680
O O5 0.169345 0.154012 0.500000
O O6 0.189501 0.158528 0.663952
O O7 0.111849 0.200541 0.611743
O O8 0.142243 0.990886 0.608429
O O9 0.735232 0.500000 0.250000
O O10 0.750000 0.250000 0.237907
O O11 0.695373 0.333643 0.333971
O O12 0.815129 0.141932 0.500000
O O13 0.030907 0.207417 0.653400
O O14 0.073800 0.396863 0.651018
O O15 0.982499 0.869418 0.500000
O O16 0.000000 0.000000 0.634792
O O17 0.544687 0.948470 0.500000
O O18 0.500000 0.000000 0.634173
#
# Coordination Sequence:
#
# PCOD8277205 Si02
#       7
#    16  16  16  16  16  16  16
#     4  12  23  37  58  85 118 158 207 255 305 359
#     4  10  21  40  66  93 125 164 204 250 306 364
#     4  10  22  44  70  99 130 161 199 250 311 382
#     4  10  21  40  66  93 125 164 204 250 306 364
#     4  12  23  37  58  85 118 158 207 255 305 359
#     4  11  23  36  53  80 115 157 205 254 300 353
#     4  11  23  39  57  77 114 166 212 255 307 363
#
# _framework density 19.527339999999999
#
# number of rings (size 3 to 8) (size 9 to 14) (size 15 to 20)
#    0.000    1.143    2.857    4.286    0.000    5.714 
#    2.571    0.000    0.000    0.000    0.000    0.000 
#    0.000    0.000    0.000    0.000    0.000    0.000 
#
# Total GULP energy -694322.971559 kJ/mol
# GULP energy per Si atom -12398.624492 kJ/mol
# Density = 1.948290 g / cm^3
# Si number density = 19.527340 Si / 1000 Ang^3
#
#
#
# Elastic Constant Matrix: (Units=GPa)
#
#
# Indices 1 2 3 4 5 6 
#
# 1 84.3771 48.4372 33.3155 0.0000 0.0000 0.0000
# 2 48.4372 125.6726 18.1006 0.0000 0.0000 0.0000
# 3 33.3155 18.1006 119.5090 0.0000 0.0000 0.0000
# 4 0.0000 0.0000 0.0000 26.7687 0.0000 0.0000
# 5 0.0000 0.0000 0.0000 0.0000 25.3546 0.0000
# 6 0.0000 0.0000 0.0000 0.0000 0.0000 40.7158
#
#
#
# Elastic Compliance Matrix: (Units=1/GPa)
#
#
# Indices 1 2 3 4 5 6 
#
# 1 0.016730 -0.005905 -0.003769 0.000000 0.000000 0.000000
# 2 -0.005905 0.010219 0.000098 0.000000 0.000000 0.000000
# 3 -0.003769 0.000098 0.009403 0.000000 0.000000 0.000000
# 4 0.000000 0.000000 0.000000 0.037357 0.000000 0.000000
# 5 0.000000 0.000000 0.000000 0.000000 0.039441 0.000000
# 6 0.000000 0.000000 0.000000 0.000000 0.000000 0.024560
#
#
# Mechanical properties :
#
#
# Convention : Reuss Voigt Hill
#
# Bulk Modulus (GPa) = 58.13947 58.80726 58.47336
# Shear Modulus (GPa) = 30.75107 33.88150 32.31629
#
# Velocity S-wave (km/s) = 3.97264 4.16995 4.07249
# Velocity P-wave (km/s) = 7.13306 7.30516 7.21962
#
# Compressibility (1/GPa) = 0.01720002
#
# Stress axis : x y z
#
# Youngs Moduli (GPa) = 59.77373 97.85696 106.34393
#
# Poissons Ratio (x) = 0.57786 0.40085
# Poissons Ratio (y) = 0.35297 -0.01047
# Poissons Ratio (z) = 0.22531 -0.00963
#
# Static dielectric constant tensor:
#      x y z
#    x 3.236230 0.000000 0.000000 
#    y 0.000000 3.725260 0.000000 
#    z 0.000000 0.000000 3.821670 
# 
# 
# High freq. dielectric constant tensor:
#      x y z
#    x 1.729320 0.000000 0.000000 
#    y 0.000000 1.769610 0.000000 
#    z 0.000000 0.000000 1.782830 
# 
# From -- ./inp_files/26971.got.cif
#   From: 2010.03.12/outbox.cif.g09.slc.cpg/sg66_14_cif.got.tgz:26971.got - 2010.04.10 21:57:39.
