data_PCOD8277615
_publ_section_title
;
Structure prediction by ZEFSAII (Michael W. Deem and Ramdas Pophale) SiO2 
 PCOD8277615
Probable space group: C C C M
;
_chemical_formula_sum "Si O2"
_cell_formula_units_Z 88
_cell_length_a 15.216896
_cell_length_b 17.683212
_cell_length_c 16.881992
_cell_angle_alpha 90.000000
_cell_angle_beta 90.000000
_cell_angle_gamma 90.000000
_cell_volume 4542.667148
_symmetry_space_group_name_H-M "C C C M"
_symmetry_group_IT_number 66
_symmetry_cell_setting 'orthorhombic'
loop_
_space_group_symop_operation_xyz
x,y,z
-x,-y,z
x,-y,1/2-z
-x,y,1/2-z
-x,-y,-z
x,y,-z
-x,y,1/2+z
x,-y,1/2+z
1/2+x,1/2+y,z
1/2-x,1/2-y,z
1/2+x,1/2-y,1/2-z
1/2-x,1/2+y,1/2-z
1/2-x,1/2-y,-z
1/2+x,1/2+y,-z
1/2-x,1/2+y,1/2+z
1/2+x,1/2-y,1/2+z
loop_
_atom_site_type_symbol
_atom_site_label
_atom_site_fract_x
_atom_site_fract_y
_atom_site_fract_z
Si Si1 0.682257 0.531410 0.339885
Si Si2 0.710035 0.165764 0.091248
Si Si3 0.080903 0.724167 0.801681
Si Si4 0.514046 0.384276 0.840072
Si Si5 0.322212 0.380698 0.910210
Si Si6 0.750000 0.750000 0.805891
O O1 0.685236 0.500000 0.250000
O O2 0.739698 0.606553 0.352453
O O3 0.583940 0.553421 0.369834
O O4 0.717117 0.464448 0.396096
O O5 0.750000 0.250000 0.099641
O O6 0.610937 0.168000 0.127448
O O7 0.709171 0.139104 0.000000
O O8 0.053660 0.800701 0.845595
O O9 0.163665 0.737565 0.745326
O O10 0.000000 0.690722 0.750000
O O11 0.500000 0.406593 0.750000
O O12 0.424816 0.384496 0.888762
O O13 0.265779 0.323166 0.859021
O O14 0.311065 0.355576 0.000000
#
# Coordination Sequence:
#
# PCOD8277615 Si02
#       6
#    16  16  16  16  16   8
#     4  12  22  39  65  91 130 170 214 258 319 395
#     4  11  23  39  61  93 131 167 210 264 318 372
#     4  11  20  39  66  93 119 168 219 254 305 385
#     4  11  20  38  59  92 130 164 204 255 317 391
#     4  12  26  38  59  94 129 167 209 264 327 377
#     4  12  21  44  63  86 126 172 220 256 309 386
#
# _framework density 19.371880000000001
#
# number of rings (size 3 to 8) (size 9 to 14) (size 15 to 20)
#    0.000    0.545    8.182    2.455    0.000    2.909 
#    0.000    0.000    0.000    4.909    0.000    6.364 
#    0.000    0.000    0.000    0.000    0.000    0.000 
#
# Total GULP energy -545336.649370 kJ/mol
# GULP energy per Si atom -12394.014758 kJ/mol
# Density = 1.932779 g / cm^3
# Si number density = 19.371880 Si / 1000 Ang^3
#
#
#
# Elastic Constant Matrix: (Units=GPa)
#
#
# Indices 1 2 3 4 5 6 
#
# 1 67.1589 23.2228 7.1064 0.0000 0.0000 0.0000
# 2 23.2228 99.0230 11.8771 0.0000 0.0000 0.0000
# 3 7.1064 11.8771 67.0949 0.0000 0.0000 0.0000
# 4 0.0000 0.0000 0.0000 14.6572 0.0000 0.0000
# 5 0.0000 0.0000 0.0000 0.0000 21.2541 0.0000
# 6 0.0000 0.0000 0.0000 0.0000 0.0000 30.0644
#
#
#
# Elastic Compliance Matrix: (Units=1/GPa)
#
#
# Indices 1 2 3 4 5 6 
#
# 1 0.016279 -0.003689 -0.001071 0.000000 0.000000 0.000000
# 2 -0.003689 0.011154 -0.001584 0.000000 0.000000 0.000000
# 3 -0.001071 -0.001584 0.015298 0.000000 0.000000 0.000000
# 4 0.000000 0.000000 0.000000 0.068226 0.000000 0.000000
# 5 0.000000 0.000000 0.000000 0.000000 0.047050 0.000000
# 6 0.000000 0.000000 0.000000 0.000000 0.000000 0.033262
#
#
# Mechanical properties :
#
#
# Convention : Reuss Voigt Hill
#
# Bulk Modulus (GPa) = 33.28588 35.29882 34.29235
# Shear Modulus (GPa) = 23.36765 25.93318 24.65042
#
# Velocity S-wave (km/s) = 3.47690 3.66280 3.57106
# Velocity P-wave (km/s) = 5.77394 6.01243 5.89439
#
# Compressibility (1/GPa) = 0.03004277
#
# Stress axis : x y z
#
# Youngs Moduli (GPa) = 61.42846 89.65534 65.36780
#
# Poissons Ratio (x) = 0.33076 0.07002
# Poissons Ratio (y) = 0.22663 0.10352
# Poissons Ratio (z) = 0.06580 0.14199
#
# Static dielectric constant tensor:
#      x y z
#    x 3.543310 0.000000 0.000000 
#    y 0.000000 3.691990 0.000000 
#    z 0.000000 0.000000 3.756190 
# 
# 
# High freq. dielectric constant tensor:
#      x y z
#    x 1.740900 0.000000 0.000000 
#    y 0.000000 1.753590 0.000000 
#    z 0.000000 0.000000 1.753890 
# 
# From -- ./inp_files/40311.got.cif
#   From: 2010.03.12/outbox.cif.g09.slc.cpg/sg66_21_cif.got.tgz:40311.got - 2010.04.10 21:57:39.
