data_PCOD8277411
_publ_section_title
;
Structure prediction by ZEFSAII (Michael W. Deem and Ramdas Pophale) SiO2 
 PCOD8277411
Probable space group: C C C M
;
_chemical_formula_sum "Si O2"
_cell_formula_units_Z 72
_cell_length_a 16.885457
_cell_length_b 14.356163
_cell_length_c 14.368591
_cell_angle_alpha 90.000000
_cell_angle_beta 90.000000
_cell_angle_gamma 90.000000
_cell_volume 3483.095504
_symmetry_space_group_name_H-M "C C C M"
_symmetry_group_IT_number 66
_symmetry_cell_setting 'orthorhombic'
loop_
_space_group_symop_operation_xyz
x,y,z
-x,-y,z
x,-y,1/2-z
-x,y,1/2-z
-x,-y,-z
x,y,-z
-x,y,1/2+z
x,-y,1/2+z
1/2+x,1/2+y,z
1/2-x,1/2-y,z
1/2+x,1/2-y,1/2-z
1/2-x,1/2+y,1/2-z
1/2-x,1/2-y,-z
1/2+x,1/2+y,-z
1/2-x,1/2+y,1/2+z
1/2+x,1/2-y,1/2+z
loop_
_atom_site_type_symbol
_atom_site_label
_atom_site_fract_x
_atom_site_fract_y
_atom_site_fract_z
Si Si1 0.457846 0.095746 0.892585
Si Si2 0.579150 0.456140 0.893964
Si Si3 0.808755 0.327222 0.277133
Si Si4 0.404261 0.240457 0.394813
Si Si5 0.703789 0.500000 0.750000
O O1 0.377724 0.129049 0.841416
O O2 0.518515 0.178910 0.877102
O O3 0.500000 0.000000 0.854325
O O4 0.434998 0.079854 0.000000
O O5 0.500000 0.500000 0.851643
O O6 0.571006 0.346357 0.880785
O O7 0.651753 0.503979 0.842376
O O8 0.590684 0.485807 0.000000
O O9 0.750000 0.250000 0.326139
O O10 0.839510 0.282386 0.181750
O O11 0.756513 0.410468 0.242096
O O12 0.371392 0.222858 0.500000
#
# Coordination Sequence:
#
# PCOD8277411 Si02
#       5
#    16  16  16  16   8
#     4  10  23  44  68  92 126 176 225 265 313 386
#     4  10  23  42  65  90 120 166 217 260 306 376
#     4  12  25  39  63 100 134 167 207 271 336 382
#     4  10  22  43  69  92 123 171 219 257 309 388
#     4  12  25  40  61  92 130 166 202 256 329 390
#
# _framework density 20.671268999999999
#
# number of rings (size 3 to 8) (size 9 to 14) (size 15 to 20)
#    0.000    1.333    2.222    2.333    3.111    5.333 
#    0.000    0.000    0.000    0.000    0.000    0.000 
#    0.000    0.000    0.000    0.000    0.000    0.000 
#
# Total GULP energy -446283.779869 kJ/mol
# GULP energy per Si atom -12396.771663 kJ/mol
# Density = 2.062422 g / cm^3
# Si number density = 20.671269 Si / 1000 Ang^3
#
#
#
# Elastic Constant Matrix: (Units=GPa)
#
#
# Indices 1 2 3 4 5 6 
#
# 1 132.1318 57.9758 61.2962 0.0000 0.0000 0.0000
# 2 57.9758 94.8622 43.9904 0.0000 0.0000 0.0000
# 3 61.2962 43.9904 88.5877 0.0000 0.0000 0.0000
# 4 0.0000 0.0000 0.0000 49.5635 0.0000 0.0000
# 5 0.0000 0.0000 0.0000 0.0000 72.0138 0.0000
# 6 0.0000 0.0000 0.0000 0.0000 0.0000 52.8051
#
#
#
# Elastic Compliance Matrix: (Units=1/GPa)
#
#
# Indices 1 2 3 4 5 6 
#
# 1 0.012605 -0.004754 -0.006361 0.000000 0.000000 0.000000
# 2 -0.004754 0.015488 -0.004402 0.000000 0.000000 0.000000
# 3 -0.006361 -0.004402 0.017875 0.000000 0.000000 0.000000
# 4 0.000000 0.000000 0.000000 0.020176 0.000000 0.000000
# 5 0.000000 0.000000 0.000000 0.000000 0.013886 0.000000
# 6 0.000000 0.000000 0.000000 0.000000 0.000000 0.018938
#
#
# Mechanical properties :
#
#
# Convention : Reuss Voigt Hill
#
# Bulk Modulus (GPa) = 66.95549 71.34517 69.15033
# Shear Modulus (GPa) = 37.04246 45.03109 41.03678
#
# Velocity S-wave (km/s) = 4.23777 4.67244 4.46040
# Velocity P-wave (km/s) = 7.51038 7.98110 7.74932
#
# Compressibility (1/GPa) = 0.01493530
#
# Stress axis : x y z
#
# Youngs Moduli (GPa) = 79.33382 64.56549 55.94260
#
# Poissons Ratio (x) = 0.30693 0.35586
# Poissons Ratio (y) = 0.37714 0.24625
# Poissons Ratio (z) = 0.50465 0.28420
#
# Static dielectric constant tensor:
#      x y z
#    x 3.900900 0.000000 0.000000 
#    y 0.000000 3.963950 0.000000 
#    z 0.000000 0.000000 3.859390 
# 
# 
# High freq. dielectric constant tensor:
#      x y z
#    x 1.815360 0.000000 0.000000 
#    y 0.000000 1.828520 0.000000 
#    z 0.000000 0.000000 1.810240 
# 
# From -- ./inp_files/29806.got.cif
#   From: 2010.03.12/outbox.cif.g09.slc.cpg/sg66_15_cif.got.tgz:29806.got - 2010.04.10 21:57:39.
