data_PCOD8277470
_publ_section_title
;
Structure prediction by ZEFSAII (Michael W. Deem and Ramdas Pophale) SiO2 
 PCOD8277470
Probable space group: C C C M
;
_chemical_formula_sum "Si O2"
_cell_formula_units_Z 112
_cell_length_a 21.569988
_cell_length_b 17.002952
_cell_length_c 15.050815
_cell_angle_alpha 90.000000
_cell_angle_beta 90.000000
_cell_angle_gamma 90.000000
_cell_volume 5519.938637
_symmetry_space_group_name_H-M "C C C M"
_symmetry_group_IT_number 66
_symmetry_cell_setting 'orthorhombic'
loop_
_space_group_symop_operation_xyz
x,y,z
-x,-y,z
x,-y,1/2-z
-x,y,1/2-z
-x,-y,-z
x,y,-z
-x,y,1/2+z
x,-y,1/2+z
1/2+x,1/2+y,z
1/2-x,1/2-y,z
1/2+x,1/2-y,1/2-z
1/2-x,1/2+y,1/2-z
1/2-x,1/2-y,-z
1/2+x,1/2+y,-z
1/2-x,1/2+y,1/2+z
1/2+x,1/2-y,1/2+z
loop_
_atom_site_type_symbol
_atom_site_label
_atom_site_fract_x
_atom_site_fract_y
_atom_site_fract_z
Si Si1 0.928723 0.298626 0.102307
Si Si2 0.350958 0.647696 0.100048
Si Si3 0.427881 0.500000 0.146086
Si Si4 0.649042 0.647696 0.899952
Si Si5 0.119135 0.408363 0.250000
Si Si6 0.928723 0.701374 0.102307
Si Si7 0.264054 0.407684 0.750000
O O1 0.886892 0.225218 0.132462
O O2 0.911216 0.373211 0.161555
O O3 1.000000 0.275114 0.118329
O O4 0.916848 0.321346 0.000000
O O5 0.399249 0.576656 0.101732
O O6 0.292224 0.632371 0.162455
O O7 0.325696 0.657917 0.000000
O O8 0.500000 0.500000 0.125370
O O9 0.412488 0.500000 0.250000
O O10 0.399249 0.423344 0.101732
O O11 0.613108 0.725218 0.867538
O O12 0.707776 0.632371 0.837545
O O13 0.674304 0.657917 0.000000
O O14 0.104450 0.500000 0.250000
O O15 0.088783 0.373212 0.161555
O O16 0.191825 0.390648 0.250000
O O17 0.916848 0.678654 0.000000
O O18 0.279818 0.500000 0.750000
#
# Coordination Sequence:
#
# PCOD8277470 Si02
#       7
#    16  16  16  16  16  16  16
#     4  10  23  42  64  94 125 151 194 255 311 366
#     4  11  21  37  62  89 124 168 201 239 296 353
#     4  11  21  33  55  90 129 169 208 241 282 348
#     4  11  21  37  62  89 124 168 201 239 296 353
#     4  11  26  44  66  86 116 160 206 255 315 364
#     4  10  23  42  64  94 125 151 194 255 311 366
#     4  11  23  41  57  88 126 161 211 256 285 343
#
# _framework density 20.290081000000001
#
# number of rings (size 3 to 8) (size 9 to 14) (size 15 to 20)
#    0.000    1.286    2.857    2.571    0.000    7.429 
#    0.000    7.143    0.000    0.000    0.000    0.000 
#    0.000    0.000    0.000    0.000    0.000    0.000 
#
# Total GULP energy -694737.316901 kJ/mol
# GULP energy per Si atom -12406.023516 kJ/mol
# Density = 2.024390 g / cm^3
# Si number density = 20.290081 Si / 1000 Ang^3
#
#
#
# Elastic Constant Matrix: (Units=GPa)
#
#
# Indices 1 2 3 4 5 6 
#
# 1 72.0145 32.8438 42.2737 0.0000 0.0000 0.0000
# 2 32.8438 122.6567 51.5160 0.0000 0.0000 0.0000
# 3 42.2737 51.5160 117.0421 0.0000 0.0000 0.0000
# 4 0.0000 0.0000 0.0000 19.6300 0.0000 0.0000
# 5 0.0000 0.0000 0.0000 0.0000 21.9086 0.0000
# 6 0.0000 0.0000 0.0000 0.0000 0.0000 9.9830
#
#
#
# Elastic Compliance Matrix: (Units=1/GPa)
#
#
# Indices 1 2 3 4 5 6 
#
# 1 0.018275 -0.002602 -0.005455 0.000000 0.000000 0.000000
# 2 -0.002602 0.010372 -0.003625 0.000000 0.000000 0.000000
# 3 -0.005455 -0.003625 0.012110 0.000000 0.000000 0.000000
# 4 0.000000 0.000000 0.000000 0.050942 0.000000 0.000000
# 5 0.000000 0.000000 0.000000 0.000000 0.045644 0.000000
# 6 0.000000 0.000000 0.000000 0.000000 0.000000 0.100170
#
#
# Mechanical properties :
#
#
# Convention : Reuss Voigt Hill
#
# Bulk Modulus (GPa) = 57.49944 62.77558 60.13751
# Shear Modulus (GPa) = 18.74924 22.64299 20.69611
#
# Velocity S-wave (km/s) = 3.04313 3.34423 3.19723
# Velocity P-wave (km/s) = 6.38340 6.77628 6.58277
#
# Compressibility (1/GPa) = 0.01739147
#
# Stress axis : x y z
#
# Youngs Moduli (GPa) = 54.71857 96.41006 82.57599
#
# Poissons Ratio (x) = 0.25089 0.45048
# Poissons Ratio (y) = 0.14240 0.29938
# Poissons Ratio (z) = 0.29851 0.34953
#
# Static dielectric constant tensor:
#      x y z
#    x 3.646100 0.000000 0.000000 
#    y 0.000000 3.660540 0.000000 
#    z 0.000000 0.000000 3.873300 
# 
# 
# High freq. dielectric constant tensor:
#      x y z
#    x 1.794310 0.000000 0.000000 
#    y 0.000000 1.793450 0.000000 
#    z 0.000000 0.000000 1.805740 
# 
# From -- ./inp_files/32438.got.cif
#   From: 2010.03.12/outbox.cif.g09.slc.cpg/sg66_17_cif.got.tgz:32438.got - 2010.04.10 21:57:39.
