data_PCOD8277917
_publ_section_title
;
Structure prediction by ZEFSAII (Michael W. Deem and Ramdas Pophale) SiO2 
 PCOD8277917
Probable space group: C C C M
;
_chemical_formula_sum "Si O2"
_cell_formula_units_Z 96
_cell_length_a 31.602044
_cell_length_b 21.051557
_cell_length_c 10.095378
_cell_angle_alpha 90.000000
_cell_angle_beta 90.000000
_cell_angle_gamma 90.000000
_cell_volume 6716.174641
_symmetry_space_group_name_H-M "C C C M"
_symmetry_group_IT_number 66
_symmetry_cell_setting 'orthorhombic'
loop_
_space_group_symop_operation_xyz
x,y,z
-x,-y,z
x,-y,1/2-z
-x,y,1/2-z
-x,-y,-z
x,y,-z
-x,y,1/2+z
x,-y,1/2+z
1/2+x,1/2+y,z
1/2-x,1/2-y,z
1/2+x,1/2-y,1/2-z
1/2-x,1/2+y,1/2-z
1/2-x,1/2-y,-z
1/2+x,1/2+y,-z
1/2-x,1/2+y,1/2+z
1/2+x,1/2-y,1/2+z
loop_
_atom_site_type_symbol
_atom_site_label
_atom_site_fract_x
_atom_site_fract_y
_atom_site_fract_z
Si Si1 0.624819 0.749529 0.146313
Si Si2 0.537589 0.310220 0.346851
Si Si3 0.727206 0.652249 0.352085
Si Si4 0.165609 0.111735 0.146203
Si Si5 0.686405 0.209542 0.852033
Si Si6 0.422486 0.445316 0.152847
O O1 0.576108 0.737562 0.185223
O O2 0.648797 0.683042 0.144146
O O3 0.647053 0.796896 0.251044
O O4 0.627619 0.780507 0.000000
O O5 0.500000 0.289979 0.250000
O O6 0.523613 0.303585 0.500000
O O7 0.550977 0.382316 0.316670
O O8 0.724288 0.623367 0.500000
O O9 0.703817 0.604270 0.251220
O O10 0.704507 0.719822 0.349847
O O11 0.776275 0.660900 0.309969
O O12 0.126972 0.065860 0.185070
O O13 0.182896 0.094215 0.000000
O O14 0.670296 0.193322 0.000000
O O15 0.439743 0.500000 0.250000
O O16 0.428408 0.466062 0.000000
#
# Coordination Sequence:
#
# PCOD8277917 Si02
#       6
#    16  16  16  16  16  16
#     4   8  14  24  35  46  61  79  98 121 149 183
#     4   9  18  30  40  50  63  78 100 132 168 205
#     4   8  13  20  30  46  66  83  98 116 138 169
#     4   8  14  24  35  46  61  79  98 121 149 183
#     4   8  13  20  30  46  66  83  98 116 138 169
#     4   9  18  30  40  50  63  78 100 132 168 205
#
# _framework density 14.293851
#
# number of rings (size 3 to 8) (size 9 to 14) (size 15 to 20)
#    0.000    3.667    0.000    3.000    0.000    3.000 
#    0.000    8.333    0.000    0.000    0.000    0.000 
#    0.000    0.000    0.000    0.000    0.000    0.000 
#
# Total GULP energy -594799.802631 kJ/mol
# GULP energy per Si atom -12391.662555 kJ/mol
# Density = 1.426132 g / cm^3
# Si number density = 14.293851 Si / 1000 Ang^3
#
#
#
# Elastic Constant Matrix: (Units=GPa)
#
#
# Indices 1 2 3 4 5 6 
#
# 1 90.8519 10.4806 68.7905 0.0000 0.0000 0.0000
# 2 10.4806 1.5256 9.1970 0.0000 0.0000 0.0000
# 3 68.7905 9.1970 92.3760 0.0000 0.0000 0.0000
# 4 0.0000 0.0000 0.0000 10.8782 0.0000 0.0000
# 5 0.0000 0.0000 0.0000 0.0000 29.8075 0.0000
# 6 0.0000 0.0000 0.0000 0.0000 0.0000 11.0037
#
#
#
# Elastic Compliance Matrix: (Units=1/GPa)
#
#
# Indices 1 2 3 4 5 6 
#
# 1 0.055555 -0.330797 -0.008436 0.000000 0.000000 0.000000
# 2 -0.330797 3.609208 -0.112998 0.000000 0.000000 0.000000
# 3 -0.008436 -0.112998 0.028358 0.000000 0.000000 0.000000
# 4 0.000000 0.000000 0.000000 0.091927 0.000000 0.000000
# 5 0.000000 0.000000 0.000000 0.000000 0.033549 0.000000
# 6 0.000000 0.000000 0.000000 0.000000 0.000000 0.090878
#
#
# Mechanical properties :
#
#
# Convention : Reuss Voigt Hill
#
# Bulk Modulus (GPa) = 0.35860 40.18774 20.27317
# Shear Modulus (GPa) = 0.87055 16.75690 8.81372
#
# Velocity S-wave (km/s) = 0.78126 3.42762 2.48586
# Velocity P-wave (km/s) = 1.03210 6.62127 4.73848
#
# Compressibility (1/GPa) = 2.78865780
#
# Stress axis : x y z
#
# Youngs Moduli (GPa) = 18.00009 0.27707 35.26347
#
# Poissons Ratio (x) = 0.09165 0.29750
# Poissons Ratio (y) = 5.95437 3.98471
# Poissons Ratio (z) = 0.15186 0.03131
#
# Static dielectric constant tensor:
#      x y z
#    x 2.821480 0.000000 0.000000 
#    y 0.000000 2.232090 0.000000 
#    z 0.000000 0.000000 3.134040 
# 
# 
# High freq. dielectric constant tensor:
#      x y z
#    x 1.535410 0.000000 0.000000 
#    y 0.000000 1.467540 0.000000 
#    z 0.000000 0.000000 1.558910 
# 
# From -- ./inp_files/17967.got.cif
#   From: 2010.03.12/outbox.cif.g09.slc.cpg/sg66_9_cif.got.tgz:17967.got - 2010.04.10 21:57:39.
