data_PCOD8277170
_publ_section_title
;
Structure prediction by ZEFSAII (Michael W. Deem and Ramdas Pophale) SiO2 
 PCOD8277170
Probable space group: C C C M
;
_chemical_formula_sum "Si O2"
_cell_formula_units_Z 60
_cell_length_a 10.992637
_cell_length_b 18.356127
_cell_length_c 14.817059
_cell_angle_alpha 90.000000
_cell_angle_beta 90.000000
_cell_angle_gamma 90.000000
_cell_volume 2989.819368
_symmetry_space_group_name_H-M "C C C M"
_symmetry_group_IT_number 66
_symmetry_cell_setting 'orthorhombic'
loop_
_space_group_symop_operation_xyz
x,y,z
-x,-y,z
x,-y,1/2-z
-x,y,1/2-z
-x,-y,-z
x,y,-z
-x,y,1/2+z
x,-y,1/2+z
1/2+x,1/2+y,z
1/2-x,1/2-y,z
1/2+x,1/2-y,1/2-z
1/2-x,1/2+y,1/2-z
1/2-x,1/2-y,-z
1/2+x,1/2+y,-z
1/2-x,1/2+y,1/2+z
1/2+x,1/2-y,1/2+z
loop_
_atom_site_type_symbol
_atom_site_label
_atom_site_fract_x
_atom_site_fract_y
_atom_site_fract_z
Si Si1 0.168613 0.882240 0.319358
Si Si2 0.500000 0.737047 0.250000
Si Si3 0.000000 0.000000 0.750000
Si Si4 0.963625 0.416185 0.000000
Si Si5 0.712998 0.164215 0.500000
Si Si6 0.609600 0.874741 0.690440
O O1 0.087932 0.809827 0.312594
O O2 0.237179 0.877609 0.413298
O O3 0.261875 0.890456 0.236795
O O4 0.081114 0.951727 0.317235
O O5 0.583869 0.787735 0.314150
O O6 0.000000 0.500000 0.000000
O O7 0.882780 0.405404 0.910556
O O8 0.069703 0.354401 0.000000
O O9 0.750000 0.250000 0.500000
O O10 0.500000 0.911491 0.750000
#
# Coordination Sequence:
#
# PCOD8277170 Si02
#       6
#    16   8   4   8   8  16
#     4  11  22  42  66  95 134 172 218 272 322 401
#     4   9  20  41  65  98 127 170 220 268 325 380
#     4  10  28  42  62  88 134 182 214 256 350 388
#     4  12  26  38  59 107 127 171 220 271 335 400
#     4  12  22  41  74  98 130 174 228 272 325 404
#     4  10  21  39  66  88 130 163 217 268 325 382
#
# _framework density 20.068100999999999
#
# number of rings (size 3 to 8) (size 9 to 14) (size 15 to 20)
#    0.800    0.533    2.667    4.000    3.733    1.067 
#    0.000    8.000    0.000    0.000    0.000    0.000 
#    0.000    0.000    0.000    0.000    0.000    0.000 
#
# Total GULP energy -371878.563919 kJ/mol
# GULP energy per Si atom -12395.952131 kJ/mol
# Density = 2.002243 g / cm^3
# Si number density = 20.068101 Si / 1000 Ang^3
#
#
#
# Elastic Constant Matrix: (Units=GPa)
#
#
# Indices 1 2 3 4 5 6 
#
# 1 104.8491 36.3649 47.4871 0.0000 0.0000 0.0000
# 2 36.3649 115.1672 42.5504 0.0000 0.0000 0.0000
# 3 47.4871 42.5504 168.1068 0.0000 0.0000 0.0000
# 4 0.0000 0.0000 0.0000 12.9427 0.0000 0.0000
# 5 0.0000 0.0000 0.0000 0.0000 14.3766 0.0000
# 6 0.0000 0.0000 0.0000 0.0000 0.0000 13.3647
#
#
#
# Elastic Compliance Matrix: (Units=1/GPa)
#
#
# Indices 1 2 3 4 5 6 
#
# 1 0.011661 -0.002719 -0.002606 0.000000 0.000000 0.000000
# 2 -0.002719 0.010213 -0.001817 0.000000 0.000000 0.000000
# 3 -0.002606 -0.001817 0.007145 0.000000 0.000000 0.000000
# 4 0.000000 0.000000 0.000000 0.077264 0.000000 0.000000
# 5 0.000000 0.000000 0.000000 0.000000 0.069557 0.000000
# 6 0.000000 0.000000 0.000000 0.000000 0.000000 0.074824
#
#
# Mechanical properties :
#
#
# Convention : Reuss Voigt Hill
#
# Bulk Modulus (GPa) = 67.86760 71.21420 69.54090
# Shear Modulus (GPa) = 18.52824 25.58486 22.05655
#
# Velocity S-wave (km/s) = 3.04183 3.57445 3.31884
# Velocity P-wave (km/s) = 6.79919 7.25251 7.02951
#
# Compressibility (1/GPa) = 0.01473457
#
# Stress axis : x y z
#
# Youngs Moduli (GPa) = 85.75761 97.91499 139.96706
#
# Poissons Ratio (x) = 0.26626 0.36471
# Poissons Ratio (y) = 0.23320 0.25431
# Poissons Ratio (z) = 0.22346 0.17790
#
# Static dielectric constant tensor:
#      x y z
#    x 3.693560 0.000000 0.000000 
#    y 0.000000 3.698860 0.000000 
#    z 0.000000 0.000000 3.573990 
# 
# 
# High freq. dielectric constant tensor:
#      x y z
#    x 1.783600 0.000000 0.000000 
#    y 0.000000 1.788990 0.000000 
#    z 0.000000 0.000000 1.773100 
# 
# From -- ./inp_files/26042.got.cif
#   From: 2010.03.12/outbox.cif.g09.slc.cpg/sg66_14_cif.got.tgz:26042.got - 2010.04.10 21:57:39.
