data_PCOD8277826
_publ_section_title
;
Structure prediction by ZEFSAII (Michael W. Deem and Ramdas Pophale) SiO2 
 PCOD8277826
Probable space group: C C C M
;
_chemical_formula_sum "Si O2"
_cell_formula_units_Z 64
_cell_length_a 17.818817
_cell_length_b 8.516407
_cell_length_c 20.215467
_cell_angle_alpha 90.000000
_cell_angle_beta 90.000000
_cell_angle_gamma 90.000000
_cell_volume 3067.743569
_symmetry_space_group_name_H-M "C C C M"
_symmetry_group_IT_number 66
_symmetry_cell_setting 'orthorhombic'
loop_
_space_group_symop_operation_xyz
x,y,z
-x,-y,z
x,-y,1/2-z
-x,y,1/2-z
-x,-y,-z
x,y,-z
-x,y,1/2+z
x,-y,1/2+z
1/2+x,1/2+y,z
1/2-x,1/2-y,z
1/2+x,1/2-y,1/2-z
1/2-x,1/2+y,1/2-z
1/2-x,1/2-y,-z
1/2+x,1/2+y,-z
1/2-x,1/2+y,1/2+z
1/2+x,1/2-y,1/2+z
loop_
_atom_site_type_symbol
_atom_site_label
_atom_site_fract_x
_atom_site_fract_y
_atom_site_fract_z
Si Si1 0.398488 0.652201 0.633553
Si Si2 0.571165 0.703036 0.631396
Si Si3 0.337081 0.208024 0.000000
Si Si4 0.672580 0.182009 0.242469
Si Si5 0.577299 0.902713 0.500000
O O1 0.484167 0.691429 0.649021
O O2 0.387851 0.465229 0.630285
O O3 0.376983 0.720402 0.563229
O O4 0.346353 0.728469 0.689369
O O5 0.606303 0.802312 0.690154
O O6 0.583562 0.790739 0.562777
O O7 0.250000 0.250000 0.000000
O O8 0.351607 0.020726 0.000000
O O9 0.750000 0.250000 0.213966
O O10 0.685486 0.000000 0.250000
O O11 0.500000 0.000000 0.500000
#
# Coordination Sequence:
#
# PCOD8277826 Si02
#       5
#    16  16   8  16   8
#     4  11  23  44  67  99 135 177 228 278 346 405
#     4  11  24  42  70  96 132 179 227 282 337 413
#     4  12  25  41  67  99 137 176 225 282 345 403
#     4  12  26  43  66  96 137 178 226 284 345 412
#     4  12  23  43  69 101 134 174 235 281 338 411
#
# _framework density 20.862238999999999
#
# number of rings (size 3 to 8) (size 9 to 14) (size 15 to 20)
#    0.000    0.500    2.500    6.000    0.000    7.000 
#    0.000    1.875    0.000    0.000    0.000    0.000 
#    0.000    0.000    0.000    0.000    0.000    0.000 
#
# Total GULP energy -396980.292313 kJ/mol
# GULP energy per Si atom -12405.634135 kJ/mol
# Density = 2.081476 g / cm^3
# Si number density = 20.862239 Si / 1000 Ang^3
#
#
#
# Elastic Constant Matrix: (Units=GPa)
#
#
# Indices 1 2 3 4 5 6 
#
# 1 101.6108 56.3148 34.0387 0.0000 0.0000 0.0000
# 2 56.3148 160.9142 38.4672 0.0000 0.0000 0.0000
# 3 34.0387 38.4672 128.6101 0.0000 0.0000 0.0000
# 4 0.0000 0.0000 0.0000 43.3152 0.0000 0.0000
# 5 0.0000 0.0000 0.0000 0.0000 8.2788 0.0000
# 6 0.0000 0.0000 0.0000 0.0000 0.0000 38.8032
#
#
#
# Elastic Compliance Matrix: (Units=1/GPa)
#
#
# Indices 1 2 3 4 5 6 
#
# 1 0.012762 -0.003941 -0.002199 0.000000 0.000000 0.000000
# 2 -0.003941 0.007910 -0.001323 0.000000 0.000000 0.000000
# 3 -0.002199 -0.001323 0.008753 0.000000 0.000000 0.000000
# 4 0.000000 0.000000 0.000000 0.023087 0.000000 0.000000
# 5 0.000000 0.000000 0.000000 0.000000 0.120790 0.000000
# 6 0.000000 0.000000 0.000000 0.000000 0.000000 0.025771
#
#
# Mechanical properties :
#
#
# Convention : Reuss Voigt Hill
#
# Bulk Modulus (GPa) = 68.96579 72.08626 70.52603
# Shear Modulus (GPa) = 22.84869 35.56707 29.20788
#
# Velocity S-wave (km/s) = 3.31300 4.13347 3.74576
# Velocity P-wave (km/s) = 6.91116 7.57689 7.25166
#
# Compressibility (1/GPa) = 0.01449994
#
# Stress axis : x y z
#
# Youngs Moduli (GPa) = 78.35686 126.42501 114.24497
#
# Poissons Ratio (x) = 0.49820 0.25123
# Poissons Ratio (y) = 0.30878 0.15113
# Poissons Ratio (z) = 0.17231 0.16724
#
# Static dielectric constant tensor:
#      x y z
#    x 4.201020 0.000000 0.000000 
#    y 0.000000 4.088190 0.000000 
#    z 0.000000 0.000000 3.829910 
# 
# 
# High freq. dielectric constant tensor:
#      x y z
#    x 1.823680 0.000000 0.000000 
#    y 0.000000 1.837650 0.000000 
#    z 0.000000 0.000000 1.829800 
# 
# From -- ./inp_files/50566.got.cif
#   From: 2010.03.12/outbox.cif.g09.slc.cpg/sg66_26_cif.got.tgz:50566.got - 2010.04.10 21:57:39.
