data_PCOD8277952
_publ_section_title
;
Structure prediction by ZEFSAII (Michael W. Deem and Ramdas Pophale) SiO2 
 PCOD8277952
Probable space group: C M M A
;
_chemical_formula_sum "Si O2"
_cell_formula_units_Z 72
_cell_length_a 25.325890
_cell_length_b 8.615419
_cell_length_c 20.716233
_cell_angle_alpha 90.000000
_cell_angle_beta 90.000000
_cell_angle_gamma 90.000000
_cell_volume 4520.140215
_symmetry_space_group_name_H-M "C M M A"
_symmetry_group_IT_number 67
_symmetry_cell_setting 'orthorhombic'
loop_
_space_group_symop_operation_xyz
x,y,z
-x,1/2-y,z
x,-y,-z
-x,1/2+y,-z
-x,-y,-z
x,1/2+y,-z
-x,y,z
x,1/2-y,z
1/2+x,1/2+y,z
1/2-x,-y,z
1/2+x,1/2-y,-z
1/2-x,y,-z
1/2-x,1/2-y,-z
1/2+x,y,-z
1/2-x,1/2+y,z
1/2+x,-y,z
loop_
_atom_site_type_symbol
_atom_site_label
_atom_site_fract_x
_atom_site_fract_y
_atom_site_fract_z
Si Si1 0.691237 0.566203 0.306142
Si Si2 0.690985 0.566077 0.564716
Si Si3 0.000000 0.566557 0.928372
Si Si4 0.606664 0.431891 0.070458
Si Si5 0.192409 0.432445 0.824390
O O1 0.691044 0.750000 0.311383
O O2 0.750000 0.500000 0.303161
O O3 0.662251 0.495034 0.369836
O O4 0.665022 0.509425 0.239189
O O5 0.662383 0.500000 0.500000
O O6 0.691396 0.750000 0.562947
O O7 0.750000 0.500000 0.565942
O O8 0.053960 0.503924 0.896052
O O9 0.000000 0.750000 0.927710
O O10 0.000000 0.500000 0.000000
O O11 0.598105 0.250000 0.063749
O O12 0.656048 0.474518 0.115071
O O13 0.618212 0.500000 0.000000
O O14 0.197141 0.250000 0.812558
O O15 0.250000 0.500000 0.839353
#
# Coordination Sequence:
#
# PCOD8277952 Si02
#       5
#    16  16   8  16  16
#     4  10  17  26  39  54  75 105 139 174 210 251
#     4  10  16  23  34  50  72  98 133 173 210 247
#     4  10  18  30  50  70  88 108 135 172 217 262
#     4  10  20  33  49  67  88 112 142 178 219 261
#     4  10  20  32  45  62  85 116 148 180 215 256
#
# _framework density 15.928710000000001
#
# number of rings (size 3 to 8) (size 9 to 14) (size 15 to 20)
#    0.000    2.000    0.000   11.000    0.000    4.000 
#    0.000    2.222    0.000    0.000    0.000    0.000 
#    0.000    0.000    0.000    1.000    0.000   13.556 
#
# Total GULP energy -446136.248499 kJ/mol
# GULP energy per Si atom -12392.673569 kJ/mol
# Density = 1.589246 g / cm^3
# Si number density = 15.928710 Si / 1000 Ang^3
#
#
#
# Elastic Constant Matrix: (Units=GPa)
#
#
# Indices 1 2 3 4 5 6 
#
# 1 60.8429 39.0330 46.3795 0.0000 0.0000 0.0000
# 2 39.0330 150.3967 66.0934 0.0000 0.0000 0.0000
# 3 46.3795 66.0934 129.2936 0.0000 0.0000 0.0000
# 4 0.0000 0.0000 0.0000 32.6799 0.0000 0.0000
# 5 0.0000 0.0000 0.0000 0.0000 -0.2242 0.0000
# 6 0.0000 0.0000 0.0000 0.0000 0.0000 15.5537
#
#
#
# Elastic Compliance Matrix: (Units=1/GPa)
#
#
# Indices 1 2 3 4 5 6 
#
# 1 0.023701 -0.003115 -0.006910 0.000000 0.000000 0.000000
# 2 -0.003115 0.008985 -0.003476 0.000000 0.000000 0.000000
# 3 -0.006910 -0.003476 0.011990 0.000000 0.000000 0.000000
# 4 0.000000 0.000000 0.000000 0.030600 0.000000 0.000000
# 5 0.000000 0.000000 0.000000 0.000000 -4.459684 0.000000
# 6 0.000000 0.000000 0.000000 0.000000 0.000000 0.064293
#
#
# Mechanical properties :
#
#
# Convention : Reuss Voigt Hill
#
# Bulk Modulus (GPa) = 56.57554 71.50498 64.04026
# Shear Modulus (GPa) = -1.16626 22.20371 10.51873
#
# Velocity S-wave (km/s) = -0.85660 3.73760 2.57254
# Velocity P-wave (km/s) = 5.88360 7.97586 7.00825
#
# Compressibility (1/GPa) = 0.01767548
#
# Stress axis : x y z
#
# Youngs Moduli (GPa) = 42.19206 111.29826 83.40503
#
# Poissons Ratio (x) = 0.34666 0.57631
# Poissons Ratio (y) = 0.13141 0.28989
# Poissons Ratio (z) = 0.29154 0.38684
#
# Static dielectric constant tensor:
#      x y z
#    x 2.870690 0.000000 0.000000 
#    y 0.000000 3.186840 0.000000 
#    z 0.000000 0.000000 4.268400 
# 
# 
# High freq. dielectric constant tensor:
#      x y z
#    x 1.541810 0.000000 0.000000 
#    y 0.000000 1.639170 0.000000 
#    z 0.000000 0.000000 1.622730 
# 
# From -- ./inp_files/39804.got.cif
#   From: 2010.03.12/outbox.cif.g09.slc.cpg/sg67_20_cif.got.tgz:39804.got - 2010.04.10 22:41:39.
