data_PCOD8277792
_publ_section_title
;
Structure prediction by ZEFSAII (Michael W. Deem and Ramdas Pophale) SiO2 
 PCOD8277792
Probable space group: C C C M
;
_chemical_formula_sum "Si O2"
_cell_formula_units_Z 112
_cell_length_a 13.531100
_cell_length_b 27.492110
_cell_length_c 15.335176
_cell_angle_alpha 90.000000
_cell_angle_beta 90.000000
_cell_angle_gamma 90.000000
_cell_volume 5704.662310
_symmetry_space_group_name_H-M "C C C M"
_symmetry_group_IT_number 66
_symmetry_cell_setting 'orthorhombic'
loop_
_space_group_symop_operation_xyz
x,y,z
-x,-y,z
x,-y,1/2-z
-x,y,1/2-z
-x,-y,-z
x,y,-z
-x,y,1/2+z
x,-y,1/2+z
1/2+x,1/2+y,z
1/2-x,1/2-y,z
1/2+x,1/2-y,1/2-z
1/2-x,1/2+y,1/2-z
1/2-x,1/2-y,-z
1/2+x,1/2+y,-z
1/2-x,1/2+y,1/2+z
1/2+x,1/2-y,1/2+z
loop_
_atom_site_type_symbol
_atom_site_label
_atom_site_fract_x
_atom_site_fract_y
_atom_site_fract_z
Si Si1 0.888535 0.655582 0.098747
Si Si2 0.802080 0.898130 0.597784
Si Si3 0.614920 0.334232 0.750000
Si Si4 0.887391 1.000000 0.146974
Si Si5 0.197920 0.898130 0.402216
Si Si6 0.388535 0.844418 0.098747
Si Si7 0.383094 0.226785 0.750000
O O1 0.815989 0.609326 0.110538
O O2 0.850707 0.697813 0.163255
O O3 1.000000 0.638545 0.122121
O O4 0.883534 0.676004 0.000000
O O5 0.833655 0.883033 0.500000
O O6 0.859972 0.863843 0.663671
O O7 0.827838 0.953942 0.612708
O O8 0.684011 0.890674 0.610538
O O9 0.500000 0.325320 0.750000
O O10 0.640028 0.363843 0.663671
O O11 0.667382 0.280704 0.750000
O O12 0.889312 0.000000 0.250000
O O13 0.827838 0.953942 0.112708
O O14 0.000000 0.000000 0.110967
O O15 0.166345 0.883033 0.500000
O O16 0.350707 0.802187 0.163255
O O17 0.383534 0.823996 0.000000
O O18 0.500000 0.232870 0.750000
#
# Coordination Sequence:
#
# PCOD8277792 Si02
#       7
#    16  16  16  16  16  16  16
#     4   9  19  37  59  84 115 150 188 230 277 332
#     4  11  23  38  60  86 112 148 191 233 282 337
#     4  11  23  38  55  83 119 151 190 238 280 328
#     4  11  23  41  62  82 112 150 185 230 285 336
#     4  11  23  38  60  86 112 148 191 233 282 337
#     4   9  19  37  59  84 115 150 188 230 277 332
#     4   9  19  35  57  81 113 156 190 227 282 331
#
# _framework density 19.633064000000001
#
# number of rings (size 3 to 8) (size 9 to 14) (size 15 to 20)
#    0.000    1.857    1.429    2.143    0.000    6.286 
#    0.000    6.429    0.000    4.286    0.000    0.000 
#    0.000    0.000    0.000    0.000    0.000    0.000 
#
# Total GULP energy -694313.914037 kJ/mol
# GULP energy per Si atom -12398.462751 kJ/mol
# Density = 1.958838 g / cm^3
# Si number density = 19.633064 Si / 1000 Ang^3
#
#
#
# Elastic Constant Matrix: (Units=GPa)
#
#
# Indices 1 2 3 4 5 6 
#
# 1 84.3950 73.0972 50.1448 0.0000 0.0000 0.0000
# 2 73.0972 170.6501 71.7493 0.0000 0.0000 0.0000
# 3 50.1448 71.7493 139.5990 0.0000 0.0000 0.0000
# 4 0.0000 0.0000 0.0000 74.8704 0.0000 0.0000
# 5 0.0000 0.0000 0.0000 0.0000 27.5263 0.0000
# 6 0.0000 0.0000 0.0000 0.0000 0.0000 33.9643
#
#
#
# Elastic Compliance Matrix: (Units=1/GPa)
#
#
# Indices 1 2 3 4 5 6 
#
# 1 0.020145 -0.007127 -0.003573 0.000000 0.000000 0.000000
# 2 -0.007127 0.009996 -0.002578 0.000000 0.000000 0.000000
# 3 -0.003573 -0.002578 0.009772 0.000000 0.000000 0.000000
# 4 0.000000 0.000000 0.000000 0.013356 0.000000 0.000000
# 5 0.000000 0.000000 0.000000 0.000000 0.036329 0.000000
# 6 0.000000 0.000000 0.000000 0.000000 0.000000 0.029443
#
#
# Mechanical properties :
#
#
# Convention : Reuss Voigt Hill
#
# Bulk Modulus (GPa) = 74.86429 87.18077 81.02253
# Shear Modulus (GPa) = 33.32244 40.58239 36.95242
#
# Velocity S-wave (km/s) = 4.12425 4.55141 4.34308
# Velocity P-wave (km/s) = 7.80345 8.49246 8.15523
#
# Compressibility (1/GPa) = 0.01335750
#
# Stress axis : x y z
#
# Youngs Moduli (GPa) = 49.64092 100.03551 102.33410
#
# Poissons Ratio (x) = 0.71290 0.36567
# Poissons Ratio (y) = 0.35377 0.26381
# Poissons Ratio (z) = 0.17738 0.25789
#
# Static dielectric constant tensor:
#      x y z
#    x 3.800460 0.000000 0.000000 
#    y 0.000000 2.613760 0.000000 
#    z 0.000000 0.000000 3.866400 
# 
# 
# High freq. dielectric constant tensor:
#      x y z
#    x 1.777620 0.000000 0.000000 
#    y 0.000000 1.747600 0.000000 
#    z 0.000000 0.000000 1.783830 
# 
# From -- ./inp_files/28746.got.cif
#   From: 2010.03.12/outbox.cif.g09.slc.cpg/sg66_15_cif.got.tgz:28746.got - 2010.04.10 21:57:39.
