data_PCOD8277648
_publ_section_title
;
Structure prediction by ZEFSAII (Michael W. Deem and Ramdas Pophale) SiO2 
 PCOD8277648
Probable space group: C C C M
;
_chemical_formula_sum "Si O2"
_cell_formula_units_Z 88
_cell_length_a 11.897976
_cell_length_b 18.501286
_cell_length_c 18.602486
_cell_angle_alpha 90.000000
_cell_angle_beta 90.000000
_cell_angle_gamma 90.000000
_cell_volume 4094.925374
_symmetry_space_group_name_H-M "C C C M"
_symmetry_group_IT_number 66
_symmetry_cell_setting 'orthorhombic'
loop_
_space_group_symop_operation_xyz
x,y,z
-x,-y,z
x,-y,1/2-z
-x,y,1/2-z
-x,-y,-z
x,y,-z
-x,y,1/2+z
x,-y,1/2+z
1/2+x,1/2+y,z
1/2-x,1/2-y,z
1/2+x,1/2-y,1/2-z
1/2-x,1/2+y,1/2-z
1/2-x,1/2-y,-z
1/2+x,1/2+y,-z
1/2-x,1/2+y,1/2+z
1/2+x,1/2-y,1/2+z
loop_
_atom_site_type_symbol
_atom_site_label
_atom_site_fract_x
_atom_site_fract_y
_atom_site_fract_z
Si Si1 0.286186 0.068647 0.886664
Si Si2 0.741034 0.500000 0.250000
Si Si3 0.598292 0.199376 0.000000
Si Si4 0.397389 0.633264 0.195491
Si Si5 0.750000 0.750000 0.628565
Si Si6 0.376270 0.030878 0.500000
Si Si7 0.041785 0.919511 0.421454
Si Si8 0.845038 0.312544 0.500000
O O1 0.155015 0.084383 0.875503
O O2 0.340226 0.137835 0.927183
O O3 0.322186 0.045984 0.805203
O O4 0.307180 0.996053 0.931368
O O5 0.658077 0.443918 0.211184
O O6 0.651598 0.224669 0.075030
O O7 0.616161 0.114899 0.000000
O O8 0.467621 0.223248 0.000000
O O9 0.500000 0.653298 0.250000
O O10 0.299984 0.692838 0.186267
O O11 0.449698 0.629739 0.115942
O O12 0.500000 0.000000 0.500000
O O13 0.066992 0.886427 0.500000
O O14 0.000000 0.000000 0.429027
O O15 0.750000 0.250000 0.500000
#
# Coordination Sequence:
#
# PCOD8277648 Si02
#       8
#    16   8   8  16   8   8  16   8
#     4  11  22  40  68 102 132 178 232 294 358 418
#     4  12  23  44  71 100 140 178 229 298 367 420
#     4  11  25  49  72  97 150 182 243 302 361 427
#     4  12  24  46  69 101 146 183 232 292 362 427
#     4  11  30  44  70 106 137 202 230 290 367 442
#     4  11  21  45  70  97 129 172 236 295 350 407
#     4  11  21  34  66 105 128 163 228 298 348 403
#     4  11  26  45  70 108 140 192 249 301 356 427
#
# _framework density 21.490012
#
# number of rings (size 3 to 8) (size 9 to 14) (size 15 to 20)
#    0.000    0.727    7.273    1.364    5.091    0.000 
#    4.909    0.455    0.000    0.000    0.000    0.000 
#    0.000    0.000    0.000    0.000    0.000    0.000 
#
# Total GULP energy -545107.306703 kJ/mol
# GULP energy per Si atom -12388.802425 kJ/mol
# Density = 2.144110 g / cm^3
# Si number density = 21.490012 Si / 1000 Ang^3
#
#
#
# Elastic Constant Matrix: (Units=GPa)
#
#
# Indices 1 2 3 4 5 6 
#
# 1 107.1441 46.4237 30.5230 0.0000 0.0000 0.0000
# 2 46.4237 112.3303 39.2989 0.0000 0.0000 0.0000
# 3 30.5230 39.2989 126.5424 0.0000 0.0000 0.0000
# 4 0.0000 0.0000 0.0000 71.6257 0.0000 0.0000
# 5 0.0000 0.0000 0.0000 0.0000 30.7269 0.0000
# 6 0.0000 0.0000 0.0000 0.0000 0.0000 39.2636
#
#
#
# Elastic Compliance Matrix: (Units=1/GPa)
#
#
# Indices 1 2 3 4 5 6 
#
# 1 0.011608 -0.004283 -0.001470 0.000000 0.000000 0.000000
# 2 -0.004283 0.011568 -0.002559 0.000000 0.000000 0.000000
# 3 -0.001470 -0.002559 0.009052 0.000000 0.000000 0.000000
# 4 0.000000 0.000000 0.000000 0.013961 0.000000 0.000000
# 5 0.000000 0.000000 0.000000 0.000000 0.032545 0.000000
# 6 0.000000 0.000000 0.000000 0.000000 0.000000 0.025469
#
#
# Mechanical properties :
#
#
# Convention : Reuss Voigt Hill
#
# Bulk Modulus (GPa) = 64.09006 64.27867 64.18437
# Shear Modulus (GPa) = 39.67380 43.64131 41.65755
#
# Velocity S-wave (km/s) = 4.30135 4.51130 4.40757
# Velocity P-wave (km/s) = 7.38625 7.55722 7.47223
#
# Compressibility (1/GPa) = 0.01560304
#
# Stress axis : x y z
#
# Youngs Moduli (GPa) = 86.14989 86.44683 110.47471
#
# Poissons Ratio (x) = 0.37025 0.16237
# Poissons Ratio (y) = 0.36898 0.28275
# Poissons Ratio (z) = 0.12662 0.22125
#
# Static dielectric constant tensor:
#      x y z
#    x 3.908750 0.000000 0.000000 
#    y 0.000000 3.778290 0.000000 
#    z 0.000000 0.000000 4.514190 
# 
# 
# High freq. dielectric constant tensor:
#      x y z
#    x 1.836960 0.000000 0.000000 
#    y 0.000000 1.838500 0.000000 
#    z 0.000000 0.000000 1.850290 
# 
# From -- ./inp_files/48619.got.cif
#   From: 2010.03.12/outbox.cif.g09.slc.cpg/sg66_25_cif.got.tgz:48619.got - 2010.04.10 21:57:39.
