data_PCOD8277160
_publ_section_title
;
Structure prediction by ZEFSAII (Michael W. Deem and Ramdas Pophale) SiO2 
 PCOD8277160
Probable space group: C C C M
;
_chemical_formula_sum "Si O2"
_cell_formula_units_Z 104
_cell_length_a 9.119628
_cell_length_b 19.487184
_cell_length_c 28.321389
_cell_angle_alpha 90.000000
_cell_angle_beta 90.000000
_cell_angle_gamma 90.000000
_cell_volume 5033.160253
_symmetry_space_group_name_H-M "C C C M"
_symmetry_group_IT_number 66
_symmetry_cell_setting 'orthorhombic'
loop_
_space_group_symop_operation_xyz
x,y,z
-x,-y,z
x,-y,1/2-z
-x,y,1/2-z
-x,-y,-z
x,y,-z
-x,y,1/2+z
x,-y,1/2+z
1/2+x,1/2+y,z
1/2-x,1/2-y,z
1/2+x,1/2-y,1/2-z
1/2-x,1/2+y,1/2-z
1/2-x,1/2-y,-z
1/2+x,1/2+y,-z
1/2-x,1/2+y,1/2+z
1/2+x,1/2-y,1/2+z
loop_
_atom_site_type_symbol
_atom_site_label
_atom_site_fract_x
_atom_site_fract_y
_atom_site_fract_z
Si Si1 0.250000 0.750000 0.671736
Si Si2 0.842397 0.523725 0.128741
Si Si3 0.616972 0.198047 0.051927
Si Si4 0.389037 0.561231 0.445416
Si Si5 0.043127 0.364468 0.801672
Si Si6 0.227269 0.624299 0.864347
Si Si7 0.517308 0.311206 0.608204
O O1 0.140322 0.704491 0.703346
O O2 0.340336 0.694850 0.640762
O O3 0.757842 0.558208 0.085524
O O4 0.864936 0.575720 0.172287
O O5 0.751654 0.456647 0.146583
O O6 0.000000 0.500000 0.109433
O O7 0.750000 0.250000 0.046040
O O8 0.668305 0.131628 0.081468
O O9 0.494212 0.237673 0.082252
O O10 0.559628 0.175324 0.000000
O O11 0.500000 0.500000 0.433140
O O12 0.344113 0.560788 0.500000
O O13 0.469031 0.631835 0.432520
O O14 0.000000 0.391431 0.750000
O O15 0.894657 0.344309 0.829415
O O16 0.377436 0.667602 0.859073
#
# Coordination Sequence:
#
# PCOD8277160 Si02
#       7
#     8  16  16  16  16  16  16
#     4  12  24  40  67  94 128 164 215 268 334 378
#     4  10  22  41  64  92 127 171 215 274 327 381
#     4   9  18  33  58  90 127 172 217 254 307 382
#     4  11  22  38  65  98 133 178 224 265 318 386
#     4  11  25  45  68  95 124 165 214 272 338 399
#     4  10  21  39  65  92 127 173 214 266 325 386
#     4  11  21  39  63  92 133 176 214 267 321 385
#
# _framework density 20.662963000000001
#
# number of rings (size 3 to 8) (size 9 to 14) (size 15 to 20)
#    0.000    1.538    4.615    0.462    0.000    5.538 
#    0.000    6.923    0.000    0.000    0.000    0.000 
#    0.000    0.000    0.000    0.000    0.000    0.000 
#
# Total GULP energy -644688.699679 kJ/mol
# GULP energy per Si atom -12397.859609 kJ/mol
# Density = 2.061593 g / cm^3
# Si number density = 20.662963 Si / 1000 Ang^3
#
#
#
# Elastic Constant Matrix: (Units=GPa)
#
#
# Indices 1 2 3 4 5 6 
#
# 1 95.6205 32.9996 51.9764 0.0000 0.0000 0.0000
# 2 32.9996 98.1804 40.0443 0.0000 0.0000 0.0000
# 3 51.9764 40.0443 127.7395 0.0000 0.0000 0.0000
# 4 0.0000 0.0000 0.0000 23.8726 0.0000 0.0000
# 5 0.0000 0.0000 0.0000 0.0000 28.2731 0.0000
# 6 0.0000 0.0000 0.0000 0.0000 0.0000 33.1611
#
#
#
# Elastic Compliance Matrix: (Units=1/GPa)
#
#
# Indices 1 2 3 4 5 6 
#
# 1 0.014043 -0.002740 -0.004855 0.000000 0.000000 0.000000
# 2 -0.002740 0.012213 -0.002714 0.000000 0.000000 0.000000
# 3 -0.004855 -0.002714 0.010655 0.000000 0.000000 0.000000
# 4 0.000000 0.000000 0.000000 0.041889 0.000000 0.000000
# 5 0.000000 0.000000 0.000000 0.000000 0.035369 0.000000
# 6 0.000000 0.000000 0.000000 0.000000 0.000000 0.030156
#
#
# Mechanical properties :
#
#
# Convention : Reuss Voigt Hill
#
# Bulk Modulus (GPa) = 61.37520 63.50899 62.44209
# Shear Modulus (GPa) = 29.34746 30.16268 29.75507
#
# Velocity S-wave (km/s) = 3.77277 3.82481 3.79888
# Velocity P-wave (km/s) = 6.98182 7.09281 7.03753
#
# Compressibility (1/GPa) = 0.01629323
#
# Stress axis : x y z
#
# Youngs Moduli (GPa) = 71.21234 81.87958 93.85588
#
# Poissons Ratio (x) = 0.22432 0.45567
# Poissons Ratio (y) = 0.19510 0.25471
# Poissons Ratio (z) = 0.34573 0.22221
#
# Static dielectric constant tensor:
#      x y z
#    x 3.738640 0.000000 0.000000 
#    y 0.000000 3.845010 0.000000 
#    z 0.000000 0.000000 3.597740 
# 
# 
# High freq. dielectric constant tensor:
#      x y z
#    x 1.806340 0.000000 0.000000 
#    y 0.000000 1.816040 0.000000 
#    z 0.000000 0.000000 1.782260 
# 
# From -- ./inp_files/68274.got.cif
#   From: 2010.03.12/outbox.cif.g09.slc.cpg/sg66_35_cif.got.tgz:68274.got - 2010.04.10 21:57:39.
