data_PCOD8277265
_publ_section_title
;
Structure prediction by ZEFSAII (Michael W. Deem and Ramdas Pophale) SiO2 
 PCOD8277265
Probable space group: C C C M
;
_chemical_formula_sum "Si O2"
_cell_formula_units_Z 112
_cell_length_a 16.202203
_cell_length_b 14.028918
_cell_length_c 23.078610
_cell_angle_alpha 90.000000
_cell_angle_beta 90.000000
_cell_angle_gamma 90.000000
_cell_volume 5245.753682
_symmetry_space_group_name_H-M "C C C M"
_symmetry_group_IT_number 66
_symmetry_cell_setting 'orthorhombic'
loop_
_space_group_symop_operation_xyz
x,y,z
-x,-y,z
x,-y,1/2-z
-x,y,1/2-z
-x,-y,-z
x,y,-z
-x,y,1/2+z
x,-y,1/2+z
1/2+x,1/2+y,z
1/2-x,1/2-y,z
1/2+x,1/2-y,1/2-z
1/2-x,1/2+y,1/2-z
1/2-x,1/2-y,-z
1/2+x,1/2+y,-z
1/2-x,1/2+y,1/2+z
1/2+x,1/2-y,1/2+z
loop_
_atom_site_type_symbol
_atom_site_label
_atom_site_fract_x
_atom_site_fract_y
_atom_site_fract_z
Si Si1 0.384493 0.397294 0.761897
Si Si2 0.775852 0.448019 0.332731
Si Si3 0.960337 0.795863 0.865095
Si Si4 0.462701 0.901857 0.313801
Si Si5 0.830414 0.895088 0.066536
Si Si6 0.601345 0.599840 0.434244
Si Si7 0.712911 0.350078 0.840646
O O1 0.424063 0.500000 0.750000
O O2 0.295380 0.403820 0.792931
O O3 0.448117 0.337025 0.800174
O O4 0.369759 0.351368 0.698966
O O5 0.863293 0.408554 0.311281
O O6 0.754631 0.418468 0.399269
O O7 0.775222 0.563175 0.325859
O O8 0.985659 0.685006 0.857152
O O9 0.875934 0.805729 0.902779
O O10 0.026338 0.857215 0.899111
O O11 0.500000 0.884632 0.250000
O O12 0.500000 0.000000 0.340011
O O13 0.893998 0.984916 0.070876
O O14 0.808264 0.871512 0.000000
O O15 0.593753 0.633766 0.500000
O O16 0.685618 0.642377 0.407567
O O17 0.750000 0.250000 0.826286
#
# Coordination Sequence:
#
# PCOD8277265 Si02
#       7
#    16  16  16  16  16  16  16
#     4   9  21  36  59  94 128 156 196 268 328 374
#     4   9  21  42  59  90 126 160 210 263 307 377
#     4  11  23  38  62  98 129 168 210 253 314 388
#     4  11  28  42  62  85 127 179 217 252 303 382
#     4   9  19  41  71  97 124 164 205 264 330 379
#     4  10  22  40  61  94 133 166 205 257 322 390
#     4  10  22  34  65  90 120 163 211 263 317 370
#
# _framework density 21.350601999999999
#
# number of rings (size 3 to 8) (size 9 to 14) (size 15 to 20)
#    0.000    2.143    0.000    1.714   12.000    3.143 
#    0.000    4.286    0.000    2.143    0.000    0.000 
#    0.000    0.000    0.000    0.000    0.000    0.000 
#
# Total GULP energy -694149.772838 kJ/mol
# GULP energy per Si atom -12395.531658 kJ/mol
# Density = 2.130201 g / cm^3
# Si number density = 21.350602 Si / 1000 Ang^3
#
#
#
# Elastic Constant Matrix: (Units=GPa)
#
#
# Indices 1 2 3 4 5 6 
#
# 1 83.9999 25.8029 35.1189 0.0000 0.0000 0.0000
# 2 25.8029 109.1811 47.7769 0.0000 0.0000 0.0000
# 3 35.1189 47.7769 139.0123 0.0000 0.0000 0.0000
# 4 0.0000 0.0000 0.0000 23.8431 0.0000 0.0000
# 5 0.0000 0.0000 0.0000 0.0000 6.9465 0.0000
# 6 0.0000 0.0000 0.0000 0.0000 0.0000 8.8211
#
#
#
# Elastic Compliance Matrix: (Units=1/GPa)
#
#
# Indices 1 2 3 4 5 6 
#
# 1 0.013681 -0.002025 -0.002760 0.000000 0.000000 0.000000
# 2 -0.002025 0.011080 -0.003296 0.000000 0.000000 0.000000
# 3 -0.002760 -0.003296 0.009024 0.000000 0.000000 0.000000
# 4 0.000000 0.000000 0.000000 0.041941 0.000000 0.000000
# 5 0.000000 0.000000 0.000000 0.000000 0.143957 0.000000
# 6 0.000000 0.000000 0.000000 0.000000 0.000000 0.113364
#
#
# Mechanical properties :
#
#
# Convention : Reuss Voigt Hill
#
# Bulk Modulus (GPa) = 56.75039 61.06561 58.90800
# Shear Modulus (GPa) = 14.08113 22.82178 18.45145
#
# Velocity S-wave (km/s) = 2.57090 3.27296 2.94294
# Velocity P-wave (km/s) = 5.95404 6.55336 6.26087
#
# Compressibility (1/GPa) = 0.01762102
#
# Stress axis : x y z
#
# Youngs Moduli (GPa) = 73.09460 90.25046 110.81735
#
# Poissons Ratio (x) = 0.18280 0.30587
# Poissons Ratio (y) = 0.14805 0.36531
# Poissons Ratio (z) = 0.20175 0.29751
#
# Static dielectric constant tensor:
#      x y z
#    x 3.633840 0.000000 0.000000 
#    y 0.000000 3.822650 0.000000 
#    z 0.000000 0.000000 4.084650 
# 
# 
# High freq. dielectric constant tensor:
#      x y z
#    x 1.825090 0.000000 0.000000 
#    y 0.000000 1.827090 0.000000 
#    z 0.000000 0.000000 1.838610 
# 
# From -- ./inp_files/58245.got.cif
#   From: 2010.03.12/outbox.cif.g09.slc.cpg/sg66_30_cif.got.tgz:58245.got - 2010.04.10 21:57:39.
