data_PCOD8277134
_publ_section_title
;
Structure prediction by ZEFSAII (Michael W. Deem and Ramdas Pophale) SiO2 
 PCOD8277134
Probable space group: C C C M
;
_chemical_formula_sum "Si O2"
_cell_formula_units_Z 96
_cell_length_a 9.602796
_cell_length_b 28.476255
_cell_length_c 18.499398
_cell_angle_alpha 90.000000
_cell_angle_beta 90.000000
_cell_angle_gamma 90.000000
_cell_volume 5058.691233
_symmetry_space_group_name_H-M "C C C M"
_symmetry_group_IT_number 66
_symmetry_cell_setting 'orthorhombic'
loop_
_space_group_symop_operation_xyz
x,y,z
-x,-y,z
x,-y,1/2-z
-x,y,1/2-z
-x,-y,-z
x,y,-z
-x,y,1/2+z
x,-y,1/2+z
1/2+x,1/2+y,z
1/2-x,1/2-y,z
1/2+x,1/2-y,1/2-z
1/2-x,1/2+y,1/2-z
1/2-x,1/2-y,-z
1/2+x,1/2+y,-z
1/2-x,1/2+y,1/2+z
1/2+x,1/2-y,1/2+z
loop_
_atom_site_type_symbol
_atom_site_label
_atom_site_fract_x
_atom_site_fract_y
_atom_site_fract_z
Si Si1 0.906989 0.299602 0.914931
Si Si2 0.914564 0.632641 0.176665
Si Si3 0.111452 0.459329 0.082695
Si Si4 0.905159 0.807812 0.584543
Si Si5 0.905630 0.134102 0.685167
Si Si6 0.134257 0.975347 0.674456
O O1 0.927567 0.245795 0.890927
O O2 0.754510 0.320302 0.893958
O O3 0.023859 0.326833 0.872103
O O4 0.931464 0.305328 0.000000
O O5 0.928405 0.584297 0.132837
O O6 0.756005 0.648701 0.192523
O O7 0.000000 0.626215 0.250000
O O8 0.250915 0.482376 0.113450
O O9 0.000000 0.500000 0.087878
O O10 0.131812 0.442418 0.000000
O O11 0.923626 0.812173 0.500000
O O12 0.021001 0.843248 0.615429
O O13 0.908175 0.078246 0.685589
O O14 0.000000 0.153984 0.750000
O O15 0.179953 0.000000 0.750000
O O16 0.000000 0.000000 0.641573
#
# Coordination Sequence:
#
# PCOD8277134 Si02
#       6
#    16  16  16  16  16  16
#     4   9  19  40  63  87 122 158 200 243 294 366
#     4  11  24  37  60  88 119 161 203 250 307 354
#     4  10  24  40  59  89 120 156 202 252 302 361
#     4   9  20  38  63  89 118 161 198 241 301 357
#     4  11  22  37  58  87 118 152 198 254 291 357
#     4  10  21  39  63  84 118 157 203 244 304 364
#
# _framework density 18.977240999999999
#
# number of rings (size 3 to 8) (size 9 to 14) (size 15 to 20)
#    0.000    2.000    1.667    2.500    4.667    6.333 
#    0.000    3.333    0.000    0.000    0.000    0.000 
#    0.000    0.000    0.000    0.000    0.000    0.000 
#
# Total GULP energy -594998.630874 kJ/mol
# GULP energy per Si atom -12395.804810 kJ/mol
# Density = 1.893405 g / cm^3
# Si number density = 18.977241 Si / 1000 Ang^3
#
#
#
# Elastic Constant Matrix: (Units=GPa)
#
#
# Indices 1 2 3 4 5 6 
#
# 1 156.9324 59.3487 68.9961 0.0000 0.0000 0.0000
# 2 59.3487 83.4975 48.1501 0.0000 0.0000 0.0000
# 3 68.9961 48.1501 88.0345 0.0000 0.0000 0.0000
# 4 0.0000 0.0000 0.0000 6.1824 0.0000 0.0000
# 5 0.0000 0.0000 0.0000 0.0000 30.8462 0.0000
# 6 0.0000 0.0000 0.0000 0.0000 0.0000 29.8539
#
#
#
# Elastic Compliance Matrix: (Units=1/GPa)
#
#
# Indices 1 2 3 4 5 6 
#
# 1 0.010561 -0.003993 -0.006093 0.000000 0.000000 0.000000
# 2 -0.003993 0.019004 -0.007265 0.000000 0.000000 0.000000
# 3 -0.006093 -0.007265 0.020108 0.000000 0.000000 0.000000
# 4 0.000000 0.000000 0.000000 0.161749 0.000000 0.000000
# 5 0.000000 0.000000 0.000000 0.000000 0.032419 0.000000
# 6 0.000000 0.000000 0.000000 0.000000 0.000000 0.033497
#
#
# Mechanical properties :
#
#
# Convention : Reuss Voigt Hill
#
# Bulk Modulus (GPa) = 66.79421 75.71713 71.25567
# Shear Modulus (GPa) = 15.77142 23.50780 19.63961
#
# Velocity S-wave (km/s) = 2.88596 3.52339 3.22048
# Velocity P-wave (km/s) = 6.81017 7.51917 7.17343
#
# Compressibility (1/GPa) = 0.01497136
#
# Stress axis : x y z
#
# Youngs Moduli (GPa) = 94.68662 52.62115 49.73132
#
# Poissons Ratio (x) = 0.21011 0.30303
# Poissons Ratio (y) = 0.37808 0.36128
# Poissons Ratio (z) = 0.57695 0.38227
#
# Static dielectric constant tensor:
#      x y z
#    x 4.140470 0.000000 0.000000 
#    y 0.000000 6.482610 0.000000 
#    z 0.000000 0.000000 3.507840 
# 
# 
# High freq. dielectric constant tensor:
#      x y z
#    x 1.749610 0.000000 0.000000 
#    y 0.000000 1.738540 0.000000 
#    z 0.000000 0.000000 1.739300 
# 
# From -- ./inp_files/47344.got.cif
#   From: 2010.03.12/outbox.cif.g09.slc.cpg/sg66_24_cif.got.tgz:47344.got - 2010.04.10 21:57:39.
