data_PCOD8277461
_publ_section_title
;
Structure prediction by ZEFSAII (Michael W. Deem and Ramdas Pophale) SiO2 
 PCOD8277461
Probable space group: C C C M
;
_chemical_formula_sum "Si O2"
_cell_formula_units_Z 112
_cell_length_a 24.863788
_cell_length_b 14.352481
_cell_length_c 14.787249
_cell_angle_alpha 90.000000
_cell_angle_beta 90.000000
_cell_angle_gamma 90.000000
_cell_volume 5276.933980
_symmetry_space_group_name_H-M "C C C M"
_symmetry_group_IT_number 66
_symmetry_cell_setting 'orthorhombic'
loop_
_space_group_symop_operation_xyz
x,y,z
-x,-y,z
x,-y,1/2-z
-x,y,1/2-z
-x,-y,-z
x,y,-z
-x,y,1/2+z
x,-y,1/2+z
1/2+x,1/2+y,z
1/2-x,1/2-y,z
1/2+x,1/2-y,1/2-z
1/2-x,1/2+y,1/2-z
1/2-x,1/2-y,-z
1/2+x,1/2+y,-z
1/2-x,1/2+y,1/2+z
1/2+x,1/2-y,1/2+z
loop_
_atom_site_type_symbol
_atom_site_label
_atom_site_fract_x
_atom_site_fract_y
_atom_site_fract_z
Si Si1 0.841964 0.499115 0.607254
Si Si2 0.606650 0.418538 0.101474
Si Si3 0.460334 0.921538 0.895047
Si Si4 0.178405 0.163556 0.749629
Si Si5 0.011892 0.784571 0.849908
Si Si6 0.594810 0.627258 0.099015
Si Si7 0.701746 0.129737 0.749641
O O1 0.828757 0.487197 0.500000
O O2 0.900702 0.541612 0.622459
O O3 0.834983 0.402441 0.663431
O O4 0.801523 0.567842 0.659475
O O5 0.656091 0.399808 0.168595
O O6 0.561652 0.340065 0.109651
O O7 0.580890 0.519641 0.123410
O O8 0.629897 0.415240 0.000000
O O9 0.472665 0.824177 0.846522
O O10 0.500000 0.000000 0.855454
O O11 0.471828 0.904593 0.000000
O O12 0.138136 0.166734 0.832909
O O13 0.236142 0.125887 0.781833
O O14 0.183265 0.269495 0.716751
O O15 0.000000 0.820918 0.750000
O O16 0.958301 0.808483 0.905321
O O17 0.621229 0.632270 0.000000
#
# Coordination Sequence:
#
# PCOD8277461 Si02
#       7
#    16  16  16  16  16  16  16
#     4  10  23  43  69  96 132 176 222 276 335 396
#     4  11  24  42  66  95 132 173 220 274 334 401
#     4  10  23  41  64  96 132 172 220 271 330 404
#     4  11  24  44  65  96 131 172 224 281 333 401
#     4  12  24  39  65  96 134 175 214 273 332 400
#     4  11  25  41  66  96 130 173 219 270 335 402
#     4  10  25  43  66  94 132 173 223 281 336 389
#
# _framework density 21.224446
#
# number of rings (size 3 to 8) (size 9 to 14) (size 15 to 20)
#    0.000    1.286    1.429    3.000    6.000    6.571 
#    0.000    2.857    0.000    0.000    0.000    0.000 
#    0.000    0.000    0.000    0.000    0.000    0.000 
#
# Total GULP energy -694340.041941 kJ/mol
# GULP energy per Si atom -12398.929320 kJ/mol
# Density = 2.117614 g / cm^3
# Si number density = 21.224446 Si / 1000 Ang^3
#
#
#
# Elastic Constant Matrix: (Units=GPa)
#
#
# Indices 1 2 3 4 5 6 
#
# 1 106.7441 42.9218 31.2182 0.0000 0.0000 0.0000
# 2 42.9218 92.3007 17.8653 0.0000 0.0000 0.0000
# 3 31.2182 17.8653 115.0602 0.0000 0.0000 0.0000
# 4 0.0000 0.0000 0.0000 27.2250 0.0000 0.0000
# 5 0.0000 0.0000 0.0000 0.0000 -10.6874 0.0000
# 6 0.0000 0.0000 0.0000 0.0000 0.0000 34.8263
#
#
#
# Elastic Compliance Matrix: (Units=1/GPa)
#
#
# Indices 1 2 3 4 5 6 
#
# 1 0.012183 -0.005181 -0.002501 0.000000 0.000000 0.000000
# 2 -0.005181 0.013373 -0.000671 0.000000 0.000000 0.000000
# 3 -0.002501 -0.000671 0.009474 0.000000 0.000000 0.000000
# 4 0.000000 0.000000 0.000000 0.036731 0.000000 0.000000
# 5 0.000000 0.000000 0.000000 0.000000 -0.093568 0.000000
# 6 0.000000 0.000000 0.000000 0.000000 0.000000 0.028714
#
#
# Mechanical properties :
#
#
# Convention : Reuss Voigt Hill
#
# Bulk Modulus (GPa) = 54.57249 55.34620 54.95935
# Shear Modulus (GPa) = 168.22994 25.07943 96.65468
#
# Velocity S-wave (km/s) = 8.91260 3.44121 6.75560
# Velocity P-wave (km/s) = 11.47521 6.47476 9.31673
#
# Compressibility (1/GPa) = 0.01832425
#
# Stress axis : x y z
#
# Youngs Moduli (GPa) = 82.08130 74.77543 105.55411
#
# Poissons Ratio (x) = 0.38743 0.26399
# Poissons Ratio (y) = 0.42529 0.07079
# Poissons Ratio (z) = 0.20529 0.05015
#
# Static dielectric constant tensor:
#      x y z
#    x 3.813460 0.000000 0.000000 
#    y 0.000000 3.990160 0.000000 
#    z 0.000000 0.000000 4.119930 
# 
# 
# High freq. dielectric constant tensor:
#      x y z
#    x 1.828040 0.000000 0.000000 
#    y 0.000000 1.845190 0.000000 
#    z 0.000000 0.000000 1.836060 
# 
# From -- ./inp_files/32459.got.cif
#   From: 2010.03.12/outbox.cif.g09.slc.cpg/sg66_17_cif.got.tgz:32459.got - 2010.04.10 21:57:39.
