data_PCOD8277604
_publ_section_title
;
Structure prediction by ZEFSAII (Michael W. Deem and Ramdas Pophale) SiO2 
 PCOD8277604
Probable space group: C C C M
;
_chemical_formula_sum "Si O2"
_cell_formula_units_Z 84
_cell_length_a 14.745400
_cell_length_b 18.713472
_cell_length_c 14.257466
_cell_angle_alpha 90.000000
_cell_angle_beta 90.000000
_cell_angle_gamma 90.000000
_cell_volume 3934.171378
_symmetry_space_group_name_H-M "C C C M"
_symmetry_group_IT_number 66
_symmetry_cell_setting 'orthorhombic'
loop_
_space_group_symop_operation_xyz
x,y,z
-x,-y,z
x,-y,1/2-z
-x,y,1/2-z
-x,-y,-z
x,y,-z
-x,y,1/2+z
x,-y,1/2+z
1/2+x,1/2+y,z
1/2-x,1/2-y,z
1/2+x,1/2-y,1/2-z
1/2-x,1/2+y,1/2-z
1/2-x,1/2-y,-z
1/2+x,1/2+y,-z
1/2-x,1/2+y,1/2+z
1/2+x,1/2-y,1/2+z
loop_
_atom_site_type_symbol
_atom_site_label
_atom_site_fract_x
_atom_site_fract_y
_atom_site_fract_z
Si Si1 0.399007 0.276446 0.241869
Si Si2 0.360310 0.118500 0.262443
Si Si3 0.283302 0.627868 0.394952
Si Si4 0.604678 0.495516 0.859387
Si Si5 0.203098 0.852885 0.103648
Si Si6 0.500000 0.000000 0.750000
O O1 0.500000 0.311066 0.250000
O O2 0.410433 0.191581 0.232769
O O3 0.340654 0.308635 0.155517
O O4 0.344661 0.290844 0.337107
O O5 0.300696 0.100657 0.169343
O O6 0.299397 0.127001 0.353484
O O7 0.430189 0.056419 0.297357
O O8 0.252105 0.652911 0.500000
O O9 0.347928 0.560812 0.411054
O O10 0.500000 0.500000 0.882456
O O11 0.626834 0.500000 0.750000
O O12 0.639679 0.421714 0.900271
O O13 0.218129 0.822485 0.000000
#
# Coordination Sequence:
#
# PCOD8277604 Si02
#       6
#    16  16  16  16  16   4
#     4  11  23  41  64  96 129 170 216 266 325 387
#     4  11  24  44  67  90 125 170 222 270 328 380
#     4  11  23  40  65  95 131 170 213 264 325 391
#     4  11  20  35  59  93 129 165 204 252 319 388
#     4  11  23  40  65  95 131 170 213 264 325 391
#     4  12  24  48  74  92 126 180 224 280 318 380
#
# _framework density 21.351382999999998
#
# number of rings (size 3 to 8) (size 9 to 14) (size 15 to 20)
#    0.000    0.952    4.762    5.143    0.000    6.857 
#    0.000    1.905    0.000    0.000    0.000    0.000 
#    0.000    0.000    0.000    0.000    0.000    0.000 
#
# Total GULP energy -520448.378617 kJ/mol
# GULP energy per Si atom -12391.628062 kJ/mol
# Density = 2.130279 g / cm^3
# Si number density = 21.351383 Si / 1000 Ang^3
#
#
#
# Elastic Constant Matrix: (Units=GPa)
#
#
# Indices 1 2 3 4 5 6 
#
# 1 123.1450 28.4005 42.6275 0.0000 0.0000 0.0000
# 2 28.4005 120.3668 6.2471 0.0000 0.0000 0.0000
# 3 42.6275 6.2471 154.6243 0.0000 0.0000 0.0000
# 4 0.0000 0.0000 0.0000 -5.1525 0.0000 0.0000
# 5 0.0000 0.0000 0.0000 0.0000 -76.4790 0.0000
# 6 0.0000 0.0000 0.0000 0.0000 0.0000 34.6458
#
#
#
# Elastic Compliance Matrix: (Units=1/GPa)
#
#
# Indices 1 2 3 4 5 6 
#
# 1 0.009482 -0.002106 -0.002529 0.000000 0.000000 0.000000
# 2 -0.002106 0.008793 0.000225 0.000000 0.000000 0.000000
# 3 -0.002529 0.000225 0.007155 0.000000 0.000000 0.000000
# 4 0.000000 0.000000 0.000000 -0.194081 0.000000 0.000000
# 5 0.000000 0.000000 0.000000 0.000000 -0.013075 0.000000
# 6 0.000000 0.000000 0.000000 0.000000 0.000000 0.028863
#
#
# Mechanical properties :
#
#
# Convention : Reuss Voigt Hill
#
# Bulk Modulus (GPa) = 60.20051 61.40958 60.80505
# Shear Modulus (GPa) = -36.09926 11.99361 -12.05283
#
# Velocity S-wave (km/s) = -4.11630 2.37265 -2.37850
# Velocity P-wave (km/s) = 2.38001 6.02742 4.58226
#
# Compressibility (1/GPa) = 0.01661115
#
# Stress axis : x y z
#
# Youngs Moduli (GPa) = 105.46782 113.72507 139.75562
#
# Poissons Ratio (x) = 0.23950 0.35342
# Poissons Ratio (y) = 0.22211 -0.03149
# Poissons Ratio (z) = 0.26671 -0.02562
#
# Static dielectric constant tensor:
#      x y z
#    x 4.014060 0.000000 0.000000 
#    y 0.000000 3.968210 0.000000 
#    z 0.000000 0.000000 3.625440 
# 
# 
# High freq. dielectric constant tensor:
#      x y z
#    x 1.844170 0.000000 0.000000 
#    y 0.000000 1.850400 0.000000 
#    z 0.000000 0.000000 1.819210 
# 
# From -- ./inp_files/28202.got.cif
#   From: 2010.03.12/outbox.cif.g09.slc.cpg/sg66_15_cif.got.tgz:28202.got - 2010.04.10 21:57:39.
