data_PCOD8277098
_publ_section_title
;
Structure prediction by ZEFSAII (Michael W. Deem and Ramdas Pophale) SiO2 
 PCOD8277098
Probable space group: C C C M
;
_chemical_formula_sum "Si O2"
_cell_formula_units_Z 96
_cell_length_a 13.423949
_cell_length_b 21.759489
_cell_length_c 14.818034
_cell_angle_alpha 90.000000
_cell_angle_beta 90.000000
_cell_angle_gamma 90.000000
_cell_volume 4328.322105
_symmetry_space_group_name_H-M "C C C M"
_symmetry_group_IT_number 66
_symmetry_cell_setting 'orthorhombic'
loop_
_space_group_symop_operation_xyz
x,y,z
-x,-y,z
x,-y,1/2-z
-x,y,1/2-z
-x,-y,-z
x,y,-z
-x,y,1/2+z
x,-y,1/2+z
1/2+x,1/2+y,z
1/2-x,1/2-y,z
1/2+x,1/2-y,1/2-z
1/2-x,1/2+y,1/2-z
1/2-x,1/2-y,-z
1/2+x,1/2+y,-z
1/2-x,1/2+y,1/2+z
1/2+x,1/2-y,1/2+z
loop_
_atom_site_type_symbol
_atom_site_label
_atom_site_fract_x
_atom_site_fract_y
_atom_site_fract_z
Si Si1 0.866333 0.350800 0.103892
Si Si2 0.762801 0.464765 0.661956
Si Si3 0.815853 0.869582 0.279577
Si Si4 0.086798 0.956423 0.898820
Si Si5 0.888543 0.260127 0.751009
Si Si6 0.908750 0.634749 0.897888
O O1 0.782770 0.386239 0.160921
O O2 0.871382 0.283263 0.147184
O O3 0.974903 0.381677 0.117335
O O4 0.834087 0.346598 0.000000
O O5 0.804683 0.500000 0.750000
O O6 0.686830 0.410754 0.690798
O O7 0.694816 0.509509 0.601454
O O8 0.853044 0.430895 0.610253
O O9 0.908798 0.893195 0.340310
O O10 0.816760 0.799154 0.243978
O O11 0.059422 0.937184 0.000000
O O12 0.000000 0.000000 0.858909
O O13 0.871157 0.313770 0.675005
O O14 0.000000 0.234357 0.750000
O O15 0.893254 0.660689 0.000000
#
# Coordination Sequence:
#
# PCOD8277098 Si02
#       6
#    16  16  16  16  16  16
#     4  10  21  38  63  93 128 164 206 260 320 381
#     4  10  22  38  64  92 120 169 212 262 312 380
#     4  11  22  37  63  91 124 163 213 262 321 373
#     4  10  23  42  61  89 127 167 218 270 312 374
#     4  10  22  38  62  94 126 165 209 260 319 386
#     4  10  21  42  66  92 133 171 207 266 323 386
#
# _framework density 22.179496
#
# number of rings (size 3 to 8) (size 9 to 14) (size 15 to 20)
#    0.000    1.833    1.667    1.500    2.333    4.333 
#    0.000    8.333    0.000    9.000    0.000    0.000 
#    0.000    0.000    0.000    0.000    0.000    0.000 
#
# Total GULP energy -594641.770982 kJ/mol
# GULP energy per Si atom -12388.370229 kJ/mol
# Density = 2.212901 g / cm^3
# Si number density = 22.179496 Si / 1000 Ang^3
#
#
#
# Elastic Constant Matrix: (Units=GPa)
#
#
# Indices 1 2 3 4 5 6 
#
# 1 71.8610 15.6774 11.7019 0.0000 0.0000 0.0000
# 2 15.6774 96.1292 14.2236 0.0000 0.0000 0.0000
# 3 11.7019 14.2236 79.7985 0.0000 0.0000 0.0000
# 4 0.0000 0.0000 0.0000 21.3178 0.0000 0.0000
# 5 0.0000 0.0000 0.0000 0.0000 24.3330 0.0000
# 6 0.0000 0.0000 0.0000 0.0000 0.0000 40.8011
#
#
#
# Elastic Compliance Matrix: (Units=1/GPa)
#
#
# Indices 1 2 3 4 5 6 
#
# 1 0.014669 -0.002130 -0.001771 0.000000 0.000000 0.000000
# 2 -0.002130 0.010994 -0.001647 0.000000 0.000000 0.000000
# 3 -0.001771 -0.001647 0.013085 0.000000 0.000000 0.000000
# 4 0.000000 0.000000 0.000000 0.046909 0.000000 0.000000
# 5 0.000000 0.000000 0.000000 0.000000 0.041096 0.000000
# 6 0.000000 0.000000 0.000000 0.000000 0.000000 0.024509
#
#
# Mechanical properties :
#
#
# Convention : Reuss Voigt Hill
#
# Bulk Modulus (GPa) = 36.16628 36.77716 36.47172
# Shear Modulus (GPa) = 29.14147 31.03609 30.08878
#
# Velocity S-wave (km/s) = 3.62870 3.74480 3.68721
# Velocity P-wave (km/s) = 5.82221 5.94270 5.88276
#
# Compressibility (1/GPa) = 0.02765006
#
# Stress axis : x y z
#
# Youngs Moduli (GPa) = 68.17123 90.96035 76.42381
#
# Poissons Ratio (x) = 0.19377 0.13538
# Poissons Ratio (y) = 0.14522 0.12588
# Poissons Ratio (z) = 0.12076 0.14983
#
# Static dielectric constant tensor:
#      x y z
#    x 4.178750 0.000000 0.000000 
#    y 0.000000 3.828040 0.000000 
#    z 0.000000 0.000000 3.972180 
# 
# 
# High freq. dielectric constant tensor:
#      x y z
#    x 1.878790 0.000000 0.000000 
#    y 0.000000 1.861510 0.000000 
#    z 0.000000 0.000000 1.865820 
# 
# From -- ./inp_files/28361.got.cif
#   From: 2010.03.12/outbox.cif.g09.slc.cpg/sg66_15_cif.got.tgz:28361.got - 2010.04.10 21:57:39.
