data_PCOD8277027
_publ_section_title
;
Structure prediction by ZEFSAII (Michael W. Deem and Ramdas Pophale) SiO2 
 PCOD8277027
Probable space group: C C C M
;
_chemical_formula_sum "Si O2"
_cell_formula_units_Z 96
_cell_length_a 21.563928
_cell_length_b 11.462624
_cell_length_c 19.539847
_cell_angle_alpha 90.000000
_cell_angle_beta 90.000000
_cell_angle_gamma 90.000000
_cell_volume 4829.843723
_symmetry_space_group_name_H-M "C C C M"
_symmetry_group_IT_number 66
_symmetry_cell_setting 'orthorhombic'
loop_
_space_group_symop_operation_xyz
x,y,z
-x,-y,z
x,-y,1/2-z
-x,y,1/2-z
-x,-y,-z
x,y,-z
-x,y,1/2+z
x,-y,1/2+z
1/2+x,1/2+y,z
1/2-x,1/2-y,z
1/2+x,1/2-y,1/2-z
1/2-x,1/2+y,1/2-z
1/2-x,1/2-y,-z
1/2+x,1/2+y,-z
1/2-x,1/2+y,1/2+z
1/2+x,1/2-y,1/2+z
loop_
_atom_site_type_symbol
_atom_site_label
_atom_site_fract_x
_atom_site_fract_y
_atom_site_fract_z
Si Si1 0.370081 0.373152 0.770921
Si Si2 0.529190 0.789220 0.177454
Si Si3 0.603586 0.233010 0.863130
Si Si4 0.376298 0.022799 0.171956
Si Si5 0.663446 0.246556 0.000000
Si Si6 0.252844 0.380715 0.129543
Si Si7 0.245896 0.544920 0.000000
O O1 0.393703 0.500000 0.750000
O O2 0.423952 0.319704 0.817943
O O3 0.363501 0.293398 0.702653
O O4 0.306080 0.386970 0.812672
O O5 0.500000 0.826995 0.250000
O O6 0.470662 0.752613 0.132087
O O7 0.567361 0.896445 0.144237
O O8 0.624412 0.098487 0.867222
O O9 0.626557 0.288344 0.933075
O O10 0.311705 0.091049 0.166380
O O11 0.391099 0.000000 0.250000
O O12 0.720767 0.332481 0.000000
O O13 0.677024 0.104447 0.000000
O O14 0.250000 0.250000 0.099417
O O15 0.262370 0.469202 0.066830
#
# Coordination Sequence:
#
# PCOD8277027 Si02
#       7
#    16  16  16  16   8  16   8
#     4  11  23  39  63  99 131 171 214 270 324 381
#     4  10  21  37  61  90 130 165 212 273 325 372
#     4  11  23  41  66  92 128 170 220 265 319 387
#     4  12  20  37  63  97 128 164 212 276 328 373
#     4  11  24  46  63  92 129 175 217 253 330 389
#     4  12  23  42  64  96 130 164 218 267 329 390
#     4  11  25  44  66  85 131 175 204 264 326 407
#
# _framework density 19.876421000000001
#
# number of rings (size 3 to 8) (size 9 to 14) (size 15 to 20)
#    0.000    0.833    6.667    2.250    0.000    3.000 
#    3.000    3.333    0.000    2.000    0.000    0.000 
#    0.000    0.000    0.000    0.000    0.000    0.000 
#
# Total GULP energy -594883.197193 kJ/mol
# GULP energy per Si atom -12393.399942 kJ/mol
# Density = 1.983118 g / cm^3
# Si number density = 19.876421 Si / 1000 Ang^3
#
#
#
# Elastic Constant Matrix: (Units=GPa)
#
#
# Indices 1 2 3 4 5 6 
#
# 1 130.1994 39.7170 49.6820 0.0000 0.0000 0.0000
# 2 39.7170 133.3064 32.4168 0.0000 0.0000 0.0000
# 3 49.6820 32.4168 98.0771 0.0000 0.0000 0.0000
# 4 0.0000 0.0000 0.0000 22.2877 0.0000 0.0000
# 5 0.0000 0.0000 0.0000 0.0000 61.3895 0.0000
# 6 0.0000 0.0000 0.0000 0.0000 0.0000 24.8318
#
#
#
# Elastic Compliance Matrix: (Units=1/GPa)
#
#
# Indices 1 2 3 4 5 6 
#
# 1 0.009940 -0.001889 -0.004411 0.000000 0.000000 0.000000
# 2 -0.001889 0.008516 -0.001858 0.000000 0.000000 0.000000
# 3 -0.004411 -0.001858 0.013045 0.000000 0.000000 0.000000
# 4 0.000000 0.000000 0.000000 0.044868 0.000000 0.000000
# 5 0.000000 0.000000 0.000000 0.000000 0.016289 0.000000
# 6 0.000000 0.000000 0.000000 0.000000 0.000000 0.040271
#
#
# Mechanical properties :
#
#
# Convention : Reuss Voigt Hill
#
# Bulk Modulus (GPa) = 65.85369 67.24606 66.54988
# Shear Modulus (GPa) = 32.40328 37.68628 35.04478
#
# Velocity S-wave (km/s) = 4.04200 4.35907 4.20352
# Velocity P-wave (km/s) = 7.41533 7.69680 7.55738
#
# Compressibility (1/GPa) = 0.01518518
#
# Stress axis : x y z
#
# Youngs Moduli (GPa) = 100.60555 117.42492 76.66064
#
# Poissons Ratio (x) = 0.22180 0.33814
# Poissons Ratio (y) = 0.19003 0.14243
# Poissons Ratio (z) = 0.44375 0.21817
#
# Static dielectric constant tensor:
#      x y z
#    x 3.891320 0.000000 0.000000 
#    y 0.000000 3.945760 0.000000 
#    z 0.000000 0.000000 3.369190 
# 
# 
# High freq. dielectric constant tensor:
#      x y z
#    x 1.784240 0.000000 0.000000 
#    y 0.000000 1.788900 0.000000 
#    z 0.000000 0.000000 1.747160 
# 
# From -- ./inp_files/51827.got.cif
#   From: 2010.03.12/outbox.cif.g09.slc.cpg/sg66_26_cif.got.tgz:51827.got - 2010.04.10 21:57:39.
