data_PCOD8277570
_publ_section_title
;
Structure prediction by ZEFSAII (Michael W. Deem and Ramdas Pophale) SiO2 
 PCOD8277570
Probable space group: C C C M
;
_chemical_formula_sum "Si O2"
_cell_formula_units_Z 68
_cell_length_a 11.368016
_cell_length_b 20.849161
_cell_length_c 13.362044
_cell_angle_alpha 90.000000
_cell_angle_beta 90.000000
_cell_angle_gamma 90.000000
_cell_volume 3166.986096
_symmetry_space_group_name_H-M "C C C M"
_symmetry_group_IT_number 66
_symmetry_cell_setting 'orthorhombic'
loop_
_space_group_symop_operation_xyz
x,y,z
-x,-y,z
x,-y,1/2-z
-x,y,1/2-z
-x,-y,-z
x,y,-z
-x,y,1/2+z
x,-y,1/2+z
1/2+x,1/2+y,z
1/2-x,1/2-y,z
1/2+x,1/2-y,1/2-z
1/2-x,1/2+y,1/2-z
1/2-x,1/2-y,-z
1/2+x,1/2+y,-z
1/2-x,1/2+y,1/2+z
1/2+x,1/2-y,1/2+z
loop_
_atom_site_type_symbol
_atom_site_label
_atom_site_fract_x
_atom_site_fract_y
_atom_site_fract_z
Si Si1 0.180283 0.930512 0.610318
Si Si2 0.081963 0.329774 0.388590
Si Si3 0.120036 0.522610 0.137037
Si Si4 0.000000 0.000000 0.750000
Si Si5 0.821729 0.689622 0.182777
O O1 0.135259 0.907757 0.500000
O O2 0.074271 0.953337 0.679441
O O3 0.242774 0.873316 0.670286
O O4 0.267595 0.989613 0.587679
O O5 0.116622 0.304629 0.500000
O O6 0.127071 0.401859 0.375477
O O7 0.148403 0.292895 0.299025
O O8 0.941518 0.323012 0.377760
O O9 0.117997 0.500000 0.250000
O O10 0.000000 0.500000 0.083398
O O11 0.750000 0.750000 0.138345
#
# Coordination Sequence:
#
# PCOD8277570 Si02
#       5
#    16  16  16   4  16
#     4  12  24  41  66  93 128 171 213 262 324 392
#     4  11  22  39  66  98 126 161 212 271 336 386
#     4  11  18  36  67 102 132 151 191 273 346 379
#     4  12  26  44  58  90 132 176 214 260 308 390
#     4  11  24  43  62  90 129 170 214 269 315 375
#
# _framework density 21.471519000000001
#
# number of rings (size 3 to 8) (size 9 to 14) (size 15 to 20)
#    0.000    0.706    5.882    3.176    0.000    5.176 
#    0.000    1.176    0.000    0.000    0.000    0.000 
#    0.000    0.000    0.000    0.000    0.000    0.000 
#
# Total GULP energy -421362.175444 kJ/mol
# GULP energy per Si atom -12393.005160 kJ/mol
# Density = 2.142265 g / cm^3
# Si number density = 21.471519 Si / 1000 Ang^3
#
#
#
# Elastic Constant Matrix: (Units=GPa)
#
#
# Indices 1 2 3 4 5 6 
#
# 1 116.9501 47.6385 38.3509 0.0000 0.0000 0.0000
# 2 47.6385 90.2416 1.8469 0.0000 0.0000 0.0000
# 3 38.3509 1.8469 172.9269 0.0000 0.0000 0.0000
# 4 0.0000 0.0000 0.0000 15.0184 0.0000 0.0000
# 5 0.0000 0.0000 0.0000 0.0000 218.8631 0.0000
# 6 0.0000 0.0000 0.0000 0.0000 0.0000 32.9530
#
#
#
# Elastic Compliance Matrix: (Units=1/GPa)
#
#
# Indices 1 2 3 4 5 6 
#
# 1 0.011944 -0.006253 -0.002582 0.000000 0.000000 0.000000
# 2 -0.006253 0.014357 0.001233 0.000000 0.000000 0.000000
# 3 -0.002582 0.001233 0.006342 0.000000 0.000000 0.000000
# 4 0.000000 0.000000 0.000000 0.066585 0.000000 0.000000
# 5 0.000000 0.000000 0.000000 0.000000 0.004569 0.000000
# 6 0.000000 0.000000 0.000000 0.000000 0.000000 0.030346
#
#
# Mechanical properties :
#
#
# Convention : Reuss Voigt Hill
#
# Bulk Modulus (GPa) = 57.33733 61.75457 59.54595
# Shear Modulus (GPa) = 32.22472 72.85239 52.53856
#
# Velocity S-wave (km/s) = 3.87823 5.83125 4.95198
# Velocity P-wave (km/s) = 6.84223 8.61171 7.77746
#
# Compressibility (1/GPa) = 0.01744065
#
# Stress axis : x y z
#
# Youngs Moduli (GPa) = 83.72165 69.65310 157.67201
#
# Poissons Ratio (x) = 0.43551 0.40714
# Poissons Ratio (y) = 0.52348 -0.19446
# Poissons Ratio (z) = 0.21618 -0.08591
#
# Static dielectric constant tensor:
#      x y z
#    x 4.062120 0.000000 0.000000 
#    y 0.000000 3.731800 0.000000 
#    z 0.000000 0.000000 4.011030 
# 
# 
# High freq. dielectric constant tensor:
#      x y z
#    x 1.832060 0.000000 0.000000 
#    y 0.000000 1.819380 0.000000 
#    z 0.000000 0.000000 1.869120 
# 
# From -- ./inp_files/26104.got.cif
#   From: 2010.03.12/outbox.cif.g09.slc.cpg/sg66_14_cif.got.tgz:26104.got - 2010.04.10 21:57:39.
