data_PCOD8277240
_publ_section_title
;
Structure prediction by ZEFSAII (Michael W. Deem and Ramdas Pophale) SiO2 
 PCOD8277240
Probable space group: C C C M
;
_chemical_formula_sum "Si O2"
_cell_formula_units_Z 64
_cell_length_a 5.397258
_cell_length_b 27.485265
_cell_length_c 19.318165
_cell_angle_alpha 90.000000
_cell_angle_beta 90.000000
_cell_angle_gamma 90.000000
_cell_volume 2865.754470
_symmetry_space_group_name_H-M "C C C M"
_symmetry_group_IT_number 66
_symmetry_cell_setting 'orthorhombic'
loop_
_space_group_symop_operation_xyz
x,y,z
-x,-y,z
x,-y,1/2-z
-x,y,1/2-z
-x,-y,-z
x,y,-z
-x,y,1/2+z
x,-y,1/2+z
1/2+x,1/2+y,z
1/2-x,1/2-y,z
1/2+x,1/2-y,1/2-z
1/2-x,1/2+y,1/2-z
1/2-x,1/2-y,-z
1/2+x,1/2+y,-z
1/2-x,1/2+y,1/2+z
1/2+x,1/2-y,1/2+z
loop_
_atom_site_type_symbol
_atom_site_label
_atom_site_fract_x
_atom_site_fract_y
_atom_site_fract_z
Si Si1 0.500000 0.780889 0.250000
Si Si2 0.652044 0.855272 0.146631
Si Si3 0.314526 0.570780 0.000000
Si Si4 0.500000 0.404006 0.250000
Si Si5 0.348863 0.952416 0.856324
Si Si6 0.311067 0.869507 0.500000
O O1 0.750000 0.750000 0.245560
O O2 0.477237 0.814944 0.181920
O O3 0.881035 0.865818 0.196708
O O4 0.526077 0.906843 0.134051
O O5 0.729224 0.836979 0.069629
O O6 0.292143 0.538633 0.929601
O O7 0.593346 0.590699 0.000000
O O8 0.093706 0.610458 0.000000
O O9 0.675328 0.440679 0.208643
O O10 0.500000 0.000000 0.835918
#
# Coordination Sequence:
#
# PCOD8277240 Si02
#       6
#     8  16   8   8  16   8
#     4  12  27  46  76 104 139 185 238 305 378 436
#     4  11  24  44  68 104 139 183 241 294 358 430
#     4  10  21  42  64  99 142 195 237 281 344 419
#     4  12  21  41  69  90 150 183 244 291 353 408
#     4  11  24  40  65 103 143 191 238 290 348 424
#     4  10  22  42  73  99 138 189 233 294 353 419
#
# _framework density 22.332687
#
# number of rings (size 3 to 8) (size 9 to 14) (size 15 to 20)
#    0.000    1.000    5.000    1.125    0.000    4.000 
#    0.000    3.750    0.000    0.000    0.000    0.875 
#    0.000    0.000    0.000    0.000    0.000    0.000 
#
# Total GULP energy -396567.353244 kJ/mol
# GULP energy per Si atom -12392.729789 kJ/mol
# Density = 2.228186 g / cm^3
# Si number density = 22.332687 Si / 1000 Ang^3
#
#
#
# Elastic Constant Matrix: (Units=GPa)
#
#
# Indices 1 2 3 4 5 6 
#
# 1 78.1128 16.2739 30.4711 0.0000 0.0000 0.0000
# 2 16.2739 82.8472 33.6903 0.0000 0.0000 0.0000
# 3 30.4711 33.6903 217.7950 0.0000 0.0000 0.0000
# 4 0.0000 0.0000 0.0000 37.8978 0.0000 0.0000
# 5 0.0000 0.0000 0.0000 0.0000 1170.1296 0.0000
# 6 0.0000 0.0000 0.0000 0.0000 0.0000 16.7773
#
#
#
# Elastic Compliance Matrix: (Units=1/GPa)
#
#
# Indices 1 2 3 4 5 6 
#
# 1 0.013864 -0.002064 -0.001620 0.000000 0.000000 0.000000
# 2 -0.002064 0.013188 -0.001751 0.000000 0.000000 0.000000
# 3 -0.001620 -0.001751 0.005089 0.000000 0.000000 0.000000
# 4 0.000000 0.000000 0.000000 0.026387 0.000000 0.000000
# 5 0.000000 0.000000 0.000000 0.000000 0.000855 0.000000
# 6 0.000000 0.000000 0.000000 0.000000 0.000000 0.059604
#
#
# Mechanical properties :
#
#
# Convention : Reuss Voigt Hill
#
# Bulk Modulus (GPa) = 47.01613 59.95840 53.48726
# Shear Modulus (GPa) = 36.51002 264.84893 150.67948
#
# Velocity S-wave (km/s) = 4.04768 10.90183 8.22295
# Velocity P-wave (km/s) = 6.55311 13.61517 10.68447
#
# Compressibility (1/GPa) = 0.02126930
#
# Stress axis : x y z
#
# Youngs Moduli (GPa) = 72.12829 75.82608 196.49982
#
# Poissons Ratio (x) = 0.15654 0.31840
# Poissons Ratio (y) = 0.14891 0.34411
# Poissons Ratio (z) = 0.11687 0.13279
#
# Static dielectric constant tensor:
#      x y z
#    x 4.090990 0.000000 0.000000 
#    y 0.000000 3.685890 0.000000 
#    z 0.000000 0.000000 5.560910 
# 
# 
# High freq. dielectric constant tensor:
#      x y z
#    x 1.884530 0.000000 0.000000 
#    y 0.000000 1.834570 0.000000 
#    z 0.000000 0.000000 1.917650 
# 
# From -- ./inp_files/45728.got.cif
#   From: 2010.03.12/outbox.cif.g09.slc.cpg/sg66_23_cif.got.tgz:45728.got - 2010.04.10 21:57:39.
