data_PCOD8277684
_publ_section_title
;
Structure prediction by ZEFSAII (Michael W. Deem and Ramdas Pophale) SiO2 
 PCOD8277684
Probable space group: C C C M
;
_chemical_formula_sum "Si O2"
_cell_formula_units_Z 96
_cell_length_a 18.953796
_cell_length_b 15.846245
_cell_length_c 15.637735
_cell_angle_alpha 90.000000
_cell_angle_beta 90.000000
_cell_angle_gamma 90.000000
_cell_volume 4696.738898
_symmetry_space_group_name_H-M "C C C M"
_symmetry_group_IT_number 66
_symmetry_cell_setting 'orthorhombic'
loop_
_space_group_symop_operation_xyz
x,y,z
-x,-y,z
x,-y,1/2-z
-x,y,1/2-z
-x,-y,-z
x,y,-z
-x,y,1/2+z
x,-y,1/2+z
1/2+x,1/2+y,z
1/2-x,1/2-y,z
1/2+x,1/2-y,1/2-z
1/2-x,1/2+y,1/2-z
1/2-x,1/2-y,-z
1/2+x,1/2+y,-z
1/2-x,1/2+y,1/2+z
1/2+x,1/2-y,1/2+z
loop_
_atom_site_type_symbol
_atom_site_label
_atom_site_fract_x
_atom_site_fract_y
_atom_site_fract_z
Si Si1 0.178879 0.346233 0.150863
Si Si2 0.923077 0.901454 0.750007
Si Si3 0.667960 0.339358 0.096009
Si Si4 0.918435 0.499990 0.399064
Si Si5 0.678875 0.153775 0.150803
Si Si6 0.332039 0.339339 0.096021
O O1 0.119839 0.416926 0.136331
O O2 0.181435 0.321491 0.250028
O O3 0.255604 0.377698 0.120645
O O4 0.163060 0.262092 0.097730
O O5 0.886738 0.875071 0.662734
O O6 0.886761 0.875085 0.837299
O O7 0.000000 0.858606 0.750000
O O8 0.929476 0.000000 0.750000
O O9 0.663075 0.237927 0.097684
O O10 0.744405 0.377716 0.120595
O O11 0.648835 0.368997 0.000000
O O12 0.913713 0.499896 0.500000
O O13 0.880182 0.583114 0.363782
O O14 0.000000 0.500000 0.368124
O O15 0.351131 0.368959 0.000000
#
# Coordination Sequence:
#
# PCOD8277684 Si02
#       6
#    16  16  16  16  16  16
#     4  11  21  40  66  95 130 168 217 264 311 374
#     4  11  26  45  64  93 127 162 213 270 326 382
#     4  11  22  42  69  96 126 168 218 265 317 375
#     4  11  25  41  59  95 139 174 213 261 319 389
#     4  11  21  40  66  95 130 168 217 264 311 374
#     4  11  22  42  69  96 126 168 218 265 317 375
#
# _framework density 20.439715
#
# number of rings (size 3 to 8) (size 9 to 14) (size 15 to 20)
#    0.000    1.000    3.333    5.500    2.333    4.000 
#    0.000    1.667    0.000    0.000    0.000    0.000 
#    0.000    0.000    0.000    0.000    0.000    0.000 
#
# Total GULP energy -595244.242852 kJ/mol
# GULP energy per Si atom -12400.921726 kJ/mol
# Density = 2.039319 g / cm^3
# Si number density = 20.439715 Si / 1000 Ang^3
#
#
#
# Elastic Constant Matrix: (Units=GPa)
#
#
# Indices 1 2 3 4 5 6 
#
# 1 172.1054 57.9743 68.5844 0.0000 0.0000 0.0000
# 2 57.9743 66.2688 12.3924 0.0000 0.0000 0.0000
# 3 68.5844 12.3924 175.3761 0.0000 0.0000 0.0000
# 4 0.0000 0.0000 0.0000 21.4432 0.0000 0.0000
# 5 0.0000 0.0000 0.0000 0.0000 23.3201 0.0000
# 6 0.0000 0.0000 0.0000 0.0000 0.0000 21.9777
#
#
#
# Elastic Compliance Matrix: (Units=1/GPa)
#
#
# Indices 1 2 3 4 5 6 
#
# 1 0.009792 -0.007956 -0.003267 0.000000 0.000000 0.000000
# 2 -0.007956 0.021756 0.001574 0.000000 0.000000 0.000000
# 3 -0.003267 0.001574 0.006869 0.000000 0.000000 0.000000
# 4 0.000000 0.000000 0.000000 0.046635 0.000000 0.000000
# 5 0.000000 0.000000 0.000000 0.000000 0.042881 0.000000
# 6 0.000000 0.000000 0.000000 0.000000 0.000000 0.045501
#
#
# Mechanical properties :
#
#
# Convention : Reuss Voigt Hill
#
# Bulk Modulus (GPa) = 52.30562 76.85030 64.57796
# Shear Modulus (GPa) = 25.11245 31.66815 28.39030
#
# Velocity S-wave (km/s) = 3.50896 3.94044 3.73094
# Velocity P-wave (km/s) = 6.48558 7.64087 7.08681
#
# Compressibility (1/GPa) = 0.01911840
#
# Stress axis : x y z
#
# Youngs Moduli (GPa) = 102.12065 45.96503 145.59072
#
# Poissons Ratio (x) = 0.36568 0.47569
# Poissons Ratio (y) = 0.81244 -0.22915
# Poissons Ratio (z) = 0.33366 -0.07235
#
# Static dielectric constant tensor:
#      x y z
#    x 4.106830 0.000000 0.000000 
#    y 0.000000 3.662320 0.000000 
#    z 0.000000 0.000000 3.809190 
# 
# 
# High freq. dielectric constant tensor:
#      x y z
#    x 1.796470 0.000000 0.000000 
#    y 0.000000 1.793780 0.000000 
#    z 0.000000 0.000000 1.820570 
# 
# From -- ./inp_files/31156.got.cif
#   From: 2010.03.12/outbox.cif.g09.slc.cpg/sg66_16_cif.got.tgz:31156.got - 2010.04.10 21:57:39.
