data_PCOD8277504
_publ_section_title
;
Structure prediction by ZEFSAII (Michael W. Deem and Ramdas Pophale) SiO2 
 PCOD8277504
Probable space group: C C C M
;
_chemical_formula_sum "Si O2"
_cell_formula_units_Z 96
_cell_length_a 14.434196
_cell_length_b 20.701154
_cell_length_c 14.032559
_cell_angle_alpha 90.000000
_cell_angle_beta 90.000000
_cell_angle_gamma 90.000000
_cell_volume 4192.991976
_symmetry_space_group_name_H-M "C C C M"
_symmetry_group_IT_number 66
_symmetry_cell_setting 'orthorhombic'
loop_
_space_group_symop_operation_xyz
x,y,z
-x,-y,z
x,-y,1/2-z
-x,y,1/2-z
-x,-y,-z
x,y,-z
-x,y,1/2+z
x,-y,1/2+z
1/2+x,1/2+y,z
1/2-x,1/2-y,z
1/2+x,1/2-y,1/2-z
1/2-x,1/2+y,1/2-z
1/2-x,1/2-y,-z
1/2+x,1/2+y,-z
1/2-x,1/2+y,1/2+z
1/2+x,1/2-y,1/2+z
loop_
_atom_site_type_symbol
_atom_site_label
_atom_site_fract_x
_atom_site_fract_y
_atom_site_fract_z
Si Si1 0.682471 0.154002 0.206465
Si Si2 0.353143 0.570287 0.769570
Si Si3 0.105454 0.325000 0.103581
Si Si4 0.464774 0.066998 0.605452
Si Si5 0.991078 0.103985 0.388743
Si Si6 0.565388 0.744080 0.610723
O O1 0.781310 0.121566 0.183410
O O2 0.686947 0.167727 0.319805
O O3 0.604502 0.101890 0.178157
O O4 0.657841 0.223104 0.156838
O O5 0.305999 0.500000 0.750000
O O6 0.396738 0.601063 0.672444
O O7 0.434071 0.553090 0.847074
O O8 0.058117 0.393552 0.090937
O O9 0.029700 0.276041 0.147846
O O10 0.144377 0.301530 0.000000
O O11 0.417926 0.058114 0.500000
O O12 0.500000 0.000000 0.649785
O O13 0.968158 0.093502 0.500000
O O14 0.051178 0.168970 0.368676
O O15 0.575013 0.760352 0.500000
#
# Coordination Sequence:
#
# PCOD8277504 Si02
#       6
#    16  16  16  16  16  16
#     4  11  22  35  61  93 135 169 200 272 333 379
#     4  11  27  43  62 100 132 165 228 271 319 401
#     4   9  19  33  52  87 127 168 207 243 306 389
#     4   9  18  32  53  83 122 171 218 250 300 385
#     4  10  23  47  73  89 121 173 223 280 331 377
#     4   9  19  39  67  97 124 161 215 262 322 398
#
# _framework density 22.895346
#
# number of rings (size 3 to 8) (size 9 to 14) (size 15 to 20)
#    0.000    2.167    0.000    4.500    7.000    4.667 
#    0.000    1.667    0.000    3.000    0.000    0.000 
#    0.000    0.000    0.000    0.000    0.000    0.000 
#
# Total GULP energy -594677.184835 kJ/mol
# GULP energy per Si atom -12389.108017 kJ/mol
# Density = 2.284324 g / cm^3
# Si number density = 22.895346 Si / 1000 Ang^3
#
#
#
# Elastic Constant Matrix: (Units=GPa)
#
#
# Indices 1 2 3 4 5 6 
#
# 1 62.7444 6.3216 23.6860 0.0000 0.0000 0.0000
# 2 6.3216 61.7415 4.1338 0.0000 0.0000 0.0000
# 3 23.6860 4.1338 113.7369 0.0000 0.0000 0.0000
# 4 0.0000 0.0000 0.0000 27.6628 0.0000 0.0000
# 5 0.0000 0.0000 0.0000 0.0000 19.9024 0.0000
# 6 0.0000 0.0000 0.0000 0.0000 0.0000 25.0382
#
#
#
# Elastic Compliance Matrix: (Units=1/GPa)
#
#
# Indices 1 2 3 4 5 6 
#
# 1 0.017444 -0.001547 -0.003576 0.000000 0.000000 0.000000
# 2 -0.001547 0.016373 -0.000273 0.000000 0.000000 0.000000
# 3 -0.003576 -0.000273 0.009547 0.000000 0.000000 0.000000
# 4 0.000000 0.000000 0.000000 0.036150 0.000000 0.000000
# 5 0.000000 0.000000 0.000000 0.000000 0.050245 0.000000
# 6 0.000000 0.000000 0.000000 0.000000 0.000000 0.039939
#
#
# Mechanical properties :
#
#
# Convention : Reuss Voigt Hill
#
# Bulk Modulus (GPa) = 30.70154 34.05619 32.37887
# Shear Modulus (GPa) = 26.13058 28.12613 27.12836
#
# Velocity S-wave (km/s) = 3.38199 3.50875 3.44595
# Velocity P-wave (km/s) = 5.35622 5.59662 5.47774
#
# Compressibility (1/GPa) = 0.03257165
#
# Stress axis : x y z
#
# Youngs Moduli (GPa) = 57.32763 61.07549 104.74554
#
# Poissons Ratio (x) = 0.09446 0.37462
# Poissons Ratio (y) = 0.08866 0.02860
# Poissons Ratio (z) = 0.20503 0.01667
#
# Static dielectric constant tensor:
#      x y z
#    x 3.622790 0.000000 0.000000 
#    y 0.000000 4.228090 0.000000 
#    z 0.000000 0.000000 4.290550 
# 
# 
# High freq. dielectric constant tensor:
#      x y z
#    x 1.864180 0.000000 0.000000 
#    y 0.000000 1.911810 0.000000 
#    z 0.000000 0.000000 1.911140 
# 
# From -- ./inp_files/28414.got.cif
#   From: 2010.03.12/outbox.cif.g09.slc.cpg/sg66_15_cif.got.tgz:28414.got - 2010.04.10 21:57:39.
