data_PCOD8277593
_publ_section_title
;
Structure prediction by ZEFSAII (Michael W. Deem and Ramdas Pophale) SiO2 
 PCOD8277593
Probable space group: C C C M
;
_chemical_formula_sum "Si O2"
_cell_formula_units_Z 80
_cell_length_a 9.159366
_cell_length_b 22.192064
_cell_length_c 22.211145
_cell_angle_alpha 90.000000
_cell_angle_beta 90.000000
_cell_angle_gamma 90.000000
_cell_volume 4514.753641
_symmetry_space_group_name_H-M "C C C M"
_symmetry_group_IT_number 66
_symmetry_cell_setting 'orthorhombic'
loop_
_space_group_symop_operation_xyz
x,y,z
-x,-y,z
x,-y,1/2-z
-x,y,1/2-z
-x,-y,-z
x,y,-z
-x,y,1/2+z
x,-y,1/2+z
1/2+x,1/2+y,z
1/2-x,1/2-y,z
1/2+x,1/2-y,1/2-z
1/2-x,1/2+y,1/2-z
1/2-x,1/2-y,-z
1/2+x,1/2+y,-z
1/2-x,1/2+y,1/2+z
1/2+x,1/2-y,1/2+z
loop_
_atom_site_type_symbol
_atom_site_label
_atom_site_fract_x
_atom_site_fract_y
_atom_site_fract_z
Si Si1 0.667954 0.503737 0.625767
Si Si2 0.282435 0.027001 0.000000
Si Si3 0.889534 0.426370 0.697876
Si Si4 0.852171 0.381367 0.124322
Si Si5 0.162679 0.691576 0.761932
Si Si6 0.057243 0.399411 0.500000
O O1 0.500000 0.500000 0.645893
O O2 0.684839 0.471192 0.560786
O O3 0.767589 0.473706 0.677887
O O4 0.715448 0.573261 0.623799
O O5 0.383687 0.086969 0.000000
O O6 0.372158 0.965484 0.000000
O O7 0.802799 0.366750 0.720697
O O8 0.000000 0.449978 0.750000
O O9 0.996185 0.413987 0.642126
O O10 0.813458 0.325502 0.167770
O O11 0.887088 0.359898 0.056576
O O12 0.250000 0.750000 0.742320
O O13 0.000000 0.711969 0.750000
#
# Coordination Sequence:
#
# PCOD8277593 Si02
#       6
#    16   8  16  16  16   8
#     4  11  20  30  48  81 113 135 162 209 264 298
#     4   9  17  28  48  76 110 139 167 198 244 311
#     4   9  19  34  50  70  97 137 174 208 242 306
#     4   9  18  32  51  74 101 136 173 200 240 313
#     4   9  20  36  53  70  92 126 172 218 257 297
#     4   9  14  28  53  74  96 141 177 195 235 305
#
# _framework density 17.719681999999999
#
# number of rings (size 3 to 8) (size 9 to 14) (size 15 to 20)
#    0.000    3.000    2.000    0.900    0.000    8.000 
#    0.000    7.500    0.000    0.000    0.000   17.500 
#    0.000    0.000    0.000    0.000    0.000    0.000 
#
# Total GULP energy -495611.975527 kJ/mol
# GULP energy per Si atom -12390.299388 kJ/mol
# Density = 1.767935 g / cm^3
# Si number density = 17.719682 Si / 1000 Ang^3
#
#
#
# Elastic Constant Matrix: (Units=GPa)
#
#
# Indices 1 2 3 4 5 6 
#
# 1 84.3035 29.7290 38.1408 0.0000 0.0000 0.0000
# 2 29.7290 60.6949 23.8531 0.0000 0.0000 0.0000
# 3 38.1408 23.8531 112.4574 0.0000 0.0000 0.0000
# 4 0.0000 0.0000 0.0000 51.5715 0.0000 0.0000
# 5 0.0000 0.0000 0.0000 0.0000 21.1539 0.0000
# 6 0.0000 0.0000 0.0000 0.0000 0.0000 27.2698
#
#
#
# Elastic Compliance Matrix: (Units=1/GPa)
#
#
# Indices 1 2 3 4 5 6 
#
# 1 0.015885 -0.006178 -0.004077 0.000000 0.000000 0.000000
# 2 -0.006178 0.020377 -0.002227 0.000000 0.000000 0.000000
# 3 -0.004077 -0.002227 0.010747 0.000000 0.000000 0.000000
# 4 0.000000 0.000000 0.000000 0.019391 0.000000 0.000000
# 5 0.000000 0.000000 0.000000 0.000000 0.047273 0.000000
# 6 0.000000 0.000000 0.000000 0.000000 0.000000 0.036671
#
#
# Mechanical properties :
#
#
# Convention : Reuss Voigt Hill
#
# Bulk Modulus (GPa) = 45.36117 48.98906 47.17511
# Shear Modulus (GPa) = 27.37378 31.04791 29.21084
#
# Velocity S-wave (km/s) = 3.93469 4.19043 4.06457
# Velocity P-wave (km/s) = 6.80421 7.14980 6.97915
#
# Compressibility (1/GPa) = 0.02204529
#
# Stress axis : x y z
#
# Youngs Moduli (GPa) = 62.95143 49.07442 93.04634
#
# Poissons Ratio (x) = 0.30320 0.37936
# Poissons Ratio (y) = 0.38894 0.20719
# Poissons Ratio (z) = 0.25666 0.10927
#
# Static dielectric constant tensor:
#      x y z
#    x 3.141730 0.000000 0.000000 
#    y 0.000000 2.864880 0.000000 
#    z 0.000000 0.000000 3.550670 
# 
# 
# High freq. dielectric constant tensor:
#      x y z
#    x 1.669920 0.000000 0.000000 
#    y 0.000000 1.641710 0.000000 
#    z 0.000000 0.000000 1.700250 
# 
# From -- ./inp_files/47077.got.cif
#   From: 2010.03.12/outbox.cif.g09.slc.cpg/sg66_24_cif.got.tgz:47077.got - 2010.04.10 21:57:39.
