data_PCOD8277598
_publ_section_title
;
Structure prediction by ZEFSAII (Michael W. Deem and Ramdas Pophale) SiO2 
 PCOD8277598
Probable space group: C C C M
;
_chemical_formula_sum "Si O2"
_cell_formula_units_Z 96
_cell_length_a 11.891844
_cell_length_b 17.196294
_cell_length_c 24.888296
_cell_angle_alpha 90.000000
_cell_angle_beta 90.000000
_cell_angle_gamma 90.000000
_cell_volume 5089.548159
_symmetry_space_group_name_H-M "C C C M"
_symmetry_group_IT_number 66
_symmetry_cell_setting 'orthorhombic'
loop_
_space_group_symop_operation_xyz
x,y,z
-x,-y,z
x,-y,1/2-z
-x,y,1/2-z
-x,-y,-z
x,y,-z
-x,y,1/2+z
x,-y,1/2+z
1/2+x,1/2+y,z
1/2-x,1/2-y,z
1/2+x,1/2-y,1/2-z
1/2-x,1/2+y,1/2-z
1/2-x,1/2-y,-z
1/2+x,1/2+y,-z
1/2-x,1/2+y,1/2+z
1/2+x,1/2-y,1/2+z
loop_
_atom_site_type_symbol
_atom_site_label
_atom_site_fract_x
_atom_site_fract_y
_atom_site_fract_z
Si Si1 0.376800 0.273754 0.900127
Si Si2 0.492383 0.370631 0.189223
Si Si3 0.531280 0.886467 0.060779
Si Si4 0.322026 0.510751 0.810222
Si Si5 0.924780 0.878946 0.000000
Si Si6 0.659331 0.446398 0.000000
Si Si7 0.175134 0.524431 0.090878
O O1 0.250000 0.250000 0.882628
O O2 0.452081 0.301909 0.849821
O O3 0.439895 0.199631 0.922586
O O4 0.374803 0.338024 0.947026
O O5 0.500000 0.338222 0.250000
O O6 0.615412 0.407159 0.177600
O O7 0.405736 0.440001 0.180355
O O8 0.430724 0.918334 0.097705
O O9 0.639523 0.942340 0.064714
O O10 0.486996 0.887125 0.000000
O O11 0.275200 0.500000 0.750000
O O12 0.217555 0.505561 0.849708
O O13 0.061174 0.881010 0.000000
O O14 0.887626 0.967161 0.000000
O O15 0.731383 0.434234 0.053985
#
# Coordination Sequence:
#
# PCOD8277598 Si02
#       7
#    16  16  16  16   8   8  16
#     4  12  23  37  58  84 118 154 188 235 290 346
#     4   9  19  38  60  86 114 147 191 238 283 335
#     4  11  22  39  55  80 115 157 192 229 289 345
#     4   9  18  36  63  86 112 146 187 240 290 330
#     4  11  23  33  53  88 116 138 194 241 280 343
#     4  11  20  34  57  81 108 148 188 245 281 328
#     4  11  20  37  60  81 108 149 199 232 285 348
#
# _framework density 18.862185
#
# number of rings (size 3 to 8) (size 9 to 14) (size 15 to 20)
#    0.000    1.500    2.500    5.750    0.000    2.667 
#    0.000   10.833    0.000    0.000    0.000    0.000 
#    0.000    0.000    0.000    0.000    0.000    0.000 
#
# Total GULP energy -595135.486647 kJ/mol
# GULP energy per Si atom -12398.655972 kJ/mol
# Density = 1.881925 g / cm^3
# Si number density = 18.862185 Si / 1000 Ang^3
#
#
#
# Elastic Constant Matrix: (Units=GPa)
#
#
# Indices 1 2 3 4 5 6 
#
# 1 82.7831 21.1364 51.4603 0.0000 0.0000 0.0000
# 2 21.1364 66.4604 26.5454 0.0000 0.0000 0.0000
# 3 51.4603 26.5454 120.8227 0.0000 0.0000 0.0000
# 4 0.0000 0.0000 0.0000 29.8715 0.0000 0.0000
# 5 0.0000 0.0000 0.0000 0.0000 36.2626 0.0000
# 6 0.0000 0.0000 0.0000 0.0000 0.0000 22.6085
#
#
#
# Elastic Compliance Matrix: (Units=1/GPa)
#
#
# Indices 1 2 3 4 5 6 
#
# 1 0.016872 -0.002736 -0.006585 0.000000 0.000000 0.000000
# 2 -0.002736 0.016938 -0.002556 0.000000 0.000000 0.000000
# 3 -0.006585 -0.002556 0.011643 0.000000 0.000000 0.000000
# 4 0.000000 0.000000 0.000000 0.033477 0.000000 0.000000
# 5 0.000000 0.000000 0.000000 0.000000 0.027577 0.000000
# 6 0.000000 0.000000 0.000000 0.000000 0.000000 0.044231
#
#
# Mechanical properties :
#
#
# Convention : Reuss Voigt Hill
#
# Bulk Modulus (GPa) = 46.08563 52.03892 49.06228
# Shear Modulus (GPa) = 27.51452 29.14347 28.32900
#
# Velocity S-wave (km/s) = 3.82345 3.93501 3.87963
# Velocity P-wave (km/s) = 6.63156 6.94943 6.79236
#
# Compressibility (1/GPa) = 0.02169874
#
# Stress axis : x y z
#
# Youngs Moduli (GPa) = 59.27149 59.04053 85.89021
#
# Poissons Ratio (x) = 0.16151 0.56557
# Poissons Ratio (y) = 0.16214 0.21955
# Poissons Ratio (z) = 0.39029 0.15092
#
# Static dielectric constant tensor:
#      x y z
#    x 3.620670 0.000000 0.000000 
#    y 0.000000 3.400140 0.000000 
#    z 0.000000 0.000000 3.592830 
# 
# 
# High freq. dielectric constant tensor:
#      x y z
#    x 1.732290 0.000000 0.000000 
#    y 0.000000 1.720190 0.000000 
#    z 0.000000 0.000000 1.732010 
# 
# From -- ./inp_files/56985.got.cif
#   From: 2010.03.12/outbox.cif.g09.slc.cpg/sg66_29_cif.got.tgz:56985.got - 2010.04.10 21:57:39.
