data_PCOD8277576
_publ_section_title
;
Structure prediction by ZEFSAII (Michael W. Deem and Ramdas Pophale) SiO2 
 PCOD8277576
Probable space group: C C C M
;
_chemical_formula_sum "Si O2"
_cell_formula_units_Z 72
_cell_length_a 12.168102
_cell_length_b 25.392225
_cell_length_c 13.106897
_cell_angle_alpha 90.000000
_cell_angle_beta 90.000000
_cell_angle_gamma 90.000000
_cell_volume 4049.705910
_symmetry_space_group_name_H-M "C C C M"
_symmetry_group_IT_number 66
_symmetry_cell_setting 'orthorhombic'
loop_
_space_group_symop_operation_xyz
x,y,z
-x,-y,z
x,-y,1/2-z
-x,y,1/2-z
-x,-y,-z
x,y,-z
-x,y,1/2+z
x,-y,1/2+z
1/2+x,1/2+y,z
1/2-x,1/2-y,z
1/2+x,1/2-y,1/2-z
1/2-x,1/2+y,1/2-z
1/2-x,1/2-y,-z
1/2+x,1/2+y,-z
1/2-x,1/2+y,1/2+z
1/2+x,1/2-y,1/2+z
loop_
_atom_site_type_symbol
_atom_site_label
_atom_site_fract_x
_atom_site_fract_y
_atom_site_fract_z
Si Si1 0.127508 0.942101 0.278764
Si Si2 0.163561 0.701340 0.000000
Si Si3 0.432811 0.446125 0.000000
Si Si4 0.917566 0.256027 0.500000
Si Si5 0.543143 0.340906 0.000000
Si Si6 0.290751 0.659826 0.174429
Si Si7 0.750000 0.750000 0.169024
O O1 0.142794 0.938222 0.400757
O O2 0.201874 0.898761 0.221818
O O3 0.000000 0.933964 0.250000
O O4 0.169904 0.000000 0.250000
O O5 0.250000 0.750000 0.000000
O O6 0.183117 0.665994 0.897962
O O7 0.037688 0.718515 0.000000
O O8 0.500000 0.500000 0.000000
O O9 0.527666 0.402907 0.000000
O O10 0.849597 0.272283 0.399869
O O11 0.930414 0.192283 0.500000
O O12 0.606419 0.325910 0.103140
O O13 0.292929 0.701846 0.264316
#
# Coordination Sequence:
#
# PCOD8277576 Si02
#       7
#    16   8   8   8   8  16   8
#     4  11  21  34  54  85 120 159 194 236 299 353
#     4  11  21  39  58  83 110 153 205 240 295 360
#     4  12  19  30  49  81 118 158 196 232 286 363
#     4  11  23  38  52  80 115 147 195 245 286 363
#     4  11  19  32  56  74 111 154 189 226 283 353
#     4  11  21  35  54  84 113 156 193 233 293 360
#     4  11  24  35  54  82 114 153 192 239 310 340
#
# _framework density 17.779069
#
# number of rings (size 3 to 8) (size 9 to 14) (size 15 to 20)
#    0.000    0.889    7.778    1.333    0.000    4.444 
#    0.000    0.000    0.000    0.000    0.000    4.667 
#    0.000    0.000    0.000    0.000    0.000    0.000 
#
# Total GULP energy -446287.594283 kJ/mol
# GULP energy per Si atom -12396.877619 kJ/mol
# Density = 1.773860 g / cm^3
# Si number density = 17.779069 Si / 1000 Ang^3
#
#
#
# Elastic Constant Matrix: (Units=GPa)
#
#
# Indices 1 2 3 4 5 6 
#
# 1 83.1405 43.8202 48.5461 0.0000 0.0000 0.0000
# 2 43.8202 132.7140 61.2965 0.0000 0.0000 0.0000
# 3 48.5461 61.2965 165.1275 0.0000 0.0000 0.0000
# 4 0.0000 0.0000 0.0000 35.5427 0.0000 0.0000
# 5 0.0000 0.0000 0.0000 0.0000 5.3595 0.0000
# 6 0.0000 0.0000 0.0000 0.0000 0.0000 24.5900
#
#
#
# Elastic Compliance Matrix: (Units=1/GPa)
#
#
# Indices 1 2 3 4 5 6 
#
# 1 0.015920 -0.003735 -0.003294 0.000000 0.000000 0.000000
# 2 -0.003735 0.009971 -0.002603 0.000000 0.000000 0.000000
# 3 -0.003294 -0.002603 0.007991 0.000000 0.000000 0.000000
# 4 0.000000 0.000000 0.000000 0.028135 0.000000 0.000000
# 5 0.000000 0.000000 0.000000 0.000000 0.186585 0.000000
# 6 0.000000 0.000000 0.000000 0.000000 0.000000 0.040667
#
#
# Mechanical properties :
#
#
# Convention : Reuss Voigt Hill
#
# Bulk Modulus (GPa) = 68.41390 76.47862 72.44626
# Shear Modulus (GPa) = 15.95384 28.25304 22.10344
#
# Velocity S-wave (km/s) = 2.99881 3.99070 3.52977
# Velocity P-wave (km/s) = 7.11014 8.02145 7.57950
#
# Compressibility (1/GPa) = 0.01461691
#
# Stress axis : x y z
#
# Youngs Moduli (GPa) = 62.81507 100.29529 125.14824
#
# Poissons Ratio (x) = 0.37462 0.41221
# Poissons Ratio (y) = 0.23463 0.32576
# Poissons Ratio (z) = 0.20690 0.26107
#
# Static dielectric constant tensor:
#      x y z
#    x 3.010110 0.000000 0.000000 
#    y 0.000000 3.455770 0.000000 
#    z 0.000000 0.000000 3.591220 
# 
# 
# High freq. dielectric constant tensor:
#      x y z
#    x 1.635620 0.000000 0.000000 
#    y 0.000000 1.688140 0.000000 
#    z 0.000000 0.000000 1.719410 
# 
# From -- ./inp_files/14864.got.cif
#   From: 2010.03.12/outbox.cif.g09.slc.cpg/sg66_8_cif.got.tgz:14864.got - 2010.04.10 21:57:39.
