data_PCOD8277934
_publ_section_title
;
Structure prediction by ZEFSAII (Michael W. Deem and Ramdas Pophale) SiO2 
 PCOD8277934
Probable space group: C M M A
;
_chemical_formula_sum "Si O2"
_cell_formula_units_Z 128
_cell_length_a 26.488296
_cell_length_b 18.480691
_cell_length_c 16.804605
_cell_angle_alpha 90.000000
_cell_angle_beta 90.000000
_cell_angle_gamma 90.000000
_cell_volume 8226.224076
_symmetry_space_group_name_H-M "C M M A"
_symmetry_group_IT_number 67
_symmetry_cell_setting 'orthorhombic'
loop_
_space_group_symop_operation_xyz
x,y,z
-x,1/2-y,z
x,-y,-z
-x,1/2+y,-z
-x,-y,-z
x,1/2+y,-z
-x,y,z
x,1/2-y,z
1/2+x,1/2+y,z
1/2-x,-y,z
1/2+x,1/2-y,-z
1/2-x,y,-z
1/2-x,1/2-y,-z
1/2+x,y,-z
1/2-x,1/2+y,z
1/2+x,-y,z
loop_
_atom_site_type_symbol
_atom_site_label
_atom_site_fract_x
_atom_site_fract_y
_atom_site_fract_z
Si Si1 0.801512 0.086370 0.162684
Si Si2 0.372836 0.919786 0.488790
Si Si3 0.190582 0.830149 0.989187
Si Si4 0.204393 0.410109 0.621854
Si Si5 0.314915 0.070284 0.660826
Si Si6 0.635067 0.332962 0.269976
Si Si7 0.183993 0.922652 0.137946
Si Si8 0.443293 0.664955 0.599723
O O1 0.823365 0.144286 0.100151
O O2 0.822525 0.103168 0.251059
O O3 0.740873 0.093754 0.167053
O O4 0.821356 0.008726 0.132467
O O5 0.318894 0.913743 0.533730
O O6 0.361536 0.905148 0.395281
O O7 0.414564 0.865695 0.522529
O O8 0.395019 0.000000 0.500000
O O9 0.167155 0.750000 0.002781
O O10 0.250000 0.826346 0.000000
O O11 0.170417 0.888324 0.052474
O O12 0.264224 0.400528 0.618482
O O13 0.188805 0.483281 0.669713
O O14 0.181402 0.341763 0.668555
O O15 0.633181 0.250000 0.240407
O O16 0.642918 0.386708 0.196344
O O17 0.584192 0.355790 0.317400
O O18 0.500000 0.633769 0.603152
O O19 0.443314 0.750000 0.588335
#
# Coordination Sequence:
#
# PCOD8277934 Si02
#       8
#    16  16  16  16  16  16  16  16
#     4  10  17  26  41  59  88 121 152 178 212 250
#     4   9  18  27  46  66  86 112 146 186 212 255
#     4   9  18  28  38  56  85 119 153 185 214 244
#     4   9  15  27  38  60  88 116 148 178 214 248
#     4  10  15  26  41  61  86 120 151 178 207 251
#     4  10  17  26  44  65  83 109 144 184 226 261
#     4  10  16  28  42  61  82 117 153 181 208 259
#     4   9  19  35  49  62  86 114 140 180 233 277
#
# _framework density 15.559995000000001
#
# number of rings (size 3 to 8) (size 9 to 14) (size 15 to 20)
#    0.000    2.500    2.500    1.875    0.000    3.750 
#    0.000    1.250    0.000    3.000    0.000    0.000 
#    0.000    3.000    0.000    3.875    0.000    0.000 
#
# Total GULP energy -793251.150311 kJ/mol
# GULP energy per Si atom -12394.549224 kJ/mol
# Density = 1.552458 g / cm^3
# Si number density = 15.559995 Si / 1000 Ang^3
#
#
#
# Elastic Constant Matrix: (Units=GPa)
#
#
# Indices 1 2 3 4 5 6 
#
# 1 65.5891 27.6533 34.8022 0.0000 0.0000 0.0000
# 2 27.6533 52.3675 35.7059 0.0000 0.0000 0.0000
# 3 34.8022 35.7059 113.8827 0.0000 0.0000 0.0000
# 4 0.0000 0.0000 0.0000 21.6122 0.0000 0.0000
# 5 0.0000 0.0000 0.0000 0.0000 12.0044 0.0000
# 6 0.0000 0.0000 0.0000 0.0000 0.0000 14.5382
#
#
#
# Elastic Compliance Matrix: (Units=1/GPa)
#
#
# Indices 1 2 3 4 5 6 
#
# 1 0.020770 -0.008446 -0.003699 0.000000 0.000000 0.000000
# 2 -0.008446 0.027722 -0.006111 0.000000 0.000000 0.000000
# 3 -0.003699 -0.006111 0.011827 0.000000 0.000000 0.000000
# 4 0.000000 0.000000 0.000000 0.046270 0.000000 0.000000
# 5 0.000000 0.000000 0.000000 0.000000 0.083303 0.000000
# 6 0.000000 0.000000 0.000000 0.000000 0.000000 0.068784
#
#
# Mechanical properties :
#
#
# Convention : Reuss Voigt Hill
#
# Bulk Modulus (GPa) = 42.00236 47.57358 44.78797
# Shear Modulus (GPa) = 16.49487 18.54281 17.51884
#
# Velocity S-wave (km/s) = 3.25942 3.45584 3.35907
# Velocity P-wave (km/s) = 6.42009 6.82382 6.62503
#
# Compressibility (1/GPa) = 0.02380819
#
# Stress axis : x y z
#
# Youngs Moduli (GPa) = 48.14610 36.07212 84.54927
#
# Poissons Ratio (x) = 0.30465 0.31277
# Poissons Ratio (y) = 0.40662 0.51667
# Poissons Ratio (z) = 0.17811 0.22043
#
# Static dielectric constant tensor:
#      x y z
#    x 2.654670 0.000000 0.000000 
#    y 0.000000 2.990590 0.000000 
#    z 0.000000 0.000000 3.046220 
# 
# 
# High freq. dielectric constant tensor:
#      x y z
#    x 1.535580 0.000000 0.000000 
#    y 0.000000 1.589590 0.000000 
#    z 0.000000 0.000000 1.603330 
# 
# From -- ./inp_files/35663.got.cif
#   From: 2010.03.12/outbox.cif.g09.slc.cpg/sg67_18_cif.got.tgz:35663.got - 2010.04.10 22:41:39.
