data_PCOD8277875
_publ_section_title
;
Structure prediction by ZEFSAII (Michael W. Deem and Ramdas Pophale) SiO2 
 PCOD8277875
Probable space group: C C C M
;
_chemical_formula_sum "Si O2"
_cell_formula_units_Z 64
_cell_length_a 8.469113
_cell_length_b 14.985955
_cell_length_c 21.612493
_cell_angle_alpha 90.000000
_cell_angle_beta 90.000000
_cell_angle_gamma 90.000000
_cell_volume 2743.008904
_symmetry_space_group_name_H-M "C C C M"
_symmetry_group_IT_number 66
_symmetry_cell_setting 'orthorhombic'
loop_
_space_group_symop_operation_xyz
x,y,z
-x,-y,z
x,-y,1/2-z
-x,y,1/2-z
-x,-y,-z
x,y,-z
-x,y,1/2+z
x,-y,1/2+z
1/2+x,1/2+y,z
1/2-x,1/2-y,z
1/2+x,1/2-y,1/2-z
1/2-x,1/2+y,1/2-z
1/2-x,1/2-y,-z
1/2+x,1/2+y,-z
1/2-x,1/2+y,1/2+z
1/2+x,1/2-y,1/2+z
loop_
_atom_site_type_symbol
_atom_site_label
_atom_site_fract_x
_atom_site_fract_y
_atom_site_fract_z
Si Si1 0.323933 0.521862 0.115852
Si Si2 0.632059 0.829431 0.432230
Si Si3 0.320969 0.660961 0.774364
Si Si4 0.670118 0.158992 0.355062
O O1 0.500000 0.500000 0.095530
O O2 0.237202 0.581355 0.065139
O O3 0.319760 0.574591 0.181661
O O4 0.237929 0.427839 0.112998
O O5 0.549434 0.819668 0.500000
O O6 0.750000 0.750000 0.419206
O O7 0.512102 0.833806 0.374581
O O8 0.500000 0.676513 0.750000
O O9 0.250000 0.750000 0.808032
O O10 0.198907 0.645900 0.717914
O O11 0.750000 0.250000 0.379387
#
# Coordination Sequence:
#
# PCOD8277875 Si02
#       4
#    16  16  16  16
#     4  12  24  43  75 106 148 190 238 290 359 432
#     4  11  27  50  73 102 142 189 248 306 357 419
#     4  11  25  43  72 108 149 189 230 293 357 436
#     4  11  25  44  73 105 144 192 236 299 359 427
#
# _framework density 23.332042999999999
#
# number of rings (size 3 to 8) (size 9 to 14) (size 15 to 20)
#    0.000    0.750    2.500    3.750   10.500    3.000 
#    0.000    2.500    0.000    0.000    0.000    0.000 
#    0.000    0.000    0.000    0.000    0.000    0.000 
#
# Total GULP energy -396588.071893 kJ/mol
# GULP energy per Si atom -12393.377247 kJ/mol
# Density = 2.327894 g / cm^3
# Si number density = 23.332043 Si / 1000 Ang^3
#
#
#
# Elastic Constant Matrix: (Units=GPa)
#
#
# Indices 1 2 3 4 5 6 
#
# 1 131.3352 39.3960 41.3179 0.0000 0.0000 0.0000
# 2 39.3960 173.5676 -3.5235 0.0000 0.0000 0.0000
# 3 41.3179 -3.5235 84.5654 0.0000 0.0000 0.0000
# 4 0.0000 0.0000 0.0000 50.7591 0.0000 0.0000
# 5 0.0000 0.0000 0.0000 0.0000 30.6992 0.0000
# 6 0.0000 0.0000 0.0000 0.0000 0.0000 49.1115
#
#
#
# Elastic Compliance Matrix: (Units=1/GPa)
#
#
# Indices 1 2 3 4 5 6 
#
# 1 0.009862 -0.002338 -0.004916 0.000000 0.000000 0.000000
# 2 -0.002338 0.006321 0.001406 0.000000 0.000000 0.000000
# 3 -0.004916 0.001406 0.014286 0.000000 0.000000 0.000000
# 4 0.000000 0.000000 0.000000 0.019701 0.000000 0.000000
# 5 0.000000 0.000000 0.000000 0.000000 0.032574 0.000000
# 6 0.000000 0.000000 0.000000 0.000000 0.000000 0.020362
#
#
# Mechanical properties :
#
#
# Convention : Reuss Voigt Hill
#
# Bulk Modulus (GPa) = 53.27190 60.42766 56.84978
# Shear Modulus (GPa) = 41.30208 46.93246 44.11727
#
# Velocity S-wave (km/s) = 4.21192 4.48984 4.35310
# Velocity P-wave (km/s) = 6.82168 7.26866 7.04872
#
# Compressibility (1/GPa) = 0.01877162
#
# Stress axis : x y z
#
# Youngs Moduli (GPa) = 101.39890 158.20999 70.00044
#
# Poissons Ratio (x) = 0.36994 0.34412
# Poissons Ratio (y) = 0.23710 -0.09841
# Poissons Ratio (z) = 0.49847 -0.22241
#
# Static dielectric constant tensor:
#      x y z
#    x 4.274660 0.000000 0.000000 
#    y 0.000000 4.702780 0.000000 
#    z 0.000000 0.000000 4.038770 
# 
# 
# High freq. dielectric constant tensor:
#      x y z
#    x 1.926720 0.000000 0.000000 
#    y 0.000000 1.946760 0.000000 
#    z 0.000000 0.000000 1.909990 
# 
# From -- ./inp_files/54954.got.cif
#   From: 2010.03.12/outbox.cif.g09.slc.cpg/sg66_28_cif.got.tgz:54954.got - 2010.04.10 21:57:39.
