data_PCOD8277446
_publ_section_title
;
Structure prediction by ZEFSAII (Michael W. Deem and Ramdas Pophale) SiO2 
 PCOD8277446
Probable space group: C C C M
;
_chemical_formula_sum "Si O2"
_cell_formula_units_Z 112
_cell_length_a 16.405005
_cell_length_b 23.818349
_cell_length_c 13.956019
_cell_angle_alpha 90.000000
_cell_angle_beta 90.000000
_cell_angle_gamma 90.000000
_cell_volume 5453.176740
_symmetry_space_group_name_H-M "C C C M"
_symmetry_group_IT_number 66
_symmetry_cell_setting 'orthorhombic'
loop_
_space_group_symop_operation_xyz
x,y,z
-x,-y,z
x,-y,1/2-z
-x,y,1/2-z
-x,-y,-z
x,y,-z
-x,y,1/2+z
x,-y,1/2+z
1/2+x,1/2+y,z
1/2-x,1/2-y,z
1/2+x,1/2-y,1/2-z
1/2-x,1/2+y,1/2-z
1/2-x,1/2-y,-z
1/2+x,1/2+y,-z
1/2-x,1/2+y,1/2+z
1/2+x,1/2-y,1/2+z
loop_
_atom_site_type_symbol
_atom_site_label
_atom_site_fract_x
_atom_site_fract_y
_atom_site_fract_z
Si Si1 0.361235 0.707304 0.391427
Si Si2 0.027130 0.898076 0.609933
Si Si3 0.286405 0.126113 0.888847
Si Si4 0.720383 0.186900 0.109040
Si Si5 0.172072 0.029255 0.114267
Si Si6 0.594973 0.813498 0.232775
Si Si7 0.152819 0.904486 0.885408
O O1 0.361128 0.731739 0.500000
O O2 0.432768 0.662457 0.380793
O O3 0.273632 0.679174 0.369878
O O4 0.380696 0.755092 0.315722
O O5 0.012139 0.914343 0.500000
O O6 0.086504 0.945760 0.654718
O O7 0.937858 0.895939 0.659629
O O8 0.245544 0.068801 0.849183
O O9 0.370986 0.136175 0.833525
O O10 0.306417 0.120011 0.000000
O O11 0.750000 0.250000 0.118205
O O12 0.635690 0.181082 0.163551
O O13 0.787970 0.144397 0.154264
O O14 0.702688 0.170057 0.000000
O O15 0.185037 0.965511 0.149893
O O16 0.169036 0.033242 0.000000
O O17 0.500000 0.820417 0.250000
O O18 0.150453 0.900801 0.000000
#
# Coordination Sequence:
#
# PCOD8277446 Si02
#       7
#    16  16  16  16  16  16  16
#     4   9  18  34  57  85 116 148 182 224 280 341
#     4   8  14  25  49  88 124 146 172 213 269 346
#     4   9  18  36  60  85 113 143 182 234 285 337
#     4  10  23  40  56  77 111 153 193 230 273 333
#     4   8  14  27  53  87 116 145 180 220 273 338
#     4  12  25  37  55  79 106 147 195 243 288 328
#     4   9  16  29  53  82 116 154 183 216 270 337
#
# _framework density 20.538487
#
# number of rings (size 3 to 8) (size 9 to 14) (size 15 to 20)
#    0.000    2.714    0.000    3.857    2.000    4.000 
#    0.000    0.714    0.000    1.714    0.000    6.000 
#    0.000    0.000    0.000    0.000    0.000    0.286 
#
# Total GULP energy -694276.154563 kJ/mol
# GULP energy per Si atom -12397.788474 kJ/mol
# Density = 2.049174 g / cm^3
# Si number density = 20.538487 Si / 1000 Ang^3
#
#
#
# Elastic Constant Matrix: (Units=GPa)
#
#
# Indices 1 2 3 4 5 6 
#
# 1 142.5196 67.5763 50.8626 0.0000 0.0000 0.0000
# 2 67.5763 121.3970 31.5291 0.0000 0.0000 0.0000
# 3 50.8626 31.5291 50.5952 0.0000 0.0000 0.0000
# 4 0.0000 0.0000 0.0000 16.7281 0.0000 0.0000
# 5 0.0000 0.0000 0.0000 0.0000 29.5236 0.0000
# 6 0.0000 0.0000 0.0000 0.0000 0.0000 15.6575
#
#
#
# Elastic Compliance Matrix: (Units=1/GPa)
#
#
# Indices 1 2 3 4 5 6 
#
# 1 0.012701 -0.004479 -0.009977 0.000000 0.000000 0.000000
# 2 -0.004479 0.011407 -0.002606 0.000000 0.000000 0.000000
# 3 -0.009977 -0.002606 0.031418 0.000000 0.000000 0.000000
# 4 0.000000 0.000000 0.000000 0.059780 0.000000 0.000000
# 5 0.000000 0.000000 0.000000 0.000000 0.033871 0.000000
# 6 0.000000 0.000000 0.000000 0.000000 0.000000 0.063867
#
#
# Mechanical properties :
#
#
# Convention : Reuss Voigt Hill
#
# Bulk Modulus (GPa) = 46.72278 68.27197 57.49737
# Shear Modulus (GPa) = 19.66158 23.35142 21.50650
#
# Velocity S-wave (km/s) = 3.09739 3.37554 3.23945
# Velocity P-wave (km/s) = 5.96574 6.96459 6.48443
#
# Compressibility (1/GPa) = 0.02140284
#
# Stress axis : x y z
#
# Youngs Moduli (GPa) = 78.73537 87.66189 31.82839
#
# Poissons Ratio (x) = 0.39262 0.31755
# Poissons Ratio (y) = 0.35264 0.08295
# Poissons Ratio (z) = 0.78553 0.22847
#
# Static dielectric constant tensor:
#      x y z
#    x 3.707270 0.000000 0.000000 
#    y 0.000000 3.789030 0.000000 
#    z 0.000000 0.000000 3.655540 
# 
# 
# High freq. dielectric constant tensor:
#      x y z
#    x 1.778420 0.000000 0.000000 
#    y 0.000000 1.794820 0.000000 
#    z 0.000000 0.000000 1.808130 
# 
# From -- ./inp_files/28673.got.cif
#   From: 2010.03.12/outbox.cif.g09.slc.cpg/sg66_15_cif.got.tgz:28673.got - 2010.04.10 21:57:39.
