data_PCOD8277436
_publ_section_title
;
Structure prediction by ZEFSAII (Michael W. Deem and Ramdas Pophale) SiO2 
 PCOD8277436
Probable space group: C C C M
;
_chemical_formula_sum "Si O2"
_cell_formula_units_Z 112
_cell_length_a 29.725359
_cell_length_b 12.896471
_cell_length_c 13.954142
_cell_angle_alpha 90.000000
_cell_angle_beta 90.000000
_cell_angle_gamma 90.000000
_cell_volume 5349.351458
_symmetry_space_group_name_H-M "C C C M"
_symmetry_group_IT_number 66
_symmetry_cell_setting 'orthorhombic'
loop_
_space_group_symop_operation_xyz
x,y,z
-x,-y,z
x,-y,1/2-z
-x,y,1/2-z
-x,-y,-z
x,y,-z
-x,y,1/2+z
x,-y,1/2+z
1/2+x,1/2+y,z
1/2-x,1/2-y,z
1/2+x,1/2-y,1/2-z
1/2-x,1/2+y,1/2-z
1/2-x,1/2-y,-z
1/2+x,1/2+y,-z
1/2-x,1/2+y,1/2+z
1/2+x,1/2-y,1/2+z
loop_
_atom_site_type_symbol
_atom_site_label
_atom_site_fract_x
_atom_site_fract_y
_atom_site_fract_z
Si Si1 0.875111 0.335231 0.787240
Si Si2 0.299256 0.722517 0.892681
Si Si3 0.255643 0.861548 0.391538
Si Si4 0.550342 0.670751 0.731636
Si Si5 0.326918 0.499553 0.360313
Si Si6 0.426329 0.521630 0.395324
Si Si7 0.348671 0.046200 0.886869
O O1 0.834294 0.259983 0.813551
O O2 0.920849 0.270029 0.804189
O O3 0.868831 0.435064 0.855952
O O4 0.874912 0.366764 0.675001
O O5 0.250000 0.750000 0.856098
O O6 0.300326 0.599641 0.896838
O O7 0.308395 0.768791 0.000000
O O8 0.269738 0.839726 0.500000
O O9 0.250000 0.750000 0.338337
O O10 0.206273 0.907709 0.383531
O O11 0.295966 0.937845 0.354367
O O12 0.500000 0.710565 0.750000
O O13 0.550883 0.579766 0.652160
O O14 0.568551 0.624193 0.831180
O O15 0.339943 0.500000 0.250000
O O16 0.373620 0.505693 0.415506
O O17 0.448787 0.538069 0.500000
O O18 0.357224 0.061880 0.000000
#
# Coordination Sequence:
#
# PCOD8277436 Si02
#       7
#    16  16  16  16  16  16  16
#     4  11  23  42  67  93 123 175 215 265 339 390
#     4  11  23  38  61  92 131 174 220 268 315 382
#     4  10  23  38  57  87 128 179 220 262 314 374
#     4  11  25  45  66  98 130 162 218 273 331 402
#     4  12  23  35  57  92 131 170 214 261 311 377
#     4  11  22  41  66  95 134 171 210 266 329 392
#     4  10  24  43  63  92 131 169 220 271 317 386
#
# _framework density 20.937118000000002
#
# number of rings (size 3 to 8) (size 9 to 14) (size 15 to 20)
#    0.000    1.143    2.857    3.429    8.000    4.571 
#    0.000    1.429    0.000    0.857    0.000    0.000 
#    0.000    0.000    0.000    0.000    0.000    0.000 
#
# Total GULP energy -694079.627023 kJ/mol
# GULP energy per Si atom -12394.279054 kJ/mol
# Density = 2.088946 g / cm^3
# Si number density = 20.937118 Si / 1000 Ang^3
#
#
#
# Elastic Constant Matrix: (Units=GPa)
#
#
# Indices 1 2 3 4 5 6 
#
# 1 128.4278 55.6475 12.3797 0.0000 0.0000 0.0000
# 2 55.6475 115.2022 27.9948 0.0000 0.0000 0.0000
# 3 12.3797 27.9948 124.5909 0.0000 0.0000 0.0000
# 4 0.0000 0.0000 0.0000 26.5738 0.0000 0.0000
# 5 0.0000 0.0000 0.0000 0.0000 7.6850 0.0000
# 6 0.0000 0.0000 0.0000 0.0000 0.0000 30.5816
#
#
#
# Elastic Compliance Matrix: (Units=1/GPa)
#
#
# Indices 1 2 3 4 5 6 
#
# 1 0.009849 -0.004781 0.000096 0.000000 0.000000 0.000000
# 2 -0.004781 0.011502 -0.002109 0.000000 0.000000 0.000000
# 3 0.000096 -0.002109 0.008491 0.000000 0.000000 0.000000
# 4 0.000000 0.000000 0.000000 0.037631 0.000000 0.000000
# 5 0.000000 0.000000 0.000000 0.000000 0.130124 0.000000
# 6 0.000000 0.000000 0.000000 0.000000 0.000000 0.032699
#
#
# Mechanical properties :
#
#
# Convention : Reuss Voigt Hill
#
# Bulk Modulus (GPa) = 61.52807 62.25166 61.88987
# Shear Modulus (GPa) = 20.05593 31.11466 25.58530
#
# Velocity S-wave (km/s) = 3.09837 3.85918 3.49951
# Velocity P-wave (km/s) = 6.50006 7.04662 6.77885
#
# Compressibility (1/GPa) = 0.01625274
#
# Stress axis : x y z
#
# Youngs Moduli (GPa) = 101.53656 86.93985 117.77515
#
# Poissons Ratio (x) = 0.41562 -0.01126
# Poissons Ratio (y) = 0.48540 0.24844
# Poissons Ratio (z) = -0.00970 0.18340
#
# Static dielectric constant tensor:
#      x y z
#    x 3.736680 0.000000 0.000000 
#    y 0.000000 3.883950 0.000000 
#    z 0.000000 0.000000 3.953620 
# 
# 
# High freq. dielectric constant tensor:
#      x y z
#    x 1.800600 0.000000 0.000000 
#    y 0.000000 1.815370 0.000000 
#    z 0.000000 0.000000 1.832440 
# 
# From -- ./inp_files/33818.got.cif
#   From: 2010.03.12/outbox.cif.g09.slc.cpg/sg66_17_cif.got.tgz:33818.got - 2010.04.10 21:57:39.
