data_PCOD8277512
_publ_section_title
;
Structure prediction by ZEFSAII (Michael W. Deem and Ramdas Pophale) SiO2 
 PCOD8277512
Probable space group: C C C M
;
_chemical_formula_sum "Si O2"
_cell_formula_units_Z 96
_cell_length_a 14.518777
_cell_length_b 22.543538
_cell_length_c 14.162603
_cell_angle_alpha 90.000000
_cell_angle_beta 90.000000
_cell_angle_gamma 90.000000
_cell_volume 4635.485124
_symmetry_space_group_name_H-M "C C C M"
_symmetry_group_IT_number 66
_symmetry_cell_setting 'orthorhombic'
loop_
_space_group_symop_operation_xyz
x,y,z
-x,-y,z
x,-y,1/2-z
-x,y,1/2-z
-x,-y,-z
x,y,-z
-x,y,1/2+z
x,-y,1/2+z
1/2+x,1/2+y,z
1/2-x,1/2-y,z
1/2+x,1/2-y,1/2-z
1/2-x,1/2+y,1/2-z
1/2-x,1/2-y,-z
1/2+x,1/2+y,-z
1/2-x,1/2+y,1/2+z
1/2+x,1/2-y,1/2+z
loop_
_atom_site_type_symbol
_atom_site_label
_atom_site_fract_x
_atom_site_fract_y
_atom_site_fract_z
Si Si1 0.143657 0.238618 0.674461
Si Si2 0.406916 0.637319 0.299057
Si Si3 0.909037 0.369692 0.193642
Si Si4 0.820661 0.404017 0.000000
Si Si5 0.220219 0.972545 0.500000
Si Si6 0.368018 0.658793 0.000000
Si Si7 0.550925 0.398677 0.500000
Si Si8 0.239694 0.562572 0.702686
O O1 0.250000 0.250000 0.657838
O O2 0.126144 0.203245 0.771236
O O3 0.086763 0.299484 0.676426
O O4 0.105156 0.197464 0.590925
O O5 0.500000 0.617797 0.250000
O O6 0.414143 0.638733 0.411209
O O7 0.338615 0.585636 0.262658
O O8 0.829220 0.386227 0.265845
O O9 0.000000 0.391582 0.250000
O O10 0.887454 0.401375 0.092072
O O11 0.751817 0.459750 0.000000
O O12 0.742468 0.352795 0.000000
O O13 0.107007 0.962433 0.500000
O O14 0.265669 0.941377 0.590140
O O15 0.437632 0.600855 0.000000
O O16 0.215927 0.500000 0.750000
#
# Coordination Sequence:
#
# PCOD8277512 Si02
#       8
#    16  16  16   8   8   8   8  16
#     4  12  22  42  67  99 136 182 226 284 347 405
#     4  11  22  41  65  97 140 180 219 275 348 416
#     4  12  27  44  68 100 132 179 240 286 342 401
#     4  12  23  46  70  99 137 181 229 294 335 400
#     4  10  24  43  68  98 142 179 220 277 342 405
#     4  12  22  39  70 106 140 171 228 285 349 412
#     4  10  24  39  64 107 140 178 220 271 344 427
#     4  11  23  44  67  96 135 178 228 282 335 405
#
# _framework density 20.709804999999999
#
# number of rings (size 3 to 8) (size 9 to 14) (size 15 to 20)
#    0.000    0.667    6.667    1.250    0.000    1.667 
#    0.000    5.417    0.000    0.000    0.000    0.000 
#    0.000    0.000    0.000    0.000    0.000    0.000 
#
# Total GULP energy -594880.947026 kJ/mol
# GULP energy per Si atom -12393.353063 kJ/mol
# Density = 2.066267 g / cm^3
# Si number density = 20.709805 Si / 1000 Ang^3
#
#
#
# Elastic Constant Matrix: (Units=GPa)
#
#
# Indices 1 2 3 4 5 6 
#
# 1 109.4924 37.3263 64.9244 0.0000 0.0000 0.0000
# 2 37.3263 88.7408 42.8334 0.0000 0.0000 0.0000
# 3 64.9244 42.8334 137.5185 0.0000 0.0000 0.0000
# 4 0.0000 0.0000 0.0000 23.4124 0.0000 0.0000
# 5 0.0000 0.0000 0.0000 0.0000 27.6788 0.0000
# 6 0.0000 0.0000 0.0000 0.0000 0.0000 27.3344
#
#
#
# Elastic Compliance Matrix: (Units=1/GPa)
#
#
# Indices 1 2 3 4 5 6 
#
# 1 0.013340 -0.003026 -0.005356 0.000000 0.000000 0.000000
# 2 -0.003026 0.013949 -0.002916 0.000000 0.000000 0.000000
# 3 -0.005356 -0.002916 0.010708 0.000000 0.000000 0.000000
# 4 0.000000 0.000000 0.000000 0.042712 0.000000 0.000000
# 5 0.000000 0.000000 0.000000 0.000000 0.036129 0.000000
# 6 0.000000 0.000000 0.000000 0.000000 0.000000 0.036584
#
#
# Mechanical properties :
#
#
# Convention : Reuss Voigt Hill
#
# Bulk Modulus (GPa) = 64.92555 69.54667 67.23611
# Shear Modulus (GPa) = 27.60100 28.39630 27.99865
#
# Velocity S-wave (km/s) = 3.65465 3.70692 3.68088
# Velocity P-wave (km/s) = 7.01618 7.20945 7.11347
#
# Compressibility (1/GPa) = 0.01540226
#
# Stress axis : x y z
#
# Youngs Moduli (GPa) = 74.96070 71.68869 93.38396
#
# Poissons Ratio (x) = 0.21695 0.50012
# Poissons Ratio (y) = 0.22685 0.27232
# Poissons Ratio (z) = 0.40146 0.20905
#
# Static dielectric constant tensor:
#      x y z
#    x 3.831470 0.000000 0.000000 
#    y 0.000000 3.741430 0.000000 
#    z 0.000000 0.000000 4.028470 
# 
# 
# High freq. dielectric constant tensor:
#      x y z
#    x 1.806740 0.000000 0.000000 
#    y 0.000000 1.800660 0.000000 
#    z 0.000000 0.000000 1.825100 
# 
# From -- ./inp_files/28487.got.cif
#   From: 2010.03.12/outbox.cif.g09.slc.cpg/sg66_15_cif.got.tgz:28487.got - 2010.04.10 21:57:39.
