data_PCOD8277642
_publ_section_title
;
Structure prediction by ZEFSAII (Michael W. Deem and Ramdas Pophale) SiO2 
 PCOD8277642
Probable space group: C C C M
;
_chemical_formula_sum "Si O2"
_cell_formula_units_Z 80
_cell_length_a 18.512232
_cell_length_b 27.282322
_cell_length_c 8.852991
_cell_angle_alpha 90.000000
_cell_angle_beta 90.000000
_cell_angle_gamma 90.000000
_cell_volume 4471.262193
_symmetry_space_group_name_H-M "C C C M"
_symmetry_group_IT_number 66
_symmetry_cell_setting 'orthorhombic'
loop_
_space_group_symop_operation_xyz
x,y,z
-x,-y,z
x,-y,1/2-z
-x,y,1/2-z
-x,-y,-z
x,y,-z
-x,y,1/2+z
x,-y,1/2+z
1/2+x,1/2+y,z
1/2-x,1/2-y,z
1/2+x,1/2-y,1/2-z
1/2-x,1/2+y,1/2-z
1/2-x,1/2-y,-z
1/2+x,1/2+y,-z
1/2-x,1/2+y,1/2+z
1/2+x,1/2-y,1/2+z
loop_
_atom_site_type_symbol
_atom_site_label
_atom_site_fract_x
_atom_site_fract_y
_atom_site_fract_z
Si Si1 0.424491 0.350281 0.320429
Si Si2 0.074447 0.447963 0.178588
Si Si3 0.718190 0.700138 0.678012
Si Si4 0.295170 0.898820 0.175970
Si Si5 0.352074 0.449079 0.676643
O O1 0.500000 0.333592 0.250000
O O2 0.429376 0.348770 0.500000
O O3 0.362326 0.312794 0.261794
O O4 0.404031 0.405285 0.265873
O O5 0.095434 0.500000 0.250000
O O6 0.136742 0.409785 0.219068
O O7 0.000000 0.428418 0.250000
O O8 0.065934 0.453330 0.000000
O O9 0.712171 0.706466 0.500000
O O10 0.750000 0.750000 0.752079
O O11 0.772416 0.656247 0.717214
O O12 0.230545 0.936025 0.217501
O O13 0.315815 0.903791 0.000000
O O14 0.376058 0.500000 0.750000
O O15 0.360848 0.455049 0.500000
#
# Coordination Sequence:
#
# PCOD8277642 Si02
#       5
#    16  16  16  16  16
#     4   9  18  32  49  71  97 125 158 194 235 281
#     4  11  21  33  49  70  98 131 165 200 244 294
#     4   8  15  31  55  76  95 126 165 201 241 290
#     4   9  17  31  50  72  97 125 162 204 242 288
#     4   9  18  30  45  67  95 127 161 194 230 278
#
# _framework density 17.892040000000001
#
# number of rings (size 3 to 8) (size 9 to 14) (size 15 to 20)
#    0.000    2.800    0.000    5.400    0.000    3.600 
#    0.000    6.000    0.000    4.800    0.000    0.000 
#    0.000    0.000    0.000    0.000    0.000    0.000 
#
# Total GULP energy -495877.463602 kJ/mol
# GULP energy per Si atom -12396.936590 kJ/mol
# Density = 1.785132 g / cm^3
# Si number density = 17.892040 Si / 1000 Ang^3
#
#
#
# Elastic Constant Matrix: (Units=GPa)
#
#
# Indices 1 2 3 4 5 6 
#
# 1 136.8120 64.8232 40.0716 0.0000 0.0000 0.0000
# 2 64.8232 116.0656 25.4116 0.0000 0.0000 0.0000
# 3 40.0716 25.4116 60.6985 0.0000 0.0000 0.0000
# 4 0.0000 0.0000 0.0000 15.9757 0.0000 0.0000
# 5 0.0000 0.0000 0.0000 0.0000 29.4915 0.0000
# 6 0.0000 0.0000 0.0000 0.0000 0.0000 19.8050
#
#
#
# Elastic Compliance Matrix: (Units=1/GPa)
#
#
# Indices 1 2 3 4 5 6 
#
# 1 0.011304 -0.005152 -0.005306 0.000000 0.000000 0.000000
# 2 -0.005152 0.011833 -0.001553 0.000000 0.000000 0.000000
# 3 -0.005306 -0.001553 0.020628 0.000000 0.000000 0.000000
# 4 0.000000 0.000000 0.000000 0.062595 0.000000 0.000000
# 5 0.000000 0.000000 0.000000 0.000000 0.033908 0.000000
# 6 0.000000 0.000000 0.000000 0.000000 0.000000 0.050492
#
#
# Mechanical properties :
#
#
# Convention : Reuss Voigt Hill
#
# Bulk Modulus (GPa) = 50.64845 63.79876 57.22360
# Shear Modulus (GPa) = 22.58722 25.27239 23.92981
#
# Velocity S-wave (km/s) = 3.55691 3.76239 3.66109
# Velocity P-wave (km/s) = 6.72592 7.38980 7.06566
#
# Compressibility (1/GPa) = 0.01974394
#
# Stress axis : x y z
#
# Youngs Moduli (GPa) = 88.46089 84.50843 48.47797
#
# Poissons Ratio (x) = 0.43538 0.25723
# Poissons Ratio (y) = 0.45574 0.07528
# Poissons Ratio (z) = 0.46938 0.13123
#
# Static dielectric constant tensor:
#      x y z
#    x 3.455330 0.000000 0.000000 
#    y 0.000000 3.700990 0.000000 
#    z 0.000000 0.000000 2.993490 
# 
# 
# High freq. dielectric constant tensor:
#      x y z
#    x 1.696690 0.000000 0.000000 
#    y 0.000000 1.680840 0.000000 
#    z 0.000000 0.000000 1.667550 
# 
# From -- ./inp_files/6697.got.cif
#   From: 2010.03.12/outbox.cif.g09.slc.cpg/sg66_4_cif.got.tgz:6697.got - 2010.04.10 21:57:39.
