data_PCOD8277462
_publ_section_title
;
Structure prediction by ZEFSAII (Michael W. Deem and Ramdas Pophale) SiO2 
 PCOD8277462
Probable space group: C C C M
;
_chemical_formula_sum "Si O2"
_cell_formula_units_Z 64
_cell_length_a 9.257832
_cell_length_b 10.414855
_cell_length_c 32.608425
_cell_angle_alpha 90.000000
_cell_angle_beta 90.000000
_cell_angle_gamma 90.000000
_cell_volume 3144.071009
_symmetry_space_group_name_H-M "C C C M"
_symmetry_group_IT_number 66
_symmetry_cell_setting 'orthorhombic'
loop_
_space_group_symop_operation_xyz
x,y,z
-x,-y,z
x,-y,1/2-z
-x,y,1/2-z
-x,-y,-z
x,y,-z
-x,y,1/2+z
x,-y,1/2+z
1/2+x,1/2+y,z
1/2-x,1/2-y,z
1/2+x,1/2-y,1/2-z
1/2-x,1/2+y,1/2-z
1/2-x,1/2-y,-z
1/2+x,1/2+y,-z
1/2-x,1/2+y,1/2+z
1/2+x,1/2-y,1/2+z
loop_
_atom_site_type_symbol
_atom_site_label
_atom_site_fract_x
_atom_site_fract_y
_atom_site_fract_z
Si Si1 0.426390 0.377243 0.794169
Si Si2 0.161581 0.624508 0.415508
Si Si3 0.146661 0.365490 0.547647
Si Si4 0.116592 0.606599 0.322168
O O1 0.500000 0.500000 0.816786
O O2 0.500000 0.363592 0.750000
O O3 0.253156 0.401378 0.791220
O O4 0.458105 0.246770 0.819096
O O5 0.250000 0.750000 0.428172
O O6 0.220274 0.502617 0.441528
O O7 0.177864 0.589199 0.367833
O O8 0.995101 0.650867 0.425165
O O9 0.105258 0.361438 0.500000
O O10 0.250000 0.250000 0.560124
O O11 0.000000 0.500000 0.309861
#
# Coordination Sequence:
#
# PCOD8277462 Si02
#       4
#    16  16  16  16
#     4  10  24  43  63  93 126 158 207 264 322 388
#     4  11  21  41  64  95 131 165 215 268 312 374
#     4  10  23  41  64  97 135 175 216 261 321 380
#     4  11  23  43  66  94 125 165 214 259 323 381
#
# _framework density 20.355774
#
# number of rings (size 3 to 8) (size 9 to 14) (size 15 to 20)
#    0.000    1.500    5.000    1.500    0.000   14.500 
#    0.000    2.500    0.000    0.000    0.000    0.000 
#    0.000    0.000    0.000    0.000    0.000    0.000 
#
# Total GULP energy -396754.319584 kJ/mol
# GULP energy per Si atom -12398.572487 kJ/mol
# Density = 2.030944 g / cm^3
# Si number density = 20.355774 Si / 1000 Ang^3
#
#
#
# Elastic Constant Matrix: (Units=GPa)
#
#
# Indices 1 2 3 4 5 6 
#
# 1 96.8125 84.3473 34.0418 0.0000 0.0000 0.0000
# 2 84.3473 196.8167 17.8383 0.0000 0.0000 0.0000
# 3 34.0418 17.8383 71.5667 0.0000 0.0000 0.0000
# 4 0.0000 0.0000 0.0000 28.4101 0.0000 0.0000
# 5 0.0000 0.0000 0.0000 0.0000 20.2957 0.0000
# 6 0.0000 0.0000 0.0000 0.0000 0.0000 51.3859
#
#
#
# Elastic Compliance Matrix: (Units=1/GPa)
#
#
# Indices 1 2 3 4 5 6 
#
# 1 0.019723 -0.007778 -0.007443 0.000000 0.000000 0.000000
# 2 -0.007778 0.008265 0.001639 0.000000 0.000000 0.000000
# 3 -0.007443 0.001639 0.017105 0.000000 0.000000 0.000000
# 4 0.000000 0.000000 0.000000 0.035199 0.000000 0.000000
# 5 0.000000 0.000000 0.000000 0.000000 0.049272 0.000000
# 6 0.000000 0.000000 0.000000 0.000000 0.000000 0.019461
#
#
# Mechanical properties :
#
#
# Convention : Reuss Voigt Hill
#
# Bulk Modulus (GPa) = 55.77070 70.85008 63.31039
# Shear Modulus (GPa) = 27.44803 35.28290 31.36546
#
# Velocity S-wave (km/s) = 3.67606 4.16782 3.92964
# Velocity P-wave (km/s) = 6.74354 7.61856 7.19437
#
# Compressibility (1/GPa) = 0.01793056
#
# Stress axis : x y z
#
# Youngs Moduli (GPa) = 50.70338 120.98522 58.46386
#
# Poissons Ratio (x) = 0.94098 0.43513
# Poissons Ratio (y) = 0.39435 -0.09584
# Poissons Ratio (z) = 0.37737 -0.19834
#
# Static dielectric constant tensor:
#      x y z
#    x 3.598120 0.000000 0.000000 
#    y 0.000000 4.311290 0.000000 
#    z 0.000000 0.000000 3.548000 
# 
# 
# High freq. dielectric constant tensor:
#      x y z
#    x 1.782750 0.000000 0.000000 
#    y 0.000000 1.820170 0.000000 
#    z 0.000000 0.000000 1.786840 
# 
# From -- ./inp_files/67893.got.cif
#   From: 2010.03.12/outbox.cif.g09.slc.cpg/sg66_34_cif.got.tgz:67893.got - 2010.04.10 21:57:39.
