data_PCOD8277278
_publ_section_title
;
Structure prediction by ZEFSAII (Michael W. Deem and Ramdas Pophale) SiO2 
 PCOD8277278
Probable space group: C C C M
;
_chemical_formula_sum "Si O2"
_cell_formula_units_Z 56
_cell_length_a 10.172181
_cell_length_b 10.172064
_cell_length_c 29.847208
_cell_angle_alpha 90.000000
_cell_angle_beta 90.000000
_cell_angle_gamma 90.000000
_cell_volume 3088.352579
_symmetry_space_group_name_H-M "C C C M"
_symmetry_group_IT_number 66
_symmetry_cell_setting 'orthorhombic'
loop_
_space_group_symop_operation_xyz
x,y,z
-x,-y,z
x,-y,1/2-z
-x,y,1/2-z
-x,-y,-z
x,y,-z
-x,y,1/2+z
x,-y,1/2+z
1/2+x,1/2+y,z
1/2-x,1/2-y,z
1/2+x,1/2-y,1/2-z
1/2-x,1/2+y,1/2-z
1/2-x,1/2-y,-z
1/2+x,1/2+y,-z
1/2-x,1/2+y,1/2+z
1/2+x,1/2-y,1/2+z
loop_
_atom_site_type_symbol
_atom_site_label
_atom_site_fract_x
_atom_site_fract_y
_atom_site_fract_z
Si Si1 0.536695 0.743495 0.500000
Si Si2 0.756501 0.963309 0.500000
Si Si3 0.353301 0.353299 0.764481
Si Si4 0.750000 0.250000 0.649592
Si Si5 0.890544 0.390540 0.571990
O O1 0.651968 0.848032 0.500000
O O2 0.595983 0.595977 0.500000
O O3 0.449281 0.767002 0.544307
O O4 0.732993 0.050725 0.544307
O O5 0.315340 0.500000 0.750000
O O6 0.500000 0.315333 0.750000
O O7 0.250000 0.250000 0.741989
O O8 0.341732 0.341732 0.818647
O O9 0.842282 0.342282 0.619888
O O10 0.000000 0.500000 0.580156
#
# Coordination Sequence:
#
# PCOD8277278 Si02
#       5
#     8   8  16   8  16
#     4   8  15  31  53  76 115 156 183 211 273 330
#     4   8  15  31  53  76 115 156 183 211 273 330
#     4   9  21  42  62  83 114 148 189 246 303 359
#     4  10  22  37  60  86 112 140 200 237 284 352
#     4   9  18  34  52  82 116 142 184 238 263 322
#
# _framework density 18.132646000000001
#
# number of rings (size 3 to 8) (size 9 to 14) (size 15 to 20)
#    0.857    2.286    0.000    1.714    0.000    5.143 
#   10.286    1.429    0.000    0.000    0.000    0.000 
#    0.000    0.000    0.000    0.000    0.000    0.000 
#
# Total GULP energy -346956.470340 kJ/mol
# GULP energy per Si atom -12391.302512 kJ/mol
# Density = 1.809138 g / cm^3
# Si number density = 18.132646 Si / 1000 Ang^3
#
#
#
# Elastic Constant Matrix: (Units=GPa)
#
#
# Indices 1 2 3 4 5 6 
#
# 1 111.3807 81.2037 61.0892 0.0000 0.0000 0.0000
# 2 81.2037 111.3678 61.0866 0.0000 0.0000 0.0000
# 3 61.0892 61.0866 150.5696 0.0000 0.0000 0.0000
# 4 0.0000 0.0000 0.0000 33.7951 0.0000 0.0000
# 5 0.0000 0.0000 0.0000 0.0000 33.7959 0.0000
# 6 0.0000 0.0000 0.0000 0.0000 0.0000 46.6662
#
#
#
# Elastic Compliance Matrix: (Units=1/GPa)
#
#
# Indices 1 2 3 4 5 6 
#
# 1 0.020067 -0.013076 -0.002837 0.000000 0.000000 0.000000
# 2 -0.013076 0.020070 -0.002837 0.000000 0.000000 0.000000
# 3 -0.002837 -0.002837 0.008943 0.000000 0.000000 0.000000
# 4 0.000000 0.000000 0.000000 0.029590 0.000000 0.000000
# 5 0.000000 0.000000 0.000000 0.000000 0.029589 0.000000
# 6 0.000000 0.000000 0.000000 0.000000 0.000000 0.021429
#
#
# Mechanical properties :
#
#
# Convention : Reuss Voigt Hill
#
# Bulk Modulus (GPa) = 86.35082 86.67523 86.51303
# Shear Modulus (GPa) = 29.23131 34.18067 31.70599
#
# Velocity S-wave (km/s) = 4.01943 4.34641 4.18611
# Velocity P-wave (km/s) = 8.32263 8.54943 8.43679
#
# Compressibility (1/GPa) = 0.01158067
#
# Stress axis : x y z
#
# Youngs Moduli (GPa) = 49.83196 49.82575 111.81405
#
# Poissons Ratio (x) = 0.65153 0.31719
# Poissons Ratio (y) = 0.65161 0.31724
# Poissons Ratio (z) = 0.14136 0.14136
#
# Static dielectric constant tensor:
#      x y z
#    x 3.464650 0.000000 0.000000 
#    y 0.000000 3.464610 0.000000 
#    z 0.000000 0.000000 3.151230 
# 
# 
# High freq. dielectric constant tensor:
#      x y z
#    x 1.705010 0.000000 0.000000 
#    y 0.000000 1.705010 0.000000 
#    z 0.000000 0.000000 1.683270 
# 
# From -- ./inp_files/68541.got.cif
#   From: 2010.03.12/outbox.cif.g09.slc.cpg/sg66_35_cif.got.tgz:68541.got - 2010.04.10 21:57:39.
