data_PCOD8277956
_publ_section_title
;
Structure prediction by ZEFSAII (Michael W. Deem and Ramdas Pophale) SiO2 
 PCOD8277956
Probable space group: C M M A
;
_chemical_formula_sum "Si O2"
_cell_formula_units_Z 80
_cell_length_a 19.181906
_cell_length_b 8.667427
_cell_length_c 26.445482
_cell_angle_alpha 90.000000
_cell_angle_beta 90.000000
_cell_angle_gamma 90.000000
_cell_volume 4396.766863
_symmetry_space_group_name_H-M "C M M A"
_symmetry_group_IT_number 67
_symmetry_cell_setting 'orthorhombic'
loop_
_space_group_symop_operation_xyz
x,y,z
-x,1/2-y,z
x,-y,-z
-x,1/2+y,-z
-x,-y,-z
x,1/2+y,-z
-x,y,z
x,1/2-y,z
1/2+x,1/2+y,z
1/2-x,-y,z
1/2+x,1/2-y,-z
1/2-x,y,-z
1/2-x,1/2-y,-z
1/2+x,y,-z
1/2-x,1/2+y,z
1/2+x,-y,z
loop_
_atom_site_type_symbol
_atom_site_label
_atom_site_fract_x
_atom_site_fract_y
_atom_site_fract_z
Si Si1 0.421563 0.432080 0.346467
Si Si2 0.172423 0.066304 0.151710
Si Si3 0.672162 0.566339 0.949379
Si Si4 0.582963 0.076373 0.550617
Si Si5 0.673329 0.933624 0.745844
O O1 0.500000 0.496434 0.338367
O O2 0.422502 0.250000 0.348978
O O3 0.389161 0.492250 0.399105
O O4 0.374084 0.490217 0.300500
O O5 0.172203 0.250000 0.149476
O O6 0.250000 0.000000 0.152999
O O7 0.134201 0.997174 0.101554
O O8 0.137436 0.004677 0.203433
O O9 0.672473 0.750000 0.950147
O O10 0.750000 0.500000 0.948803
O O11 0.634372 0.500000 0.000000
O O12 0.500000 0.064921 0.549056
O O13 0.609917 0.250000 0.552357
O O14 0.614541 0.000000 0.500000
O O15 0.676864 0.750000 0.750828
O O16 0.750000 0.000000 0.736725
#
# Coordination Sequence:
#
# PCOD8277956 Si02
#       5
#    16  16  16  16  16
#     4   9  18  32  49  69  93 120 151 187 225 265
#     4  10  17  26  39  56  80 111 147 183 220 264
#     4  10  16  23  34  51  76 106 141 179 222 267
#     4   9  16  26  43  67  93 119 147 181 222 267
#     4  10  19  31  47  66  90 121 154 187 224 267
#
# _framework density 18.195188999999999
#
# number of rings (size 3 to 8) (size 9 to 14) (size 15 to 20)
#    0.000    2.400    0.000    7.800    0.000    4.000 
#    0.000    0.000    0.000    0.600    0.000    4.200 
#    0.000    0.800    0.000    2.200    0.000    8.600 
#
# Total GULP energy -495732.447591 kJ/mol
# GULP energy per Si atom -12393.311190 kJ/mol
# Density = 1.815378 g / cm^3
# Si number density = 18.195189 Si / 1000 Ang^3
#
#
#
# Elastic Constant Matrix: (Units=GPa)
#
#
# Indices 1 2 3 4 5 6 
#
# 1 26.4594 17.9221 41.7403 0.0000 0.0000 0.0000
# 2 17.9221 115.1827 69.6002 0.0000 0.0000 0.0000
# 3 41.7403 69.6002 227.6041 0.0000 0.0000 0.0000
# 4 0.0000 0.0000 0.0000 28.9890 0.0000 0.0000
# 5 0.0000 0.0000 0.0000 0.0000 4.2712 0.0000
# 6 0.0000 0.0000 0.0000 0.0000 0.0000 10.0265
#
#
#
# Elastic Compliance Matrix: (Units=1/GPa)
#
#
# Indices 1 2 3 4 5 6 
#
# 1 0.053992 -0.002966 -0.008995 0.000000 0.000000 0.000000
# 2 -0.002966 0.010813 -0.002763 0.000000 0.000000 0.000000
# 3 -0.008995 -0.002763 0.006888 0.000000 0.000000 0.000000
# 4 0.000000 0.000000 0.000000 0.034496 0.000000 0.000000
# 5 0.000000 0.000000 0.000000 0.000000 0.234125 0.000000
# 6 0.000000 0.000000 0.000000 0.000000 0.000000 0.099736
#
#
# Mechanical properties :
#
#
# Convention : Reuss Voigt Hill
#
# Bulk Modulus (GPa) = 23.67073 69.75236 46.71155
# Shear Modulus (GPa) = 10.33962 24.65627 17.49794
#
# Velocity S-wave (km/s) = 2.38641 3.68516 3.10446
# Velocity P-wave (km/s) = 4.54212 7.51838 6.21115
#
# Compressibility (1/GPa) = 0.04224627
#
# Stress axis : x y z
#
# Youngs Moduli (GPa) = 18.52134 92.48443 145.18256
#
# Poissons Ratio (x) = 0.27430 1.30586
# Poissons Ratio (y) = 0.05493 0.40107
# Poissons Ratio (z) = 0.16659 0.25549
#
# Static dielectric constant tensor:
#      x y z
#    x 2.724360 0.000000 0.000000 
#    y 0.000000 3.392820 0.000000 
#    z 0.000000 0.000000 4.733060 
# 
# 
# High freq. dielectric constant tensor:
#      x y z
#    x 1.611100 0.000000 0.000000 
#    y 0.000000 1.719410 0.000000 
#    z 0.000000 0.000000 1.742020 
# 
# From -- ./inp_files/44426.got.cif
#   From: 2010.03.12/outbox.cif.g09.slc.cpg/sg67_23_cif.got.tgz:44426.got - 2010.04.10 22:41:39.
