data_PCOD8277741
_publ_section_title
;
Structure prediction by ZEFSAII (Michael W. Deem and Ramdas Pophale) SiO2 
 PCOD8277741
Probable space group: C C C M
;
_chemical_formula_sum "Si O2"
_cell_formula_units_Z 80
_cell_length_a 18.129314
_cell_length_b 8.572235
_cell_length_c 25.717459
_cell_angle_alpha 90.000000
_cell_angle_beta 90.000000
_cell_angle_gamma 90.000000
_cell_volume 3996.717899
_symmetry_space_group_name_H-M "C C C M"
_symmetry_group_IT_number 66
_symmetry_cell_setting 'orthorhombic'
loop_
_space_group_symop_operation_xyz
x,y,z
-x,-y,z
x,-y,1/2-z
-x,y,1/2-z
-x,-y,-z
x,y,-z
-x,y,1/2+z
x,-y,1/2+z
1/2+x,1/2+y,z
1/2-x,1/2-y,z
1/2+x,1/2-y,1/2-z
1/2-x,1/2+y,1/2-z
1/2-x,1/2-y,-z
1/2+x,1/2+y,-z
1/2-x,1/2+y,1/2+z
1/2+x,1/2-y,1/2+z
loop_
_atom_site_type_symbol
_atom_site_label
_atom_site_fract_x
_atom_site_fract_y
_atom_site_fract_z
Si Si1 0.843668 0.401625 0.398462
Si Si2 0.328932 0.343106 0.500000
Si Si3 0.080808 0.563380 0.196512
Si Si4 0.914084 0.457840 0.000000
Si Si5 0.920499 0.931185 0.694557
Si Si6 0.828482 0.053048 0.601252
O O1 0.871525 0.500778 0.350374
O O2 0.874195 0.474567 0.450369
O O3 0.869127 0.221076 0.399918
O O4 0.757113 0.416667 0.394210
O O5 0.250000 0.250000 0.500000
O O6 0.398729 0.226792 0.500000
O O7 0.340965 0.451261 0.549965
O O8 0.116189 0.500000 0.250000
O O9 0.075122 0.747459 0.199326
O O10 0.000000 0.500000 0.188295
O O11 0.000000 0.500000 0.000000
O O12 0.895120 0.000000 0.750000
O O13 0.859013 0.965210 0.651559
O O14 0.000000 0.000000 0.678060
#
# Coordination Sequence:
#
# PCOD8277741 Si02
#       6
#    16   8  16   8  16  16
#     4  11  23  42  63  93 127 168 217 265 328 388
#     4  12  23  43  67  95 130 170 221 269 334 391
#     4  11  22  39  63  88 126 169 211 264 326 389
#     4  12  25  41  65  95 129 168 217 266 329 395
#     4  11  23  41  65  95 131 168 217 272 330 395
#     4  11  24  41  67  91 128 172 216 270 326 392
#
# _framework density 20.016423
#
# number of rings (size 3 to 8) (size 9 to 14) (size 15 to 20)
#    0.000    0.800    2.000    7.200    0.000    4.000 
#    0.000    1.500    0.000    0.000    0.000    0.000 
#    0.000    0.000    0.000    0.000    0.000    0.000 
#
# Total GULP energy -495982.788628 kJ/mol
# GULP energy per Si atom -12399.569716 kJ/mol
# Density = 1.997087 g / cm^3
# Si number density = 20.016423 Si / 1000 Ang^3
#
#
#
# Elastic Constant Matrix: (Units=GPa)
#
#
# Indices 1 2 3 4 5 6 
#
# 1 73.9234 46.3079 52.5579 0.0000 0.0000 0.0000
# 2 46.3079 204.9656 70.0394 0.0000 0.0000 0.0000
# 3 52.5579 70.0394 150.5045 0.0000 0.0000 0.0000
# 4 0.0000 0.0000 0.0000 41.9949 0.0000 0.0000
# 5 0.0000 0.0000 0.0000 0.0000 94.6738 0.0000
# 6 0.0000 0.0000 0.0000 0.0000 0.0000 33.9276
#
#
#
# Elastic Compliance Matrix: (Units=1/GPa)
#
#
# Indices 1 2 3 4 5 6 
#
# 1 0.018939 -0.002401 -0.005497 0.000000 0.000000 0.000000
# 2 -0.002401 0.006106 -0.002003 0.000000 0.000000 0.000000
# 3 -0.005497 -0.002003 0.009496 0.000000 0.000000 0.000000
# 4 0.000000 0.000000 0.000000 0.023812 0.000000 0.000000
# 5 0.000000 0.000000 0.000000 0.000000 0.010563 0.000000
# 6 0.000000 0.000000 0.000000 0.000000 0.000000 0.029475
#
#
# Mechanical properties :
#
#
# Convention : Reuss Voigt Hill
#
# Bulk Modulus (GPa) = 67.84126 85.24489 76.54308
# Shear Modulus (GPa) = 40.61579 51.48514 46.05046
#
# Velocity S-wave (km/s) = 4.50947 5.07713 4.80170
# Velocity P-wave (km/s) = 7.81537 8.77779 8.31053
#
# Compressibility (1/GPa) = 0.01474029
#
# Stress axis : x y z
#
# Youngs Moduli (GPa) = 52.79999 163.78086 105.30797
#
# Poissons Ratio (x) = 0.39319 0.57884
# Poissons Ratio (y) = 0.12676 0.21093
# Poissons Ratio (z) = 0.29022 0.32806
#
# Static dielectric constant tensor:
#      x y z
#    x 2.109000 0.000000 0.000000 
#    y 0.000000 4.212760 0.000000 
#    z 0.000000 0.000000 4.074250 
# 
# 
# High freq. dielectric constant tensor:
#      x y z
#    x 1.773480 0.000000 0.000000 
#    y 0.000000 1.810190 0.000000 
#    z 0.000000 0.000000 1.800540 
# 
# From -- ./inp_files/65134.got.cif
#   From: 2010.03.12/outbox.cif.g09.slc.cpg/sg66_33_cif.got.tgz:65134.got - 2010.04.10 21:57:39.
