data_PCOD8277350
_publ_section_title
;
Structure prediction by ZEFSAII (Michael W. Deem and Ramdas Pophale) SiO2 
 PCOD8277350
Probable space group: C C C M
;
_chemical_formula_sum "Si O2"
_cell_formula_units_Z 100
_cell_length_a 9.670369
_cell_length_b 25.605504
_cell_length_c 18.868139
_cell_angle_alpha 90.000000
_cell_angle_beta 90.000000
_cell_angle_gamma 90.000000
_cell_volume 4672.028052
_symmetry_space_group_name_H-M "C C C M"
_symmetry_group_IT_number 66
_symmetry_cell_setting 'orthorhombic'
loop_
_space_group_symop_operation_xyz
x,y,z
-x,-y,z
x,-y,1/2-z
-x,y,1/2-z
-x,-y,-z
x,y,-z
-x,y,1/2+z
x,-y,1/2+z
1/2+x,1/2+y,z
1/2-x,1/2-y,z
1/2+x,1/2-y,1/2-z
1/2-x,1/2+y,1/2-z
1/2-x,1/2-y,-z
1/2+x,1/2+y,-z
1/2-x,1/2+y,1/2+z
1/2+x,1/2-y,1/2+z
loop_
_atom_site_type_symbol
_atom_site_label
_atom_site_fract_x
_atom_site_fract_y
_atom_site_fract_z
Si Si1 0.593272 0.917755 0.000000
Si Si2 0.956534 0.863281 0.170446
Si Si3 0.760761 0.093512 0.871870
Si Si4 0.802948 0.473968 0.000000
Si Si5 0.511329 0.847219 0.877603
Si Si6 0.500000 0.000000 0.250000
Si Si7 0.815136 0.586269 0.212150
Si Si8 0.093184 0.763692 0.578132
O O1 0.607280 0.879912 0.067539
O O2 0.455543 0.951233 0.000000
O O3 0.711022 0.962761 0.000000
O O4 0.830569 0.905473 0.171469
O O5 0.910448 0.810840 0.132508
O O6 0.000000 0.848533 0.250000
O O7 0.084682 0.884720 0.126472
O O8 0.767836 0.046581 0.927988
O O9 0.648655 0.138007 0.891483
O O10 0.717365 0.075295 0.794179
O O11 0.581531 0.864277 0.802514
O O12 0.513847 0.785434 0.887944
O O13 0.594188 0.965606 0.194687
O O14 0.029826 0.776925 0.500000
O O15 0.250000 0.750000 0.566854
#
# Coordination Sequence:
#
# PCOD8277350 Si02
#       8
#     8  16  16   8  16   4  16  16
#     4   9  20  34  59  94 132 168 217 286 329 376
#     4  10  24  45  63  94 142 174 211 275 341 394
#     4  10  22  40  63  97 135 174 217 274 335 401
#     4   9  20  36  62  90 133 175 215 268 343 400
#     4  11  20  39  64  97 130 170 230 276 321 392
#     4  12  24  40  78 110 120 172 234 274 324 390
#     4  11  23  40  68  97 132 168 221 272 324 400
#     4  11  23  41  68  98 128 179 228 278 336 395
#
# _framework density 21.403981999999999
#
# number of rings (size 3 to 8) (size 9 to 14) (size 15 to 20)
#    0.000    1.600    4.000    0.000    3.360    1.920 
#    0.000    4.400    0.000    0.960    0.000    0.000 
#    0.000    0.000    0.000    0.000    0.000    0.000 
#
# Total GULP energy -619537.190098 kJ/mol
# GULP energy per Si atom -12390.743802 kJ/mol
# Density = 2.135527 g / cm^3
# Si number density = 21.403982 Si / 1000 Ang^3
#
#
#
# Elastic Constant Matrix: (Units=GPa)
#
#
# Indices 1 2 3 4 5 6 
#
# 1 126.1474 56.3788 38.8728 0.0000 0.0000 0.0000
# 2 56.3788 123.1142 51.1495 0.0000 0.0000 0.0000
# 3 38.8728 51.1495 96.2369 0.0000 0.0000 0.0000
# 4 0.0000 0.0000 0.0000 40.9314 0.0000 0.0000
# 5 0.0000 0.0000 0.0000 0.0000 28.1348 0.0000
# 6 0.0000 0.0000 0.0000 0.0000 0.0000 29.4587
#
#
#
# Elastic Compliance Matrix: (Units=1/GPa)
#
#
# Indices 1 2 3 4 5 6 
#
# 1 0.010294 -0.003833 -0.002121 0.000000 0.000000 0.000000
# 2 -0.003833 0.011852 -0.004751 0.000000 0.000000 0.000000
# 3 -0.002121 -0.004751 0.013773 0.000000 0.000000 0.000000
# 4 0.000000 0.000000 0.000000 0.024431 0.000000 0.000000
# 5 0.000000 0.000000 0.000000 0.000000 0.035543 0.000000
# 6 0.000000 0.000000 0.000000 0.000000 0.000000 0.033946
#
#
# Mechanical properties :
#
#
# Convention : Reuss Voigt Hill
#
# Bulk Modulus (GPa) = 68.92238 70.92231 69.92235
# Shear Modulus (GPa) = 32.03414 32.97815 32.50614
#
# Velocity S-wave (km/s) = 3.87285 3.92949 3.90127
# Velocity P-wave (km/s) = 7.22974 7.33450 7.28231
#
# Compressibility (1/GPa) = 0.01450907
#
# Stress axis : x y z
#
# Youngs Moduli (GPa) = 97.14627 84.37729 72.60714
#
# Poissons Ratio (x) = 0.32340 0.15399
# Poissons Ratio (y) = 0.37234 0.34495
# Poissons Ratio (z) = 0.20603 0.40086
#
# Static dielectric constant tensor:
#      x y z
#    x 3.963940 0.000000 0.000000 
#    y 0.000000 4.001270 0.000000 
#    z 0.000000 0.000000 4.033190 
# 
# 
# High freq. dielectric constant tensor:
#      x y z
#    x 1.832820 0.000000 0.000000 
#    y 0.000000 1.824700 0.000000 
#    z 0.000000 0.000000 1.846990 
# 
# From -- ./inp_files/47446.got.cif
#   From: 2010.03.12/outbox.cif.g09.slc.cpg/sg66_24_cif.got.tgz:47446.got - 2010.04.10 21:57:39.
