data_PCOD8277544
_publ_section_title
;
Structure prediction by ZEFSAII (Michael W. Deem and Ramdas Pophale) SiO2 
 PCOD8277544
Probable space group: C C C M
;
_chemical_formula_sum "Si O2"
_cell_formula_units_Z 120
_cell_length_a 12.941960
_cell_length_b 22.305418
_cell_length_c 20.307811
_cell_angle_alpha 90.000000
_cell_angle_beta 90.000000
_cell_angle_gamma 90.000000
_cell_volume 5862.374146
_symmetry_space_group_name_H-M "C C C M"
_symmetry_group_IT_number 66
_symmetry_cell_setting 'orthorhombic'
loop_
_space_group_symop_operation_xyz
x,y,z
-x,-y,z
x,-y,1/2-z
-x,y,1/2-z
-x,-y,-z
x,y,-z
-x,y,1/2+z
x,-y,1/2+z
1/2+x,1/2+y,z
1/2-x,1/2-y,z
1/2+x,1/2-y,1/2-z
1/2-x,1/2+y,1/2-z
1/2-x,1/2-y,-z
1/2+x,1/2+y,-z
1/2-x,1/2+y,1/2+z
1/2+x,1/2-y,1/2+z
loop_
_atom_site_type_symbol
_atom_site_label
_atom_site_fract_x
_atom_site_fract_y
_atom_site_fract_z
Si Si1 0.548834 0.438500 0.425352
Si Si2 0.026655 0.735089 0.320344
Si Si3 0.250000 0.250000 0.783049
Si Si4 0.771083 0.433535 0.376062
Si Si5 0.263607 0.119939 0.265317
Si Si6 0.590457 0.041607 0.846118
Si Si7 0.466595 0.133041 0.924010
Si Si8 0.946904 0.862646 0.317888
O O1 0.500000 0.500000 0.398520
O O2 0.513841 0.426828 0.500000
O O3 0.672284 0.439557 0.422222
O O4 0.505479 0.385344 0.381581
O O5 0.145364 0.760266 0.325759
O O6 0.004202 0.690062 0.379714
O O7 0.000000 0.703212 0.250000
O O8 0.947045 0.790570 0.324121
O O9 0.277375 0.191453 0.740018
O O10 0.737449 0.408874 0.305031
O O11 0.817715 0.499976 0.371721
O O12 0.849650 0.386607 0.408932
O O13 0.366966 0.087865 0.291619
O O14 0.168872 0.110395 0.315843
O O15 0.543986 0.078582 0.907423
O O16 0.500000 0.000000 0.814646
O O17 0.479106 0.150781 0.000000
O O18 0.000000 0.883082 0.250000
#
# Coordination Sequence:
#
# PCOD8277544 Si02
#       8
#    16  16   8  16  16  16  16  16
#     4  11  24  41  61  90 128 173 216 272 344 414
#     4  11  22  41  65  97 129 172 221 278 343 405
#     4  12  20  36  65  92 131 170 212 278 336 398
#     4  11  22  41  65  95 131 169 222 282 338 402
#     4  12  22  40  67 102 132 169 226 275 343 397
#     4  10  25  41  64  97 135 178 221 280 340 404
#     4  11  25  42  64  95 135 179 226 277 340 411
#     4  11  22  41  66  96 128 170 219 278 334 401
#
# _framework density 20.469522999999999
#
# number of rings (size 3 to 8) (size 9 to 14) (size 15 to 20)
#    0.000    0.933    5.333    2.400    0.000    6.933 
#    0.000    1.000    0.000    0.800    0.000    0.000 
#    0.000    0.000    0.000    0.000    0.000    0.000 
#
# Total GULP energy -744038.165462 kJ/mol
# GULP energy per Si atom -12400.636091 kJ/mol
# Density = 2.042293 g / cm^3
# Si number density = 20.469523 Si / 1000 Ang^3
#
#
#
# Elastic Constant Matrix: (Units=GPa)
#
#
# Indices 1 2 3 4 5 6 
#
# 1 101.5129 45.0753 36.2061 0.0000 0.0000 0.0000
# 2 45.0753 104.9615 60.3163 0.0000 0.0000 0.0000
# 3 36.2061 60.3163 120.8000 0.0000 0.0000 0.0000
# 4 0.0000 0.0000 0.0000 23.2145 0.0000 0.0000
# 5 0.0000 0.0000 0.0000 0.0000 24.3912 0.0000
# 6 0.0000 0.0000 0.0000 0.0000 0.0000 36.2916
#
#
#
# Elastic Compliance Matrix: (Units=1/GPa)
#
#
# Indices 1 2 3 4 5 6 
#
# 1 0.012357 -0.004457 -0.001478 0.000000 0.000000 0.000000
# 2 -0.004457 0.014969 -0.006138 0.000000 0.000000 0.000000
# 3 -0.001478 -0.006138 0.011786 0.000000 0.000000 0.000000
# 4 0.000000 0.000000 0.000000 0.043077 0.000000 0.000000
# 5 0.000000 0.000000 0.000000 0.000000 0.040998 0.000000
# 6 0.000000 0.000000 0.000000 0.000000 0.000000 0.027555
#
#
# Mechanical properties :
#
#
# Convention : Reuss Voigt Hill
#
# Bulk Modulus (GPa) = 66.82293 67.82998 67.32645
# Shear Modulus (GPa) = 27.79677 29.15792 28.47734
#
# Velocity S-wave (km/s) = 3.68905 3.77829 3.73394
# Velocity P-wave (km/s) = 7.13172 7.22793 7.17998
#
# Compressibility (1/GPa) = 0.01496492
#
# Stress axis : x y z
#
# Youngs Moduli (GPa) = 80.92309 66.80588 84.84695
#
# Poissons Ratio (x) = 0.29778 0.12542
# Poissons Ratio (y) = 0.36071 0.52079
# Poissons Ratio (z) = 0.11962 0.41006
#
# Static dielectric constant tensor:
#      x y z
#    x 3.992100 0.000000 0.000000 
#    y 0.000000 3.761590 0.000000 
#    z 0.000000 0.000000 3.405000 
# 
# 
# High freq. dielectric constant tensor:
#      x y z
#    x 1.813670 0.000000 0.000000 
#    y 0.000000 1.807410 0.000000 
#    z 0.000000 0.000000 1.771280 
# 
# From -- ./inp_files/49069.got.cif
#   From: 2010.03.12/outbox.cif.g09.slc.cpg/sg66_25_cif.got.tgz:49069.got - 2010.04.10 21:57:39.
