data_PCOD8277805
_publ_section_title
;
Structure prediction by ZEFSAII (Michael W. Deem and Ramdas Pophale) SiO2 
 PCOD8277805
Probable space group: C C C M
;
_chemical_formula_sum "Si O2"
_cell_formula_units_Z 80
_cell_length_a 17.927398
_cell_length_b 8.680222
_cell_length_c 25.357013
_cell_angle_alpha 90.000000
_cell_angle_beta 90.000000
_cell_angle_gamma 90.000000
_cell_volume 3945.901011
_symmetry_space_group_name_H-M "C C C M"
_symmetry_group_IT_number 66
_symmetry_cell_setting 'orthorhombic'
loop_
_space_group_symop_operation_xyz
x,y,z
-x,-y,z
x,-y,1/2-z
-x,y,1/2-z
-x,-y,-z
x,y,-z
-x,y,1/2+z
x,-y,1/2+z
1/2+x,1/2+y,z
1/2-x,1/2-y,z
1/2+x,1/2-y,1/2-z
1/2-x,1/2+y,1/2-z
1/2-x,1/2-y,-z
1/2+x,1/2+y,-z
1/2-x,1/2+y,1/2+z
1/2+x,1/2-y,1/2+z
loop_
_atom_site_type_symbol
_atom_site_label
_atom_site_fract_x
_atom_site_fract_y
_atom_site_fract_z
Si Si1 0.668559 0.292925 0.155032
Si Si2 0.389356 0.113019 0.441027
Si Si3 0.441436 0.784470 0.559096
Si Si4 0.586084 0.831240 0.248982
Si Si5 0.921348 0.915542 0.158567
O O1 0.750000 0.250000 0.177566
O O2 0.662006 0.205626 0.099391
O O3 0.606058 0.242655 0.195851
O O4 0.650649 0.473993 0.151612
O O5 0.358278 0.141503 0.500000
O O6 0.473175 0.169416 0.436476
O O7 0.388706 0.930821 0.427849
O O8 0.423947 0.723901 0.500000
O O9 0.428318 0.650569 0.600256
O O10 0.500000 0.863165 0.250000
O O11 0.603657 0.716487 0.200219
O O12 0.626458 0.000000 0.250000
O O13 0.000000 0.000000 0.174896
#
# Coordination Sequence:
#
# PCOD8277805 Si02
#       5
#    16  16  16  16  16
#     4  12  26  40  59  93 132 166 208 266 335 388
#     4   9  18  37  62  90 128 167 212 264 324 387
#     4   9  18  35  64  96 121 161 219 271 311 375
#     4  11  23  41  66  89 118 165 218 263 318 388
#     4  12  22  38  65  94 126 162 215 272 316 388
#
# _framework density 20.274201999999999
#
# number of rings (size 3 to 8) (size 9 to 14) (size 15 to 20)
#    0.000    1.400    4.000    3.000    0.000    6.400 
#    0.000    3.000    0.000    2.400    0.000    0.000 
#    0.000    0.000    0.000    0.000    0.000    0.000 
#
# Total GULP energy -495676.418532 kJ/mol
# GULP energy per Si atom -12391.910463 kJ/mol
# Density = 2.022806 g / cm^3
# Si number density = 20.274202 Si / 1000 Ang^3
#
#
#
# Elastic Constant Matrix: (Units=GPa)
#
#
# Indices 1 2 3 4 5 6 
#
# 1 60.4576 32.5102 19.8753 0.0000 0.0000 0.0000
# 2 32.5102 125.8983 60.3660 0.0000 0.0000 0.0000
# 3 19.8753 60.3660 121.6329 0.0000 0.0000 0.0000
# 4 0.0000 0.0000 0.0000 55.5976 0.0000 0.0000
# 5 0.0000 0.0000 0.0000 0.0000 12.9952 0.0000
# 6 0.0000 0.0000 0.0000 0.0000 0.0000 21.9996
#
#
#
# Elastic Compliance Matrix: (Units=1/GPa)
#
#
# Indices 1 2 3 4 5 6 
#
# 1 0.019281 -0.004551 -0.000892 0.000000 0.000000 0.000000
# 2 -0.004551 0.011498 -0.004963 0.000000 0.000000 0.000000
# 3 -0.000892 -0.004963 0.010830 0.000000 0.000000 0.000000
# 4 0.000000 0.000000 0.000000 0.017986 0.000000 0.000000
# 5 0.000000 0.000000 0.000000 0.000000 0.076951 0.000000
# 6 0.000000 0.000000 0.000000 0.000000 0.000000 0.045455
#
#
# Mechanical properties :
#
#
# Convention : Reuss Voigt Hill
#
# Bulk Modulus (GPa) = 48.08266 59.27689 53.67978
# Shear Modulus (GPa) = 23.83840 31.13431 27.48635
#
# Velocity S-wave (km/s) = 3.43271 3.92300 3.68602
# Velocity P-wave (km/s) = 6.28323 7.05840 6.68207
#
# Compressibility (1/GPa) = 0.02079752
#
# Stress axis : x y z
#
# Youngs Moduli (GPa) = 51.86432 86.97456 92.33546
#
# Poissons Ratio (x) = 0.39584 0.08235
# Poissons Ratio (y) = 0.23605 0.45822
# Poissons Ratio (z) = 0.04625 0.43161
#
# Static dielectric constant tensor:
#      x y z
#    x 3.287180 0.000000 0.000000 
#    y 0.000000 4.459920 0.000000 
#    z 0.000000 0.000000 4.028740 
# 
# 
# High freq. dielectric constant tensor:
#      x y z
#    x 1.746990 0.000000 0.000000 
#    y 0.000000 1.806200 0.000000 
#    z 0.000000 0.000000 1.805040 
# 
# From -- ./inp_files/65049.got.cif
#   From: 2010.03.12/outbox.cif.g09.slc.cpg/sg66_33_cif.got.tgz:65049.got - 2010.04.10 21:57:39.
