data_PCOD8277190
_publ_section_title
;
Structure prediction by ZEFSAII (Michael W. Deem and Ramdas Pophale) SiO2 
 PCOD8277190
Probable space group: C C C M
;
_chemical_formula_sum "Si O2"
_cell_formula_units_Z 112
_cell_length_a 31.643275
_cell_length_b 11.912571
_cell_length_c 13.490424
_cell_angle_alpha 90.000000
_cell_angle_beta 90.000000
_cell_angle_gamma 90.000000
_cell_volume 5085.252562
_symmetry_space_group_name_H-M "C C C M"
_symmetry_group_IT_number 66
_symmetry_cell_setting 'orthorhombic'
loop_
_space_group_symop_operation_xyz
x,y,z
-x,-y,z
x,-y,1/2-z
-x,y,1/2-z
-x,-y,-z
x,y,-z
-x,y,1/2+z
x,-y,1/2+z
1/2+x,1/2+y,z
1/2-x,1/2-y,z
1/2+x,1/2-y,1/2-z
1/2-x,1/2+y,1/2-z
1/2-x,1/2-y,-z
1/2+x,1/2+y,-z
1/2-x,1/2+y,1/2+z
1/2+x,1/2-y,1/2+z
loop_
_atom_site_type_symbol
_atom_site_label
_atom_site_fract_x
_atom_site_fract_y
_atom_site_fract_z
Si Si1 0.937381 0.423959 0.881955
Si Si2 0.229820 0.354032 0.300380
Si Si3 0.138165 0.045474 0.386070
Si Si4 0.635559 0.215019 0.217188
Si Si5 0.974139 0.656997 0.116270
Si Si6 0.405938 0.674603 0.614565
Si Si7 0.229305 0.941397 0.386738
O O1 0.896172 0.372157 0.832665
O O2 0.944514 0.553312 0.846116
O O3 0.977981 0.351259 0.841425
O O4 0.932032 0.415294 0.000000
O O5 0.250000 0.250000 0.360184
O O6 0.180412 0.343461 0.285434
O O7 0.236720 0.460126 0.370162
O O8 0.256816 0.352238 0.196429
O O9 0.134463 0.075688 0.500000
O O10 0.132578 0.162564 0.332084
O O11 0.101530 0.955675 0.353722
O O12 0.182592 0.986026 0.361582
O O13 0.625453 0.238602 0.331731
O O14 0.953448 0.779591 0.138594
O O15 0.978889 0.637021 0.000000
O O16 0.394459 0.687432 0.500000
O O17 0.232386 0.895817 0.500000
#
# Coordination Sequence:
#
# PCOD8277190 Si02
#       7
#    16  16  16  16  16  16  16
#     4   9  19  37  63  93 125 163 201 251 314 371
#     4  11  23  39  60  87 122 157 204 256 307 369
#     4  10  21  40  64  87 115 157 207 257 314 371
#     4  12  23  36  61  92 122 156 205 263 307 364
#     4   8  17  38  62  87 126 165 201 247 307 376
#     4  10  22  38  60  87 118 161 206 248 304 370
#     4  10  23  41  61  84 118 164 206 251 317 379
#
# _framework density 22.024471999999999
#
# number of rings (size 3 to 8) (size 9 to 14) (size 15 to 20)
#    0.000    2.000    1.429    2.571    2.000    5.714 
#    0.000    3.571    0.000    5.143    0.000    0.000 
#    0.000    0.000    0.000    0.000    0.000    0.000 
#
# Total GULP energy -693888.529291 kJ/mol
# GULP energy per Si atom -12390.866594 kJ/mol
# Density = 2.197434 g / cm^3
# Si number density = 22.024472 Si / 1000 Ang^3
#
#
#
# Elastic Constant Matrix: (Units=GPa)
#
#
# Indices 1 2 3 4 5 6 
#
# 1 116.6180 43.0248 8.3413 0.0000 0.0000 0.0000
# 2 43.0248 92.6067 6.8518 0.0000 0.0000 0.0000
# 3 8.3413 6.8518 40.3664 0.0000 0.0000 0.0000
# 4 0.0000 0.0000 0.0000 15.0432 0.0000 0.0000
# 5 0.0000 0.0000 0.0000 0.0000 30.0408 0.0000
# 6 0.0000 0.0000 0.0000 0.0000 0.0000 43.5015
#
#
#
# Elastic Compliance Matrix: (Units=1/GPa)
#
#
# Indices 1 2 3 4 5 6 
#
# 1 0.010421 -0.004742 -0.001348 0.000000 0.000000 0.000000
# 2 -0.004742 0.013093 -0.001243 0.000000 0.000000 0.000000
# 3 -0.001348 -0.001243 0.025263 0.000000 0.000000 0.000000
# 4 0.000000 0.000000 0.000000 0.066475 0.000000 0.000000
# 5 0.000000 0.000000 0.000000 0.000000 0.033288 0.000000
# 6 0.000000 0.000000 0.000000 0.000000 0.000000 0.022988
#
#
# Mechanical properties :
#
#
# Convention : Reuss Voigt Hill
#
# Bulk Modulus (GPa) = 29.31600 40.66967 34.99284
# Shear Modulus (GPa) = 25.30828 30.47532 27.89180
#
# Velocity S-wave (km/s) = 3.39351 3.72385 3.56251
# Velocity P-wave (km/s) = 5.35669 6.08237 5.73102
#
# Compressibility (1/GPa) = 0.03411106
#
# Stress axis : x y z
#
# Youngs Moduli (GPa) = 95.96139 76.37507 39.58417
#
# Poissons Ratio (x) = 0.36215 0.05338
# Poissons Ratio (y) = 0.45502 0.04919
# Poissons Ratio (z) = 0.12940 0.09491
#
# Static dielectric constant tensor:
#      x y z
#    x 4.027620 0.000000 0.000000 
#    y 0.000000 4.078620 0.000000 
#    z 0.000000 0.000000 4.213630 
# 
# 
# High freq. dielectric constant tensor:
#      x y z
#    x 1.856730 0.000000 0.000000 
#    y 0.000000 1.864290 0.000000 
#    z 0.000000 0.000000 1.879190 
# 
# From -- ./inp_files/33797.got.cif
#   From: 2010.03.12/outbox.cif.g09.slc.cpg/sg66_17_cif.got.tgz:33797.got - 2010.04.10 21:57:39.
