data_PCOD8277906
_publ_section_title
;
Structure prediction by ZEFSAII (Michael W. Deem and Ramdas Pophale) SiO2 
 PCOD8277906
Probable space group: C C C M
;
_chemical_formula_sum "Si O2"
_cell_formula_units_Z 64
_cell_length_a 9.083185
_cell_length_b 11.926303
_cell_length_c 23.603078
_cell_angle_alpha 90.000000
_cell_angle_beta 90.000000
_cell_angle_gamma 90.000000
_cell_volume 2556.893506
_symmetry_space_group_name_H-M "C C C M"
_symmetry_group_IT_number 66
_symmetry_cell_setting 'orthorhombic'
loop_
_space_group_symop_operation_xyz
x,y,z
-x,-y,z
x,-y,1/2-z
-x,y,1/2-z
-x,-y,-z
x,y,-z
-x,y,1/2+z
x,-y,1/2+z
1/2+x,1/2+y,z
1/2-x,1/2-y,z
1/2+x,1/2-y,1/2-z
1/2-x,1/2+y,1/2-z
1/2-x,1/2-y,-z
1/2+x,1/2+y,-z
1/2-x,1/2+y,1/2+z
1/2+x,1/2-y,1/2+z
loop_
_atom_site_type_symbol
_atom_site_label
_atom_site_fract_x
_atom_site_fract_y
_atom_site_fract_z
Si Si1 0.921778 0.229882 0.500000
Si Si2 0.835170 0.485669 0.110750
Si Si3 0.067438 0.121383 0.881535
Si Si4 0.901342 0.297597 0.801546
Si Si5 0.316529 0.871404 0.000000
O O1 0.750000 0.250000 0.500000
O O2 0.969803 0.161760 0.555519
O O3 0.005196 0.350660 0.500000
O O4 0.746099 0.600906 0.126324
O O5 0.842524 0.402459 0.163204
O O6 0.000000 0.500000 0.089730
O O7 0.754591 0.433451 0.055803
O O8 0.998616 0.209643 0.837634
O O9 0.000000 0.000000 0.868744
O O10 0.750000 0.250000 0.776243
O O11 0.000000 0.341839 0.750000
O O12 0.250000 0.750000 0.000000
#
# Coordination Sequence:
#
# PCOD8277906 Si02
#       5
#     8  16  16  16   8
#     4  12  24  40  76 111 151 197 235 303 379 441
#     4  12  26  46  75 113 150 194 246 307 379 452
#     4  12  25  48  76 109 149 195 248 301 377 454
#     4  12  29  53  77 105 148 198 255 321 380 448
#     4  12  22  44  76 105 156 194 236 303 378 450
#
# _framework density 25.030373000000001
#
# number of rings (size 3 to 8) (size 9 to 14) (size 15 to 20)
#    0.000    0.000    5.000    5.250    3.500    1.000 
#    0.000    0.000    0.000    0.000    0.000    0.000 
#    0.000    0.000    0.000    0.000    0.000    0.000 
#
# Total GULP energy -396629.780812 kJ/mol
# GULP energy per Si atom -12394.680650 kJ/mol
# Density = 2.497340 g / cm^3
# Si number density = 25.030373 Si / 1000 Ang^3
#
#
#
# Elastic Constant Matrix: (Units=GPa)
#
#
# Indices 1 2 3 4 5 6 
#
# 1 135.7247 13.2045 28.8649 0.0000 0.0000 0.0000
# 2 13.2045 52.9014 16.3166 0.0000 0.0000 0.0000
# 3 28.8649 16.3166 126.8355 0.0000 0.0000 0.0000
# 4 0.0000 0.0000 0.0000 153.1858 0.0000 0.0000
# 5 0.0000 0.0000 0.0000 0.0000 22.9632 0.0000
# 6 0.0000 0.0000 0.0000 0.0000 0.0000 59.7180
#
#
#
# Elastic Compliance Matrix: (Units=1/GPa)
#
#
# Indices 1 2 3 4 5 6 
#
# 1 0.007850 -0.001467 -0.001598 0.000000 0.000000 0.000000
# 2 -0.001467 0.019958 -0.002234 0.000000 0.000000 0.000000
# 3 -0.001598 -0.002234 0.008535 0.000000 0.000000 0.000000
# 4 0.000000 0.000000 0.000000 0.006528 0.000000 0.000000
# 5 0.000000 0.000000 0.000000 0.000000 0.043548 0.000000
# 6 0.000000 0.000000 0.000000 0.000000 0.000000 0.016745
#
#
# Mechanical properties :
#
#
# Convention : Reuss Voigt Hill
#
# Bulk Modulus (GPa) = 38.83918 48.02597 43.43257
# Shear Modulus (GPa) = 40.86841 64.31177 52.59009
#
# Velocity S-wave (km/s) = 4.04512 5.07437 4.58869
# Velocity P-wave (km/s) = 6.11292 7.31854 6.74273
#
# Compressibility (1/GPa) = 0.02574720
#
# Stress axis : x y z
#
# Youngs Moduli (GPa) = 127.38242 50.10493 117.16148
#
# Poissons Ratio (x) = 0.07349 0.18721
# Poissons Ratio (y) = 0.18683 0.26170
# Poissons Ratio (z) = 0.20354 0.11192
#
# Static dielectric constant tensor:
#      x y z
#    x 9.438330 0.000000 0.000000 
#    y 0.000000 5.534830 0.000000 
#    z 0.000000 0.000000 4.411840 
# 
# 
# High freq. dielectric constant tensor:
#      x y z
#    x 2.030690 0.000000 0.000000 
#    y 0.000000 1.996100 0.000000 
#    z 0.000000 0.000000 1.989140 
# 
# From -- ./inp_files/55009.got.cif
#   From: 2010.03.12/outbox.cif.g09.slc.cpg/sg66_28_cif.got.tgz:55009.got - 2010.04.10 21:57:39.
