data_PCOD8277582
_publ_section_title
;
Structure prediction by ZEFSAII (Michael W. Deem and Ramdas Pophale) SiO2 
 PCOD8277582
Probable space group: C C C M
;
_chemical_formula_sum "Si O2"
_cell_formula_units_Z 96
_cell_length_a 16.242068
_cell_length_b 11.943278
_cell_length_c 26.755089
_cell_angle_alpha 90.000000
_cell_angle_beta 90.000000
_cell_angle_gamma 90.000000
_cell_volume 5190.046701
_symmetry_space_group_name_H-M "C C C M"
_symmetry_group_IT_number 66
_symmetry_cell_setting 'orthorhombic'
loop_
_space_group_symop_operation_xyz
x,y,z
-x,-y,z
x,-y,1/2-z
-x,y,1/2-z
-x,-y,-z
x,y,-z
-x,y,1/2+z
x,-y,1/2+z
1/2+x,1/2+y,z
1/2-x,1/2-y,z
1/2+x,1/2-y,1/2-z
1/2-x,1/2+y,1/2-z
1/2-x,1/2-y,-z
1/2+x,1/2+y,-z
1/2-x,1/2+y,1/2+z
1/2+x,1/2-y,1/2+z
loop_
_atom_site_type_symbol
_atom_site_label
_atom_site_fract_x
_atom_site_fract_y
_atom_site_fract_z
Si Si1 0.737773 0.573868 0.941805
Si Si2 0.408853 0.861883 0.305677
Si Si3 0.901141 0.624823 0.694546
Si Si4 0.369628 0.239028 0.904326
Si Si5 0.018601 0.621708 0.943116
Si Si6 0.807148 0.649741 0.597429
O O1 0.657869 0.634406 0.917002
O O2 0.816135 0.655233 0.938297
O O3 0.754724 0.463323 0.909407
O O4 0.721289 0.545399 0.000000
O O5 0.505152 0.839746 0.316696
O O6 0.380752 0.827246 0.249725
O O7 0.356136 0.789645 0.345491
O O8 0.390712 0.992437 0.310352
O O9 0.837985 0.674260 0.653993
O O10 0.465292 0.218910 0.916958
O O11 0.114504 0.648060 0.938920
O O12 0.000000 0.500000 0.917736
O O13 0.991028 0.617153 0.000000
O O14 0.750000 0.750000 0.579712
#
# Coordination Sequence:
#
# PCOD8277582 Si02
#       6
#    16  16  16  16  16  16
#     4  11  23  37  55  85 123 153 189 247 303 338
#     4   9  16  31  62  85 111 144 189 246 288 332
#     4   9  17  33  54  89 114 144 190 237 289 342
#     4  11  19  35  60  87 113 144 193 248 295 335
#     4  11  20  34  60  85 107 146 202 243 280 343
#     4  12  24  39  56  84 124 159 188 239 294 358
#
# _framework density 18.496943000000002
#
# number of rings (size 3 to 8) (size 9 to 14) (size 15 to 20)
#    0.000    1.500    5.000    3.500    0.000    1.333 
#    3.000    0.833    0.000    2.000    0.000    2.333 
#    0.000    0.000    0.000    0.000    0.000    0.000 
#
# Total GULP energy -595032.946260 kJ/mol
# GULP energy per Si atom -12396.519714 kJ/mol
# Density = 1.845484 g / cm^3
# Si number density = 18.496943 Si / 1000 Ang^3
#
#
#
# Elastic Constant Matrix: (Units=GPa)
#
#
# Indices 1 2 3 4 5 6 
#
# 1 80.7329 50.0100 29.0959 0.0000 0.0000 0.0000
# 2 50.0100 78.4010 26.4454 0.0000 0.0000 0.0000
# 3 29.0959 26.4454 119.8153 0.0000 0.0000 0.0000
# 4 0.0000 0.0000 0.0000 11.8825 0.0000 0.0000
# 5 0.0000 0.0000 0.0000 0.0000 21.7244 0.0000
# 6 0.0000 0.0000 0.0000 0.0000 0.0000 29.9768
#
#
#
# Elastic Compliance Matrix: (Units=1/GPa)
#
#
# Indices 1 2 3 4 5 6 
#
# 1 0.021059 -0.012650 -0.002322 0.000000 0.000000 0.000000
# 2 -0.012650 0.021380 -0.001647 0.000000 0.000000 0.000000
# 3 -0.002322 -0.001647 0.009274 0.000000 0.000000 0.000000
# 4 0.000000 0.000000 0.000000 0.084157 0.000000 0.000000
# 5 0.000000 0.000000 0.000000 0.000000 0.046031 0.000000
# 6 0.000000 0.000000 0.000000 0.000000 0.000000 0.033359
#
#
# Mechanical properties :
#
#
# Convention : Reuss Voigt Hill
#
# Bulk Modulus (GPa) = 54.12812 54.45021 54.28916
# Shear Modulus (GPa) = 19.63431 24.27661 21.95546
#
# Velocity S-wave (km/s) = 3.26159 3.62673 3.44899
# Velocity P-wave (km/s) = 6.59627 6.85849 6.72865
#
# Compressibility (1/GPa) = 0.01847469
#
# Stress axis : x y z
#
# Youngs Moduli (GPa) = 47.48462 46.77352 107.83352
#
# Poissons Ratio (x) = 0.59169 0.25039
# Poissons Ratio (y) = 0.60068 0.17759
# Poissons Ratio (z) = 0.11026 0.07703
#
# Static dielectric constant tensor:
#      x y z
#    x 3.290880 0.000000 0.000000 
#    y 0.000000 3.094240 0.000000 
#    z 0.000000 0.000000 3.698560 
# 
# 
# High freq. dielectric constant tensor:
#      x y z
#    x 1.701900 0.000000 0.000000 
#    y 0.000000 1.671420 0.000000 
#    z 0.000000 0.000000 1.737640 
# 
# From -- ./inp_files/65214.got.cif
#   From: 2010.03.12/outbox.cif.g09.slc.cpg/sg66_33_cif.got.tgz:65214.got - 2010.04.10 21:57:39.
