data_PCOD8277385
_publ_section_title
;
Structure prediction by ZEFSAII (Michael W. Deem and Ramdas Pophale) SiO2 
 PCOD8277385
Probable space group: C C C M
;
_chemical_formula_sum "Si O2"
_cell_formula_units_Z 64
_cell_length_a 9.547698
_cell_length_b 10.810204
_cell_length_c 25.998029
_cell_angle_alpha 90.000000
_cell_angle_beta 90.000000
_cell_angle_gamma 90.000000
_cell_volume 2683.323209
_symmetry_space_group_name_H-M "C C C M"
_symmetry_group_IT_number 66
_symmetry_cell_setting 'orthorhombic'
loop_
_space_group_symop_operation_xyz
x,y,z
-x,-y,z
x,-y,1/2-z
-x,y,1/2-z
-x,-y,-z
x,y,-z
-x,y,1/2+z
x,-y,1/2+z
1/2+x,1/2+y,z
1/2-x,1/2-y,z
1/2+x,1/2-y,1/2-z
1/2-x,1/2+y,1/2-z
1/2-x,1/2-y,-z
1/2+x,1/2+y,-z
1/2-x,1/2+y,1/2+z
1/2+x,1/2-y,1/2+z
loop_
_atom_site_type_symbol
_atom_site_label
_atom_site_fract_x
_atom_site_fract_y
_atom_site_fract_z
Si Si1 0.875540 0.156450 0.555843
Si Si2 0.360356 0.348696 0.282177
Si Si3 0.973325 0.689690 0.372404
Si Si4 0.273751 0.974800 0.357063
O O1 0.906764 0.093920 0.500000
O O2 0.750000 0.250000 0.549066
O O3 0.006389 0.239968 0.573654
O O4 0.845779 0.056645 0.601035
O O5 0.500000 0.375249 0.250000
O O6 0.250000 0.250000 0.255949
O O7 0.407506 0.287690 0.334623
O O8 0.289656 0.480898 0.301046
O O9 0.865320 0.581177 0.383146
O O10 0.121610 0.641356 0.348012
#
# Coordination Sequence:
#
# PCOD8277385 Si02
#       4
#    16  16  16  16
#     4   9  18  34  59  89 119 156 201 244 291 354
#     4  10  22  42  64  89 120 158 205 253 304 363
#     4   9  19  38  59  84 120 155 194 247 298 354
#     4   9  19  38  61  85 118 158 196 243 303 355
#
# _framework density 23.851022
#
# number of rings (size 3 to 8) (size 9 to 14) (size 15 to 20)
#    0.000    2.750    0.000    0.000    0.000    5.000 
#    0.000   30.000    0.000    4.500    0.000    0.000 
#    0.000    0.000    0.000    0.750    0.000    0.000 
#
# Total GULP energy -396463.538391 kJ/mol
# GULP energy per Si atom -12389.485575 kJ/mol
# Density = 2.379674 g / cm^3
# Si number density = 23.851022 Si / 1000 Ang^3
#
#
#
# Elastic Constant Matrix: (Units=GPa)
#
#
# Indices 1 2 3 4 5 6 
#
# 1 109.9657 25.4746 39.5548 0.0000 0.0000 0.0000
# 2 25.4746 44.0378 0.5478 0.0000 0.0000 0.0000
# 3 39.5548 0.5478 80.0831 0.0000 0.0000 0.0000
# 4 0.0000 0.0000 0.0000 23.2840 0.0000 0.0000
# 5 0.0000 0.0000 0.0000 0.0000 -54.1010 0.0000
# 6 0.0000 0.0000 0.0000 0.0000 0.0000 39.6903
#
#
#
# Elastic Compliance Matrix: (Units=1/GPa)
#
#
# Indices 1 2 3 4 5 6 
#
# 1 0.013157 -0.007531 -0.006447 0.000000 0.000000 0.000000
# 2 -0.007531 0.027020 0.003535 0.000000 0.000000 0.000000
# 3 -0.006447 0.003535 0.015647 0.000000 0.000000 0.000000
# 4 0.000000 0.000000 0.000000 0.042948 0.000000 0.000000
# 5 0.000000 0.000000 0.000000 0.000000 -0.018484 0.000000
# 6 0.000000 0.000000 0.000000 0.000000 0.000000 0.025195
#
#
# Mechanical properties :
#
#
# Convention : Reuss Voigt Hill
#
# Bulk Modulus (GPa) = 28.62187 40.58235 34.60211
# Shear Modulus (GPa) = 36.22741 13.00861 24.61801
#
# Velocity S-wave (km/s) = 3.90154 2.33794 3.21621
# Velocity P-wave (km/s) = 5.68527 4.93354 5.32269
#
# Compressibility (1/GPa) = 0.03493832
#
# Stress axis : x y z
#
# Youngs Moduli (GPa) = 76.00245 37.00922 63.90885
#
# Poissons Ratio (x) = 0.27872 0.41204
# Poissons Ratio (y) = 0.57238 -0.22591
# Poissons Ratio (z) = 0.49001 -0.13082
#
# Static dielectric constant tensor:
#      x y z
#    x 4.371700 0.000000 0.000000 
#    y 0.000000 4.792740 0.000000 
#    z 0.000000 0.000000 4.359630 
# 
# 
# High freq. dielectric constant tensor:
#      x y z
#    x 1.953560 0.000000 0.000000 
#    y 0.000000 1.954590 0.000000 
#    z 0.000000 0.000000 1.920800 
# 
# From -- ./inp_files/56314.got.cif
#   From: 2010.03.12/outbox.cif.g09.slc.cpg/sg66_29_cif.got.tgz:56314.got - 2010.04.10 21:57:39.
