data_PCOD8277105
_publ_section_title
;
Structure prediction by ZEFSAII (Michael W. Deem and Ramdas Pophale) SiO2 
 PCOD8277105
Probable space group: C C C M
;
_chemical_formula_sum "Si O2"
_cell_formula_units_Z 44
_cell_length_a 9.882036
_cell_length_b 21.500510
_cell_length_c 9.749410
_cell_angle_alpha 90.000000
_cell_angle_beta 90.000000
_cell_angle_gamma 90.000000
_cell_volume 2071.445578
_symmetry_space_group_name_H-M "C C C M"
_symmetry_group_IT_number 66
_symmetry_cell_setting 'orthorhombic'
loop_
_space_group_symop_operation_xyz
x,y,z
-x,-y,z
x,-y,1/2-z
-x,y,1/2-z
-x,-y,-z
x,y,-z
-x,y,1/2+z
x,-y,1/2+z
1/2+x,1/2+y,z
1/2-x,1/2-y,z
1/2+x,1/2-y,1/2-z
1/2-x,1/2+y,1/2-z
1/2-x,1/2-y,-z
1/2+x,1/2+y,-z
1/2-x,1/2+y,1/2+z
1/2+x,1/2-y,1/2+z
loop_
_atom_site_type_symbol
_atom_site_label
_atom_site_fract_x
_atom_site_fract_y
_atom_site_fract_z
Si Si1 0.703525 0.878858 0.500000
Si Si2 0.602739 0.102199 0.500000
Si Si3 0.174763 0.989797 0.500000
Si Si4 0.000000 0.000000 0.250000
Si Si5 0.653678 0.195027 0.735929
O O1 0.556151 0.910387 0.500000
O O2 0.720412 0.832751 0.627478
O O3 0.814543 0.934398 0.500000
O O4 0.673942 0.035533 0.500000
O O5 0.652463 0.138788 0.631511
O O6 0.097962 0.964802 0.361035
O O7 0.500000 0.220817 0.750000
O O8 0.750000 0.250000 0.682446
#
# Coordination Sequence:
#
# PCOD8277105 Si02
#       5
#     8   8   8   4  16
#     4  10  21  38  65  87 116 152 200 252 290 355
#     4  10  21  38  65  87 116 152 200 252 290 355
#     4  11  21  42  60  88 123 155 198 236 318 341
#     4  10  24  38  54  82 136 154 184 248 272 384
#     4  10  21  39  58  89 121 155 203 247 294 352
#
# _framework density 21.241205000000001
#
# number of rings (size 3 to 8) (size 9 to 14) (size 15 to 20)
#    0.000    1.818    0.000    3.818    0.000    0.000 
#   19.636    7.273    0.000    0.000    0.000    0.000 
#    0.000    0.000    0.000    0.000    0.000    0.000 
#
# Total GULP energy -272558.395414 kJ/mol
# GULP energy per Si atom -12389.017973 kJ/mol
# Density = 2.119286 g / cm^3
# Si number density = 21.241205 Si / 1000 Ang^3
#
#
#
# Elastic Constant Matrix: (Units=GPa)
#
#
# Indices 1 2 3 4 5 6 
#
# 1 83.9683 32.5578 6.7525 0.0000 0.0000 0.0000
# 2 32.5578 61.3657 -0.2243 0.0000 0.0000 0.0000
# 3 6.7525 -0.2243 131.9834 0.0000 0.0000 0.0000
# 4 0.0000 0.0000 0.0000 141.7668 0.0000 0.0000
# 5 0.0000 0.0000 0.0000 0.0000 35.1103 0.0000
# 6 0.0000 0.0000 0.0000 0.0000 0.0000 33.1051
#
#
#
# Elastic Compliance Matrix: (Units=1/GPa)
#
#
# Indices 1 2 3 4 5 6 
#
# 1 0.015075 -0.008001 -0.000785 0.000000 0.000000 0.000000
# 2 -0.008001 0.020542 0.000444 0.000000 0.000000 0.000000
# 3 -0.000785 0.000444 0.007618 0.000000 0.000000 0.000000
# 4 0.000000 0.000000 0.000000 0.007054 0.000000 0.000000
# 5 0.000000 0.000000 0.000000 0.000000 0.028482 0.000000
# 6 0.000000 0.000000 0.000000 0.000000 0.000000 0.030207
#
#
# Mechanical properties :
#
#
# Convention : Reuss Voigt Hill
#
# Bulk Modulus (GPa) = 37.66235 39.49882 38.58059
# Shear Modulus (GPa) = 37.17197 57.87853 47.52525
#
# Velocity S-wave (km/s) = 4.18783 5.22565 4.73526
# Velocity P-wave (km/s) = 6.41508 7.41927 6.93537
#
# Compressibility (1/GPa) = 0.02655171
#
# Stress axis : x y z
#
# Youngs Moduli (GPa) = 66.33689 48.68030 131.27462
#
# Poissons Ratio (x) = 0.38948 0.10303
# Poissons Ratio (y) = 0.53074 -0.05832
# Poissons Ratio (z) = 0.05206 -0.02163
#
# Static dielectric constant tensor:
#      x y z
#    x 3.943430 0.000000 0.000000 
#    y 0.000000 3.313780 0.000000 
#    z 0.000000 0.000000 4.305410 
# 
# 
# High freq. dielectric constant tensor:
#      x y z
#    x 1.839690 0.000000 0.000000 
#    y 0.000000 1.799850 0.000000 
#    z 0.000000 0.000000 1.852380 
# 
# From -- ./inp_files/3449.got.cif
#   From: 2010.03.12/outbox.cif.g09.slc.cpg/sg66_2_cif.got.tgz:3449.got - 2010.04.10 21:57:39.
