data_PCOD8277180
_publ_section_title
;
Structure prediction by ZEFSAII (Michael W. Deem and Ramdas Pophale) SiO2 
 PCOD8277180
Probable space group: C C C M
;
_chemical_formula_sum "Si O2"
_cell_formula_units_Z 64
_cell_length_a 22.436996
_cell_length_b 13.788167
_cell_length_c 10.253523
_cell_angle_alpha 90.000000
_cell_angle_beta 90.000000
_cell_angle_gamma 90.000000
_cell_volume 3172.081633
_symmetry_space_group_name_H-M "C C C M"
_symmetry_group_IT_number 66
_symmetry_cell_setting 'orthorhombic'
loop_
_space_group_symop_operation_xyz
x,y,z
-x,-y,z
x,-y,1/2-z
-x,y,1/2-z
-x,-y,-z
x,y,-z
-x,y,1/2+z
x,-y,1/2+z
1/2+x,1/2+y,z
1/2-x,1/2-y,z
1/2+x,1/2-y,1/2-z
1/2-x,1/2+y,1/2-z
1/2-x,1/2-y,-z
1/2+x,1/2+y,-z
1/2-x,1/2+y,1/2+z
1/2+x,1/2-y,1/2+z
loop_
_atom_site_type_symbol
_atom_site_label
_atom_site_fract_x
_atom_site_fract_y
_atom_site_fract_z
Si Si1 0.500000 0.228600 0.250000
Si Si2 0.628640 0.700672 0.261562
Si Si3 0.231113 0.484841 0.000000
Si Si4 0.016181 0.388963 0.500000
Si Si5 0.817797 0.283452 0.500000
Si Si6 0.349144 0.170034 0.500000
Si Si7 0.311061 0.500000 0.250000
O O1 0.442882 0.296167 0.275164
O O2 0.512704 0.160621 0.373788
O O3 0.648288 0.742200 0.123859
O O4 0.660100 0.764840 0.372397
O O5 0.646889 0.590075 0.284196
O O6 0.201614 0.589604 0.000000
O O7 0.270877 0.471202 0.872284
O O8 0.180753 0.400793 0.000000
O O9 0.087183 0.381225 0.500000
O O10 0.000000 0.500000 0.500000
O O11 0.750000 0.250000 0.500000
#
# Coordination Sequence:
#
# PCOD8277180 Si02
#       7
#     8  16   8   8   8   8   8
#     4  10  23  41  64  90 126 162 208 262 310 364
#     4  11  24  43  64  93 127 166 212 262 313 371
#     4  12  25  39  63  94 123 168 206 252 322 378
#     4  10  21  40  61  91 122 162 203 252 308 376
#     4  12  23  43  65  92 129 168 208 264 309 376
#     4  10  25  40  63  92 128 163 203 257 317 374
#     4  12  24  41  64  90 123 166 214 254 314 372
#
# _framework density 20.176026
#
# number of rings (size 3 to 8) (size 9 to 14) (size 15 to 20)
#    0.000    1.000    2.500    3.375    3.500    1.500 
#    0.000    0.000    0.000    7.500    0.000    0.000 
#    0.000    0.000    0.000    0.000    0.000    0.000 
#
# Total GULP energy -397033.619349 kJ/mol
# GULP energy per Si atom -12407.300605 kJ/mol
# Density = 2.013010 g / cm^3
# Si number density = 20.176026 Si / 1000 Ang^3
#
#
#
# Elastic Constant Matrix: (Units=GPa)
#
#
# Indices 1 2 3 4 5 6 
#
# 1 60.3843 32.8616 0.6935 0.0000 0.0000 0.0000
# 2 32.8616 142.4773 21.6192 0.0000 0.0000 0.0000
# 3 0.6935 21.6192 126.0228 0.0000 0.0000 0.0000
# 4 0.0000 0.0000 0.0000 16.7615 0.0000 0.0000
# 5 0.0000 0.0000 0.0000 0.0000 30.2809 0.0000
# 6 0.0000 0.0000 0.0000 0.0000 0.0000 38.1993
#
#
#
# Elastic Compliance Matrix: (Units=1/GPa)
#
#
# Indices 1 2 3 4 5 6 
#
# 1 0.018992 -0.004481 0.000664 0.000000 0.000000 0.000000
# 2 -0.004481 0.008264 -0.001393 0.000000 0.000000 0.000000
# 3 0.000664 -0.001393 0.008170 0.000000 0.000000 0.000000
# 4 0.000000 0.000000 0.000000 0.059661 0.000000 0.000000
# 5 0.000000 0.000000 0.000000 0.000000 0.033024 0.000000
# 6 0.000000 0.000000 0.000000 0.000000 0.000000 0.026179
#
#
# Mechanical properties :
#
#
# Convention : Reuss Voigt Hill
#
# Bulk Modulus (GPa) = 39.99055 48.80366 44.39711
# Shear Modulus (GPa) = 28.89441 35.29566 32.09504
#
# Velocity S-wave (km/s) = 3.78844 4.18710 3.99275
# Velocity P-wave (km/s) = 6.24501 6.90052 6.58094
#
# Compressibility (1/GPa) = 0.02500591
#
# Stress axis : x y z
#
# Youngs Moduli (GPa) = 52.65478 121.01303 122.39334
#
# Poissons Ratio (x) = 0.54227 -0.08130
# Poissons Ratio (y) = 0.23595 0.17049
# Poissons Ratio (z) = -0.03497 0.16857
#
# Static dielectric constant tensor:
#      x y z
#    x 3.693110 0.000000 0.000000 
#    y 0.000000 3.729230 0.000000 
#    z 0.000000 0.000000 3.817690 
# 
# 
# High freq. dielectric constant tensor:
#      x y z
#    x 1.789770 0.000000 0.000000 
#    y 0.000000 1.793710 0.000000 
#    z 0.000000 0.000000 1.809390 
# 
# From -- ./inp_files/5162.got.cif
#   From: 2010.03.12/outbox.cif.g09.slc.cpg/sg66_3_cif.got.tgz:5162.got - 2010.04.10 21:57:39.
