data_PCOD8277242
_publ_section_title
;
Structure prediction by ZEFSAII (Michael W. Deem and Ramdas Pophale) SiO2 
 PCOD8277242
Probable space group: C C C M
;
_chemical_formula_sum "Si O2"
_cell_formula_units_Z 104
_cell_length_a 8.958508
_cell_length_b 21.716888
_cell_length_c 26.458131
_cell_angle_alpha 90.000000
_cell_angle_beta 90.000000
_cell_angle_gamma 90.000000
_cell_volume 5147.453592
_symmetry_space_group_name_H-M "C C C M"
_symmetry_group_IT_number 66
_symmetry_cell_setting 'orthorhombic'
loop_
_space_group_symop_operation_xyz
x,y,z
-x,-y,z
x,-y,1/2-z
-x,y,1/2-z
-x,-y,-z
x,y,-z
-x,y,1/2+z
x,-y,1/2+z
1/2+x,1/2+y,z
1/2-x,1/2-y,z
1/2+x,1/2-y,1/2-z
1/2-x,1/2+y,1/2-z
1/2-x,1/2-y,-z
1/2+x,1/2+y,-z
1/2-x,1/2+y,1/2+z
1/2+x,1/2-y,1/2+z
loop_
_atom_site_type_symbol
_atom_site_label
_atom_site_fract_x
_atom_site_fract_y
_atom_site_fract_z
Si Si1 0.175427 0.015377 0.089647
Si Si2 0.250000 0.750000 0.375618
Si Si3 0.328338 0.133504 0.942496
Si Si4 0.165087 0.601630 0.056429
Si Si5 0.754013 0.348018 0.840139
Si Si6 0.829270 0.020413 0.197517
Si Si7 0.472770 0.244744 0.308999
O O1 0.200661 0.083293 0.068404
O O2 0.274528 0.968127 0.057091
O O3 0.234993 0.013254 0.147734
O O4 0.000000 0.000000 0.085793
O O5 0.297231 0.807257 0.409290
O O6 0.383254 0.732924 0.338715
O O7 0.489261 0.103268 0.931007
O O8 0.316960 0.155284 0.000000
O O9 0.251882 0.640329 0.099350
O O10 0.195318 0.628883 0.000000
O O11 0.697992 0.406949 0.808909
O O12 0.648871 0.292782 0.826299
O O13 0.919875 0.324968 0.823520
O O14 0.748436 0.000000 0.250000
O O15 0.000000 0.000000 0.201790
O O16 0.500000 0.249006 0.250000
#
# Coordination Sequence:
#
# PCOD8277242 Si02
#       7
#    16   8  16  16  16  16  16
#     4  10  22  38  64  99 129 165 216 262 316 391
#     4  12  25  42  66  94 128 168 217 270 318 370
#     4  11  24  42  64  91 131 173 214 264 324 384
#     4  10  21  42  65  91 129 172 208 264 330 380
#     4  10  22  44  64  97 132 161 225 259 308 395
#     4   9  20  36  62  97 127 165 200 262 320 368
#     4  11  25  43  67  93 126 178 213 265 314 378
#
# _framework density 20.204166000000001
#
# number of rings (size 3 to 8) (size 9 to 14) (size 15 to 20)
#    0.000    1.692    1.538    2.077    8.615    3.692 
#    0.000    2.308    0.000    0.000    0.000    0.000 
#    0.000    0.000    0.000    0.000    0.000    0.000 
#
# Total GULP energy -644564.074288 kJ/mol
# GULP energy per Si atom -12395.462967 kJ/mol
# Density = 2.015818 g / cm^3
# Si number density = 20.204166 Si / 1000 Ang^3
#
#
#
# Elastic Constant Matrix: (Units=GPa)
#
#
# Indices 1 2 3 4 5 6 
#
# 1 79.8603 43.6736 47.2429 0.0000 0.0000 0.0000
# 2 43.6736 105.0902 59.1172 0.0000 0.0000 0.0000
# 3 47.2429 59.1172 165.5161 0.0000 0.0000 0.0000
# 4 0.0000 0.0000 0.0000 24.4250 0.0000 0.0000
# 5 0.0000 0.0000 0.0000 0.0000 29.9573 0.0000
# 6 0.0000 0.0000 0.0000 0.0000 0.0000 31.9926
#
#
#
# Elastic Compliance Matrix: (Units=1/GPa)
#
#
# Indices 1 2 3 4 5 6 
#
# 1 0.017294 -0.005519 -0.002965 0.000000 0.000000 0.000000
# 2 -0.005519 0.013670 -0.003307 0.000000 0.000000 0.000000
# 3 -0.002965 -0.003307 0.008069 0.000000 0.000000 0.000000
# 4 0.000000 0.000000 0.000000 0.040942 0.000000 0.000000
# 5 0.000000 0.000000 0.000000 0.000000 0.033381 0.000000
# 6 0.000000 0.000000 0.000000 0.000000 0.000000 0.031257
#
#
# Mechanical properties :
#
#
# Convention : Reuss Voigt Hill
#
# Bulk Modulus (GPa) = 64.72261 72.28154 68.50208
# Shear Modulus (GPa) = 28.84416 30.63719 29.74068
#
# Velocity S-wave (km/s) = 3.78250 3.89830 3.84084
# Velocity P-wave (km/s) = 7.15404 7.49103 7.32447
#
# Compressibility (1/GPa) = 0.01545055
#
# Stress axis : x y z
#
# Youngs Moduli (GPa) = 57.82299 73.15466 123.92886
#
# Poissons Ratio (x) = 0.40376 0.36744
# Poissons Ratio (y) = 0.31914 0.40984
# Poissons Ratio (z) = 0.17144 0.24192
#
# Static dielectric constant tensor:
#      x y z
#    x 3.762870 0.000000 0.000000 
#    y 0.000000 3.719170 0.000000 
#    z 0.000000 0.000000 4.114960 
# 
# 
# High freq. dielectric constant tensor:
#      x y z
#    x 1.783230 0.000000 0.000000 
#    y 0.000000 1.782740 0.000000 
#    z 0.000000 0.000000 1.810400 
# 
# From -- ./inp_files/62701.got.cif
#   From: 2010.03.12/outbox.cif.g09.slc.cpg/sg66_32_cif.got.tgz:62701.got - 2010.04.10 21:57:39.
