data_PCOD8277045
_publ_section_title
;
Structure prediction by ZEFSAII (Michael W. Deem and Ramdas Pophale) SiO2 
 PCOD8277045
Probable space group: C C C M
;
_chemical_formula_sum "Si O2"
_cell_formula_units_Z 120
_cell_length_a 10.856906
_cell_length_b 28.992458
_cell_length_c 20.075104
_cell_angle_alpha 90.000000
_cell_angle_beta 90.000000
_cell_angle_gamma 90.000000
_cell_volume 6319.008190
_symmetry_space_group_name_H-M "C C C M"
_symmetry_group_IT_number 66
_symmetry_cell_setting 'orthorhombic'
loop_
_space_group_symop_operation_xyz
x,y,z
-x,-y,z
x,-y,1/2-z
-x,y,1/2-z
-x,-y,-z
x,y,-z
-x,y,1/2+z
x,-y,1/2+z
1/2+x,1/2+y,z
1/2-x,1/2-y,z
1/2+x,1/2-y,1/2-z
1/2-x,1/2+y,1/2-z
1/2-x,1/2-y,-z
1/2+x,1/2+y,-z
1/2-x,1/2+y,1/2+z
1/2+x,1/2-y,1/2+z
loop_
_atom_site_type_symbol
_atom_site_label
_atom_site_fract_x
_atom_site_fract_y
_atom_site_fract_z
Si Si1 0.749047 0.599332 0.878440
Si Si2 0.124033 0.623058 0.921644
Si Si3 0.604398 0.181413 0.573265
Si Si4 0.920089 0.830858 0.186278
Si Si5 0.250000 0.250000 0.839260
Si Si6 0.024191 0.951030 0.424355
Si Si7 0.009175 0.445809 0.827501
Si Si8 0.902574 0.140657 0.078280
O O1 0.801785 0.638306 0.927641
O O2 0.668613 0.625089 0.822189
O O3 0.666538 0.563467 0.919582
O O4 0.855097 0.569766 0.845926
O O5 0.257535 0.645256 0.907227
O O6 0.029300 0.663816 0.903016
O O7 0.093869 0.579634 0.873450
O O8 0.111830 0.608267 0.000000
O O9 0.595739 0.202319 0.500000
O O10 0.650041 0.222343 0.618744
O O11 0.835054 0.785830 0.201388
O O12 0.000000 0.841339 0.250000
O O13 0.011850 0.824506 0.121863
O O14 0.984018 0.957669 0.500000
O O15 0.937603 0.910626 0.395918
O O16 0.000000 0.000000 0.386837
O O17 0.000000 0.500000 0.840568
O O18 0.000000 0.432914 0.750000
O O19 0.933326 0.148720 0.000000
#
# Coordination Sequence:
#
# PCOD8277045 Si02
#       8
#    16  16  16  16   8  16  16  16
#     4   9  19  35  52  75 107 145 188 221 275 325
#     4   9  19  36  57  84 114 150 191 228 281 342
#     4   9  17  33  57  82 108 140 178 226 276 337
#     4  10  22  40  59  84 109 145 185 228 279 346
#     4  10  21  38  56  86 109 134 188 228 288 336
#     4   9  17  29  50  80 110 142 181 229 274 319
#     4  10  22  36  52  80 113 152 196 240 280 323
#     4   9  19  36  57  82 115 149 185 227 279 333
#
# _framework density 18.990321000000002
#
# number of rings (size 3 to 8) (size 9 to 14) (size 15 to 20)
#    0.000    2.667    0.000    0.600    3.733    4.533 
#    2.400    1.333    0.000    6.000    0.000    0.000 
#    0.000    0.000    0.000    0.000    0.000    0.000 
#
# Total GULP energy -743528.438760 kJ/mol
# GULP energy per Si atom -12392.140646 kJ/mol
# Density = 1.894710 g / cm^3
# Si number density = 18.990321 Si / 1000 Ang^3
#
#
#
# Elastic Constant Matrix: (Units=GPa)
#
#
# Indices 1 2 3 4 5 6 
#
# 1 118.4081 32.0143 22.2885 0.0000 0.0000 0.0000
# 2 32.0143 69.0908 14.9674 0.0000 0.0000 0.0000
# 3 22.2885 14.9674 62.7245 0.0000 0.0000 0.0000
# 4 0.0000 0.0000 0.0000 10.3063 0.0000 0.0000
# 5 0.0000 0.0000 0.0000 0.0000 28.8496 0.0000
# 6 0.0000 0.0000 0.0000 0.0000 0.0000 23.2818
#
#
#
# Elastic Compliance Matrix: (Units=1/GPa)
#
#
# Indices 1 2 3 4 5 6 
#
# 1 0.010039 -0.004090 -0.002591 0.000000 0.000000 0.000000
# 2 -0.004090 0.016929 -0.002586 0.000000 0.000000 0.000000
# 3 -0.002591 -0.002586 0.017481 0.000000 0.000000 0.000000
# 4 0.000000 0.000000 0.000000 0.097028 0.000000 0.000000
# 5 0.000000 0.000000 0.000000 0.000000 0.034663 0.000000
# 6 0.000000 0.000000 0.000000 0.000000 0.000000 0.042952
#
#
# Mechanical properties :
#
#
# Convention : Reuss Voigt Hill
#
# Bulk Modulus (GPa) = 38.59019 43.19598 40.89309
# Shear Modulus (GPa) = 20.30332 24.55109 22.42720
#
# Velocity S-wave (km/s) = 3.27332 3.59948 3.44027
# Velocity P-wave (km/s) = 5.88653 6.33014 6.11236
#
# Compressibility (1/GPa) = 0.02591332
#
# Stress axis : x y z
#
# Youngs Moduli (GPa) = 99.61094 59.06906 57.20621
#
# Poissons Ratio (x) = 0.24162 0.14823
# Poissons Ratio (y) = 0.40745 0.14795
# Poissons Ratio (z) = 0.25811 0.15277
#
# Static dielectric constant tensor:
#      x y z
#    x 3.666670 0.000000 0.000000 
#    y 0.000000 3.552990 0.000000 
#    z 0.000000 0.000000 3.307300 
# 
# 
# High freq. dielectric constant tensor:
#      x y z
#    x 1.753080 0.000000 0.000000 
#    y 0.000000 1.728970 0.000000 
#    z 0.000000 0.000000 1.714660 
# 
# From -- ./inp_files/49183.got.cif
#   From: 2010.03.12/outbox.cif.g09.slc.cpg/sg66_25_cif.got.tgz:49183.got - 2010.04.10 21:57:39.
