data_PCOD8277118
_publ_section_title
;
Structure prediction by ZEFSAII (Michael W. Deem and Ramdas Pophale) SiO2 
 PCOD8277118
Probable space group: C C C M
;
_chemical_formula_sum "Si O2"
_cell_formula_units_Z 52
_cell_length_a 21.299238
_cell_length_b 7.728500
_cell_length_c 13.688713
_cell_angle_alpha 90.000000
_cell_angle_beta 90.000000
_cell_angle_gamma 90.000000
_cell_volume 2253.314938
_symmetry_space_group_name_H-M "C C C M"
_symmetry_group_IT_number 66
_symmetry_cell_setting 'orthorhombic'
loop_
_space_group_symop_operation_xyz
x,y,z
-x,-y,z
x,-y,1/2-z
-x,y,1/2-z
-x,-y,-z
x,y,-z
-x,y,1/2+z
x,-y,1/2+z
1/2+x,1/2+y,z
1/2-x,1/2-y,z
1/2+x,1/2-y,1/2-z
1/2-x,1/2+y,1/2-z
1/2-x,1/2-y,-z
1/2+x,1/2+y,-z
1/2-x,1/2+y,1/2+z
1/2+x,1/2-y,1/2+z
loop_
_atom_site_type_symbol
_atom_site_label
_atom_site_fract_x
_atom_site_fract_y
_atom_site_fract_z
Si Si1 0.000000 0.500000 0.250000
Si Si2 0.648100 0.428902 0.113739
Si Si3 0.611250 0.221390 0.293810
Si Si4 0.278870 0.936933 0.606101
O O1 0.955215 0.372802 0.312810
O O2 0.619071 0.277034 0.179981
O O3 0.614489 0.611605 0.136608
O O4 0.722275 0.438436 0.142813
O O5 0.638162 0.385625 0.000000
O O6 0.663544 0.076059 0.319116
O O7 0.302736 0.004441 0.500000
O O8 0.250000 0.750000 0.591027
#
# Coordination Sequence:
#
# PCOD8277118 Si02
#       4
#     4  16  16  16
#     4  12  28  42  54  84 124 168 216 246 286 358
#     4   9  19  39  69  96 116 150 201 252 306 364
#     4  10  21  39  61  85 125 164 195 247 299 350
#     4   8  15  32  61  93 116 139 182 241 304 359
#
# _framework density 23.077113000000001
#
# number of rings (size 3 to 8) (size 9 to 14) (size 15 to 20)
#    0.000    2.769    0.000    2.769    0.000    9.846 
#    0.000   11.538    0.000   32.308    0.000    0.000 
#    0.000    0.000    0.000    0.000    0.000    0.000 
#
# Total GULP energy -322158.915236 kJ/mol
# GULP energy per Si atom -12390.727509 kJ/mol
# Density = 2.302459 g / cm^3
# Si number density = 23.077113 Si / 1000 Ang^3
#
#
#
# Elastic Constant Matrix: (Units=GPa)
#
#
# Indices 1 2 3 4 5 6 
#
# 1 163.8858 53.5611 49.6194 0.0000 0.0000 0.0000
# 2 53.5611 93.0482 35.1581 0.0000 0.0000 0.0000
# 3 49.6194 35.1581 138.0385 0.0000 0.0000 0.0000
# 4 0.0000 0.0000 0.0000 4.0641 0.0000 0.0000
# 5 0.0000 0.0000 0.0000 0.0000 -10.1354 0.0000
# 6 0.0000 0.0000 0.0000 0.0000 0.0000 -45.5503
#
#
#
# Elastic Compliance Matrix: (Units=1/GPa)
#
#
# Indices 1 2 3 4 5 6 
#
# 1 0.007928 -0.003858 -0.001867 0.000000 0.000000 0.000000
# 2 -0.003858 0.013769 -0.002120 0.000000 0.000000 0.000000
# 3 -0.001867 -0.002120 0.008456 0.000000 0.000000 0.000000
# 4 0.000000 0.000000 0.000000 0.246059 0.000000 0.000000
# 5 0.000000 0.000000 0.000000 0.000000 -0.098664 0.000000
# 6 0.000000 0.000000 0.000000 0.000000 0.000000 -0.021954
#
#
# Mechanical properties :
#
#
# Convention : Reuss Voigt Hill
#
# Bulk Modulus (GPa) = 69.14750 74.62774 71.88762
# Shear Modulus (GPa) = 28.39200 6.78459 17.58829
#
# Velocity S-wave (km/s) = 3.51138 1.71649 2.76371
# Velocity P-wave (km/s) = 6.81678 6.02803 6.43450
#
# Compressibility (1/GPa) = 0.01446184
#
# Stress axis : x y z
#
# Youngs Moduli (GPa) = 126.13478 72.62680 118.26598
#
# Poissons Ratio (x) = 0.28020 0.22082
# Poissons Ratio (y) = 0.48664 0.25074
# Poissons Ratio (z) = 0.23551 0.15398
#
# Static dielectric constant tensor:
#      x y z
#    x 4.107240 0.000000 0.000000 
#    y 0.000000 4.145170 0.000000 
#    z 0.000000 0.000000 4.110130 
# 
# 
# High freq. dielectric constant tensor:
#      x y z
#    x 1.874900 0.000000 0.000000 
#    y 0.000000 1.924010 0.000000 
#    z 0.000000 0.000000 1.907480 
# 
# From -- ./inp_files/23738.got.cif
#   From: 2010.03.12/outbox.cif.g09.slc.cpg/sg66_12_cif.got.tgz:23738.got - 2010.04.10 21:57:39.
