data_PCOD8277274
_publ_section_title
;
Structure prediction by ZEFSAII (Michael W. Deem and Ramdas Pophale) SiO2 
 PCOD8277274
Probable space group: C C C M
;
_chemical_formula_sum "Si O2"
_cell_formula_units_Z 64
_cell_length_a 16.963523
_cell_length_b 5.446529
_cell_length_c 32.703465
_cell_angle_alpha 90.000000
_cell_angle_beta 90.000000
_cell_angle_gamma 90.000000
_cell_volume 3021.549002
_symmetry_space_group_name_H-M "C C C M"
_symmetry_group_IT_number 66
_symmetry_cell_setting 'orthorhombic'
loop_
_space_group_symop_operation_xyz
x,y,z
-x,-y,z
x,-y,1/2-z
-x,y,1/2-z
-x,-y,-z
x,y,-z
-x,y,1/2+z
x,-y,1/2+z
1/2+x,1/2+y,z
1/2-x,1/2-y,z
1/2+x,1/2-y,1/2-z
1/2-x,1/2+y,1/2-z
1/2-x,1/2-y,-z
1/2+x,1/2+y,-z
1/2-x,1/2+y,1/2+z
1/2+x,1/2-y,1/2+z
loop_
_atom_site_type_symbol
_atom_site_label
_atom_site_fract_x
_atom_site_fract_y
_atom_site_fract_z
Si Si1 0.830125 0.399284 0.586709
Si Si2 0.450686 0.248963 0.852495
Si Si3 0.200087 0.500139 0.500000
Si Si4 0.171824 0.109196 0.791565
Si Si5 0.250000 0.250000 0.646267
O O1 0.750000 0.250000 0.583280
O O2 0.900678 0.235621 0.605187
O O3 0.852949 0.499163 0.541377
O O4 0.814710 0.618385 0.618236
O O5 0.500000 0.500000 0.849017
O O6 0.393814 0.220467 0.812824
O O7 0.500000 0.000000 0.853263
O O8 0.250000 0.250000 0.500000
O O9 0.250000 0.750000 0.500000
O O10 0.250000 0.250000 0.777518
O O11 0.134818 0.000000 0.750000
O O12 0.195040 0.915950 0.825914
#
# Coordination Sequence:
#
# PCOD8277274 Si02
#       5
#    16  16   8  16   8
#     4  11  22  41  70  98 133 173 228 277 331 395
#     4  12  27  45  67  97 140 184 220 267 339 407
#     4  10  22  36  66 108 130 160 219 294 331 374
#     4  12  25  42  69 101 127 174 232 286 331 393
#     4  12  18  39  72  96 130 164 226 281 328 386
#
# _framework density 21.181189
#
# number of rings (size 3 to 8) (size 9 to 14) (size 15 to 20)
#    0.000    0.500    7.500    1.500    0.000    0.500 
#    0.000    5.000    0.000    0.000    0.000    0.000 
#    0.000    0.000    0.000    0.000    0.000    0.000 
#
# Total GULP energy -396662.723122 kJ/mol
# GULP energy per Si atom -12395.710098 kJ/mol
# Density = 2.113298 g / cm^3
# Si number density = 21.181189 Si / 1000 Ang^3
#
#
#
# Elastic Constant Matrix: (Units=GPa)
#
#
# Indices 1 2 3 4 5 6 
#
# 1 93.4664 29.4104 45.5640 0.0000 0.0000 0.0000
# 2 29.4104 104.8573 36.9949 0.0000 0.0000 0.0000
# 3 45.5640 36.9949 198.3144 0.0000 0.0000 0.0000
# 4 0.0000 0.0000 0.0000 -250.9397 0.0000 0.0000
# 5 0.0000 0.0000 0.0000 0.0000 -10.1022 0.0000
# 6 0.0000 0.0000 0.0000 0.0000 0.0000 35.8447
#
#
#
# Elastic Compliance Matrix: (Units=1/GPa)
#
#
# Indices 1 2 3 4 5 6 
#
# 1 0.012733 -0.002718 -0.002419 0.000000 0.000000 0.000000
# 2 -0.002718 0.010789 -0.001388 0.000000 0.000000 0.000000
# 3 -0.002419 -0.001388 0.005857 0.000000 0.000000 0.000000
# 4 0.000000 0.000000 0.000000 -0.003985 0.000000 0.000000
# 5 0.000000 0.000000 0.000000 0.000000 -0.098988 0.000000
# 6 0.000000 0.000000 0.000000 0.000000 0.000000 0.027898
#
#
# Mechanical properties :
#
#
# Convention : Reuss Voigt Hill
#
# Bulk Modulus (GPa) = 61.23784 68.95297 65.09541
# Shear Modulus (GPa) = -183.80327 -26.06152 -104.93240
#
# Velocity S-wave (km/s) = -9.32550 -3.51152 -7.04613
# Velocity P-wave (km/s) = 9.32626 4.02287 5.94961
#
# Compressibility (1/GPa) = 0.01632977
#
# Stress axis : x y z
#
# Youngs Moduli (GPa) = 78.53403 92.68777 170.73258
#
# Poissons Ratio (x) = 0.25194 0.41292
# Poissons Ratio (y) = 0.21347 0.23700
# Poissons Ratio (z) = 0.18993 0.12866
#
# Static dielectric constant tensor:
#      x y z
#    x 3.912530 0.000000 0.000000 
#    y 0.000000 3.969980 0.000000 
#    z 0.000000 0.000000 4.513570 
# 
# 
# High freq. dielectric constant tensor:
#      x y z
#    x 1.803060 0.000000 0.000000 
#    y 0.000000 1.838010 0.000000 
#    z 0.000000 0.000000 1.851000 
# 
# From -- ./inp_files/69787.got.cif
#   From: 2010.03.12/outbox.cif.g09.slc.cpg/sg66_35_cif.got.tgz:69787.got - 2010.04.10 21:57:39.
