data_PCOD8277360
_publ_section_title
;
Structure prediction by ZEFSAII (Michael W. Deem and Ramdas Pophale) SiO2 
 PCOD8277360
Probable space group: C C C M
;
_chemical_formula_sum "Si O2"
_cell_formula_units_Z 48
_cell_length_a 15.927957
_cell_length_b 7.452086
_cell_length_c 16.623170
_cell_angle_alpha 90.000000
_cell_angle_beta 90.000000
_cell_angle_gamma 90.000000
_cell_volume 1973.112187
_symmetry_space_group_name_H-M "C C C M"
_symmetry_group_IT_number 66
_symmetry_cell_setting 'orthorhombic'
loop_
_space_group_symop_operation_xyz
x,y,z
-x,-y,z
x,-y,1/2-z
-x,y,1/2-z
-x,-y,-z
x,y,-z
-x,y,1/2+z
x,-y,1/2+z
1/2+x,1/2+y,z
1/2-x,1/2-y,z
1/2+x,1/2-y,1/2-z
1/2-x,1/2+y,1/2-z
1/2-x,1/2-y,-z
1/2+x,1/2+y,-z
1/2-x,1/2+y,1/2+z
1/2+x,1/2-y,1/2+z
loop_
_atom_site_type_symbol
_atom_site_label
_atom_site_fract_x
_atom_site_fract_y
_atom_site_fract_z
Si Si1 0.840054 0.027719 0.409986
Si Si2 0.844331 0.399448 0.645549
Si Si3 0.085713 0.735955 0.798986
O O1 0.847153 0.948147 0.500000
O O2 0.871037 0.235288 0.412866
O O3 0.744671 0.018304 0.379741
O O4 0.898561 0.915710 0.349369
O O5 0.840237 0.306821 0.734579
O O6 0.912923 0.560498 0.642310
O O7 0.000000 0.754389 0.750000
#
# Coordination Sequence:
#
# PCOD8277360 Si02
#       3
#    16  16  16
#     4  11  25  43  72 110 147 186 242 310 367 422
#     4  10  22  40  72 103 140 187 247 297 348 430
#     4  11  25  43  71 107 142 193 246 298 359 437
#
# _framework density 24.327051999999998
#
# number of rings (size 3 to 8) (size 9 to 14) (size 15 to 20)
#    0.000    1.333    0.000    6.000   18.667    8.000 
#    0.000    5.000    0.000   18.000    0.000    0.000 
#    0.000    0.000    0.000    0.000    0.000    0.000 
#
# Total GULP energy -297379.818785 kJ/mol
# GULP energy per Si atom -12390.825783 kJ/mol
# Density = 2.427168 g / cm^3
# Si number density = 24.327052 Si / 1000 Ang^3
#
#
#
# Elastic Constant Matrix: (Units=GPa)
#
#
# Indices 1 2 3 4 5 6 
#
# 1 121.9847 84.0737 69.0167 0.0000 0.0000 0.0000
# 2 84.0737 156.3926 46.5992 0.0000 0.0000 0.0000
# 3 69.0167 46.5992 128.8553 0.0000 0.0000 0.0000
# 4 0.0000 0.0000 0.0000 32.0206 0.0000 0.0000
# 5 0.0000 0.0000 0.0000 0.0000 3.5712 0.0000
# 6 0.0000 0.0000 0.0000 0.0000 0.0000 32.0315
#
#
#
# Elastic Compliance Matrix: (Units=1/GPa)
#
#
# Indices 1 2 3 4 5 6 
#
# 1 0.016674 -0.007064 -0.006376 0.000000 0.000000 0.000000
# 2 -0.007064 0.010159 0.000110 0.000000 0.000000 0.000000
# 3 -0.006376 0.000110 0.011136 0.000000 0.000000 0.000000
# 4 0.000000 0.000000 0.000000 0.031230 0.000000 0.000000
# 5 0.000000 0.000000 0.000000 0.000000 0.280016 0.000000
# 6 0.000000 0.000000 0.000000 0.000000 0.000000 0.031219
#
#
# Mechanical properties :
#
#
# Convention : Reuss Voigt Hill
#
# Bulk Modulus (GPa) = 88.43148 89.62353 89.02751
# Shear Modulus (GPa) = 12.16949 27.36085 19.76517
#
# Velocity S-wave (km/s) = 2.23904 3.35731 2.85349
# Velocity P-wave (km/s) = 6.56616 7.20762 6.89435
#
# Compressibility (1/GPa) = 0.01130819
#
# Stress axis : x y z
#
# Youngs Moduli (GPa) = 59.97531 98.43724 89.79749
#
# Poissons Ratio (x) = 0.69531 0.57256
# Poissons Ratio (y) = 0.42364 -0.00983
# Poissons Ratio (z) = 0.38241 -0.01078
#
# Static dielectric constant tensor:
#      x y z
#    x 4.108700 0.000000 0.000000 
#    y 0.000000 4.874320 0.000000 
#    z 0.000000 0.000000 4.429290 
# 
# 
# High freq. dielectric constant tensor:
#      x y z
#    x 1.941870 0.000000 0.000000 
#    y 0.000000 1.988510 0.000000 
#    z 0.000000 0.000000 1.947420 
# 
# From -- ./inp_files/40954.got.cif
#   From: 2010.03.12/outbox.cif.g09.slc.cpg/sg66_21_cif.got.tgz:40954.got - 2010.04.10 21:57:39.
