data_PCOD8277503
_publ_section_title
;
Structure prediction by ZEFSAII (Michael W. Deem and Ramdas Pophale) SiO2 
 PCOD8277503
Probable space group: C C C M
;
_chemical_formula_sum "Si O2"
_cell_formula_units_Z 48
_cell_length_a 25.184438
_cell_length_b 8.430452
_cell_length_c 8.986581
_cell_angle_alpha 90.000000
_cell_angle_beta 90.000000
_cell_angle_gamma 90.000000
_cell_volume 1907.996690
_symmetry_space_group_name_H-M "C C C M"
_symmetry_group_IT_number 66
_symmetry_cell_setting 'orthorhombic'
loop_
_space_group_symop_operation_xyz
x,y,z
-x,-y,z
x,-y,1/2-z
-x,y,1/2-z
-x,-y,-z
x,y,-z
-x,y,1/2+z
x,-y,1/2+z
1/2+x,1/2+y,z
1/2-x,1/2-y,z
1/2+x,1/2-y,1/2-z
1/2-x,1/2+y,1/2-z
1/2-x,1/2-y,-z
1/2+x,1/2+y,-z
1/2-x,1/2+y,1/2+z
1/2+x,1/2-y,1/2+z
loop_
_atom_site_type_symbol
_atom_site_label
_atom_site_fract_x
_atom_site_fract_y
_atom_site_fract_z
Si Si1 0.573239 0.792732 0.000000
Si Si2 0.257878 0.500000 0.750000
Si Si3 0.317170 0.686297 0.000000
Si Si4 0.500000 0.275740 0.250000
Si Si5 0.811608 0.442739 0.500000
Si Si6 0.068985 0.923997 0.000000
O O1 0.538599 0.834131 0.852382
O O2 0.627097 0.893775 0.000000
O O3 0.587527 0.606517 0.000000
O O4 0.296490 0.395351 0.649298
O O5 0.219055 0.613916 0.649060
O O6 0.380442 0.688027 0.000000
O O7 0.299989 0.868115 0.000000
O O8 0.534355 0.389442 0.144766
#
# Coordination Sequence:
#
# PCOD8277503 Si02
#       6
#     8   8   8   8   8   8
#     4  11  23  43  75 105 143 197 237 300 363 428
#     4  10  24  50  74 102 146 192 240 296 364 438
#     4  11  27  47  77 109 146 190 248 307 359 442
#     4  10  23  46  71 110 147 193 250 293 350 449
#     4  11  27  47  75 111 151 183 245 310 373 427
#     4  11  23  41  75 103 146 192 250 289 353 438
#
# _framework density 25.157278999999999
#
# number of rings (size 3 to 8) (size 9 to 14) (size 15 to 20)
#    0.000    1.333    0.000    6.000    9.333    2.667 
#    0.000   13.333    0.000    0.000    0.000    0.000 
#    0.000    0.000    0.000    0.000    0.000    0.000 
#
# Total GULP energy -297558.586230 kJ/mol
# GULP energy per Si atom -12398.274426 kJ/mol
# Density = 2.510002 g / cm^3
# Si number density = 25.157279 Si / 1000 Ang^3
#
#
#
# Elastic Constant Matrix: (Units=GPa)
#
#
# Indices 1 2 3 4 5 6 
#
# 1 174.6354 37.6006 92.4379 0.0000 0.0000 0.0000
# 2 37.6006 71.7930 39.6652 0.0000 0.0000 0.0000
# 3 92.4379 39.6652 216.8709 0.0000 0.0000 0.0000
# 4 0.0000 0.0000 0.0000 17.8020 0.0000 0.0000
# 5 0.0000 0.0000 0.0000 0.0000 74.5184 0.0000
# 6 0.0000 0.0000 0.0000 0.0000 0.0000 52.6070
#
#
#
# Elastic Compliance Matrix: (Units=1/GPa)
#
#
# Indices 1 2 3 4 5 6 
#
# 1 0.007776 -0.002493 -0.002858 0.000000 0.000000 0.000000
# 2 -0.002493 0.016294 -0.001917 0.000000 0.000000 0.000000
# 3 -0.002858 -0.001917 0.006180 0.000000 0.000000 0.000000
# 4 0.000000 0.000000 0.000000 0.056173 0.000000 0.000000
# 5 0.000000 0.000000 0.000000 0.000000 0.013420 0.000000
# 6 0.000000 0.000000 0.000000 0.000000 0.000000 0.019009
#
#
# Mechanical properties :
#
#
# Convention : Reuss Voigt Hill
#
# Bulk Modulus (GPa) = 63.64580 89.18964 76.41772
# Shear Modulus (GPa) = 36.06784 48.55854 42.31319
#
# Velocity S-wave (km/s) = 3.79052 4.39817 4.10560
# Velocity P-wave (km/s) = 6.67169 7.83081 7.27438
#
# Compressibility (1/GPa) = 0.01571196
#
# Stress axis : x y z
#
# Youngs Moduli (GPa) = 128.59978 61.37175 161.81040
#
# Poissons Ratio (x) = 0.15302 0.46252
# Poissons Ratio (y) = 0.32065 0.31026
# Poissons Ratio (z) = 0.36759 0.11767
#
# Static dielectric constant tensor:
#      x y z
#    x 4.775870 0.000000 0.000000 
#    y 0.000000 4.038980 0.000000 
#    z 0.000000 0.000000 5.335360 
# 
# 
# High freq. dielectric constant tensor:
#      x y z
#    x 2.022680 0.000000 0.000000 
#    y 0.000000 1.972760 0.000000 
#    z 0.000000 0.000000 2.033560 
# 
# From -- ./inp_files/2819.got.cif
#   From: 2010.03.12/outbox.cif.g09.slc.cpg/sg66_2_cif.got.tgz:2819.got - 2010.04.10 21:57:39.
