data_PCOD8277847
_publ_section_title
;
Structure prediction by ZEFSAII (Michael W. Deem and Ramdas Pophale) SiO2 
 PCOD8277847
Probable space group: C C C M
;
_chemical_formula_sum "Si O2"
_cell_formula_units_Z 88
_cell_length_a 28.132401
_cell_length_b 5.070145
_cell_length_c 27.459016
_cell_angle_alpha 90.000000
_cell_angle_beta 90.000000
_cell_angle_gamma 90.000000
_cell_volume 3916.626420
_symmetry_space_group_name_H-M "C C C M"
_symmetry_group_IT_number 66
_symmetry_cell_setting 'orthorhombic'
loop_
_space_group_symop_operation_xyz
x,y,z
-x,-y,z
x,-y,1/2-z
-x,y,1/2-z
-x,-y,-z
x,y,-z
-x,y,1/2+z
x,-y,1/2+z
1/2+x,1/2+y,z
1/2-x,1/2-y,z
1/2+x,1/2-y,1/2-z
1/2-x,1/2+y,1/2-z
1/2-x,1/2-y,-z
1/2+x,1/2+y,-z
1/2-x,1/2+y,1/2+z
1/2+x,1/2-y,1/2+z
loop_
_atom_site_type_symbol
_atom_site_label
_atom_site_fract_x
_atom_site_fract_y
_atom_site_fract_z
Si Si1 0.829074 0.000000 0.250000
Si Si2 0.750000 0.250000 0.578260
Si Si3 0.635324 0.458673 0.500000
Si Si4 0.394085 0.000000 0.750000
Si Si5 0.944265 0.461945 0.350605
Si Si6 0.202634 0.914674 0.146565
Si Si7 0.198064 0.458145 0.500000
Si Si8 0.398552 0.566184 0.894266
O O1 0.861294 0.749392 0.240488
O O2 0.794596 0.967283 0.296113
O O3 0.706144 0.322925 0.613557
O O4 0.768584 0.495945 0.546666
O O5 0.654524 0.161831 0.500000
O O6 0.604919 0.497491 0.548707
O O7 0.680007 0.658810 0.500000
O O8 0.425808 0.955232 0.797430
O O9 0.930400 0.674486 0.391441
O O10 0.000000 0.500000 0.347302
O O11 0.923857 0.174055 0.365415
O O12 0.250000 0.750000 0.132427
O O13 0.150131 0.820193 0.130998
#
# Coordination Sequence:
#
# PCOD8277847 Si02
#       8
#     8   8   8   8  16  16   8  16
#     4  12  28  43  69 101 148 191 241 279 354 434
#     4  11  26  40  66 100 138 192 248 299 340 416
#     4  12  24  45  71 102 139 191 230 302 357 420
#     4  12  23  49  74 107 136 181 238 303 351 428
#     4  12  26  49  78 107 140 183 235 305 370 428
#     4  12  27  43  67 100 149 197 235 290 347 425
#     4  11  24  42  68 100 136 185 257 295 345 404
#     4  12  26  48  72 108 144 185 243 290 360 433
#
# _framework density 22.468316000000002
#
# number of rings (size 3 to 8) (size 9 to 14) (size 15 to 20)
#    0.000    0.182    5.455    3.000    6.364    0.727 
#    0.000    5.455    0.000    0.000    0.000    0.000 
#    0.000    0.000    0.000    0.000    0.000    0.000 
#
# Total GULP energy -545359.352559 kJ/mol
# GULP energy per Si atom -12394.530740 kJ/mol
# Density = 2.241718 g / cm^3
# Si number density = 22.468316 Si / 1000 Ang^3
#
#
#
# Elastic Constant Matrix: (Units=GPa)
#
#
# Indices 1 2 3 4 5 6 
#
# 1 110.5193 33.8595 33.1043 0.0000 0.0000 0.0000
# 2 33.8595 88.1194 -1.1845 0.0000 0.0000 0.0000
# 3 33.1043 -1.1845 148.1149 0.0000 0.0000 0.0000
# 4 0.0000 0.0000 0.0000 38.1460 0.0000 0.0000
# 5 0.0000 0.0000 0.0000 0.0000 69.0028 0.0000
# 6 0.0000 0.0000 0.0000 0.0000 0.0000 37.8220
#
#
#
# Elastic Compliance Matrix: (Units=1/GPa)
#
#
# Indices 1 2 3 4 5 6 
#
# 1 0.011123 -0.004308 -0.002520 0.000000 0.000000 0.000000
# 2 -0.004308 0.013018 0.001067 0.000000 0.000000 0.000000
# 3 -0.002520 0.001067 0.007323 0.000000 0.000000 0.000000
# 4 0.000000 0.000000 0.000000 0.026215 0.000000 0.000000
# 5 0.000000 0.000000 0.000000 0.000000 0.014492 0.000000
# 6 0.000000 0.000000 0.000000 0.000000 0.000000 0.026440
#
#
# Mechanical properties :
#
#
# Convention : Reuss Voigt Hill
#
# Bulk Modulus (GPa) = 50.14688 53.14579 51.64633
# Shear Modulus (GPa) = 42.81520 47.72577 45.27048
#
# Velocity S-wave (km/s) = 4.37003 4.61384 4.49359
# Velocity P-wave (km/s) = 6.91594 7.21722 7.06819
#
# Compressibility (1/GPa) = 0.01994142
#
# Stress axis : x y z
#
# Youngs Moduli (GPa) = 89.90430 76.81765 136.54891
#
# Poissons Ratio (x) = 0.33092 0.34417
# Poissons Ratio (y) = 0.38729 -0.14569
# Poissons Ratio (z) = 0.22660 -0.08196
#
# Static dielectric constant tensor:
#      x y z
#    x 4.108000 0.000000 0.000000 
#    y 0.000000 4.138470 0.000000 
#    z 0.000000 0.000000 4.319860 
# 
# 
# High freq. dielectric constant tensor:
#      x y z
#    x 1.875450 0.000000 0.000000 
#    y 0.000000 1.891680 0.000000 
#    z 0.000000 0.000000 1.909710 
# 
# From -- ./inp_files/70424.got.cif
#   From: 2010.03.12/outbox.cif.g09.slc.cpg/sg66_36_cif.got.tgz:70424.got - 2010.04.10 21:57:39.
