data_PCOD8277247
_publ_section_title
;
Structure prediction by ZEFSAII (Michael W. Deem and Ramdas Pophale) SiO2 
 PCOD8277247
Probable space group: C C C M
;
_chemical_formula_sum "Si O2"
_cell_formula_units_Z 112
_cell_length_a 25.267657
_cell_length_b 14.782707
_cell_length_c 14.329537
_cell_angle_alpha 90.000000
_cell_angle_beta 90.000000
_cell_angle_gamma 90.000000
_cell_volume 5352.431280
_symmetry_space_group_name_H-M "C C C M"
_symmetry_group_IT_number 66
_symmetry_cell_setting 'orthorhombic'
loop_
_space_group_symop_operation_xyz
x,y,z
-x,-y,z
x,-y,1/2-z
-x,y,1/2-z
-x,-y,-z
x,y,-z
-x,y,1/2+z
x,-y,1/2+z
1/2+x,1/2+y,z
1/2-x,1/2-y,z
1/2+x,1/2-y,1/2-z
1/2-x,1/2+y,1/2-z
1/2-x,1/2-y,-z
1/2+x,1/2+y,-z
1/2-x,1/2+y,1/2+z
1/2+x,1/2-y,1/2+z
loop_
_atom_site_type_symbol
_atom_site_label
_atom_site_fract_x
_atom_site_fract_y
_atom_site_fract_z
Si Si1 0.938743 0.639233 0.240338
Si Si2 0.570324 0.575574 0.104164
Si Si3 0.544002 0.374301 0.895739
Si Si4 0.901498 0.490174 0.108635
Si Si5 0.619193 0.310408 0.748479
Si Si6 0.235612 0.854141 0.757892
Si Si7 0.222840 0.503438 0.609904
O O1 0.937661 0.565903 0.157547
O O2 0.916466 0.602682 0.339309
O O3 0.894128 0.712254 0.206141
O O4 0.000000 0.672504 0.250000
O O5 0.518822 0.640099 0.112256
O O6 0.556544 0.475526 0.137014
O O7 0.615042 0.613876 0.169537
O O8 0.592668 0.574771 0.000000
O O9 0.574686 0.307928 0.828677
O O10 0.563738 0.356169 0.000000
O O11 0.839850 0.515015 0.122554
O O12 0.916220 0.481609 0.000000
O O13 0.675283 0.337843 0.789401
O O14 0.250000 0.750000 0.737866
O O15 0.246868 0.915111 0.665099
O O16 0.262226 0.905146 0.846008
O O17 0.238670 0.505780 0.500000
#
# Coordination Sequence:
#
# PCOD8277247 Si02
#       7
#    16  16  16  16  16  16  16
#     4  11  23  38  60  93 126 154 196 248 298 371
#     4   9  19  35  54  79 115 155 192 231 276 334
#     4   9  19  35  54  79 115 155 192 231 276 334
#     4  10  21  42  68  87 114 155 195 249 319 375
#     4  12  23  35  58  85 116 160 195 241 294 343
#     4  11  24  42  63  90 125 162 206 261 314 372
#     4  10  23  43  67  93 123 163 211 265 321 375
#
# _framework density 20.925070000000002
#
# number of rings (size 3 to 8) (size 9 to 14) (size 15 to 20)
#    0.000    1.714    0.000    6.857    4.000    5.143 
#    0.000    0.000    0.000    0.000    0.000    0.000 
#    0.000    0.000    0.000    0.000    0.000    0.000 
#
# Total GULP energy -693834.516981 kJ/mol
# GULP energy per Si atom -12389.902089 kJ/mol
# Density = 2.087744 g / cm^3
# Si number density = 20.925070 Si / 1000 Ang^3
#
#
#
# Elastic Constant Matrix: (Units=GPa)
#
#
# Indices 1 2 3 4 5 6 
#
# 1 77.7114 14.0406 19.4013 0.0000 0.0000 0.0000
# 2 14.0406 69.4181 30.2470 0.0000 0.0000 0.0000
# 3 19.4013 30.2470 112.4117 0.0000 0.0000 0.0000
# 4 0.0000 0.0000 0.0000 32.0865 0.0000 0.0000
# 5 0.0000 0.0000 0.0000 0.0000 89.7048 0.0000
# 6 0.0000 0.0000 0.0000 0.0000 0.0000 36.9149
#
#
#
# Elastic Compliance Matrix: (Units=1/GPa)
#
#
# Indices 1 2 3 4 5 6 
#
# 1 0.013681 -0.001969 -0.001831 0.000000 0.000000 0.000000
# 2 -0.001969 0.016602 -0.004127 0.000000 0.000000 0.000000
# 3 -0.001831 -0.004127 0.010323 0.000000 0.000000 0.000000
# 4 0.000000 0.000000 0.000000 0.031166 0.000000 0.000000
# 5 0.000000 0.000000 0.000000 0.000000 0.011148 0.000000
# 6 0.000000 0.000000 0.000000 0.000000 0.000000 0.027089
#
#
# Mechanical properties :
#
#
# Convention : Reuss Voigt Hill
#
# Bulk Modulus (GPa) = 40.40409 42.99098 41.69754
# Shear Modulus (GPa) = 37.28164 44.79807 41.03986
#
# Velocity S-wave (km/s) = 4.22557 4.63198 4.43344
# Velocity P-wave (km/s) = 6.56948 7.01405 6.79540
#
# Compressibility (1/GPa) = 0.02474997
#
# Stress axis : x y z
#
# Youngs Moduli (GPa) = 73.09335 60.23327 96.87573
#
# Poissons Ratio (x) = 0.11861 0.17742
# Poissons Ratio (y) = 0.14393 0.39984
# Poissons Ratio (z) = 0.13386 0.24860
#
# Static dielectric constant tensor:
#      x y z
#    x 4.640970 0.000000 0.000000 
#    y 0.000000 3.785850 0.000000 
#    z 0.000000 0.000000 3.778320 
# 
# 
# High freq. dielectric constant tensor:
#      x y z
#    x 1.818200 0.000000 0.000000 
#    y 0.000000 1.818290 0.000000 
#    z 0.000000 0.000000 1.818550 
# 
# From -- ./inp_files/28748.got.cif
#   From: 2010.03.12/outbox.cif.g09.slc.cpg/sg66_15_cif.got.tgz:28748.got - 2010.04.10 21:57:39.
