data_PCOD8277465
_publ_section_title
;
Structure prediction by ZEFSAII (Michael W. Deem and Ramdas Pophale) SiO2 
 PCOD8277465
Probable space group: C C C M
;
_chemical_formula_sum "Si O2"
_cell_formula_units_Z 56
_cell_length_a 5.549518
_cell_length_b 29.080742
_cell_length_c 14.115225
_cell_angle_alpha 90.000000
_cell_angle_beta 90.000000
_cell_angle_gamma 90.000000
_cell_volume 2277.972900
_symmetry_space_group_name_H-M "C C C M"
_symmetry_group_IT_number 66
_symmetry_cell_setting 'orthorhombic'
loop_
_space_group_symop_operation_xyz
x,y,z
-x,-y,z
x,-y,1/2-z
-x,y,1/2-z
-x,-y,-z
x,y,-z
-x,y,1/2+z
x,-y,1/2+z
1/2+x,1/2+y,z
1/2-x,1/2-y,z
1/2+x,1/2-y,1/2-z
1/2-x,1/2+y,1/2-z
1/2-x,1/2-y,-z
1/2+x,1/2+y,-z
1/2-x,1/2+y,1/2+z
1/2+x,1/2-y,1/2+z
loop_
_atom_site_type_symbol
_atom_site_label
_atom_site_fract_x
_atom_site_fract_y
_atom_site_fract_z
Si Si1 0.843406 0.370261 0.895384
Si Si2 0.668036 0.041324 0.605025
Si Si3 0.999886 0.270247 0.390459
Si Si4 0.500000 0.414721 0.750000
O O1 0.658252 0.379711 0.811396
O O2 0.025665 0.411699 0.899068
O O3 0.997474 0.324833 0.872198
O O4 0.717165 0.365108 0.000000
O O5 0.771144 0.029472 0.500000
O O6 0.878026 0.048925 0.679544
O O7 0.500000 0.000000 0.641475
O O8 0.997228 0.256515 0.500000
O O9 0.750000 0.250000 0.344855
O O10 0.250000 0.250000 0.345806
#
# Coordination Sequence:
#
# PCOD8277465 Si02
#       4
#    16  16  16   8
#     4  10  23  41  67 103 141 185 236 294 359 435
#     4  10  24  46  70  99 137 183 235 290 358 437
#     4   9  19  37  67 101 135 184 240 291 356 433
#     4  12  24  41  72 102 142 184 238 302 363 430
#
# _framework density 24.583262000000001
#
# number of rings (size 3 to 8) (size 9 to 14) (size 15 to 20)
#    0.000    2.000    0.000    1.714    4.000    4.571 
#    0.000    4.286    6.286    2.571    0.000    0.000 
#    0.000    1.143    0.000    0.000    0.000    0.000 
#
# Total GULP energy -347020.856073 kJ/mol
# GULP energy per Si atom -12393.602003 kJ/mol
# Density = 2.452731 g / cm^3
# Si number density = 24.583262 Si / 1000 Ang^3
#
#
#
# Elastic Constant Matrix: (Units=GPa)
#
#
# Indices 1 2 3 4 5 6 
#
# 1 160.0222 63.1057 55.1623 0.0000 0.0000 0.0000
# 2 63.1057 171.9575 19.4392 0.0000 0.0000 0.0000
# 3 55.1623 19.4392 141.1971 0.0000 0.0000 0.0000
# 4 0.0000 0.0000 0.0000 6.4461 0.0000 0.0000
# 5 0.0000 0.0000 0.0000 0.0000 44.1745 0.0000
# 6 0.0000 0.0000 0.0000 0.0000 0.0000 38.4039
#
#
#
# Elastic Compliance Matrix: (Units=1/GPa)
#
#
# Indices 1 2 3 4 5 6 
#
# 1 0.008315 -0.002727 -0.002873 0.000000 0.000000 0.000000
# 2 -0.002727 0.006801 0.000129 0.000000 0.000000 0.000000
# 3 -0.002873 0.000129 0.008187 0.000000 0.000000 0.000000
# 4 0.000000 0.000000 0.000000 0.155132 0.000000 0.000000
# 5 0.000000 0.000000 0.000000 0.000000 0.022637 0.000000
# 6 0.000000 0.000000 0.000000 0.000000 0.000000 0.026039
#
#
# Mechanical properties :
#
#
# Convention : Reuss Voigt Hill
#
# Bulk Modulus (GPa) = 80.89535 83.17681 82.03608
# Shear Modulus (GPa) = 20.64633 40.16955 30.40794
#
# Velocity S-wave (km/s) = 2.90117 4.04669 3.52083
# Velocity P-wave (km/s) = 6.64834 7.46608 7.06905
#
# Compressibility (1/GPa) = 0.01236165
#
# Stress axis : x y z
#
# Youngs Moduli (GPa) = 120.26816 147.02756 122.14532
#
# Poissons Ratio (x) = 0.40089 0.35092
# Poissons Ratio (y) = 0.32792 -0.01574
# Poissons Ratio (z) = 0.34553 -0.01894
#
# Static dielectric constant tensor:
#      x y z
#    x 4.417750 0.000000 0.000000 
#    y 0.000000 4.335700 0.000000 
#    z 0.000000 0.000000 5.145800 
# 
# 
# High freq. dielectric constant tensor:
#      x y z
#    x 1.960950 0.000000 0.000000 
#    y 0.000000 1.990720 0.000000 
#    z 0.000000 0.000000 1.988310 
# 
# From -- ./inp_files/22482.got.cif
#   From: 2010.03.12/outbox.cif.g09.slc.cpg/sg66_12_cif.got.tgz:22482.got - 2010.04.10 21:57:39.
