data_PCOD8277404
_publ_section_title
;
Structure prediction by ZEFSAII (Michael W. Deem and Ramdas Pophale) SiO2 
 PCOD8277404
Probable space group: C C C M
;
_chemical_formula_sum "Si O2"
_cell_formula_units_Z 96
_cell_length_a 16.430120
_cell_length_b 22.506347
_cell_length_c 13.453149
_cell_angle_alpha 90.000000
_cell_angle_beta 90.000000
_cell_angle_gamma 90.000000
_cell_volume 4974.732101
_symmetry_space_group_name_H-M "C C C M"
_symmetry_group_IT_number 66
_symmetry_cell_setting 'orthorhombic'
loop_
_space_group_symop_operation_xyz
x,y,z
-x,-y,z
x,-y,1/2-z
-x,y,1/2-z
-x,-y,-z
x,y,-z
-x,y,1/2+z
x,-y,1/2+z
1/2+x,1/2+y,z
1/2-x,1/2-y,z
1/2+x,1/2-y,1/2-z
1/2-x,1/2+y,1/2-z
1/2-x,1/2-y,-z
1/2+x,1/2+y,-z
1/2-x,1/2+y,1/2+z
1/2+x,1/2-y,1/2+z
loop_
_atom_site_type_symbol
_atom_site_label
_atom_site_fract_x
_atom_site_fract_y
_atom_site_fract_z
Si Si1 0.007037 0.067743 0.886603
Si Si2 0.083594 0.346381 0.692193
Si Si3 0.868164 0.888451 0.728049
Si Si4 0.452697 0.917498 0.000000
Si Si5 0.158949 0.771262 0.113220
Si Si6 0.369955 0.954706 0.500000
Si Si7 0.801153 0.437244 0.291311
O O1 0.069946 0.106737 0.821371
O O2 0.914878 0.090015 0.870862
O O3 0.034432 0.074565 0.000000
O O4 0.000000 0.000000 0.851488
O O5 0.080945 0.385476 0.595157
O O6 0.104073 0.279826 0.660892
O O7 0.150037 0.378581 0.760302
O O8 0.000000 0.345487 0.750000
O O9 0.842243 0.822361 0.697204
O O10 0.791264 0.929289 0.754844
O O11 0.550721 0.912724 0.000000
O O12 0.410905 0.981156 0.000000
O O13 0.250000 0.750000 0.102703
O O14 0.128591 0.788135 0.000000
O O15 0.309498 0.942103 0.409349
O O16 0.835917 0.500000 0.250000
#
# Coordination Sequence:
#
# PCOD8277404 Si02
#       7
#    16  16  16   8  16   8  16
#     4  10  22  43  68  95 126 165 205 263 339 403
#     4  12  24  41  66  93 132 176 218 264 321 383
#     4  11  23  42  64  92 129 160 215 275 322 384
#     4  11  22  42  61  93 135 175 219 260 313 391
#     4  11  24  43  66  91 125 172 226 274 321 378
#     4  11  24  38  64  94 135 175 213 259 325 397
#     4  12  24  40  64  97 129 170 212 264 327 386
#
# _framework density 19.297522000000001
#
# number of rings (size 3 to 8) (size 9 to 14) (size 15 to 20)
#    0.000    0.833    5.833    2.500    3.500    0.333 
#    4.500    0.000    1.833    1.500    0.000    0.000 
#    0.000    0.000    0.000    0.000    0.000    0.000 
#
# Total GULP energy -594898.357101 kJ/mol
# GULP energy per Si atom -12393.715773 kJ/mol
# Density = 1.925360 g / cm^3
# Si number density = 19.297522 Si / 1000 Ang^3
#
#
#
# Elastic Constant Matrix: (Units=GPa)
#
#
# Indices 1 2 3 4 5 6 
#
# 1 91.3923 23.8980 29.2553 0.0000 0.0000 0.0000
# 2 23.8980 85.3932 41.2459 0.0000 0.0000 0.0000
# 3 29.2553 41.2459 136.2221 0.0000 0.0000 0.0000
# 4 0.0000 0.0000 0.0000 0.8244 0.0000 0.0000
# 5 0.0000 0.0000 0.0000 0.0000 21.6209 0.0000
# 6 0.0000 0.0000 0.0000 0.0000 0.0000 37.0791
#
#
#
# Elastic Compliance Matrix: (Units=1/GPa)
#
#
# Indices 1 2 3 4 5 6 
#
# 1 0.012194 -0.002516 -0.001857 0.000000 0.000000 0.000000
# 2 -0.002516 0.014236 -0.003770 0.000000 0.000000 0.000000
# 3 -0.001857 -0.003770 0.008881 0.000000 0.000000 0.000000
# 4 0.000000 0.000000 0.000000 1.213022 0.000000 0.000000
# 5 0.000000 0.000000 0.000000 0.000000 0.046251 0.000000
# 6 0.000000 0.000000 0.000000 0.000000 0.000000 0.026969
#
#
# Mechanical properties :
#
#
# Convention : Reuss Voigt Hill
#
# Bulk Modulus (GPa) = 52.56140 55.75624 54.15882
# Shear Modulus (GPa) = 3.71974 26.47878 15.09926
#
# Velocity S-wave (km/s) = 1.38988 3.70825 2.80026
# Velocity P-wave (km/s) = 5.46555 6.87681 6.21139
#
# Compressibility (1/GPa) = 0.01902537
#
# Stress axis : x y z
#
# Youngs Moduli (GPa) = 82.00671 70.24684 112.59610
#
# Poissons Ratio (x) = 0.17671 0.20911
# Poissons Ratio (y) = 0.20630 0.42449
# Poissons Ratio (z) = 0.15230 0.26483
#
# Static dielectric constant tensor:
#      x y z
#    x 3.410920 0.000000 0.000000 
#    y 0.000000 3.397990 0.000000 
#    z 0.000000 0.000000 3.628580 
# 
# 
# High freq. dielectric constant tensor:
#      x y z
#    x 1.754400 0.000000 0.000000 
#    y 0.000000 1.750910 0.000000 
#    z 0.000000 0.000000 1.763160 
# 
# From -- ./inp_files/28452.got.cif
#   From: 2010.03.12/outbox.cif.g09.slc.cpg/sg66_15_cif.got.tgz:28452.got - 2010.04.10 21:57:39.
