data_PCOD8277187
_publ_section_title
;
Structure prediction by ZEFSAII (Michael W. Deem and Ramdas Pophale) SiO2 
 PCOD8277187
Probable space group: C C C M
;
_chemical_formula_sum "Si O2"
_cell_formula_units_Z 88
_cell_length_a 12.060916
_cell_length_b 21.327019
_cell_length_c 16.258877
_cell_angle_alpha 90.000000
_cell_angle_beta 90.000000
_cell_angle_gamma 90.000000
_cell_volume 4182.163373
_symmetry_space_group_name_H-M "C C C M"
_symmetry_group_IT_number 66
_symmetry_cell_setting 'orthorhombic'
loop_
_space_group_symop_operation_xyz
x,y,z
-x,-y,z
x,-y,1/2-z
-x,y,1/2-z
-x,-y,-z
x,y,-z
-x,y,1/2+z
x,-y,1/2+z
1/2+x,1/2+y,z
1/2-x,1/2-y,z
1/2+x,1/2-y,1/2-z
1/2-x,1/2+y,1/2-z
1/2-x,1/2-y,-z
1/2+x,1/2+y,-z
1/2-x,1/2+y,1/2+z
1/2+x,1/2-y,1/2+z
loop_
_atom_site_type_symbol
_atom_site_label
_atom_site_fract_x
_atom_site_fract_y
_atom_site_fract_z
Si Si1 0.250000 0.250000 0.289035
Si Si2 0.897999 0.039955 0.406045
Si Si3 0.044306 0.269702 0.405656
Si Si4 0.499148 0.910200 0.405711
Si Si5 0.678471 0.002975 0.844003
Si Si6 0.405745 0.331800 0.185591
O O1 0.150975 0.273002 0.347241
O O2 0.295854 0.305655 0.230895
O O3 0.924686 0.056486 0.500000
O O4 0.788504 0.997364 0.399400
O O5 0.873762 0.104528 0.359503
O O6 0.000000 0.000000 0.368358
O O7 0.080860 0.257006 0.500000
O O8 0.983816 0.336216 0.396722
O O9 0.954319 0.218519 0.378791
O O10 0.501949 0.931701 0.500000
O O11 0.396095 0.942327 0.361613
O O12 0.613098 0.933031 0.363450
O O13 0.715989 0.000000 0.750000
O O14 0.500000 0.348924 0.250000
#
# Coordination Sequence:
#
# PCOD8277187 Si02
#       6
#     8  16  16  16  16  16
#     4  10  23  40  63  98 128 164 214 274 323 386
#     4  11  26  45  65  90 128 173 217 261 315 385
#     4  10  22  41  66  92 129 172 214 265 324 391
#     4  10  21  40  63  92 127 164 210 260 321 382
#     4  11  24  37  63  93 127 165 207 264 317 379
#     4  10  24  41  64  94 128 165 214 267 316 376
#
# _framework density 21.041740000000001
#
# number of rings (size 3 to 8) (size 9 to 14) (size 15 to 20)
#    0.000    1.636    0.000    4.091    7.636    4.364 
#    0.000    4.545    0.000    0.000    0.000    0.000 
#    0.000    0.000    0.000    0.000    0.000    0.000 
#
# Total GULP energy -545727.622793 kJ/mol
# GULP energy per Si atom -12402.900518 kJ/mol
# Density = 2.099385 g / cm^3
# Si number density = 21.041740 Si / 1000 Ang^3
#
#
#
# Elastic Constant Matrix: (Units=GPa)
#
#
# Indices 1 2 3 4 5 6 
#
# 1 119.4519 32.8621 28.1520 0.0000 0.0000 0.0000
# 2 32.8621 86.9517 43.3558 0.0000 0.0000 0.0000
# 3 28.1520 43.3558 108.7181 0.0000 0.0000 0.0000
# 4 0.0000 0.0000 0.0000 32.6918 0.0000 0.0000
# 5 0.0000 0.0000 0.0000 0.0000 26.3920 0.0000
# 6 0.0000 0.0000 0.0000 0.0000 0.0000 4.3190
#
#
#
# Elastic Compliance Matrix: (Units=1/GPa)
#
#
# Indices 1 2 3 4 5 6 
#
# 1 0.009484 -0.002945 -0.001281 0.000000 0.000000 0.000000
# 2 -0.002945 0.015270 -0.005327 0.000000 0.000000 0.000000
# 3 -0.001281 -0.005327 0.011654 0.000000 0.000000 0.000000
# 4 0.000000 0.000000 0.000000 0.030589 0.000000 0.000000
# 5 0.000000 0.000000 0.000000 0.000000 0.037890 0.000000
# 6 0.000000 0.000000 0.000000 0.000000 0.000000 0.231537
#
#
# Mechanical properties :
#
#
# Convention : Reuss Voigt Hill
#
# Bulk Modulus (GPa) = 57.80009 58.20685 58.00347
# Shear Modulus (GPa) = 13.83900 26.73069 20.28485
#
# Velocity S-wave (km/s) = 2.56733 3.56808 3.10825
# Velocity P-wave (km/s) = 6.02637 6.68563 6.36454
#
# Compressibility (1/GPa) = 0.01730101
#
# Stress axis : x y z
#
# Youngs Moduli (GPa) = 105.44264 65.48850 85.80661
#
# Poissons Ratio (x) = 0.19289 0.10993
# Poissons Ratio (y) = 0.31058 0.45707
# Poissons Ratio (z) = 0.13509 0.34884
#
# Static dielectric constant tensor:
#      x y z
#    x 3.722000 0.000000 0.000000 
#    y 0.000000 3.680050 0.000000 
#    z 0.000000 0.000000 3.967490 
# 
# 
# High freq. dielectric constant tensor:
#      x y z
#    x 1.824250 0.000000 0.000000 
#    y 0.000000 1.824420 0.000000 
#    z 0.000000 0.000000 1.838130 
# 
# From -- ./inp_files/26515.got.cif
#   From: 2010.03.12/outbox.cif.g09.slc.cpg/sg66_14_cif.got.tgz:26515.got - 2010.04.10 21:57:39.
