data_PCOD8277145
_publ_section_title
;
Structure prediction by ZEFSAII (Michael W. Deem and Ramdas Pophale) SiO2 
 PCOD8277145
Probable space group: C C C M
;
_chemical_formula_sum "Si O2"
_cell_formula_units_Z 112
_cell_length_a 26.884217
_cell_length_b 11.539229
_cell_length_c 17.293565
_cell_angle_alpha 90.000000
_cell_angle_beta 90.000000
_cell_angle_gamma 90.000000
_cell_volume 5364.863975
_symmetry_space_group_name_H-M "C C C M"
_symmetry_group_IT_number 66
_symmetry_cell_setting 'orthorhombic'
loop_
_space_group_symop_operation_xyz
x,y,z
-x,-y,z
x,-y,1/2-z
-x,y,1/2-z
-x,-y,-z
x,y,-z
-x,y,1/2+z
x,-y,1/2+z
1/2+x,1/2+y,z
1/2-x,1/2-y,z
1/2+x,1/2-y,1/2-z
1/2-x,1/2+y,1/2-z
1/2-x,1/2-y,-z
1/2+x,1/2+y,-z
1/2-x,1/2+y,1/2+z
1/2+x,1/2-y,1/2+z
loop_
_atom_site_type_symbol
_atom_site_label
_atom_site_fract_x
_atom_site_fract_y
_atom_site_fract_z
Si Si1 0.577042 0.950850 0.591456
Si Si2 0.234268 0.125157 0.408748
Si Si3 0.049085 0.926544 0.410693
Si Si4 0.676365 0.989489 0.840571
Si Si5 0.350327 0.485243 0.840454
Si Si6 0.518692 0.177037 0.591560
Si Si7 0.691185 0.748843 0.910664
O O1 0.586090 0.946057 0.500000
O O2 0.629424 0.931436 0.634395
O O3 0.537898 0.852036 0.618885
O O4 0.555505 0.075264 0.617732
O O5 0.232941 0.128309 0.500000
O O6 0.250000 0.250000 0.374500
O O7 0.273821 0.030180 0.382508
O O8 0.179571 0.090926 0.379490
O O9 0.065318 0.917823 0.500000
O O10 0.092044 0.992049 0.363851
O O11 0.038445 0.798779 0.375046
O O12 0.000000 0.000000 0.400067
O O13 0.684681 0.000000 0.750000
O O14 0.666791 0.858150 0.867572
O O15 0.344083 0.500000 0.750000
O O16 0.328842 0.363615 0.868328
O O17 0.516835 0.183708 0.500000
O O18 0.750000 0.750000 0.903562
O O19 0.673798 0.749083 0.000000
#
# Coordination Sequence:
#
# PCOD8277145 Si02
#       7
#    16  16  16  16  16  16  16
#     4   9  17  34  62  90 121 161 209 261 319 381
#     4  11  25  44  66  92 129 175 219 263 321 402
#     4  10  21  39  64  91 121 167 222 264 311 388
#     4  12  25  38  62  96 140 170 213 271 336 394
#     4  12  26  42  68  96 136 169 212 279 340 387
#     4   8  16  34  61  91 117 155 213 271 311 362
#     4  11  23  42  71  96 123 174 233 273 313 390
#
# _framework density 20.876577000000001
#
# number of rings (size 3 to 8) (size 9 to 14) (size 15 to 20)
#    0.000    1.571    1.429    4.714    2.000    2.571 
#    0.000    4.286    3.143    0.000    0.000    0.000 
#    0.000    0.000    0.000    0.000    0.000    0.000 
#
# Total GULP energy -694530.055118 kJ/mol
# GULP energy per Si atom -12402.322413 kJ/mol
# Density = 2.082906 g / cm^3
# Si number density = 20.876577 Si / 1000 Ang^3
#
#
#
# Elastic Constant Matrix: (Units=GPa)
#
#
# Indices 1 2 3 4 5 6 
#
# 1 118.1899 35.7954 33.6139 0.0000 0.0000 0.0000
# 2 35.7954 111.1296 44.1922 0.0000 0.0000 0.0000
# 3 33.6139 44.1922 95.5271 0.0000 0.0000 0.0000
# 4 0.0000 0.0000 0.0000 20.9946 0.0000 0.0000
# 5 0.0000 0.0000 0.0000 0.0000 6.4372 0.0000
# 6 0.0000 0.0000 0.0000 0.0000 0.0000 33.9707
#
#
#
# Elastic Compliance Matrix: (Units=1/GPa)
#
#
# Indices 1 2 3 4 5 6 
#
# 1 0.009819 -0.002192 -0.002441 0.000000 0.000000 0.000000
# 2 -0.002192 0.011516 -0.004556 0.000000 0.000000 0.000000
# 3 -0.002441 -0.004556 0.013435 0.000000 0.000000 0.000000
# 4 0.000000 0.000000 0.000000 0.047631 0.000000 0.000000
# 5 0.000000 0.000000 0.000000 0.000000 0.155348 0.000000
# 6 0.000000 0.000000 0.000000 0.000000 0.000000 0.029437
#
#
# Mechanical properties :
#
#
# Convention : Reuss Voigt Hill
#
# Bulk Modulus (GPa) = 61.00660 61.33887 61.17274
# Shear Modulus (GPa) = 17.18037 26.36348 21.77193
#
# Velocity S-wave (km/s) = 2.87182 3.55748 3.23288
# Velocity P-wave (km/s) = 6.34684 6.80586 6.58035
#
# Compressibility (1/GPa) = 0.01639167
#
# Stress axis : x y z
#
# Youngs Moduli (GPa) = 101.84226 86.83214 74.43233
#
# Poissons Ratio (x) = 0.19034 0.18169
# Poissons Ratio (y) = 0.22325 0.33914
# Poissons Ratio (z) = 0.24860 0.39564
#
# Static dielectric constant tensor:
#      x y z
#    x 4.199520 0.000000 0.000000 
#    y 0.000000 4.146750 0.000000 
#    z 0.000000 0.000000 3.517440 
# 
# 
# High freq. dielectric constant tensor:
#      x y z
#    x 1.833160 0.000000 0.000000 
#    y 0.000000 1.819190 0.000000 
#    z 0.000000 0.000000 1.793150 
# 
# From -- ./inp_files/33840.got.cif
#   From: 2010.03.12/outbox.cif.g09.slc.cpg/sg66_17_cif.got.tgz:33840.got - 2010.04.10 21:57:39.
