data_PCOD8277063
_publ_section_title
;
Structure prediction by ZEFSAII (Michael W. Deem and Ramdas Pophale) SiO2 
 PCOD8277063
Probable space group: C C C M
;
_chemical_formula_sum "Si O2"
_cell_formula_units_Z 112
_cell_length_a 34.927581
_cell_length_b 11.335444
_cell_length_c 14.297205
_cell_angle_alpha 90.000000
_cell_angle_beta 90.000000
_cell_angle_gamma 90.000000
_cell_volume 5660.544235
_symmetry_space_group_name_H-M "C C C M"
_symmetry_group_IT_number 66
_symmetry_cell_setting 'orthorhombic'
loop_
_space_group_symop_operation_xyz
x,y,z
-x,-y,z
x,-y,1/2-z
-x,y,1/2-z
-x,-y,-z
x,y,-z
-x,y,1/2+z
x,-y,1/2+z
1/2+x,1/2+y,z
1/2-x,1/2-y,z
1/2+x,1/2-y,1/2-z
1/2-x,1/2+y,1/2-z
1/2-x,1/2-y,-z
1/2+x,1/2+y,-z
1/2-x,1/2+y,1/2+z
1/2+x,1/2-y,1/2+z
loop_
_atom_site_type_symbol
_atom_site_label
_atom_site_fract_x
_atom_site_fract_y
_atom_site_fract_z
Si Si1 0.291352 0.805306 0.250000
Si Si2 0.863788 0.861586 0.250002
Si Si3 0.078358 0.246413 0.611169
Si Si4 0.188127 0.500000 0.610883
Si Si5 0.078361 0.246416 0.888830
Si Si6 0.899761 0.499997 0.890444
Si Si7 0.999998 0.868229 0.110652
O O1 0.250000 0.750000 0.250007
O O2 0.323306 0.704125 0.249990
O O3 0.293941 0.883120 0.155869
O O4 0.293947 0.883109 0.344136
O O5 0.887660 0.828171 0.342623
O O6 0.887655 0.828165 0.157375
O O7 0.855263 0.000000 0.250000
O O8 0.083643 0.235454 0.500000
O O9 0.080075 0.381699 0.647442
O O10 0.037693 0.198077 0.646758
O O11 0.195071 0.499999 0.500000
O O12 0.143958 0.499988 0.640982
O O13 0.080078 0.381700 0.852555
O O14 0.037697 0.198072 0.853239
O O15 0.083646 0.235459 0.000000
O O16 0.903178 0.500003 0.000000
O O17 0.999996 0.871345 0.000000
O O18 0.000000 0.000000 0.152095
#
# Coordination Sequence:
#
# PCOD8277063 Si02
#       7
#    16  16  16  16  16  16  16
#     4  11  25  42  67  95 128 160 203 258 307 371
#     4  12  25  38  60  87 118 163 201 243 308 368
#     4  10  21  38  59  87 120 156 206 255 303 366
#     4  10  21  43  71  94 123 167 206 251 312 372
#     4  10  21  38  59  87 120 156 206 255 303 366
#     4   9  17  34  63  89 113 155 202 245 301 356
#     4   9  18  34  56  81 119 167 204 248 306 358
#
# _framework density 19.786083000000001
#
# number of rings (size 3 to 8) (size 9 to 14) (size 15 to 20)
#    0.000    1.857    2.857    0.857    2.000    4.000 
#    0.000    4.286    0.000    1.714    0.000    0.000 
#    0.000    0.000    0.000    0.000    0.000    0.000 
#
# Total GULP energy -694351.770705 kJ/mol
# GULP energy per Si atom -12399.138763 kJ/mol
# Density = 1.974105 g / cm^3
# Si number density = 19.786083 Si / 1000 Ang^3
#
#
#
# Elastic Constant Matrix: (Units=GPa)
#
#
# Indices 1 2 3 4 5 6 
#
# 1 181.6379 110.1645 47.5298 0.0000 0.0000 0.0000
# 2 110.1645 195.8946 41.6423 0.0000 0.0000 0.0000
# 3 47.5298 41.6423 102.3008 0.0000 0.0000 0.0000
# 4 0.0000 0.0000 0.0000 19.5134 0.0000 0.0000
# 5 0.0000 0.0000 0.0000 0.0000 19.5850 0.0000
# 6 0.0000 0.0000 0.0000 0.0000 0.0000 37.2572
#
#
#
# Elastic Compliance Matrix: (Units=1/GPa)
#
#
# Indices 1 2 3 4 5 6 
#
# 1 0.008813 -0.004473 -0.002274 0.000000 0.000000 0.000000
# 2 -0.004473 0.007858 -0.001121 0.000000 0.000000 0.000000
# 3 -0.002274 -0.001121 0.011288 0.000000 0.000000 0.000000
# 4 0.000000 0.000000 0.000000 0.051247 0.000000 0.000000
# 5 0.000000 0.000000 0.000000 0.000000 0.051059 0.000000
# 6 0.000000 0.000000 0.000000 0.000000 0.000000 0.026840
#
#
# Mechanical properties :
#
#
# Convention : Reuss Voigt Hill
#
# Bulk Modulus (GPa) = 81.80397 97.61183 89.70790
# Shear Modulus (GPa) = 28.26193 33.97090 31.11641
#
# Velocity S-wave (km/s) = 3.78348 4.14805 3.96996
# Velocity P-wave (km/s) = 7.77948 8.50779 8.15177
#
# Compressibility (1/GPa) = 0.01222435
#
# Stress axis : x y z
#
# Youngs Moduli (GPa) = 113.46386 127.25165 88.59122
#
# Poissons Ratio (x) = 0.56919 0.20146
# Poissons Ratio (y) = 0.50752 0.09928
# Poissons Ratio (z) = 0.25802 0.14261
#
# Static dielectric constant tensor:
#      x y z
#    x 3.634490 0.000000 0.000000 
#    y 0.000000 4.107980 0.000000 
#    z 0.000000 0.000000 3.519590 
# 
# 
# High freq. dielectric constant tensor:
#      x y z
#    x 1.763140 0.000000 0.000000 
#    y 0.000000 1.784620 0.000000 
#    z 0.000000 0.000000 1.777780 
# 
# From -- ./inp_files/33785.got.cif
#   From: 2010.03.12/outbox.cif.g09.slc.cpg/sg66_17_cif.got.tgz:33785.got - 2010.04.10 21:57:39.
