data_PCOD8277670
_publ_section_title
;
Structure prediction by ZEFSAII (Michael W. Deem and Ramdas Pophale) SiO2 
 PCOD8277670
Probable space group: C C C M
;
_chemical_formula_sum "Si O2"
_cell_formula_units_Z 80
_cell_length_a 11.441994
_cell_length_b 15.744451
_cell_length_c 21.945720
_cell_angle_alpha 90.000000
_cell_angle_beta 90.000000
_cell_angle_gamma 90.000000
_cell_volume 3953.475676
_symmetry_space_group_name_H-M "C C C M"
_symmetry_group_IT_number 66
_symmetry_cell_setting 'orthorhombic'
loop_
_space_group_symop_operation_xyz
x,y,z
-x,-y,z
x,-y,1/2-z
-x,y,1/2-z
-x,-y,-z
x,y,-z
-x,y,1/2+z
x,-y,1/2+z
1/2+x,1/2+y,z
1/2-x,1/2-y,z
1/2+x,1/2-y,1/2-z
1/2-x,1/2+y,1/2-z
1/2-x,1/2-y,-z
1/2+x,1/2+y,-z
1/2-x,1/2+y,1/2+z
1/2+x,1/2-y,1/2+z
loop_
_atom_site_type_symbol
_atom_site_label
_atom_site_fract_x
_atom_site_fract_y
_atom_site_fract_z
Si Si1 0.826764 0.666164 0.784064
Si Si2 0.813987 0.971821 0.155432
Si Si3 0.936608 0.310612 0.156630
Si Si4 0.122747 0.455353 0.428833
Si Si5 0.465456 0.625521 0.819635
O O1 0.750000 0.750000 0.791067
O O2 0.758120 0.579215 0.794410
O O3 0.873191 0.655386 0.716395
O O4 0.925769 0.673243 0.835645
O O5 0.927624 0.912971 0.140385
O O6 0.732625 0.990897 0.097006
O O7 0.859626 0.059215 0.184814
O O8 0.883567 0.360976 0.099531
O O9 0.916660 0.209746 0.147446
O O10 0.144080 0.445860 0.500000
O O11 0.000000 0.500000 0.413409
O O12 0.500000 0.649875 0.750000
#
# Coordination Sequence:
#
# PCOD8277670 Si02
#       5
#    16  16  16  16  16
#     4  11  21  38  63  98 132 158 202 257 326 398
#     4  11  23  40  65  92 128 170 205 256 324 385
#     4  11  23  39  61  96 128 163 205 264 320 375
#     4  11  26  45  63  90 128 172 223 271 309 367
#     4  11  23  40  62 100 135 162 200 261 335 391
#
# _framework density 20.23536
#
# number of rings (size 3 to 8) (size 9 to 14) (size 15 to 20)
#    0.000    1.000    6.000    1.200    8.400    0.000 
#    0.000    5.000    0.000    3.600    0.000    0.000 
#    0.000    0.000    0.000    0.000    0.000    0.000 
#
# Total GULP energy -495948.484941 kJ/mol
# GULP energy per Si atom -12398.712124 kJ/mol
# Density = 2.018930 g / cm^3
# Si number density = 20.235360 Si / 1000 Ang^3
#
#
#
# Elastic Constant Matrix: (Units=GPa)
#
#
# Indices 1 2 3 4 5 6 
#
# 1 104.5782 46.6600 41.3434 0.0000 0.0000 0.0000
# 2 46.6600 151.0295 48.9965 0.0000 0.0000 0.0000
# 3 41.3434 48.9965 87.9355 0.0000 0.0000 0.0000
# 4 0.0000 0.0000 0.0000 20.8904 0.0000 0.0000
# 5 0.0000 0.0000 0.0000 0.0000 24.0704 0.0000
# 6 0.0000 0.0000 0.0000 0.0000 0.0000 35.6798
#
#
#
# Elastic Compliance Matrix: (Units=1/GPa)
#
#
# Indices 1 2 3 4 5 6 
#
# 1 0.012402 -0.002368 -0.004512 0.000000 0.000000 0.000000
# 2 -0.002368 0.008534 -0.003642 0.000000 0.000000 0.000000
# 3 -0.004512 -0.003642 0.015522 0.000000 0.000000 0.000000
# 4 0.000000 0.000000 0.000000 0.047869 0.000000 0.000000
# 5 0.000000 0.000000 0.000000 0.000000 0.041545 0.000000
# 6 0.000000 0.000000 0.000000 0.000000 0.000000 0.028027
#
#
# Mechanical properties :
#
#
# Convention : Reuss Voigt Hill
#
# Bulk Modulus (GPa) = 64.86768 68.61591 66.74179
# Shear Modulus (GPa) = 27.76520 29.89766 28.83143
#
# Velocity S-wave (km/s) = 3.70822 3.84799 3.77875
# Velocity P-wave (km/s) = 7.10357 7.32975 7.21755
#
# Compressibility (1/GPa) = 0.01541600
#
# Stress axis : x y z
#
# Youngs Moduli (GPa) = 80.62968 117.17427 64.42325
#
# Poissons Ratio (x) = 0.27747 0.29065
# Poissons Ratio (y) = 0.19093 0.23462
# Poissons Ratio (z) = 0.36377 0.42673
#
# Static dielectric constant tensor:
#      x y z
#    x 4.246750 0.000000 0.000000 
#    y 0.000000 3.855820 0.000000 
#    z 0.000000 0.000000 3.158760 
# 
# 
# High freq. dielectric constant tensor:
#      x y z
#    x 1.816760 0.000000 0.000000 
#    y 0.000000 1.809500 0.000000 
#    z 0.000000 0.000000 1.732010 
# 
# From -- ./inp_files/56566.got.cif
#   From: 2010.03.12/outbox.cif.g09.slc.cpg/sg66_29_cif.got.tgz:56566.got - 2010.04.10 21:57:39.
