data_PCOD8277396
_publ_section_title
;
Structure prediction by ZEFSAII (Michael W. Deem and Ramdas Pophale) SiO2 
 PCOD8277396
Probable space group: C C C M
;
_chemical_formula_sum "Si O2"
_cell_formula_units_Z 68
_cell_length_a 16.218850
_cell_length_b 20.831562
_cell_length_c 9.378189
_cell_angle_alpha 90.000000
_cell_angle_beta 90.000000
_cell_angle_gamma 90.000000
_cell_volume 3168.552255
_symmetry_space_group_name_H-M "C C C M"
_symmetry_group_IT_number 66
_symmetry_cell_setting 'orthorhombic'
loop_
_space_group_symop_operation_xyz
x,y,z
-x,-y,z
x,-y,1/2-z
-x,y,1/2-z
-x,-y,-z
x,y,-z
-x,y,1/2+z
x,-y,1/2+z
1/2+x,1/2+y,z
1/2-x,1/2-y,z
1/2+x,1/2-y,1/2-z
1/2-x,1/2+y,1/2-z
1/2-x,1/2-y,-z
1/2+x,1/2+y,-z
1/2-x,1/2+y,1/2+z
1/2+x,1/2-y,1/2+z
loop_
_atom_site_type_symbol
_atom_site_label
_atom_site_fract_x
_atom_site_fract_y
_atom_site_fract_z
Si Si1 0.332836 0.281630 0.338931
Si Si2 0.684670 0.060354 0.335780
Si Si3 0.500000 0.500000 0.750000
Si Si4 0.133671 0.097149 0.845121
Si Si5 0.919001 0.346277 0.163665
O O1 0.310153 0.301854 0.500000
O O2 0.250000 0.250000 0.269082
O O3 0.368953 0.344912 0.265951
O O4 0.406449 0.230109 0.334552
O O5 0.653191 0.061158 0.500000
O O6 0.783100 0.056452 0.328292
O O7 0.657413 0.123174 0.248808
O O8 0.646973 0.000000 0.250000
O O9 0.558078 0.547298 0.840115
O O10 0.131141 0.130232 0.000000
O O11 0.000000 0.366062 0.250000
O O12 0.923872 0.371259 0.000000
#
# Coordination Sequence:
#
# PCOD8277396 Si02
#       5
#    16  16   4  16  16
#     4  10  22  42  68  96 130 174 221 274 338 399
#     4  11  23  42  67  96 128 172 220 271 330 397
#     4  12  26  48  64 102 144 188 226 274 350 408
#     4  11  25  42  66  97 133 177 226 276 328 399
#     4  11  24  43  66  97 134 173 218 277 335 397
#
# _framework density 21.460906000000001
#
# number of rings (size 3 to 8) (size 9 to 14) (size 15 to 20)
#    0.000    1.176    3.529    1.765    1.647    5.647 
#    0.000    2.353    0.000    0.000    0.000    0.000 
#    0.000    0.000    0.000    0.000    0.000    0.000 
#
# Total GULP energy -421522.080341 kJ/mol
# GULP energy per Si atom -12397.708245 kJ/mol
# Density = 2.141206 g / cm^3
# Si number density = 21.460906 Si / 1000 Ang^3
#
#
#
# Elastic Constant Matrix: (Units=GPa)
#
#
# Indices 1 2 3 4 5 6 
#
# 1 99.1860 23.6774 41.8724 0.0000 0.0000 0.0000
# 2 23.6774 116.5150 65.8849 0.0000 0.0000 0.0000
# 3 41.8724 65.8849 166.3332 0.0000 0.0000 0.0000
# 4 0.0000 0.0000 0.0000 31.8252 0.0000 0.0000
# 5 0.0000 0.0000 0.0000 0.0000 21.0902 0.0000
# 6 0.0000 0.0000 0.0000 0.0000 0.0000 37.0493
#
#
#
# Elastic Compliance Matrix: (Units=1/GPa)
#
#
# Indices 1 2 3 4 5 6 
#
# 1 0.011352 -0.000890 -0.002505 0.000000 0.000000 0.000000
# 2 -0.000890 0.011130 -0.004184 0.000000 0.000000 0.000000
# 3 -0.002505 -0.004184 0.008300 0.000000 0.000000 0.000000
# 4 0.000000 0.000000 0.000000 0.031422 0.000000 0.000000
# 5 0.000000 0.000000 0.000000 0.000000 0.047415 0.000000
# 6 0.000000 0.000000 0.000000 0.000000 0.000000 0.026991
#
#
# Mechanical properties :
#
#
# Convention : Reuss Voigt Hill
#
# Bulk Modulus (GPa) = 64.01121 71.65597 67.83359
# Shear Modulus (GPa) = 31.85180 34.69957 33.27569
#
# Velocity S-wave (km/s) = 3.85668 4.02540 3.94194
# Velocity P-wave (km/s) = 7.05150 7.42069 7.23845
#
# Compressibility (1/GPa) = 0.01562226
#
# Stress axis : x y z
#
# Youngs Moduli (GPa) = 88.08895 89.85054 120.48095
#
# Poissons Ratio (x) = 0.08000 0.30182
# Poissons Ratio (y) = 0.07843 0.50413
# Poissons Ratio (z) = 0.22067 0.37596
#
# Static dielectric constant tensor:
#      x y z
#    x 3.749750 0.000000 0.000000 
#    y 0.000000 3.642840 0.000000 
#    z 0.000000 0.000000 3.900300 
# 
# 
# High freq. dielectric constant tensor:
#      x y z
#    x 1.838510 0.000000 0.000000 
#    y 0.000000 1.839740 0.000000 
#    z 0.000000 0.000000 1.846250 
# 
# From -- ./inp_files/6274.got.cif
#   From: 2010.03.12/outbox.cif.g09.slc.cpg/sg66_4_cif.got.tgz:6274.got - 2010.04.10 21:57:39.
