data_PCOD8277068
_publ_section_title
;
Structure prediction by ZEFSAII (Michael W. Deem and Ramdas Pophale) SiO2 
 PCOD8277068
Probable space group: C C C M
;
_chemical_formula_sum "Si O2"
_cell_formula_units_Z 64
_cell_length_a 26.472095
_cell_length_b 7.355821
_cell_length_c 16.824054
_cell_angle_alpha 90.000000
_cell_angle_beta 90.000000
_cell_angle_gamma 90.000000
_cell_volume 3276.046962
_symmetry_space_group_name_H-M "C C C M"
_symmetry_group_IT_number 66
_symmetry_cell_setting 'orthorhombic'
loop_
_space_group_symop_operation_xyz
x,y,z
-x,-y,z
x,-y,1/2-z
-x,y,1/2-z
-x,-y,-z
x,y,-z
-x,y,1/2+z
x,-y,1/2+z
1/2+x,1/2+y,z
1/2-x,1/2-y,z
1/2+x,1/2-y,1/2-z
1/2-x,1/2+y,1/2-z
1/2-x,1/2-y,-z
1/2+x,1/2+y,-z
1/2-x,1/2+y,1/2+z
1/2+x,1/2-y,1/2+z
loop_
_atom_site_type_symbol
_atom_site_label
_atom_site_fract_x
_atom_site_fract_y
_atom_site_fract_z
Si Si1 0.192485 0.791670 0.239357
Si Si2 0.367390 0.768909 0.909978
Si Si3 0.943258 0.055693 0.591816
Si Si4 0.102749 0.606404 0.325232
O O1 0.250000 0.750000 0.260458
O O2 0.180760 0.741665 0.147896
O O3 0.158362 0.675294 0.299563
O O4 0.179404 0.000000 0.250000
O O5 0.407256 0.612725 0.886891
O O6 0.393208 0.965960 0.898514
O O7 0.348416 0.748100 0.000000
O O8 0.936494 0.112379 0.500000
O O9 0.931448 0.225924 0.648135
O O10 0.000000 0.000000 0.610902
O O11 0.077937 0.500000 0.250000
#
# Coordination Sequence:
#
# PCOD8277068 Si02
#       4
#    16  16  16  16
#     4  11  21  39  61  85 118 158 199 247 307 359
#     4  10  21  38  61  88 120 157 200 251 299 356
#     4  10  21  39  63  88 123 165 201 248 306 358
#     4  10  21  38  60  87 120 160 198 253 300 356
#
# _framework density 19.535739
#
# number of rings (size 3 to 8) (size 9 to 14) (size 15 to 20)
#    0.000    1.750    2.500    3.000    0.000    1.500 
#    0.000   17.500    0.000    3.750    0.000    0.000 
#    0.000    0.000    0.000    0.000    0.000    0.000 
#
# Total GULP energy -396802.153258 kJ/mol
# GULP energy per Si atom -12400.067289 kJ/mol
# Density = 1.949127 g / cm^3
# Si number density = 19.535739 Si / 1000 Ang^3
#
#
#
# Elastic Constant Matrix: (Units=GPa)
#
#
# Indices 1 2 3 4 5 6 
#
# 1 94.0847 43.1193 44.7502 0.0000 0.0000 0.0000
# 2 43.1193 152.9760 58.2627 0.0000 0.0000 0.0000
# 3 44.7502 58.2627 86.8120 0.0000 0.0000 0.0000
# 4 0.0000 0.0000 0.0000 36.2394 0.0000 0.0000
# 5 0.0000 0.0000 0.0000 0.0000 24.4460 0.0000
# 6 0.0000 0.0000 0.0000 0.0000 0.0000 26.9907
#
#
#
# Elastic Compliance Matrix: (Units=1/GPa)
#
#
# Indices 1 2 3 4 5 6 
#
# 1 0.014386 -0.001653 -0.006306 0.000000 0.000000 0.000000
# 2 -0.001653 0.008972 -0.005169 0.000000 0.000000 0.000000
# 3 -0.006306 -0.005169 0.018239 0.000000 0.000000 0.000000
# 4 0.000000 0.000000 0.000000 0.027594 0.000000 0.000000
# 5 0.000000 0.000000 0.000000 0.000000 0.040907 0.000000
# 6 0.000000 0.000000 0.000000 0.000000 0.000000 0.037050
#
#
# Mechanical properties :
#
#
# Convention : Reuss Voigt Hill
#
# Bulk Modulus (GPa) = 65.19005 69.57079 67.38042
# Shear Modulus (GPa) = 28.00854 30.05124 29.02989
#
# Velocity S-wave (km/s) = 3.79054 3.92633 3.85903
# Velocity P-wave (km/s) = 7.25256 7.49961 7.37712
#
# Compressibility (1/GPa) = 0.01533976
#
# Stress axis : x y z
#
# Youngs Moduli (GPa) = 69.51294 111.46251 54.82759
#
# Poissons Ratio (x) = 0.18426 0.34575
# Poissons Ratio (y) = 0.11492 0.28340
# Poissons Ratio (z) = 0.43836 0.57615
#
# Static dielectric constant tensor:
#      x y z
#    x 3.293930 0.000000 0.000000 
#    y 0.000000 3.891050 0.000000 
#    z 0.000000 0.000000 3.610830 
# 
# 
# High freq. dielectric constant tensor:
#      x y z
#    x 1.739860 0.000000 0.000000 
#    y 0.000000 1.788080 0.000000 
#    z 0.000000 0.000000 1.759120 
# 
# From -- ./inp_files/24167.got.cif
#   From: 2010.03.12/outbox.cif.g09.slc.cpg/sg66_13_cif.got.tgz:24167.got - 2010.04.10 21:57:39.
