data_PCOD8277041
_publ_section_title
;
Structure prediction by ZEFSAII (Michael W. Deem and Ramdas Pophale) SiO2 
 PCOD8277041
Probable space group: C C C M
;
_chemical_formula_sum "Si O2"
_cell_formula_units_Z 68
_cell_length_a 18.342434
_cell_length_b 7.329476
_cell_length_c 21.673949
_cell_angle_alpha 90.000000
_cell_angle_beta 90.000000
_cell_angle_gamma 90.000000
_cell_volume 2913.855019
_symmetry_space_group_name_H-M "C C C M"
_symmetry_group_IT_number 66
_symmetry_cell_setting 'orthorhombic'
loop_
_space_group_symop_operation_xyz
x,y,z
-x,-y,z
x,-y,1/2-z
-x,y,1/2-z
-x,-y,-z
x,y,-z
-x,y,1/2+z
x,-y,1/2+z
1/2+x,1/2+y,z
1/2-x,1/2-y,z
1/2+x,1/2-y,1/2-z
1/2-x,1/2+y,1/2-z
1/2-x,1/2-y,-z
1/2+x,1/2+y,-z
1/2-x,1/2+y,1/2+z
1/2+x,1/2-y,1/2+z
loop_
_atom_site_type_symbol
_atom_site_label
_atom_site_fract_x
_atom_site_fract_y
_atom_site_fract_z
Si Si1 0.923935 0.883473 0.365274
Si Si2 0.836131 0.419070 0.069644
Si Si3 0.195670 0.102365 0.071323
Si Si4 0.957796 0.683128 0.930414
Si Si5 0.500000 0.500000 0.750000
O O1 0.871144 0.714601 0.380306
O O2 0.006371 0.849706 0.391569
O O3 0.880872 0.062838 0.393040
O O4 0.941714 0.889963 0.292403
O O5 0.748233 0.422025 0.074416
O O6 0.871319 0.628304 0.080036
O O7 0.860207 0.358459 0.000000
O O8 0.250000 0.250000 0.102024
O O9 0.176566 0.146835 0.000000
O O10 0.000000 0.500000 0.911324
O O11 0.974604 0.737376 0.000000
#
# Coordination Sequence:
#
# PCOD8277041 Si02
#       5
#    16  16  16  16   4
#     4  11  22  42  61  81 132 175 218 272 304 368
#     4   9  18  37  69 105 129 154 200 263 347 424
#     4  10  21  37  66 106 136 156 195 265 352 418
#     4   8  15  31  62  98 123 151 195 255 336 403
#     4  12  32  44  56  84 124 176 252 266 280 360
#
# _framework density 23.336781999999999
#
# number of rings (size 3 to 8) (size 9 to 14) (size 15 to 20)
#    0.000    2.353    0.000    4.235    3.294    1.882 
#    0.000   11.765    0.000    0.000    0.000    0.000 
#    0.000    0.000    0.000    0.000    0.000    0.000 
#
# Total GULP energy -421196.502890 kJ/mol
# GULP energy per Si atom -12388.132438 kJ/mol
# Density = 2.328367 g / cm^3
# Si number density = 23.336782 Si / 1000 Ang^3
#
#
#
# Elastic Constant Matrix: (Units=GPa)
#
#
# Indices 1 2 3 4 5 6 
#
# 1 225.4359 49.3947 61.7649 0.0000 0.0000 0.0000
# 2 49.3947 96.2916 47.1773 0.0000 0.0000 0.0000
# 3 61.7649 47.1773 135.2422 0.0000 0.0000 0.0000
# 4 0.0000 0.0000 0.0000 21.8280 0.0000 0.0000
# 5 0.0000 0.0000 0.0000 0.0000 37.6194 0.0000
# 6 0.0000 0.0000 0.0000 0.0000 0.0000 32.7940
#
#
#
# Elastic Compliance Matrix: (Units=1/GPa)
#
#
# Indices 1 2 3 4 5 6 
#
# 1 0.005333 -0.001860 -0.001787 0.000000 0.000000 0.000000
# 2 -0.001860 0.013175 -0.003746 0.000000 0.000000 0.000000
# 3 -0.001787 -0.003746 0.009517 0.000000 0.000000 0.000000
# 4 0.000000 0.000000 0.000000 0.045813 0.000000 0.000000
# 5 0.000000 0.000000 0.000000 0.000000 0.026582 0.000000
# 6 0.000000 0.000000 0.000000 0.000000 0.000000 0.030493
#
#
# Mechanical properties :
#
#
# Convention : Reuss Voigt Hill
#
# Bulk Modulus (GPa) = 75.53803 85.96039 80.74921
# Shear Modulus (GPa) = 33.30849 38.35715 35.83282
#
# Velocity S-wave (km/s) = 3.78206 4.05857 3.92275
# Velocity P-wave (km/s) = 7.17711 7.67316 7.42927
#
# Compressibility (1/GPa) = 0.01323836
#
# Stress axis : x y z
#
# Youngs Moduli (GPa) = 187.51338 75.90214 105.07615
#
# Poissons Ratio (x) = 0.14120 0.18773
# Poissons Ratio (y) = 0.34883 0.39364
# Poissons Ratio (z) = 0.33501 0.28435
#
# Static dielectric constant tensor:
#      x y z
#    x 5.098130 0.000000 0.000000 
#    y 0.000000 4.755920 0.000000 
#    z 0.000000 0.000000 3.401770 
# 
# 
# High freq. dielectric constant tensor:
#      x y z
#    x 1.990200 0.000000 0.000000 
#    y 0.000000 1.976250 0.000000 
#    z 0.000000 0.000000 1.822420 
# 
# From -- ./inp_files/42521.got.cif
#   From: 2010.03.12/outbox.cif.g09.slc.cpg/sg66_22_cif.got.tgz:42521.got - 2010.04.10 21:57:39.
