data_PCOD8277924
_publ_section_title
;
Structure prediction by ZEFSAII (Michael W. Deem and Ramdas Pophale) SiO2 
 PCOD8277924
Probable space group: C C C M
;
_chemical_formula_sum "Si O2"
_cell_formula_units_Z 68
_cell_length_a 28.525312
_cell_length_b 15.052565
_cell_length_c 9.758119
_cell_angle_alpha 90.000000
_cell_angle_beta 90.000000
_cell_angle_gamma 90.000000
_cell_volume 4189.932481
_symmetry_space_group_name_H-M "C C C M"
_symmetry_group_IT_number 66
_symmetry_cell_setting 'orthorhombic'
loop_
_space_group_symop_operation_xyz
x,y,z
-x,-y,z
x,-y,1/2-z
-x,y,1/2-z
-x,-y,-z
x,y,-z
-x,y,1/2+z
x,-y,1/2+z
1/2+x,1/2+y,z
1/2-x,1/2-y,z
1/2+x,1/2-y,1/2-z
1/2-x,1/2+y,1/2-z
1/2-x,1/2-y,-z
1/2+x,1/2+y,-z
1/2-x,1/2+y,1/2+z
1/2+x,1/2-y,1/2+z
loop_
_atom_site_type_symbol
_atom_site_label
_atom_site_fract_x
_atom_site_fract_y
_atom_site_fract_z
Si Si1 0.959944 0.171570 0.844910
Si Si2 0.319809 0.083117 0.658517
Si Si3 0.359209 0.732260 0.162319
Si Si4 0.000000 0.000000 0.250000
Si Si5 0.710952 0.583011 0.658573
O O1 0.909650 0.199434 0.783431
O O2 0.000000 0.217044 0.750000
O O3 0.966343 0.063925 0.841235
O O4 0.965666 0.205816 0.000000
O O5 0.330764 0.061293 0.500000
O O6 0.348909 0.167901 0.713126
O O7 0.265320 0.106099 0.678730
O O8 0.335558 0.000000 0.750000
O O9 0.318760 0.666219 0.214917
O O10 0.358251 0.730906 0.000000
O O11 0.695776 0.500000 0.750000
O O12 0.699699 0.561390 0.500000
#
# Coordination Sequence:
#
# PCOD8277924 Si02
#       5
#    16  16  16   4  16
#     4   9  18  30  46  66  91 119 148 182 221 268
#     4   9  17  31  49  67  91 121 155 192 228 267
#     4   9  17  30  48  68  91 124 158 184 221 277
#     4   8  18  28  46  64  92 116 146 184 218 268
#     4   9  17  28  45  69  95 123 153 185 223 269
#
# _framework density 16.229378000000001
#
# number of rings (size 3 to 8) (size 9 to 14) (size 15 to 20)
#    0.706    2.353    0.000    1.059    1.647    2.824 
#    0.000    3.529    0.000    6.353    0.000    4.941 
#    0.000    0.000    0.000    0.000    0.000    0.000 
#
# Total GULP energy -421383.816314 kJ/mol
# GULP energy per Si atom -12393.641656 kJ/mol
# Density = 1.619244 g / cm^3
# Si number density = 16.229378 Si / 1000 Ang^3
#
#
#
# Elastic Constant Matrix: (Units=GPa)
#
#
# Indices 1 2 3 4 5 6 
#
# 1 93.8353 70.9999 30.7805 0.0000 0.0000 0.0000
# 2 70.9999 130.5315 38.0862 0.0000 0.0000 0.0000
# 3 30.7805 38.0862 51.5125 0.0000 0.0000 0.0000
# 4 0.0000 0.0000 0.0000 23.5219 0.0000 0.0000
# 5 0.0000 0.0000 0.0000 0.0000 16.1036 0.0000
# 6 0.0000 0.0000 0.0000 0.0000 0.0000 28.1489
#
#
#
# Elastic Compliance Matrix: (Units=1/GPa)
#
#
# Indices 1 2 3 4 5 6 
#
# 1 0.018972 -0.008940 -0.004726 0.000000 0.000000 0.000000
# 2 -0.008940 0.013981 -0.004995 0.000000 0.000000 0.000000
# 3 -0.004726 -0.004995 0.025930 0.000000 0.000000 0.000000
# 4 0.000000 0.000000 0.000000 0.042514 0.000000 0.000000
# 5 0.000000 0.000000 0.000000 0.000000 0.062098 0.000000
# 6 0.000000 0.000000 0.000000 0.000000 0.000000 0.035525
#
#
# Mechanical properties :
#
#
# Convention : Reuss Voigt Hill
#
# Bulk Modulus (GPa) = 46.38228 61.73472 54.05850
# Shear Modulus (GPa) = 20.53133 22.62240 21.57686
#
# Velocity S-wave (km/s) = 3.56064 3.73757 3.65018
# Velocity P-wave (km/s) = 6.74874 7.53308 7.15167
#
# Compressibility (1/GPa) = 0.02155996
#
# Stress axis : x y z
#
# Youngs Moduli (GPa) = 52.70917 71.52370 38.56533
#
# Poissons Ratio (x) = 0.63945 0.18227
# Poissons Ratio (y) = 0.47124 0.19264
# Poissons Ratio (z) = 0.24912 0.35726
#
# Static dielectric constant tensor:
#      x y z
#    x 3.096050 0.000000 0.000000 
#    y 0.000000 3.060040 0.000000 
#    z 0.000000 0.000000 2.844020 
# 
# 
# High freq. dielectric constant tensor:
#      x y z
#    x 1.617120 0.000000 0.000000 
#    y 0.000000 1.612090 0.000000 
#    z 0.000000 0.000000 1.601220 
# 
# From -- ./inp_files/14807.got.cif
#   From: 2010.03.12/outbox.cif.g09.slc.cpg/sg66_8_cif.got.tgz:14807.got - 2010.04.10 21:57:39.
