data_PCOD8277453
_publ_section_title
;
Structure prediction by ZEFSAII (Michael W. Deem and Ramdas Pophale) SiO2 
 PCOD8277453
Probable space group: C C C M
;
_chemical_formula_sum "Si O2"
_cell_formula_units_Z 116
_cell_length_a 8.337525
_cell_length_b 23.108205
_cell_length_c 28.843660
_cell_angle_alpha 90.000000
_cell_angle_beta 90.000000
_cell_angle_gamma 90.000000
_cell_volume 5557.170587
_symmetry_space_group_name_H-M "C C C M"
_symmetry_group_IT_number 66
_symmetry_cell_setting 'orthorhombic'
loop_
_space_group_symop_operation_xyz
x,y,z
-x,-y,z
x,-y,1/2-z
-x,y,1/2-z
-x,-y,-z
x,y,-z
-x,y,1/2+z
x,-y,1/2+z
1/2+x,1/2+y,z
1/2-x,1/2-y,z
1/2+x,1/2-y,1/2-z
1/2-x,1/2+y,1/2-z
1/2-x,1/2-y,-z
1/2+x,1/2+y,-z
1/2-x,1/2+y,1/2+z
1/2+x,1/2-y,1/2+z
loop_
_atom_site_type_symbol
_atom_site_label
_atom_site_fract_x
_atom_site_fract_y
_atom_site_fract_z
Si Si1 0.173104 0.527638 0.551604
Si Si2 0.644499 0.693399 0.286475
Si Si3 0.618610 0.452284 0.110868
Si Si4 0.524866 0.330924 0.381133
Si Si5 0.564572 0.765565 0.948515
Si Si6 0.139108 0.592754 0.815161
Si Si7 0.873447 0.365330 0.383517
Si Si8 0.500000 0.000000 0.250000
O O1 0.211703 0.551534 0.500000
O O2 0.305721 0.479166 0.564112
O O3 0.180989 0.577549 0.589637
O O4 0.000000 0.500000 0.552742
O O5 0.500000 0.686916 0.250000
O O6 0.750000 0.750000 0.276325
O O7 0.571699 0.693718 0.337692
O O8 0.765193 0.639164 0.284165
O O9 0.500000 0.500000 0.133671
O O10 0.523392 0.393826 0.100031
O O11 0.760973 0.436958 0.144818
O O12 0.480263 0.287874 0.422858
O O13 0.712904 0.331954 0.366881
O O14 0.750000 0.750000 0.952430
O O15 0.531050 0.823909 0.919165
O O16 0.491165 0.773776 0.000000
O O17 0.980417 0.621179 0.838216
O O18 0.108489 0.540367 0.781190
#
# Coordination Sequence:
#
# PCOD8277453 Si02
#       8
#    16  16  16  16  16  16  16   4
#     4  11  22  37  61  94 130 176 229 273 327 402
#     4  11  27  46  70  99 133 173 228 284 343 413
#     4  11  22  41  62  90 130 177 219 275 337 399
#     4  10  23  40  66  95 130 175 217 276 344 396
#     4   9  19  36  61  95 126 164 214 262 319 391
#     4  11  26  43  68  97 133 171 223 279 341 415
#     4  11  20  40  69  90 133 173 219 272 339 399
#     4  12  28  40  70 100 130 176 218 282 344 408
#
# _framework density 20.873930999999999
#
# number of rings (size 3 to 8) (size 9 to 14) (size 15 to 20)
#    0.000    1.379    2.759    2.069    2.897    4.138 
#    0.000    0.000    0.000    3.724    0.000    0.000 
#    0.000    0.000    0.000    0.000    0.000    0.000 
#
# Total GULP energy -719150.453529 kJ/mol
# GULP energy per Si atom -12399.145751 kJ/mol
# Density = 2.082642 g / cm^3
# Si number density = 20.873931 Si / 1000 Ang^3
#
#
#
# Elastic Constant Matrix: (Units=GPa)
#
#
# Indices 1 2 3 4 5 6 
#
# 1 90.8371 42.6701 37.3981 0.0000 0.0000 0.0000
# 2 42.6701 130.8090 63.2142 0.0000 0.0000 0.0000
# 3 37.3981 63.2142 90.9350 0.0000 0.0000 0.0000
# 4 0.0000 0.0000 0.0000 42.2696 0.0000 0.0000
# 5 0.0000 0.0000 0.0000 0.0000 12.1170 0.0000
# 6 0.0000 0.0000 0.0000 0.0000 0.0000 -5.8576
#
#
#
# Elastic Compliance Matrix: (Units=1/GPa)
#
#
# Indices 1 2 3 4 5 6 
#
# 1 0.013840 -0.002656 -0.003845 0.000000 0.000000 0.000000
# 2 -0.002656 0.012022 -0.007265 0.000000 0.000000 0.000000
# 3 -0.003845 -0.007265 0.017628 0.000000 0.000000 0.000000
# 4 0.000000 0.000000 0.000000 0.023658 0.000000 0.000000
# 5 0.000000 0.000000 0.000000 0.000000 0.082529 0.000000
# 6 0.000000 0.000000 0.000000 0.000000 0.000000 -0.170718
#
#
# Mechanical properties :
#
#
# Convention : Reuss Voigt Hill
#
# Bulk Modulus (GPa) = 62.66626 66.57176 64.61901
# Shear Modulus (GPa) = 423.39160 20.99239 222.19199
#
# Velocity S-wave (km/s) = 14.25739 3.17468 10.32840
# Velocity P-wave (km/s) = 17.35273 6.73793 13.16277
#
# Compressibility (1/GPa) = 0.01595755
#
# Stress axis : x y z
#
# Youngs Moduli (GPa) = 72.25672 83.18129 56.72683
#
# Poissons Ratio (x) = 0.22095 0.21812
# Poissons Ratio (y) = 0.19194 0.41210
# Poissons Ratio (z) = 0.27784 0.60429
#
# Static dielectric constant tensor:
#      x y z
#    x 3.878560 0.000000 0.000000 
#    y 0.000000 4.006000 0.000000 
#    z 0.000000 0.000000 4.507240 
# 
# 
# High freq. dielectric constant tensor:
#      x y z
#    x 1.818640 0.000000 0.000000 
#    y 0.000000 1.832430 0.000000 
#    z 0.000000 0.000000 1.809560 
# 
# From -- ./inp_files/62916.got.cif
#   From: 2010.03.12/outbox.cif.g09.slc.cpg/sg66_32_cif.got.tgz:62916.got - 2010.04.10 21:57:39.
