data_PCOD8277189
_publ_section_title
;
Structure prediction by ZEFSAII (Michael W. Deem and Ramdas Pophale) SiO2 
 PCOD8277189
Probable space group: C C C M
;
_chemical_formula_sum "Si O2"
_cell_formula_units_Z 120
_cell_length_a 11.619792
_cell_length_b 25.719407
_cell_length_c 18.583221
_cell_angle_alpha 90.000000
_cell_angle_beta 90.000000
_cell_angle_gamma 90.000000
_cell_volume 5553.672897
_symmetry_space_group_name_H-M "C C C M"
_symmetry_group_IT_number 66
_symmetry_cell_setting 'orthorhombic'
loop_
_space_group_symop_operation_xyz
x,y,z
-x,-y,z
x,-y,1/2-z
-x,y,1/2-z
-x,-y,-z
x,y,-z
-x,y,1/2+z
x,-y,1/2+z
1/2+x,1/2+y,z
1/2-x,1/2-y,z
1/2+x,1/2-y,1/2-z
1/2-x,1/2+y,1/2-z
1/2-x,1/2-y,-z
1/2+x,1/2+y,-z
1/2-x,1/2+y,1/2+z
1/2+x,1/2-y,1/2+z
loop_
_atom_site_type_symbol
_atom_site_label
_atom_site_fract_x
_atom_site_fract_y
_atom_site_fract_z
Si Si1 0.551445 0.109304 0.581941
Si Si2 0.258579 0.536439 0.584893
Si Si3 0.704378 0.921360 0.582308
Si Si4 0.652717 0.357090 0.808810
Si Si5 0.898006 0.116124 0.345192
Si Si6 0.361318 0.284672 0.080143
Si Si7 0.750000 0.250000 0.174547
Si Si8 0.013877 0.711070 0.835907
O O1 0.577044 0.126905 0.500000
O O2 0.650311 0.071052 0.611747
O O3 0.433095 0.077555 0.586294
O O4 0.544757 0.160728 0.629993
O O5 0.265882 0.537702 0.500000
O O6 0.247563 0.477179 0.610698
O O7 0.376002 0.559910 0.618764
O O8 0.744714 0.910147 0.500000
O O9 0.751961 0.877480 0.635789
O O10 0.653205 0.388524 0.734793
O O11 0.530389 0.366041 0.847367
O O12 0.679114 0.296583 0.785502
O O13 0.827374 0.157656 0.393449
O O14 0.250000 0.250000 0.080218
O O15 0.451577 0.262532 0.136958
O O16 0.415084 0.286917 0.000000
O O17 0.853207 0.281974 0.135643
O O18 0.000000 0.706641 0.750000
#
# Coordination Sequence:
#
# PCOD8277189 Si02
#       8
#    16  16  16  16  16  16   8  16
#     4  10  21  40  63  96 131 162 210 268 322 379
#     4  10  22  41  68  95 124 168 214 265 325 378
#     4  10  22  42  66  94 129 168 212 263 322 388
#     4  11  25  44  64  93 126 168 215 261 322 384
#     4  11  24  42  64  91 128 164 211 269 316 379
#     4  11  24  41  63  92 127 168 216 268 317 376
#     4  12  24  44  61  90 129 170 212 252 324 390
#     4  12  25  39  65  94 129 172 214 263 324 395
#
# _framework density 21.607320999999999
#
# number of rings (size 3 to 8) (size 9 to 14) (size 15 to 20)
#    0.000    1.200    2.667    2.800    5.600    5.867 
#    0.000    4.333    0.000    2.400    0.000    0.000 
#    0.000    0.000    0.000    0.000    0.000    0.000 
#
# Total GULP energy -743653.019896 kJ/mol
# GULP energy per Si atom -12394.216998 kJ/mol
# Density = 2.155814 g / cm^3
# Si number density = 21.607321 Si / 1000 Ang^3
#
#
#
# Elastic Constant Matrix: (Units=GPa)
#
#
# Indices 1 2 3 4 5 6 
#
# 1 77.3306 21.4912 23.5482 0.0000 0.0000 0.0000
# 2 21.4912 110.4454 35.3781 0.0000 0.0000 0.0000
# 3 23.5482 35.3781 79.3602 0.0000 0.0000 0.0000
# 4 0.0000 0.0000 0.0000 25.1117 0.0000 0.0000
# 5 0.0000 0.0000 0.0000 0.0000 22.9093 0.0000
# 6 0.0000 0.0000 0.0000 0.0000 0.0000 35.5123
#
#
#
# Elastic Compliance Matrix: (Units=1/GPa)
#
#
# Indices 1 2 3 4 5 6 
#
# 1 0.014479 -0.001681 -0.003547 0.000000 0.000000 0.000000
# 2 -0.001681 0.010758 -0.004297 0.000000 0.000000 0.000000
# 3 -0.003547 -0.004297 0.015569 0.000000 0.000000 0.000000
# 4 0.000000 0.000000 0.000000 0.039822 0.000000 0.000000
# 5 0.000000 0.000000 0.000000 0.000000 0.043650 0.000000
# 6 0.000000 0.000000 0.000000 0.000000 0.000000 0.028159
#
#
# Mechanical properties :
#
#
# Convention : Reuss Voigt Hill
#
# Bulk Modulus (GPa) = 45.96534 47.55236 46.75885
# Shear Modulus (GPa) = 27.97383 29.15457 28.56420
#
# Velocity S-wave (km/s) = 3.60202 3.67726 3.63983
# Velocity P-wave (km/s) = 6.21439 6.33126 6.27310
#
# Compressibility (1/GPa) = 0.02175552
#
# Stress axis : x y z
#
# Youngs Moduli (GPa) = 69.06669 92.95598 64.23154
#
# Poissons Ratio (x) = 0.15628 0.22781
# Poissons Ratio (y) = 0.11612 0.27599
# Poissons Ratio (z) = 0.24496 0.39942
#
# Static dielectric constant tensor:
#      x y z
#    x 4.087230 0.000000 0.000000 
#    y 0.000000 4.090760 0.000000 
#    z 0.000000 0.000000 3.769240 
# 
# 
# High freq. dielectric constant tensor:
#      x y z
#    x 1.855010 0.000000 0.000000 
#    y 0.000000 1.857840 0.000000 
#    z 0.000000 0.000000 1.831700 
# 
# From -- ./inp_files/49087.got.cif
#   From: 2010.03.12/outbox.cif.g09.slc.cpg/sg66_25_cif.got.tgz:49087.got - 2010.04.10 21:57:39.
