data_PCOD8277668
_publ_section_title
;
Structure prediction by ZEFSAII (Michael W. Deem and Ramdas Pophale) SiO2 
 PCOD8277668
Probable space group: C C C M
;
_chemical_formula_sum "Si O2"
_cell_formula_units_Z 68
_cell_length_a 12.107940
_cell_length_b 14.791813
_cell_length_c 18.331700
_cell_angle_alpha 90.000000
_cell_angle_beta 90.000000
_cell_angle_gamma 90.000000
_cell_volume 3283.177851
_symmetry_space_group_name_H-M "C C C M"
_symmetry_group_IT_number 66
_symmetry_cell_setting 'orthorhombic'
loop_
_space_group_symop_operation_xyz
x,y,z
-x,-y,z
x,-y,1/2-z
-x,y,1/2-z
-x,-y,-z
x,y,-z
-x,y,1/2+z
x,-y,1/2+z
1/2+x,1/2+y,z
1/2-x,1/2-y,z
1/2+x,1/2-y,1/2-z
1/2-x,1/2+y,1/2-z
1/2-x,1/2-y,-z
1/2+x,1/2+y,-z
1/2-x,1/2+y,1/2+z
1/2+x,1/2-y,1/2+z
loop_
_atom_site_type_symbol
_atom_site_label
_atom_site_fract_x
_atom_site_fract_y
_atom_site_fract_z
Si Si1 0.986472 0.327263 0.349520
Si Si2 0.539225 0.100908 0.000000
Si Si3 0.118874 0.853927 0.157644
Si Si4 0.826889 0.603225 0.260649
Si Si5 0.786028 0.147336 0.000000
Si Si6 0.000000 0.000000 0.750000
O O1 0.985371 0.342317 0.434986
O O2 0.031953 0.227219 0.330983
O O3 0.069451 0.401023 0.315395
O O4 0.865441 0.345749 0.314233
O O5 0.500000 0.000000 0.000000
O O6 0.671794 0.092264 0.000000
O O7 0.233086 0.835443 0.200819
O O8 0.071601 0.942719 0.194202
O O9 0.142245 0.873283 0.072050
O O10 0.786479 0.500000 0.250000
O O11 0.750000 0.250000 0.000000
#
# Coordination Sequence:
#
# PCOD8277668 Si02
#       6
#    16   8  16  16   8   4
#     4  11  22  37  65  97 130 173 219 281 338 401
#     4  12  22  36  64 104 134 167 224 280 343 403
#     4  12  24  44  65  97 135 176 234 274 342 410
#     4  11  21  38  61  93 131 169 220 283 334 393
#     4  12  22  43  70  97 130 184 223 276 342 412
#     4  12  28  42  68  98 130 190 224 284 348 404
#
# _framework density 20.711641
#
# number of rings (size 3 to 8) (size 9 to 14) (size 15 to 20)
#    0.000    0.471    5.882    4.941    0.000    0.471 
#    0.000    0.000    0.000    0.000    0.000   19.765 
#    0.000    0.000    0.000    0.000    0.000    0.000 
#
# Total GULP energy -421468.095245 kJ/mol
# GULP energy per Si atom -12396.120448 kJ/mol
# Density = 2.066450 g / cm^3
# Si number density = 20.711641 Si / 1000 Ang^3
#
#
#
# Elastic Constant Matrix: (Units=GPa)
#
#
# Indices 1 2 3 4 5 6 
#
# 1 81.2835 40.6301 55.9186 0.0000 0.0000 0.0000
# 2 40.6301 125.3323 54.5909 0.0000 0.0000 0.0000
# 3 55.9186 54.5909 186.9824 0.0000 0.0000 0.0000
# 4 0.0000 0.0000 0.0000 33.8535 0.0000 0.0000
# 5 0.0000 0.0000 0.0000 0.0000 33.2444 0.0000
# 6 0.0000 0.0000 0.0000 0.0000 0.0000 26.8110
#
#
#
# Elastic Compliance Matrix: (Units=1/GPa)
#
#
# Indices 1 2 3 4 5 6 
#
# 1 0.016903 -0.003755 -0.003959 0.000000 0.000000 0.000000
# 2 -0.003755 0.009976 -0.001789 0.000000 0.000000 0.000000
# 3 -0.003959 -0.001789 0.007054 0.000000 0.000000 0.000000
# 4 0.000000 0.000000 0.000000 0.029539 0.000000 0.000000
# 5 0.000000 0.000000 0.000000 0.000000 0.030080 0.000000
# 6 0.000000 0.000000 0.000000 0.000000 0.000000 0.037298
#
#
# Mechanical properties :
#
#
# Convention : Reuss Voigt Hill
#
# Bulk Modulus (GPa) = 66.99561 77.31971 72.15766
# Shear Modulus (GPa) = 32.29293 34.94568 33.61931
#
# Velocity S-wave (km/s) = 3.95291 4.11207 4.03328
# Velocity P-wave (km/s) = 7.29734 7.74326 7.52360
#
# Compressibility (1/GPa) = 0.01492635
#
# Stress axis : x y z
#
# Youngs Moduli (GPa) = 59.16087 100.24467 141.75619
#
# Poissons Ratio (x) = 0.37646 0.56115
# Poissons Ratio (y) = 0.22217 0.25365
# Poissons Ratio (z) = 0.23419 0.17938
#
# Static dielectric constant tensor:
#      x y z
#    x 3.568040 0.000000 0.000000 
#    y 0.000000 3.619620 0.000000 
#    z 0.000000 0.000000 3.735960 
# 
# 
# High freq. dielectric constant tensor:
#      x y z
#    x 1.797340 0.000000 0.000000 
#    y 0.000000 1.810140 0.000000 
#    z 0.000000 0.000000 1.822230 
# 
# From -- ./inp_files/48276.got.cif
#   From: 2010.03.12/outbox.cif.g09.slc.cpg/sg66_25_cif.got.tgz:48276.got - 2010.04.10 21:57:39.
