data_PCOD8277961
_publ_section_title
;
Structure prediction by ZEFSAII (Michael W. Deem and Ramdas Pophale) SiO2 
 PCOD8277961
Probable space group: C M M A
;
_chemical_formula_sum "Si O2"
_cell_formula_units_Z 56
_cell_length_a 8.576369
_cell_length_b 15.056790
_cell_length_c 20.402184
_cell_angle_alpha 90.000000
_cell_angle_beta 90.000000
_cell_angle_gamma 90.000000
_cell_volume 2634.586800
_symmetry_space_group_name_H-M "C M M A"
_symmetry_group_IT_number 67
_symmetry_cell_setting 'orthorhombic'
loop_
_space_group_symop_operation_xyz
x,y,z
-x,1/2-y,z
x,-y,-z
-x,1/2+y,-z
-x,-y,-z
x,1/2+y,-z
-x,y,z
x,1/2-y,z
1/2+x,1/2+y,z
1/2-x,-y,z
1/2+x,1/2-y,-z
1/2-x,y,-z
1/2-x,1/2-y,-z
1/2+x,y,-z
1/2-x,1/2+y,z
1/2+x,-y,z
loop_
_atom_site_type_symbol
_atom_site_label
_atom_site_fract_x
_atom_site_fract_y
_atom_site_fract_z
Si Si1 0.183306 0.250000 0.928011
Si Si2 0.684842 0.097820 0.168737
Si Si3 0.684874 0.598936 0.302802
Si Si4 0.684733 0.400569 0.434177
O O1 0.239036 0.338479 0.890218
O O2 0.000000 0.250000 0.932755
O O3 0.250000 0.250000 0.000000
O O4 0.500000 0.092698 0.176177
O O5 0.754942 0.142129 0.235226
O O6 0.750000 0.000000 0.154094
O O7 0.500000 0.600769 0.305972
O O8 0.750000 0.500000 0.301436
O O9 0.753376 0.647865 0.367872
O O10 0.500000 0.400034 0.435397
O O11 0.750000 0.500000 0.433342
O O12 0.750000 0.352450 0.500000
#
# Coordination Sequence:
#
# PCOD8277961 Si02
#       4
#     8  16  16  16
#     4  10  24  42  62  86 117 148 183 224 274 332
#     4  10  20  37  58  84 113 148 186 229 276 328
#     4  10  17  27  44  69  99 137 180 226 273 326
#     4  10  16  23  35  57  92 134 177 226 275 325
#
# _framework density 21.255704000000001
#
# number of rings (size 3 to 8) (size 9 to 14) (size 15 to 20)
#    0.000    2.000    0.000   10.286    0.000    2.857 
#    0.000    2.857    0.000    0.000    0.000    1.000 
#    0.000    0.000    0.000    0.857    0.000    0.000 
#
# Total GULP energy -347001.543721 kJ/mol
# GULP energy per Si atom -12392.912276 kJ/mol
# Density = 2.120733 g / cm^3
# Si number density = 21.255704 Si / 1000 Ang^3
#
#
#
# Elastic Constant Matrix: (Units=GPa)
#
#
# Indices 1 2 3 4 5 6 
#
# 1 178.6883 30.2941 81.9245 0.0000 0.0000 0.0000
# 2 30.2941 67.2056 61.2698 0.0000 0.0000 0.0000
# 3 81.9245 61.2698 251.5867 0.0000 0.0000 0.0000
# 4 0.0000 0.0000 0.0000 -66.3859 0.0000 0.0000
# 5 0.0000 0.0000 0.0000 0.0000 44.8265 0.0000
# 6 0.0000 0.0000 0.0000 0.0000 0.0000 11.3630
#
#
#
# Elastic Compliance Matrix: (Units=1/GPa)
#
#
# Indices 1 2 3 4 5 6 
#
# 1 0.006668 -0.001319 -0.001850 0.000000 0.000000 0.000000
# 2 -0.001319 0.019387 -0.004292 0.000000 0.000000 0.000000
# 3 -0.001850 -0.004292 0.005622 0.000000 0.000000 0.000000
# 4 0.000000 0.000000 0.000000 -0.015063 0.000000 0.000000
# 5 0.000000 0.000000 0.000000 0.000000 0.022308 0.000000
# 6 0.000000 0.000000 0.000000 0.000000 0.000000 0.088005
#
#
# Mechanical properties :
#
#
# Convention : Reuss Voigt Hill
#
# Bulk Modulus (GPa) = 59.68158 93.82859 76.75509
# Shear Modulus (GPa) = 33.91331 19.56020 26.73675
#
# Velocity S-wave (km/s) = 3.99869 3.03682 3.55048
# Velocity P-wave (km/s) = 7.03266 7.51898 7.27988
#
# Compressibility (1/GPa) = 0.01675559
#
# Stress axis : x y z
#
# Youngs Moduli (GPa) = 149.96510 51.58060 177.85835
#
# Poissons Ratio (x) = 0.06804 0.32906
# Poissons Ratio (y) = 0.19782 0.76335
# Poissons Ratio (z) = 0.27746 0.22138
#
# Static dielectric constant tensor:
#      x y z
#    x 3.827100 0.000000 0.000000 
#    y 0.000000 3.384000 0.000000 
#    z 0.000000 0.000000 4.683410 
# 
# 
# High freq. dielectric constant tensor:
#      x y z
#    x 1.845260 0.000000 0.000000 
#    y 0.000000 1.786120 0.000000 
#    z 0.000000 0.000000 1.858860 
# 
# From -- ./inp_files/31627.got.cif
#   From: 2010.03.12/outbox.cif.g09.slc.cpg/sg67_16_cif.got.tgz:31627.got - 2010.04.10 22:41:39.
