data_PCOD8277123
_publ_section_title
;
Structure prediction by ZEFSAII (Michael W. Deem and Ramdas Pophale) SiO2 
 PCOD8277123
Probable space group: C C C M
;
_chemical_formula_sum "Si O2"
_cell_formula_units_Z 112
_cell_length_a 11.653301
_cell_length_b 15.896647
_cell_length_c 30.002504
_cell_angle_alpha 90.000000
_cell_angle_beta 90.000000
_cell_angle_gamma 90.000000
_cell_volume 5557.916233
_symmetry_space_group_name_H-M "C C C M"
_symmetry_group_IT_number 66
_symmetry_cell_setting 'orthorhombic'
loop_
_space_group_symop_operation_xyz
x,y,z
-x,-y,z
x,-y,1/2-z
-x,y,1/2-z
-x,-y,-z
x,y,-z
-x,y,1/2+z
x,-y,1/2+z
1/2+x,1/2+y,z
1/2-x,1/2-y,z
1/2+x,1/2-y,1/2-z
1/2-x,1/2+y,1/2-z
1/2-x,1/2-y,-z
1/2+x,1/2+y,-z
1/2-x,1/2+y,1/2+z
1/2+x,1/2-y,1/2+z
loop_
_atom_site_type_symbol
_atom_site_label
_atom_site_fract_x
_atom_site_fract_y
_atom_site_fract_z
Si Si1 0.601245 0.166051 0.306356
Si Si2 0.274650 0.001674 0.198644
Si Si3 0.311790 0.993966 0.051257
Si Si4 0.619775 0.455448 0.380500
Si Si5 0.371143 0.261376 0.106410
Si Si6 0.499600 0.135750 0.949159
Si Si7 0.660058 0.818055 0.292627
O O1 0.617321 0.064429 0.310886
O O2 0.658055 0.214206 0.347206
O O3 0.470636 0.198282 0.306399
O O4 0.667736 0.187516 0.260861
O O5 0.167263 0.031290 0.169256
O O6 0.235452 0.000000 0.250000
O O7 0.309750 0.907597 0.185689
O O8 0.379611 0.907949 0.063432
O O9 0.204064 0.003898 0.083249
O O10 0.396586 0.071316 0.059069
O O11 0.270153 0.991322 0.000000
O O12 0.500000 0.500000 0.385991
O O13 0.596200 0.357675 0.388245
O O14 0.250000 0.250000 0.079549
O O15 0.477438 0.217189 0.081288
O O16 0.502722 0.165853 0.000000
O O17 0.750000 0.750000 0.312377
#
# Coordination Sequence:
#
# PCOD8277123 Si02
#       7
#    16  16  16  16  16  16  16
#     4  10  21  39  61  87 123 160 213 259 315 373
#     4  10  22  41  62  86 123 166 217 263 315 373
#     4   9  19  40  66  95 130 164 208 264 321 383
#     4  12  27  42  60  93 133 170 214 259 324 392
#     4  12  22  39  64  93 124 163 208 269 310 372
#     4   9  19  37  67 100 123 158 213 264 316 378
#     4  10  22  37  61  91 120 162 208 266 315 372
#
# _framework density 20.151437000000001
#
# number of rings (size 3 to 8) (size 9 to 14) (size 15 to 20)
#    0.000    1.714    2.857    1.714    6.000    3.143 
#    0.000    0.714    0.000    1.714    0.000    0.000 
#    0.000    0.000    0.000    0.000    0.000    0.000 
#
# Total GULP energy -694225.258882 kJ/mol
# GULP energy per Si atom -12396.879623 kJ/mol
# Density = 2.010557 g / cm^3
# Si number density = 20.151437 Si / 1000 Ang^3
#
#
#
# Elastic Constant Matrix: (Units=GPa)
#
#
# Indices 1 2 3 4 5 6 
#
# 1 108.5634 69.9581 49.2044 0.0000 0.0000 0.0000
# 2 69.9581 149.2956 45.5231 0.0000 0.0000 0.0000
# 3 49.2044 45.5231 96.0912 0.0000 0.0000 0.0000
# 4 0.0000 0.0000 0.0000 19.2187 0.0000 0.0000
# 5 0.0000 0.0000 0.0000 0.0000 18.6135 0.0000
# 6 0.0000 0.0000 0.0000 0.0000 0.0000 34.6355
#
#
#
# Elastic Compliance Matrix: (Units=1/GPa)
#
#
# Indices 1 2 3 4 5 6 
#
# 1 0.015076 -0.005506 -0.005111 0.000000 0.000000 0.000000
# 2 -0.005506 0.009840 -0.001842 0.000000 0.000000 0.000000
# 3 -0.005111 -0.001842 0.013897 0.000000 0.000000 0.000000
# 4 0.000000 0.000000 0.000000 0.052033 0.000000 0.000000
# 5 0.000000 0.000000 0.000000 0.000000 0.053724 0.000000
# 6 0.000000 0.000000 0.000000 0.000000 0.000000 0.028872
#
#
# Mechanical properties :
#
#
# Convention : Reuss Voigt Hill
#
# Bulk Modulus (GPa) = 71.97554 75.92460 73.95007
# Shear Modulus (GPa) = 24.63156 27.11118 25.87137
#
# Velocity S-wave (km/s) = 3.49997 3.67191 3.58697
# Velocity P-wave (km/s) = 7.21996 7.46566 7.34384
#
# Compressibility (1/GPa) = 0.01389361
#
# Stress axis : x y z
#
# Youngs Moduli (GPa) = 66.33178 101.62794 71.95867
#
# Poissons Ratio (x) = 0.55954 0.36780
# Poissons Ratio (y) = 0.36521 0.13257
# Poissons Ratio (z) = 0.33904 0.18723
#
# Static dielectric constant tensor:
#      x y z
#    x 3.531020 0.000000 0.000000 
#    y 0.000000 3.749980 0.000000 
#    z 0.000000 0.000000 3.671140 
# 
# 
# High freq. dielectric constant tensor:
#      x y z
#    x 1.773520 0.000000 0.000000 
#    y 0.000000 1.786910 0.000000 
#    z 0.000000 0.000000 1.781970 
# 
# From -- ./inp_files/69075.got.cif
#   From: 2010.03.12/outbox.cif.g09.slc.cpg/sg66_35_cif.got.tgz:69075.got - 2010.04.10 21:57:39.
