data_PCOD8277477
_publ_section_title
;
Structure prediction by ZEFSAII (Michael W. Deem and Ramdas Pophale) SiO2 
 PCOD8277477
Probable space group: C C C M
;
_chemical_formula_sum "Si O2"
_cell_formula_units_Z 48
_cell_length_a 13.926218
_cell_length_b 12.600448
_cell_length_c 10.403684
_cell_angle_alpha 90.000000
_cell_angle_beta 90.000000
_cell_angle_gamma 90.000000
_cell_volume 1825.602947
_symmetry_space_group_name_H-M "C C C M"
_symmetry_group_IT_number 66
_symmetry_cell_setting 'orthorhombic'
loop_
_space_group_symop_operation_xyz
x,y,z
-x,-y,z
x,-y,1/2-z
-x,y,1/2-z
-x,-y,-z
x,y,-z
-x,y,1/2+z
x,-y,1/2+z
1/2+x,1/2+y,z
1/2-x,1/2-y,z
1/2+x,1/2-y,1/2-z
1/2-x,1/2+y,1/2-z
1/2-x,1/2-y,-z
1/2+x,1/2+y,-z
1/2-x,1/2+y,1/2+z
1/2+x,1/2-y,1/2+z
loop_
_atom_site_type_symbol
_atom_site_label
_atom_site_fract_x
_atom_site_fract_y
_atom_site_fract_z
Si Si1 0.638812 0.281531 0.779835
Si Si2 0.894267 0.949375 0.500000
Si Si3 0.899105 0.440657 0.136612
Si Si4 0.159235 0.173346 0.000000
O O1 0.750000 0.250000 0.781097
O O2 0.579750 0.181665 0.832901
O O3 0.601646 0.304055 0.633638
O O4 0.621929 0.381853 0.870971
O O5 0.817965 0.047186 0.500000
O O6 0.000000 0.000000 0.500000
O O7 0.838074 0.500000 0.250000
O O8 0.000000 0.500000 0.126142
O O9 0.843987 0.450471 0.000000
O O10 0.250000 0.250000 0.000000
#
# Coordination Sequence:
#
# PCOD8277477 Si02
#       4
#    16   8  16   8
#     4  11  25  50  73 106 147 196 246 311 381 448
#     4  12  27  47  75 108 152 204 248 304 385 463
#     4  10  23  42  70 106 143 186 242 308 368 432
#     4  10  26  47  77 108 145 192 259 310 373 455
#
# _framework density 26.292681999999999
#
# number of rings (size 3 to 8) (size 9 to 14) (size 15 to 20)
#    0.000    1.333    1.667    1.500    2.333   13.333 
#    0.000    0.000    0.000    0.000    0.000    0.000 
#    0.000    0.000    0.000    0.000    0.000    0.000 
#
# Total GULP energy -297328.156384 kJ/mol
# GULP energy per Si atom -12388.673183 kJ/mol
# Density = 2.623284 g / cm^3
# Si number density = 26.292682 Si / 1000 Ang^3
#
#
#
# Elastic Constant Matrix: (Units=GPa)
#
#
# Indices 1 2 3 4 5 6 
#
# 1 59.1378 37.4233 11.9258 0.0000 0.0000 0.0000
# 2 37.4233 249.7248 121.6580 0.0000 0.0000 0.0000
# 3 11.9258 121.6580 345.6569 0.0000 0.0000 0.0000
# 4 0.0000 0.0000 0.0000 60.4112 0.0000 0.0000
# 5 0.0000 0.0000 0.0000 0.0000 0.1045 0.0000
# 6 0.0000 0.0000 0.0000 0.0000 0.0000 45.1197
#
#
#
# Elastic Compliance Matrix: (Units=1/GPa)
#
#
# Indices 1 2 3 4 5 6 
#
# 1 0.018730 -0.003008 0.000412 0.000000 0.000000 0.000000
# 2 -0.003008 0.005316 -0.001767 0.000000 0.000000 0.000000
# 3 0.000412 -0.001767 0.003501 0.000000 0.000000 0.000000
# 4 0.000000 0.000000 0.000000 0.016553 0.000000 0.000000
# 5 0.000000 0.000000 0.000000 0.000000 9.567317 0.000000
# 6 0.000000 0.000000 0.000000 0.000000 0.000000 0.022163
#
#
# Mechanical properties :
#
#
# Convention : Reuss Voigt Hill
#
# Bulk Modulus (GPa) = 53.13071 110.72597 81.92834
# Shear Modulus (GPa) = 0.51821 53.36124 26.93973
#
# Velocity S-wave (km/s) = 0.44443 4.50989 3.20442
# Velocity P-wave (km/s) = 4.52931 8.32605 6.70216
#
# Compressibility (1/GPa) = 0.01882151
#
# Stress axis : x y z
#
# Youngs Moduli (GPa) = 53.39082 188.10749 285.64618
#
# Poissons Ratio (x) = 0.56577 -0.11780
# Poissons Ratio (y) = 0.16058 0.50482
# Poissons Ratio (z) = -0.02202 0.33244
#
# Static dielectric constant tensor:
#      x y z
#    x 4.295860 0.000000 0.000000 
#    y 0.000000 5.547110 0.000000 
#    z 0.000000 0.000000 9.905570 
# 
# 
# High freq. dielectric constant tensor:
#      x y z
#    x 2.016610 0.000000 0.000000 
#    y 0.000000 2.074420 0.000000 
#    z 0.000000 0.000000 2.092640 
# 
# From -- ./inp_files/17096.got.cif
#   From: 2010.03.12/outbox.cif.g09.slc.cpg/sg66_9_cif.got.tgz:17096.got - 2010.04.10 21:57:39.
