data_PCOD8277679
_publ_section_title
;
Structure prediction by ZEFSAII (Michael W. Deem and Ramdas Pophale) SiO2 
 PCOD8277679
Probable space group: C C C M
;
_chemical_formula_sum "Si O2"
_cell_formula_units_Z 64
_cell_length_a 22.069203
_cell_length_b 8.652628
_cell_length_c 13.965943
_cell_angle_alpha 90.000000
_cell_angle_beta 90.000000
_cell_angle_gamma 90.000000
_cell_volume 2666.889044
_symmetry_space_group_name_H-M "C C C M"
_symmetry_group_IT_number 66
_symmetry_cell_setting 'orthorhombic'
loop_
_space_group_symop_operation_xyz
x,y,z
-x,-y,z
x,-y,1/2-z
-x,y,1/2-z
-x,-y,-z
x,y,-z
-x,y,1/2+z
x,-y,1/2+z
1/2+x,1/2+y,z
1/2-x,1/2-y,z
1/2+x,1/2-y,1/2-z
1/2-x,1/2+y,1/2-z
1/2-x,1/2-y,-z
1/2+x,1/2+y,-z
1/2-x,1/2+y,1/2+z
1/2+x,1/2-y,1/2+z
loop_
_atom_site_type_symbol
_atom_site_label
_atom_site_fract_x
_atom_site_fract_y
_atom_site_fract_z
Si Si1 0.850159 0.628477 0.810428
Si Si2 0.417069 0.875250 0.500000
Si Si3 0.743926 0.570317 0.391478
Si Si4 0.946306 0.727227 0.500000
Si Si5 0.118636 0.110520 0.673064
O O1 0.888906 0.500000 0.750000
O O2 0.884036 0.685020 0.905438
O O3 0.784905 0.549379 0.831709
O O4 0.844435 0.766807 0.736459
O O5 0.482360 0.796634 0.500000
O O6 0.414309 0.061283 0.500000
O O7 0.765562 0.549056 0.500000
O O8 0.750000 0.750000 0.362327
O O9 0.673370 0.519742 0.380273
O O10 0.927824 0.820035 0.595740
O O11 0.083730 0.000000 0.750000
#
# Coordination Sequence:
#
# PCOD8277679 Si02
#       5
#    16   8  16   8  16
#     4  12  23  43  72 110 145 191 258 298 370 447
#     4  11  24  46  80 104 141 188 262 332 352 434
#     4  11  21  39  70 102 151 198 236 307 379 439
#     4  11  24  50  74 108 140 199 257 310 378 425
#     4  12  27  45  71 109 157 201 242 304 379 460
#
# _framework density 23.997999
#
# number of rings (size 3 to 8) (size 9 to 14) (size 15 to 20)
#    0.000    0.500    7.500    0.750    0.000    2.000 
#    0.000    5.000    0.000    0.000    0.000    0.000 
#    0.000    0.000    0.000    0.000    0.000    0.000 
#
# Total GULP energy -396482.414169 kJ/mol
# GULP energy per Si atom -12390.075443 kJ/mol
# Density = 2.394338 g / cm^3
# Si number density = 23.997999 Si / 1000 Ang^3
#
#
#
# Elastic Constant Matrix: (Units=GPa)
#
#
# Indices 1 2 3 4 5 6 
#
# 1 102.6232 24.9775 57.8432 0.0000 0.0000 0.0000
# 2 24.9775 79.8078 45.8446 0.0000 0.0000 0.0000
# 3 57.8432 45.8446 168.5122 0.0000 0.0000 0.0000
# 4 0.0000 0.0000 0.0000 45.2205 0.0000 0.0000
# 5 0.0000 0.0000 0.0000 0.0000 6.7176 0.0000
# 6 0.0000 0.0000 0.0000 0.0000 0.0000 25.8408
#
#
#
# Elastic Compliance Matrix: (Units=1/GPa)
#
#
# Indices 1 2 3 4 5 6 
#
# 1 0.012270 -0.001684 -0.003754 0.000000 0.000000 0.000000
# 2 -0.001684 0.015082 -0.003525 0.000000 0.000000 0.000000
# 3 -0.003754 -0.003525 0.008182 0.000000 0.000000 0.000000
# 4 0.000000 0.000000 0.000000 0.022114 0.000000 0.000000
# 5 0.000000 0.000000 0.000000 0.000000 0.148864 0.000000
# 6 0.000000 0.000000 0.000000 0.000000 0.000000 0.038698
#
#
# Mechanical properties :
#
#
# Convention : Reuss Voigt Hill
#
# Bulk Modulus (GPa) = 56.79091 67.58597 62.18844
# Shear Modulus (GPa) = 18.58704 30.37429 24.48066
#
# Velocity S-wave (km/s) = 2.78605 3.56153 3.19739
# Velocity P-wave (km/s) = 5.83658 6.71840 6.29296
#
# Compressibility (1/GPa) = 0.01760845
#
# Stress axis : x y z
#
# Youngs Moduli (GPa) = 81.49979 66.30376 122.22255
#
# Poissons Ratio (x) = 0.11165 0.45878
# Poissons Ratio (y) = 0.13724 0.43085
# Poissons Ratio (z) = 0.30592 0.23373
#
# Static dielectric constant tensor:
#      x y z
#    x 3.836020 0.000000 0.000000 
#    y 0.000000 4.469640 0.000000 
#    z 0.000000 0.000000 4.659090 
# 
# 
# High freq. dielectric constant tensor:
#      x y z
#    x 1.918160 0.000000 0.000000 
#    y 0.000000 1.946910 0.000000 
#    z 0.000000 0.000000 1.986340 
# 
# From -- ./inp_files/31917.got.cif
#   From: 2010.03.12/outbox.cif.g09.slc.cpg/sg66_16_cif.got.tgz:31917.got - 2010.04.10 21:57:39.
