data_PCOD8277067
_publ_section_title
;
Structure prediction by ZEFSAII (Michael W. Deem and Ramdas Pophale) SiO2 
 PCOD8277067
Probable space group: C C C M
;
_chemical_formula_sum "Si O2"
_cell_formula_units_Z 80
_cell_length_a 5.098506
_cell_length_b 27.340679
_cell_length_c 24.886743
_cell_angle_alpha 90.000000
_cell_angle_beta 90.000000
_cell_angle_gamma 90.000000
_cell_volume 3469.127756
_symmetry_space_group_name_H-M "C C C M"
_symmetry_group_IT_number 66
_symmetry_cell_setting 'orthorhombic'
loop_
_space_group_symop_operation_xyz
x,y,z
-x,-y,z
x,-y,1/2-z
-x,y,1/2-z
-x,-y,-z
x,y,-z
-x,y,1/2+z
x,-y,1/2+z
1/2+x,1/2+y,z
1/2-x,1/2-y,z
1/2+x,1/2-y,1/2-z
1/2-x,1/2+y,1/2-z
1/2-x,1/2-y,-z
1/2+x,1/2+y,-z
1/2-x,1/2+y,1/2+z
1/2+x,1/2-y,1/2+z
loop_
_atom_site_type_symbol
_atom_site_label
_atom_site_fract_x
_atom_site_fract_y
_atom_site_fract_z
Si Si1 0.016221 0.441876 0.439637
Si Si2 0.740894 0.691903 0.559657
Si Si3 0.757776 0.121953 0.284326
Si Si4 0.478630 0.442087 0.123931
Si Si5 0.239747 0.692039 0.377591
O O1 0.069478 0.422405 0.500000
O O2 0.737822 0.422983 0.418306
O O3 0.000000 0.500000 0.439915
O O4 0.243466 0.422239 0.399202
O O5 0.689168 0.671489 0.500000
O O6 0.750000 0.750000 0.558818
O O7 0.516372 0.672570 0.599813
O O8 0.021879 0.673671 0.580135
O O9 0.500000 0.105251 0.250000
O O10 0.886508 0.077311 0.318005
O O11 0.671147 0.167245 0.321208
O O12 0.000000 0.142194 0.250000
O O13 0.500000 0.500000 0.129098
O O14 0.250000 0.750000 0.369475
#
# Coordination Sequence:
#
# PCOD8277067 Si02
#       5
#    16  16  16  16  16
#     4   9  17  33  60  90 120 151 181 223 284 355
#     4   9  17  33  59  89 122 157 191 235 293 360
#     4  12  26  43  61  83 115 155 205 262 305 341
#     4  10  21  39  60  85 116 150 190 235 289 353
#     4  10  21  38  60  87 119 156 199 244 297 360
#
# _framework density 23.060551
#
# number of rings (size 3 to 8) (size 9 to 14) (size 15 to 20)
#    0.000    2.000    0.000    3.600    0.000    6.000 
#    0.000    7.000    0.000    0.000    0.000    0.000 
#    0.000    0.000    0.000    0.000    0.000    0.000 
#
# Total GULP energy -495921.005392 kJ/mol
# GULP energy per Si atom -12398.025135 kJ/mol
# Density = 2.300806 g / cm^3
# Si number density = 23.060551 Si / 1000 Ang^3
#
#
#
# Elastic Constant Matrix: (Units=GPa)
#
#
# Indices 1 2 3 4 5 6 
#
# 1 169.6443 37.0138 65.8214 0.0000 0.0000 0.0000
# 2 37.0138 35.3225 28.4240 0.0000 0.0000 0.0000
# 3 65.8214 28.4240 149.1844 0.0000 0.0000 0.0000
# 4 0.0000 0.0000 0.0000 78.4581 0.0000 0.0000
# 5 0.0000 0.0000 0.0000 0.0000 57.2147 0.0000
# 6 0.0000 0.0000 0.0000 0.0000 0.0000 30.5567
#
#
#
# Elastic Compliance Matrix: (Units=1/GPa)
#
#
# Indices 1 2 3 4 5 6 
#
# 1 0.008293 -0.006787 -0.002366 0.000000 0.000000 0.000000
# 2 -0.006787 0.038991 -0.004435 0.000000 0.000000 0.000000
# 3 -0.002366 -0.004435 0.008592 0.000000 0.000000 0.000000
# 4 0.000000 0.000000 0.000000 0.012746 0.000000 0.000000
# 5 0.000000 0.000000 0.000000 0.000000 0.017478 0.000000
# 6 0.000000 0.000000 0.000000 0.000000 0.000000 0.032726
#
#
# Mechanical properties :
#
#
# Convention : Reuss Voigt Hill
#
# Bulk Modulus (GPa) = 34.84134 68.51883 51.68009
# Shear Modulus (GPa) = 32.14045 48.10537 40.12291
#
# Velocity S-wave (km/s) = 3.73734 4.57228 4.17573
# Velocity P-wave (km/s) = 5.81077 7.59285 6.76078
#
# Compressibility (1/GPa) = 0.02870154
#
# Stress axis : x y z
#
# Youngs Moduli (GPa) = 120.57725 25.64726 116.38776
#
# Poissons Ratio (x) = 0.17406 0.27538
# Poissons Ratio (y) = 0.81830 0.51613
# Poissons Ratio (z) = 0.28530 0.11373
#
# Static dielectric constant tensor:
#      x y z
#    x 4.489160 0.000000 0.000000 
#    y 0.000000 4.019300 0.000000 
#    z 0.000000 0.000000 4.183700 
# 
# 
# High freq. dielectric constant tensor:
#      x y z
#    x 1.928960 0.000000 0.000000 
#    y 0.000000 1.913940 0.000000 
#    z 0.000000 0.000000 1.905120 
# 
# From -- ./inp_files/54373.got.cif
#   From: 2010.03.12/outbox.cif.g09.slc.cpg/sg66_28_cif.got.tgz:54373.got - 2010.04.10 21:57:39.
