data_PCOD8277775
_publ_section_title
;
Structure prediction by ZEFSAII (Michael W. Deem and Ramdas Pophale) SiO2 
 PCOD8277775
Probable space group: C C C M
;
_chemical_formula_sum "Si O2"
_cell_formula_units_Z 40
_cell_length_a 4.854586
_cell_length_b 24.206137
_cell_length_c 14.384721
_cell_angle_alpha 90.000000
_cell_angle_beta 90.000000
_cell_angle_gamma 90.000000
_cell_volume 1690.359696
_symmetry_space_group_name_H-M "C C C M"
_symmetry_group_IT_number 66
_symmetry_cell_setting 'orthorhombic'
loop_
_space_group_symop_operation_xyz
x,y,z
-x,-y,z
x,-y,1/2-z
-x,y,1/2-z
-x,-y,-z
x,y,-z
-x,y,1/2+z
x,-y,1/2+z
1/2+x,1/2+y,z
1/2-x,1/2-y,z
1/2+x,1/2-y,1/2-z
1/2-x,1/2+y,1/2-z
1/2-x,1/2-y,-z
1/2+x,1/2+y,-z
1/2-x,1/2+y,1/2+z
1/2+x,1/2-y,1/2+z
loop_
_atom_site_type_symbol
_atom_site_label
_atom_site_fract_x
_atom_site_fract_y
_atom_site_fract_z
Si Si1 0.110702 0.126920 0.650644
Si Si2 0.110363 0.695214 0.604402
Si Si3 0.751764 0.959457 0.500000
O O1 0.345539 0.174564 0.663904
O O2 0.249933 0.077757 0.592708
O O3 0.000000 0.105909 0.750000
O O4 0.845725 0.148927 0.596134
O O5 0.002679 0.707774 0.500000
O O6 0.250000 0.750000 0.649444
O O7 0.500000 0.000000 0.500000
O O8 0.000000 0.000000 0.500000
#
# Coordination Sequence:
#
# PCOD8277775 Si02
#       3
#    16  16   8
#     4  12  25  45  72 108 145 187 241 298 359 431
#     4  11  22  42  72 106 149 194 233 282 354 437
#     4  12  26  48  75 100 143 188 244 312 370 422
#
# _framework density 23.663602999999998
#
# number of rings (size 3 to 8) (size 9 to 14) (size 15 to 20)
#    0.000    0.400    4.000    4.800    0.000    7.200 
#    0.000    2.000    0.000    0.000    0.000    0.000 
#    0.000    0.000    0.000    0.000    0.000    0.000 
#
# Total GULP energy -248005.365530 kJ/mol
# GULP energy per Si atom -12400.268277 kJ/mol
# Density = 2.360974 g / cm^3
# Si number density = 23.663603 Si / 1000 Ang^3
#
#
#
# Elastic Constant Matrix: (Units=GPa)
#
#
# Indices 1 2 3 4 5 6 
#
# 1 166.0202 53.1299 47.2601 0.0000 0.0000 0.0000
# 2 53.1299 117.5297 66.1143 0.0000 0.0000 0.0000
# 3 47.2601 66.1143 142.1896 0.0000 0.0000 0.0000
# 4 0.0000 0.0000 0.0000 14.5715 0.0000 0.0000
# 5 0.0000 0.0000 0.0000 0.0000 32.4298 0.0000
# 6 0.0000 0.0000 0.0000 0.0000 0.0000 62.6993
#
#
#
# Elastic Compliance Matrix: (Units=1/GPa)
#
#
# Indices 1 2 3 4 5 6 
#
# 1 0.007188 -0.002580 -0.001189 0.000000 0.000000 0.000000
# 2 -0.002580 0.012449 -0.004931 0.000000 0.000000 0.000000
# 3 -0.001189 -0.004931 0.009721 0.000000 0.000000 0.000000
# 4 0.000000 0.000000 0.000000 0.068627 0.000000 0.000000
# 5 0.000000 0.000000 0.000000 0.000000 0.030836 0.000000
# 6 0.000000 0.000000 0.000000 0.000000 0.000000 0.015949
#
#
# Mechanical properties :
#
#
# Convention : Reuss Voigt Hill
#
# Bulk Modulus (GPa) = 83.63502 84.30535 83.97018
# Shear Modulus (GPa) = 30.09240 39.22246 34.65743
#
# Velocity S-wave (km/s) = 3.56992 4.07566 3.83115
# Velocity P-wave (km/s) = 7.23965 7.60605 7.42511
#
# Compressibility (1/GPa) = 0.01195671
#
# Stress axis : x y z
#
# Youngs Moduli (GPa) = 139.12812 80.33089 102.87281
#
# Poissons Ratio (x) = 0.20727 0.12234
# Poissons Ratio (y) = 0.35898 0.50723
# Poissons Ratio (z) = 0.16546 0.39608
#
# Static dielectric constant tensor:
#      x y z
#    x 4.398790 0.000000 0.000000 
#    y 0.000000 4.286180 0.000000 
#    z 0.000000 0.000000 3.968780 
# 
# 
# High freq. dielectric constant tensor:
#      x y z
#    x 1.962280 0.000000 0.000000 
#    y 0.000000 1.921930 0.000000 
#    z 0.000000 0.000000 1.930920 
# 
# From -- ./inp_files/22117.got.cif
#   From: 2010.03.12/outbox.cif.g09.slc.cpg/sg66_12_cif.got.tgz:22117.got - 2010.04.10 21:57:39.
