data_PCOD8277621
_publ_section_title
;
Structure prediction by ZEFSAII (Michael W. Deem and Ramdas Pophale) SiO2 
 PCOD8277621
Probable space group: C C C M
;
_chemical_formula_sum "Si O2"
_cell_formula_units_Z 48
_cell_length_a 9.653610
_cell_length_b 15.878752
_cell_length_c 14.746675
_cell_angle_alpha 90.000000
_cell_angle_beta 90.000000
_cell_angle_gamma 90.000000
_cell_volume 2260.477686
_symmetry_space_group_name_H-M "C C C M"
_symmetry_group_IT_number 66
_symmetry_cell_setting 'orthorhombic'
loop_
_space_group_symop_operation_xyz
x,y,z
-x,-y,z
x,-y,1/2-z
-x,y,1/2-z
-x,-y,-z
x,y,-z
-x,y,1/2+z
x,-y,1/2+z
1/2+x,1/2+y,z
1/2-x,1/2-y,z
1/2+x,1/2-y,1/2-z
1/2-x,1/2+y,1/2-z
1/2-x,1/2-y,-z
1/2+x,1/2+y,-z
1/2-x,1/2+y,1/2+z
1/2+x,1/2-y,1/2+z
loop_
_atom_site_type_symbol
_atom_site_label
_atom_site_fract_x
_atom_site_fract_y
_atom_site_fract_z
Si Si1 0.529660 0.753261 0.500000
Si Si2 0.658329 0.517741 0.851835
Si Si3 0.618403 0.702396 0.826011
Si Si4 0.252183 0.604806 0.000000
O O1 0.439241 0.757506 0.591161
O O2 0.616395 0.666733 0.500000
O O3 0.616635 0.838630 0.500000
O O4 0.500000 0.500000 0.873891
O O5 0.702821 0.500000 0.750000
O O6 0.678617 0.616628 0.869133
O O7 0.750958 0.456866 0.913489
O O8 0.500000 0.685211 0.750000
O O9 0.750000 0.750000 0.780745
#
# Coordination Sequence:
#
# PCOD8277621 Si02
#       4
#     8  16  16   8
#     4  11  24  41  66 103 137 174 214 276 343 382
#     4  11  20  39  65  97 129 174 227 269 317 392
#     4  12  26  43  69  98 137 176 224 276 331 392
#     4  11  22  38  72 100 132 168 227 274 320 399
#
# _framework density 21.234451
#
# number of rings (size 3 to 8) (size 9 to 14) (size 15 to 20)
#    0.000    0.667    6.667    2.000    9.333    0.000 
#    0.000    3.333    0.000    0.000    0.000    0.000 
#    0.000    0.000    0.000    0.000    0.000    0.000 
#
# Total GULP energy -297591.855731 kJ/mol
# GULP energy per Si atom -12399.660655 kJ/mol
# Density = 2.118612 g / cm^3
# Si number density = 21.234451 Si / 1000 Ang^3
#
#
#
# Elastic Constant Matrix: (Units=GPa)
#
#
# Indices 1 2 3 4 5 6 
#
# 1 76.7582 66.0696 37.0601 0.0000 0.0000 0.0000
# 2 66.0696 166.1820 52.7285 0.0000 0.0000 0.0000
# 3 37.0601 52.7285 125.5775 0.0000 0.0000 0.0000
# 4 0.0000 0.0000 0.0000 33.1235 0.0000 0.0000
# 5 0.0000 0.0000 0.0000 0.0000 30.3777 0.0000
# 6 0.0000 0.0000 0.0000 0.0000 0.0000 28.0859
#
#
#
# Elastic Compliance Matrix: (Units=1/GPa)
#
#
# Indices 1 2 3 4 5 6 
#
# 1 0.020786 -0.007288 -0.003074 0.000000 0.000000 0.000000
# 2 -0.007288 0.009498 -0.001837 0.000000 0.000000 0.000000
# 3 -0.003074 -0.001837 0.009642 0.000000 0.000000 0.000000
# 4 0.000000 0.000000 0.000000 0.030190 0.000000 0.000000
# 5 0.000000 0.000000 0.000000 0.000000 0.032919 0.000000
# 6 0.000000 0.000000 0.000000 0.000000 0.000000 0.035605
#
#
# Mechanical properties :
#
#
# Convention : Reuss Voigt Hill
#
# Bulk Modulus (GPa) = 64.40625 75.58158 69.99391
# Shear Modulus (GPa) = 29.72403 32.49471 31.10937
#
# Velocity S-wave (km/s) = 3.74545 3.91613 3.83174
# Velocity P-wave (km/s) = 7.00724 7.49127 7.25330
#
# Compressibility (1/GPa) = 0.01552644
#
# Stress axis : x y z
#
# Youngs Moduli (GPa) = 48.11027 105.28372 103.71538
#
# Poissons Ratio (x) = 0.76736 0.31880
# Poissons Ratio (y) = 0.35065 0.19055
# Poissons Ratio (z) = 0.14788 0.19343
#
# Static dielectric constant tensor:
#      x y z
#    x 3.577850 0.000000 0.000000 
#    y 0.000000 4.109420 0.000000 
#    z 0.000000 0.000000 4.693740 
# 
# 
# High freq. dielectric constant tensor:
#      x y z
#    x 1.798710 0.000000 0.000000 
#    y 0.000000 1.849960 0.000000 
#    z 0.000000 0.000000 1.839330 
# 
# From -- ./inp_files/23556.got.cif
#   From: 2010.03.12/outbox.cif.g09.slc.cpg/sg66_12_cif.got.tgz:23556.got - 2010.04.10 21:57:39.
