data_PCOD8277003
_publ_section_title
;
Structure prediction by ZEFSAII (Michael W. Deem and Ramdas Pophale) SiO2 
 PCOD8277003
Probable space group: C C C M
;
_chemical_formula_sum "Si O2"
_cell_formula_units_Z 80
_cell_length_a 7.534822
_cell_length_b 28.823926
_cell_length_c 18.144012
_cell_angle_alpha 90.000000
_cell_angle_beta 90.000000
_cell_angle_gamma 90.000000
_cell_volume 3940.573712
_symmetry_space_group_name_H-M "C C C M"
_symmetry_group_IT_number 66
_symmetry_cell_setting 'orthorhombic'
loop_
_space_group_symop_operation_xyz
x,y,z
-x,-y,z
x,-y,1/2-z
-x,y,1/2-z
-x,-y,-z
x,y,-z
-x,y,1/2+z
x,-y,1/2+z
1/2+x,1/2+y,z
1/2-x,1/2-y,z
1/2+x,1/2-y,1/2-z
1/2-x,1/2+y,1/2-z
1/2-x,1/2-y,-z
1/2+x,1/2+y,-z
1/2-x,1/2+y,1/2+z
1/2+x,1/2-y,1/2+z
loop_
_atom_site_type_symbol
_atom_site_label
_atom_site_fract_x
_atom_site_fract_y
_atom_site_fract_z
Si Si1 0.852970 0.294813 0.310526
Si Si2 0.516268 0.446405 0.915237
Si Si3 0.646567 0.796746 0.414423
Si Si4 0.824831 0.394374 0.847543
Si Si5 0.270699 0.106641 0.819734
O O1 0.750000 0.250000 0.281714
O O2 0.723526 0.338496 0.321483
O O3 0.000000 0.309770 0.250000
O O4 0.946246 0.285274 0.388964
O O5 0.500000 0.500000 0.894541
O O6 0.716759 0.428797 0.900946
O O7 0.378610 0.419273 0.864687
O O8 0.466600 0.437600 0.000000
O O9 0.651469 0.809390 0.500000
O O10 0.750000 0.750000 0.395379
O O11 0.722319 0.840900 0.368810
O O12 0.765614 0.408392 0.765334
O O13 0.036141 0.402559 0.856621
#
# Coordination Sequence:
#
# PCOD8277003 Si02
#       5
#    16  16  16  16  16
#     4  11  22  37  60  91 128 168 212 261 311 379
#     4  11  26  44  65  95 127 167 215 265 331 396
#     4  10  21  37  57  88 127 167 207 251 314 375
#     4  10  21  42  65  92 128 165 210 271 322 377
#     4  10  22  41  65  95 125 168 216 261 323 384
#
# _framework density 20.301613
#
# number of rings (size 3 to 8) (size 9 to 14) (size 15 to 20)
#    0.000    1.600    4.000    1.800    2.800    6.800 
#    0.000    4.000    0.000    0.000    0.000    0.000 
#    0.000    0.000    0.000    0.000    0.000    0.000 
#
# Total GULP energy -495922.619857 kJ/mol
# GULP energy per Si atom -12398.065496 kJ/mol
# Density = 2.025541 g / cm^3
# Si number density = 20.301613 Si / 1000 Ang^3
#
#
#
# Elastic Constant Matrix: (Units=GPa)
#
#
# Indices 1 2 3 4 5 6 
#
# 1 70.9346 47.8077 37.2956 0.0000 0.0000 0.0000
# 2 47.8077 123.5502 51.3280 0.0000 0.0000 0.0000
# 3 37.2956 51.3280 89.5700 0.0000 0.0000 0.0000
# 4 0.0000 0.0000 0.0000 28.9977 0.0000 0.0000
# 5 0.0000 0.0000 0.0000 0.0000 32.8163 0.0000
# 6 0.0000 0.0000 0.0000 0.0000 0.0000 35.1649
#
#
#
# Elastic Compliance Matrix: (Units=1/GPa)
#
#
# Indices 1 2 3 4 5 6 
#
# 1 0.020841 -0.005853 -0.005324 0.000000 0.000000 0.000000
# 2 -0.005853 0.012266 -0.004592 0.000000 0.000000 0.000000
# 3 -0.005324 -0.004592 0.016013 0.000000 0.000000 0.000000
# 4 0.000000 0.000000 0.000000 0.034486 0.000000 0.000000
# 5 0.000000 0.000000 0.000000 0.000000 0.030473 0.000000
# 6 0.000000 0.000000 0.000000 0.000000 0.000000 0.028437
#
#
# Mechanical properties :
#
#
# Convention : Reuss Voigt Hill
#
# Bulk Modulus (GPa) = 56.87484 61.87972 59.37728
# Shear Modulus (GPa) = 27.79086 29.23735 28.51410
#
# Velocity S-wave (km/s) = 3.70388 3.79905 3.75176
# Velocity P-wave (km/s) = 6.80936 7.05621 6.93388
#
# Compressibility (1/GPa) = 0.01758247
#
# Stress axis : x y z
#
# Youngs Moduli (GPa) = 47.98159 81.52353 62.44947
#
# Poissons Ratio (x) = 0.47713 0.33249
# Poissons Ratio (y) = 0.28082 0.28679
# Poissons Ratio (z) = 0.25546 0.37438
#
# Static dielectric constant tensor:
#      x y z
#    x 3.692380 0.000000 0.000000 
#    y 0.000000 3.652370 0.000000 
#    z 0.000000 0.000000 3.802230 
# 
# 
# High freq. dielectric constant tensor:
#      x y z
#    x 1.781140 0.000000 0.000000 
#    y 0.000000 1.793290 0.000000 
#    z 0.000000 0.000000 1.801580 
# 
# From -- ./inp_files/37154.got.cif
#   From: 2010.03.12/outbox.cif.g09.slc.cpg/sg66_19_cif.got.tgz:37154.got - 2010.04.10 21:57:39.
