data_PCOD8277920
_publ_section_title
;
Structure prediction by ZEFSAII (Michael W. Deem and Ramdas Pophale) SiO2 
 PCOD8277920
Probable space group: C C C M
;
_chemical_formula_sum "Si O2"
_cell_formula_units_Z 64
_cell_length_a 11.026455
_cell_length_b 9.570346
_cell_length_c 28.644995
_cell_angle_alpha 90.000000
_cell_angle_beta 90.000000
_cell_angle_gamma 90.000000
_cell_volume 3022.820087
_symmetry_space_group_name_H-M "C C C M"
_symmetry_group_IT_number 66
_symmetry_cell_setting 'orthorhombic'
loop_
_space_group_symop_operation_xyz
x,y,z
-x,-y,z
x,-y,1/2-z
-x,y,1/2-z
-x,-y,-z
x,y,-z
-x,y,1/2+z
x,-y,1/2+z
1/2+x,1/2+y,z
1/2-x,1/2-y,z
1/2+x,1/2-y,1/2-z
1/2-x,1/2+y,1/2-z
1/2-x,1/2-y,-z
1/2+x,1/2+y,-z
1/2-x,1/2+y,1/2+z
1/2+x,1/2-y,1/2+z
loop_
_atom_site_type_symbol
_atom_site_label
_atom_site_fract_x
_atom_site_fract_y
_atom_site_fract_z
Si Si1 0.803811 0.524206 0.500000
Si Si2 0.490876 0.770727 0.500000
Si Si3 0.843812 0.876669 0.927291
Si Si4 0.694355 0.000000 0.250000
Si Si5 0.847241 0.871688 0.176385
Si Si6 0.500000 0.232130 0.250000
O O1 0.903825 0.403724 0.500000
O O2 0.719048 0.506758 0.545817
O O3 0.869440 0.676155 0.500000
O O4 0.464524 0.675452 0.545611
O O5 0.750000 0.750000 0.925962
O O6 0.883354 0.923900 0.875297
O O7 0.780451 0.006544 0.295120
O O8 0.616043 0.136944 0.239368
O O9 0.750000 0.750000 0.171332
O O10 0.968769 0.825030 0.204382
#
# Coordination Sequence:
#
# PCOD8277920 Si02
#       6
#     8   8  16   8  16   8
#     4   8  13  21  34  55  85 120 157 196 239 287
#     4   8  13  21  34  55  85 120 157 196 239 287
#     4   8  14  23  35  55  84 119 158 197 238 286
#     4   9  18  31  46  66  92 123 160 201 246 294
#     4   9  17  29  44  63  91 126 164 205 246 294
#     4   9  18  31  46  66  92 123 160 201 246 294
#
# _framework density 21.172281000000002
#
# number of rings (size 3 to 8) (size 9 to 14) (size 15 to 20)
#    0.000    3.500    0.000    1.500    0.000    2.500 
#    0.000   10.000    0.000    0.000    0.000    0.000 
#    0.000   16.000    0.000   47.000    0.000  125.000 
#
# Total GULP energy -396539.722132 kJ/mol
# GULP energy per Si atom -12391.866317 kJ/mol
# Density = 2.112409 g / cm^3
# Si number density = 21.172281 Si / 1000 Ang^3
#
#
#
# Elastic Constant Matrix: (Units=GPa)
#
#
# Indices 1 2 3 4 5 6 
#
# 1 107.5061 48.8483 77.0342 0.0000 0.0000 0.0000
# 2 48.8483 39.6512 54.7546 0.0000 0.0000 0.0000
# 3 77.0342 54.7546 239.7219 0.0000 0.0000 0.0000
# 4 0.0000 0.0000 0.0000 -2.6390 0.0000 0.0000
# 5 0.0000 0.0000 0.0000 0.0000 61.1804 0.0000
# 6 0.0000 0.0000 0.0000 0.0000 0.0000 32.3813
#
#
#
# Elastic Compliance Matrix: (Units=1/GPa)
#
#
# Indices 1 2 3 4 5 6 
#
# 1 0.021382 -0.024618 -0.001248 0.000000 0.000000 0.000000
# 2 -0.024618 0.065184 -0.006978 0.000000 0.000000 0.000000
# 3 -0.001248 -0.006978 0.006166 0.000000 0.000000 0.000000
# 4 0.000000 0.000000 0.000000 -0.378934 0.000000 0.000000
# 5 0.000000 0.000000 0.000000 0.000000 0.016345 0.000000
# 6 0.000000 0.000000 0.000000 0.000000 0.000000 0.030882
#
#
# Mechanical properties :
#
#
# Convention : Reuss Voigt Hill
#
# Bulk Modulus (GPa) = 36.97616 83.12815 60.05215
# Shear Modulus (GPa) = -30.43723 31.93402 0.74840
#
# Velocity S-wave (km/s) = -3.79568 3.88789 0.59519
# Velocity P-wave (km/s) = 1.30662 7.71377 5.37564
#
# Compressibility (1/GPa) = 0.02704445
#
# Stress axis : x y z
#
# Youngs Moduli (GPa) = 46.76816 15.34127 162.17212
#
# Poissons Ratio (x) = 0.37767 0.20240
# Poissons Ratio (y) = 1.15135 1.13156
# Poissons Ratio (z) = 0.05837 0.10704
#
# Static dielectric constant tensor:
#      x y z
#    x 3.802540 0.000000 0.000000 
#    y 0.000000 3.595680 0.000000 
#    z 0.000000 0.000000 4.250300 
# 
# 
# High freq. dielectric constant tensor:
#      x y z
#    x 1.828920 0.000000 0.000000 
#    y 0.000000 1.808620 0.000000 
#    z 0.000000 0.000000 1.823820 
# 
# From -- ./inp_files/63344.got.cif
#   From: 2010.03.12/outbox.cif.g09.slc.cpg/sg66_32_cif.got.tgz:63344.got - 2010.04.10 21:57:39.
