data_PCOD8277356
_publ_section_title
;
Structure prediction by ZEFSAII (Michael W. Deem and Ramdas Pophale) SiO2 
 PCOD8277356
Probable space group: C C C M
;
_chemical_formula_sum "Si O2"
_cell_formula_units_Z 56
_cell_length_a 16.515823
_cell_length_b 11.817104
_cell_length_c 14.370119
_cell_angle_alpha 90.000000
_cell_angle_beta 90.000000
_cell_angle_gamma 90.000000
_cell_volume 2804.604601
_symmetry_space_group_name_H-M "C C C M"
_symmetry_group_IT_number 66
_symmetry_cell_setting 'orthorhombic'
loop_
_space_group_symop_operation_xyz
x,y,z
-x,-y,z
x,-y,1/2-z
-x,y,1/2-z
-x,-y,-z
x,y,-z
-x,y,1/2+z
x,-y,1/2+z
1/2+x,1/2+y,z
1/2-x,1/2-y,z
1/2+x,1/2-y,1/2-z
1/2-x,1/2+y,1/2-z
1/2-x,1/2-y,-z
1/2+x,1/2+y,-z
1/2-x,1/2+y,1/2+z
1/2+x,1/2-y,1/2+z
loop_
_atom_site_type_symbol
_atom_site_label
_atom_site_fract_x
_atom_site_fract_y
_atom_site_fract_z
Si Si1 0.386539 0.572180 0.500000
Si Si2 0.083479 0.715714 0.195057
Si Si3 0.819851 0.106526 0.696322
Si Si4 0.563694 0.668875 0.500000
Si Si5 0.664311 0.000000 0.250000
O O1 0.347247 0.624822 0.591347
O O2 0.478254 0.609275 0.500000
O O3 0.373252 0.435973 0.500000
O O4 0.156547 0.782959 0.244894
O O5 0.106453 0.582729 0.190615
O O6 0.000000 0.736731 0.250000
O O7 0.075467 0.753436 0.089270
O O8 0.723080 0.082137 0.689276
O O9 0.862737 0.000000 0.750000
#
# Coordination Sequence:
#
# PCOD8277356 Si02
#       5
#     8  16  16   8   8
#     4  11  20  37  64 108 121 164 217 281 314 381
#     4  12  23  43  66  95 131 172 214 270 316 389
#     4  10  22  40  66  93 130 164 214 271 324 368
#     4  11  22  35  68 100 131 158 224 265 331 366
#     4  10  25  44  61  90 136 176 208 256 333 384
#
# _framework density 19.967165000000001
#
# number of rings (size 3 to 8) (size 9 to 14) (size 15 to 20)
#    0.857    0.286    5.714    1.286    0.000    1.714 
#    0.000   11.429    0.000    0.000    0.000    0.000 
#    0.000    0.000    0.000    0.000    0.000    0.000 
#
# Total GULP energy -346989.652736 kJ/mol
# GULP energy per Si atom -12392.487598 kJ/mol
# Density = 1.992172 g / cm^3
# Si number density = 19.967165 Si / 1000 Ang^3
#
#
#
# Elastic Constant Matrix: (Units=GPa)
#
#
# Indices 1 2 3 4 5 6 
#
# 1 51.7424 41.5504 31.8526 0.0000 0.0000 0.0000
# 2 41.5504 129.3783 59.0398 0.0000 0.0000 0.0000
# 3 31.8526 59.0398 172.9256 0.0000 0.0000 0.0000
# 4 0.0000 0.0000 0.0000 35.1947 0.0000 0.0000
# 5 0.0000 0.0000 0.0000 0.0000 19.8326 0.0000
# 6 0.0000 0.0000 0.0000 0.0000 0.0000 34.9102
#
#
#
# Elastic Compliance Matrix: (Units=1/GPa)
#
#
# Indices 1 2 3 4 5 6 
#
# 1 0.026839 -0.007538 -0.002370 0.000000 0.000000 0.000000
# 2 -0.007538 0.011273 -0.002460 0.000000 0.000000 0.000000
# 3 -0.002370 -0.002460 0.007059 0.000000 0.000000 0.000000
# 4 0.000000 0.000000 0.000000 0.028413 0.000000 0.000000
# 5 0.000000 0.000000 0.000000 0.000000 0.050422 0.000000
# 6 0.000000 0.000000 0.000000 0.000000 0.000000 0.028645
#
#
# Mechanical properties :
#
#
# Convention : Reuss Voigt Hill
#
# Bulk Modulus (GPa) = 48.93699 68.77023 58.85361
# Shear Modulus (GPa) = 27.14460 32.76108 29.95284
#
# Velocity S-wave (km/s) = 3.69109 4.05501 3.87732
# Velocity P-wave (km/s) = 6.53662 7.51269 7.04159
#
# Compressibility (1/GPa) = 0.02043444
#
# Stress axis : x y z
#
# Youngs Moduli (GPa) = 37.25979 88.70933 141.65544
#
# Poissons Ratio (x) = 0.66867 0.33574
# Poissons Ratio (y) = 0.28086 0.34851
# Poissons Ratio (z) = 0.08831 0.21825
#
# Static dielectric constant tensor:
#      x y z
#    x 3.549460 0.000000 0.000000 
#    y 0.000000 3.750530 0.000000 
#    z 0.000000 0.000000 3.392480 
# 
# 
# High freq. dielectric constant tensor:
#      x y z
#    x 1.771700 0.000000 0.000000 
#    y 0.000000 1.788050 0.000000 
#    z 0.000000 0.000000 1.766120 
# 
# From -- ./inp_files/29539.got.cif
#   From: 2010.03.12/outbox.cif.g09.slc.cpg/sg66_15_cif.got.tgz:29539.got - 2010.04.10 21:57:39.
