data_PCOD8277599
_publ_section_title
;
Structure prediction by ZEFSAII (Michael W. Deem and Ramdas Pophale) SiO2 
 PCOD8277599
Probable space group: C C C M
;
_chemical_formula_sum "Si O2"
_cell_formula_units_Z 96
_cell_length_a 9.803634
_cell_length_b 20.640037
_cell_length_c 24.558792
_cell_angle_alpha 90.000000
_cell_angle_beta 90.000000
_cell_angle_gamma 90.000000
_cell_volume 4969.406935
_symmetry_space_group_name_H-M "C C C M"
_symmetry_group_IT_number 66
_symmetry_cell_setting 'orthorhombic'
loop_
_space_group_symop_operation_xyz
x,y,z
-x,-y,z
x,-y,1/2-z
-x,y,1/2-z
-x,-y,-z
x,y,-z
-x,y,1/2+z
x,-y,1/2+z
1/2+x,1/2+y,z
1/2-x,1/2-y,z
1/2+x,1/2-y,1/2-z
1/2-x,1/2+y,1/2-z
1/2-x,1/2-y,-z
1/2+x,1/2+y,-z
1/2-x,1/2+y,1/2+z
1/2+x,1/2-y,1/2+z
loop_
_atom_site_type_symbol
_atom_site_label
_atom_site_fract_x
_atom_site_fract_y
_atom_site_fract_z
Si Si1 0.725312 0.508446 0.812454
Si Si2 0.598950 0.684011 0.406678
Si Si3 0.018910 0.896529 0.812152
Si Si4 0.781331 0.030505 0.500000
Si Si5 0.591779 0.943697 0.093899
Si Si6 0.565215 0.411951 0.000000
Si Si7 0.409929 0.174989 0.435412
O O1 0.771674 0.500000 0.750000
O O2 0.651523 0.440527 0.826512
O O3 0.618138 0.564801 0.825380
O O4 0.857800 0.528013 0.847794
O O5 0.536962 0.668565 0.347186
O O6 0.544894 0.630144 0.446803
O O7 0.534724 0.752419 0.425791
O O8 0.762505 0.678311 0.407361
O O9 0.000000 0.874988 0.750000
O O10 0.717758 0.063502 0.446765
O O11 0.939804 0.040745 0.500000
O O12 0.787582 0.950884 0.500000
O O13 0.506818 0.876460 0.096133
O O14 0.500000 0.000000 0.067428
O O15 0.400464 0.159664 0.500000
#
# Coordination Sequence:
#
# PCOD8277599 Si02
#       7
#    16  16  16   8  16   8  16
#     4   9  19  37  60  89 114 148 196 246 303 355
#     4  11  20  37  62  82 113 159 205 240 291 359
#     4   9  18  36  64  86 113 150 198 253 296 341
#     4  11  23  33  51  86 118 140 194 241 294 353
#     4  12  23  36  57  82 119 155 184 244 303 355
#     4  11  20  34  57  83 110 152 192 245 287 354
#     4  11  22  39  58  86 120 162 201 235 294 369
#
# _framework density 19.318200999999998
#
# number of rings (size 3 to 8) (size 9 to 14) (size 15 to 20)
#    0.000    1.500    2.500    5.750    0.000    3.000 
#    0.000    4.167   18.333    0.000    0.000    0.000 
#    0.000    0.000    0.000    0.000    0.000    0.000 
#
# Total GULP energy -594718.781544 kJ/mol
# GULP energy per Si atom -12389.974616 kJ/mol
# Density = 1.927423 g / cm^3
# Si number density = 19.318201 Si / 1000 Ang^3
#
#
#
# Elastic Constant Matrix: (Units=GPa)
#
#
# Indices 1 2 3 4 5 6 
#
# 1 73.0243 42.8602 37.3231 0.0000 0.0000 0.0000
# 2 42.8602 110.2927 44.5424 0.0000 0.0000 0.0000
# 3 37.3231 44.5424 106.0757 0.0000 0.0000 0.0000
# 4 0.0000 0.0000 0.0000 42.8508 0.0000 0.0000
# 5 0.0000 0.0000 0.0000 0.0000 14.9960 0.0000
# 6 0.0000 0.0000 0.0000 0.0000 0.0000 29.3126
#
#
#
# Elastic Compliance Matrix: (Units=1/GPa)
#
#
# Indices 1 2 3 4 5 6 
#
# 1 0.019297 -0.005728 -0.004384 0.000000 0.000000 0.000000
# 2 -0.005728 0.012619 -0.003283 0.000000 0.000000 0.000000
# 3 -0.004384 -0.003283 0.012349 0.000000 0.000000 0.000000
# 4 0.000000 0.000000 0.000000 0.023337 0.000000 0.000000
# 5 0.000000 0.000000 0.000000 0.000000 0.066684 0.000000
# 6 0.000000 0.000000 0.000000 0.000000 0.000000 0.034115
#
#
# Mechanical properties :
#
#
# Convention : Reuss Voigt Hill
#
# Bulk Modulus (GPa) = 57.23245 59.87156 58.55201
# Shear Modulus (GPa) = 24.87360 28.40969 26.64164
#
# Velocity S-wave (km/s) = 3.59217 3.83902 3.71765
# Velocity P-wave (km/s) = 6.84802 7.12112 6.98591
#
# Compressibility (1/GPa) = 0.01747260
#
# Stress axis : x y z
#
# Youngs Moduli (GPa) = 51.82149 79.24695 80.98110
#
# Poissons Ratio (x) = 0.45395 0.35505
# Poissons Ratio (y) = 0.29685 0.26588
# Poissons Ratio (z) = 0.22720 0.26019
#
# Static dielectric constant tensor:
#      x y z
#    x 3.402670 0.000000 0.000000 
#    y 0.000000 3.647540 0.000000 
#    z 0.000000 0.000000 3.619930 
# 
# 
# High freq. dielectric constant tensor:
#      x y z
#    x 1.743470 0.000000 0.000000 
#    y 0.000000 1.747870 0.000000 
#    z 0.000000 0.000000 1.747980 
# 
# From -- ./inp_files/55691.got.cif
#   From: 2010.03.12/outbox.cif.g09.slc.cpg/sg66_28_cif.got.tgz:55691.got - 2010.04.10 21:57:39.
