data_PCOD8277591
_publ_section_title
;
Structure prediction by ZEFSAII (Michael W. Deem and Ramdas Pophale) SiO2 
 PCOD8277591
Probable space group: C C C M
;
_chemical_formula_sum "Si O2"
_cell_formula_units_Z 64
_cell_length_a 27.817365
_cell_length_b 21.180171
_cell_length_c 8.770396
_cell_angle_alpha 90.000000
_cell_angle_beta 90.000000
_cell_angle_gamma 90.000000
_cell_volume 5167.311635
_symmetry_space_group_name_H-M "C C C M"
_symmetry_group_IT_number 66
_symmetry_cell_setting 'orthorhombic'
loop_
_space_group_symop_operation_xyz
x,y,z
-x,-y,z
x,-y,1/2-z
-x,y,1/2-z
-x,-y,-z
x,y,-z
-x,y,1/2+z
x,-y,1/2+z
1/2+x,1/2+y,z
1/2-x,1/2-y,z
1/2+x,1/2-y,1/2-z
1/2-x,1/2+y,1/2-z
1/2-x,1/2-y,-z
1/2+x,1/2+y,-z
1/2-x,1/2+y,1/2+z
1/2+x,1/2-y,1/2+z
loop_
_atom_site_type_symbol
_atom_site_label
_atom_site_fract_x
_atom_site_fract_y
_atom_site_fract_z
Si Si1 0.221958 0.188268 0.180132
Si Si2 0.362556 0.630416 0.171690
Si Si3 0.949839 0.067733 0.680657
Si Si4 0.231151 0.064269 0.328732
O O1 0.250000 0.250000 0.237257
O O2 0.168351 0.188136 0.254696
O O3 0.251060 0.125660 0.236846
O O4 0.216832 0.186726 0.000000
O O5 0.409025 0.617697 0.274415
O O6 0.327334 0.568931 0.169850
O O7 0.378537 0.648054 0.000000
O O8 0.954121 0.061927 0.500000
O O9 0.000000 0.092110 0.750000
O O10 0.936408 0.000000 0.750000
O O11 0.251789 0.065486 0.500000
O O12 0.248221 0.000000 0.250000
#
# Coordination Sequence:
#
# PCOD8277591 Si02
#       4
#    16  16  16  16
#     4   9  17  28  41  56  74  96 124 158 195 234
#     4   9  18  28  40  54  71  95 124 157 193 229
#     4  11  20  29  40  53  73  97 126 161 198 233
#     4   9  17  25  38  54  72  94 121 155 188 224
#
# _framework density 12.385551
#
# number of rings (size 3 to 8) (size 9 to 14) (size 15 to 20)
#    1.500    1.000    0.000    5.250    0.000    4.000 
#    0.000    0.000    0.000    0.000    0.000    0.000 
#    0.000    0.000    0.000    0.000    0.000    1.250 
#
# Total GULP energy -396433.732378 kJ/mol
# GULP energy per Si atom -12388.554137 kJ/mol
# Density = 1.235736 g / cm^3
# Si number density = 12.385551 Si / 1000 Ang^3
#
#
#
# Elastic Constant Matrix: (Units=GPa)
#
#
# Indices 1 2 3 4 5 6 
#
# 1 55.2196 36.1410 30.9660 0.0000 0.0000 0.0000
# 2 36.1410 78.8120 35.3943 0.0000 0.0000 0.0000
# 3 30.9660 35.3943 103.4499 0.0000 0.0000 0.0000
# 4 0.0000 0.0000 0.0000 18.2468 0.0000 0.0000
# 5 0.0000 0.0000 0.0000 0.0000 15.9648 0.0000
# 6 0.0000 0.0000 0.0000 0.0000 0.0000 21.1898
#
#
#
# Elastic Compliance Matrix: (Units=1/GPa)
#
#
# Indices 1 2 3 4 5 6 
#
# 1 0.027650 -0.010590 -0.004653 0.000000 0.000000 0.000000
# 2 -0.010590 0.019048 -0.003347 0.000000 0.000000 0.000000
# 3 -0.004653 -0.003347 0.012205 0.000000 0.000000 0.000000
# 4 0.000000 0.000000 0.000000 0.054804 0.000000 0.000000
# 5 0.000000 0.000000 0.000000 0.000000 0.062638 0.000000
# 6 0.000000 0.000000 0.000000 0.000000 0.000000 0.047192
#
#
# Mechanical properties :
#
#
# Convention : Reuss Voigt Hill
#
# Bulk Modulus (GPa) = 46.03654 49.16491 47.60072
# Shear Modulus (GPa) = 18.65964 20.07895 19.36929
#
# Velocity S-wave (km/s) = 3.88566 4.03073 3.95886
# Velocity P-wave (km/s) = 7.57505 7.83862 7.70796
#
# Compressibility (1/GPa) = 0.02172188
#
# Stress axis : x y z
#
# Youngs Moduli (GPa) = 36.16641 52.49965 81.93609
#
# Poissons Ratio (x) = 0.55595 0.38128
# Poissons Ratio (y) = 0.38299 0.27425
# Poissons Ratio (z) = 0.16830 0.17572
#
# Static dielectric constant tensor:
#      x y z
#    x 2.291820 0.000000 0.000000 
#    y 0.000000 2.327530 0.000000 
#    z 0.000000 0.000000 2.624110 
# 
# 
# High freq. dielectric constant tensor:
#      x y z
#    x 1.431740 0.000000 0.000000 
#    y 0.000000 1.437100 0.000000 
#    z 0.000000 0.000000 1.494010 
# 
# From -- ./inp_files/8867.got.cif
#   From: 2010.03.12/outbox.cif.g09.slc.cpg/sg66_5_cif.got.tgz:8867.got - 2010.04.10 21:57:39.
