data_PCOD8277559
_publ_section_title
;
Structure prediction by ZEFSAII (Michael W. Deem and Ramdas Pophale) SiO2 
 PCOD8277559
Probable space group: C C C M
;
_chemical_formula_sum "Si O2"
_cell_formula_units_Z 96
_cell_length_a 16.961202
_cell_length_b 20.760025
_cell_length_c 16.589299
_cell_angle_alpha 90.000000
_cell_angle_beta 90.000000
_cell_angle_gamma 90.000000
_cell_volume 5841.340645
_symmetry_space_group_name_H-M "C C C M"
_symmetry_group_IT_number 66
_symmetry_cell_setting 'orthorhombic'
loop_
_space_group_symop_operation_xyz
x,y,z
-x,-y,z
x,-y,1/2-z
-x,y,1/2-z
-x,-y,-z
x,y,-z
-x,y,1/2+z
x,-y,1/2+z
1/2+x,1/2+y,z
1/2-x,1/2-y,z
1/2+x,1/2-y,1/2-z
1/2-x,1/2+y,1/2-z
1/2-x,1/2-y,-z
1/2+x,1/2+y,-z
1/2-x,1/2+y,1/2+z
1/2+x,1/2-y,1/2+z
loop_
_atom_site_type_symbol
_atom_site_label
_atom_site_fract_x
_atom_site_fract_y
_atom_site_fract_z
Si Si1 0.948543 0.765317 0.829271
Si Si2 0.052256 0.624270 0.671100
Si Si3 0.599462 0.882065 0.590791
Si Si4 0.192610 0.571465 0.240272
Si Si5 0.805792 0.810824 0.742050
Si Si6 0.899077 0.770259 0.409026
O O1 0.915454 0.694831 0.854120
O O2 0.874303 0.811134 0.810410
O O3 0.000000 0.757257 0.750000
O O4 0.009033 0.792122 0.897271
O O5 0.126409 0.578548 0.689523
O O6 0.000000 0.630924 0.750000
O O7 0.992648 0.597024 0.602636
O O8 0.625190 0.898775 0.500000
O O9 0.656343 0.919727 0.651362
O O10 0.607497 0.805902 0.609351
O O11 0.227981 0.500000 0.250000
O O12 0.261892 0.622130 0.253772
O O13 0.750000 0.750000 0.756791
O O14 0.841324 0.807604 0.651637
O O15 0.872908 0.786884 0.500000
#
# Coordination Sequence:
#
# PCOD8277559 Si02
#       6
#    16  16  16  16  16  16
#     4   8  14  27  47  68  91 122 158 190 230 280
#     4   8  14  27  44  65  93 126 158 186 222 279
#     4   9  17  30  49  73  99 127 158 195 237 288
#     4  11  21  31  44  69 101 132 164 199 235 280
#     4  11  17  29  50  73  97 129 160 194 241 286
#     4   9  17  29  51  80 101 117 150 203 254 291
#
# _framework density 16.434583
#
# number of rings (size 3 to 8) (size 9 to 14) (size 15 to 20)
#    0.000    2.667    3.333    2.000    0.000    4.000 
#    0.000    1.667    0.000    7.000    0.000    1.167 
#    0.000    0.000    0.000    0.000    0.000    0.000 
#
# Total GULP energy -594752.173702 kJ/mol
# GULP energy per Si atom -12390.670285 kJ/mol
# Density = 1.639718 g / cm^3
# Si number density = 16.434583 Si / 1000 Ang^3
#
#
#
# Elastic Constant Matrix: (Units=GPa)
#
#
# Indices 1 2 3 4 5 6 
#
# 1 79.4253 48.3615 17.0429 0.0000 0.0000 0.0000
# 2 48.3615 90.5789 16.7664 0.0000 0.0000 0.0000
# 3 17.0429 16.7664 42.5638 0.0000 0.0000 0.0000
# 4 0.0000 0.0000 0.0000 10.3952 0.0000 0.0000
# 5 0.0000 0.0000 0.0000 0.0000 19.4249 0.0000
# 6 0.0000 0.0000 0.0000 0.0000 0.0000 19.4521
#
#
#
# Elastic Compliance Matrix: (Units=1/GPa)
#
#
# Indices 1 2 3 4 5 6 
#
# 1 0.019251 -0.009548 -0.003947 0.000000 0.000000 0.000000
# 2 -0.009548 0.016644 -0.002733 0.000000 0.000000 0.000000
# 3 -0.003947 -0.002733 0.026151 0.000000 0.000000 0.000000
# 4 0.000000 0.000000 0.000000 0.096198 0.000000 0.000000
# 5 0.000000 0.000000 0.000000 0.000000 0.051480 0.000000
# 6 0.000000 0.000000 0.000000 0.000000 0.000000 0.051408
#
#
# Mechanical properties :
#
#
# Convention : Reuss Voigt Hill
#
# Bulk Modulus (GPa) = 33.79563 41.87884 37.83723
# Shear Modulus (GPa) = 16.47704 18.54758 17.51231
#
# Velocity S-wave (km/s) = 3.16980 3.36306 3.26786
# Velocity P-wave (km/s) = 5.83140 6.37320 6.10831
#
# Compressibility (1/GPa) = 0.02958962
#
# Stress axis : x y z
#
# Youngs Moduli (GPa) = 51.94526 60.08267 38.23899
#
# Poissons Ratio (x) = 0.57366 0.15094
# Poissons Ratio (y) = 0.49596 0.10451
# Poissons Ratio (z) = 0.20504 0.16422
#
# Static dielectric constant tensor:
#      x y z
#    x 3.238920 0.000000 0.000000 
#    y 0.000000 2.727630 0.000000 
#    z 0.000000 0.000000 3.270300 
# 
# 
# High freq. dielectric constant tensor:
#      x y z
#    x 1.625930 0.000000 0.000000 
#    y 0.000000 1.589180 0.000000 
#    z 0.000000 0.000000 1.614710 
# 
# From -- ./inp_files/41745.got.cif
#   From: 2010.03.12/outbox.cif.g09.slc.cpg/sg66_21_cif.got.tgz:41745.got - 2010.04.10 21:57:39.
