data_PCOD8277119
_publ_section_title
;
Structure prediction by ZEFSAII (Michael W. Deem and Ramdas Pophale) SiO2 
 PCOD8277119
Probable space group: C C C M
;
_chemical_formula_sum "Si O2"
_cell_formula_units_Z 68
_cell_length_a 20.225347
_cell_length_b 19.948435
_cell_length_c 9.197905
_cell_angle_alpha 90.000000
_cell_angle_beta 90.000000
_cell_angle_gamma 90.000000
_cell_volume 3711.023727
_symmetry_space_group_name_H-M "C C C M"
_symmetry_group_IT_number 66
_symmetry_cell_setting 'orthorhombic'
loop_
_space_group_symop_operation_xyz
x,y,z
-x,-y,z
x,-y,1/2-z
-x,y,1/2-z
-x,-y,-z
x,y,-z
-x,y,1/2+z
x,-y,1/2+z
1/2+x,1/2+y,z
1/2-x,1/2-y,z
1/2+x,1/2-y,1/2-z
1/2-x,1/2+y,1/2-z
1/2-x,1/2-y,-z
1/2+x,1/2+y,-z
1/2-x,1/2+y,1/2+z
1/2+x,1/2-y,1/2+z
loop_
_atom_site_type_symbol
_atom_site_label
_atom_site_fract_x
_atom_site_fract_y
_atom_site_fract_z
Si Si1 0.246251 0.567047 0.171293
Si Si2 0.000000 0.500000 0.250000
Si Si3 0.599493 0.893562 0.338985
Si Si4 0.936523 0.736476 0.168662
Si Si5 0.699626 0.691857 0.168390
O O1 0.271258 0.500000 0.250000
O O2 0.170014 0.578711 0.212939
O O3 0.289920 0.627899 0.231026
O O4 0.257459 0.559931 0.000000
O O5 0.953033 0.546234 0.348617
O O6 0.605604 0.861665 0.500000
O O7 0.576779 0.838181 0.225078
O O8 0.874644 0.784149 0.197346
O O9 0.000000 0.767806 0.250000
O O10 0.953258 0.729933 0.000000
O O11 0.750000 0.750000 0.216873
O O12 0.711647 0.673147 0.000000
#
# Coordination Sequence:
#
# PCOD8277119 Si02
#       5
#    16   4  16  16  16
#     4  11  23  38  58  86 118 154 197 247 293 347
#     4  12  22  36  52  78 122 164 198 224 274 336
#     4  11  23  35  52  80 115 157 199 234 278 336
#     4  11  23  38  59  84 116 152 193 242 293 346
#     4  10  21  39  61  86 116 155 198 245 295 350
#
# _framework density 18.323784
#
# number of rings (size 3 to 8) (size 9 to 14) (size 15 to 20)
#    0.000    1.176    4.706    1.765    0.000    4.235 
#    0.000    0.000    0.000    0.706    0.000    4.941 
#    0.000    0.000    0.000    0.000    0.000    0.000 
#
# Total GULP energy -421742.858255 kJ/mol
# GULP energy per Si atom -12404.201713 kJ/mol
# Density = 1.828208 g / cm^3
# Si number density = 18.323784 Si / 1000 Ang^3
#
#
#
# Elastic Constant Matrix: (Units=GPa)
#
#
# Indices 1 2 3 4 5 6 
#
# 1 97.9542 59.6125 63.6713 0.0000 0.0000 0.0000
# 2 59.6125 114.0375 60.7686 0.0000 0.0000 0.0000
# 3 63.6713 60.7686 111.3048 0.0000 0.0000 0.0000
# 4 0.0000 0.0000 0.0000 32.6455 0.0000 0.0000
# 5 0.0000 0.0000 0.0000 0.0000 27.9953 0.0000
# 6 0.0000 0.0000 0.0000 0.0000 0.0000 29.3579
#
#
#
# Elastic Compliance Matrix: (Units=1/GPa)
#
#
# Indices 1 2 3 4 5 6 
#
# 1 0.018555 -0.005702 -0.007501 0.000000 0.000000 0.000000
# 2 -0.005702 0.014120 -0.004447 0.000000 0.000000 0.000000
# 3 -0.007501 -0.004447 0.015703 0.000000 0.000000 0.000000
# 4 0.000000 0.000000 0.000000 0.030632 0.000000 0.000000
# 5 0.000000 0.000000 0.000000 0.000000 0.035720 0.000000
# 6 0.000000 0.000000 0.000000 0.000000 0.000000 0.034062
#
#
# Mechanical properties :
#
#
# Convention : Reuss Voigt Hill
#
# Bulk Modulus (GPa) = 76.46852 76.82237 76.64544
# Shear Modulus (GPa) = 26.53206 27.28268 26.90737
#
# Velocity S-wave (km/s) = 3.80933 3.86284 3.83618
# Velocity P-wave (km/s) = 7.82115 7.86838 7.84480
#
# Compressibility (1/GPa) = 0.01307728
#
# Stress axis : x y z
#
# Youngs Moduli (GPa) = 53.89439 70.82397 63.68215
#
# Poissons Ratio (x) = 0.40386 0.47767
# Poissons Ratio (y) = 0.30732 0.28318
# Poissons Ratio (z) = 0.40426 0.31494
#
# Static dielectric constant tensor:
#      x y z
#    x 3.507570 0.000000 0.000000 
#    y 0.000000 3.198770 0.000000 
#    z 0.000000 0.000000 3.368980 
# 
# 
# High freq. dielectric constant tensor:
#      x y z
#    x 1.709010 0.000000 0.000000 
#    y 0.000000 1.694760 0.000000 
#    z 0.000000 0.000000 1.719330 
# 
# From -- ./inp_files/6254.got.cif
#   From: 2010.03.12/outbox.cif.g09.slc.cpg/sg66_4_cif.got.tgz:6254.got - 2010.04.10 21:57:39.
