data_PCOD8277368
_publ_section_title
;
Structure prediction by ZEFSAII (Michael W. Deem and Ramdas Pophale) SiO2 
 PCOD8277368
Probable space group: C C C M
;
_chemical_formula_sum "Si O2"
_cell_formula_units_Z 68
_cell_length_a 8.679229
_cell_length_b 27.525983
_cell_length_c 15.430208
_cell_angle_alpha 90.000000
_cell_angle_beta 90.000000
_cell_angle_gamma 90.000000
_cell_volume 3686.343194
_symmetry_space_group_name_H-M "C C C M"
_symmetry_group_IT_number 66
_symmetry_cell_setting 'orthorhombic'
loop_
_space_group_symop_operation_xyz
x,y,z
-x,-y,z
x,-y,1/2-z
-x,y,1/2-z
-x,-y,-z
x,y,-z
-x,y,1/2+z
x,-y,1/2+z
1/2+x,1/2+y,z
1/2-x,1/2-y,z
1/2+x,1/2-y,1/2-z
1/2-x,1/2+y,1/2-z
1/2-x,1/2-y,-z
1/2+x,1/2+y,-z
1/2-x,1/2+y,1/2+z
1/2+x,1/2-y,1/2+z
loop_
_atom_site_type_symbol
_atom_site_label
_atom_site_fract_x
_atom_site_fract_y
_atom_site_fract_z
Si Si1 0.424514 0.661593 0.000000
Si Si2 0.113871 0.152131 0.826182
Si Si3 0.750000 0.250000 0.641839
Si Si4 0.084008 0.406899 0.832442
Si Si5 0.097427 0.373194 0.500000
Si Si6 0.003379 0.733390 0.500000
Si Si7 0.000000 0.500000 0.750000
O O1 0.526083 0.652308 0.916089
O O2 0.283612 0.622915 0.000000
O O3 0.389570 0.719835 0.000000
O O4 0.189121 0.204590 0.801126
O O5 0.245095 0.112640 0.841120
O O6 0.000000 0.135820 0.750000
O O7 0.889932 0.269226 0.584386
O O8 0.000000 0.381431 0.750000
O O9 0.100062 0.464941 0.813378
O O10 0.979854 0.397481 0.916691
O O11 0.092811 0.315225 0.500000
#
# Coordination Sequence:
#
# PCOD8277368 Si02
#       7
#     8  16   8  16   8   8   4
#     4  10  23  36  54  96 131 157 199 243 296 357
#     4  11  21  38  60  87 128 163 200 251 299 358
#     4   9  18  34  52  87 124 162 200 233 288 355
#     4  10  22  41  65  87 113 155 207 253 304 360
#     4  12  19  37  67  86 118 168 203 239 303 370
#     4   9  17  34  55  83 124 162 197 239 283 348
#     4   8  24  46  62  92 114 144 218 262 304 358
#
# _framework density 18.446463999999999
#
# number of rings (size 3 to 8) (size 9 to 14) (size 15 to 20)
#    0.706    1.176    2.353    3.176    0.000    1.412 
#    8.471    0.588    0.000    1.412    0.000    0.000 
#    0.000    0.000    0.000    0.000    0.000    0.000 
#
# Total GULP energy -421284.111242 kJ/mol
# GULP energy per Si atom -12390.709154 kJ/mol
# Density = 1.840448 g / cm^3
# Si number density = 18.446464 Si / 1000 Ang^3
#
#
#
# Elastic Constant Matrix: (Units=GPa)
#
#
# Indices 1 2 3 4 5 6 
#
# 1 106.4114 60.1868 48.9735 0.0000 0.0000 0.0000
# 2 60.1868 116.1291 44.3093 0.0000 0.0000 0.0000
# 3 48.9735 44.3093 125.9573 0.0000 0.0000 0.0000
# 4 0.0000 0.0000 0.0000 37.0454 0.0000 0.0000
# 5 0.0000 0.0000 0.0000 0.0000 26.0113 0.0000
# 6 0.0000 0.0000 0.0000 0.0000 0.0000 21.1585
#
#
#
# Elastic Compliance Matrix: (Units=1/GPa)
#
#
# Indices 1 2 3 4 5 6 
#
# 1 0.014490 -0.006191 -0.003456 0.000000 0.000000 0.000000
# 2 -0.006191 0.012591 -0.002022 0.000000 0.000000 0.000000
# 3 -0.003456 -0.002022 0.009994 0.000000 0.000000 0.000000
# 4 0.000000 0.000000 0.000000 0.026994 0.000000 0.000000
# 5 0.000000 0.000000 0.000000 0.000000 0.038445 0.000000
# 6 0.000000 0.000000 0.000000 0.000000 0.000000 0.047262
#
#
# Mechanical properties :
#
#
# Convention : Reuss Voigt Hill
#
# Bulk Modulus (GPa) = 72.79608 72.82631 72.81120
# Shear Modulus (GPa) = 28.13834 29.84493 28.99164
#
# Velocity S-wave (km/s) = 3.90988 4.02670 3.96872
# Velocity P-wave (km/s) = 7.74158 7.82206 7.78192
#
# Compressibility (1/GPa) = 0.01373700
#
# Stress axis : x y z
#
# Youngs Moduli (GPa) = 69.01483 79.41953 100.05756
#
# Poissons Ratio (x) = 0.49169 0.34578
# Poissons Ratio (y) = 0.42727 0.20234
# Poissons Ratio (z) = 0.23850 0.16061
#
# Static dielectric constant tensor:
#      x y z
#    x 3.349500 0.000000 0.000000 
#    y 0.000000 3.260030 0.000000 
#    z 0.000000 0.000000 3.310400 
# 
# 
# High freq. dielectric constant tensor:
#      x y z
#    x 1.716570 0.000000 0.000000 
#    y 0.000000 1.694200 0.000000 
#    z 0.000000 0.000000 1.716140 
# 
# From -- ./inp_files/37123.got.cif
#   From: 2010.03.12/outbox.cif.g09.slc.cpg/sg66_19_cif.got.tgz:37123.got - 2010.04.10 21:57:39.
