data_PCOD8277246
_publ_section_title
;
Structure prediction by ZEFSAII (Michael W. Deem and Ramdas Pophale) SiO2 
 PCOD8277246
Probable space group: C C C M
;
_chemical_formula_sum "Si O2"
_cell_formula_units_Z 96
_cell_length_a 11.764793
_cell_length_b 20.894576
_cell_length_c 17.545566
_cell_angle_alpha 90.000000
_cell_angle_beta 90.000000
_cell_angle_gamma 90.000000
_cell_volume 4313.057376
_symmetry_space_group_name_H-M "C C C M"
_symmetry_group_IT_number 66
_symmetry_cell_setting 'orthorhombic'
loop_
_space_group_symop_operation_xyz
x,y,z
-x,-y,z
x,-y,1/2-z
-x,y,1/2-z
-x,-y,-z
x,y,-z
-x,y,1/2+z
x,-y,1/2+z
1/2+x,1/2+y,z
1/2-x,1/2-y,z
1/2+x,1/2-y,1/2-z
1/2-x,1/2+y,1/2-z
1/2-x,1/2-y,-z
1/2+x,1/2+y,-z
1/2-x,1/2+y,1/2+z
1/2+x,1/2-y,1/2+z
loop_
_atom_site_type_symbol
_atom_site_label
_atom_site_fract_x
_atom_site_fract_y
_atom_site_fract_z
Si Si1 0.982436 0.290942 0.838190
Si Si2 0.781775 0.378113 0.171377
Si Si3 0.187758 0.376325 0.155126
Si Si4 0.954356 0.921270 0.665842
Si Si5 0.225511 0.003950 0.588353
Si Si6 0.398656 0.324743 0.911405
O O1 0.853402 0.315319 0.853575
O O2 0.000000 0.272713 0.750000
O O3 0.064289 0.348724 0.864337
O O4 0.011579 0.229431 0.888329
O O5 0.812539 0.397604 0.257446
O O6 0.645449 0.366124 0.167954
O O7 0.809799 0.439191 0.117197
O O8 0.213893 0.436823 0.102148
O O9 0.280531 0.320585 0.135888
O O10 0.895622 0.987708 0.634975
O O11 0.000000 0.933350 0.750000
O O12 0.049478 0.894653 0.608256
O O13 0.199571 0.013172 0.500000
O O14 0.370890 0.320410 0.000000
#
# Coordination Sequence:
#
# PCOD8277246 Si02
#       6
#    16  16  16  16  16  16
#     4  10  24  43  65  90 124 169 220 267 311 375
#     4   9  22  42  65  93 122 165 218 263 315 382
#     4  11  22  42  65  93 126 170 214 263 316 381
#     4  10  21  42  67  93 124 166 213 262 319 384
#     4  10  22  40  64  96 132 162 206 267 323 383
#     4  12  24  40  63  95 131 167 211 264 324 386
#
# _framework density 22.257991000000001
#
# number of rings (size 3 to 8) (size 9 to 14) (size 15 to 20)
#    1.000    0.667    1.667    2.500    0.000    4.667 
#    3.000    5.833    0.000    0.000    0.000    0.000 
#    0.000    0.000    0.000    0.000    0.000    0.000 
#
# Total GULP energy -595013.819909 kJ/mol
# GULP energy per Si atom -12396.121248 kJ/mol
# Density = 2.220733 g / cm^3
# Si number density = 22.257991 Si / 1000 Ang^3
#
#
#
# Elastic Constant Matrix: (Units=GPa)
#
#
# Indices 1 2 3 4 5 6 
#
# 1 75.2391 9.0467 32.8681 0.0000 0.0000 0.0000
# 2 9.0467 63.4167 48.6657 0.0000 0.0000 0.0000
# 3 32.8681 48.6657 130.9085 0.0000 0.0000 0.0000
# 4 0.0000 0.0000 0.0000 29.6555 0.0000 0.0000
# 5 0.0000 0.0000 0.0000 0.0000 15.2427 0.0000
# 6 0.0000 0.0000 0.0000 0.0000 0.0000 23.0031
#
#
#
# Elastic Compliance Matrix: (Units=1/GPa)
#
#
# Indices 1 2 3 4 5 6 
#
# 1 0.014978 0.001048 -0.004150 0.000000 0.000000 0.000000
# 2 0.001048 0.022136 -0.008492 0.000000 0.000000 0.000000
# 3 -0.004150 -0.008492 0.011838 0.000000 0.000000 0.000000
# 4 0.000000 0.000000 0.000000 0.033721 0.000000 0.000000
# 5 0.000000 0.000000 0.000000 0.000000 0.065605 0.000000
# 6 0.000000 0.000000 0.000000 0.000000 0.000000 0.043472
#
#
# Mechanical properties :
#
#
# Convention : Reuss Voigt Hill
#
# Bulk Modulus (GPa) = 38.81488 50.08056 44.44772
# Shear Modulus (GPa) = 22.36865 25.51250 23.94058
#
# Velocity S-wave (km/s) = 3.17357 3.38926 3.28318
# Velocity P-wave (km/s) = 5.55924 6.15345 5.86388
#
# Compressibility (1/GPa) = 0.02576331
#
# Stress axis : x y z
#
# Youngs Moduli (GPa) = 66.76465 45.17486 84.47337
#
# Poissons Ratio (x) = -0.04735 0.35059
# Poissons Ratio (y) = -0.06999 0.71738
# Poissons Ratio (z) = 0.27709 0.38364
#
# Static dielectric constant tensor:
#      x y z
#    x 4.196120 0.000000 0.000000 
#    y 0.000000 3.912190 0.000000 
#    z 0.000000 0.000000 3.753350 
# 
# 
# High freq. dielectric constant tensor:
#      x y z
#    x 1.876590 0.000000 0.000000 
#    y 0.000000 1.875170 0.000000 
#    z 0.000000 0.000000 1.864010 
# 
# From -- ./inp_files/38802.got.cif
#   From: 2010.03.12/outbox.cif.g09.slc.cpg/sg66_20_cif.got.tgz:38802.got - 2010.04.10 21:57:39.
