data_PCOD8277491
_publ_section_title
;
Structure prediction by ZEFSAII (Michael W. Deem and Ramdas Pophale) SiO2 
 PCOD8277491
Probable space group: C C C M
;
_chemical_formula_sum "Si O2"
_cell_formula_units_Z 116
_cell_length_a 16.995922
_cell_length_b 11.155204
_cell_length_c 29.035551
_cell_angle_alpha 90.000000
_cell_angle_beta 90.000000
_cell_angle_gamma 90.000000
_cell_volume 5504.936555
_symmetry_space_group_name_H-M "C C C M"
_symmetry_group_IT_number 66
_symmetry_cell_setting 'orthorhombic'
loop_
_space_group_symop_operation_xyz
x,y,z
-x,-y,z
x,-y,1/2-z
-x,y,1/2-z
-x,-y,-z
x,y,-z
-x,y,1/2+z
x,-y,1/2+z
1/2+x,1/2+y,z
1/2-x,1/2-y,z
1/2+x,1/2-y,1/2-z
1/2-x,1/2+y,1/2-z
1/2-x,1/2-y,-z
1/2+x,1/2+y,-z
1/2-x,1/2+y,1/2+z
1/2+x,1/2-y,1/2+z
loop_
_atom_site_type_symbol
_atom_site_label
_atom_site_fract_x
_atom_site_fract_y
_atom_site_fract_z
Si Si1 0.000000 0.500000 0.750000
Si Si2 0.214447 0.879206 0.553953
Si Si3 0.963356 0.129526 0.448633
Si Si4 0.685870 0.962323 0.621015
Si Si5 0.678416 0.601363 0.683469
Si Si6 0.175523 0.170866 0.787066
Si Si7 0.570510 0.237007 0.878156
Si Si8 0.427671 0.140082 0.173291
O O1 0.063119 0.428012 0.779229
O O2 0.220017 0.911176 0.500000
O O3 0.250000 0.750000 0.565053
O O4 0.124657 0.876640 0.571723
O O5 0.258760 0.984037 0.581367
O O6 0.959651 0.184131 0.500000
O O7 0.017712 0.214905 0.419141
O O8 0.000000 0.000000 0.449297
O O9 0.735839 0.890223 0.659895
O O10 0.633364 0.855181 0.599991
O O11 0.633212 0.070311 0.640653
O O12 0.673504 0.671861 0.731601
O O13 0.670712 0.460415 0.692018
O O14 0.610289 0.654126 0.650370
O O15 0.250000 0.250000 0.803299
O O16 0.101217 0.229226 0.811897
O O17 0.514645 0.153586 0.847253
#
# Coordination Sequence:
#
# PCOD8277491 Si02
#       8
#     4  16  16  16  16  16  16  16
#     4  12  24  44  60  90 138 176 218 276 322 400
#     4  10  23  43  71 102 133 172 222 276 330 400
#     4  10  23  43  69  98 131 176 218 266 339 407
#     4  12  24  43  67 100 133 173 226 269 335 399
#     4  11  26  42  64  97 130 172 225 282 328 389
#     4  11  24  42  66  93 127 176 228 277 332 385
#     4  12  25  43  65 100 138 169 220 277 332 395
#     4  12  26  40  67  94 128 184 221 269 330 397
#
# _framework density 21.071995999999999
#
# number of rings (size 3 to 8) (size 9 to 14) (size 15 to 20)
#    0.000    0.828    2.759    3.724    7.724    0.552 
#    0.000    1.379    0.000    8.276    0.000    0.000 
#    0.000    0.000    0.000    0.000    0.000    0.000 
#
# Total GULP energy -719148.143244 kJ/mol
# GULP energy per Si atom -12399.105918 kJ/mol
# Density = 2.102404 g / cm^3
# Si number density = 21.071996 Si / 1000 Ang^3
#
#
#
# Elastic Constant Matrix: (Units=GPa)
#
#
# Indices 1 2 3 4 5 6 
#
# 1 151.5296 65.0663 58.5428 0.0000 0.0000 0.0000
# 2 65.0663 99.0270 55.5005 0.0000 0.0000 0.0000
# 3 58.5428 55.5005 91.3408 0.0000 0.0000 0.0000
# 4 0.0000 0.0000 0.0000 27.9686 0.0000 0.0000
# 5 0.0000 0.0000 0.0000 0.0000 39.7022 0.0000
# 6 0.0000 0.0000 0.0000 0.0000 0.0000 51.1707
#
#
#
# Elastic Compliance Matrix: (Units=1/GPa)
#
#
# Indices 1 2 3 4 5 6 
#
# 1 0.009932 -0.004486 -0.003640 0.000000 0.000000 0.000000
# 2 -0.004486 0.017339 -0.007661 0.000000 0.000000 0.000000
# 3 -0.003640 -0.007661 0.017936 0.000000 0.000000 0.000000
# 4 0.000000 0.000000 0.000000 0.035754 0.000000 0.000000
# 5 0.000000 0.000000 0.000000 0.000000 0.025188 0.000000
# 6 0.000000 0.000000 0.000000 0.000000 0.000000 0.019542
#
#
# Mechanical properties :
#
#
# Convention : Reuss Voigt Hill
#
# Bulk Modulus (GPa) = 73.34555 77.79072 75.56813
# Shear Modulus (GPa) = 30.90086 34.62084 32.76085
#
# Velocity S-wave (km/s) = 3.83357 4.05776 3.94726
# Velocity P-wave (km/s) = 7.38090 7.67794 7.53088
#
# Compressibility (1/GPa) = 0.01363409
#
# Stress axis : x y z
#
# Youngs Moduli (GPa) = 100.68671 57.67335 55.75490
#
# Poissons Ratio (x) = 0.25871 0.20295
# Poissons Ratio (y) = 0.45165 0.42711
# Poissons Ratio (z) = 0.36649 0.44181
#
# Static dielectric constant tensor:
#      x y z
#    x 3.987900 0.000000 0.000000 
#    y 0.000000 3.819060 0.000000 
#    z 0.000000 0.000000 3.925570 
# 
# 
# High freq. dielectric constant tensor:
#      x y z
#    x 1.840450 0.000000 0.000000 
#    y 0.000000 1.838260 0.000000 
#    z 0.000000 0.000000 1.821540 
# 
# From -- ./inp_files/65341.got.cif
#   From: 2010.03.12/outbox.cif.g09.slc.cpg/sg66_33_cif.got.tgz:65341.got - 2010.04.10 21:57:39.
