data_PCOD8277531
_publ_section_title
;
Structure prediction by ZEFSAII (Michael W. Deem and Ramdas Pophale) SiO2 
 PCOD8277531
Probable space group: C C C M
;
_chemical_formula_sum "Si O2"
_cell_formula_units_Z 40
_cell_length_a 12.745616
_cell_length_b 5.119708
_cell_length_c 25.856644
_cell_angle_alpha 90.000000
_cell_angle_beta 90.000000
_cell_angle_gamma 90.000000
_cell_volume 1687.245109
_symmetry_space_group_name_H-M "C C C M"
_symmetry_group_IT_number 66
_symmetry_cell_setting 'orthorhombic'
loop_
_space_group_symop_operation_xyz
x,y,z
-x,-y,z
x,-y,1/2-z
-x,y,1/2-z
-x,-y,-z
x,y,-z
-x,y,1/2+z
x,-y,1/2+z
1/2+x,1/2+y,z
1/2-x,1/2-y,z
1/2+x,1/2-y,1/2-z
1/2-x,1/2+y,1/2-z
1/2-x,1/2-y,-z
1/2+x,1/2+y,-z
1/2-x,1/2+y,1/2+z
1/2+x,1/2-y,1/2+z
loop_
_atom_site_type_symbol
_atom_site_label
_atom_site_fract_x
_atom_site_fract_y
_atom_site_fract_z
Si Si1 0.817474 0.004179 0.556993
Si Si2 0.630691 0.248938 0.284985
Si Si3 0.000000 0.000000 0.866815
O O1 0.863223 0.081070 0.500000
O O2 0.750000 0.750000 0.550432
O O3 0.906282 0.907596 0.596566
O O4 0.750000 0.250000 0.578413
O O5 0.613370 0.500000 0.250000
O O6 0.750000 0.250000 0.306601
O O7 0.546886 0.263567 0.331854
O O8 0.606028 0.000000 0.250000
#
# Coordination Sequence:
#
# PCOD8277531 Si02
#       3
#    16  16   8
#     4  10  24  45  68 101 140 173 216 275 335 399
#     4  10  24  44  63  91 132 172 217 274 328 384
#     4  12  24  42  74 100 128 180 230 270 330 398
#
# _framework density 23.707284000000001
#
# number of rings (size 3 to 8) (size 9 to 14) (size 15 to 20)
#    0.000    1.600    0.000    2.400    0.000   16.000 
#    0.000   10.000    0.000    0.000    0.000    0.000 
#    0.000    0.000    0.000    0.000    0.000    0.000 
#
# Total GULP energy -247854.898024 kJ/mol
# GULP energy per Si atom -12392.744901 kJ/mol
# Density = 2.365333 g / cm^3
# Si number density = 23.707284 Si / 1000 Ang^3
#
#
#
# Elastic Constant Matrix: (Units=GPa)
#
#
# Indices 1 2 3 4 5 6 
#
# 1 160.2263 41.4085 104.6529 0.0000 0.0000 0.0000
# 2 41.4085 150.4688 53.8813 0.0000 0.0000 0.0000
# 3 104.6529 53.8813 159.3405 0.0000 0.0000 0.0000
# 4 0.0000 0.0000 0.0000 88.6210 0.0000 0.0000
# 5 0.0000 0.0000 0.0000 0.0000 90.4787 0.0000
# 6 0.0000 0.0000 0.0000 0.0000 0.0000 29.8080
#
#
#
# Elastic Compliance Matrix: (Units=1/GPa)
#
#
# Indices 1 2 3 4 5 6 
#
# 1 0.010963 -0.000499 -0.007031 0.000000 0.000000 0.000000
# 2 -0.000499 0.007584 -0.002237 0.000000 0.000000 0.000000
# 3 -0.007031 -0.002237 0.011650 0.000000 0.000000 0.000000
# 4 0.000000 0.000000 0.000000 0.011284 0.000000 0.000000
# 5 0.000000 0.000000 0.000000 0.000000 0.011052 0.000000
# 6 0.000000 0.000000 0.000000 0.000000 0.000000 0.033548
#
#
# Mechanical properties :
#
#
# Convention : Reuss Voigt Hill
#
# Bulk Modulus (GPa) = 93.78458 96.65789 95.22123
# Shear Modulus (GPa) = 45.79974 59.78773 52.79373
#
# Velocity S-wave (km/s) = 4.40009 5.02731 4.72412
# Velocity P-wave (km/s) = 8.09071 8.63472 8.36714
#
# Compressibility (1/GPa) = 0.01066273
#
# Stress axis : x y z
#
# Youngs Moduli (GPa) = 91.21747 131.85267 85.83345
#
# Poissons Ratio (x) = 0.06580 0.60354
# Poissons Ratio (y) = 0.04552 0.19200
# Poissons Ratio (z) = 0.64140 0.29494
#
# Static dielectric constant tensor:
#      x y z
#    x 2.895390 0.000000 0.000000 
#    y 0.000000 3.528760 0.000000 
#    z 0.000000 0.000000 4.575180 
# 
# 
# High freq. dielectric constant tensor:
#      x y z
#    x 1.949560 0.000000 0.000000 
#    y 0.000000 1.927990 0.000000 
#    z 0.000000 0.000000 1.952280 
# 
# From -- ./inp_files/64047.got.cif
#   From: 2010.03.12/outbox.cif.g09.slc.cpg/sg66_33_cif.got.tgz:64047.got - 2010.04.10 21:57:39.
