data_PCOD8277005
_publ_section_title
;
Structure prediction by ZEFSAII (Michael W. Deem and Ramdas Pophale) SiO2 
 PCOD8277005
Probable space group: C C C M
;
_chemical_formula_sum "Si O2"
_cell_formula_units_Z 96
_cell_length_a 23.619207
_cell_length_b 24.031992
_cell_length_c 8.859465
_cell_angle_alpha 90.000000
_cell_angle_beta 90.000000
_cell_angle_gamma 90.000000
_cell_volume 5028.779345
_symmetry_space_group_name_H-M "C C C M"
_symmetry_group_IT_number 66
_symmetry_cell_setting 'orthorhombic'
loop_
_space_group_symop_operation_xyz
x,y,z
-x,-y,z
x,-y,1/2-z
-x,y,1/2-z
-x,-y,-z
x,y,-z
-x,y,1/2+z
x,-y,1/2+z
1/2+x,1/2+y,z
1/2-x,1/2-y,z
1/2+x,1/2-y,1/2-z
1/2-x,1/2+y,1/2-z
1/2-x,1/2-y,-z
1/2+x,1/2+y,-z
1/2-x,1/2+y,1/2+z
1/2+x,1/2-y,1/2+z
loop_
_atom_site_type_symbol
_atom_site_label
_atom_site_fract_x
_atom_site_fract_y
_atom_site_fract_z
Si Si1 0.864921 0.226021 0.178374
Si Si2 0.769832 0.839238 0.821668
Si Si3 0.939816 0.441576 0.320693
Si Si4 0.139459 0.661058 0.323199
Si Si5 0.941106 0.133604 0.326079
Si Si6 0.660113 0.442436 0.328832
O O1 0.802142 0.212808 0.244505
O O2 0.885308 0.287017 0.230739
O O3 0.911505 0.183973 0.240342
O O4 0.862922 0.222551 0.000000
O O5 0.704832 0.844281 0.775413
O O6 0.799078 0.895330 0.759649
O O7 0.778823 0.831910 0.000000
O O8 0.919042 0.500000 0.250000
O O9 0.946158 0.448166 0.500000
O O10 0.893935 0.394730 0.277202
O O11 0.000000 0.424146 0.250000
O O12 0.132910 0.673011 0.500000
O O13 0.948886 0.150866 0.500000
O O14 0.904560 0.077358 0.311259
O O15 0.000000 0.119388 0.250000
O O16 0.671101 0.500000 0.250000
O O17 0.677451 0.451772 0.500000
#
# Coordination Sequence:
#
# PCOD8277005 Si02
#       6
#    16  16  16  16  16  16
#     4  11  22  35  54  82 113 143 178 223 272 320
#     4   9  19  37  56  76 108 147 182 220 271 325
#     4  10  21  38  59  81 108 142 178 219 269 320
#     4  10  21  37  58  81 107 144 184 220 267 327
#     4  10  21  38  57  78 107 144 184 225 272 322
#     4   9  19  34  53  77 106 141 179 220 268 320
#
# _framework density 19.090119999999999
#
# number of rings (size 3 to 8) (size 9 to 14) (size 15 to 20)
#    0.000    2.167    0.000    4.500    0.000    9.000 
#    0.000    3.333    0.000    0.000    0.000    0.000 
#    0.000    0.000    0.000    0.000    0.000    0.000 
#
# Total GULP energy -595244.438745 kJ/mol
# GULP energy per Si atom -12400.925807 kJ/mol
# Density = 1.904667 g / cm^3
# Si number density = 19.090120 Si / 1000 Ang^3
#
#
#
# Elastic Constant Matrix: (Units=GPa)
#
#
# Indices 1 2 3 4 5 6 
#
# 1 53.2631 23.1677 14.8128 0.0000 0.0000 0.0000
# 2 23.1677 114.4730 38.1968 0.0000 0.0000 0.0000
# 3 14.8128 38.1968 78.8219 0.0000 0.0000 0.0000
# 4 0.0000 0.0000 0.0000 35.9470 0.0000 0.0000
# 5 0.0000 0.0000 0.0000 0.0000 25.9671 0.0000
# 6 0.0000 0.0000 0.0000 0.0000 0.0000 27.3341
#
#
#
# Elastic Compliance Matrix: (Units=1/GPa)
#
#
# Indices 1 2 3 4 5 6 
#
# 1 0.020914 -0.003485 -0.002242 0.000000 0.000000 0.000000
# 2 -0.003485 0.011001 -0.004676 0.000000 0.000000 0.000000
# 3 -0.002242 -0.004676 0.015374 0.000000 0.000000 0.000000
# 4 0.000000 0.000000 0.000000 0.027819 0.000000 0.000000
# 5 0.000000 0.000000 0.000000 0.000000 0.038510 0.000000
# 6 0.000000 0.000000 0.000000 0.000000 0.000000 0.036584
#
#
# Mechanical properties :
#
#
# Convention : Reuss Voigt Hill
#
# Bulk Modulus (GPa) = 37.75847 44.32361 41.04104
# Shear Modulus (GPa) = 27.80311 29.20836 28.50573
#
# Velocity S-wave (km/s) = 3.82044 3.91580 3.86841
# Velocity P-wave (km/s) = 6.26762 6.61159 6.44190
#
# Compressibility (1/GPa) = 0.02648412
#
# Stress axis : x y z
#
# Youngs Moduli (GPa) = 47.81516 90.89830 65.04399
#
# Poissons Ratio (x) = 0.31675 0.14580
# Poissons Ratio (y) = 0.16662 0.30417
# Poissons Ratio (z) = 0.10718 0.42507
#
# Static dielectric constant tensor:
#      x y z
#    x 3.560970 0.000000 0.000000 
#    y 0.000000 3.595500 0.000000 
#    z 0.000000 0.000000 3.437150 
# 
# 
# High freq. dielectric constant tensor:
#      x y z
#    x 1.740390 0.000000 0.000000 
#    y 0.000000 1.747410 0.000000 
#    z 0.000000 0.000000 1.740740 
# 
# From -- ./inp_files/9108.got.cif
#   From: 2010.03.12/outbox.cif.g09.slc.cpg/sg66_5_cif.got.tgz:9108.got - 2010.04.10 21:57:39.
