data_PCOD8277222
_publ_section_title
;
Structure prediction by ZEFSAII (Michael W. Deem and Ramdas Pophale) SiO2 
 PCOD8277222
Probable space group: C C C M
;
_chemical_formula_sum "Si O2"
_cell_formula_units_Z 80
_cell_length_a 27.046288
_cell_length_b 9.822983
_cell_length_c 15.459683
_cell_angle_alpha 90.000000
_cell_angle_beta 90.000000
_cell_angle_gamma 90.000000
_cell_volume 4107.254794
_symmetry_space_group_name_H-M "C C C M"
_symmetry_group_IT_number 66
_symmetry_cell_setting 'orthorhombic'
loop_
_space_group_symop_operation_xyz
x,y,z
-x,-y,z
x,-y,1/2-z
-x,y,1/2-z
-x,-y,-z
x,y,-z
-x,y,1/2+z
x,-y,1/2+z
1/2+x,1/2+y,z
1/2-x,1/2-y,z
1/2+x,1/2-y,1/2-z
1/2-x,1/2+y,1/2-z
1/2-x,1/2-y,-z
1/2+x,1/2+y,-z
1/2-x,1/2+y,1/2+z
1/2+x,1/2-y,1/2+z
loop_
_atom_site_type_symbol
_atom_site_label
_atom_site_fract_x
_atom_site_fract_y
_atom_site_fract_z
Si Si1 0.699742 0.664585 0.000000
Si Si2 0.560694 0.118175 0.903699
Si Si3 0.463819 0.157928 0.833769
Si Si4 0.872140 0.149291 0.653777
Si Si5 0.203506 0.844921 0.000000
Si Si6 0.633424 0.341406 0.845654
O O1 0.750000 0.750000 0.000000
O O2 0.666665 0.705095 0.083307
O O3 0.715220 0.505903 0.000000
O O4 0.502997 0.161395 0.912887
O O5 0.588522 0.237213 0.852941
O O6 0.566418 0.984149 0.843169
O O7 0.582580 0.096004 0.000000
O O8 0.500000 0.164995 0.750000
O O9 0.425240 0.278797 0.844757
O O10 0.846051 0.165566 0.747473
O O11 0.885452 0.993052 0.632612
O O12 0.250000 0.750000 0.000000
O O13 0.175319 0.800975 0.913275
#
# Coordination Sequence:
#
# PCOD8277222 Si02
#       6
#     8  16  16  16   8  16
#     4  10  24  44  65  92 121 157 208 265 321 374
#     4  11  22  36  56  86 128 165 212 248 303 361
#     4  11  22  37  55  89 126 170 206 252 300 363
#     4  10  23  40  63  88 126 162 205 257 308 371
#     4  10  22  42  65  90 119 153 204 263 317 378
#     4  10  21  41  61  90 122 164 203 255 309 374
#
# _framework density 19.477729
#
# number of rings (size 3 to 8) (size 9 to 14) (size 15 to 20)
#    0.000    1.600    3.000    2.400    2.800    3.200 
#    0.000    1.000    0.000    0.000    0.000    0.000 
#    0.000    0.000    0.000    0.000    0.000    0.000 
#
# Total GULP energy -495704.215086 kJ/mol
# GULP energy per Si atom -12392.605377 kJ/mol
# Density = 1.943340 g / cm^3
# Si number density = 19.477729 Si / 1000 Ang^3
#
#
#
# Elastic Constant Matrix: (Units=GPa)
#
#
# Indices 1 2 3 4 5 6 
#
# 1 105.8282 73.8537 52.9663 0.0000 0.0000 0.0000
# 2 73.8537 102.4496 45.6840 0.0000 0.0000 0.0000
# 3 52.9663 45.6840 134.9278 0.0000 0.0000 0.0000
# 4 0.0000 0.0000 0.0000 24.9809 0.0000 0.0000
# 5 0.0000 0.0000 0.0000 0.0000 28.5707 0.0000
# 6 0.0000 0.0000 0.0000 0.0000 0.0000 42.9870
#
#
#
# Elastic Compliance Matrix: (Units=1/GPa)
#
#
# Indices 1 2 3 4 5 6 
#
# 1 0.020373 -0.013098 -0.003563 0.000000 0.000000 0.000000
# 2 -0.013098 0.019917 -0.001602 0.000000 0.000000 0.000000
# 3 -0.003563 -0.001602 0.009352 0.000000 0.000000 0.000000
# 4 0.000000 0.000000 0.000000 0.040031 0.000000 0.000000
# 5 0.000000 0.000000 0.000000 0.000000 0.035001 0.000000
# 6 0.000000 0.000000 0.000000 0.000000 0.000000 0.023263
#
#
# Mechanical properties :
#
#
# Convention : Reuss Voigt Hill
#
# Bulk Modulus (GPa) = 76.23489 76.46817 76.35153
# Shear Modulus (GPa) = 26.47831 30.68782 28.58307
#
# Velocity S-wave (km/s) = 3.69102 3.97361 3.83492
# Velocity P-wave (km/s) = 7.57558 7.77157 7.67420
#
# Compressibility (1/GPa) = 0.01311735
#
# Stress axis : x y z
#
# Youngs Moduli (GPa) = 49.08518 50.20826 106.92465
#
# Poissons Ratio (x) = 0.65761 0.38095
# Poissons Ratio (y) = 0.64290 0.17130
# Poissons Ratio (z) = 0.17488 0.08044
#
# Static dielectric constant tensor:
#      x y z
#    x 3.316050 0.000000 0.000000 
#    y 0.000000 3.599830 0.000000 
#    z 0.000000 0.000000 4.003580 
# 
# 
# High freq. dielectric constant tensor:
#      x y z
#    x 1.730460 0.000000 0.000000 
#    y 0.000000 1.758950 0.000000 
#    z 0.000000 0.000000 1.783030 
# 
# From -- ./inp_files/33138.got.cif
#   From: 2010.03.12/outbox.cif.g09.slc.cpg/sg66_17_cif.got.tgz:33138.got - 2010.04.10 21:57:39.
