data_PCOD8277997
_publ_section_title
;
Structure prediction by ZEFSAII (Michael W. Deem and Ramdas Pophale) SiO2 
 PCOD8277997
Probable space group: C M M A
;
_chemical_formula_sum "Si O2"
_cell_formula_units_Z 104
_cell_length_a 25.701467
_cell_length_b 8.615220
_cell_length_c 27.845969
_cell_angle_alpha 90.000000
_cell_angle_beta 90.000000
_cell_angle_gamma 90.000000
_cell_volume 6165.760063
_symmetry_space_group_name_H-M "C M M A"
_symmetry_group_IT_number 67
_symmetry_cell_setting 'orthorhombic'
loop_
_space_group_symop_operation_xyz
x,y,z
-x,1/2-y,z
x,-y,-z
-x,1/2+y,-z
-x,-y,-z
x,1/2+y,-z
-x,y,z
x,1/2-y,z
1/2+x,1/2+y,z
1/2-x,-y,z
1/2+x,1/2-y,-z
1/2-x,y,-z
1/2-x,1/2-y,-z
1/2+x,y,-z
1/2-x,1/2+y,z
1/2+x,-y,z
loop_
_atom_site_type_symbol
_atom_site_label
_atom_site_fract_x
_atom_site_fract_y
_atom_site_fract_z
Si Si1 0.694287 0.564948 0.346294
Si Si2 0.000000 0.933735 0.552888
Si Si3 0.191794 0.434262 0.951890
Si Si4 0.155220 0.071164 0.244480
Si Si5 0.941877 0.075195 0.722380
Si Si6 0.693017 0.434875 0.856291
Si Si7 0.090639 0.070208 0.615926
O O1 0.694512 0.750000 0.347717
O O2 0.750000 0.500000 0.363817
O O3 0.683771 0.500654 0.291799
O O4 0.648514 0.504991 0.381575
O O5 0.000000 0.750000 0.552502
O O6 0.000000 0.000000 0.500000
O O7 0.946340 0.989834 0.577153
O O8 0.191904 0.250000 0.952402
O O9 0.250000 0.500000 0.952165
O O10 0.162902 0.497176 0.903326
O O11 0.163307 0.500000 0.000000
O O12 0.168958 0.250000 0.242383
O O13 0.171872 0.995068 0.194005
O O14 0.093701 0.045173 0.249093
O O15 0.923483 0.250000 0.734076
O O16 0.938867 0.045538 0.665855
O O17 0.000000 0.045450 0.740279
O O18 0.690693 0.250000 0.857477
O O19 0.750000 0.500000 0.860693
O O20 0.097092 0.250000 0.602423
#
# Coordination Sequence:
#
# PCOD8277997 Si02
#       7
#    16   8  16  16  16  16  16
#     4  10  19  32  49  74 103 137 176 209 245 290
#     4  12  24  38  58  84 110 136 166 208 253 300
#     4  10  17  26  39  55  75 104 143 184 229 275
#     4   9  19  30  42  64  93 125 161 197 235 281
#     4   9  17  30  48  69  94 124 157 193 235 282
#     4  10  18  28  40  57  84 116 151 189 229 272
#     4  10  19  35  55  77 105 135 168 208 251 294
#
# _framework density 16.867343000000002
#
# number of rings (size 3 to 8) (size 9 to 14) (size 15 to 20)
#    0.000    2.154    0.769    5.308    0.000    2.769 
#    0.000    0.000    0.000    0.462    0.000    3.231 
#    0.000    0.615    0.000    2.000    0.000    3.231 
#
# Total GULP energy -644406.871823 kJ/mol
# GULP energy per Si atom -12392.439843 kJ/mol
# Density = 1.682895 g / cm^3
# Si number density = 16.867343 Si / 1000 Ang^3
#
#
#
# Elastic Constant Matrix: (Units=GPa)
#
#
# Indices 1 2 3 4 5 6 
#
# 1 91.1643 32.0201 48.2653 0.0000 0.0000 0.0000
# 2 32.0201 96.4840 42.1864 0.0000 0.0000 0.0000
# 3 48.2653 42.1864 113.0849 0.0000 0.0000 0.0000
# 4 0.0000 0.0000 0.0000 25.5269 0.0000 0.0000
# 5 0.0000 0.0000 0.0000 0.0000 16.5737 0.0000
# 6 0.0000 0.0000 0.0000 0.0000 0.0000 25.2939
#
#
#
# Elastic Compliance Matrix: (Units=1/GPa)
#
#
# Indices 1 2 3 4 5 6 
#
# 1 0.014677 -0.002547 -0.005314 0.000000 0.000000 0.000000
# 2 -0.002547 0.012827 -0.003698 0.000000 0.000000 0.000000
# 3 -0.005314 -0.003698 0.012490 0.000000 0.000000 0.000000
# 4 0.000000 0.000000 0.000000 0.039174 0.000000 0.000000
# 5 0.000000 0.000000 0.000000 0.000000 0.060337 0.000000
# 6 0.000000 0.000000 0.000000 0.000000 0.000000 0.039535
#
#
# Mechanical properties :
#
#
# Convention : Reuss Voigt Hill
#
# Bulk Modulus (GPa) = 59.25590 60.63075 59.94332
# Shear Modulus (GPa) = 24.06343 25.36301 24.71322
#
# Velocity S-wave (km/s) = 3.78117 3.88193 3.83188
# Velocity P-wave (km/s) = 7.36680 7.49108 7.42920
#
# Compressibility (1/GPa) = 0.01687596
#
# Stress axis : x y z
#
# Youngs Moduli (GPa) = 68.13191 77.96294 80.06143
#
# Poissons Ratio (x) = 0.19861 0.42545
# Poissons Ratio (y) = 0.17356 0.29604
# Poissons Ratio (z) = 0.36206 0.28828
#
# Static dielectric constant tensor:
#      x y z
#    x 3.039130 0.000000 0.000000 
#    y 0.000000 3.217760 0.000000 
#    z 0.000000 0.000000 3.849220 
# 
# 
# High freq. dielectric constant tensor:
#      x y z
#    x 1.615060 0.000000 0.000000 
#    y 0.000000 1.659680 0.000000 
#    z 0.000000 0.000000 1.644660 
# 
# From -- ./inp_files/44838.got.cif
#   From: 2010.03.12/outbox.cif.g09.slc.cpg/sg67_23_cif.got.tgz:44838.got - 2010.04.10 22:41:39.
