data_PCOD8277866
_publ_section_title
;
Structure prediction by ZEFSAII (Michael W. Deem and Ramdas Pophale) SiO2 
 PCOD8277866
Probable space group: C C C M
;
_chemical_formula_sum "Si O2"
_cell_formula_units_Z 96
_cell_length_a 21.534984
_cell_length_b 21.636307
_cell_length_c 10.239691
_cell_angle_alpha 90.000000
_cell_angle_beta 90.000000
_cell_angle_gamma 90.000000
_cell_volume 4771.056282
_symmetry_space_group_name_H-M "C C C M"
_symmetry_group_IT_number 66
_symmetry_cell_setting 'orthorhombic'
loop_
_space_group_symop_operation_xyz
x,y,z
-x,-y,z
x,-y,1/2-z
-x,y,1/2-z
-x,-y,-z
x,y,-z
-x,y,1/2+z
x,-y,1/2+z
1/2+x,1/2+y,z
1/2-x,1/2-y,z
1/2+x,1/2-y,1/2-z
1/2-x,1/2+y,1/2-z
1/2-x,1/2-y,-z
1/2+x,1/2+y,-z
1/2-x,1/2+y,1/2+z
1/2+x,1/2-y,1/2+z
loop_
_atom_site_type_symbol
_atom_site_label
_atom_site_fract_x
_atom_site_fract_y
_atom_site_fract_z
Si Si1 0.575262 0.567526 0.500000
Si Si2 0.175603 0.455585 0.359656
Si Si3 0.877696 0.269854 0.153441
Si Si4 0.929298 0.077880 0.500000
Si Si5 0.447012 0.891535 0.850418
Si Si6 0.752822 0.670558 0.646323
Si Si7 0.376020 0.359060 0.743592
O O1 0.503150 0.585951 0.500000
O O2 0.586983 0.494269 0.500000
O O3 0.607667 0.593963 0.628131
O O4 0.204063 0.500000 0.250000
O O5 0.191198 0.486182 0.500000
O O6 0.101746 0.447651 0.344413
O O7 0.202376 0.387705 0.353459
O O8 0.916001 0.328346 0.204474
O O9 0.801941 0.273703 0.183657
O O10 0.906397 0.208666 0.221240
O O11 0.886936 0.264591 0.000000
O O12 0.899864 0.111220 0.624127
O O13 0.500000 0.910269 0.750000
O O14 0.471304 0.883597 0.000000
O O15 0.725015 0.680909 0.500000
O O16 0.697905 0.654481 0.747143
#
# Coordination Sequence:
#
# PCOD8277866 Si02
#       7
#     8  16  16   8  16  16  16
#     4  11  24  46  63  80 114 164 201 238 298 347
#     4   9  19  35  54  80 114 149 190 238 281 328
#     4   9  18  36  61  89 116 149 196 239 279 344
#     4  11  28  42  57  88 126 146 191 262 294 341
#     4   9  19  35  54  80 114 149 190 238 281 328
#     4   9  18  36  61  89 116 149 196 239 279 344
#     4  12  21  40  66  89 109 157 195 228 294 357
#
# _framework density 20.12133
#
# number of rings (size 3 to 8) (size 9 to 14) (size 15 to 20)
#    0.000    2.167    1.667    3.500    0.000    6.333 
#    3.000    3.333    0.000    0.000    0.000    0.000 
#    0.000    0.000    0.000    0.000    0.000    0.000 
#
# Total GULP energy -594938.483156 kJ/mol
# GULP energy per Si atom -12394.551732 kJ/mol
# Density = 2.007553 g / cm^3
# Si number density = 20.121330 Si / 1000 Ang^3
#
#
#
# Elastic Constant Matrix: (Units=GPa)
#
#
# Indices 1 2 3 4 5 6 
#
# 1 65.6186 11.8443 32.6949 0.0000 0.0000 0.0000
# 2 11.8443 83.2744 44.5547 0.0000 0.0000 0.0000
# 3 32.6949 44.5547 113.3448 0.0000 0.0000 0.0000
# 4 0.0000 0.0000 0.0000 22.1801 0.0000 0.0000
# 5 0.0000 0.0000 0.0000 0.0000 16.3063 0.0000
# 6 0.0000 0.0000 0.0000 0.0000 0.0000 11.7630
#
#
#
# Elastic Compliance Matrix: (Units=1/GPa)
#
#
# Indices 1 2 3 4 5 6 
#
# 1 0.017802 0.000273 -0.005242 0.000000 0.000000 0.000000
# 2 0.000273 0.015211 -0.006058 0.000000 0.000000 0.000000
# 3 -0.005242 -0.006058 0.012716 0.000000 0.000000 0.000000
# 4 0.000000 0.000000 0.000000 0.045085 0.000000 0.000000
# 5 0.000000 0.000000 0.000000 0.000000 0.061326 0.000000
# 6 0.000000 0.000000 0.000000 0.000000 0.000000 0.085012
#
#
# Mechanical properties :
#
#
# Convention : Reuss Voigt Hill
#
# Bulk Modulus (GPa) = 42.23981 48.93616 45.58799
# Shear Modulus (GPa) = 18.71959 21.59281 20.15620
#
# Velocity S-wave (km/s) = 3.05345 3.27942 3.16845
# Velocity P-wave (km/s) = 5.78529 6.22196 6.00759
#
# Compressibility (1/GPa) = 0.02367435
#
# Stress axis : x y z
#
# Youngs Moduli (GPa) = 56.17216 65.74229 78.64008
#
# Poissons Ratio (x) = -0.01794 0.41227
# Poissons Ratio (y) = -0.01532 0.47640
# Poissons Ratio (z) = 0.29448 0.39826
#
# Static dielectric constant tensor:
#      x y z
#    x 3.703950 0.000000 0.000000 
#    y 0.000000 3.864380 0.000000 
#    z 0.000000 0.000000 4.441500 
# 
# 
# High freq. dielectric constant tensor:
#      x y z
#    x 1.785210 0.000000 0.000000 
#    y 0.000000 1.804670 0.000000 
#    z 0.000000 0.000000 1.755990 
# 
# From -- ./inp_files/9155.got.cif
#   From: 2010.03.12/outbox.cif.g09.slc.cpg/sg66_5_cif.got.tgz:9155.got - 2010.04.10 21:57:39.
