data_PCOD8277938
_publ_section_title
;
Structure prediction by ZEFSAII (Michael W. Deem and Ramdas Pophale) SiO2 
 PCOD8277938
Probable space group: C M M A
;
_chemical_formula_sum "Si O2"
_cell_formula_units_Z 80
_cell_length_a 18.686104
_cell_length_b 8.555977
_cell_length_c 26.435558
_cell_angle_alpha 90.000000
_cell_angle_beta 90.000000
_cell_angle_gamma 90.000000
_cell_volume 4226.460865
_symmetry_space_group_name_H-M "C M M A"
_symmetry_group_IT_number 67
_symmetry_cell_setting 'orthorhombic'
loop_
_space_group_symop_operation_xyz
x,y,z
-x,1/2-y,z
x,-y,-z
-x,1/2+y,-z
-x,-y,-z
x,1/2+y,-z
-x,y,z
x,1/2-y,z
1/2+x,1/2+y,z
1/2-x,-y,z
1/2+x,1/2-y,-z
1/2-x,y,-z
1/2-x,1/2-y,-z
1/2+x,y,-z
1/2-x,1/2+y,z
1/2+x,-y,z
loop_
_atom_site_type_symbol
_atom_site_label
_atom_site_fract_x
_atom_site_fract_y
_atom_site_fract_z
Si Si1 0.330135 0.565139 0.949127
Si Si2 0.415671 0.070256 0.446699
Si Si3 0.670213 0.065395 0.254086
Si Si4 0.169868 0.565291 0.847408
Si Si5 0.171545 0.433209 0.356659
O O1 0.330027 0.750000 0.950040
O O2 0.250000 0.500000 0.948527
O O3 0.368950 0.503265 0.897859
O O4 0.368979 0.500000 0.000000
O O5 0.500000 0.052657 0.440025
O O6 0.391208 0.250000 0.443155
O O7 0.390410 0.000000 0.500000
O O8 0.378938 0.968982 0.403549
O O9 0.669480 0.250000 0.249132
O O10 0.750000 0.000000 0.256953
O O11 0.630949 0.992902 0.204267
O O12 0.634392 0.010741 0.306735
O O13 0.170137 0.750000 0.850308
O O14 0.250000 0.500000 0.845482
O O15 0.177848 0.250000 0.347564
O O16 0.250000 0.500000 0.367824
#
# Coordination Sequence:
#
# PCOD8277938 Si02
#       5
#    16  16  16  16  16
#     4  10  16  22  29  40  58  85 123 169 217 263
#     4  10  21  38  58  79 103 131 163 198 238 286
#     4  10  17  27  41  59  83 111 144 183 229 277
#     4  10  16  23  33  47  67  95 131 172 219 269
#     4  11  21  34  52  75 102 130 163 202 244 287
#
# _framework density 18.928367000000001
#
# number of rings (size 3 to 8) (size 9 to 14) (size 15 to 20)
#    0.000    1.800    0.000   12.000    0.000    1.600 
#    0.000    2.000    0.000    0.000    0.000    0.000 
#    0.000    0.000    0.000    0.000    0.000    1.000 
#
# Total GULP energy -495772.643834 kJ/mol
# GULP energy per Si atom -12394.316096 kJ/mol
# Density = 1.888528 g / cm^3
# Si number density = 18.928367 Si / 1000 Ang^3
#
#
#
# Elastic Constant Matrix: (Units=GPa)
#
#
# Indices 1 2 3 4 5 6 
#
# 1 10.2415 11.6086 21.1051 0.0000 0.0000 0.0000
# 2 11.6086 184.9845 62.9472 0.0000 0.0000 0.0000
# 3 21.1051 62.9472 198.8989 0.0000 0.0000 0.0000
# 4 0.0000 0.0000 0.0000 43.2447 0.0000 0.0000
# 5 0.0000 0.0000 0.0000 0.0000 -3.1011 0.0000
# 6 0.0000 0.0000 0.0000 0.0000 0.0000 12.7122
#
#
#
# Elastic Compliance Matrix: (Units=1/GPa)
#
#
# Indices 1 2 3 4 5 6 
#
# 1 0.127310 -0.003802 -0.012306 0.000000 0.000000 0.000000
# 2 -0.003802 0.006172 -0.001550 0.000000 0.000000 0.000000
# 3 -0.012306 -0.001550 0.006824 0.000000 0.000000 0.000000
# 4 0.000000 0.000000 0.000000 0.023124 0.000000 0.000000
# 5 0.000000 0.000000 0.000000 0.000000 -0.322461 0.000000
# 6 0.000000 0.000000 0.000000 0.000000 0.000000 0.078664
#
#
# Mechanical properties :
#
#
# Convention : Reuss Voigt Hill
#
# Bulk Modulus (GPa) = 9.52462 65.04963 37.28712
# Shear Modulus (GPa) = -497.24807 30.46876 -233.38966
#
# Velocity S-wave (km/s) = -16.22560 4.01644 -11.11617
# Velocity P-wave (km/s) = 18.60065 7.47997 12.04230
#
# Compressibility (1/GPa) = 0.10499109
#
# Stress axis : x y z
#
# Youngs Moduli (GPa) = 7.85485 162.02662 146.54340
#
# Poissons Ratio (x) = 0.61600 1.80331
# Poissons Ratio (y) = 0.02986 0.22712
# Poissons Ratio (z) = 0.09666 0.25112
#
# Static dielectric constant tensor:
#      x y z
#    x 2.686560 0.000000 0.000000 
#    y 0.000000 3.604830 0.000000 
#    z 0.000000 0.000000 5.593280 
# 
# 
# High freq. dielectric constant tensor:
#      x y z
#    x 1.632310 0.000000 0.000000 
#    y 0.000000 1.761630 0.000000 
#    z 0.000000 0.000000 1.779050 
# 
# From -- ./inp_files/45750.got.cif
#   From: 2010.03.12/outbox.cif.g09.slc.cpg/sg67_23_cif.got.tgz:45750.got - 2010.04.10 22:41:39.
