data_PCOD8277697
_publ_section_title
;
Structure prediction by ZEFSAII (Michael W. Deem and Ramdas Pophale) SiO2 
 PCOD8277697
Probable space group: C C C M
;
_chemical_formula_sum "Si O2"
_cell_formula_units_Z 64
_cell_length_a 24.601007
_cell_length_b 8.550539
_cell_length_c 14.090059
_cell_angle_alpha 90.000000
_cell_angle_beta 90.000000
_cell_angle_gamma 90.000000
_cell_volume 2963.870256
_symmetry_space_group_name_H-M "C C C M"
_symmetry_group_IT_number 66
_symmetry_cell_setting 'orthorhombic'
loop_
_space_group_symop_operation_xyz
x,y,z
-x,-y,z
x,-y,1/2-z
-x,y,1/2-z
-x,-y,-z
x,y,-z
-x,y,1/2+z
x,-y,1/2+z
1/2+x,1/2+y,z
1/2-x,1/2-y,z
1/2+x,1/2-y,1/2-z
1/2-x,1/2+y,1/2-z
1/2-x,1/2-y,-z
1/2+x,1/2+y,-z
1/2-x,1/2+y,1/2+z
1/2+x,1/2-y,1/2+z
loop_
_atom_site_type_symbol
_atom_site_label
_atom_site_fract_x
_atom_site_fract_y
_atom_site_fract_z
Si Si1 0.404547 0.596589 0.343364
Si Si2 0.143536 0.581008 0.348324
Si Si3 0.266887 0.071930 0.000000
Si Si4 0.015934 0.176851 0.000000
Si Si5 0.089985 0.393704 0.500000
Si Si6 0.345710 0.404891 0.500000
O O1 0.424830 0.500000 0.250000
O O2 0.362459 0.735716 0.322386
O O3 0.451430 0.690471 0.400873
O O4 0.374732 0.469899 0.407043
O O5 0.149961 0.500000 0.250000
O O6 0.198080 0.546768 0.406022
O O7 0.092882 0.507173 0.408077
O O8 0.250000 0.250000 0.000000
O O9 0.217633 0.948010 0.000000
O O10 0.966379 0.298625 0.000000
O O11 0.000000 0.000000 0.000000
O O12 0.143205 0.280712 0.500000
#
# Coordination Sequence:
#
# PCOD8277697 Si02
#       6
#    16  16   8   8   8   8
#     4  11  23  42  68  98 133 174 227 275 332 405
#     4  11  25  43  65 101 137 174 224 282 343 401
#     4  11  21  45  69  93 135 179 226 281 337 405
#     4  11  23  43  70  98 124 177 226 269 337 410
#     4  11  23  46  68  98 143 174 223 287 341 400
#     4  11  21  42  67  95 128 182 220 275 338 394
#
# _framework density 21.593388000000001
#
# number of rings (size 3 to 8) (size 9 to 14) (size 15 to 20)
#    0.000    1.000    5.000    3.750    0.000    5.500 
#    4.500    1.250    0.000    0.000    0.000    0.000 
#    0.000    0.000    0.000    0.000    0.000    0.000 
#
# Total GULP energy -396533.865165 kJ/mol
# GULP energy per Si atom -12391.683286 kJ/mol
# Density = 2.154424 g / cm^3
# Si number density = 21.593388 Si / 1000 Ang^3
#
#
#
# Elastic Constant Matrix: (Units=GPa)
#
#
# Indices 1 2 3 4 5 6 
#
# 1 102.3862 18.7267 47.6924 0.0000 0.0000 0.0000
# 2 18.7267 119.4043 48.4001 0.0000 0.0000 0.0000
# 3 47.6924 48.4001 185.0368 0.0000 0.0000 0.0000
# 4 0.0000 0.0000 0.0000 34.2611 0.0000 0.0000
# 5 0.0000 0.0000 0.0000 0.0000 12.8812 0.0000
# 6 0.0000 0.0000 0.0000 0.0000 0.0000 23.1545
#
#
#
# Elastic Compliance Matrix: (Units=1/GPa)
#
#
# Indices 1 2 3 4 5 6 
#
# 1 0.011145 -0.000653 -0.002702 0.000000 0.000000 0.000000
# 2 -0.000653 0.009406 -0.002292 0.000000 0.000000 0.000000
# 3 -0.002702 -0.002292 0.006700 0.000000 0.000000 0.000000
# 4 0.000000 0.000000 0.000000 0.029188 0.000000 0.000000
# 5 0.000000 0.000000 0.000000 0.000000 0.077632 0.000000
# 6 0.000000 0.000000 0.000000 0.000000 0.000000 0.043188
#
#
# Mechanical properties :
#
#
# Convention : Reuss Voigt Hill
#
# Bulk Modulus (GPa) = 62.66419 70.71841 66.69130
# Shear Modulus (GPa) = 25.79015 33.52657 29.65836
#
# Velocity S-wave (km/s) = 3.45969 3.94462 3.71009
# Velocity P-wave (km/s) = 6.71136 7.31900 7.02176
#
# Compressibility (1/GPa) = 0.01595808
#
# Stress axis : x y z
#
# Youngs Moduli (GPa) = 89.72758 106.31045 149.24758
#
# Poissons Ratio (x) = 0.06939 0.40324
# Poissons Ratio (y) = 0.05857 0.34210
# Poissons Ratio (z) = 0.24243 0.24368
#
# Static dielectric constant tensor:
#      x y z
#    x 3.643200 0.000000 0.000000 
#    y 0.000000 4.234750 0.000000 
#    z 0.000000 0.000000 3.949430 
# 
# 
# High freq. dielectric constant tensor:
#      x y z
#    x 1.833820 0.000000 0.000000 
#    y 0.000000 1.873450 0.000000 
#    z 0.000000 0.000000 1.848270 
# 
# From -- ./inp_files/32960.got.cif
#   From: 2010.03.12/outbox.cif.g09.slc.cpg/sg66_17_cif.got.tgz:32960.got - 2010.04.10 21:57:39.
