data_PCOD8277305
_publ_section_title
;
Structure prediction by ZEFSAII (Michael W. Deem and Ramdas Pophale) SiO2 
 PCOD8277305
Probable space group: C C C M
;
_chemical_formula_sum "Si O2"
_cell_formula_units_Z 96
_cell_length_a 15.896221
_cell_length_b 11.859933
_cell_length_c 26.860829
_cell_angle_alpha 90.000000
_cell_angle_beta 90.000000
_cell_angle_gamma 90.000000
_cell_volume 5064.021486
_symmetry_space_group_name_H-M "C C C M"
_symmetry_group_IT_number 66
_symmetry_cell_setting 'orthorhombic'
loop_
_space_group_symop_operation_xyz
x,y,z
-x,-y,z
x,-y,1/2-z
-x,y,1/2-z
-x,-y,-z
x,y,-z
-x,y,1/2+z
x,-y,1/2+z
1/2+x,1/2+y,z
1/2-x,1/2-y,z
1/2+x,1/2-y,1/2-z
1/2-x,1/2+y,1/2-z
1/2-x,1/2-y,-z
1/2+x,1/2+y,-z
1/2-x,1/2+y,1/2+z
1/2+x,1/2-y,1/2+z
loop_
_atom_site_type_symbol
_atom_site_label
_atom_site_fract_x
_atom_site_fract_y
_atom_site_fract_z
Si Si1 0.879137 0.676093 0.556150
Si Si2 0.978438 0.371910 0.850970
Si Si3 0.405045 0.510144 0.141890
Si Si4 0.424440 0.304094 0.789297
Si Si5 0.201252 0.080530 0.443419
Si Si6 0.343936 0.735224 0.805380
O O1 0.910958 0.660061 0.500000
O O2 0.959819 0.650024 0.590591
O O3 0.846662 0.801982 0.565169
O O4 0.800781 0.592282 0.567098
O O5 0.892204 0.347732 0.821855
O O6 0.000000 0.500000 0.840557
O O7 0.052585 0.292125 0.829614
O O8 0.500000 0.500000 0.121022
O O9 0.392137 0.414562 0.182882
O O10 0.340395 0.493340 0.095749
O O11 0.390556 0.629542 0.168856
O O12 0.500000 0.327982 0.750000
O O13 0.345678 0.269219 0.754686
O O14 0.187103 0.038101 0.500000
O O15 0.250000 0.750000 0.825279
#
# Coordination Sequence:
#
# PCOD8277305 Si02
#       6
#    16  16  16  16  16  16
#     4   9  17  35  58  85 119 155 194 238 288 356
#     4  11  22  38  60  86 121 155 193 248 295 344
#     4  12  19  34  63  85 117 156 191 243 299 350
#     4  10  22  39  57  83 118 157 197 242 299 351
#     4   9  18  32  58  91 119 146 193 248 292 343
#     4  11  23  40  61  84 113 156 207 239 288 352
#
# _framework density 18.957266000000001
#
# number of rings (size 3 to 8) (size 9 to 14) (size 15 to 20)
#    0.000    1.667    5.000    2.500    0.000    3.667 
#    9.000    0.833    0.000    0.000    0.000    2.333 
#    0.000    0.000    0.000    0.000    0.000    0.000 
#
# Total GULP energy -594947.348632 kJ/mol
# GULP energy per Si atom -12394.736430 kJ/mol
# Density = 1.891412 g / cm^3
# Si number density = 18.957266 Si / 1000 Ang^3
#
#
#
# Elastic Constant Matrix: (Units=GPa)
#
#
# Indices 1 2 3 4 5 6 
#
# 1 63.4378 36.1065 40.2243 0.0000 0.0000 0.0000
# 2 36.1065 93.3535 53.5511 0.0000 0.0000 0.0000
# 3 40.2243 53.5511 146.1101 0.0000 0.0000 0.0000
# 4 0.0000 0.0000 0.0000 25.6212 0.0000 0.0000
# 5 0.0000 0.0000 0.0000 0.0000 34.8834 0.0000
# 6 0.0000 0.0000 0.0000 0.0000 0.0000 20.6828
#
#
#
# Elastic Compliance Matrix: (Units=1/GPa)
#
#
# Indices 1 2 3 4 5 6 
#
# 1 0.021658 -0.006276 -0.003662 0.000000 0.000000 0.000000
# 2 -0.006276 0.015382 -0.003910 0.000000 0.000000 0.000000
# 3 -0.003662 -0.003910 0.009285 0.000000 0.000000 0.000000
# 4 0.000000 0.000000 0.000000 0.039030 0.000000 0.000000
# 5 0.000000 0.000000 0.000000 0.000000 0.028667 0.000000
# 6 0.000000 0.000000 0.000000 0.000000 0.000000 0.048349
#
#
# Mechanical properties :
#
#
# Convention : Reuss Voigt Hill
#
# Bulk Modulus (GPa) = 53.67923 62.51837 58.09880
# Shear Modulus (GPa) = 25.47415 27.77210 26.62313
#
# Velocity S-wave (km/s) = 3.66972 3.83166 3.75157
# Velocity P-wave (km/s) = 6.80685 7.25436 7.03416
#
# Compressibility (1/GPa) = 0.01862918
#
# Stress axis : x y z
#
# Youngs Moduli (GPa) = 46.17337 65.01019 107.69542
#
# Poissons Ratio (x) = 0.40799 0.39440
# Poissons Ratio (y) = 0.28977 0.42109
# Poissons Ratio (z) = 0.16910 0.25419
#
# Static dielectric constant tensor:
#      x y z
#    x 3.422980 0.000000 0.000000 
#    y 0.000000 3.185410 0.000000 
#    z 0.000000 0.000000 3.933950 
# 
# 
# High freq. dielectric constant tensor:
#      x y z
#    x 1.717040 0.000000 0.000000 
#    y 0.000000 1.703920 0.000000 
#    z 0.000000 0.000000 1.756030 
# 
# From -- ./inp_files/65218.got.cif
#   From: 2010.03.12/outbox.cif.g09.slc.cpg/sg66_33_cif.got.tgz:65218.got - 2010.04.10 21:57:39.
