data_PCOD8277575
_publ_section_title
;
Structure prediction by ZEFSAII (Michael W. Deem and Ramdas Pophale) SiO2 
 PCOD8277575
Probable space group: C C C M
;
_chemical_formula_sum "Si O2"
_cell_formula_units_Z 96
_cell_length_a 12.844846
_cell_length_b 23.640510
_cell_length_c 18.068737
_cell_angle_alpha 90.000000
_cell_angle_beta 90.000000
_cell_angle_gamma 90.000000
_cell_volume 5486.729374
_symmetry_space_group_name_H-M "C C C M"
_symmetry_group_IT_number 66
_symmetry_cell_setting 'orthorhombic'
loop_
_space_group_symop_operation_xyz
x,y,z
-x,-y,z
x,-y,1/2-z
-x,y,1/2-z
-x,-y,-z
x,y,-z
-x,y,1/2+z
x,-y,1/2+z
1/2+x,1/2+y,z
1/2-x,1/2-y,z
1/2+x,1/2-y,1/2-z
1/2-x,1/2+y,1/2-z
1/2-x,1/2-y,-z
1/2+x,1/2+y,-z
1/2-x,1/2+y,1/2+z
1/2+x,1/2-y,1/2+z
loop_
_atom_site_type_symbol
_atom_site_label
_atom_site_fract_x
_atom_site_fract_y
_atom_site_fract_z
Si Si1 0.712029 0.837089 0.190384
Si Si2 0.103437 0.770893 0.913845
Si Si3 0.419349 0.273937 0.818334
Si Si4 0.708171 0.838454 0.358474
Si Si5 0.613040 0.944686 0.415034
Si Si6 0.381768 0.930320 0.412032
O O1 0.641816 0.783990 0.168912
O O2 0.835383 0.823740 0.189331
O O3 0.682606 0.853301 0.273978
O O4 0.690612 0.887615 0.133618
O O5 0.177235 0.812678 0.867388
O O6 0.125400 0.706125 0.891128
O O7 0.985159 0.785369 0.892972
O O8 0.124444 0.780080 0.000000
O O9 0.500000 0.271270 0.750000
O O10 0.700839 0.897728 0.401460
O O11 0.592281 0.955586 0.500000
O O12 0.501504 0.922638 0.384758
O O13 0.650109 0.006065 0.385742
O O14 0.365644 0.919134 0.500000
#
# Coordination Sequence:
#
# PCOD8277575 Si02
#       6
#    16  16  16  16  16  16
#     4  11  22  33  57  78 107 146 171 219 272 320
#     4  11  21  33  54  81 107 139 181 223 262 322
#     4  11  20  38  51  75 112 141 171 211 274 321
#     4  11  19  32  53  81 109 137 179 224 269 317
#     4   9  18  34  54  76 112 147 175 225 273 309
#     4   9  20  36  52  78 111 145 183 220 266 323
#
# _framework density 17.496763000000001
#
# number of rings (size 3 to 8) (size 9 to 14) (size 15 to 20)
#    0.000    1.667    3.333    5.000    0.000    3.333 
#    0.000    3.333    0.000    1.000    0.000    3.500 
#    0.000    0.000    0.000    0.000    0.000    0.000 
#
# Total GULP energy -595019.036429 kJ/mol
# GULP energy per Si atom -12396.229926 kJ/mol
# Density = 1.745694 g / cm^3
# Si number density = 17.496763 Si / 1000 Ang^3
#
#
#
# Elastic Constant Matrix: (Units=GPa)
#
#
# Indices 1 2 3 4 5 6 
#
# 1 79.0055 37.9374 18.8004 0.0000 0.0000 0.0000
# 2 37.9374 116.1586 32.3085 0.0000 0.0000 0.0000
# 3 18.8004 32.3085 80.6276 0.0000 0.0000 0.0000
# 4 0.0000 0.0000 0.0000 26.5279 0.0000 0.0000
# 5 0.0000 0.0000 0.0000 0.0000 25.3736 0.0000
# 6 0.0000 0.0000 0.0000 0.0000 0.0000 22.8023
#
#
#
# Elastic Compliance Matrix: (Units=1/GPa)
#
#
# Indices 1 2 3 4 5 6 
#
# 1 0.015229 -0.004486 -0.001753 0.000000 0.000000 0.000000
# 2 -0.004486 0.011010 -0.003366 0.000000 0.000000 0.000000
# 3 -0.001753 -0.003366 0.014160 0.000000 0.000000 0.000000
# 4 0.000000 0.000000 0.000000 0.037696 0.000000 0.000000
# 5 0.000000 0.000000 0.000000 0.000000 0.039411 0.000000
# 6 0.000000 0.000000 0.000000 0.000000 0.000000 0.043855
#
#
# Mechanical properties :
#
#
# Convention : Reuss Voigt Hill
#
# Bulk Modulus (GPa) = 47.19503 50.43159 48.81331
# Shear Modulus (GPa) = 26.64746 27.39045 27.01895
#
# Velocity S-wave (km/s) = 3.90679 3.96088 3.93393
# Velocity P-wave (km/s) = 6.88352 7.05720 6.97090
#
# Compressibility (1/GPa) = 0.02118867
#
# Stress axis : x y z
#
# Youngs Moduli (GPa) = 65.66549 90.82441 70.61999
#
# Poissons Ratio (x) = 0.40744 0.12382
# Poissons Ratio (y) = 0.29458 0.23770
# Poissons Ratio (z) = 0.11514 0.30571
#
# Static dielectric constant tensor:
#      x y z
#    x 3.267630 0.000000 0.000000 
#    y 0.000000 3.153750 0.000000 
#    z 0.000000 0.000000 3.244090 
# 
# 
# High freq. dielectric constant tensor:
#      x y z
#    x 1.663750 0.000000 0.000000 
#    y 0.000000 1.665570 0.000000 
#    z 0.000000 0.000000 1.677280 
# 
# From -- ./inp_files/38808.got.cif
#   From: 2010.03.12/outbox.cif.g09.slc.cpg/sg66_20_cif.got.tgz:38808.got - 2010.04.10 21:57:39.
