data_PCOD8277401
_publ_section_title
;
Structure prediction by ZEFSAII (Michael W. Deem and Ramdas Pophale) SiO2 
 PCOD8277401
Probable space group: C C C M
;
_chemical_formula_sum "Si O2"
_cell_formula_units_Z 56
_cell_length_a 12.043325
_cell_length_b 15.652033
_cell_length_c 13.273799
_cell_angle_alpha 90.000000
_cell_angle_beta 90.000000
_cell_angle_gamma 90.000000
_cell_volume 2502.144566
_symmetry_space_group_name_H-M "C C C M"
_symmetry_group_IT_number 66
_symmetry_cell_setting 'orthorhombic'
loop_
_space_group_symop_operation_xyz
x,y,z
-x,-y,z
x,-y,1/2-z
-x,y,1/2-z
-x,-y,-z
x,y,-z
-x,y,1/2+z
x,-y,1/2+z
1/2+x,1/2+y,z
1/2-x,1/2-y,z
1/2+x,1/2-y,1/2-z
1/2-x,1/2+y,1/2-z
1/2-x,1/2-y,-z
1/2+x,1/2+y,-z
1/2-x,1/2+y,1/2+z
1/2+x,1/2-y,1/2+z
loop_
_atom_site_type_symbol
_atom_site_label
_atom_site_fract_x
_atom_site_fract_y
_atom_site_fract_z
Si Si1 0.163695 0.967759 0.882286
Si Si2 0.000000 0.718386 0.750000
Si Si3 0.589958 0.927831 0.381366
Si Si4 0.548450 0.364894 0.382337
O O1 0.288490 0.955237 0.844574
O O2 0.081423 0.888169 0.861551
O O3 0.120708 0.057289 0.834463
O O4 0.161092 0.985658 0.000000
O O5 0.928479 0.660511 0.675644
O O6 0.923419 0.778536 0.821414
O O7 0.584683 0.909668 0.500000
O O8 0.500000 0.000000 0.350491
O O9 0.572791 0.349358 0.500000
#
# Coordination Sequence:
#
# PCOD8277401 Si02
#       4
#    16   8  16  16
#     4   8  17  39  67  87 116 165 207 246 304 373
#     4  12  23  37  56 102 126 156 200 261 311 352
#     4  10  22  43  63  83 123 172 209 243 302 375
#     4   9  19  39  65  94 122 155 204 257 309 359
#
# _framework density 22.380801000000002
#
# number of rings (size 3 to 8) (size 9 to 14) (size 15 to 20)
#    0.000    2.571    0.000    3.000    0.000    3.429 
#   15.429    4.286    0.000    6.857    0.000    0.000 
#    0.000    0.000    0.000    0.000    0.000    0.000 
#
# Total GULP energy -347063.572036 kJ/mol
# GULP energy per Si atom -12395.127573 kJ/mol
# Density = 2.232986 g / cm^3
# Si number density = 22.380801 Si / 1000 Ang^3
#
#
#
# Elastic Constant Matrix: (Units=GPa)
#
#
# Indices 1 2 3 4 5 6 
#
# 1 148.3575 63.8359 13.9211 0.0000 0.0000 0.0000
# 2 63.8359 173.1272 66.5637 0.0000 0.0000 0.0000
# 3 13.9211 66.5637 77.4919 0.0000 0.0000 0.0000
# 4 0.0000 0.0000 0.0000 56.5630 0.0000 0.0000
# 5 0.0000 0.0000 0.0000 0.0000 -7.3279 0.0000
# 6 0.0000 0.0000 0.0000 0.0000 0.0000 22.4368
#
#
#
# Elastic Compliance Matrix: (Units=1/GPa)
#
#
# Indices 1 2 3 4 5 6 
#
# 1 0.008154 -0.003648 0.001669 0.000000 0.000000 0.000000
# 2 -0.003648 0.010257 -0.008155 0.000000 0.000000 0.000000
# 3 0.001669 -0.008155 0.019610 0.000000 0.000000 0.000000
# 4 0.000000 0.000000 0.000000 0.017679 0.000000 0.000000
# 5 0.000000 0.000000 0.000000 0.000000 -0.136465 0.000000
# 6 0.000000 0.000000 0.000000 0.000000 0.000000 0.044570
#
#
# Mechanical properties :
#
#
# Convention : Reuss Voigt Hill
#
# Bulk Modulus (GPa) = 56.33272 76.40201 66.36736
# Shear Modulus (GPa) = -499.46270 31.31145 -234.07563
#
# Velocity S-wave (km/s) = -14.95494 3.74442 -10.23791
# Velocity P-wave (km/s) = 16.52197 7.27363 10.48975
#
# Compressibility (1/GPa) = 0.01775167
#
# Stress axis : x y z
#
# Youngs Moduli (GPa) = 122.64567 97.49878 50.99561
#
# Poissons Ratio (x) = 0.35568 -0.08510
# Poissons Ratio (y) = 0.44741 0.41586
# Poissons Ratio (z) = -0.20467 0.79508
#
# Static dielectric constant tensor:
#      x y z
#    x 4.292740 0.000000 0.000000 
#    y 0.000000 4.008930 0.000000 
#    z 0.000000 0.000000 4.227860 
# 
# 
# High freq. dielectric constant tensor:
#      x y z
#    x 1.854330 0.000000 0.000000 
#    y 0.000000 1.873530 0.000000 
#    z 0.000000 0.000000 1.918580 
# 
# From -- ./inp_files/25394.got.cif
#   From: 2010.03.12/outbox.cif.g09.slc.cpg/sg66_13_cif.got.tgz:25394.got - 2010.04.10 21:57:39.
