data_PCOD8277673
_publ_section_title
;
Structure prediction by ZEFSAII (Michael W. Deem and Ramdas Pophale) SiO2 
 PCOD8277673
Probable space group: C C C M
;
_chemical_formula_sum "Si O2"
_cell_formula_units_Z 92
_cell_length_a 8.368581
_cell_length_b 21.317302
_cell_length_c 24.850271
_cell_angle_alpha 90.000000
_cell_angle_beta 90.000000
_cell_angle_gamma 90.000000
_cell_volume 4433.178222
_symmetry_space_group_name_H-M "C C C M"
_symmetry_group_IT_number 66
_symmetry_cell_setting 'orthorhombic'
loop_
_space_group_symop_operation_xyz
x,y,z
-x,-y,z
x,-y,1/2-z
-x,y,1/2-z
-x,-y,-z
x,y,-z
-x,y,1/2+z
x,-y,1/2+z
1/2+x,1/2+y,z
1/2-x,1/2-y,z
1/2+x,1/2-y,1/2-z
1/2-x,1/2+y,1/2-z
1/2-x,1/2-y,-z
1/2+x,1/2+y,-z
1/2-x,1/2+y,1/2+z
1/2+x,1/2-y,1/2+z
loop_
_atom_site_type_symbol
_atom_site_label
_atom_site_fract_x
_atom_site_fract_y
_atom_site_fract_z
Si Si1 0.500000 0.500000 0.250000
Si Si2 0.000000 0.500000 0.840307
Si Si3 0.840281 0.686363 0.717683
Si Si4 0.547890 0.432130 0.393853
Si Si5 0.303996 0.892490 0.112410
Si Si6 0.254759 0.411859 0.801145
Si Si7 0.589715 0.092163 0.000000
Si Si8 0.239414 0.039792 0.000000
O O1 0.608192 0.540465 0.212268
O O2 0.869725 0.464079 0.877527
O O3 0.915679 0.552293 0.802594
O O4 0.750000 0.750000 0.704766
O O5 0.868936 0.651697 0.660690
O O6 0.738347 0.643188 0.757849
O O7 0.000000 0.702443 0.750000
O O8 0.500000 0.500000 0.370020
O O9 0.387227 0.390104 0.391948
O O10 0.685165 0.393033 0.360804
O O11 0.624519 0.442045 0.451585
O O12 0.373865 0.869067 0.054909
O O13 0.402694 0.078278 0.000000
O O14 0.712154 0.033235 0.000000
#
# Coordination Sequence:
#
# PCOD8277673 Si02
#       8
#     4   8  16  16  16  16   8   8
#     4  12  24  34  60  98 132 162 204 278 328 424
#     4  12  20  38  62 102 134 177 207 266 348 410
#     4  12  30  49  69  93 129 184 237 289 337 396
#     4  12  21  36  58  99 142 177 211 264 333 406
#     4  12  24  41  67 100 140 176 223 274 336 409
#     4  12  23  39  63  94 137 172 218 270 337 408
#     4  11  21  38  64  99 137 185 223 266 336 404
#     4  11  22  35  60  97 152 182 214 261 332 432
#
# _framework density 20.752607000000001
#
# number of rings (size 3 to 8) (size 9 to 14) (size 15 to 20)
#    0.000    0.174    6.087    4.957    3.652    0.696 
#    0.000    0.435    0.000    0.000    0.000    2.435 
#    0.000    0.000    0.000    0.000    0.000    0.000 
#
# Total GULP energy -570121.457139 kJ/mol
# GULP energy per Si atom -12393.944720 kJ/mol
# Density = 2.070537 g / cm^3
# Si number density = 20.752607 Si / 1000 Ang^3
#
#
#
# Elastic Constant Matrix: (Units=GPa)
#
#
# Indices 1 2 3 4 5 6 
#
# 1 118.0540 27.8493 42.1392 0.0000 0.0000 0.0000
# 2 27.8493 69.8493 48.8506 0.0000 0.0000 0.0000
# 3 42.1392 48.8506 157.4904 0.0000 0.0000 0.0000
# 4 0.0000 0.0000 0.0000 4.6909 0.0000 0.0000
# 5 0.0000 0.0000 0.0000 0.0000 42.7074 0.0000
# 6 0.0000 0.0000 0.0000 0.0000 0.0000 27.3962
#
#
#
# Elastic Compliance Matrix: (Units=1/GPa)
#
#
# Indices 1 2 3 4 5 6 
#
# 1 0.009729 -0.002629 -0.001788 0.000000 0.000000 0.000000
# 2 -0.002629 0.018993 -0.005188 0.000000 0.000000 0.000000
# 3 -0.001788 -0.005188 0.008437 0.000000 0.000000 0.000000
# 4 0.000000 0.000000 0.000000 0.213179 0.000000 0.000000
# 5 0.000000 0.000000 0.000000 0.000000 0.023415 0.000000
# 6 0.000000 0.000000 0.000000 0.000000 0.000000 0.036501
#
#
# Mechanical properties :
#
#
# Convention : Reuss Voigt Hill
#
# Bulk Modulus (GPa) = 55.70946 64.78578 60.24762
# Shear Modulus (GPa) = 14.90549 30.06253 22.48401
#
# Velocity S-wave (km/s) = 2.68292 3.81020 3.29512
# Velocity P-wave (km/s) = 6.04154 7.11637 6.60087
#
# Compressibility (1/GPa) = 0.01795027
#
# Stress axis : x y z
#
# Youngs Moduli (GPa) = 102.78597 52.65134 118.52368
#
# Poissons Ratio (x) = 0.13840 0.21189
# Poissons Ratio (y) = 0.27019 0.61489
# Poissons Ratio (z) = 0.18376 0.27315
#
# Static dielectric constant tensor:
#      x y z
#    x 4.062780 0.000000 0.000000 
#    y 0.000000 3.210010 0.000000 
#    z 0.000000 0.000000 4.143950 
# 
# 
# High freq. dielectric constant tensor:
#      x y z
#    x 1.838130 0.000000 0.000000 
#    y 0.000000 1.737570 0.000000 
#    z 0.000000 0.000000 1.838750 
# 
# From -- ./inp_files/55549.got.cif
#   From: 2010.03.12/outbox.cif.g09.slc.cpg/sg66_28_cif.got.tgz:55549.got - 2010.04.10 21:57:39.
