data_PCOD8277953
_publ_section_title
;
Structure prediction by ZEFSAII (Michael W. Deem and Ramdas Pophale) SiO2 
 PCOD8277953
Probable space group: C M M A
;
_chemical_formula_sum "Si O2"
_cell_formula_units_Z 80
_cell_length_a 30.676150
_cell_length_b 8.533596
_cell_length_c 20.626015
_cell_angle_alpha 90.000000
_cell_angle_beta 90.000000
_cell_angle_gamma 90.000000
_cell_volume 5399.434293
_symmetry_space_group_name_H-M "C M M A"
_symmetry_group_IT_number 67
_symmetry_cell_setting 'orthorhombic'
loop_
_space_group_symop_operation_xyz
x,y,z
-x,1/2-y,z
x,-y,-z
-x,1/2+y,-z
-x,-y,-z
x,1/2+y,-z
-x,y,z
x,1/2-y,z
1/2+x,1/2+y,z
1/2-x,-y,z
1/2+x,1/2-y,-z
1/2-x,y,-z
1/2-x,1/2-y,-z
1/2+x,y,-z
1/2-x,1/2+y,z
1/2+x,-y,z
loop_
_atom_site_type_symbol
_atom_site_label
_atom_site_fract_x
_atom_site_fract_y
_atom_site_fract_z
Si Si1 0.865161 0.934453 0.427405
Si Si2 0.201150 0.064980 0.065266
Si Si3 0.701846 0.565361 0.327764
Si Si4 0.298689 0.435159 0.195636
Si Si5 0.047199 0.066843 0.428646
O O1 0.857555 0.750000 0.426341
O O2 0.863902 0.000000 0.500000
O O3 0.827059 0.018870 0.388678
O O4 0.912181 0.977861 0.394622
O O5 0.201325 0.250000 0.063804
O O6 0.250000 0.000000 0.066231
O O7 0.177428 0.003956 0.131103
O O8 0.177515 0.000000 0.000000
O O9 0.704559 0.750000 0.320030
O O10 0.750000 0.500000 0.339772
O O11 0.679397 0.493492 0.262552
O O12 0.299111 0.250000 0.191793
O O13 0.250000 0.500000 0.197745
O O14 0.058407 0.250000 0.431829
O O15 0.000000 0.039093 0.393277
O O16 0.042740 0.000000 0.500000
#
# Coordination Sequence:
#
# PCOD8277953 Si02
#       5
#    16  16  16  16  16
#     4  11  21  33  47  64  83 105 134 169 208 247
#     4  10  16  23  34  51  72  95 122 157 197 235
#     4  11  21  34  47  60  78 104 138 174 210 246
#     4  10  17  27  40  55  73  97 128 162 199 239
#     4   9  16  27  44  65  86 106 127 155 195 242
#
# _framework density 14.816367
#
# number of rings (size 3 to 8) (size 9 to 14) (size 15 to 20)
#    0.000    1.800    0.000   12.000    0.000    1.600 
#    0.000    2.000    0.000    0.000    0.000    0.000 
#    0.000    0.000    0.000    0.000    0.000    1.000 
#
# Total GULP energy -495623.807991 kJ/mol
# GULP energy per Si atom -12390.595200 kJ/mol
# Density = 1.478264 g / cm^3
# Si number density = 14.816367 Si / 1000 Ang^3
#
#
#
# Elastic Constant Matrix: (Units=GPa)
#
#
# Indices 1 2 3 4 5 6 
#
# 1 58.3200 21.5783 31.6652 0.0000 0.0000 0.0000
# 2 21.5783 133.5053 30.9256 0.0000 0.0000 0.0000
# 3 31.6652 30.9256 81.8739 0.0000 0.0000 0.0000
# 4 0.0000 0.0000 0.0000 26.7544 0.0000 0.0000
# 5 0.0000 0.0000 0.0000 0.0000 0.4579 0.0000
# 6 0.0000 0.0000 0.0000 0.0000 0.0000 18.1082
#
#
#
# Elastic Compliance Matrix: (Units=1/GPa)
#
#
# Indices 1 2 3 4 5 6 
#
# 1 0.022068 -0.001742 -0.007877 0.000000 0.000000 0.000000
# 2 -0.001742 0.008346 -0.002479 0.000000 0.000000 0.000000
# 3 -0.007877 -0.002479 0.016197 0.000000 0.000000 0.000000
# 4 0.000000 0.000000 0.000000 0.037377 0.000000 0.000000
# 5 0.000000 0.000000 0.000000 0.000000 2.183966 0.000000
# 6 0.000000 0.000000 0.000000 0.000000 0.000000 0.055224
#
#
# Mechanical properties :
#
#
# Convention : Reuss Voigt Hill
#
# Bulk Modulus (GPa) = 44.61250 49.11525 46.86388
# Shear Modulus (GPa) = 2.12328 21.69944 11.91136
#
# Velocity S-wave (km/s) = 1.19841 3.83111 2.83845
# Velocity P-wave (km/s) = 5.66485 7.26575 6.51466
#
# Compressibility (1/GPa) = 0.02241524
#
# Stress axis : x y z
#
# Youngs Moduli (GPa) = 45.31406 119.81635 61.74134
#
# Poissons Ratio (x) = 0.20875 0.48633
# Poissons Ratio (y) = 0.07895 0.15304
# Poissons Ratio (z) = 0.35694 0.29699
#
# Static dielectric constant tensor:
#      x y z
#    x 2.845440 0.000000 0.000000 
#    y 0.000000 3.110910 0.000000 
#    z 0.000000 0.000000 3.196240 
# 
# 
# High freq. dielectric constant tensor:
#      x y z
#    x 1.510160 0.000000 0.000000 
#    y 0.000000 1.596260 0.000000 
#    z 0.000000 0.000000 1.557230 
# 
# From -- ./inp_files/40090.got.cif
#   From: 2010.03.12/outbox.cif.g09.slc.cpg/sg67_21_cif.got.tgz:40090.got - 2010.04.10 22:41:39.
