data_PCOD8277157
_publ_section_title
;
Structure prediction by ZEFSAII (Michael W. Deem and Ramdas Pophale) SiO2 
 PCOD8277157
Probable space group: C C C M
;
_chemical_formula_sum "Si O2"
_cell_formula_units_Z 72
_cell_length_a 26.784376
_cell_length_b 13.106119
_cell_length_c 9.505496
_cell_angle_alpha 90.000000
_cell_angle_beta 90.000000
_cell_angle_gamma 90.000000
_cell_volume 3336.801894
_symmetry_space_group_name_H-M "C C C M"
_symmetry_group_IT_number 66
_symmetry_cell_setting 'orthorhombic'
loop_
_space_group_symop_operation_xyz
x,y,z
-x,-y,z
x,-y,1/2-z
-x,y,1/2-z
-x,-y,-z
x,y,-z
-x,y,1/2+z
x,-y,1/2+z
1/2+x,1/2+y,z
1/2-x,1/2-y,z
1/2+x,1/2-y,1/2-z
1/2-x,1/2+y,1/2-z
1/2-x,1/2-y,-z
1/2+x,1/2+y,-z
1/2-x,1/2+y,1/2+z
1/2+x,1/2-y,1/2+z
loop_
_atom_site_type_symbol
_atom_site_label
_atom_site_fract_x
_atom_site_fract_y
_atom_site_fract_z
Si Si1 0.161070 0.807653 0.500000
Si Si2 0.629130 0.746403 0.500000
Si Si3 0.083544 0.636246 0.500000
Si Si4 0.068199 0.500000 0.250000
Si Si5 0.201510 0.296156 0.263349
Si Si6 0.750586 0.500000 0.250000
Si Si7 0.469299 0.133793 0.500000
Si Si8 0.321370 0.465826 0.500000
O O1 0.110612 0.743840 0.500000
O O2 0.193444 0.782634 0.363602
O O3 0.148280 0.927852 0.500000
O O4 0.653694 0.799802 0.364569
O O5 0.570187 0.772565 0.500000
O O6 0.637632 0.624579 0.500000
O O7 0.099443 0.573538 0.357558
O O8 0.025950 0.671484 0.500000
O O9 0.035399 0.432842 0.358138
O O10 0.250000 0.250000 0.344522
O O11 0.212509 0.408947 0.202647
O O12 0.715112 0.544342 0.369250
#
# Coordination Sequence:
#
# PCOD8277157 Si02
#       8
#     8   8   8   8  16   8   8   8
#     4  12  25  39  64  88 123 159 211 245 309 360
#     4  12  25  39  64  88 123 159 211 245 309 360
#     4  11  22  40  64  94 126 162 202 251 304 369
#     4  10  21  39  65  88 126 166 190 241 323 370
#     4  12  23  42  60  90 118 160 202 257 296 367
#     4  12  24  37  65  82 122 154 202 245 309 350
#     4  11  22  40  64  94 126 162 202 251 304 369
#     4  12  22  42  59  84 114 172 195 240 304 368
#
# _framework density 21.577546999999999
#
# number of rings (size 3 to 8) (size 9 to 14) (size 15 to 20)
#    0.000    0.444    4.444    6.000    0.000    5.333 
#    0.000    0.556    0.000    0.000    0.000    7.778 
#    0.000    0.000    0.000    0.000    0.000    0.000 
#
# Total GULP energy -446268.964947 kJ/mol
# GULP energy per Si atom -12396.360137 kJ/mol
# Density = 2.152844 g / cm^3
# Si number density = 21.577547 Si / 1000 Ang^3
#
#
#
# Elastic Constant Matrix: (Units=GPa)
#
#
# Indices 1 2 3 4 5 6 
#
# 1 96.4299 65.4994 28.8108 0.0000 0.0000 0.0000
# 2 65.4994 172.7442 31.2452 0.0000 0.0000 0.0000
# 3 28.8108 31.2452 140.4354 0.0000 0.0000 0.0000
# 4 0.0000 0.0000 0.0000 28.7756 0.0000 0.0000
# 5 0.0000 0.0000 0.0000 0.0000 24.2515 0.0000
# 6 0.0000 0.0000 0.0000 0.0000 0.0000 39.2134
#
#
#
# Elastic Compliance Matrix: (Units=1/GPa)
#
#
# Indices 1 2 3 4 5 6 
#
# 1 0.014397 -0.005131 -0.001812 0.000000 0.000000 0.000000
# 2 -0.005131 0.007860 -0.000696 0.000000 0.000000 0.000000
# 3 -0.001812 -0.000696 0.007647 0.000000 0.000000 0.000000
# 4 0.000000 0.000000 0.000000 0.034752 0.000000 0.000000
# 5 0.000000 0.000000 0.000000 0.000000 0.041235 0.000000
# 6 0.000000 0.000000 0.000000 0.000000 0.000000 0.025502
#
#
# Mechanical properties :
#
#
# Convention : Reuss Voigt Hill
#
# Bulk Modulus (GPa) = 68.37097 73.41337 70.89217
# Shear Modulus (GPa) = 32.99326 37.38505 35.18916
#
# Velocity S-wave (km/s) = 3.91456 4.16696 4.04273
# Velocity P-wave (km/s) = 7.22403 7.56626 7.39712
#
# Compressibility (1/GPa) = 0.01462609
#
# Stress axis : x y z
#
# Youngs Moduli (GPa) = 69.45958 127.22012 130.76459
#
# Poissons Ratio (x) = 0.65278 0.23694
# Poissons Ratio (y) = 0.35641 0.09104
# Poissons Ratio (z) = 0.12586 0.08857
#
# Static dielectric constant tensor:
#      x y z
#    x 3.554580 0.000000 0.000000 
#    y 0.000000 3.916890 0.000000 
#    z 0.000000 0.000000 4.190310 
# 
# 
# High freq. dielectric constant tensor:
#      x y z
#    x 1.825480 0.000000 0.000000 
#    y 0.000000 1.846660 0.000000 
#    z 0.000000 0.000000 1.865020 
# 
# From -- ./inp_files/10020.got.cif
#   From: 2010.03.12/outbox.cif.g09.slc.cpg/sg66_6_cif.got.tgz:10020.got - 2010.04.10 21:57:39.
