data_PCOD8277877
_publ_section_title
;
Structure prediction by ZEFSAII (Michael W. Deem and Ramdas Pophale) SiO2 
 PCOD8277877
Probable space group: C C C M
;
_chemical_formula_sum "Si O2"
_cell_formula_units_Z 40
_cell_length_a 6.739241
_cell_length_b 27.035035
_cell_length_c 9.393330
_cell_angle_alpha 90.000000
_cell_angle_beta 90.000000
_cell_angle_gamma 90.000000
_cell_volume 1711.423549
_symmetry_space_group_name_H-M "C C C M"
_symmetry_group_IT_number 66
_symmetry_cell_setting 'orthorhombic'
loop_
_space_group_symop_operation_xyz
x,y,z
-x,-y,z
x,-y,1/2-z
-x,y,1/2-z
-x,-y,-z
x,y,-z
-x,y,1/2+z
x,-y,1/2+z
1/2+x,1/2+y,z
1/2-x,1/2-y,z
1/2+x,1/2-y,1/2-z
1/2-x,1/2+y,1/2-z
1/2-x,1/2-y,-z
1/2+x,1/2+y,-z
1/2-x,1/2+y,1/2+z
1/2+x,1/2-y,1/2+z
loop_
_atom_site_type_symbol
_atom_site_label
_atom_site_fract_x
_atom_site_fract_y
_atom_site_fract_z
Si Si1 0.500000 0.875980 0.250000
Si Si2 0.692064 0.452018 0.836916
Si Si3 0.181982 0.802682 0.341058
O O1 0.360738 0.910428 0.153471
O O2 0.362678 0.841279 0.347086
O O3 0.770351 0.500000 0.750000
O O4 0.500000 0.432156 0.750000
O O5 0.636105 0.465842 0.000000
O O6 0.102421 0.794370 0.500000
O O7 0.250000 0.750000 0.275257
O O8 0.000000 0.824243 0.250000
#
# Coordination Sequence:
#
# PCOD8277877 Si02
#       3
#     8  16  16
#     4  12  25  42  70 104 136 180 229 280 338 400
#     4  11  25  45  71 102 139 178 225 279 339 407
#     4  11  25  45  68  97 134 178 229 282 336 396
#
# _framework density 23.372356
#
# number of rings (size 3 to 8) (size 9 to 14) (size 15 to 20)
#    0.000    0.800    2.000    5.400    0.000   15.200 
#    0.000    0.000    0.000    0.000    0.000    0.000 
#    0.000    0.000    0.000    0.000    0.000    0.000 
#
# Total GULP energy -247964.285438 kJ/mol
# GULP energy per Si atom -12398.214272 kJ/mol
# Density = 2.331916 g / cm^3
# Si number density = 23.372356 Si / 1000 Ang^3
#
#
#
# Elastic Constant Matrix: (Units=GPa)
#
#
# Indices 1 2 3 4 5 6 
#
# 1 147.5945 82.0714 51.8245 0.0000 0.0000 0.0000
# 2 82.0714 141.1645 39.3260 0.0000 0.0000 0.0000
# 3 51.8245 39.3260 159.8671 0.0000 0.0000 0.0000
# 4 0.0000 0.0000 0.0000 62.0451 0.0000 0.0000
# 5 0.0000 0.0000 0.0000 0.0000 23.5593 0.0000
# 6 0.0000 0.0000 0.0000 0.0000 0.0000 59.1222
#
#
#
# Elastic Compliance Matrix: (Units=1/GPa)
#
#
# Indices 1 2 3 4 5 6 
#
# 1 0.010610 -0.005594 -0.002064 0.000000 0.000000 0.000000
# 2 -0.005594 0.010554 -0.000783 0.000000 0.000000 0.000000
# 3 -0.002064 -0.000783 0.007117 0.000000 0.000000 0.000000
# 4 0.000000 0.000000 0.000000 0.016117 0.000000 0.000000
# 5 0.000000 0.000000 0.000000 0.000000 0.042446 0.000000
# 6 0.000000 0.000000 0.000000 0.000000 0.000000 0.016914
#
#
# Mechanical properties :
#
#
# Convention : Reuss Voigt Hill
#
# Bulk Modulus (GPa) = 87.71353 88.34109 88.02731
# Shear Modulus (GPa) = 40.18008 47.30563 43.74285
#
# Velocity S-wave (km/s) = 4.15074 4.50377 4.33085
# Velocity P-wave (km/s) = 7.78342 8.05758 7.92169
#
# Compressibility (1/GPa) = 0.01140075
#
# Stress axis : x y z
#
# Youngs Moduli (GPa) = 94.24678 94.74849 140.51409
#
# Poissons Ratio (x) = 0.53001 0.28996
# Poissons Ratio (y) = 0.52721 0.11000
# Poissons Ratio (z) = 0.19448 0.07418
#
# Static dielectric constant tensor:
#      x y z
#    x 4.186190 0.000000 0.000000 
#    y 0.000000 4.283140 0.000000 
#    z 0.000000 0.000000 3.795890 
# 
# 
# High freq. dielectric constant tensor:
#      x y z
#    x 1.928520 0.000000 0.000000 
#    y 0.000000 1.938610 0.000000 
#    z 0.000000 0.000000 1.910780 
# 
# From -- ./inp_files/2645.got.cif
#   From: 2010.03.12/outbox.cif.g09.slc.cpg/sg66_2_cif.got.tgz:2645.got - 2010.04.10 21:57:39.
