data_PCOD8277695
_publ_section_title
;
Structure prediction by ZEFSAII (Michael W. Deem and Ramdas Pophale) SiO2 
 PCOD8277695
Probable space group: C C C M
;
_chemical_formula_sum "Si O2"
_cell_formula_units_Z 112
_cell_length_a 14.727637
_cell_length_b 22.065938
_cell_length_c 17.360367
_cell_angle_alpha 90.000000
_cell_angle_beta 90.000000
_cell_angle_gamma 90.000000
_cell_volume 5641.756876
_symmetry_space_group_name_H-M "C C C M"
_symmetry_group_IT_number 66
_symmetry_cell_setting 'orthorhombic'
loop_
_space_group_symop_operation_xyz
x,y,z
-x,-y,z
x,-y,1/2-z
-x,y,1/2-z
-x,-y,-z
x,y,-z
-x,y,1/2+z
x,-y,1/2+z
1/2+x,1/2+y,z
1/2-x,1/2-y,z
1/2+x,1/2-y,1/2-z
1/2-x,1/2+y,1/2-z
1/2-x,1/2-y,-z
1/2+x,1/2+y,-z
1/2-x,1/2+y,1/2+z
1/2+x,1/2-y,1/2+z
loop_
_atom_site_type_symbol
_atom_site_label
_atom_site_fract_x
_atom_site_fract_y
_atom_site_fract_z
Si Si1 0.603771 0.482921 0.333595
Si Si2 0.093388 0.644912 0.703088
Si Si3 0.089505 0.152231 0.197001
Si Si4 0.243991 0.935768 0.911090
Si Si5 0.253814 0.681412 0.188727
Si Si6 0.901696 0.486330 0.338850
Si Si7 0.641750 0.247341 0.590692
O O1 0.500000 0.500000 0.342745
O O2 0.643215 0.500000 0.250000
O O3 0.616978 0.411417 0.340895
O O4 0.658070 0.520617 0.397049
O O5 0.161691 0.664889 0.768970
O O6 0.122976 0.584575 0.656527
O O7 0.091535 0.692991 0.634458
O O8 0.000000 0.636293 0.750000
O O9 0.165643 0.180633 0.250483
O O10 0.085703 0.194672 0.121909
O O11 0.000000 0.147214 0.250000
O O12 0.228393 0.869244 0.875756
O O13 0.331776 0.970315 0.880890
O O14 0.256158 0.924231 0.000000
O O15 0.250000 0.750000 0.153847
O O16 0.901551 0.500000 0.250000
O O17 0.000000 0.500000 0.375920
O O18 0.624643 0.241083 0.500000
O O19 0.750000 0.250000 0.608971
#
# Coordination Sequence:
#
# PCOD8277695 Si02
#       7
#    16  16  16  16  16  16  16
#     4  11  21  41  69  97 120 162 216 269 309 379
#     4  12  21  40  72  95 123 171 221 260 315 383
#     4  12  21  40  72  95 123 171 221 260 315 383
#     4  12  26  41  63  96 134 168 204 266 336 380
#     4  12  23  40  64  94 122 172 225 264 301 382
#     4  11  21  41  69  97 120 162 216 269 309 379
#     4  11  25  42  62 101 140 164 208 274 329 373
#
# _framework density 19.851972
#
# number of rings (size 3 to 8) (size 9 to 14) (size 15 to 20)
#    0.000    0.429    8.571    1.714    0.000    2.000 
#    0.000    4.286    0.000    0.000    0.000    0.000 
#    0.000    0.000    0.000    0.000    0.000    0.000 
#
# Total GULP energy -694239.536103 kJ/mol
# GULP energy per Si atom -12397.134573 kJ/mol
# Density = 1.980679 g / cm^3
# Si number density = 19.851972 Si / 1000 Ang^3
#
#
#
# Elastic Constant Matrix: (Units=GPa)
#
#
# Indices 1 2 3 4 5 6 
#
# 1 69.9230 12.7544 17.1954 0.0000 0.0000 0.0000
# 2 12.7544 173.1414 31.0210 0.0000 0.0000 0.0000
# 3 17.1954 31.0210 79.6027 0.0000 0.0000 0.0000
# 4 0.0000 0.0000 0.0000 16.8394 0.0000 0.0000
# 5 0.0000 0.0000 0.0000 0.0000 -8.2533 0.0000
# 6 0.0000 0.0000 0.0000 0.0000 0.0000 30.3635
#
#
#
# Elastic Compliance Matrix: (Units=1/GPa)
#
#
# Indices 1 2 3 4 5 6 
#
# 1 0.015156 -0.000570 -0.003052 0.000000 0.000000 0.000000
# 2 -0.000570 0.006231 -0.002305 0.000000 0.000000 0.000000
# 3 -0.003052 -0.002305 0.014120 0.000000 0.000000 0.000000
# 4 0.000000 0.000000 0.000000 0.059385 0.000000 0.000000
# 5 0.000000 0.000000 0.000000 0.000000 -0.121164 0.000000
# 6 0.000000 0.000000 0.000000 0.000000 0.000000 0.032934
#
#
# Mechanical properties :
#
#
# Convention : Reuss Voigt Hill
#
# Bulk Modulus (GPa) = 42.27752 49.40098 45.83925
# Shear Modulus (GPa) = 189.40540 25.23634 107.32087
#
# Velocity S-wave (km/s) = 9.77834 3.56929 7.36057
# Velocity P-wave (km/s) = 12.19961 6.47496 9.76616
#
# Compressibility (1/GPa) = 0.02365323
#
# Stress axis : x y z
#
# Youngs Moduli (GPa) = 65.98100 160.49913 70.82211
#
# Poissons Ratio (x) = 0.09143 0.21614
# Poissons Ratio (y) = 0.03759 0.16324
# Poissons Ratio (z) = 0.20137 0.36995
#
# Static dielectric constant tensor:
#      x y z
#    x 3.098320 0.000000 0.000000 
#    y 0.000000 2.949930 0.000000 
#    z 0.000000 0.000000 3.413490 
# 
# 
# High freq. dielectric constant tensor:
#      x y z
#    x 1.780350 0.000000 0.000000 
#    y 0.000000 1.800800 0.000000 
#    z 0.000000 0.000000 1.748880 
# 
# From -- ./inp_files/28701.got.cif
#   From: 2010.03.12/outbox.cif.g09.slc.cpg/sg66_15_cif.got.tgz:28701.got - 2010.04.10 21:57:39.
