data_PCOD8277195
_publ_section_title
;
Structure prediction by ZEFSAII (Michael W. Deem and Ramdas Pophale) SiO2 
 PCOD8277195
Probable space group: C C C M
;
_chemical_formula_sum "Si O2"
_cell_formula_units_Z 88
_cell_length_a 26.211409
_cell_length_b 4.980717
_cell_length_c 30.631629
_cell_angle_alpha 90.000000
_cell_angle_beta 90.000000
_cell_angle_gamma 90.000000
_cell_volume 3999.008495
_symmetry_space_group_name_H-M "C C C M"
_symmetry_group_IT_number 66
_symmetry_cell_setting 'orthorhombic'
loop_
_space_group_symop_operation_xyz
x,y,z
-x,-y,z
x,-y,1/2-z
-x,y,1/2-z
-x,-y,-z
x,y,-z
-x,y,1/2+z
x,-y,1/2+z
1/2+x,1/2+y,z
1/2-x,1/2-y,z
1/2+x,1/2-y,1/2-z
1/2-x,1/2+y,1/2-z
1/2-x,1/2-y,-z
1/2+x,1/2+y,-z
1/2-x,1/2+y,1/2+z
1/2+x,1/2-y,1/2+z
loop_
_atom_site_type_symbol
_atom_site_label
_atom_site_fract_x
_atom_site_fract_y
_atom_site_fract_z
Si Si1 0.860281 0.253063 0.280588
Si Si2 0.390651 0.571986 0.370272
Si Si3 0.283646 0.483957 0.910085
Si Si4 0.097540 0.327569 0.500000
Si Si5 0.057449 0.430415 0.407645
Si Si6 0.750000 0.250000 0.278744
Si Si7 0.832887 0.167224 0.500000
O O1 0.878385 0.500000 0.250000
O O2 0.896982 0.192213 0.321469
O O3 0.803858 0.313070 0.302771
O O4 0.861289 0.000000 0.250000
O O5 0.333747 0.467294 0.380965
O O6 0.426841 0.314762 0.376183
O O7 0.406171 0.811372 0.402581
O O8 0.250000 0.250000 0.887553
O O9 0.297942 0.385227 0.958246
O O10 0.250000 0.750000 0.911807
O O11 0.061455 0.350981 0.458120
O O12 0.145799 0.528998 0.500000
O O13 0.118792 0.027606 0.500000
O O14 0.000000 0.500000 0.394940
O O15 0.734259 0.500000 0.250000
#
# Coordination Sequence:
#
# PCOD8277195 Si02
#       7
#    16  16  16   8  16   8   8
#     4  10  21  40  64  93 130 174 209 261 329 394
#     4  12  25  44  67 100 134 171 227 285 330 408
#     4  12  24  40  61  94 137 189 226 270 327 394
#     4  12  21  43  66  93 130 177 224 285 345 400
#     4  12  25  45  70  97 130 172 225 291 350 393
#     4   8  16  32  54  86 120 159 206 241 296 374
#     4  12  22  41  63  87 140 181 235 271 324 400
#
# _framework density 22.005452999999999
#
# number of rings (size 3 to 8) (size 9 to 14) (size 15 to 20)
#    0.000    0.727    3.636    4.636    1.273    0.000 
#    6.545    2.727    0.000    8.182    0.000    0.000 
#    0.000    0.000    0.000    0.000    0.000    0.000 
#
# Total GULP energy -545481.462812 kJ/mol
# GULP energy per Si atom -12397.305973 kJ/mol
# Density = 2.195537 g / cm^3
# Si number density = 22.005453 Si / 1000 Ang^3
#
#
#
# Elastic Constant Matrix: (Units=GPa)
#
#
# Indices 1 2 3 4 5 6 
#
# 1 96.7800 41.5239 50.3132 0.0000 0.0000 0.0000
# 2 41.5239 129.8437 30.1888 0.0000 0.0000 0.0000
# 3 50.3132 30.1888 94.9345 0.0000 0.0000 0.0000
# 4 0.0000 0.0000 0.0000 17.5029 0.0000 0.0000
# 5 0.0000 0.0000 0.0000 0.0000 15.3148 0.0000
# 6 0.0000 0.0000 0.0000 0.0000 0.0000 37.6361
#
#
#
# Elastic Compliance Matrix: (Units=1/GPa)
#
#
# Indices 1 2 3 4 5 6 
#
# 1 0.015457 -0.003281 -0.007148 0.000000 0.000000 0.000000
# 2 -0.003281 0.009013 -0.001127 0.000000 0.000000 0.000000
# 3 -0.007148 -0.001127 0.014680 0.000000 0.000000 0.000000
# 4 0.000000 0.000000 0.000000 0.057133 0.000000 0.000000
# 5 0.000000 0.000000 0.000000 0.000000 0.065296 0.000000
# 6 0.000000 0.000000 0.000000 0.000000 0.000000 0.026570
#
#
# Mechanical properties :
#
#
# Convention : Reuss Voigt Hill
#
# Bulk Modulus (GPa) = 62.35606 62.84555 62.60081
# Shear Modulus (GPa) = 23.08312 27.39293 25.23803
#
# Velocity S-wave (km/s) = 3.24230 3.53204 3.39026
# Velocity P-wave (km/s) = 6.51267 6.72717 6.62079
#
# Compressibility (1/GPa) = 0.01603693
#
# Stress axis : x y z
#
# Youngs Moduli (GPa) = 64.69697 110.95192 68.11767
#
# Poissons Ratio (x) = 0.36404 0.48693
# Poissons Ratio (y) = 0.21227 0.07678
# Poissons Ratio (z) = 0.46248 0.12506
#
# Static dielectric constant tensor:
#      x y z
#    x 3.897630 0.000000 0.000000 
#    y 0.000000 4.068210 0.000000 
#    z 0.000000 0.000000 3.786600 
# 
# 
# High freq. dielectric constant tensor:
#      x y z
#    x 1.850200 0.000000 0.000000 
#    y 0.000000 1.885750 0.000000 
#    z 0.000000 0.000000 1.856520 
# 
# From -- ./inp_files/70399.got.cif
#   From: 2010.03.12/outbox.cif.g09.slc.cpg/sg66_36_cif.got.tgz:70399.got - 2010.04.10 21:57:39.
