data_PCOD8277454
_publ_section_title
;
Structure prediction by ZEFSAII (Michael W. Deem and Ramdas Pophale) SiO2 
 PCOD8277454
Probable space group: C C C M
;
_chemical_formula_sum "Si O2"
_cell_formula_units_Z 88
_cell_length_a 20.626059
_cell_length_b 11.846934
_cell_length_c 17.920027
_cell_angle_alpha 90.000000
_cell_angle_beta 90.000000
_cell_angle_gamma 90.000000
_cell_volume 4378.858227
_symmetry_space_group_name_H-M "C C C M"
_symmetry_group_IT_number 66
_symmetry_cell_setting 'orthorhombic'
loop_
_space_group_symop_operation_xyz
x,y,z
-x,-y,z
x,-y,1/2-z
-x,y,1/2-z
-x,-y,-z
x,y,-z
-x,y,1/2+z
x,-y,1/2+z
1/2+x,1/2+y,z
1/2-x,1/2-y,z
1/2+x,1/2-y,1/2-z
1/2-x,1/2+y,1/2-z
1/2-x,1/2-y,-z
1/2+x,1/2+y,-z
1/2-x,1/2+y,1/2+z
1/2+x,1/2-y,1/2+z
loop_
_atom_site_type_symbol
_atom_site_label
_atom_site_fract_x
_atom_site_fract_y
_atom_site_fract_z
Si Si1 0.681743 0.290205 0.675451
Si Si2 0.382986 0.684605 0.823563
Si Si3 0.673720 0.111149 0.912832
Si Si4 0.389777 0.934181 0.323170
Si Si5 0.185497 0.989919 0.086631
Si Si6 0.500000 0.804816 0.250000
O O1 0.750000 0.250000 0.705525
O O2 0.645809 0.349042 0.743885
O O3 0.647502 0.176231 0.649523
O O4 0.685797 0.378470 0.607844
O O5 0.339644 0.778312 0.864645
O O6 0.375732 0.572391 0.873566
O O7 0.456029 0.728072 0.805752
O O8 0.745082 0.064660 0.891652
O O9 0.617404 0.020453 0.892139
O O10 0.668754 0.141076 0.000000
O O11 0.461444 0.889992 0.304106
O O12 0.360884 0.000000 0.250000
O O13 0.172328 0.980008 0.000000
#
# Coordination Sequence:
#
# PCOD8277454 Si02
#       6
#    16  16  16  16  16   8
#     4  11  21  35  64  93 121 164 216 263 322 384
#     4  11  23  39  63  91 124 170 224 266 317 379
#     4  11  22  37  63  97 132 166 205 267 340 391
#     4  11  21  39  63  91 127 160 213 274 323 371
#     4  11  24  40  60  94 140 171 205 265 330 397
#     4  10  23  40  67  90 126 173 221 276 310 364
#
# _framework density 20.096561999999999
#
# number of rings (size 3 to 8) (size 9 to 14) (size 15 to 20)
#    0.000    1.091    5.455    3.000    0.000    2.545 
#    0.000   10.000    0.000    6.545    0.000    0.000 
#    0.000    0.000    0.000    0.000    0.000    0.000 
#
# Total GULP energy -545212.212103 kJ/mol
# GULP energy per Si atom -12391.186639 kJ/mol
# Density = 2.005082 g / cm^3
# Si number density = 20.096562 Si / 1000 Ang^3
#
#
#
# Elastic Constant Matrix: (Units=GPa)
#
#
# Indices 1 2 3 4 5 6 
#
# 1 83.5390 27.6650 15.0561 0.0000 0.0000 0.0000
# 2 27.6650 99.0698 21.5049 0.0000 0.0000 0.0000
# 3 15.0561 21.5049 64.5493 0.0000 0.0000 0.0000
# 4 0.0000 0.0000 0.0000 41.6446 0.0000 0.0000
# 5 0.0000 0.0000 0.0000 0.0000 47.3999 0.0000
# 6 0.0000 0.0000 0.0000 0.0000 0.0000 21.5727
#
#
#
# Elastic Compliance Matrix: (Units=1/GPa)
#
#
# Indices 1 2 3 4 5 6 
#
# 1 0.013433 -0.003310 -0.002030 0.000000 0.000000 0.000000
# 2 -0.003310 0.011697 -0.003125 0.000000 0.000000 0.000000
# 3 -0.002030 -0.003125 0.017007 0.000000 0.000000 0.000000
# 4 0.000000 0.000000 0.000000 0.024013 0.000000 0.000000
# 5 0.000000 0.000000 0.000000 0.000000 0.021097 0.000000
# 6 0.000000 0.000000 0.000000 0.000000 0.000000 0.046355
#
#
# Mechanical properties :
#
#
# Convention : Reuss Voigt Hill
#
# Bulk Modulus (GPa) = 39.67426 41.73445 40.70436
# Shear Modulus (GPa) = 31.45987 34.31891 32.88939
#
# Velocity S-wave (km/s) = 3.96085 4.13692 4.04984
# Velocity P-wave (km/s) = 6.37985 6.60536 6.49358
#
# Compressibility (1/GPa) = 0.02520526
#
# Stress axis : x y z
#
# Youngs Moduli (GPa) = 74.44557 85.49529 58.80076
#
# Poissons Ratio (x) = 0.28302 0.11938
# Poissons Ratio (y) = 0.24644 0.18373
# Poissons Ratio (z) = 0.15115 0.26714
#
# Static dielectric constant tensor:
#      x y z
#    x 3.422090 0.000000 0.000000 
#    y 0.000000 3.846500 0.000000 
#    z 0.000000 0.000000 3.565200 
# 
# 
# High freq. dielectric constant tensor:
#      x y z
#    x 1.767410 0.000000 0.000000 
#    y 0.000000 1.801260 0.000000 
#    z 0.000000 0.000000 1.770910 
# 
# From -- ./inp_files/42796.got.cif
#   From: 2010.03.12/outbox.cif.g09.slc.cpg/sg66_22_cif.got.tgz:42796.got - 2010.04.10 21:57:39.
