data_PCOD8277048
_publ_section_title
;
Structure prediction by ZEFSAII (Michael W. Deem and Ramdas Pophale) SiO2 
 PCOD8277048
Probable space group: C C C M
;
_chemical_formula_sum "Si O2"
_cell_formula_units_Z 96
_cell_length_a 23.501291
_cell_length_b 24.038968
_cell_length_c 8.646211
_cell_angle_alpha 90.000000
_cell_angle_beta 90.000000
_cell_angle_gamma 90.000000
_cell_volume 4884.649084
_symmetry_space_group_name_H-M "C C C M"
_symmetry_group_IT_number 66
_symmetry_cell_setting 'orthorhombic'
loop_
_space_group_symop_operation_xyz
x,y,z
-x,-y,z
x,-y,1/2-z
-x,y,1/2-z
-x,-y,-z
x,y,-z
-x,y,1/2+z
x,-y,1/2+z
1/2+x,1/2+y,z
1/2-x,1/2-y,z
1/2+x,1/2-y,1/2-z
1/2-x,1/2+y,1/2-z
1/2-x,1/2-y,-z
1/2+x,1/2+y,-z
1/2-x,1/2+y,1/2+z
1/2+x,1/2-y,1/2+z
loop_
_atom_site_type_symbol
_atom_site_label
_atom_site_fract_x
_atom_site_fract_y
_atom_site_fract_z
Si Si1 0.137619 0.656038 0.817770
Si Si2 0.634189 0.270655 0.318017
Si Si3 0.268591 0.337941 0.316734
Si Si4 0.060229 0.133337 0.321374
Si Si5 0.662284 0.558537 0.324270
Si Si6 0.061242 0.559914 0.316388
O O1 0.111198 0.714276 0.761942
O O2 0.203411 0.659187 0.766850
O O3 0.108049 0.604909 0.731743
O O4 0.129854 0.648025 0.000000
O O5 0.635738 0.262032 0.500000
O O6 0.697736 0.285944 0.258146
O O7 0.588715 0.317237 0.273847
O O8 0.276672 0.331672 0.500000
O O9 0.297221 0.394283 0.251312
O O10 0.055625 0.151417 0.500000
O O11 0.096919 0.077094 0.303790
O O12 0.000000 0.118661 0.250000
O O13 0.674489 0.500000 0.250000
O O14 0.679843 0.551786 0.500000
O O15 0.079701 0.500000 0.250000
O O16 0.057224 0.556049 0.500000
O O17 0.000000 0.578035 0.250000
#
# Coordination Sequence:
#
# PCOD8277048 Si02
#       6
#    16  16  16  16  16  16
#     4  11  22  38  61  87 115 150 190 230 277 334
#     4  11  22  36  56  84 116 149 187 232 282 335
#     4   9  20  38  57  80 114 153 188 229 282 333
#     4  10  21  38  57  79 109 146 188 233 283 335
#     4   9  19  35  54  78 109 145 185 228 275 326
#     4  11  23  42  64  87 116 149 187 231 282 335
#
# _framework density 19.653407000000001
#
# number of rings (size 3 to 8) (size 9 to 14) (size 15 to 20)
#    0.000    1.833    0.000    6.000    0.000    8.333 
#    0.000    6.667    0.000    0.000    0.000    0.000 
#    0.000    0.000    0.000    0.000    0.000    0.000 
#
# Total GULP energy -595274.674102 kJ/mol
# GULP energy per Si atom -12401.555710 kJ/mol
# Density = 1.960868 g / cm^3
# Si number density = 19.653407 Si / 1000 Ang^3
#
#
#
# Elastic Constant Matrix: (Units=GPa)
#
#
# Indices 1 2 3 4 5 6 
#
# 1 52.2262 20.6113 24.0726 0.0000 0.0000 0.0000
# 2 20.6113 113.5962 34.7919 0.0000 0.0000 0.0000
# 3 24.0726 34.7919 99.7550 0.0000 0.0000 0.0000
# 4 0.0000 0.0000 0.0000 37.2700 0.0000 0.0000
# 5 0.0000 0.0000 0.0000 0.0000 30.2809 0.0000
# 6 0.0000 0.0000 0.0000 0.0000 0.0000 20.3136
#
#
#
# Elastic Compliance Matrix: (Units=1/GPa)
#
#
# Indices 1 2 3 4 5 6 
#
# 1 0.022249 -0.002679 -0.004435 0.000000 0.000000 0.000000
# 2 -0.002679 0.010178 -0.002904 0.000000 0.000000 0.000000
# 3 -0.004435 -0.002904 0.012107 0.000000 0.000000 0.000000
# 4 0.000000 0.000000 0.000000 0.026831 0.000000 0.000000
# 5 0.000000 0.000000 0.000000 0.000000 0.033024 0.000000
# 6 0.000000 0.000000 0.000000 0.000000 0.000000 0.049228
#
#
# Mechanical properties :
#
#
# Convention : Reuss Voigt Hill
#
# Bulk Modulus (GPa) = 40.81520 47.16988 43.99254
# Shear Modulus (GPa) = 27.49992 29.97969 28.73980
#
# Velocity S-wave (km/s) = 3.74471 3.90990 3.82819
# Velocity P-wave (km/s) = 6.28567 6.66604 6.47865
#
# Compressibility (1/GPa) = 0.02450068
#
# Stress axis : x y z
#
# Youngs Moduli (GPa) = 44.94639 98.24710 82.59393
#
# Poissons Ratio (x) = 0.26317 0.36629
# Poissons Ratio (y) = 0.12039 0.23982
# Poissons Ratio (z) = 0.19933 0.28527
#
# Static dielectric constant tensor:
#      x y z
#    x 3.625860 0.000000 0.000000 
#    y 0.000000 3.766600 0.000000 
#    z 0.000000 0.000000 3.558280 
# 
# 
# High freq. dielectric constant tensor:
#      x y z
#    x 1.762910 0.000000 0.000000 
#    y 0.000000 1.772730 0.000000 
#    z 0.000000 0.000000 1.770040 
# 
# From -- ./inp_files/8037.got.cif
#   From: 2010.03.12/outbox.cif.g09.slc.cpg/sg66_5_cif.got.tgz:8037.got - 2010.04.10 21:57:39.
