data_PCOD8277422
_publ_section_title
;
Structure prediction by ZEFSAII (Michael W. Deem and Ramdas Pophale) SiO2 
 PCOD8277422
Probable space group: C C C M
;
_chemical_formula_sum "Si O2"
_cell_formula_units_Z 96
_cell_length_a 9.661290
_cell_length_b 20.349021
_cell_length_c 25.907333
_cell_angle_alpha 90.000000
_cell_angle_beta 90.000000
_cell_angle_gamma 90.000000
_cell_volume 5093.324493
_symmetry_space_group_name_H-M "C C C M"
_symmetry_group_IT_number 66
_symmetry_cell_setting 'orthorhombic'
loop_
_space_group_symop_operation_xyz
x,y,z
-x,-y,z
x,-y,1/2-z
-x,y,1/2-z
-x,-y,-z
x,y,-z
-x,y,1/2+z
x,-y,1/2+z
1/2+x,1/2+y,z
1/2-x,1/2-y,z
1/2+x,1/2-y,1/2-z
1/2-x,1/2+y,1/2-z
1/2-x,1/2-y,-z
1/2+x,1/2+y,-z
1/2-x,1/2+y,1/2+z
1/2+x,1/2-y,1/2+z
loop_
_atom_site_type_symbol
_atom_site_label
_atom_site_fract_x
_atom_site_fract_y
_atom_site_fract_z
Si Si1 0.985819 0.349572 0.691063
Si Si2 0.899635 0.765728 0.378022
Si Si3 0.773500 0.907383 0.853930
Si Si4 0.154934 0.813020 0.559375
Si Si5 0.810791 0.466887 0.803385
Si Si6 0.555305 0.377227 0.803033
O O1 0.034901 0.296629 0.649898
O O2 0.070159 0.416505 0.679729
O O3 0.000000 0.325113 0.750000
O O4 0.822895 0.361229 0.681744
O O5 0.750000 0.750000 0.403445
O O6 0.870067 0.820326 0.334845
O O7 0.001515 0.794274 0.421327
O O8 0.779437 0.876194 0.911353
O O9 0.928702 0.909238 0.833435
O O10 0.711263 0.981263 0.850557
O O11 0.145761 0.833492 0.500000
O O12 0.250000 0.750000 0.568420
O O13 0.859724 0.500000 0.750000
O O14 0.665873 0.432927 0.790713
O O15 0.500000 0.346179 0.750000
#
# Coordination Sequence:
#
# PCOD8277422 Si02
#       6
#    16  16  16  16  16  16
#     4  12  22  37  55  87 130 165 194 235 291 360
#     4  11  23  39  58  90 118 153 198 255 306 352
#     4  11  23  35  60  88 118 154 205 242 287 353
#     4  10  22  44  69  86 109 152 206 264 311 346
#     4  12  22  36  56  83 127 171 197 226 284 365
#     4  11  21  36  55  82 122 166 199 235 282 352
#
# _framework density 18.848199999999999
#
# number of rings (size 3 to 8) (size 9 to 14) (size 15 to 20)
#    0.000    0.833    6.667    1.500    0.000    0.333 
#    0.000    0.000    0.000   11.000    0.000    0.000 
#    0.000    0.000    0.000    0.000    0.000    0.000 
#
# Total GULP energy -595151.800307 kJ/mol
# GULP energy per Si atom -12398.995840 kJ/mol
# Density = 1.880530 g / cm^3
# Si number density = 18.848200 Si / 1000 Ang^3
#
#
#
# Elastic Constant Matrix: (Units=GPa)
#
#
# Indices 1 2 3 4 5 6 
#
# 1 93.9939 11.9287 21.4396 0.0000 0.0000 0.0000
# 2 11.9287 84.1950 34.6713 0.0000 0.0000 0.0000
# 3 21.4396 34.6713 105.5756 0.0000 0.0000 0.0000
# 4 0.0000 0.0000 0.0000 25.6093 0.0000 0.0000
# 5 0.0000 0.0000 0.0000 0.0000 21.3294 0.0000
# 6 0.0000 0.0000 0.0000 0.0000 0.0000 11.8565
#
#
#
# Elastic Compliance Matrix: (Units=1/GPa)
#
#
# Indices 1 2 3 4 5 6 
#
# 1 0.011197 -0.000752 -0.002027 0.000000 0.000000 0.000000
# 2 -0.000752 0.013785 -0.004374 0.000000 0.000000 0.000000
# 3 -0.002027 -0.004374 0.011320 0.000000 0.000000 0.000000
# 4 0.000000 0.000000 0.000000 0.039048 0.000000 0.000000
# 5 0.000000 0.000000 0.000000 0.000000 0.046884 0.000000
# 6 0.000000 0.000000 0.000000 0.000000 0.000000 0.084342
#
#
# Mechanical properties :
#
#
# Convention : Reuss Voigt Hill
#
# Bulk Modulus (GPa) = 45.46309 46.64931 46.05620
# Shear Modulus (GPa) = 21.90931 26.14070 24.02500
#
# Velocity S-wave (km/s) = 3.41311 3.72816 3.57411
# Velocity P-wave (km/s) = 6.30123 6.58301 6.44366
#
# Compressibility (1/GPa) = 0.02199587
#
# Stress axis : x y z
#
# Youngs Moduli (GPa) = 89.31197 72.54230 88.33876
#
# Poissons Ratio (x) = 0.05453 0.17905
# Poissons Ratio (y) = 0.06713 0.38643
# Poissons Ratio (z) = 0.18103 0.31733
#
# Static dielectric constant tensor:
#      x y z
#    x 3.652700 0.000000 0.000000 
#    y 0.000000 3.634800 0.000000 
#    z 0.000000 0.000000 3.204250 
# 
# 
# High freq. dielectric constant tensor:
#      x y z
#    x 1.757560 0.000000 0.000000 
#    y 0.000000 1.734720 0.000000 
#    z 0.000000 0.000000 1.692680 
# 
# From -- ./inp_files/55606.got.cif
#   From: 2010.03.12/outbox.cif.g09.slc.cpg/sg66_28_cif.got.tgz:55606.got - 2010.04.10 21:57:39.
