data_PCOD8277034
_publ_section_title
;
Structure prediction by ZEFSAII (Michael W. Deem and Ramdas Pophale) SiO2 
 PCOD8277034
Probable space group: C C C M
;
_chemical_formula_sum "Si O2"
_cell_formula_units_Z 72
_cell_length_a 19.795771
_cell_length_b 7.945749
_cell_length_c 21.210176
_cell_angle_alpha 90.000000
_cell_angle_beta 90.000000
_cell_angle_gamma 90.000000
_cell_volume 3336.195831
_symmetry_space_group_name_H-M "C C C M"
_symmetry_group_IT_number 66
_symmetry_cell_setting 'orthorhombic'
loop_
_space_group_symop_operation_xyz
x,y,z
-x,-y,z
x,-y,1/2-z
-x,y,1/2-z
-x,-y,-z
x,y,-z
-x,y,1/2+z
x,-y,1/2+z
1/2+x,1/2+y,z
1/2-x,1/2-y,z
1/2+x,1/2-y,1/2-z
1/2-x,1/2+y,1/2-z
1/2-x,1/2-y,-z
1/2+x,1/2+y,-z
1/2-x,1/2+y,1/2+z
1/2+x,1/2-y,1/2+z
loop_
_atom_site_type_symbol
_atom_site_label
_atom_site_fract_x
_atom_site_fract_y
_atom_site_fract_z
Si Si1 0.357091 0.079114 0.837751
Si Si2 0.000000 0.000000 0.840732
Si Si3 0.780430 0.922835 0.362546
Si Si4 0.615537 0.354446 0.572824
Si Si5 0.605851 0.260710 0.212625
O O1 0.368453 0.162769 0.905849
O O2 0.381171 0.213284 0.785263
O O3 0.277887 0.035736 0.830623
O O4 0.399591 0.907049 0.830523
O O5 0.036450 0.863274 0.795548
O O6 0.947432 0.914378 0.887052
O O7 0.750000 0.750000 0.392313
O O8 0.832053 0.878331 0.306902
O O9 0.819093 0.026745 0.416730
O O10 0.596123 0.353314 0.500000
#
# Coordination Sequence:
#
# PCOD8277034 Si02
#       5
#    16   8  16  16  16
#     4  10  21  37  62  95 123 153 199 258 313 363
#     4  10  23  45  64  86 119 165 210 250 304 365
#     4   9  20  37  60  91 125 161 200 249 311 369
#     4  11  24  40  60  87 123 167 210 252 298 360
#     4   9  21  40  65  92 123 157 199 253 312 370
#
# _framework density 21.581467
#
# number of rings (size 3 to 8) (size 9 to 14) (size 15 to 20)
#    0.000    2.222    0.000    1.000    0.000   19.111 
#    0.000   13.333    0.000    0.000    0.000    0.000 
#    0.000    0.000    0.000    0.000    0.000    0.000 
#
# Total GULP energy -446353.737970 kJ/mol
# GULP energy per Si atom -12398.714944 kJ/mol
# Density = 2.153235 g / cm^3
# Si number density = 21.581467 Si / 1000 Ang^3
#
#
#
# Elastic Constant Matrix: (Units=GPa)
#
#
# Indices 1 2 3 4 5 6 
#
# 1 132.0676 71.1825 58.7843 0.0000 0.0000 0.0000
# 2 71.1825 126.4442 53.1607 0.0000 0.0000 0.0000
# 3 58.7843 53.1607 96.2178 0.0000 0.0000 0.0000
# 4 0.0000 0.0000 0.0000 24.3054 0.0000 0.0000
# 5 0.0000 0.0000 0.0000 0.0000 17.9968 0.0000
# 6 0.0000 0.0000 0.0000 0.0000 0.0000 42.1151
#
#
#
# Elastic Compliance Matrix: (Units=1/GPa)
#
#
# Indices 1 2 3 4 5 6 
#
# 1 0.012388 -0.004939 -0.004840 0.000000 0.000000 0.000000
# 2 -0.004939 0.012271 -0.003762 0.000000 0.000000 0.000000
# 3 -0.004840 -0.003762 0.015428 0.000000 0.000000 0.000000
# 4 0.000000 0.000000 0.000000 0.041143 0.000000 0.000000
# 5 0.000000 0.000000 0.000000 0.000000 0.055565 0.000000
# 6 0.000000 0.000000 0.000000 0.000000 0.000000 0.023744
#
#
# Mechanical properties :
#
#
# Convention : Reuss Voigt Hill
#
# Bulk Modulus (GPa) = 76.88995 80.10938 78.49967
# Shear Modulus (GPa) = 26.04740 28.32361 27.18550
#
# Velocity S-wave (km/s) = 3.47786 3.62664 3.55303
# Velocity P-wave (km/s) = 7.19948 7.39843 7.29963
#
# Compressibility (1/GPa) = 0.01300560
#
# Stress axis : x y z
#
# Youngs Moduli (GPa) = 80.72161 81.49350 64.81560
#
# Poissons Ratio (x) = 0.40252 0.31368
# Poissons Ratio (y) = 0.39871 0.24384
# Poissons Ratio (z) = 0.39066 0.30658
#
# Static dielectric constant tensor:
#      x y z
#    x 4.097620 0.000000 0.000000 
#    y 0.000000 4.282590 0.000000 
#    z 0.000000 0.000000 3.496250 
# 
# 
# High freq. dielectric constant tensor:
#      x y z
#    x 1.859090 0.000000 0.000000 
#    y 0.000000 1.865980 0.000000 
#    z 0.000000 0.000000 1.815000 
# 
# From -- ./inp_files/51621.got.cif
#   From: 2010.03.12/outbox.cif.g09.slc.cpg/sg66_26_cif.got.tgz:51621.got - 2010.04.10 21:57:39.
