data_PCOD8277025
_publ_section_title
;
Structure prediction by ZEFSAII (Michael W. Deem and Ramdas Pophale) SiO2 
 PCOD8277025
Probable space group: C C C M
;
_chemical_formula_sum "Si O2"
_cell_formula_units_Z 104
_cell_length_a 21.599122
_cell_length_b 26.263273
_cell_length_c 9.045613
_cell_angle_alpha 90.000000
_cell_angle_beta 90.000000
_cell_angle_gamma 90.000000
_cell_volume 5131.247335
_symmetry_space_group_name_H-M "C C C M"
_symmetry_group_IT_number 66
_symmetry_cell_setting 'orthorhombic'
loop_
_space_group_symop_operation_xyz
x,y,z
-x,-y,z
x,-y,1/2-z
-x,y,1/2-z
-x,-y,-z
x,y,-z
-x,y,1/2+z
x,-y,1/2+z
1/2+x,1/2+y,z
1/2-x,1/2-y,z
1/2+x,1/2-y,1/2-z
1/2-x,1/2+y,1/2-z
1/2-x,1/2-y,-z
1/2+x,1/2+y,-z
1/2-x,1/2+y,1/2+z
1/2+x,1/2-y,1/2+z
loop_
_atom_site_type_symbol
_atom_site_label
_atom_site_fract_x
_atom_site_fract_y
_atom_site_fract_z
Si Si1 0.680159 0.240429 0.666354
Si Si2 0.689587 0.052472 0.828313
Si Si3 0.619333 0.863974 0.837501
Si Si4 0.560125 0.386274 0.675683
Si Si5 0.168836 0.053797 0.324882
Si Si6 0.924687 0.786802 0.661555
Si Si7 0.500000 0.804625 0.750000
O O1 0.662525 0.258722 0.500000
O O2 0.750000 0.250000 0.705115
O O3 0.668485 0.180734 0.682214
O O4 0.643615 0.271629 0.788617
O O5 0.638002 0.093442 0.780551
O O6 0.760068 0.069977 0.791086
O O7 0.673548 0.000000 0.750000
O O8 0.681767 0.043066 0.000000
O O9 0.549826 0.841781 0.824627
O O10 0.625093 0.888515 0.000000
O O11 0.500000 0.414185 0.750000
O O12 0.560688 0.394895 0.500000
O O13 0.623659 0.405370 0.749208
O O14 0.551848 0.326348 0.713986
O O15 0.156253 0.050401 0.500000
O O16 0.153929 0.000000 0.250000
O O17 0.921908 0.813351 0.500000
O O18 0.965112 0.735123 0.642128
#
# Coordination Sequence:
#
# PCOD8277025 Si02
#       7
#    16  16  16  16  16  16   8
#     4   9  20  37  55  83 120 160 200 244 300 363
#     4  10  22  41  66  94 125 159 199 251 309 370
#     4  10  21  37  61  90 122 163 208 253 307 369
#     4  12  25  40  61  88 120 161 207 256 305 361
#     4  10  22  42  65  92 123 158 201 250 308 370
#     4  11  22  37  59  85 118 160 205 252 301 360
#     4  10  22  40  63  86 123 168 208 254 304 368
#
# _framework density 20.267975
#
# number of rings (size 3 to 8) (size 9 to 14) (size 15 to 20)
#    0.000    1.692    0.769    3.231    2.154    6.769 
#    0.000    1.923    0.000    1.846    0.000    0.000 
#    0.000    0.000    0.000    0.000    0.000    0.000 
#
# Total GULP energy -644493.490798 kJ/mol
# GULP energy per Si atom -12394.105592 kJ/mol
# Density = 2.022184 g / cm^3
# Si number density = 20.267975 Si / 1000 Ang^3
#
#
#
# Elastic Constant Matrix: (Units=GPa)
#
#
# Indices 1 2 3 4 5 6 
#
# 1 122.1238 59.1261 44.2090 0.0000 0.0000 0.0000
# 2 59.1261 74.4876 37.3532 0.0000 0.0000 0.0000
# 3 44.2090 37.3532 127.8007 0.0000 0.0000 0.0000
# 4 0.0000 0.0000 0.0000 29.7766 0.0000 0.0000
# 5 0.0000 0.0000 0.0000 0.0000 1.9171 0.0000
# 6 0.0000 0.0000 0.0000 0.0000 0.0000 22.3216
#
#
#
# Elastic Compliance Matrix: (Units=1/GPa)
#
#
# Indices 1 2 3 4 5 6 
#
# 1 0.013652 -0.009923 -0.001822 0.000000 0.000000 0.000000
# 2 -0.009923 0.022943 -0.003273 0.000000 0.000000 0.000000
# 3 -0.001822 -0.003273 0.009412 0.000000 0.000000 0.000000
# 4 0.000000 0.000000 0.000000 0.033583 0.000000 0.000000
# 5 0.000000 0.000000 0.000000 0.000000 0.521629 0.000000
# 6 0.000000 0.000000 0.000000 0.000000 0.000000 0.044800
#
#
# Mechanical properties :
#
#
# Convention : Reuss Voigt Hill
#
# Bulk Modulus (GPa) = 62.61702 67.30986 64.96344
# Shear Modulus (GPa) = 7.33806 23.05131 15.19469
#
# Velocity S-wave (km/s) = 1.90483 3.37609 2.74102
# Velocity P-wave (km/s) = 5.98327 6.96271 6.49149
#
# Compressibility (1/GPa) = 0.01597010
#
# Stress axis : x y z
#
# Youngs Moduli (GPa) = 73.24774 43.58635 106.25026
#
# Poissons Ratio (x) = 0.43250 0.19363
# Poissons Ratio (y) = 0.72683 0.34777
# Poissons Ratio (z) = 0.13348 0.14266
#
# Static dielectric constant tensor:
#      x y z
#    x 3.797100 0.000000 0.000000 
#    y 0.000000 3.486250 0.000000 
#    z 0.000000 0.000000 3.697280 
# 
# 
# High freq. dielectric constant tensor:
#      x y z
#    x 1.800240 0.000000 0.000000 
#    y 0.000000 1.774380 0.000000 
#    z 0.000000 0.000000 1.797900 
# 
# From -- ./inp_files/9355.got.cif
#   From: 2010.03.12/outbox.cif.g09.slc.cpg/sg66_5_cif.got.tgz:9355.got - 2010.04.10 21:57:39.
