data_PCOD8277355
_publ_section_title
;
Structure prediction by ZEFSAII (Michael W. Deem and Ramdas Pophale) SiO2 
 PCOD8277355
Probable space group: C C C M
;
_chemical_formula_sum "Si O2"
_cell_formula_units_Z 64
_cell_length_a 8.883155
_cell_length_b 10.774198
_cell_length_c 30.393978
_cell_angle_alpha 90.000000
_cell_angle_beta 90.000000
_cell_angle_gamma 90.000000
_cell_volume 2908.973315
_symmetry_space_group_name_H-M "C C C M"
_symmetry_group_IT_number 66
_symmetry_cell_setting 'orthorhombic'
loop_
_space_group_symop_operation_xyz
x,y,z
-x,-y,z
x,-y,1/2-z
-x,y,1/2-z
-x,-y,-z
x,y,-z
-x,y,1/2+z
x,-y,1/2+z
1/2+x,1/2+y,z
1/2-x,1/2-y,z
1/2+x,1/2-y,1/2-z
1/2-x,1/2+y,1/2-z
1/2-x,1/2-y,-z
1/2+x,1/2+y,-z
1/2-x,1/2+y,1/2+z
1/2+x,1/2-y,1/2+z
loop_
_atom_site_type_symbol
_atom_site_label
_atom_site_fract_x
_atom_site_fract_y
_atom_site_fract_z
Si Si1 0.640428 0.090798 0.928950
Si Si2 0.996001 0.262786 0.500000
Si Si3 0.389413 0.115990 0.330470
Si Si4 0.286915 0.553552 0.500000
Si Si5 0.568407 0.624118 0.701684
O O1 0.593149 0.214263 0.955824
O O2 0.685281 0.120901 0.879042
O O3 0.500000 0.000000 0.927530
O O4 0.777034 0.027999 0.955650
O O5 0.850681 0.350278 0.500000
O O6 0.948648 0.119429 0.500000
O O7 0.476474 0.247144 0.323046
O O8 0.249983 0.107911 0.296593
O O9 0.500000 0.000000 0.322837
O O10 0.500000 0.500000 0.678297
O O11 0.500000 0.633021 0.750000
#
# Coordination Sequence:
#
# PCOD8277355 Si02
#       5
#    16   8  16   8  16
#     4   8  15  28  47  81 117 148 195 243 284 340
#     4   8  13  23  44  75 117 159 192 233 283 338
#     4  10  22  40  66  92 119 158 201 250 305 362
#     4   8  13  23  44  75 117 157 190 235 285 336
#     4  10  24  43  61  88 120 151 195 251 307 369
#
# _framework density 22.000889999999998
#
# number of rings (size 3 to 8) (size 9 to 14) (size 15 to 20)
#    0.000    3.000    0.000    1.500    0.000   11.500 
#    0.000    5.000    0.000   12.000    0.000   14.000 
#    0.000    0.000    0.000    0.000    0.000    2.000 
#
# Total GULP energy -396547.781674 kJ/mol
# GULP energy per Si atom -12392.118177 kJ/mol
# Density = 2.195082 g / cm^3
# Si number density = 22.000890 Si / 1000 Ang^3
#
#
#
# Elastic Constant Matrix: (Units=GPa)
#
#
# Indices 1 2 3 4 5 6 
#
# 1 83.4943 56.9298 49.0528 0.0000 0.0000 0.0000
# 2 56.9298 201.9951 52.9741 0.0000 0.0000 0.0000
# 3 49.0528 52.9741 142.2857 0.0000 0.0000 0.0000
# 4 0.0000 0.0000 0.0000 -53.9661 0.0000 0.0000
# 5 0.0000 0.0000 0.0000 0.0000 -4.8702 0.0000
# 6 0.0000 0.0000 0.0000 0.0000 0.0000 44.7584
#
#
#
# Elastic Compliance Matrix: (Units=1/GPa)
#
#
# Indices 1 2 3 4 5 6 
#
# 1 0.017129 -0.003634 -0.004552 0.000000 0.000000 0.000000
# 2 -0.003634 0.006257 -0.001077 0.000000 0.000000 0.000000
# 3 -0.004552 -0.001077 0.008998 0.000000 0.000000 0.000000
# 4 0.000000 0.000000 0.000000 -0.018530 0.000000 0.000000
# 5 0.000000 0.000000 0.000000 0.000000 -0.205331 0.000000
# 6 0.000000 0.000000 0.000000 0.000000 0.000000 0.022342
#
#
# Mechanical properties :
#
#
# Convention : Reuss Voigt Hill
#
# Bulk Modulus (GPa) = 72.15662 82.85426 77.50544
# Shear Modulus (GPa) = -34.24908 15.10566 -9.57171
#
# Velocity S-wave (km/s) = -3.94980 2.62313 -2.08807
# Velocity P-wave (km/s) = 3.47377 6.84950 5.43060
#
# Compressibility (1/GPa) = 0.01385874
#
# Stress axis : x y z
#
# Youngs Moduli (GPa) = 58.38070 159.81732 111.13030
#
# Poissons Ratio (x) = 0.58073 0.50590
# Poissons Ratio (y) = 0.21214 0.11967
# Poissons Ratio (z) = 0.26577 0.17210
#
# Static dielectric constant tensor:
#      x y z
#    x 3.750610 0.000000 0.000000 
#    y 0.000000 4.496060 0.000000 
#    z 0.000000 0.000000 4.086670 
# 
# 
# High freq. dielectric constant tensor:
#      x y z
#    x 1.851410 0.000000 0.000000 
#    y 0.000000 1.889250 0.000000 
#    z 0.000000 0.000000 1.848920 
# 
# From -- ./inp_files/67949.got.cif
#   From: 2010.03.12/outbox.cif.g09.slc.cpg/sg66_34_cif.got.tgz:67949.got - 2010.04.10 21:57:39.
