data_PCOD8277298
_publ_section_title
;
Structure prediction by ZEFSAII (Michael W. Deem and Ramdas Pophale) SiO2 
 PCOD8277298
Probable space group: C C C M
;
_chemical_formula_sum "Si O2"
_cell_formula_units_Z 64
_cell_length_a 11.164228
_cell_length_b 15.720727
_cell_length_c 17.158547
_cell_angle_alpha 90.000000
_cell_angle_beta 90.000000
_cell_angle_gamma 90.000000
_cell_volume 3011.492819
_symmetry_space_group_name_H-M "C C C M"
_symmetry_group_IT_number 66
_symmetry_cell_setting 'orthorhombic'
loop_
_space_group_symop_operation_xyz
x,y,z
-x,-y,z
x,-y,1/2-z
-x,y,1/2-z
-x,-y,-z
x,y,-z
-x,y,1/2+z
x,-y,1/2+z
1/2+x,1/2+y,z
1/2-x,1/2-y,z
1/2+x,1/2-y,1/2-z
1/2-x,1/2+y,1/2-z
1/2-x,1/2-y,-z
1/2+x,1/2+y,-z
1/2-x,1/2+y,1/2+z
1/2+x,1/2-y,1/2+z
loop_
_atom_site_type_symbol
_atom_site_label
_atom_site_fract_x
_atom_site_fract_y
_atom_site_fract_z
Si Si1 0.867626 0.392507 0.714670
Si Si2 0.704646 0.053476 0.871955
Si Si3 0.399908 0.430268 0.500000
Si Si4 0.077883 0.219172 0.000000
Si Si5 0.035829 0.400688 0.500000
Si Si6 0.250000 0.750000 0.626969
O O1 0.775057 0.406804 0.786279
O O2 0.847873 0.458495 0.643269
O O3 0.840798 0.301126 0.681172
O O4 0.000000 0.401928 0.750000
O O5 0.826497 0.053061 0.920969
O O6 0.612112 0.111416 0.921029
O O7 0.500000 0.500000 0.500000
O O8 0.455340 0.334716 0.500000
O O9 0.159731 0.193819 0.074222
O O10 0.058963 0.322883 0.000000
O O11 0.000000 0.500000 0.500000
#
# Coordination Sequence:
#
# PCOD8277298 Si02
#       6
#    16  16   8   8   8   8
#     4  11  22  40  63  92 124 160 206 261 316 377
#     4  10  22  38  62  89 119 159 211 253 308 377
#     4  11  24  43  62  86 128 170 205 259 317 374
#     4  11  24  41  62  92 124 165 215 256 311 385
#     4  11  20  37  64  90 120 161 206 262 310 357
#     4  11  24  40  62  89 124 162 206 255 314 380
#
# _framework density 21.251919000000001
#
# number of rings (size 3 to 8) (size 9 to 14) (size 15 to 20)
#    0.000    1.250    0.000    7.500    0.000   10.000 
#    0.000    7.500    0.000    0.000    0.000    0.000 
#    0.000    0.000    0.000    0.000    0.000    0.000 
#
# Total GULP energy -396524.194825 kJ/mol
# GULP energy per Si atom -12391.381088 kJ/mol
# Density = 2.120355 g / cm^3
# Si number density = 21.251919 Si / 1000 Ang^3
#
#
#
# Elastic Constant Matrix: (Units=GPa)
#
#
# Indices 1 2 3 4 5 6 
#
# 1 129.2835 48.3624 53.4810 0.0000 0.0000 0.0000
# 2 48.3624 99.6922 40.0578 0.0000 0.0000 0.0000
# 3 53.4810 40.0578 131.0764 0.0000 0.0000 0.0000
# 4 0.0000 0.0000 0.0000 24.5690 0.0000 0.0000
# 5 0.0000 0.0000 0.0000 0.0000 32.3654 0.0000
# 6 0.0000 0.0000 0.0000 0.0000 0.0000 39.3871
#
#
#
# Elastic Compliance Matrix: (Units=1/GPa)
#
#
# Indices 1 2 3 4 5 6 
#
# 1 0.010445 -0.003824 -0.003093 0.000000 0.000000 0.000000
# 2 -0.003824 0.012835 -0.002362 0.000000 0.000000 0.000000
# 3 -0.003093 -0.002362 0.009613 0.000000 0.000000 0.000000
# 4 0.000000 0.000000 0.000000 0.040702 0.000000 0.000000
# 5 0.000000 0.000000 0.000000 0.000000 0.030897 0.000000
# 6 0.000000 0.000000 0.000000 0.000000 0.000000 0.025389
#
#
# Mechanical properties :
#
#
# Convention : Reuss Voigt Hill
#
# Bulk Modulus (GPa) = 69.76214 71.53938 70.65076
# Shear Modulus (GPa) = 32.63321 33.80769 33.22045
#
# Velocity S-wave (km/s) = 3.92285 3.99282 3.95799
# Velocity P-wave (km/s) = 7.30862 7.41569 7.36235
#
# Compressibility (1/GPa) = 0.01433442
#
# Stress axis : x y z
#
# Youngs Moduli (GPa) = 95.73967 77.91045 104.02559
#
# Poissons Ratio (x) = 0.29795 0.32175
# Poissons Ratio (y) = 0.36613 0.24573
# Poissons Ratio (z) = 0.29612 0.18404
#
# Static dielectric constant tensor:
#      x y z
#    x 3.846650 0.000000 0.000000 
#    y 0.000000 3.650560 0.000000 
#    z 0.000000 0.000000 4.390800 
# 
# 
# High freq. dielectric constant tensor:
#      x y z
#    x 1.822840 0.000000 0.000000 
#    y 0.000000 1.814570 0.000000 
#    z 0.000000 0.000000 1.861440 
# 
# From -- ./inp_files/38102.got.cif
#   From: 2010.03.12/outbox.cif.g09.slc.cpg/sg66_20_cif.got.tgz:38102.got - 2010.04.10 21:57:39.
