data_PCOD8277556
_publ_section_title
;
Structure prediction by ZEFSAII (Michael W. Deem and Ramdas Pophale) SiO2 
 PCOD8277556
Probable space group: C C C M
;
_chemical_formula_sum "Si O2"
_cell_formula_units_Z 48
_cell_length_a 8.337110
_cell_length_b 25.599258
_cell_length_c 8.957321
_cell_angle_alpha 90.000000
_cell_angle_beta 90.000000
_cell_angle_gamma 90.000000
_cell_volume 1911.705753
_symmetry_space_group_name_H-M "C C C M"
_symmetry_group_IT_number 66
_symmetry_cell_setting 'orthorhombic'
loop_
_space_group_symop_operation_xyz
x,y,z
-x,-y,z
x,-y,1/2-z
-x,y,1/2-z
-x,-y,-z
x,y,-z
-x,y,1/2+z
x,-y,1/2+z
1/2+x,1/2+y,z
1/2-x,1/2-y,z
1/2+x,1/2-y,1/2-z
1/2-x,1/2+y,1/2-z
1/2-x,1/2-y,-z
1/2+x,1/2+y,-z
1/2-x,1/2+y,1/2+z
1/2+x,1/2-y,1/2+z
loop_
_atom_site_type_symbol
_atom_site_label
_atom_site_fract_x
_atom_site_fract_y
_atom_site_fract_z
Si Si1 0.056079 0.067723 0.000000
Si Si2 0.000000 0.500000 0.250000
Si Si3 0.697306 0.681260 0.000000
Si Si4 0.076626 0.317324 0.500000
Si Si5 0.750000 0.250000 0.758251
Si Si6 0.822689 0.564099 0.500000
Si Si7 0.000000 0.000000 0.750000
O O1 0.107698 0.126805 0.000000
O O2 0.866953 0.057991 0.000000
O O3 0.116447 0.037543 0.148994
O O4 0.893609 0.538086 0.351904
O O5 0.643133 0.712981 0.147866
O O6 0.887435 0.674657 0.000000
O O7 0.131921 0.285656 0.645489
O O8 0.151189 0.374155 0.500000
#
# Coordination Sequence:
#
# PCOD8277556 Si02
#       7
#     8   4   8   8   8   8   4
#     4  11  26  46  78 109 150 197 251 307 381 438
#     4  10  26  50  76 114 154 198 254 306 374 444
#     4  11  26  48  78 111 151 196 247 315 377 449
#     4  11  26  46  80 107 150 196 254 306 378 447
#     4  10  26  50  72 110 152 196 250 312 374 452
#     4  11  26  46  80 109 149 199 250 310 370 450
#     4  10  26  50  68 110 154 194 240 312 366 452
#
# _framework density 25.108466
#
# number of rings (size 3 to 8) (size 9 to 14) (size 15 to 20)
#    0.000    1.333    0.000    2.000    9.333   13.333 
#    0.000    0.000    0.000    0.000    0.000    0.000 
#    0.000    0.000    0.000    0.000    0.000    0.000 
#
# Total GULP energy -297529.032346 kJ/mol
# GULP energy per Si atom -12397.043014 kJ/mol
# Density = 2.505132 g / cm^3
# Si number density = 25.108466 Si / 1000 Ang^3
#
#
#
# Elastic Constant Matrix: (Units=GPa)
#
#
# Indices 1 2 3 4 5 6 
#
# 1 97.7770 36.1526 37.0229 0.0000 0.0000 0.0000
# 2 36.1526 223.3731 101.7094 0.0000 0.0000 0.0000
# 3 37.0229 101.7094 217.0416 0.0000 0.0000 0.0000
# 4 0.0000 0.0000 0.0000 -67.5448 0.0000 0.0000
# 5 0.0000 0.0000 0.0000 0.0000 21.7384 0.0000
# 6 0.0000 0.0000 0.0000 0.0000 0.0000 52.5998
#
#
#
# Elastic Compliance Matrix: (Units=1/GPa)
#
#
# Indices 1 2 3 4 5 6 
#
# 1 0.011179 -0.001196 -0.001346 0.000000 0.000000 0.000000
# 2 -0.001196 0.005819 -0.002523 0.000000 0.000000 0.000000
# 3 -0.001346 -0.002523 0.006019 0.000000 0.000000 0.000000
# 4 0.000000 0.000000 0.000000 -0.014805 0.000000 0.000000
# 5 0.000000 0.000000 0.000000 0.000000 0.046001 0.000000
# 6 0.000000 0.000000 0.000000 0.000000 0.000000 0.019011
#
#
# Mechanical properties :
#
#
# Convention : Reuss Voigt Hill
#
# Bulk Modulus (GPa) = 77.59865 98.66237 88.13051
# Shear Modulus (GPa) = 57.04322 25.57914 41.31118
#
# Velocity S-wave (km/s) = 4.77159 3.19524 4.06064
# Velocity P-wave (km/s) = 7.83134 7.27960 7.56050
#
# Compressibility (1/GPa) = 0.01288682
#
# Stress axis : x y z
#
# Youngs Moduli (GPa) = 89.44950 171.84475 166.13084
#
# Poissons Ratio (x) = 0.20558 0.22367
# Poissons Ratio (y) = 0.10701 0.41913
# Poissons Ratio (z) = 0.12043 0.43355
#
# Static dielectric constant tensor:
#      x y z
#    x 4.279250 0.000000 0.000000 
#    y 0.000000 5.008550 0.000000 
#    z 0.000000 0.000000 5.841750 
# 
# 
# High freq. dielectric constant tensor:
#      x y z
#    x 1.987820 0.000000 0.000000 
#    y 0.000000 2.025030 0.000000 
#    z 0.000000 0.000000 2.032330 
# 
# From -- ./inp_files/2840.got.cif
#   From: 2010.03.12/outbox.cif.g09.slc.cpg/sg66_2_cif.got.tgz:2840.got - 2010.04.10 21:57:39.
