data_PCOD8277577
_publ_section_title
;
Structure prediction by ZEFSAII (Michael W. Deem and Ramdas Pophale) SiO2 
 PCOD8277577
Probable space group: C C C M
;
_chemical_formula_sum "Si O2"
_cell_formula_units_Z 80
_cell_length_a 28.944736
_cell_length_b 16.226663
_cell_length_c 9.615121
_cell_angle_alpha 90.000000
_cell_angle_beta 90.000000
_cell_angle_gamma 90.000000
_cell_volume 4515.996154
_symmetry_space_group_name_H-M "C C C M"
_symmetry_group_IT_number 66
_symmetry_cell_setting 'orthorhombic'
loop_
_space_group_symop_operation_xyz
x,y,z
-x,-y,z
x,-y,1/2-z
-x,y,1/2-z
-x,-y,-z
x,y,-z
-x,y,1/2+z
x,-y,1/2+z
1/2+x,1/2+y,z
1/2-x,1/2-y,z
1/2+x,1/2-y,1/2-z
1/2-x,1/2+y,1/2-z
1/2-x,1/2-y,-z
1/2+x,1/2+y,-z
1/2-x,1/2+y,1/2+z
1/2+x,1/2-y,1/2+z
loop_
_atom_site_type_symbol
_atom_site_label
_atom_site_fract_x
_atom_site_fract_y
_atom_site_fract_z
Si Si1 0.204611 0.303733 0.206419
Si Si2 0.045641 0.918222 0.666445
Si Si3 0.675907 0.550716 0.000000
Si Si4 0.720405 0.129273 0.000000
Si Si5 0.330808 0.629280 0.000000
Si Si6 0.282499 0.054851 0.000000
Si Si7 0.135730 0.171641 0.210235
O O1 0.250000 0.250000 0.164168
O O2 0.202491 0.318670 0.370083
O O3 0.204410 0.393326 0.136055
O O4 0.158232 0.256547 0.152325
O O5 0.037164 0.935682 0.500000
O O6 0.081479 0.841796 0.679648
O O7 0.000000 0.889671 0.750000
O O8 0.063534 0.000000 0.750000
O O9 0.649832 0.463729 0.000000
O O10 0.729232 0.535283 0.000000
O O11 0.662057 0.595961 0.140445
O O12 0.775665 0.130221 0.000000
O O13 0.696734 0.037781 0.000000
O O14 0.352496 0.675607 0.129188
#
# Coordination Sequence:
#
# PCOD8277577 Si02
#       7
#    16  16   8   8   8   8  16
#     4  12  21  36  51  79 110 145 186 236 278 317
#     4  11  24  41  59  82 112 147 186 228 276 333
#     4  11  19  33  46  78 103 145 189 223 264 320
#     4  11  22  38  50  76 109 156 190 231 268 330
#     4  11  21  31  50  74 109 147 191 227 264 320
#     4  11  22  34  56  70 111 150 192 221 274 326
#     4  12  23  33  54  76 108 144 185 234 274 322
#
# _framework density 17.714807
#
# number of rings (size 3 to 8) (size 9 to 14) (size 15 to 20)
#    0.000    0.600    5.000    5.400    2.800    3.200 
#    0.000    0.000    0.000    0.000    0.000    0.000 
#    0.000    4.800    0.000    0.000    0.000    0.000 
#
# Total GULP energy -495655.678087 kJ/mol
# GULP energy per Si atom -12391.391952 kJ/mol
# Density = 1.767449 g / cm^3
# Si number density = 17.714807 Si / 1000 Ang^3
#
#
#
# Elastic Constant Matrix: (Units=GPa)
#
#
# Indices 1 2 3 4 5 6 
#
# 1 90.0299 39.9519 23.1393 0.0000 0.0000 0.0000
# 2 39.9519 72.1004 6.9154 0.0000 0.0000 0.0000
# 3 23.1393 6.9154 110.2879 0.0000 0.0000 0.0000
# 4 0.0000 0.0000 0.0000 39.1482 0.0000 0.0000
# 5 0.0000 0.0000 0.0000 0.0000 24.6839 0.0000
# 6 0.0000 0.0000 0.0000 0.0000 0.0000 30.1570
#
#
#
# Elastic Compliance Matrix: (Units=1/GPa)
#
#
# Indices 1 2 3 4 5 6 
#
# 1 0.015506 -0.008330 -0.002731 0.000000 0.000000 0.000000
# 2 -0.008330 0.018429 0.000592 0.000000 0.000000 0.000000
# 3 -0.002731 0.000592 0.009603 0.000000 0.000000 0.000000
# 4 0.000000 0.000000 0.000000 0.025544 0.000000 0.000000
# 5 0.000000 0.000000 0.000000 0.000000 0.040512 0.000000
# 6 0.000000 0.000000 0.000000 0.000000 0.000000 0.033160
#
#
# Mechanical properties :
#
#
# Convention : Reuss Voigt Hill
#
# Bulk Modulus (GPa) = 44.24819 45.82570 45.03694
# Shear Modulus (GPa) = 29.20140 32.29191 30.74666
#
# Velocity S-wave (km/s) = 4.06448 4.27415 4.17063
# Velocity P-wave (km/s) = 6.85995 7.09102 6.97644
#
# Compressibility (1/GPa) = 0.02259980
#
# Stress axis : x y z
#
# Youngs Moduli (GPa) = 64.49145 54.26346 104.13395
#
# Poissons Ratio (x) = 0.45202 0.28438
# Poissons Ratio (y) = 0.53722 -0.06167
# Poissons Ratio (z) = 0.17612 -0.03213
#
# Static dielectric constant tensor:
#      x y z
#    x 3.153610 0.000000 0.000000 
#    y 0.000000 3.378670 0.000000 
#    z 0.000000 0.000000 3.440660 
# 
# 
# High freq. dielectric constant tensor:
#      x y z
#    x 1.641230 0.000000 0.000000 
#    y 0.000000 1.672000 0.000000 
#    z 0.000000 0.000000 1.713320 
# 
# From -- ./inp_files/10118.got.cif
#   From: 2010.03.12/outbox.cif.g09.slc.cpg/sg66_6_cif.got.tgz:10118.got - 2010.04.10 21:57:39.
