data_PCOD8277562
_publ_section_title
;
Structure prediction by ZEFSAII (Michael W. Deem and Ramdas Pophale) SiO2 
 PCOD8277562
Probable space group: C C C M
;
_chemical_formula_sum "Si O2"
_cell_formula_units_Z 80
_cell_length_a 18.164250
_cell_length_b 14.285310
_cell_length_c 18.071303
_cell_angle_alpha 90.000000
_cell_angle_beta 90.000000
_cell_angle_gamma 90.000000
_cell_volume 4689.176800
_symmetry_space_group_name_H-M "C C C M"
_symmetry_group_IT_number 66
_symmetry_cell_setting 'orthorhombic'
loop_
_space_group_symop_operation_xyz
x,y,z
-x,-y,z
x,-y,1/2-z
-x,y,1/2-z
-x,-y,-z
x,y,-z
-x,y,1/2+z
x,-y,1/2+z
1/2+x,1/2+y,z
1/2-x,1/2-y,z
1/2+x,1/2-y,1/2-z
1/2-x,1/2+y,1/2-z
1/2-x,1/2-y,-z
1/2+x,1/2+y,-z
1/2-x,1/2+y,1/2+z
1/2+x,1/2-y,1/2+z
loop_
_atom_site_type_symbol
_atom_site_label
_atom_site_fract_x
_atom_site_fract_y
_atom_site_fract_z
Si Si1 0.420838 0.753176 0.238440
Si Si2 0.207695 0.014643 0.585804
Si Si3 0.695456 0.907918 0.291084
Si Si4 0.300432 0.670066 0.330945
Si Si5 0.573573 0.554593 0.323252
O O1 0.500000 0.803790 0.250000
O O2 0.367306 0.829048 0.199690
O O3 0.380827 0.713291 0.312464
O O4 0.442746 0.663376 0.189516
O O5 0.222522 0.029694 0.500000
O O6 0.275937 0.063424 0.627852
O O7 0.130463 0.058702 0.609694
O O8 0.198097 0.905906 0.605061
O O9 0.765595 0.868737 0.245780
O O10 0.662979 0.000000 0.250000
O O11 0.250000 0.750000 0.365428
O O12 0.500000 0.500000 0.347265
O O13 0.606286 0.500000 0.250000
#
# Coordination Sequence:
#
# PCOD8277562 Si02
#       5
#    16  16  16  16  16
#     4  11  18  30  57  80  98 132 176 230 270 301
#     4  11  20  32  50  75 112 145 171 211 266 328
#     4   9  19  35  52  75 105 136 181 224 260 310
#     4   9  17  32  54  74  97 133 180 226 258 298
#     4  11  18  32  53  77 105 135 176 217 266 311
#
# _framework density 17.060563999999999
#
# number of rings (size 3 to 8) (size 9 to 14) (size 15 to 20)
#    0.000    1.800    6.000    0.600    0.000    1.200 
#    0.000    2.000    0.000    1.200    0.000   12.600 
#    0.000    0.000    0.000    0.000    0.000    0.000 
#
# Total GULP energy -495707.642742 kJ/mol
# GULP energy per Si atom -12392.691069 kJ/mol
# Density = 1.702173 g / cm^3
# Si number density = 17.060564 Si / 1000 Ang^3
#
#
#
# Elastic Constant Matrix: (Units=GPa)
#
#
# Indices 1 2 3 4 5 6 
#
# 1 119.5953 47.5948 38.3351 0.0000 0.0000 0.0000
# 2 47.5948 88.6116 27.6132 0.0000 0.0000 0.0000
# 3 38.3351 27.6132 98.2370 0.0000 0.0000 0.0000
# 4 0.0000 0.0000 0.0000 13.9999 0.0000 0.0000
# 5 0.0000 0.0000 0.0000 0.0000 16.3915 0.0000
# 6 0.0000 0.0000 0.0000 0.0000 0.0000 32.5394
#
#
#
# Elastic Compliance Matrix: (Units=1/GPa)
#
#
# Indices 1 2 3 4 5 6 
#
# 1 0.011381 -0.005183 -0.002984 0.000000 0.000000 0.000000
# 2 -0.005183 0.014729 -0.002118 0.000000 0.000000 0.000000
# 3 -0.002984 -0.002118 0.011939 0.000000 0.000000 0.000000
# 4 0.000000 0.000000 0.000000 0.071429 0.000000 0.000000
# 5 0.000000 0.000000 0.000000 0.000000 0.061007 0.000000
# 6 0.000000 0.000000 0.000000 0.000000 0.000000 0.030732
#
#
# Mechanical properties :
#
#
# Convention : Reuss Voigt Hill
#
# Bulk Modulus (GPa) = 57.21010 59.28113 58.24562
# Shear Modulus (GPa) = 21.96709 25.44619 23.70664
#
# Velocity S-wave (km/s) = 3.59220 3.86621 3.73172
# Velocity P-wave (km/s) = 7.12822 7.39953 7.26514
#
# Compressibility (1/GPa) = 0.01747943
#
# Stress axis : x y z
#
# Youngs Moduli (GPa) = 87.86812 67.89386 83.75729
#
# Poissons Ratio (x) = 0.35188 0.24996
# Poissons Ratio (y) = 0.45540 0.17737
# Poissons Ratio (z) = 0.26222 0.14377
#
# Static dielectric constant tensor:
#      x y z
#    x 3.298160 0.000000 0.000000 
#    y 0.000000 3.453420 0.000000 
#    z 0.000000 0.000000 2.692000 
# 
# 
# High freq. dielectric constant tensor:
#      x y z
#    x 1.660980 0.000000 0.000000 
#    y 0.000000 1.672560 0.000000 
#    z 0.000000 0.000000 1.600140 
# 
# From -- ./inp_files/40187.got.cif
#   From: 2010.03.12/outbox.cif.g09.slc.cpg/sg66_21_cif.got.tgz:40187.got - 2010.04.10 21:57:39.
