data_PCOD8277359
_publ_section_title
;
Structure prediction by ZEFSAII (Michael W. Deem and Ramdas Pophale) SiO2 
 PCOD8277359
Probable space group: C C C M
;
_chemical_formula_sum "Si O2"
_cell_formula_units_Z 64
_cell_length_a 19.731416
_cell_length_b 5.212089
_cell_length_c 27.885189
_cell_angle_alpha 90.000000
_cell_angle_beta 90.000000
_cell_angle_gamma 90.000000
_cell_volume 2867.765715
_symmetry_space_group_name_H-M "C C C M"
_symmetry_group_IT_number 66
_symmetry_cell_setting 'orthorhombic'
loop_
_space_group_symop_operation_xyz
x,y,z
-x,-y,z
x,-y,1/2-z
-x,y,1/2-z
-x,-y,-z
x,y,-z
-x,y,1/2+z
x,-y,1/2+z
1/2+x,1/2+y,z
1/2-x,1/2-y,z
1/2+x,1/2-y,1/2-z
1/2-x,1/2+y,1/2-z
1/2-x,1/2-y,-z
1/2+x,1/2+y,-z
1/2-x,1/2+y,1/2+z
1/2+x,1/2-y,1/2+z
loop_
_atom_site_type_symbol
_atom_site_label
_atom_site_fract_x
_atom_site_fract_y
_atom_site_fract_z
Si Si1 0.828667 0.894119 0.500000
Si Si2 0.294495 0.000000 0.250000
Si Si3 0.959922 0.732303 0.101757
Si Si4 0.823068 0.612185 0.852297
Si Si5 0.250000 0.750000 0.916004
Si Si6 0.412087 0.878037 0.500000
O O1 0.784457 0.954297 0.547669
O O2 0.855372 0.599406 0.500000
O O3 0.888742 0.086227 0.500000
O O4 0.250000 0.750000 0.238813
O O5 0.340743 0.953400 0.296979
O O6 0.885624 0.773053 0.125891
O O7 0.955745 0.617161 0.048138
O O8 0.000000 0.500000 0.129310
O O9 0.000000 0.000000 0.104783
O O10 0.750000 0.750000 0.854587
O O11 0.811599 0.358488 0.883985
#
# Coordination Sequence:
#
# PCOD8277359 Si02
#       6
#     8   8  16  16   8   8
#     4  11  24  35  64  99 135 174 222 276 330 393
#     4  10  22  40  69 106 129 162 222 286 338 390
#     4  12  27  44  66  98 139 181 223 273 337 402
#     4  11  24  43  73  98 135 174 229 281 340 402
#     4  11  22  38  64 100 138 172 222 279 338 390
#     4  12  22  44  60  91 134 182 226 265 325 402
#
# _framework density 22.317027
#
# number of rings (size 3 to 8) (size 9 to 14) (size 15 to 20)
#    0.000    0.750    3.750    3.750    3.500    1.000 
#    0.000    0.625    0.000    1.500    0.000    0.000 
#    0.000    0.000    0.000    0.000    0.000    0.000 
#
# Total GULP energy -396430.141592 kJ/mol
# GULP energy per Si atom -12388.441925 kJ/mol
# Density = 2.226623 g / cm^3
# Si number density = 22.317027 Si / 1000 Ang^3
#
#
#
# Elastic Constant Matrix: (Units=GPa)
#
#
# Indices 1 2 3 4 5 6 
#
# 1 135.6643 47.5724 57.0707 0.0000 0.0000 0.0000
# 2 47.5724 98.7301 20.8973 0.0000 0.0000 0.0000
# 3 57.0707 20.8973 159.9116 0.0000 0.0000 0.0000
# 4 0.0000 0.0000 0.0000 13.0288 0.0000 0.0000
# 5 0.0000 0.0000 0.0000 0.0000 15.6025 0.0000
# 6 0.0000 0.0000 0.0000 0.0000 0.0000 46.3602
#
#
#
# Elastic Compliance Matrix: (Units=1/GPa)
#
#
# Indices 1 2 3 4 5 6 
#
# 1 0.010149 -0.004241 -0.003068 0.000000 0.000000 0.000000
# 2 -0.004241 0.012189 -0.000079 0.000000 0.000000 0.000000
# 3 -0.003068 -0.000079 0.007359 0.000000 0.000000 0.000000
# 4 0.000000 0.000000 0.000000 0.076753 0.000000 0.000000
# 5 0.000000 0.000000 0.000000 0.000000 0.064092 0.000000
# 6 0.000000 0.000000 0.000000 0.000000 0.000000 0.021570
#
#
# Mechanical properties :
#
#
# Convention : Reuss Voigt Hill
#
# Bulk Modulus (GPa) = 67.02229 71.70964 69.36597
# Shear Modulus (GPa) = 23.60040 32.91601 28.25820
#
# Velocity S-wave (km/s) = 3.25546 3.84465 3.56226
# Velocity P-wave (km/s) = 6.65040 7.20489 6.93319
#
# Compressibility (1/GPa) = 0.01492041
#
# Stress axis : x y z
#
# Youngs Moduli (GPa) = 98.53413 82.04242 135.89385
#
# Poissons Ratio (x) = 0.34792 0.41689
# Poissons Ratio (y) = 0.41786 0.01078
# Poissons Ratio (z) = 0.30228 0.00651
#
# Static dielectric constant tensor:
#      x y z
#    x 3.901270 0.000000 0.000000 
#    y 0.000000 3.901500 0.000000 
#    z 0.000000 0.000000 4.289090 
# 
# 
# High freq. dielectric constant tensor:
#      x y z
#    x 1.870300 0.000000 0.000000 
#    y 0.000000 1.882220 0.000000 
#    z 0.000000 0.000000 1.876450 
# 
# From -- ./inp_files/61299.got.cif
#   From: 2010.03.12/outbox.cif.g09.slc.cpg/sg66_31_cif.got.tgz:61299.got - 2010.04.10 21:57:39.
