data_PCOD8277779
_publ_section_title
;
Structure prediction by ZEFSAII (Michael W. Deem and Ramdas Pophale) SiO2 
 PCOD8277779
Probable space group: C C C M
;
_chemical_formula_sum "Si O2"
_cell_formula_units_Z 80
_cell_length_a 5.079053
_cell_length_b 26.710076
_cell_length_c 26.136918
_cell_angle_alpha 90.000000
_cell_angle_beta 90.000000
_cell_angle_gamma 90.000000
_cell_volume 3545.783737
_symmetry_space_group_name_H-M "C C C M"
_symmetry_group_IT_number 66
_symmetry_cell_setting 'orthorhombic'
loop_
_space_group_symop_operation_xyz
x,y,z
-x,-y,z
x,-y,1/2-z
-x,y,1/2-z
-x,-y,-z
x,y,-z
-x,y,1/2+z
x,-y,1/2+z
1/2+x,1/2+y,z
1/2-x,1/2-y,z
1/2+x,1/2-y,1/2-z
1/2-x,1/2+y,1/2-z
1/2-x,1/2-y,-z
1/2+x,1/2+y,-z
1/2-x,1/2+y,1/2+z
1/2+x,1/2-y,1/2+z
loop_
_atom_site_type_symbol
_atom_site_label
_atom_site_fract_x
_atom_site_fract_y
_atom_site_fract_z
Si Si1 0.218186 0.636295 0.440791
Si Si2 0.249969 0.533840 0.388629
Si Si3 0.705098 0.340738 0.880454
Si Si4 0.398895 0.602853 0.694120
Si Si5 0.071837 0.705904 0.307254
O O1 0.243749 0.649090 0.500000
O O2 0.272484 0.577999 0.430468
O O3 0.430601 0.671048 0.410110
O O4 0.924884 0.648144 0.422447
O O5 0.500000 0.500000 0.396687
O O6 0.236164 0.557089 0.330863
O O7 0.000000 0.500000 0.399308
O O8 0.651412 0.388402 0.843039
O O9 0.808505 0.297040 0.842370
O O10 0.500000 0.588203 0.750000
O O11 0.223062 0.652907 0.693474
O O12 0.250000 0.750000 0.330654
O O13 0.000000 0.721383 0.250000
#
# Coordination Sequence:
#
# PCOD8277779 Si02
#       5
#    16  16  16  16  16
#     4  11  24  44  72  97 131 180 234 290 350 403
#     4  11  24  41  65  98 134 175 230 280 336 406
#     4  11  22  43  67 100 137 180 218 280 341 409
#     4  11  23  43  66  97 141 189 223 275 340 417
#     4  12  25  40  71 108 142 177 226 277 343 418
#
# _framework density 22.562007000000001
#
# number of rings (size 3 to 8) (size 9 to 14) (size 15 to 20)
#    0.000    0.800    6.000    3.600    0.000    1.200 
#    0.000    3.000    0.000    3.600    0.000    0.000 
#    0.000    0.000    0.000    0.000    0.000    0.000 
#
# Total GULP energy -495839.845435 kJ/mol
# GULP energy per Si atom -12395.996136 kJ/mol
# Density = 2.251066 g / cm^3
# Si number density = 22.562007 Si / 1000 Ang^3
#
#
#
# Elastic Constant Matrix: (Units=GPa)
#
#
# Indices 1 2 3 4 5 6 
#
# 1 133.5790 21.1939 33.1672 0.0000 0.0000 0.0000
# 2 21.1939 48.7176 -2.0125 0.0000 0.0000 0.0000
# 3 33.1672 -2.0125 158.3092 0.0000 0.0000 0.0000
# 4 0.0000 0.0000 0.0000 -88.7495 0.0000 0.0000
# 5 0.0000 0.0000 0.0000 0.0000 40.0225 0.0000
# 6 0.0000 0.0000 0.0000 0.0000 0.0000 31.4906
#
#
#
# Elastic Compliance Matrix: (Units=1/GPa)
#
#
# Indices 1 2 3 4 5 6 
#
# 1 0.008544 -0.003793 -0.001838 0.000000 0.000000 0.000000
# 2 -0.003793 0.022221 0.001077 0.000000 0.000000 0.000000
# 3 -0.001838 0.001077 0.006716 0.000000 0.000000 0.000000
# 4 0.000000 0.000000 0.000000 -0.011268 0.000000 0.000000
# 5 0.000000 0.000000 0.000000 0.000000 0.024986 0.000000
# 6 0.000000 0.000000 0.000000 0.000000 0.000000 0.031755
#
#
# Mechanical properties :
#
#
# Convention : Reuss Voigt Hill
#
# Bulk Modulus (GPa) = 35.24526 49.47811 42.36169
# Shear Modulus (GPa) = 49.25086 15.76987 32.51037
#
# Velocity S-wave (km/s) = 4.67723 2.64665 3.80008
# Velocity P-wave (km/s) = 6.69508 5.59617 6.17014
#
# Compressibility (1/GPa) = 0.02837261
#
# Stress axis : x y z
#
# Youngs Moduli (GPa) = 117.03453 45.00224 148.90702
#
# Poissons Ratio (x) = 0.17070 0.27375
# Poissons Ratio (y) = 0.44392 -0.16040
# Poissons Ratio (z) = 0.21515 -0.04848
#
# Static dielectric constant tensor:
#      x y z
#    x 4.349460 0.000000 0.000000 
#    y 0.000000 3.921270 0.000000 
#    z 0.000000 0.000000 4.171590 
# 
# 
# High freq. dielectric constant tensor:
#      x y z
#    x 1.910410 0.000000 0.000000 
#    y 0.000000 1.869630 0.000000 
#    z 0.000000 0.000000 1.883250 
# 
# From -- ./inp_files/61568.got.cif
#   From: 2010.03.12/outbox.cif.g09.slc.cpg/sg66_31_cif.got.tgz:61568.got - 2010.04.10 21:57:39.
