data_PCOD8277709
_publ_section_title
;
Structure prediction by ZEFSAII (Michael W. Deem and Ramdas Pophale) SiO2 
 PCOD8277709
Probable space group: C C C M
;
_chemical_formula_sum "Si O2"
_cell_formula_units_Z 112
_cell_length_a 20.787505
_cell_length_b 16.181224
_cell_length_c 17.838881
_cell_angle_alpha 90.000000
_cell_angle_beta 90.000000
_cell_angle_gamma 90.000000
_cell_volume 6000.415788
_symmetry_space_group_name_H-M "C C C M"
_symmetry_group_IT_number 66
_symmetry_cell_setting 'orthorhombic'
loop_
_space_group_symop_operation_xyz
x,y,z
-x,-y,z
x,-y,1/2-z
-x,y,1/2-z
-x,-y,-z
x,y,-z
-x,y,1/2+z
x,-y,1/2+z
1/2+x,1/2+y,z
1/2-x,1/2-y,z
1/2+x,1/2-y,1/2-z
1/2-x,1/2+y,1/2-z
1/2-x,1/2-y,-z
1/2+x,1/2+y,-z
1/2-x,1/2+y,1/2+z
1/2+x,1/2-y,1/2+z
loop_
_atom_site_type_symbol
_atom_site_label
_atom_site_fract_x
_atom_site_fract_y
_atom_site_fract_z
Si Si1 0.535338 0.809749 0.089628
Si Si2 0.000480 0.867993 0.086491
Si Si3 0.414066 0.096598 0.586353
Si Si4 0.718951 0.834301 0.413391
Si Si5 0.645594 0.928163 0.089135
Si Si6 0.736487 0.499103 0.838182
Si Si7 0.896139 0.992665 0.587045
O O1 0.520967 0.718918 0.124462
O O2 0.479784 0.869771 0.122887
O O3 0.605275 0.846396 0.113389
O O4 0.532363 0.806879 0.000000
O O5 0.067336 0.909080 0.116642
O O6 0.943347 0.931228 0.097991
O O7 0.012949 0.850283 0.000000
O O8 0.428104 0.080167 0.500000
O O9 0.358255 0.165678 0.597043
O O10 0.392885 0.008488 0.620374
O O11 0.737785 0.847757 0.500000
O O12 0.750000 0.750000 0.382627
O O13 0.748414 0.908198 0.366846
O O14 0.715932 0.930764 0.127319
O O15 0.655627 0.932719 0.000000
O O16 0.743249 0.500000 0.750000
O O17 0.664070 0.517493 0.862608
O O18 0.876115 0.982647 0.500000
#
# Coordination Sequence:
#
# PCOD8277709 Si02
#       7
#    16  16  16  16  16  16  16
#     4   9  15  25  47  78 106 128 161 212 266 315
#     4   8  16  29  49  79 104 126 164 217 269 320
#     4   8  14  24  43  74 105 129 160 209 271 319
#     4   9  18  32  53  81 107 135 180 234 276 322
#     4   9  17  31  49  73 103 136 174 216 261 323
#     4  11  22  35  51  74 103 148 181 214 273 333
#     4   9  17  33  54  75 103 134 170 218 271 322
#
# _framework density 18.665374
#
# number of rings (size 3 to 8) (size 9 to 14) (size 15 to 20)
#    0.000    3.000    0.000    3.429    2.000    1.714 
#    0.000    3.571    0.000   10.286    7.429    0.000 
#    0.000    0.000    0.000    0.000    0.000    0.000 
#
# Total GULP energy -693861.273792 kJ/mol
# GULP energy per Si atom -12390.379889 kJ/mol
# Density = 1.862289 g / cm^3
# Si number density = 18.665374 Si / 1000 Ang^3
#
#
#
# Elastic Constant Matrix: (Units=GPa)
#
#
# Indices 1 2 3 4 5 6 
#
# 1 113.3203 41.7728 24.9365 0.0000 0.0000 0.0000
# 2 41.7728 96.1894 12.9058 0.0000 0.0000 0.0000
# 3 24.9365 12.9058 41.6306 0.0000 0.0000 0.0000
# 4 0.0000 0.0000 0.0000 7.9148 0.0000 0.0000
# 5 0.0000 0.0000 0.0000 0.0000 4.3372 0.0000
# 6 0.0000 0.0000 0.0000 0.0000 0.0000 25.9418
#
#
#
# Elastic Compliance Matrix: (Units=1/GPa)
#
#
# Indices 1 2 3 4 5 6 
#
# 1 0.011653 -0.004303 -0.005646 0.000000 0.000000 0.000000
# 2 -0.004303 0.012436 -0.001278 0.000000 0.000000 0.000000
# 3 -0.005646 -0.001278 0.027799 0.000000 0.000000 0.000000
# 4 0.000000 0.000000 0.000000 0.126346 0.000000 0.000000
# 5 0.000000 0.000000 0.000000 0.000000 0.230565 0.000000
# 6 0.000000 0.000000 0.000000 0.000000 0.000000 0.038548
#
#
# Mechanical properties :
#
#
# Convention : Reuss Voigt Hill
#
# Bulk Modulus (GPa) = 33.97408 45.59671 39.78540
# Shear Modulus (GPa) = 10.42507 19.07377 14.74942
#
# Velocity S-wave (km/s) = 2.36588 3.20015 2.81410
# Velocity P-wave (km/s) = 5.06994 6.17545 5.64980
#
# Compressibility (1/GPa) = 0.02943421
#
# Stress axis : x y z
#
# Youngs Moduli (GPa) = 85.81281 80.40938 35.97261
#
# Poissons Ratio (x) = 0.34602 0.20311
# Poissons Ratio (y) = 0.36927 0.04597
# Poissons Ratio (z) = 0.48452 0.10275
#
# Static dielectric constant tensor:
#      x y z
#    x 3.698560 0.000000 0.000000 
#    y 0.000000 3.673870 0.000000 
#    z 0.000000 0.000000 2.868350 
# 
# 
# High freq. dielectric constant tensor:
#      x y z
#    x 1.736200 0.000000 0.000000 
#    y 0.000000 1.721740 0.000000 
#    z 0.000000 0.000000 1.657510 
# 
# From -- ./inp_files/43063.got.cif
#   From: 2010.03.12/outbox.cif.g09.slc.cpg/sg66_22_cif.got.tgz:43063.got - 2010.04.10 21:57:39.
