data_PCOD8277595
_publ_section_title
;
Structure prediction by ZEFSAII (Michael W. Deem and Ramdas Pophale) SiO2 
 PCOD8277595
Probable space group: C C C M
;
_chemical_formula_sum "Si O2"
_cell_formula_units_Z 96
_cell_length_a 25.381539
_cell_length_b 11.643016
_cell_length_c 17.733363
_cell_angle_alpha 90.000000
_cell_angle_beta 90.000000
_cell_angle_gamma 90.000000
_cell_volume 5240.522021
_symmetry_space_group_name_H-M "C C C M"
_symmetry_group_IT_number 66
_symmetry_cell_setting 'orthorhombic'
loop_
_space_group_symop_operation_xyz
x,y,z
-x,-y,z
x,-y,1/2-z
-x,y,1/2-z
-x,-y,-z
x,y,-z
-x,y,1/2+z
x,-y,1/2+z
1/2+x,1/2+y,z
1/2-x,1/2-y,z
1/2+x,1/2-y,1/2-z
1/2-x,1/2+y,1/2-z
1/2-x,1/2-y,-z
1/2+x,1/2+y,-z
1/2-x,1/2+y,1/2+z
1/2+x,1/2-y,1/2+z
loop_
_atom_site_type_symbol
_atom_site_label
_atom_site_fract_x
_atom_site_fract_y
_atom_site_fract_z
Si Si1 0.472197 0.831831 0.830808
Si Si2 0.950216 0.931460 0.913866
Si Si3 0.130912 0.486729 0.333654
Si Si4 0.072020 0.678918 0.588603
Si Si5 0.095745 0.159621 0.585996
Si Si6 0.304549 0.201152 0.588552
O O1 0.500000 0.817650 0.750000
O O2 0.424297 0.919874 0.829747
O O3 0.516253 0.878966 0.889100
O O4 0.450729 0.709614 0.861205
O O5 0.931744 0.810199 0.877756
O O6 0.901890 0.021308 0.907651
O O7 0.965624 0.902111 0.000000
O O8 0.000000 0.000000 0.877066
O O9 0.153388 0.500000 0.250000
O O10 0.120047 0.610769 0.371708
O O11 0.176841 0.421066 0.378664
O O12 0.082403 0.673835 0.500000
O O13 0.083526 0.198715 0.500000
O O14 0.152407 0.204256 0.611369
O O15 0.298519 0.183363 0.500000
O O16 0.250000 0.250000 0.623000
#
# Coordination Sequence:
#
# PCOD8277595 Si02
#       6
#    16  16  16  16  16  16
#     4  11  20  31  48  74 115 151 178 216 266 319
#     4   9  16  29  48  73 107 145 180 216 256 307
#     4  11  22  35  54  77 113 146 174 224 286 332
#     4  11  21  32  51  76 109 151 191 219 257 327
#     4   9  17  32  55  79 105 141 184 224 268 319
#     4   9  19  37  63  85 101 132 187 244 283 324
#
# _framework density 18.318785999999999
#
# number of rings (size 3 to 8) (size 9 to 14) (size 15 to 20)
#    0.000    2.000    3.333    1.500    0.000    2.667 
#    0.000    1.667    3.667    0.000    0.000    5.833 
#    0.000    0.000    0.000    0.000    0.000    0.000 
#
# Total GULP energy -594796.019655 kJ/mol
# GULP energy per Si atom -12391.583743 kJ/mol
# Density = 1.827709 g / cm^3
# Si number density = 18.318786 Si / 1000 Ang^3
#
#
#
# Elastic Constant Matrix: (Units=GPa)
#
#
# Indices 1 2 3 4 5 6 
#
# 1 95.3282 51.1542 27.6721 0.0000 0.0000 0.0000
# 2 51.1542 121.6289 33.9299 0.0000 0.0000 0.0000
# 3 27.6721 33.9299 63.1846 0.0000 0.0000 0.0000
# 4 0.0000 0.0000 0.0000 12.1996 0.0000 0.0000
# 5 0.0000 0.0000 0.0000 0.0000 20.0655 0.0000
# 6 0.0000 0.0000 0.0000 0.0000 0.0000 21.6571
#
#
#
# Elastic Compliance Matrix: (Units=1/GPa)
#
#
# Indices 1 2 3 4 5 6 
#
# 1 0.014190 -0.004981 -0.003540 0.000000 0.000000 0.000000
# 2 -0.004981 0.011418 -0.003950 0.000000 0.000000 0.000000
# 3 -0.003540 -0.003950 0.019498 0.000000 0.000000 0.000000
# 4 0.000000 0.000000 0.000000 0.081970 0.000000 0.000000
# 5 0.000000 0.000000 0.000000 0.000000 0.049837 0.000000
# 6 0.000000 0.000000 0.000000 0.000000 0.000000 0.046174
#
#
# Mechanical properties :
#
#
# Convention : Reuss Voigt Hill
#
# Bulk Modulus (GPa) = 49.59108 56.18381 52.88745
# Shear Modulus (GPa) = 19.62691 21.94348 20.78519
#
# Velocity S-wave (km/s) = 3.27679 3.46478 3.37209
# Velocity P-wave (km/s) = 6.43789 6.83688 6.64038
#
# Compressibility (1/GPa) = 0.02016492
#
# Stress axis : x y z
#
# Youngs Moduli (GPa) = 70.47045 87.57765 51.28615
#
# Poissons Ratio (x) = 0.43618 0.18156
# Poissons Ratio (y) = 0.35098 0.20260
# Poissons Ratio (z) = 0.24948 0.34597
#
# Static dielectric constant tensor:
#      x y z
#    x 3.216540 0.000000 0.000000 
#    y 0.000000 3.621960 0.000000 
#    z 0.000000 0.000000 3.286690 
# 
# 
# High freq. dielectric constant tensor:
#      x y z
#    x 1.674520 0.000000 0.000000 
#    y 0.000000 1.719400 0.000000 
#    z 0.000000 0.000000 1.692580 
# 
# From -- ./inp_files/38836.got.cif
#   From: 2010.03.12/outbox.cif.g09.slc.cpg/sg66_20_cif.got.tgz:38836.got - 2010.04.10 21:57:39.
