data_PCOD8277268
_publ_section_title
;
Structure prediction by ZEFSAII (Michael W. Deem and Ramdas Pophale) SiO2 
 PCOD8277268
Probable space group: C C C M
;
_chemical_formula_sum "Si O2"
_cell_formula_units_Z 80
_cell_length_a 15.392841
_cell_length_b 11.847823
_cell_length_c 23.039486
_cell_angle_alpha 90.000000
_cell_angle_beta 90.000000
_cell_angle_gamma 90.000000
_cell_volume 4201.749207
_symmetry_space_group_name_H-M "C C C M"
_symmetry_group_IT_number 66
_symmetry_cell_setting 'orthorhombic'
loop_
_space_group_symop_operation_xyz
x,y,z
-x,-y,z
x,-y,1/2-z
-x,y,1/2-z
-x,-y,-z
x,y,-z
-x,y,1/2+z
x,-y,1/2+z
1/2+x,1/2+y,z
1/2-x,1/2-y,z
1/2+x,1/2-y,1/2-z
1/2-x,1/2+y,1/2-z
1/2-x,1/2-y,-z
1/2+x,1/2+y,-z
1/2-x,1/2+y,1/2+z
1/2+x,1/2-y,1/2+z
loop_
_atom_site_type_symbol
_atom_site_label
_atom_site_fract_x
_atom_site_fract_y
_atom_site_fract_z
Si Si1 0.608588 0.752683 0.095527
Si Si2 0.513030 0.628404 0.317769
Si Si3 0.001779 0.368151 0.500000
Si Si4 0.746123 0.578364 0.931881
Si Si5 0.150228 0.224490 0.500000
Si Si6 0.316369 0.352588 0.616837
O O1 0.557469 0.712472 0.153067
O O2 0.536851 0.809328 0.055887
O O3 0.654576 0.644504 0.066388
O O4 0.682302 0.848836 0.103520
O O5 0.500000 0.500000 0.338475
O O6 0.500000 0.643994 0.250000
O O7 0.614299 0.653996 0.331290
O O8 0.000000 0.500000 0.500000
O O9 0.104015 0.344723 0.500000
O O10 0.738118 0.467718 0.891421
O O11 0.773501 0.556289 0.000000
O O12 0.250000 0.250000 0.500000
O O13 0.126501 0.154878 0.557608
O O14 0.250000 0.250000 0.626007
#
# Coordination Sequence:
#
# PCOD8277268 Si02
#       6
#    16  16   8  16   8  16
#     4  11  22  38  61  91 125 168 204 262 320 386
#     4  11  24  45  65  87 120 172 230 270 304 369
#     4  12  24  34  60  96 133 169 202 250 334 396
#     4  11  21  37  62  97 133 160 201 253 327 403
#     4  10  22  35  56  91 127 167 194 252 317 383
#     4  11  23  38  63  95 131 163 206 263 322 377
#
# _framework density 19.039688999999999
#
# number of rings (size 3 to 8) (size 9 to 14) (size 15 to 20)
#    0.000    1.000    7.000    0.600    5.600    0.000 
#    3.600    3.000    0.000    4.200    0.000    0.000 
#    0.000    0.000    0.000    0.000    0.000    0.000 
#
# Total GULP energy -495602.720545 kJ/mol
# GULP energy per Si atom -12390.068014 kJ/mol
# Density = 1.899635 g / cm^3
# Si number density = 19.039689 Si / 1000 Ang^3
#
#
#
# Elastic Constant Matrix: (Units=GPa)
#
#
# Indices 1 2 3 4 5 6 
#
# 1 123.1115 74.1093 52.3782 0.0000 0.0000 0.0000
# 2 74.1093 146.5315 49.0869 0.0000 0.0000 0.0000
# 3 52.3782 49.0869 103.8174 0.0000 0.0000 0.0000
# 4 0.0000 0.0000 0.0000 -9.5000 0.0000 0.0000
# 5 0.0000 0.0000 0.0000 0.0000 0.5639 0.0000
# 6 0.0000 0.0000 0.0000 0.0000 0.0000 38.4905
#
#
#
# Elastic Compliance Matrix: (Units=1/GPa)
#
#
# Indices 1 2 3 4 5 6 
#
# 1 0.012997 -0.005200 -0.004098 0.000000 0.000000 0.000000
# 2 -0.005200 0.010190 -0.002194 0.000000 0.000000 0.000000
# 3 -0.004098 -0.002194 0.012737 0.000000 0.000000 0.000000
# 4 0.000000 0.000000 0.000000 -0.105264 0.000000 0.000000
# 5 0.000000 0.000000 0.000000 0.000000 1.773215 0.000000
# 6 0.000000 0.000000 0.000000 0.000000 0.000000 0.025980
#
#
# Mechanical properties :
#
#
# Convention : Reuss Voigt Hill
#
# Bulk Modulus (GPa) = 77.29067 80.51212 78.90139
# Shear Modulus (GPa) = 2.84551 19.10330 10.97440
#
# Velocity S-wave (km/s) = 1.22383 3.17099 2.40343
# Velocity P-wave (km/s) = 6.53297 7.46895 7.01658
#
# Compressibility (1/GPa) = 0.01293817
#
# Stress axis : x y z
#
# Youngs Moduli (GPa) = 76.94197 98.13939 78.50858
#
# Poissons Ratio (x) = 0.51035 0.32176
# Poissons Ratio (y) = 0.40012 0.17226
# Poissons Ratio (z) = 0.31534 0.21533
#
# Static dielectric constant tensor:
#      x y z
#    x 3.659430 0.000000 0.000000 
#    y 0.000000 3.684450 0.000000 
#    z 0.000000 0.000000 4.598360 
# 
# 
# High freq. dielectric constant tensor:
#      x y z
#    x 1.754930 0.000000 0.000000 
#    y 0.000000 1.750730 0.000000 
#    z 0.000000 0.000000 1.706430 
# 
# From -- ./inp_files/56677.got.cif
#   From: 2010.03.12/outbox.cif.g09.slc.cpg/sg66_29_cif.got.tgz:56677.got - 2010.04.10 21:57:39.
