data_PCOD8277791
_publ_section_title
;
Structure prediction by ZEFSAII (Michael W. Deem and Ramdas Pophale) SiO2 
 PCOD8277791
Probable space group: C C C M
;
_chemical_formula_sum "Si O2"
_cell_formula_units_Z 52
_cell_length_a 26.302885
_cell_length_b 4.825276
_cell_length_c 18.706213
_cell_angle_alpha 90.000000
_cell_angle_beta 90.000000
_cell_angle_gamma 90.000000
_cell_volume 2374.167857
_symmetry_space_group_name_H-M "C C C M"
_symmetry_group_IT_number 66
_symmetry_cell_setting 'orthorhombic'
loop_
_space_group_symop_operation_xyz
x,y,z
-x,-y,z
x,-y,1/2-z
-x,y,1/2-z
-x,-y,-z
x,y,-z
-x,y,1/2+z
x,-y,1/2+z
1/2+x,1/2+y,z
1/2-x,1/2-y,z
1/2+x,1/2-y,1/2-z
1/2-x,1/2+y,1/2-z
1/2-x,1/2-y,-z
1/2+x,1/2+y,-z
1/2-x,1/2+y,1/2+z
1/2+x,1/2-y,1/2+z
loop_
_atom_site_type_symbol
_atom_site_label
_atom_site_fract_x
_atom_site_fract_y
_atom_site_fract_z
Si Si1 0.500000 0.500000 0.750000
Si Si2 0.951098 0.658239 0.128127
Si Si3 0.608467 0.340125 0.918554
Si Si4 0.716104 0.483435 0.580467
O O1 0.535689 0.707288 0.795160
O O2 0.907926 0.419526 0.131216
O O3 0.000000 0.500000 0.094426
O O4 0.933241 0.914842 0.079672
O O5 0.661137 0.455831 0.884197
O O6 0.616374 0.233425 0.000000
O O7 0.704381 0.377853 0.500000
O O8 0.750000 0.750000 0.580389
O O9 0.750000 0.250000 0.621079
#
# Coordination Sequence:
#
# PCOD8277791 Si02
#       4
#     4  16  16  16
#     4  12  26  48  60  80 114 160 230 262 298 360
#     4  12  24  41  62  83 121 160 207 256 299 357
#     4  11  23  37  59  96 129 159 196 238 314 375
#     4   9  17  32  54  82 124 165 191 224 275 356
#
# _framework density 21.902411000000001
#
# number of rings (size 3 to 8) (size 9 to 14) (size 15 to 20)
#    0.000    1.231    3.077    3.231    0.000    8.615 
#    0.000    0.000    0.000    0.000    0.000    6.462 
#    0.000    0.000    0.000    0.000    0.000    0.000 
#
# Total GULP energy -322154.724293 kJ/mol
# GULP energy per Si atom -12390.566319 kJ/mol
# Density = 2.185256 g / cm^3
# Si number density = 21.902411 Si / 1000 Ang^3
#
#
#
# Elastic Constant Matrix: (Units=GPa)
#
#
# Indices 1 2 3 4 5 6 
#
# 1 138.5263 73.2610 52.3184 0.0000 0.0000 0.0000
# 2 73.2610 172.5169 41.4329 0.0000 0.0000 0.0000
# 3 52.3184 41.4329 47.4044 0.0000 0.0000 0.0000
# 4 0.0000 0.0000 0.0000 36.2471 0.0000 0.0000
# 5 0.0000 0.0000 0.0000 0.0000 2.6153 0.0000
# 6 0.0000 0.0000 0.0000 0.0000 0.0000 55.4535
#
#
#
# Elastic Compliance Matrix: (Units=1/GPa)
#
#
# Indices 1 2 3 4 5 6 
#
# 1 0.013294 -0.002685 -0.012325 0.000000 0.000000 0.000000
# 2 -0.002685 0.007879 -0.003923 0.000000 0.000000 0.000000
# 3 -0.012325 -0.003923 0.038126 0.000000 0.000000 0.000000
# 4 0.000000 0.000000 0.000000 0.027588 0.000000 0.000000
# 5 0.000000 0.000000 0.000000 0.000000 0.382368 0.000000
# 6 0.000000 0.000000 0.000000 0.000000 0.000000 0.018033
#
#
# Mechanical properties :
#
#
# Convention : Reuss Voigt Hill
#
# Bulk Modulus (GPa) = 46.65680 76.94135 61.79908
# Shear Modulus (GPa) = 9.39322 31.62552 20.50937
#
# Velocity S-wave (km/s) = 2.07316 3.80403 3.06338
# Velocity P-wave (km/s) = 5.20375 7.38239 6.38665
#
# Compressibility (1/GPa) = 0.02143310
#
# Stress axis : x y z
#
# Youngs Moduli (GPa) = 75.22286 126.91934 26.22872
#
# Poissons Ratio (x) = 0.34082 0.32326
# Poissons Ratio (y) = 0.20200 0.10289
# Poissons Ratio (z) = 0.92711 0.49788
#
# Static dielectric constant tensor:
#      x y z
#    x 4.311810 0.000000 0.000000 
#    y 0.000000 4.309450 0.000000 
#    z 0.000000 0.000000 3.363050 
# 
# 
# High freq. dielectric constant tensor:
#      x y z
#    x 1.874760 0.000000 0.000000 
#    y 0.000000 1.893350 0.000000 
#    z 0.000000 0.000000 1.778780 
# 
# From -- ./inp_files/52150.got.cif
#   From: 2010.03.12/outbox.cif.g09.slc.cpg/sg66_27_cif.got.tgz:52150.got - 2010.04.10 21:57:39.
