data_PCOD8277980
_publ_section_title
;
Structure prediction by ZEFSAII (Michael W. Deem and Ramdas Pophale) SiO2 
 PCOD8277980
Probable space group: C M M A
;
_chemical_formula_sum "Si O2"
_cell_formula_units_Z 112
_cell_length_a 26.027054
_cell_length_b 14.405758
_cell_length_c 15.511118
_cell_angle_alpha 90.000000
_cell_angle_beta 90.000000
_cell_angle_gamma 90.000000
_cell_volume 5815.729918
_symmetry_space_group_name_H-M "C M M A"
_symmetry_group_IT_number 67
_symmetry_cell_setting 'orthorhombic'
loop_
_space_group_symop_operation_xyz
x,y,z
-x,1/2-y,z
x,-y,-z
-x,1/2+y,-z
-x,-y,-z
x,1/2+y,-z
-x,y,z
x,1/2-y,z
1/2+x,1/2+y,z
1/2-x,-y,z
1/2+x,1/2-y,-z
1/2-x,y,-z
1/2-x,1/2-y,-z
1/2+x,y,-z
1/2-x,1/2+y,z
1/2+x,-y,z
loop_
_atom_site_type_symbol
_atom_site_label
_atom_site_fract_x
_atom_site_fract_y
_atom_site_fract_z
Si Si1 0.870025 0.358241 0.954935
Si Si2 0.310670 0.406002 0.737524
Si Si3 0.719646 0.351955 0.157372
Si Si4 0.058110 0.454078 0.821438
Si Si5 0.098010 0.145806 0.146191
Si Si6 0.170114 0.750000 0.430241
Si Si7 0.145642 0.100388 0.701089
Si Si8 0.211331 0.250000 0.393892
O O1 0.876137 0.250000 0.933240
O O2 0.812740 0.392342 0.924427
O O3 0.914886 0.413033 0.906013
O O4 0.875008 0.378577 0.055655
O O5 0.266047 0.417430 0.810515
O O6 0.359352 0.358005 0.780464
O O7 0.323194 0.504231 0.694123
O O8 0.291732 0.342413 0.661260
O O9 0.742981 0.250000 0.136597
O O10 0.676304 0.337183 0.230893
O O11 0.056554 0.566475 0.831299
O O12 0.088015 0.420810 0.735290
O O13 0.000000 0.417487 0.814940
O O14 0.073462 0.250000 0.144740
O O15 0.144273 0.842800 0.388955
O O16 0.165040 0.750000 0.534619
O O17 0.231041 0.750000 0.426467
#
# Coordination Sequence:
#
# PCOD8277980 Si02
#       8
#    16  16  16  16  16   8  16   8
#     4   9  20  33  50  79 112 150 189 230 279 317
#     4  11  19  33  54  80 112 150 185 217 266 331
#     4  10  16  30  51  73 111 151 185 224 262 315
#     4  10  22  37  56  80 107 143 190 241 285 325
#     4  10  20  35  53  77 112 149 189 232 274 329
#     4  11  22  38  55  85 117 141 173 222 273 337
#     4  10  20  35  56  77 110 148 178 224 279 329
#     4  11  22  34  58  86 116 144 175 212 267 337
#
# _framework density 19.258116999999999
#
# number of rings (size 3 to 8) (size 9 to 14) (size 15 to 20)
#    0.000    1.857    3.571    0.857    1.000    2.857 
#    0.000    5.000    0.000    5.143    0.000   12.000 
#    0.000    0.000    0.000    0.000    0.000    0.000 
#
# Total GULP energy -693944.796494 kJ/mol
# GULP energy per Si atom -12391.871366 kJ/mol
# Density = 1.921428 g / cm^3
# Si number density = 19.258117 Si / 1000 Ang^3
#
#
#
# Elastic Constant Matrix: (Units=GPa)
#
#
# Indices 1 2 3 4 5 6 
#
# 1 53.8487 30.1977 8.3189 0.0000 0.0000 0.0000
# 2 30.1977 102.1242 26.3743 0.0000 0.0000 0.0000
# 3 8.3189 26.3743 59.7679 0.0000 0.0000 0.0000
# 4 0.0000 0.0000 0.0000 7.2346 0.0000 0.0000
# 5 0.0000 0.0000 0.0000 0.0000 11.5524 0.0000
# 6 0.0000 0.0000 0.0000 0.0000 0.0000 14.6401
#
#
#
# Elastic Compliance Matrix: (Units=1/GPa)
#
#
# Indices 1 2 3 4 5 6 
#
# 1 0.022265 -0.006527 -0.000219 0.000000 0.000000 0.000000
# 2 -0.006527 0.012965 -0.004813 0.000000 0.000000 0.000000
# 3 -0.000219 -0.004813 0.018886 0.000000 0.000000 0.000000
# 4 0.000000 0.000000 0.000000 0.138225 0.000000 0.000000
# 5 0.000000 0.000000 0.000000 0.000000 0.086562 0.000000
# 6 0.000000 0.000000 0.000000 0.000000 0.000000 0.068305
#
#
# Mechanical properties :
#
#
# Convention : Reuss Voigt Hill
#
# Bulk Modulus (GPa) = 32.25988 38.39141 35.32565
# Shear Modulus (GPa) = 13.13518 16.74208 14.93863
#
# Velocity S-wave (km/s) = 2.61446 2.95168 2.78817
# Velocity P-wave (km/s) = 5.08936 5.62094 5.36174
#
# Compressibility (1/GPa) = 0.03099825
#
# Stress axis : x y z
#
# Youngs Moduli (GPa) = 44.91425 77.13117 52.95057
#
# Poissons Ratio (x) = 0.50344 0.01158
# Poissons Ratio (y) = 0.29316 0.25483
# Poissons Ratio (z) = 0.00982 0.37121
#
# Static dielectric constant tensor:
#      x y z
#    x 3.228280 0.000000 0.000000 
#    y 0.000000 3.660470 0.000000 
#    z 0.000000 0.000000 3.523700 
# 
# 
# High freq. dielectric constant tensor:
#      x y z
#    x 1.717760 0.000000 0.000000 
#    y 0.000000 1.766850 0.000000 
#    z 0.000000 0.000000 1.722760 
# 
# From -- ./inp_files/30861.got.cif
#   From: 2010.03.12/outbox.cif.g09.slc.cpg/sg67_16_cif.got.tgz:30861.got - 2010.04.10 22:41:39.
