data_PCOD8277712
_publ_section_title
;
Structure prediction by ZEFSAII (Michael W. Deem and Ramdas Pophale) SiO2 
 PCOD8277712
Probable space group: C C C M
;
_chemical_formula_sum "Si O2"
_cell_formula_units_Z 84
_cell_length_a 19.965933
_cell_length_b 11.429616
_cell_length_c 18.678515
_cell_angle_alpha 90.000000
_cell_angle_beta 90.000000
_cell_angle_gamma 90.000000
_cell_volume 4262.492174
_symmetry_space_group_name_H-M "C C C M"
_symmetry_group_IT_number 66
_symmetry_cell_setting 'orthorhombic'
loop_
_space_group_symop_operation_xyz
x,y,z
-x,-y,z
x,-y,1/2-z
-x,y,1/2-z
-x,-y,-z
x,y,-z
-x,y,1/2+z
x,-y,1/2+z
1/2+x,1/2+y,z
1/2-x,1/2-y,z
1/2+x,1/2-y,1/2-z
1/2-x,1/2+y,1/2-z
1/2-x,1/2-y,-z
1/2+x,1/2+y,-z
1/2-x,1/2+y,1/2+z
1/2+x,1/2-y,1/2+z
loop_
_atom_site_type_symbol
_atom_site_label
_atom_site_fract_x
_atom_site_fract_y
_atom_site_fract_z
Si Si1 0.500000 0.500000 0.250000
Si Si2 0.091672 0.829198 0.331583
Si Si3 0.477368 0.363988 0.580727
Si Si4 0.279942 0.621643 0.418982
Si Si5 0.273066 0.934945 0.821858
Si Si6 0.641905 0.282888 0.816710
O O1 0.548398 0.434228 0.302064
O O2 0.154267 0.883226 0.371868
O O3 0.112457 0.751625 0.262900
O O4 0.038628 0.778593 0.390321
O O5 0.500000 0.500000 0.580406
O O6 0.459638 0.325010 0.500000
O O7 0.412924 0.337575 0.630469
O O8 0.296906 0.585531 0.500000
O O9 0.250000 0.750000 0.414867
O O10 0.228148 0.527966 0.386704
O O11 0.327957 0.838797 0.845655
O O12 0.200869 0.877162 0.807600
O O13 0.296227 0.000000 0.750000
#
# Coordination Sequence:
#
# PCOD8277712 Si02
#       6
#     4  16  16  16  16  16
#     4  12  20  32  62  88 122 148 194 258 312 358
#     4  12  19  36  57  90 120 158 201 253 306 368
#     4  11  22  35  55  89 128 163 201 255 322 378
#     4  11  24  41  64  91 125 169 210 253 311 382
#     4  11  22  39  61  91 124 164 207 256 307 375
#     4  11  23  36  62  92 126 163 202 256 321 372
#
# _framework density 19.706779999999998
#
# number of rings (size 3 to 8) (size 9 to 14) (size 15 to 20)
#    0.000    0.762    4.762    4.000    0.000    3.048 
#    0.000    1.905    0.000    8.000    0.000    8.000 
#    0.000    0.000    0.000    0.000    0.000    0.000 
#
# Total GULP energy -520326.509280 kJ/mol
# GULP energy per Si atom -12388.726411 kJ/mol
# Density = 1.966193 g / cm^3
# Si number density = 19.706780 Si / 1000 Ang^3
#
#
#
# Elastic Constant Matrix: (Units=GPa)
#
#
# Indices 1 2 3 4 5 6 
#
# 1 101.6715 39.3196 49.6120 0.0000 0.0000 0.0000
# 2 39.3196 80.2676 43.1847 0.0000 0.0000 0.0000
# 3 49.6120 43.1847 165.7482 0.0000 0.0000 0.0000
# 4 0.0000 0.0000 0.0000 41.2945 0.0000 0.0000
# 5 0.0000 0.0000 0.0000 0.0000 21.3808 0.0000
# 6 0.0000 0.0000 0.0000 0.0000 0.0000 24.0525
#
#
#
# Elastic Compliance Matrix: (Units=1/GPa)
#
#
# Indices 1 2 3 4 5 6 
#
# 1 0.013033 -0.004984 -0.002602 0.000000 0.000000 0.000000
# 2 -0.004984 0.016395 -0.002780 0.000000 0.000000 0.000000
# 3 -0.002602 -0.002780 0.007537 0.000000 0.000000 0.000000
# 4 0.000000 0.000000 0.000000 0.024216 0.000000 0.000000
# 5 0.000000 0.000000 0.000000 0.000000 0.046771 0.000000
# 6 0.000000 0.000000 0.000000 0.000000 0.000000 0.041576
#
#
# Mechanical properties :
#
#
# Convention : Reuss Voigt Hill
#
# Bulk Modulus (GPa) = 61.60677 67.99109 64.79893
# Shear Modulus (GPa) = 28.46221 31.71697 30.08959
#
# Velocity S-wave (km/s) = 3.80450 4.01614 3.91175
# Velocity P-wave (km/s) = 7.11537 7.48880 7.30447
#
# Compressibility (1/GPa) = 0.01623198
#
# Stress axis : x y z
#
# Youngs Moduli (GPa) = 76.72808 60.99251 132.68756
#
# Poissons Ratio (x) = 0.30400 0.34532
# Poissons Ratio (y) = 0.38243 0.36885
# Poissons Ratio (z) = 0.19968 0.16955
#
# Static dielectric constant tensor:
#      x y z
#    x 5.410220 0.000000 0.000000 
#    y 0.000000 3.301500 0.000000 
#    z 0.000000 0.000000 3.979390 
# 
# 
# High freq. dielectric constant tensor:
#      x y z
#    x 1.774720 0.000000 0.000000 
#    y 0.000000 1.726830 0.000000 
#    z 0.000000 0.000000 1.790560 
# 
# From -- ./inp_files/51799.got.cif
#   From: 2010.03.12/outbox.cif.g09.slc.cpg/sg66_26_cif.got.tgz:51799.got - 2010.04.10 21:57:39.
