data_PCOD8277686
_publ_section_title
;
Structure prediction by ZEFSAII (Michael W. Deem and Ramdas Pophale) SiO2 
 PCOD8277686
Probable space group: C C C M
;
_chemical_formula_sum "Si O2"
_cell_formula_units_Z 96
_cell_length_a 15.377568
_cell_length_b 11.598798
_cell_length_c 26.246244
_cell_angle_alpha 90.000000
_cell_angle_beta 90.000000
_cell_angle_gamma 90.000000
_cell_volume 4681.314330
_symmetry_space_group_name_H-M "C C C M"
_symmetry_group_IT_number 66
_symmetry_cell_setting 'orthorhombic'
loop_
_space_group_symop_operation_xyz
x,y,z
-x,-y,z
x,-y,1/2-z
-x,y,1/2-z
-x,-y,-z
x,y,-z
-x,y,1/2+z
x,-y,1/2+z
1/2+x,1/2+y,z
1/2-x,1/2-y,z
1/2+x,1/2-y,1/2-z
1/2-x,1/2+y,1/2-z
1/2-x,1/2-y,-z
1/2+x,1/2+y,-z
1/2-x,1/2+y,1/2+z
1/2+x,1/2-y,1/2+z
loop_
_atom_site_type_symbol
_atom_site_label
_atom_site_fract_x
_atom_site_fract_y
_atom_site_fract_z
Si Si1 0.282310 0.925770 0.391956
Si Si2 0.982015 0.308607 0.000000
Si Si3 0.626941 0.715227 0.143359
Si Si4 0.358336 0.024360 0.000000
Si Si5 0.800949 0.140051 0.146852
Si Si6 0.970711 0.876607 0.413197
Si Si7 0.901093 0.136614 0.249122
O O1 0.363921 0.851850 0.369333
O O2 0.195872 0.848074 0.393180
O O3 0.299676 0.968241 0.449478
O O4 0.266725 0.033209 0.353380
O O5 0.905596 0.401500 0.000000
O O6 0.974670 0.227452 0.048156
O O7 0.074901 0.369829 0.000000
O O8 0.531737 0.662256 0.133754
O O9 0.648935 0.689796 0.202286
O O10 0.750000 0.250000 0.126228
O O11 0.873925 0.105295 0.106376
O O12 0.844571 0.173518 0.200503
O O13 0.000000 0.000000 0.436484
O O14 0.000000 0.185386 0.250000
O O15 0.903054 0.000000 0.250000
#
# Coordination Sequence:
#
# PCOD8277686 Si02
#       7
#    16   8  16   8  16  16  16
#     4  11  24  43  66  99 137 174 227 288 332 402
#     4  11  25  42  69  96 126 189 234 272 341 424
#     4  11  23  41  68  98 131 175 231 277 333 409
#     4  11  24  45  66  92 140 186 225 278 356 406
#     4  12  26  41  67 102 140 177 223 284 347 402
#     4  12  22  45  67  98 133 176 231 280 336 400
#     4  11  21  40  69  96 131 181 224 274 335 404
#
# _framework density 20.507061
#
# number of rings (size 3 to 8) (size 9 to 14) (size 15 to 20)
#    0.000    0.667    6.667    1.250    2.333    2.667 
#    0.000    1.667    0.000    1.000    0.000    0.000 
#    0.000    0.000    0.000    0.000    0.000    0.000 
#
# Total GULP energy -595202.950699 kJ/mol
# GULP energy per Si atom -12400.061473 kJ/mol
# Density = 2.046039 g / cm^3
# Si number density = 20.507061 Si / 1000 Ang^3
#
#
#
# Elastic Constant Matrix: (Units=GPa)
#
#
# Indices 1 2 3 4 5 6 
#
# 1 84.7538 44.4271 31.6384 0.0000 0.0000 0.0000
# 2 44.4271 138.3585 42.6101 0.0000 0.0000 0.0000
# 3 31.6384 42.6101 126.6739 0.0000 0.0000 0.0000
# 4 0.0000 0.0000 0.0000 31.7899 0.0000 0.0000
# 5 0.0000 0.0000 0.0000 0.0000 29.6414 0.0000
# 6 0.0000 0.0000 0.0000 0.0000 0.0000 27.1382
#
#
#
# Elastic Compliance Matrix: (Units=1/GPa)
#
#
# Indices 1 2 3 4 5 6 
#
# 1 0.014782 -0.004027 -0.002338 0.000000 0.000000 0.000000
# 2 -0.004027 0.009160 -0.002075 0.000000 0.000000 0.000000
# 3 -0.002338 -0.002075 0.009176 0.000000 0.000000 0.000000
# 4 0.000000 0.000000 0.000000 0.031456 0.000000 0.000000
# 5 0.000000 0.000000 0.000000 0.000000 0.033737 0.000000
# 6 0.000000 0.000000 0.000000 0.000000 0.000000 0.036848
#
#
# Mechanical properties :
#
#
# Convention : Reuss Voigt Hill
#
# Bulk Modulus (GPa) = 61.58054 65.23746 63.40900
# Shear Modulus (GPa) = 31.75569 33.12127 32.43848
#
# Velocity S-wave (km/s) = 3.93940 4.02321 3.98152
# Velocity P-wave (km/s) = 7.12643 7.31183 7.21972
#
# Compressibility (1/GPa) = 0.01623890
#
# Stress axis : x y z
#
# Youngs Moduli (GPa) = 67.64878 109.17342 108.97710
#
# Poissons Ratio (x) = 0.43961 0.25474
# Poissons Ratio (y) = 0.27240 0.22617
# Poissons Ratio (z) = 0.15813 0.22658
#
# Static dielectric constant tensor:
#      x y z
#    x 3.826990 0.000000 0.000000 
#    y 0.000000 3.843100 0.000000 
#    z 0.000000 0.000000 3.742130 
# 
# 
# High freq. dielectric constant tensor:
#      x y z
#    x 1.800710 0.000000 0.000000 
#    y 0.000000 1.807300 0.000000 
#    z 0.000000 0.000000 1.797130 
# 
# From -- ./inp_files/58826.got.cif
#   From: 2010.03.12/outbox.cif.g09.slc.cpg/sg66_30_cif.got.tgz:58826.got - 2010.04.10 21:57:39.
