data_PCOD8277766
_publ_section_title
;
Structure prediction by ZEFSAII (Michael W. Deem and Ramdas Pophale) SiO2 
 PCOD8277766
Probable space group: C C C M
;
_chemical_formula_sum "Si O2"
_cell_formula_units_Z 80
_cell_length_a 11.989386
_cell_length_b 21.206594
_cell_length_c 14.575153
_cell_angle_alpha 90.000000
_cell_angle_beta 90.000000
_cell_angle_gamma 90.000000
_cell_volume 3705.791552
_symmetry_space_group_name_H-M "C C C M"
_symmetry_group_IT_number 66
_symmetry_cell_setting 'orthorhombic'
loop_
_space_group_symop_operation_xyz
x,y,z
-x,-y,z
x,-y,1/2-z
-x,y,1/2-z
-x,-y,-z
x,y,-z
-x,y,1/2+z
x,-y,1/2+z
1/2+x,1/2+y,z
1/2-x,1/2-y,z
1/2+x,1/2-y,1/2-z
1/2-x,1/2+y,1/2-z
1/2-x,1/2-y,-z
1/2+x,1/2+y,-z
1/2-x,1/2+y,1/2+z
1/2+x,1/2-y,1/2+z
loop_
_atom_site_type_symbol
_atom_site_label
_atom_site_fract_x
_atom_site_fract_y
_atom_site_fract_z
Si Si1 0.727796 0.095272 0.602666
Si Si2 0.009625 0.358602 0.643233
Si Si3 0.380634 0.381291 0.731667
Si Si4 0.374589 0.268362 0.602064
Si Si5 0.791652 0.548603 0.394559
O O1 0.779711 0.097473 0.500000
O O2 0.611007 0.131187 0.600025
O O3 0.814049 0.128293 0.672704
O O4 0.700128 0.024185 0.634793
O O5 0.053074 0.294620 0.599160
O O6 0.090760 0.417334 0.622557
O O7 0.000000 0.349174 0.750000
O O8 0.500000 0.415007 0.750000
O O9 0.413066 0.315840 0.681582
O O10 0.307478 0.422334 0.663715
O O11 0.380631 0.299218 0.500000
O O12 0.250000 0.250000 0.627805
O O13 0.757984 0.555638 0.500000
#
# Coordination Sequence:
#
# PCOD8277766 Si02
#       5
#    16  16  16  16  16
#     4  11  25  43  67 103 139 174 224 292 356 407
#     4  12  22  40  71 104 140 174 220 278 357 420
#     4  12  26  43  65  94 136 186 240 282 340 405
#     4  11  22  41  69  99 134 178 230 282 335 411
#     4  11  23  42  69  99 135 179 228 283 349 422
#
# _framework density 21.58783
#
# number of rings (size 3 to 8) (size 9 to 14) (size 15 to 20)
#    0.000    0.600    4.000    4.200    0.000    5.600 
#    0.000    2.000    0.000    4.200    0.000    0.000 
#    0.000    0.000    0.000    0.000    0.000    0.000 
#
# Total GULP energy -496083.428660 kJ/mol
# GULP energy per Si atom -12402.085716 kJ/mol
# Density = 2.153870 g / cm^3
# Si number density = 21.587830 Si / 1000 Ang^3
#
#
#
# Elastic Constant Matrix: (Units=GPa)
#
#
# Indices 1 2 3 4 5 6 
#
# 1 151.9576 34.2776 43.2980 0.0000 0.0000 0.0000
# 2 34.2776 90.4947 24.2058 0.0000 0.0000 0.0000
# 3 43.2980 24.2058 119.7768 0.0000 0.0000 0.0000
# 4 0.0000 0.0000 0.0000 31.2468 0.0000 0.0000
# 5 0.0000 0.0000 0.0000 0.0000 8.9817 0.0000
# 6 0.0000 0.0000 0.0000 0.0000 0.0000 13.4077
#
#
#
# Elastic Compliance Matrix: (Units=1/GPa)
#
#
# Indices 1 2 3 4 5 6 
#
# 1 0.007770 -0.002317 -0.002341 0.000000 0.000000 0.000000
# 2 -0.002317 0.012373 -0.001663 0.000000 0.000000 0.000000
# 3 -0.002341 -0.001663 0.009531 0.000000 0.000000 0.000000
# 4 0.000000 0.000000 0.000000 0.032003 0.000000 0.000000
# 5 0.000000 0.000000 0.000000 0.000000 0.111337 0.000000
# 6 0.000000 0.000000 0.000000 0.000000 0.000000 0.074584
#
#
# Mechanical properties :
#
#
# Convention : Reuss Voigt Hill
#
# Bulk Modulus (GPa) = 58.70951 62.86577 60.78764
# Shear Modulus (GPa) = 18.80280 28.09043 23.44662
#
# Velocity S-wave (km/s) = 2.95446 3.61115 3.29918
# Velocity P-wave (km/s) = 6.23643 6.82432 6.53699
#
# Compressibility (1/GPa) = 0.01703302
#
# Stress axis : x y z
#
# Youngs Moduli (GPa) = 128.69331 80.82209 104.92068
#
# Poissons Ratio (x) = 0.18728 0.24558
# Poissons Ratio (y) = 0.29821 0.17446
# Poissons Ratio (z) = 0.30122 0.13439
#
# Static dielectric constant tensor:
#      x y z
#    x 5.149110 0.000000 0.000000 
#    y 0.000000 4.290820 0.000000 
#    z 0.000000 0.000000 4.207840 
# 
# 
# High freq. dielectric constant tensor:
#      x y z
#    x 1.845650 0.000000 0.000000 
#    y 0.000000 1.838890 0.000000 
#    z 0.000000 0.000000 1.873970 
# 
# From -- ./inp_files/26364.got.cif
#   From: 2010.03.12/outbox.cif.g09.slc.cpg/sg66_14_cif.got.tgz:26364.got - 2010.04.10 21:57:39.
