data_PCOD8277988
_publ_section_title
;
Structure prediction by ZEFSAII (Michael W. Deem and Ramdas Pophale) SiO2 
 PCOD8277988
Probable space group: C M M A
;
_chemical_formula_sum "Si O2"
_cell_formula_units_Z 104
_cell_length_a 25.196124
_cell_length_b 23.824332
_cell_length_c 8.833150
_cell_angle_alpha 90.000000
_cell_angle_beta 90.000000
_cell_angle_gamma 90.000000
_cell_volume 5302.370554
_symmetry_space_group_name_H-M "C M M A"
_symmetry_group_IT_number 67
_symmetry_cell_setting 'orthorhombic'
loop_
_space_group_symop_operation_xyz
x,y,z
-x,1/2-y,z
x,-y,-z
-x,1/2+y,-z
-x,-y,-z
x,1/2+y,-z
-x,y,z
x,1/2-y,z
1/2+x,1/2+y,z
1/2-x,-y,z
1/2+x,1/2-y,-z
1/2-x,y,-z
1/2-x,1/2-y,-z
1/2+x,y,-z
1/2-x,1/2+y,z
1/2+x,-y,z
loop_
_atom_site_type_symbol
_atom_site_label
_atom_site_fract_x
_atom_site_fract_y
_atom_site_fract_z
Si Si1 0.059830 0.628163 0.180340
Si Si2 0.107760 0.750000 0.834947
Si Si3 0.232114 0.250000 0.171823
Si Si4 0.438523 0.866752 0.176443
Si Si5 0.249372 0.628465 0.180085
Si Si6 0.651859 0.933750 0.321578
Si Si7 0.653054 0.436014 0.324939
Si Si8 0.939731 0.750000 0.149158
O O1 0.096280 0.585700 0.270744
O O2 0.068208 0.692324 0.243427
O O3 0.000000 0.608118 0.210612
O O4 0.072665 0.627072 0.002068
O O5 0.169486 0.750000 0.800340
O O6 0.079900 0.805338 0.766143
O O7 0.102521 0.750000 0.015497
O O8 0.254465 0.307627 0.245169
O O9 0.250000 0.250000 0.000000
O O10 0.500000 0.875761 0.215687
O O11 0.405838 0.913710 0.266863
O O12 0.303320 0.600105 0.234091
O O13 0.198884 0.595292 0.236269
O O14 0.250000 0.629027 0.000000
O O15 0.659294 0.923675 0.498868
O O16 0.657666 0.999006 0.283573
O O17 0.000000 0.750000 0.079252
#
# Coordination Sequence:
#
# PCOD8277988 Si02
#       8
#    16   8   8  16  16  16  16   8
#     4   9  19  36  59  90 117 149 196 244 290 342
#     4  10  16  34  58  87 126 151 188 236 304 355
#     4  10  22  34  59  96 123 147 180 243 300 358
#     4  10  20  36  63  91 119 155 199 246 291 347
#     4  11  23  41  64  90 117 149 193 243 294 351
#     4  11  24  43  57  83 118 159 205 238 293 353
#     4  11  25  40  61  80 118 165 194 243 297 352
#     4   8  16  30  56  86 117 152 185 230 289 350
#
# _framework density 19.613869000000001
#
# number of rings (size 3 to 8) (size 9 to 14) (size 15 to 20)
#    0.000    1.846    1.538    3.462    6.462    5.538 
#    0.000    6.923    0.000    1.846    0.000    0.000 
#    0.000    0.000    0.000    0.000    0.000    0.000 
#
# Total GULP energy -644731.931649 kJ/mol
# GULP energy per Si atom -12398.690993 kJ/mol
# Density = 1.956923 g / cm^3
# Si number density = 19.613869 Si / 1000 Ang^3
#
#
#
# Elastic Constant Matrix: (Units=GPa)
#
#
# Indices 1 2 3 4 5 6 
#
# 1 117.2864 73.2297 38.6425 0.0000 0.0000 0.0000
# 2 73.2297 158.0589 65.8397 0.0000 0.0000 0.0000
# 3 38.6425 65.8397 57.1866 0.0000 0.0000 0.0000
# 4 0.0000 0.0000 0.0000 93.1978 0.0000 0.0000
# 5 0.0000 0.0000 0.0000 0.0000 13.6233 0.0000
# 6 0.0000 0.0000 0.0000 0.0000 0.0000 16.7927
#
#
#
# Elastic Compliance Matrix: (Units=1/GPa)
#
#
# Indices 1 2 3 4 5 6 
#
# 1 0.012325 -0.004306 -0.003371 0.000000 0.000000 0.000000
# 2 -0.004306 0.013662 -0.012819 0.000000 0.000000 0.000000
# 3 -0.003371 -0.012819 0.034523 0.000000 0.000000 0.000000
# 4 0.000000 0.000000 0.000000 0.010730 0.000000 0.000000
# 5 0.000000 0.000000 0.000000 0.000000 0.073404 0.000000
# 6 0.000000 0.000000 0.000000 0.000000 0.000000 0.059550
#
#
# Mechanical properties :
#
#
# Convention : Reuss Voigt Hill
#
# Bulk Modulus (GPa) = 51.23451 76.43954 63.83702
# Shear Modulus (GPa) = 19.86560 35.04408 27.45484
#
# Velocity S-wave (km/s) = 3.18596 4.23152 3.74540
# Velocity P-wave (km/s) = 6.30175 7.93292 7.16391
#
# Compressibility (1/GPa) = 0.01951810
#
# Stress axis : x y z
#
# Youngs Moduli (GPa) = 81.13299 73.19722 28.96630
#
# Poissons Ratio (x) = 0.31522 0.09763
# Poissons Ratio (y) = 0.34939 0.37132
# Poissons Ratio (z) = 0.27346 0.93831
#
# Static dielectric constant tensor:
#      x y z
#    x 3.680620 0.000000 0.000000 
#    y 0.000000 3.982920 0.000000 
#    z 0.000000 0.000000 3.260330 
# 
# 
# High freq. dielectric constant tensor:
#      x y z
#    x 1.778010 0.000000 0.000000 
#    y 0.000000 1.782970 0.000000 
#    z 0.000000 0.000000 1.729490 
# 
# From -- ./inp_files/13839.got.cif
#   From: 2010.03.12/outbox.cif.g09.slc.cpg/sg67_7_cif.got.tgz:13839.got - 2010.04.10 22:41:39.
