data_PCOD8277635
_publ_section_title
;
Structure prediction by ZEFSAII (Michael W. Deem and Ramdas Pophale) SiO2 
 PCOD8277635
Probable space group: C C C M
;
_chemical_formula_sum "Si O2"
_cell_formula_units_Z 96
_cell_length_a 30.060144
_cell_length_b 33.294265
_cell_length_c 8.083110
_cell_angle_alpha 90.000000
_cell_angle_beta 90.000000
_cell_angle_gamma 90.000000
_cell_volume 8089.822217
_symmetry_space_group_name_H-M "C C C M"
_symmetry_group_IT_number 66
_symmetry_cell_setting 'orthorhombic'
loop_
_space_group_symop_operation_xyz
x,y,z
-x,-y,z
x,-y,1/2-z
-x,y,1/2-z
-x,-y,-z
x,y,-z
-x,y,1/2+z
x,-y,1/2+z
1/2+x,1/2+y,z
1/2-x,1/2-y,z
1/2+x,1/2-y,1/2-z
1/2-x,1/2+y,1/2-z
1/2-x,1/2-y,-z
1/2+x,1/2+y,-z
1/2-x,1/2+y,1/2+z
1/2+x,1/2-y,1/2+z
loop_
_atom_site_type_symbol
_atom_site_label
_atom_site_fract_x
_atom_site_fract_y
_atom_site_fract_z
Si Si1 0.315218 0.337987 0.683819
Si Si2 0.680034 0.230540 0.500000
Si Si3 0.548214 0.456829 0.688397
Si Si4 0.367681 0.255110 0.686188
Si Si5 0.731841 0.685899 0.000000
Si Si6 0.596199 0.381353 0.191912
Si Si7 0.049048 0.196666 0.306446
O O1 0.293619 0.345234 0.500000
O O2 0.339096 0.295314 0.679170
O O3 0.351793 0.372136 0.721522
O O4 0.279109 0.339077 0.832129
O O5 0.651128 0.225986 0.669296
O O6 0.703563 0.273525 0.500000
O O7 0.715771 0.194826 0.500000
O O8 0.564767 0.500000 0.750000
O O9 0.500000 0.442839 0.750000
O O10 0.541515 0.463013 0.500000
O O11 0.585244 0.423453 0.723876
O O12 0.366284 0.235323 0.500000
O O13 0.417975 0.266731 0.740055
O O14 0.566204 0.345460 0.272290
O O15 0.585235 0.385440 0.000000
O O16 0.050740 0.190439 0.500000
O O17 0.000000 0.208331 0.250000
#
# Coordination Sequence:
#
# PCOD8277635 Si02
#       7
#    16   8  16  16   8  16  16
#     4   8  15  26  38  50  69  85  98 130 157 188
#     4   9  16  24  36  50  64  90 100 132 154 183
#     4  11  21  31  41  51  65  84 106 134 163 198
#     4   8  15  26  34  46  66  86 107 127 157 190
#     4   9  16  24  36  54  68  77 114 122 150 199
#     4   9  17  29  40  52  67  83 104 129 167 203
#     4   9  17  25  35  50  65  83 107 136 164 196
#
# _framework density 11.866762
#
# number of rings (size 3 to 8) (size 9 to 14) (size 15 to 20)
#    0.000    3.000    0.000    4.500    2.333    2.667 
#    0.000    3.333    0.000    0.000    0.000    0.000 
#    0.000    0.000    0.000    0.000    0.000    0.000 
#
# Total GULP energy -594730.103074 kJ/mol
# GULP energy per Si atom -12390.210481 kJ/mol
# Density = 1.183975 g / cm^3
# Si number density = 11.866762 Si / 1000 Ang^3
#
#
#
# Elastic Constant Matrix: (Units=GPa)
#
#
# Indices 1 2 3 4 5 6 
#
# 1 62.8305 29.8206 41.1550 0.0000 0.0000 0.0000
# 2 29.8206 27.7495 26.5875 0.0000 0.0000 0.0000
# 3 41.1550 26.5875 88.7028 0.0000 0.0000 0.0000
# 4 0.0000 0.0000 0.0000 12.4256 0.0000 0.0000
# 5 0.0000 0.0000 0.0000 0.0000 18.8868 0.0000
# 6 0.0000 0.0000 0.0000 0.0000 0.0000 12.6672
#
#
#
# Elastic Compliance Matrix: (Units=1/GPa)
#
#
# Indices 1 2 3 4 5 6 
#
# 1 0.035361 -0.031257 -0.007037 0.000000 0.000000 0.000000
# 2 -0.031257 0.078186 -0.008933 0.000000 0.000000 0.000000
# 3 -0.007037 -0.008933 0.017216 0.000000 0.000000 0.000000
# 4 0.000000 0.000000 0.000000 0.080479 0.000000 0.000000
# 5 0.000000 0.000000 0.000000 0.000000 0.052947 0.000000
# 6 0.000000 0.000000 0.000000 0.000000 0.000000 0.078944
#
#
# Mechanical properties :
#
#
# Convention : Reuss Voigt Hill
#
# Bulk Modulus (GPa) = 27.54227 41.60100 34.57163
# Shear Modulus (GPa) = 11.11878 14.24391 12.68134
#
# Velocity S-wave (km/s) = 3.06431 3.46832 3.27256
# Velocity P-wave (km/s) = 5.98164 7.15345 6.59363
#
# Compressibility (1/GPa) = 0.03630783
#
# Stress axis : x y z
#
# Youngs Moduli (GPa) = 28.28000 12.79006 58.08522
#
# Poissons Ratio (x) = 0.39978 0.40875
# Poissons Ratio (y) = 0.88396 0.51886
# Poissons Ratio (z) = 0.19901 0.11425
#
# Static dielectric constant tensor:
#      x y z
#    x 2.301310 0.000000 0.000000 
#    y 0.000000 2.935150 0.000000 
#    z 0.000000 0.000000 2.745130 
# 
# 
# High freq. dielectric constant tensor:
#      x y z
#    x 1.425270 0.000000 0.000000 
#    y 0.000000 1.390860 0.000000 
#    z 0.000000 0.000000 1.469080 
# 
# From -- ./inp_files/11829.got.cif
#   From: 2010.03.12/outbox.cif.g09.slc.cpg/sg66_6_cif.got.tgz:11829.got - 2010.04.10 21:57:39.
