data_PCOD8277942
_publ_section_title
;
Structure prediction by ZEFSAII (Michael W. Deem and Ramdas Pophale) SiO2 
 PCOD8277942
Probable space group: C M M A
;
_chemical_formula_sum "Si O2"
_cell_formula_units_Z 80
_cell_length_a 8.696473
_cell_length_b 18.855794
_cell_length_c 26.078718
_cell_angle_alpha 90.000000
_cell_angle_beta 90.000000
_cell_angle_gamma 90.000000
_cell_volume 4276.359580
_symmetry_space_group_name_H-M "C M M A"
_symmetry_group_IT_number 67
_symmetry_cell_setting 'orthorhombic'
loop_
_space_group_symop_operation_xyz
x,y,z
-x,1/2-y,z
x,-y,-z
-x,1/2+y,-z
-x,-y,-z
x,1/2+y,-z
-x,y,z
x,1/2-y,z
1/2+x,1/2+y,z
1/2-x,-y,z
1/2+x,1/2-y,-z
1/2-x,y,-z
1/2-x,1/2-y,-z
1/2+x,y,-z
1/2-x,1/2+y,z
1/2+x,-y,z
loop_
_atom_site_type_symbol
_atom_site_label
_atom_site_fract_x
_atom_site_fract_y
_atom_site_fract_z
Si Si1 0.318368 0.925593 0.444887
Si Si2 0.820482 0.576876 0.263726
Si Si3 0.180217 0.577496 0.151475
Si Si4 0.180450 0.332150 0.641107
Si Si5 0.181905 0.420965 0.050983
O O1 0.500000 0.932790 0.449438
O O2 0.250000 0.905838 0.500000
O O3 0.274073 0.863397 0.406311
O O4 0.250000 0.000000 0.424650
O O5 0.750000 0.500000 0.272577
O O6 0.783904 0.611307 0.207441
O O7 0.760228 0.630978 0.306677
O O8 0.000000 0.565250 0.269082
O O9 0.250000 0.500000 0.154812
O O10 0.262134 0.618352 0.103580
O O11 0.000000 0.573981 0.139900
O O12 0.220968 0.250000 0.645684
O O13 0.000000 0.344900 0.632157
O O14 0.250000 0.500000 0.052803
O O15 0.000000 0.422183 0.047784
O O16 0.250000 0.382511 0.000000
#
# Coordination Sequence:
#
# PCOD8277942 Si02
#       5
#    16  16  16  16  16
#     4  11  22  38  60  84 109 137 172 210 251 298
#     4   9  18  31  49  71  95 128 166 206 249 294
#     4   9  15  24  37  56  82 112 151 193 235 284
#     4  10  21  37  55  77 107 140 173 210 253 300
#     4  10  16  22  32  49  76 111 148 185 232 285
#
# _framework density 18.707501000000001
#
# number of rings (size 3 to 8) (size 9 to 14) (size 15 to 20)
#    0.000    2.200    0.000    7.200    0.000    4.000 
#    0.000    0.000    0.000    0.000    0.000    0.000 
#    0.000    0.800    0.000    1.400    0.000    8.200 
#
# Total GULP energy -495722.476388 kJ/mol
# GULP energy per Si atom -12393.061910 kJ/mol
# Density = 1.866492 g / cm^3
# Si number density = 18.707501 Si / 1000 Ang^3
#
#
#
# Elastic Constant Matrix: (Units=GPa)
#
#
# Indices 1 2 3 4 5 6 
#
# 1 122.2008 34.7697 66.9633 0.0000 0.0000 0.0000
# 2 34.7697 69.7929 65.9554 0.0000 0.0000 0.0000
# 3 66.9633 65.9554 173.7736 0.0000 0.0000 0.0000
# 4 0.0000 0.0000 0.0000 0.2140 0.0000 0.0000
# 5 0.0000 0.0000 0.0000 0.0000 39.5862 0.0000
# 6 0.0000 0.0000 0.0000 0.0000 0.0000 15.5597
#
#
#
# Elastic Compliance Matrix: (Units=1/GPa)
#
#
# Indices 1 2 3 4 5 6 
#
# 1 0.010589 -0.002213 -0.003240 0.000000 0.000000 0.000000
# 2 -0.002213 0.022804 -0.007803 0.000000 0.000000 0.000000
# 3 -0.003240 -0.007803 0.009965 0.000000 0.000000 0.000000
# 4 0.000000 0.000000 0.000000 4.673787 0.000000 0.000000
# 5 0.000000 0.000000 0.000000 0.000000 0.025261 0.000000
# 6 0.000000 0.000000 0.000000 0.000000 0.000000 0.064269
#
#
# Mechanical properties :
#
#
# Convention : Reuss Voigt Hill
#
# Bulk Modulus (GPa) = 59.36191 77.90488 68.63340
# Shear Modulus (GPa) = 1.03331 24.27724 12.65528
#
# Velocity S-wave (km/s) = 0.74401 3.60631 2.60375
# Velocity P-wave (km/s) = 5.70426 7.68600 6.76806
#
# Compressibility (1/GPa) = 0.01684582
#
# Stress axis : x y z
#
# Youngs Moduli (GPa) = 94.44189 43.85199 100.35409
#
# Poissons Ratio (x) = 0.09704 0.32519
# Poissons Ratio (y) = 0.20898 0.78301
# Poissons Ratio (z) = 0.30603 0.34216
#
# Static dielectric constant tensor:
#      x y z
#    x 3.506610 0.000000 0.000000 
#    y 0.000000 2.927890 0.000000 
#    z 0.000000 0.000000 4.887380 
# 
# 
# High freq. dielectric constant tensor:
#      x y z
#    x 1.734090 0.000000 0.000000 
#    y 0.000000 1.655830 0.000000 
#    z 0.000000 0.000000 1.761570 
# 
# From -- ./inp_files/43304.got.cif
#   From: 2010.03.12/outbox.cif.g09.slc.cpg/sg67_22_cif.got.tgz:43304.got - 2010.04.10 22:41:39.
