data_PCOD8277297
_publ_section_title
;
Structure prediction by ZEFSAII (Michael W. Deem and Ramdas Pophale) SiO2 
 PCOD8277297
Probable space group: C C C M
;
_chemical_formula_sum "Si O2"
_cell_formula_units_Z 56
_cell_length_a 9.139705
_cell_length_b 20.833430
_cell_length_c 13.680467
_cell_angle_alpha 90.000000
_cell_angle_beta 90.000000
_cell_angle_gamma 90.000000
_cell_volume 2604.916933
_symmetry_space_group_name_H-M "C C C M"
_symmetry_group_IT_number 66
_symmetry_cell_setting 'orthorhombic'
loop_
_space_group_symop_operation_xyz
x,y,z
-x,-y,z
x,-y,1/2-z
-x,y,1/2-z
-x,-y,-z
x,y,-z
-x,y,1/2+z
x,-y,1/2+z
1/2+x,1/2+y,z
1/2-x,1/2-y,z
1/2+x,1/2-y,1/2-z
1/2-x,1/2+y,1/2-z
1/2-x,1/2-y,-z
1/2+x,1/2+y,-z
1/2-x,1/2+y,1/2+z
1/2+x,1/2-y,1/2+z
loop_
_atom_site_type_symbol
_atom_site_label
_atom_site_fract_x
_atom_site_fract_y
_atom_site_fract_z
Si Si1 0.128773 0.164122 0.388862
Si Si2 0.500000 0.231536 0.750000
Si Si3 0.898721 0.055910 0.390003
Si Si4 0.843524 0.611115 0.761717
O O1 0.173249 0.181124 0.500000
O O2 0.089851 0.228445 0.329978
O O3 0.258654 0.122403 0.340812
O O4 0.981210 0.123134 0.385562
O O5 0.381727 0.183397 0.803220
O O6 0.857081 0.035652 0.500000
O O7 0.749393 0.065247 0.331450
O O8 0.000000 0.000000 0.343435
O O9 0.000000 0.574878 0.750000
#
# Coordination Sequence:
#
# PCOD8277297 Si02
#       4
#    16   8  16  16
#     4  11  22  39  63  92 132 181 220 268 327 388
#     4  10  22  38  61  93 136 168 222 270 320 402
#     4  10  22  42  67  93 127 177 231 272 321 394
#     4  10  23  38  63  95 133 167 217 275 330 386
#
# _framework density 21.497807000000002
#
# number of rings (size 3 to 8) (size 9 to 14) (size 15 to 20)
#    0.857    0.857    2.857    0.857    0.000    6.857 
#    0.000    5.714    0.000    5.143    0.000    0.000 
#    0.000    0.000    0.000    0.000    0.000    0.000 
#
# Total GULP energy -346913.706637 kJ/mol
# GULP energy per Si atom -12389.775237 kJ/mol
# Density = 2.144888 g / cm^3
# Si number density = 21.497807 Si / 1000 Ang^3
#
#
#
# Elastic Constant Matrix: (Units=GPa)
#
#
# Indices 1 2 3 4 5 6 
#
# 1 167.7937 42.1765 81.0532 0.0000 0.0000 0.0000
# 2 42.1765 88.6210 32.6491 0.0000 0.0000 0.0000
# 3 81.0532 32.6491 119.2891 0.0000 0.0000 0.0000
# 4 0.0000 0.0000 0.0000 24.2753 0.0000 0.0000
# 5 0.0000 0.0000 0.0000 0.0000 16.6800 0.0000
# 6 0.0000 0.0000 0.0000 0.0000 0.0000 33.0065
#
#
#
# Elastic Compliance Matrix: (Units=1/GPa)
#
#
# Indices 1 2 3 4 5 6 
#
# 1 0.009285 -0.002329 -0.005671 0.000000 0.000000 0.000000
# 2 -0.002329 0.013134 -0.002012 0.000000 0.000000 0.000000
# 3 -0.005671 -0.002012 0.012787 0.000000 0.000000 0.000000
# 4 0.000000 0.000000 0.000000 0.041194 0.000000 0.000000
# 5 0.000000 0.000000 0.000000 0.000000 0.059952 0.000000
# 6 0.000000 0.000000 0.000000 0.000000 0.000000 0.030297
#
#
# Mechanical properties :
#
#
# Convention : Reuss Voigt Hill
#
# Bulk Modulus (GPa) = 65.87348 76.38457 71.12902
# Shear Modulus (GPa) = 26.07785 29.44737 27.76261
#
# Velocity S-wave (km/s) = 3.48666 3.70508 3.59753
# Velocity P-wave (km/s) = 6.84964 7.34247 7.10033
#
# Compressibility (1/GPa) = 0.01518062
#
# Stress axis : x y z
#
# Youngs Moduli (GPa) = 107.70460 76.13908 78.20469
#
# Poissons Ratio (x) = 0.17736 0.44350
# Poissons Ratio (y) = 0.25089 0.15734
# Poissons Ratio (z) = 0.61080 0.15318
#
# Static dielectric constant tensor:
#      x y z
#    x 3.982510 0.000000 0.000000 
#    y 0.000000 3.837680 0.000000 
#    z 0.000000 0.000000 3.826520 
# 
# 
# High freq. dielectric constant tensor:
#      x y z
#    x 1.849480 0.000000 0.000000 
#    y 0.000000 1.847400 0.000000 
#    z 0.000000 0.000000 1.819950 
# 
# From -- ./inp_files/23841.got.cif
#   From: 2010.03.12/outbox.cif.g09.slc.cpg/sg66_12_cif.got.tgz:23841.got - 2010.04.10 21:57:39.
