data_PCOD8277237
_publ_section_title
;
Structure prediction by ZEFSAII (Michael W. Deem and Ramdas Pophale) SiO2 
 PCOD8277237
Probable space group: C C C M
;
_chemical_formula_sum "Si O2"
_cell_formula_units_Z 72
_cell_length_a 10.478309
_cell_length_b 13.861358
_cell_length_c 24.705593
_cell_angle_alpha 90.000000
_cell_angle_beta 90.000000
_cell_angle_gamma 90.000000
_cell_volume 3588.329077
_symmetry_space_group_name_H-M "C C C M"
_symmetry_group_IT_number 66
_symmetry_cell_setting 'orthorhombic'
loop_
_space_group_symop_operation_xyz
x,y,z
-x,-y,z
x,-y,1/2-z
-x,y,1/2-z
-x,-y,-z
x,y,-z
-x,y,1/2+z
x,-y,1/2+z
1/2+x,1/2+y,z
1/2-x,1/2-y,z
1/2+x,1/2-y,1/2-z
1/2-x,1/2+y,1/2-z
1/2-x,1/2-y,-z
1/2+x,1/2+y,-z
1/2-x,1/2+y,1/2+z
1/2+x,1/2-y,1/2+z
loop_
_atom_site_type_symbol
_atom_site_label
_atom_site_fract_x
_atom_site_fract_y
_atom_site_fract_z
Si Si1 0.351973 0.168793 0.937971
Si Si2 0.695594 0.500000 0.750000
Si Si3 0.354573 0.001558 0.853761
Si Si4 0.626148 0.793046 0.395900
Si Si5 0.117337 0.796032 0.217786
O O1 0.250000 0.250000 0.920602
O O2 0.325377 0.075697 0.901940
O O3 0.499294 0.203171 0.932174
O O4 0.329965 0.139092 0.000000
O O5 0.778832 0.534316 0.800963
O O6 0.611733 0.410153 0.770061
O O7 0.500000 0.000000 0.836118
O O8 0.321350 0.895091 0.874202
O O9 0.750000 0.750000 0.427991
O O10 0.595066 0.723806 0.345319
O O11 0.250000 0.750000 0.238419
O O12 0.000000 0.746680 0.250000
#
# Coordination Sequence:
#
# PCOD8277237 Si02
#       5
#    16   8  16  16  16
#     4  10  24  44  68  95 123 165 219 271 324 378
#     4  12  22  38  60  96 133 174 203 266 315 398
#     4  10  22  37  64  93 128 166 214 259 316 379
#     4  10  21  42  60  93 126 160 214 263 316 382
#     4  11  25  39  59  92 131 171 215 252 317 381
#
# _framework density 20.065048999999998
#
# number of rings (size 3 to 8) (size 9 to 14) (size 15 to 20)
#    0.000    1.556    4.444    0.667    9.333    4.444 
#    0.000    1.111    0.000    2.667    0.000    0.000 
#    0.000    0.000    0.000    0.000    0.000    0.000 
#
# Total GULP energy -446262.391905 kJ/mol
# GULP energy per Si atom -12396.177553 kJ/mol
# Density = 2.001938 g / cm^3
# Si number density = 20.065049 Si / 1000 Ang^3
#
#
#
# Elastic Constant Matrix: (Units=GPa)
#
#
# Indices 1 2 3 4 5 6 
#
# 1 81.4817 18.5453 33.3099 0.0000 0.0000 0.0000
# 2 18.5453 106.5760 39.9451 0.0000 0.0000 0.0000
# 3 33.3099 39.9451 94.7256 0.0000 0.0000 0.0000
# 4 0.0000 0.0000 0.0000 25.0316 0.0000 0.0000
# 5 0.0000 0.0000 0.0000 0.0000 23.0126 0.0000
# 6 0.0000 0.0000 0.0000 0.0000 0.0000 29.4389
#
#
#
# Elastic Compliance Matrix: (Units=1/GPa)
#
#
# Indices 1 2 3 4 5 6 
#
# 1 0.014380 -0.000721 -0.004753 0.000000 0.000000 0.000000
# 2 -0.000721 0.011181 -0.004461 0.000000 0.000000 0.000000
# 3 -0.004753 -0.004461 0.014109 0.000000 0.000000 0.000000
# 4 0.000000 0.000000 0.000000 0.039949 0.000000 0.000000
# 5 0.000000 0.000000 0.000000 0.000000 0.043454 0.000000
# 6 0.000000 0.000000 0.000000 0.000000 0.000000 0.033969
#
#
# Mechanical properties :
#
#
# Convention : Reuss Voigt Hill
#
# Bulk Modulus (GPa) = 50.50496 51.82044 51.16270
# Shear Modulus (GPa) = 27.24627 28.22883 27.73755
#
# Velocity S-wave (km/s) = 3.68896 3.75489 3.72207
# Velocity P-wave (km/s) = 6.58558 6.68440 6.63517
#
# Compressibility (1/GPa) = 0.01980004
#
# Stress axis : x y z
#
# Youngs Moduli (GPa) = 69.54290 89.44132 70.87538
#
# Poissons Ratio (x) = 0.06448 0.33684
# Poissons Ratio (y) = 0.05014 0.31619
# Poissons Ratio (z) = 0.33050 0.39902
#
# Static dielectric constant tensor:
#      x y z
#    x 3.838720 0.000000 0.000000 
#    y 0.000000 4.703870 0.000000 
#    z 0.000000 0.000000 3.414300 
# 
# 
# High freq. dielectric constant tensor:
#      x y z
#    x 1.794310 0.000000 0.000000 
#    y 0.000000 1.788700 0.000000 
#    z 0.000000 0.000000 1.767310 
# 
# From -- ./inp_files/63377.got.cif
#   From: 2010.03.12/outbox.cif.g09.slc.cpg/sg66_32_cif.got.tgz:63377.got - 2010.04.10 21:57:39.
