data_PCOD8277692
_publ_section_title
;
Structure prediction by ZEFSAII (Michael W. Deem and Ramdas Pophale) SiO2 
 PCOD8277692
Probable space group: C C C M
;
_chemical_formula_sum "Si O2"
_cell_formula_units_Z 60
_cell_length_a 7.728538
_cell_length_b 23.402761
_cell_length_c 16.046605
_cell_angle_alpha 90.000000
_cell_angle_beta 90.000000
_cell_angle_gamma 90.000000
_cell_volume 2902.335449
_symmetry_space_group_name_H-M "C C C M"
_symmetry_group_IT_number 66
_symmetry_cell_setting 'orthorhombic'
loop_
_space_group_symop_operation_xyz
x,y,z
-x,-y,z
x,-y,1/2-z
-x,y,1/2-z
-x,-y,-z
x,y,-z
-x,y,1/2+z
x,-y,1/2+z
1/2+x,1/2+y,z
1/2-x,1/2-y,z
1/2+x,1/2-y,1/2-z
1/2-x,1/2+y,1/2-z
1/2-x,1/2-y,-z
1/2+x,1/2+y,-z
1/2-x,1/2+y,1/2+z
1/2+x,1/2-y,1/2+z
loop_
_atom_site_type_symbol
_atom_site_label
_atom_site_fract_x
_atom_site_fract_y
_atom_site_fract_z
Si Si1 0.809418 0.018045 0.000000
Si Si2 0.118051 0.400119 0.000000
Si Si3 0.500000 0.000000 0.250000
Si Si4 0.117157 0.801240 0.832245
Si Si5 0.337306 0.090934 0.365115
Si Si6 0.887803 0.198545 0.500000
O O1 0.796678 0.059253 0.077395
O O2 0.670353 0.966804 0.000000
O O3 0.000000 0.000000 0.000000
O O4 0.286220 0.361083 0.000000
O O5 0.005468 0.387530 0.082932
O O6 0.620895 0.957394 0.299427
O O7 0.250000 0.750000 0.835549
O O8 0.236752 0.857018 0.822782
O O9 0.000000 0.796678 0.750000
O O10 0.004621 0.799523 0.916963
O O11 0.750000 0.250000 0.500000
#
# Coordination Sequence:
#
# PCOD8277692 Si02
#       6
#     8   8   4  16  16   8
#     4  11  21  41  65  97 133 178 223 278 341 412
#     4  11  21  43  69  97 133 182 225 284 347 407
#     4  12  24  38  70  96 136 182 218 286 340 402
#     4  12  28  47  70 104 138 183 233 290 345 413
#     4  11  24  42  66  99 136 178 233 279 347 408
#     4  12  25  46  73 101 134 185 229 288 351 410
#
# _framework density 20.673007999999999
#
# number of rings (size 3 to 8) (size 9 to 14) (size 15 to 20)
#    0.000    0.533    2.667    6.800    5.600    2.133 
#    0.000    0.000    0.000    0.000    0.000    0.000 
#    0.000    0.000    0.000    0.000    0.000    0.000 
#
# Total GULP energy -371867.903690 kJ/mol
# GULP energy per Si atom -12395.596790 kJ/mol
# Density = 2.062596 g / cm^3
# Si number density = 20.673008 Si / 1000 Ang^3
#
#
#
# Elastic Constant Matrix: (Units=GPa)
#
#
# Indices 1 2 3 4 5 6 
#
# 1 145.9324 75.1207 75.9815 0.0000 0.0000 0.0000
# 2 75.1207 155.3629 55.4821 0.0000 0.0000 0.0000
# 3 75.9815 55.4821 158.0174 0.0000 0.0000 0.0000
# 4 0.0000 0.0000 0.0000 24.1857 0.0000 0.0000
# 5 0.0000 0.0000 0.0000 0.0000 7.8348 0.0000
# 6 0.0000 0.0000 0.0000 0.0000 0.0000 53.1084
#
#
#
# Elastic Compliance Matrix: (Units=1/GPa)
#
#
# Indices 1 2 3 4 5 6 
#
# 1 0.010855 -0.003870 -0.003861 0.000000 0.000000 0.000000
# 2 -0.003870 0.008739 -0.001208 0.000000 0.000000 0.000000
# 3 -0.003861 -0.001208 0.008609 0.000000 0.000000 0.000000
# 4 0.000000 0.000000 0.000000 0.041347 0.000000 0.000000
# 5 0.000000 0.000000 0.000000 0.000000 0.127635 0.000000
# 6 0.000000 0.000000 0.000000 0.000000 0.000000 0.018829
#
#
# Mechanical properties :
#
#
# Convention : Reuss Voigt Hill
#
# Bulk Modulus (GPa) = 96.83996 96.94237 96.89116
# Shear Modulus (GPa) = 21.06757 33.87433 27.47095
#
# Velocity S-wave (km/s) = 3.19578 4.05233 3.64927
# Velocity P-wave (km/s) = 7.78220 8.30001 8.04527
#
# Compressibility (1/GPa) = 0.01032632
#
# Stress axis : x y z
#
# Youngs Moduli (GPa) = 92.12733 114.43143 116.16038
#
# Poissons Ratio (x) = 0.44281 0.44845
# Poissons Ratio (y) = 0.35650 0.14028
# Poissons Ratio (z) = 0.35567 0.13819
#
# Static dielectric constant tensor:
#      x y z
#    x 3.682800 0.000000 0.000000 
#    y 0.000000 3.767670 0.000000 
#    z 0.000000 0.000000 3.781630 
# 
# 
# High freq. dielectric constant tensor:
#      x y z
#    x 1.823980 0.000000 0.000000 
#    y 0.000000 1.831840 0.000000 
#    z 0.000000 0.000000 1.817930 
# 
# From -- ./inp_files/36438.got.cif
#   From: 2010.03.12/outbox.cif.g09.slc.cpg/sg66_19_cif.got.tgz:36438.got - 2010.04.10 21:57:39.
