data_PCOD8277505
_publ_section_title
;
Structure prediction by ZEFSAII (Michael W. Deem and Ramdas Pophale) SiO2 
 PCOD8277505
Probable space group: C C C M
;
_chemical_formula_sum "Si O2"
_cell_formula_units_Z 116
_cell_length_a 9.343001
_cell_length_b 22.288558
_cell_length_c 27.061657
_cell_angle_alpha 90.000000
_cell_angle_beta 90.000000
_cell_angle_gamma 90.000000
_cell_volume 5635.374110
_symmetry_space_group_name_H-M "C C C M"
_symmetry_group_IT_number 66
_symmetry_cell_setting 'orthorhombic'
loop_
_space_group_symop_operation_xyz
x,y,z
-x,-y,z
x,-y,1/2-z
-x,y,1/2-z
-x,-y,-z
x,y,-z
-x,y,1/2+z
x,-y,1/2+z
1/2+x,1/2+y,z
1/2-x,1/2-y,z
1/2+x,1/2-y,1/2-z
1/2-x,1/2+y,1/2-z
1/2-x,1/2-y,-z
1/2+x,1/2+y,-z
1/2-x,1/2+y,1/2+z
1/2+x,1/2-y,1/2+z
loop_
_atom_site_type_symbol
_atom_site_label
_atom_site_fract_x
_atom_site_fract_y
_atom_site_fract_z
Si Si1 0.653338 0.482890 0.441809
Si Si2 0.989199 0.330116 0.104027
Si Si3 0.894791 0.382804 0.209212
Si Si4 0.366573 0.304004 0.286826
Si Si5 0.229755 0.605399 0.944476
Si Si6 0.500000 0.000000 0.250000
Si Si7 0.561728 0.697546 0.395967
Si Si8 0.278043 0.648599 0.441206
O O1 0.500000 0.500000 0.418455
O O2 0.636884 0.475562 0.500000
O O3 0.757943 0.536907 0.426253
O O4 0.711758 0.420019 0.421894
O O5 0.953323 0.358453 0.157089
O O6 0.935682 0.376808 0.061801
O O7 0.904667 0.267721 0.095276
O O8 0.156288 0.320898 0.092607
O O9 0.730120 0.363881 0.219853
O O10 0.000000 0.352840 0.250000
O O11 0.904174 0.455921 0.214674
O O12 0.500000 0.297995 0.250000
O O13 0.250000 0.250000 0.284378
O O14 0.454710 0.308522 0.337526
O O15 0.313123 0.652674 0.911083
O O16 0.287196 0.610810 0.000000
O O17 0.422835 0.681905 0.427607
O O18 0.249343 0.655096 0.500000
#
# Coordination Sequence:
#
# PCOD8277505 Si02
#       8
#    16  16  16  16  16   4  16  16
#     4   9  18  38  63  87 120 173 235 283 334 394
#     4  12  25  41  63  98 139 171 232 282 341 415
#     4  10  23  48  70 101 136 182 224 282 356 419
#     4  12  25  44  74 104 135 176 229 291 356 423
#     4  11  22  39  65  91 131 184 224 281 343 403
#     4   8  24  44  82  96 146 188 222 278 376 424
#     4  12  24  41  64  98 135 178 228 276 338 418
#     4  11  25  42  64  98 139 186 236 287 341 404
#
# _framework density 20.584257999999998
#
# number of rings (size 3 to 8) (size 9 to 14) (size 15 to 20)
#    0.414    0.690    4.138    2.069    1.931    4.966 
#    0.000    2.414    3.034    0.000    0.000    0.000 
#    0.000    0.000    0.000    0.000    0.000    0.000 
#
# Total GULP energy -718614.976635 kJ/mol
# GULP energy per Si atom -12389.913390 kJ/mol
# Density = 2.053741 g / cm^3
# Si number density = 20.584258 Si / 1000 Ang^3
#
#
#
# Elastic Constant Matrix: (Units=GPa)
#
#
# Indices 1 2 3 4 5 6 
#
# 1 69.6446 13.9429 29.2326 0.0000 0.0000 0.0000
# 2 13.9429 130.4376 37.2819 0.0000 0.0000 0.0000
# 3 29.2326 37.2819 92.7073 0.0000 0.0000 0.0000
# 4 0.0000 0.0000 0.0000 28.1078 0.0000 0.0000
# 5 0.0000 0.0000 0.0000 0.0000 33.7853 0.0000
# 6 0.0000 0.0000 0.0000 0.0000 0.0000 32.5454
#
#
#
# Elastic Compliance Matrix: (Units=1/GPa)
#
#
# Indices 1 2 3 4 5 6 
#
# 1 0.016560 -0.000314 -0.005096 0.000000 0.000000 0.000000
# 2 -0.000314 0.008668 -0.003387 0.000000 0.000000 0.000000
# 3 -0.005096 -0.003387 0.013755 0.000000 0.000000 0.000000
# 4 0.000000 0.000000 0.000000 0.035577 0.000000 0.000000
# 5 0.000000 0.000000 0.000000 0.000000 0.029599 0.000000
# 6 0.000000 0.000000 0.000000 0.000000 0.000000 0.030726
#
#
# Mechanical properties :
#
#
# Convention : Reuss Voigt Hill
#
# Bulk Modulus (GPa) = 46.74815 50.41158 48.57987
# Shear Modulus (GPa) = 31.32654 33.04317 32.18486
#
# Velocity S-wave (km/s) = 3.90535 4.01092 3.95849
# Velocity P-wave (km/s) = 6.56472 6.78185 6.67417
#
# Compressibility (1/GPa) = 0.02139122
#
# Stress axis : x y z
#
# Youngs Moduli (GPa) = 60.38551 115.36566 72.69847
#
# Poissons Ratio (x) = 0.03619 0.37045
# Poissons Ratio (y) = 0.01894 0.24622
# Poissons Ratio (z) = 0.30770 0.39073
#
# Static dielectric constant tensor:
#      x y z
#    x 3.766730 0.000000 0.000000 
#    y 0.000000 3.988290 0.000000 
#    z 0.000000 0.000000 3.538720 
# 
# 
# High freq. dielectric constant tensor:
#      x y z
#    x 1.805830 0.000000 0.000000 
#    y 0.000000 1.817780 0.000000 
#    z 0.000000 0.000000 1.789750 
# 
# From -- ./inp_files/62881.got.cif
#   From: 2010.03.12/outbox.cif.g09.slc.cpg/sg66_32_cif.got.tgz:62881.got - 2010.04.10 21:57:39.
