data_PCOD8277904
_publ_section_title
;
Structure prediction by ZEFSAII (Michael W. Deem and Ramdas Pophale) SiO2 
 PCOD8277904
Probable space group: C C C M
;
_chemical_formula_sum "Si O2"
_cell_formula_units_Z 56
_cell_length_a 8.819210
_cell_length_b 16.921293
_cell_length_c 14.733620
_cell_angle_alpha 90.000000
_cell_angle_beta 90.000000
_cell_angle_gamma 90.000000
_cell_volume 2198.734010
_symmetry_space_group_name_H-M "C C C M"
_symmetry_group_IT_number 66
_symmetry_cell_setting 'orthorhombic'
loop_
_space_group_symop_operation_xyz
x,y,z
-x,-y,z
x,-y,1/2-z
-x,y,1/2-z
-x,-y,-z
x,y,-z
-x,y,1/2+z
x,-y,1/2+z
1/2+x,1/2+y,z
1/2-x,1/2-y,z
1/2+x,1/2-y,1/2-z
1/2-x,1/2+y,1/2-z
1/2-x,1/2-y,-z
1/2+x,1/2+y,-z
1/2-x,1/2+y,1/2+z
1/2+x,1/2-y,1/2+z
loop_
_atom_site_type_symbol
_atom_site_label
_atom_site_fract_x
_atom_site_fract_y
_atom_site_fract_z
Si Si1 0.364785 0.554572 0.856597
Si Si2 0.705264 0.048898 0.500000
Si Si3 0.446988 0.167442 0.500000
Si Si4 0.338581 0.827032 0.201058
Si Si5 0.473039 0.658790 0.500000
O O1 0.500000 0.500000 0.818357
O O2 0.243986 0.503672 0.913120
O O3 0.268328 0.596576 0.775069
O O4 0.439134 0.626251 0.912555
O O5 0.534408 0.082912 0.500000
O O6 0.802592 0.128397 0.500000
O O7 0.347427 0.170872 0.408739
O O8 0.546375 0.246912 0.500000
O O9 0.500000 0.833867 0.250000
O O10 0.250000 0.750000 0.236336
#
# Coordination Sequence:
#
# PCOD8277904 Si02
#       5
#    16   8   8  16   8
#     4   9  19  42  72 105 146 192 243 304 378 438
#     4   9  20  34  71 115 148 182 252 304 358 472
#     4  12  22  42  77 107 152 196 248 304 383 415
#     4  12  27  48  79 111 149 196 258 312 370 451
#     4   9  16  35  73 110 135 195 247 292 375 434
#
# _framework density 25.469201000000002
#
# number of rings (size 3 to 8) (size 9 to 14) (size 15 to 20)
#    0.000    1.714    2.857    4.286    0.000    4.571 
#    0.000    2.857    0.000    0.000    0.000    0.000 
#    0.000    0.000    0.000    0.000    0.000    0.000 
#
# Total GULP energy -346964.255954 kJ/mol
# GULP energy per Si atom -12391.580570 kJ/mol
# Density = 2.541123 g / cm^3
# Si number density = 25.469201 Si / 1000 Ang^3
#
#
#
# Elastic Constant Matrix: (Units=GPa)
#
#
# Indices 1 2 3 4 5 6 
#
# 1 160.4217 70.9464 29.9504 0.0000 0.0000 0.0000
# 2 70.9464 181.0882 14.8912 0.0000 0.0000 0.0000
# 3 29.9504 14.8912 81.0076 0.0000 0.0000 0.0000
# 4 0.0000 0.0000 0.0000 3.3415 0.0000 0.0000
# 5 0.0000 0.0000 0.0000 0.0000 26.0850 0.0000
# 6 0.0000 0.0000 0.0000 0.0000 0.0000 65.9104
#
#
#
# Elastic Compliance Matrix: (Units=1/GPa)
#
#
# Indices 1 2 3 4 5 6 
#
# 1 0.007979 -0.002927 -0.002412 0.000000 0.000000 0.000000
# 2 -0.002927 0.006681 -0.000146 0.000000 0.000000 0.000000
# 3 -0.002412 -0.000146 0.013263 0.000000 0.000000 0.000000
# 4 0.000000 0.000000 0.000000 0.299265 0.000000 0.000000
# 5 0.000000 0.000000 0.000000 0.000000 0.038336 0.000000
# 6 0.000000 0.000000 0.000000 0.000000 0.000000 0.015172
#
#
# Mechanical properties :
#
#
# Convention : Reuss Voigt Hill
#
# Bulk Modulus (GPa) = 58.98792 72.67708 65.83250
# Shear Modulus (GPa) = 12.58442 39.51602 26.05022
#
# Velocity S-wave (km/s) = 2.22525 3.94321 3.20161
# Velocity P-wave (km/s) = 5.46014 7.02347 6.29056
#
# Compressibility (1/GPa) = 0.01695262
#
# Stress axis : x y z
#
# Youngs Moduli (GPa) = 125.33671 149.67626 75.39785
#
# Poissons Ratio (x) = 0.43818 0.18184
# Poissons Ratio (y) = 0.36692 0.01099
# Poissons Ratio (z) = 0.30227 0.02182
#
# Static dielectric constant tensor:
#      x y z
#    x 4.606470 0.000000 0.000000 
#    y 0.000000 4.967300 0.000000 
#    z 0.000000 0.000000 4.628560 
# 
# 
# High freq. dielectric constant tensor:
#      x y z
#    x 2.029210 0.000000 0.000000 
#    y 0.000000 2.043820 0.000000 
#    z 0.000000 0.000000 1.985550 
# 
# From -- ./inp_files/36110.got.cif
#   From: 2010.03.12/outbox.cif.g09.slc.cpg/sg66_19_cif.got.tgz:36110.got - 2010.04.10 21:57:39.
