data_PCOD8277785
_publ_section_title
;
Structure prediction by ZEFSAII (Michael W. Deem and Ramdas Pophale) SiO2 
 PCOD8277785
Probable space group: C C C M
;
_chemical_formula_sum "Si O2"
_cell_formula_units_Z 60
_cell_length_a 25.614687
_cell_length_b 6.986119
_cell_length_c 15.583438
_cell_angle_alpha 90.000000
_cell_angle_beta 90.000000
_cell_angle_gamma 90.000000
_cell_volume 2788.613399
_symmetry_space_group_name_H-M "C C C M"
_symmetry_group_IT_number 66
_symmetry_cell_setting 'orthorhombic'
loop_
_space_group_symop_operation_xyz
x,y,z
-x,-y,z
x,-y,1/2-z
-x,y,1/2-z
-x,-y,-z
x,y,-z
-x,y,1/2+z
x,-y,1/2+z
1/2+x,1/2+y,z
1/2-x,1/2-y,z
1/2+x,1/2-y,1/2-z
1/2-x,1/2+y,1/2-z
1/2-x,1/2-y,-z
1/2+x,1/2+y,-z
1/2-x,1/2+y,1/2+z
1/2+x,1/2-y,1/2+z
loop_
_atom_site_type_symbol
_atom_site_label
_atom_site_fract_x
_atom_site_fract_y
_atom_site_fract_z
Si Si1 0.910606 0.311311 0.140696
Si Si2 0.500000 0.000000 0.750000
Si Si3 0.606959 0.883185 0.000000
Si Si4 0.696906 0.631710 0.668012
Si Si5 0.440630 0.479091 0.500000
Si Si6 0.199591 0.126521 0.000000
O O1 0.905342 0.499213 0.084572
O O2 0.854209 0.266974 0.185270
O O3 0.960605 0.354867 0.200708
O O4 0.921122 0.123525 0.085320
O O5 0.665478 0.816532 0.000000
O O6 0.572814 0.697720 0.000000
O O7 0.704377 0.500000 0.750000
O O8 0.750000 0.750000 0.655212
O O9 0.689472 0.505275 0.582553
O O10 0.500000 0.500000 0.500000
O O11 0.250000 0.250000 0.000000
#
# Coordination Sequence:
#
# PCOD8277785 Si02
#       6
#    16   4   8  16   8   8
#     4  11  26  46  68 107 143 188 251 301 374 447
#     4  12  28  42  74 100 152 200 232 322 366 438
#     4  11  22  45  73 100 140 190 238 314 360 433
#     4  12  27  46  72 110 151 193 244 310 369 450
#     4  11  22  44  73 100 138 185 247 298 371 439
#     4  12  23  44  77 105 140 196 238 301 376 437
#
# _framework density 21.516071
#
# number of rings (size 3 to 8) (size 9 to 14) (size 15 to 20)
#    0.000    0.533    2.667    5.200    5.600    4.267 
#    0.000    1.333    0.000    0.000    0.000    0.000 
#    0.000    0.000    0.000    0.000    0.000    0.000 
#
# Total GULP energy -371661.778410 kJ/mol
# GULP energy per Si atom -12388.725947 kJ/mol
# Density = 2.146710 g / cm^3
# Si number density = 21.516071 Si / 1000 Ang^3
#
#
#
# Elastic Constant Matrix: (Units=GPa)
#
#
# Indices 1 2 3 4 5 6 
#
# 1 195.1738 56.8065 31.3005 0.0000 0.0000 0.0000
# 2 56.8065 136.7709 42.5922 0.0000 0.0000 0.0000
# 3 31.3005 42.5922 115.5624 0.0000 0.0000 0.0000
# 4 0.0000 0.0000 0.0000 113.8785 0.0000 0.0000
# 5 0.0000 0.0000 0.0000 0.0000 -1.3375 0.0000
# 6 0.0000 0.0000 0.0000 0.0000 0.0000 59.1445
#
#
#
# Elastic Compliance Matrix: (Units=1/GPa)
#
#
# Indices 1 2 3 4 5 6 
#
# 1 0.005890 -0.002202 -0.000784 0.000000 0.000000 0.000000
# 2 -0.002202 0.009083 -0.002751 0.000000 0.000000 0.000000
# 3 -0.000784 -0.002751 0.009880 0.000000 0.000000 0.000000
# 4 0.000000 0.000000 0.000000 0.008781 0.000000 0.000000
# 5 0.000000 0.000000 0.000000 0.000000 -0.747636 0.000000
# 6 0.000000 0.000000 0.000000 0.000000 0.000000 0.016908
#
#
# Mechanical properties :
#
#
# Convention : Reuss Voigt Hill
#
# Bulk Modulus (GPa) = 74.74737 78.76728 76.75732
# Shear Modulus (GPa) = -7.34042 55.45761 24.05860
#
# Velocity S-wave (km/s) = -1.84905 5.08241 3.34753
# Velocity P-wave (km/s) = 5.50064 8.43382 7.11991
#
# Compressibility (1/GPa) = 0.01337840
#
# Stress axis : x y z
#
# Youngs Moduli (GPa) = 169.76902 110.09583 101.21906
#
# Poissons Ratio (x) = 0.24248 0.07932
# Poissons Ratio (y) = 0.37391 0.27847
# Poissons Ratio (z) = 0.13304 0.30289
#
# Static dielectric constant tensor:
#      x y z
#    x 4.416720 0.000000 0.000000 
#    y 0.000000 4.354750 0.000000 
#    z 0.000000 0.000000 3.238970 
# 
# 
# High freq. dielectric constant tensor:
#      x y z
#    x 1.882380 0.000000 0.000000 
#    y 0.000000 1.861260 0.000000 
#    z 0.000000 0.000000 1.841320 
# 
# From -- ./inp_files/34916.got.cif
#   From: 2010.03.12/outbox.cif.g09.slc.cpg/sg66_18_cif.got.tgz:34916.got - 2010.04.10 21:57:39.
