data_PCOD8277457
_publ_section_title
;
Structure prediction by ZEFSAII (Michael W. Deem and Ramdas Pophale) SiO2 
 PCOD8277457
Probable space group: C C C M
;
_chemical_formula_sum "Si O2"
_cell_formula_units_Z 104
_cell_length_a 9.271668
_cell_length_b 19.465786
_cell_length_c 27.823908
_cell_angle_alpha 90.000000
_cell_angle_beta 90.000000
_cell_angle_gamma 90.000000
_cell_volume 5021.667406
_symmetry_space_group_name_H-M "C C C M"
_symmetry_group_IT_number 66
_symmetry_cell_setting 'orthorhombic'
loop_
_space_group_symop_operation_xyz
x,y,z
-x,-y,z
x,-y,1/2-z
-x,y,1/2-z
-x,-y,-z
x,y,-z
-x,y,1/2+z
x,-y,1/2+z
1/2+x,1/2+y,z
1/2-x,1/2-y,z
1/2+x,1/2-y,1/2-z
1/2-x,1/2+y,1/2-z
1/2-x,1/2-y,-z
1/2+x,1/2+y,-z
1/2-x,1/2+y,1/2+z
1/2+x,1/2-y,1/2+z
loop_
_atom_site_type_symbol
_atom_site_label
_atom_site_fract_x
_atom_site_fract_y
_atom_site_fract_z
Si Si1 0.000000 0.000000 0.094574
Si Si2 0.009159 0.788087 0.556301
Si Si3 0.667571 0.073771 0.690955
Si Si4 0.773963 0.105429 0.411812
Si Si5 0.971318 0.630005 0.554880
Si Si6 0.198352 0.881168 0.885229
Si Si7 0.161608 0.586585 0.797019
O O1 0.116019 0.047605 0.066132
O O2 0.906012 0.054077 0.124427
O O3 0.980459 0.801261 0.500000
O O4 0.878849 0.819888 0.587042
O O5 0.162658 0.820742 0.571777
O O6 0.006689 0.708329 0.569060
O O7 0.759975 0.104837 0.646601
O O8 0.725535 0.097151 0.743488
O O9 0.505597 0.103486 0.693331
O O10 0.677430 0.992251 0.686541
O O11 0.618782 0.088986 0.434676
O O12 0.926034 0.622584 0.500000
O O13 0.841538 0.597548 0.585226
O O14 0.247533 0.862030 0.831326
#
# Coordination Sequence:
#
# PCOD8277457 Si02
#       7
#     8  16  16  16  16  16  16
#     4  10  24  36  54  86 128 150 170 240 316 356
#     4  10  23  41  59  84 118 157 203 251 292 328
#     4   9  17  32  59  89 118 154 193 235 285 351
#     4  11  20  38  62  86 122 153 192 244 297 346
#     4  11  23  40  64  84 104 158 223 245 270 348
#     4  11  20  38  62  86 122 153 192 244 297 346
#     4   9  17  32  59  89 118 154 193 235 285 351
#
# _framework density 20.710252000000001
#
# number of rings (size 3 to 8) (size 9 to 14) (size 15 to 20)
#    0.000    1.846    3.077    2.769    0.000    3.077 
#    0.000   18.462    0.000    5.538    0.000    0.000 
#    0.000    0.000    0.000    0.000    0.000    0.000 
#
# Total GULP energy -644183.311691 kJ/mol
# GULP energy per Si atom -12388.140609 kJ/mol
# Density = 2.066311 g / cm^3
# Si number density = 20.710252 Si / 1000 Ang^3
#
#
#
# Elastic Constant Matrix: (Units=GPa)
#
#
# Indices 1 2 3 4 5 6 
#
# 1 108.0469 21.5849 34.5862 0.0000 0.0000 0.0000
# 2 21.5849 46.7895 33.4289 0.0000 0.0000 0.0000
# 3 34.5862 33.4289 127.1451 0.0000 0.0000 0.0000
# 4 0.0000 0.0000 0.0000 10.1003 0.0000 0.0000
# 5 0.0000 0.0000 0.0000 0.0000 33.9646 0.0000
# 6 0.0000 0.0000 0.0000 0.0000 0.0000 21.0973
#
#
#
# Elastic Compliance Matrix: (Units=1/GPa)
#
#
# Indices 1 2 3 4 5 6 
#
# 1 0.010578 -0.003477 -0.001963 0.000000 0.000000 0.000000
# 2 -0.003477 0.027459 -0.006273 0.000000 0.000000 0.000000
# 3 -0.001963 -0.006273 0.010049 0.000000 0.000000 0.000000
# 4 0.000000 0.000000 0.000000 0.099007 0.000000 0.000000
# 5 0.000000 0.000000 0.000000 0.000000 0.029442 0.000000
# 6 0.000000 0.000000 0.000000 0.000000 0.000000 0.047399
#
#
# Mechanical properties :
#
#
# Convention : Reuss Voigt Hill
#
# Bulk Modulus (GPa) = 40.55601 51.24240 45.89920
# Shear Modulus (GPa) = 19.56326 25.85788 22.71057
#
# Velocity S-wave (km/s) = 3.07680 3.53732 3.31507
# Velocity P-wave (km/s) = 5.67867 6.44048 6.07154
#
# Compressibility (1/GPa) = 0.02465726
#
# Stress axis : x y z
#
# Youngs Moduli (GPa) = 94.53245 36.41848 99.51729
#
# Poissons Ratio (x) = 0.12664 0.19538
# Poissons Ratio (y) = 0.32872 0.62432
# Poissons Ratio (z) = 0.18559 0.22847
#
# Static dielectric constant tensor:
#      x y z
#    x 4.040090 0.000000 0.000000 
#    y 0.000000 3.525040 0.000000 
#    z 0.000000 0.000000 3.797730 
# 
# 
# High freq. dielectric constant tensor:
#      x y z
#    x 1.823010 0.000000 0.000000 
#    y 0.000000 1.777290 0.000000 
#    z 0.000000 0.000000 1.804490 
# 
# From -- ./inp_files/62679.got.cif
#   From: 2010.03.12/outbox.cif.g09.slc.cpg/sg66_32_cif.got.tgz:62679.got - 2010.04.10 21:57:39.
