data_PCOD8277121
_publ_section_title
;
Structure prediction by ZEFSAII (Michael W. Deem and Ramdas Pophale) SiO2 
 PCOD8277121
Probable space group: C C C M
;
_chemical_formula_sum "Si O2"
_cell_formula_units_Z 60
_cell_length_a 27.606455
_cell_length_b 11.548545
_cell_length_c 9.600067
_cell_angle_alpha 90.000000
_cell_angle_beta 90.000000
_cell_angle_gamma 90.000000
_cell_volume 3060.639484
_symmetry_space_group_name_H-M "C C C M"
_symmetry_group_IT_number 66
_symmetry_cell_setting 'orthorhombic'
loop_
_space_group_symop_operation_xyz
x,y,z
-x,-y,z
x,-y,1/2-z
-x,y,1/2-z
-x,-y,-z
x,y,-z
-x,y,1/2+z
x,-y,1/2+z
1/2+x,1/2+y,z
1/2-x,1/2-y,z
1/2+x,1/2-y,1/2-z
1/2-x,1/2+y,1/2-z
1/2-x,1/2-y,-z
1/2+x,1/2+y,-z
1/2-x,1/2+y,1/2+z
1/2+x,1/2-y,1/2+z
loop_
_atom_site_type_symbol
_atom_site_label
_atom_site_fract_x
_atom_site_fract_y
_atom_site_fract_z
Si Si1 0.179421 0.349938 0.500000
Si Si2 0.843063 0.000000 0.250000
Si Si3 0.411980 0.111239 0.343081
Si Si4 0.000000 0.000000 0.250000
Si Si5 0.784965 0.910570 0.500000
Si Si6 0.076989 0.173135 0.157542
O O1 0.146323 0.374708 0.362645
O O2 0.198198 0.220584 0.500000
O O3 0.226937 0.429814 0.500000
O O4 0.875209 0.111055 0.286074
O O5 0.806513 0.975651 0.371165
O O6 0.435526 0.102996 0.500000
O O7 0.434333 0.220796 0.261467
O O8 0.424349 0.000000 0.250000
O O9 0.967011 0.081829 0.346336
O O10 0.085116 0.218686 0.000000
#
# Coordination Sequence:
#
# PCOD8277121 Si02
#       6
#     8   8  16   4   8  16
#     4   9  22  36  57  81 127 167 213 246 306 354
#     4  11  20  35  58  88 122 160 200 261 304 357
#     4  10  21  39  61  86 121 166 204 251 296 365
#     4  10  26  40  70  94 126 144 196 256 314 378
#     4  11  20  36  55  87 124 165 207 262 305 357
#     4  11  22  40  62  93 121 158 199 249 316 369
#
# _framework density 19.603746000000001
#
# number of rings (size 3 to 8) (size 9 to 14) (size 15 to 20)
#    0.800    0.800    4.000    1.200    1.867    2.133 
#    0.000    0.667    0.000    8.000    0.000    0.000 
#    0.000    0.000    0.000    0.000    0.000    0.000 
#
# Total GULP energy -371814.316011 kJ/mol
# GULP energy per Si atom -12393.810534 kJ/mol
# Density = 1.955913 g / cm^3
# Si number density = 19.603746 Si / 1000 Ang^3
#
#
#
# Elastic Constant Matrix: (Units=GPa)
#
#
# Indices 1 2 3 4 5 6 
#
# 1 64.2507 25.7876 23.4111 0.0000 0.0000 0.0000
# 2 25.7876 120.5552 62.8310 0.0000 0.0000 0.0000
# 3 23.4111 62.8310 162.4682 0.0000 0.0000 0.0000
# 4 0.0000 0.0000 0.0000 38.4131 0.0000 0.0000
# 5 0.0000 0.0000 0.0000 0.0000 58.4043 0.0000
# 6 0.0000 0.0000 0.0000 0.0000 0.0000 16.9792
#
#
#
# Elastic Compliance Matrix: (Units=1/GPa)
#
#
# Indices 1 2 3 4 5 6 
#
# 1 0.017251 -0.002999 -0.001326 0.000000 0.000000 0.000000
# 2 -0.002999 0.010910 -0.003787 0.000000 0.000000 0.000000
# 3 -0.001326 -0.003787 0.007811 0.000000 0.000000 0.000000
# 4 0.000000 0.000000 0.000000 0.026033 0.000000 0.000000
# 5 0.000000 0.000000 0.000000 0.000000 0.017122 0.000000
# 6 0.000000 0.000000 0.000000 0.000000 0.000000 0.058896
#
#
# Mechanical properties :
#
#
# Convention : Reuss Voigt Hill
#
# Bulk Modulus (GPa) = 50.63923 63.48151 57.06037
# Shear Modulus (GPa) = 31.08890 38.44227 34.76559
#
# Velocity S-wave (km/s) = 3.98661 4.43308 4.21576
# Velocity P-wave (km/s) = 6.86136 7.65869 7.27096
#
# Compressibility (1/GPa) = 0.01974754
#
# Stress axis : x y z
#
# Youngs Moduli (GPa) = 57.96814 91.65688 128.02919
#
# Poissons Ratio (x) = 0.27488 0.16977
# Poissons Ratio (y) = 0.17385 0.48487
# Poissons Ratio (z) = 0.07687 0.34712
#
# Static dielectric constant tensor:
#      x y z
#    x 3.598790 0.000000 0.000000 
#    y 0.000000 3.462220 0.000000 
#    z 0.000000 0.000000 3.491380 
# 
# 
# High freq. dielectric constant tensor:
#      x y z
#    x 1.754470 0.000000 0.000000 
#    y 0.000000 1.760070 0.000000 
#    z 0.000000 0.000000 1.767050 
# 
# From -- ./inp_files/9847.got.cif
#   From: 2010.03.12/outbox.cif.g09.slc.cpg/sg66_5_cif.got.tgz:9847.got - 2010.04.10 21:57:39.
