data_PCOD8277463
_publ_section_title
;
Structure prediction by ZEFSAII (Michael W. Deem and Ramdas Pophale) SiO2 
 PCOD8277463
Probable space group: C C C M
;
_chemical_formula_sum "Si O2"
_cell_formula_units_Z 96
_cell_length_a 19.226853
_cell_length_b 15.211447
_cell_length_c 15.288310
_cell_angle_alpha 90.000000
_cell_angle_beta 90.000000
_cell_angle_gamma 90.000000
_cell_volume 4471.345354
_symmetry_space_group_name_H-M "C C C M"
_symmetry_group_IT_number 66
_symmetry_cell_setting 'orthorhombic'
loop_
_space_group_symop_operation_xyz
x,y,z
-x,-y,z
x,-y,1/2-z
-x,y,1/2-z
-x,-y,-z
x,y,-z
-x,y,1/2+z
x,-y,1/2+z
1/2+x,1/2+y,z
1/2-x,1/2-y,z
1/2+x,1/2-y,1/2-z
1/2-x,1/2+y,1/2-z
1/2-x,1/2-y,-z
1/2+x,1/2+y,-z
1/2-x,1/2+y,1/2+z
1/2+x,1/2-y,1/2+z
loop_
_atom_site_type_symbol
_atom_site_label
_atom_site_fract_x
_atom_site_fract_y
_atom_site_fract_z
Si Si1 0.304387 0.054275 0.175501
Si Si2 0.827223 0.135202 0.399840
Si Si3 0.070625 0.754019 0.901367
Si Si4 0.674887 0.234498 0.247258
Si Si5 0.065683 0.450828 0.601138
Si Si6 0.475470 0.408626 0.849558
O O1 0.245362 0.081583 0.106271
O O2 0.342074 0.134389 0.227182
O O3 0.263334 0.000000 0.250000
O O4 0.362422 0.989346 0.137351
O O5 0.838877 0.162302 0.500000
O O6 0.824169 0.221700 0.342190
O O7 0.892909 0.082530 0.362144
O O8 0.123555 0.778820 0.823422
O O9 0.052004 0.652602 0.883333
O O10 0.004868 0.820146 0.896037
O O11 0.102353 0.762780 0.000000
O O12 0.750000 0.250000 0.203316
O O13 0.068401 0.473658 0.500000
O O14 0.000000 0.500000 0.645187
O O15 0.500000 0.500000 0.893591
O O16 0.500000 0.404933 0.750000
#
# Coordination Sequence:
#
# PCOD8277463 Si02
#       6
#    16  16  16  16  16  16
#     4  11  23  41  67  97 139 177 225 276 342 411
#     4  11  25  44  70  97 131 178 228 284 341 401
#     4  11  23  43  67  98 136 174 224 280 340 410
#     4  10  23  42  64  97 133 176 224 275 339 410
#     4  10  23  41  66 100 135 175 223 279 341 411
#     4  11  25  44  70  96 129 176 227 287 343 408
#
# _framework density 21.470048999999999
#
# number of rings (size 3 to 8) (size 9 to 14) (size 15 to 20)
#    0.000    1.333    3.333    1.000    4.667    5.667 
#    0.000    0.000    0.000    0.000    0.000    0.000 
#    0.000    0.000    0.000    0.000    0.000    0.000 
#
# Total GULP energy -594677.251642 kJ/mol
# GULP energy per Si atom -12389.109409 kJ/mol
# Density = 2.142118 g / cm^3
# Si number density = 21.470049 Si / 1000 Ang^3
#
#
#
# Elastic Constant Matrix: (Units=GPa)
#
#
# Indices 1 2 3 4 5 6 
#
# 1 130.6197 55.4265 42.5084 0.0000 0.0000 0.0000
# 2 55.4265 144.0183 30.3751 0.0000 0.0000 0.0000
# 3 42.5084 30.3751 116.8712 0.0000 0.0000 0.0000
# 4 0.0000 0.0000 0.0000 20.5834 0.0000 0.0000
# 5 0.0000 0.0000 0.0000 0.0000 -44.5378 0.0000
# 6 0.0000 0.0000 0.0000 0.0000 0.0000 28.1719
#
#
#
# Elastic Compliance Matrix: (Units=1/GPa)
#
#
# Indices 1 2 3 4 5 6 
#
# 1 0.009931 -0.003238 -0.002771 0.000000 0.000000 0.000000
# 2 -0.003238 0.008402 -0.001006 0.000000 0.000000 0.000000
# 3 -0.002771 -0.001006 0.009826 0.000000 0.000000 0.000000
# 4 0.000000 0.000000 0.000000 0.048583 0.000000 0.000000
# 5 0.000000 0.000000 0.000000 0.000000 -0.022453 0.000000
# 6 0.000000 0.000000 0.000000 0.000000 0.000000 0.035496
#
#
# Mechanical properties :
#
#
# Convention : Reuss Voigt Hill
#
# Bulk Modulus (GPa) = 70.77229 72.01435 71.39332
# Shear Modulus (GPa) = 46.07259 18.39010 32.23135
#
# Velocity S-wave (km/s) = 4.63741 2.92986 3.87877
# Velocity P-wave (km/s) = 7.85550 6.71267 7.30647
#
# Compressibility (1/GPa) = 0.01412982
#
# Stress axis : x y z
#
# Youngs Moduli (GPa) = 100.69044 119.02167 101.77422
#
# Poissons Ratio (x) = 0.38537 0.28199
# Poissons Ratio (y) = 0.32602 0.10239
# Poissons Ratio (z) = 0.27899 0.11974
#
# Static dielectric constant tensor:
#      x y z
#    x 4.255220 0.000000 0.000000 
#    y 0.000000 4.082590 0.000000 
#    z 0.000000 0.000000 3.884180 
# 
# 
# High freq. dielectric constant tensor:
#      x y z
#    x 1.838990 0.000000 0.000000 
#    y 0.000000 1.851040 0.000000 
#    z 0.000000 0.000000 1.847520 
# 
# From -- ./inp_files/31184.got.cif
#   From: 2010.03.12/outbox.cif.g09.slc.cpg/sg66_16_cif.got.tgz:31184.got - 2010.04.10 21:57:39.
