data_PCOD8277225
_publ_section_title
;
Structure prediction by ZEFSAII (Michael W. Deem and Ramdas Pophale) SiO2 
 PCOD8277225
Probable space group: C C C M
;
_chemical_formula_sum "Si O2"
_cell_formula_units_Z 92
_cell_length_a 20.293193
_cell_length_b 14.705256
_cell_length_c 15.097122
_cell_angle_alpha 90.000000
_cell_angle_beta 90.000000
_cell_angle_gamma 90.000000
_cell_volume 4505.231789
_symmetry_space_group_name_H-M "C C C M"
_symmetry_group_IT_number 66
_symmetry_cell_setting 'orthorhombic'
loop_
_space_group_symop_operation_xyz
x,y,z
-x,-y,z
x,-y,1/2-z
-x,y,1/2-z
-x,-y,-z
x,y,-z
-x,y,1/2+z
x,-y,1/2+z
1/2+x,1/2+y,z
1/2-x,1/2-y,z
1/2+x,1/2-y,1/2-z
1/2-x,1/2+y,1/2-z
1/2-x,1/2-y,-z
1/2+x,1/2+y,-z
1/2-x,1/2+y,1/2+z
1/2+x,1/2-y,1/2+z
loop_
_atom_site_type_symbol
_atom_site_label
_atom_site_fract_x
_atom_site_fract_y
_atom_site_fract_z
Si Si1 0.000000 0.206654 0.250000
Si Si2 0.500000 0.000000 0.750000
Si Si3 0.209675 0.967748 0.648983
Si Si4 0.149912 0.297320 0.500000
Si Si5 0.289133 0.385544 0.500000
Si Si6 0.598044 0.670244 0.103214
Si Si7 0.406224 0.854134 0.820561
Si Si8 0.307353 0.818542 0.677667
O O1 0.033761 0.154419 0.166577
O O2 0.059494 0.263278 0.288707
O O3 0.545704 0.059934 0.813353
O O4 0.143638 0.914346 0.625727
O O5 0.272338 0.902288 0.625853
O O6 0.209282 0.000000 0.750000
O O7 0.209992 0.055921 0.588611
O O8 0.224058 0.327753 0.500000
O O9 0.149888 0.186574 0.500000
O O10 0.110764 0.342271 0.578957
O O11 0.637614 0.765816 0.119351
O O12 0.576214 0.669109 0.000000
O O13 0.340091 0.865595 0.763079
O O14 0.250000 0.750000 0.710147
#
# Coordination Sequence:
#
# PCOD8277225 Si02
#       8
#     8   4  16   8   8  16  16  16
#     4   9  22  41  65  87 126 172 216 251 328 382
#     4  10  24  42  64  90 128 160 236 272 318 380
#     4  11  23  39  64  95 132 165 210 277 329 386
#     4  11  26  39  65  87 135 172 210 257 330 403
#     4  11  26  40  60 103 129 165 215 258 333 407
#     4  10  21  41  66  94 127 168 221 272 323 389
#     4  10  22  42  61  92 123 174 211 270 313 393
#     4   9  21  36  66  92 129 169 208 259 339 390
#
# _framework density 20.420703
#
# number of rings (size 3 to 8) (size 9 to 14) (size 15 to 20)
#    0.000    1.913    0.870    1.043   15.826    1.391 
#    0.000    0.435    0.000    2.087    0.000    0.000 
#    0.000    0.000    0.000    0.000    0.000    0.000 
#
# Total GULP energy -570153.789604 kJ/mol
# GULP energy per Si atom -12394.647600 kJ/mol
# Density = 2.037422 g / cm^3
# Si number density = 20.420703 Si / 1000 Ang^3
#
#
#
# Elastic Constant Matrix: (Units=GPa)
#
#
# Indices 1 2 3 4 5 6 
#
# 1 102.2935 41.0816 57.9662 0.0000 0.0000 0.0000
# 2 41.0816 114.3396 58.2710 0.0000 0.0000 0.0000
# 3 57.9662 58.2710 163.0785 0.0000 0.0000 0.0000
# 4 0.0000 0.0000 0.0000 47.0187 0.0000 0.0000
# 5 0.0000 0.0000 0.0000 0.0000 6.8978 0.0000
# 6 0.0000 0.0000 0.0000 0.0000 0.0000 47.1908
#
#
#
# Elastic Compliance Matrix: (Units=1/GPa)
#
#
# Indices 1 2 3 4 5 6 
#
# 1 0.012945 -0.002819 -0.003594 0.000000 0.000000 0.000000
# 2 -0.002819 0.011307 -0.003038 0.000000 0.000000 0.000000
# 3 -0.003594 -0.003038 0.008495 0.000000 0.000000 0.000000
# 4 0.000000 0.000000 0.000000 0.021268 0.000000 0.000000
# 5 0.000000 0.000000 0.000000 0.000000 0.144973 0.000000
# 6 0.000000 0.000000 0.000000 0.000000 0.000000 0.021191
#
#
# Mechanical properties :
#
#
# Convention : Reuss Voigt Hill
#
# Bulk Modulus (GPa) = 72.23236 77.14993 74.69115
# Shear Modulus (GPa) = 20.51741 35.04766 27.78253
#
# Velocity S-wave (km/s) = 3.17320 4.14730 3.69251
# Velocity P-wave (km/s) = 6.99103 7.79716 7.40507
#
# Compressibility (1/GPa) = 0.01384421
#
# Stress axis : x y z
#
# Youngs Moduli (GPa) = 77.25280 88.43921 117.71678
#
# Poissons Ratio (x) = 0.24935 0.42304
# Poissons Ratio (y) = 0.21781 0.35764
# Poissons Ratio (z) = 0.27762 0.26869
#
# Static dielectric constant tensor:
#      x y z
#    x 3.885650 0.000000 0.000000 
#    y 0.000000 3.818040 0.000000 
#    z 0.000000 0.000000 4.717190 
# 
# 
# High freq. dielectric constant tensor:
#      x y z
#    x 1.801710 0.000000 0.000000 
#    y 0.000000 1.796640 0.000000 
#    z 0.000000 0.000000 1.795870 
# 
# From -- ./inp_files/31266.got.cif
#   From: 2010.03.12/outbox.cif.g09.slc.cpg/sg66_16_cif.got.tgz:31266.got - 2010.04.10 21:57:39.
