data_PCOD8277253
_publ_section_title
;
Structure prediction by ZEFSAII (Michael W. Deem and Ramdas Pophale) SiO2 
 PCOD8277253
Probable space group: C C C M
;
_chemical_formula_sum "Si O2"
_cell_formula_units_Z 116
_cell_length_a 25.593410
_cell_length_b 12.488574
_cell_length_c 17.824619
_cell_angle_alpha 90.000000
_cell_angle_beta 90.000000
_cell_angle_gamma 90.000000
_cell_volume 5697.197318
_symmetry_space_group_name_H-M "C C C M"
_symmetry_group_IT_number 66
_symmetry_cell_setting 'orthorhombic'
loop_
_space_group_symop_operation_xyz
x,y,z
-x,-y,z
x,-y,1/2-z
-x,y,1/2-z
-x,-y,-z
x,y,-z
-x,y,1/2+z
x,-y,1/2+z
1/2+x,1/2+y,z
1/2-x,1/2-y,z
1/2+x,1/2-y,1/2-z
1/2-x,1/2+y,1/2-z
1/2-x,1/2-y,-z
1/2+x,1/2+y,-z
1/2-x,1/2+y,1/2+z
1/2+x,1/2-y,1/2+z
loop_
_atom_site_type_symbol
_atom_site_label
_atom_site_fract_x
_atom_site_fract_y
_atom_site_fract_z
Si Si1 0.096306 0.093556 0.672331
Si Si2 0.720292 0.140748 0.917153
Si Si3 0.648220 0.371497 0.674737
Si Si4 0.500000 0.500000 0.750000
Si Si5 0.360656 0.155748 0.909660
Si Si6 0.061343 0.507953 0.835361
Si Si7 0.107822 0.699585 0.912006
Si Si8 0.762396 0.448860 0.672424
O O1 0.127356 0.148178 0.741380
O O2 0.097085 0.175597 0.603737
O O3 0.036509 0.073135 0.697142
O O4 0.123845 0.983483 0.645672
O O5 0.750000 0.250000 0.916705
O O6 0.663918 0.161080 0.880790
O O7 0.754316 0.052619 0.875035
O O8 0.711800 0.095940 0.000000
O O9 0.629782 0.276855 0.619318
O O10 0.711328 0.374928 0.679854
O O11 0.409133 0.080537 0.886188
O O12 0.308035 0.114413 0.869890
O O13 0.354773 0.155408 0.000000
O O14 0.081687 0.500000 0.750000
O O15 0.067974 0.627103 0.866817
O O16 0.000000 0.500000 0.840165
O O17 0.102149 0.681461 0.000000
O O18 0.782695 0.500000 0.750000
#
# Coordination Sequence:
#
# PCOD8277253 Si02
#       8
#    16  16  16   4  16  16  16  16
#     4  10  21  43  66  93 126 164 221 274 322 385
#     4  10  22  37  58  87 124 167 210 258 317 373
#     4  10  23  41  62  93 127 174 218 266 319 385
#     4   8  20  40  66  92 126 164 208 274 330 382
#     4  12  26  42  63  96 137 173 211 265 332 397
#     4  11  25  46  70  96 125 169 220 271 325 384
#     4  11  23  40  64  94 128 166 210 268 324 387
#     4  12  23  38  62  91 127 173 217 266 312 379
#
# _framework density 20.360887999999999
#
# number of rings (size 3 to 8) (size 9 to 14) (size 15 to 20)
#    0.000    1.379    2.759    3.310    1.931    6.621 
#    0.000    0.345    0.000    0.000    0.000    0.000 
#    0.000    0.000    0.000    0.000    0.000    0.000 
#
# Total GULP energy -719043.206398 kJ/mol
# GULP energy per Si atom -12397.296662 kJ/mol
# Density = 2.031455 g / cm^3
# Si number density = 20.360888 Si / 1000 Ang^3
#
#
#
# Elastic Constant Matrix: (Units=GPa)
#
#
# Indices 1 2 3 4 5 6 
#
# 1 106.3128 25.6878 46.9818 0.0000 0.0000 0.0000
# 2 25.6878 118.0717 65.6554 0.0000 0.0000 0.0000
# 3 46.9818 65.6554 111.7916 0.0000 0.0000 0.0000
# 4 0.0000 0.0000 0.0000 40.4555 0.0000 0.0000
# 5 0.0000 0.0000 0.0000 0.0000 20.8498 0.0000
# 6 0.0000 0.0000 0.0000 0.0000 0.0000 10.4694
#
#
#
# Elastic Compliance Matrix: (Units=1/GPa)
#
#
# Indices 1 2 3 4 5 6 
#
# 1 0.011558 0.000277 -0.005020 0.000000 0.000000 0.000000
# 2 0.000277 0.012583 -0.007507 0.000000 0.000000 0.000000
# 3 -0.005020 -0.007507 0.015463 0.000000 0.000000 0.000000
# 4 0.000000 0.000000 0.000000 0.024719 0.000000 0.000000
# 5 0.000000 0.000000 0.000000 0.000000 0.047962 0.000000
# 6 0.000000 0.000000 0.000000 0.000000 0.000000 0.095517
#
#
# Mechanical properties :
#
#
# Convention : Reuss Voigt Hill
#
# Bulk Modulus (GPa) = 66.20157 68.09177 67.14667
# Shear Modulus (GPa) = 21.06719 27.54501 24.30610
#
# Velocity S-wave (km/s) = 3.22015 3.68209 3.45884
# Velocity P-wave (km/s) = 6.81252 7.18276 7.00009
#
# Compressibility (1/GPa) = 0.01510538
#
# Stress axis : x y z
#
# Youngs Moduli (GPa) = 86.52248 79.47023 64.66843
#
# Poissons Ratio (x) = -0.02200 0.32463
# Poissons Ratio (y) = -0.02395 0.48544
# Poissons Ratio (z) = 0.43433 0.59655
#
# Static dielectric constant tensor:
#      x y z
#    x 3.564490 0.000000 0.000000 
#    y 0.000000 3.712050 0.000000 
#    z 0.000000 0.000000 3.871660 
# 
# 
# High freq. dielectric constant tensor:
#      x y z
#    x 1.797590 0.000000 0.000000 
#    y 0.000000 1.805780 0.000000 
#    z 0.000000 0.000000 1.792500 
# 
# From -- ./inp_files/44771.got.cif
#   From: 2010.03.12/outbox.cif.g09.slc.cpg/sg66_23_cif.got.tgz:44771.got - 2010.04.10 21:57:39.
