data_PCOD8277210
_publ_section_title
;
Structure prediction by ZEFSAII (Michael W. Deem and Ramdas Pophale) SiO2 
 PCOD8277210
Probable space group: C C C M
;
_chemical_formula_sum "Si O2"
_cell_formula_units_Z 68
_cell_length_a 16.183811
_cell_length_b 9.890141
_cell_length_c 20.462420
_cell_angle_alpha 90.000000
_cell_angle_beta 90.000000
_cell_angle_gamma 90.000000
_cell_volume 3275.218479
_symmetry_space_group_name_H-M "C C C M"
_symmetry_group_IT_number 66
_symmetry_cell_setting 'orthorhombic'
loop_
_space_group_symop_operation_xyz
x,y,z
-x,-y,z
x,-y,1/2-z
-x,y,1/2-z
-x,-y,-z
x,y,-z
-x,y,1/2+z
x,-y,1/2+z
1/2+x,1/2+y,z
1/2-x,1/2-y,z
1/2+x,1/2-y,1/2-z
1/2-x,1/2+y,1/2-z
1/2-x,1/2-y,-z
1/2+x,1/2+y,-z
1/2-x,1/2+y,1/2+z
1/2+x,1/2-y,1/2+z
loop_
_atom_site_type_symbol
_atom_site_label
_atom_site_fract_x
_atom_site_fract_y
_atom_site_fract_z
Si Si1 0.165092 0.671079 0.575883
Si Si2 0.989337 0.848195 0.076184
Si Si3 0.122391 0.180960 0.334550
Si Si4 0.500000 0.500000 0.750000
Si Si5 0.289793 0.948013 0.178293
O O1 0.151002 0.623553 0.500000
O O2 0.250000 0.750000 0.582013
O O3 0.093245 0.772771 0.600567
O O4 0.165315 0.547283 0.626904
O O5 0.072228 0.773891 0.100269
O O6 0.987105 0.853337 0.000000
O O7 0.000000 0.000000 0.105463
O O8 0.059350 0.101552 0.288618
O O9 0.202364 0.092478 0.354356
O O10 0.151860 0.321758 0.304118
O O11 0.268208 0.000000 0.250000
#
# Coordination Sequence:
#
# PCOD8277210 Si02
#       5
#    16  16  16   4  16
#     4  10  23  42  69  98 136 182 221 274 337 401
#     4  10  21  40  66  97 126 166 222 270 320 391
#     4  11  25  42  66  94 125 177 213 274 331 391
#     4  12  24  44  64  92 128 170 230 254 344 404
#     4  11  26  43  63  98 136 172 220 276 336 397
#
# _framework density 20.761973999999999
#
# number of rings (size 3 to 8) (size 9 to 14) (size 15 to 20)
#    0.000    1.412    2.353    1.412    6.588    4.706 
#    0.000    4.706    0.000    0.000    0.000    0.000 
#    0.000    0.000    0.000    0.000    0.000    0.000 
#
# Total GULP energy -421284.577903 kJ/mol
# GULP energy per Si atom -12390.722879 kJ/mol
# Density = 2.071472 g / cm^3
# Si number density = 20.761974 Si / 1000 Ang^3
#
#
#
# Elastic Constant Matrix: (Units=GPa)
#
#
# Indices 1 2 3 4 5 6 
#
# 1 168.3777 82.1217 42.4029 0.0000 0.0000 0.0000
# 2 82.1217 121.4234 57.3666 0.0000 0.0000 0.0000
# 3 42.4029 57.3666 51.6293 0.0000 0.0000 0.0000
# 4 0.0000 0.0000 0.0000 28.9516 0.0000 0.0000
# 5 0.0000 0.0000 0.0000 0.0000 28.0161 0.0000
# 6 0.0000 0.0000 0.0000 0.0000 0.0000 34.5381
#
#
#
# Elastic Compliance Matrix: (Units=1/GPa)
#
#
# Indices 1 2 3 4 5 6 
#
# 1 0.008904 -0.005404 -0.001309 0.000000 0.000000 0.000000
# 2 -0.005404 0.020616 -0.018469 0.000000 0.000000 0.000000
# 3 -0.001309 -0.018469 0.040965 0.000000 0.000000 0.000000
# 4 0.000000 0.000000 0.000000 0.034540 0.000000 0.000000
# 5 0.000000 0.000000 0.000000 0.000000 0.035694 0.000000
# 6 0.000000 0.000000 0.000000 0.000000 0.000000 0.028954
#
#
# Mechanical properties :
#
#
# Convention : Reuss Voigt Hill
#
# Bulk Modulus (GPa) = 49.69584 78.35699 64.02642
# Shear Modulus (GPa) = 22.05146 28.93710 25.49428
#
# Velocity S-wave (km/s) = 3.26254 3.73735 3.50799
# Velocity P-wave (km/s) = 6.17901 7.51308 6.87846
#
# Compressibility (1/GPa) = 0.02012241
#
# Stress axis : x y z
#
# Youngs Moduli (GPa) = 112.30702 48.50605 24.41129
#
# Poissons Ratio (x) = 0.26212 0.03194
# Poissons Ratio (y) = 0.60689 0.45085
# Poissons Ratio (z) = 0.14696 0.89585
#
# Static dielectric constant tensor:
#      x y z
#    x 4.261460 0.000000 0.000000 
#    y 0.000000 3.881440 0.000000 
#    z 0.000000 0.000000 3.829950 
# 
# 
# High freq. dielectric constant tensor:
#      x y z
#    x 1.829250 0.000000 0.000000 
#    y 0.000000 1.810190 0.000000 
#    z 0.000000 0.000000 1.813460 
# 
# From -- ./inp_files/46728.got.cif
#   From: 2010.03.12/outbox.cif.g09.slc.cpg/sg66_24_cif.got.tgz:46728.got - 2010.04.10 21:57:39.
