data_PCOD8277024
_publ_section_title
;
Structure prediction by ZEFSAII (Michael W. Deem and Ramdas Pophale) SiO2 
 PCOD8277024
Probable space group: C C C M
;
_chemical_formula_sum "Si O2"
_cell_formula_units_Z 80
_cell_length_a 18.217916
_cell_length_b 7.714639
_cell_length_c 26.266662
_cell_angle_alpha 90.000000
_cell_angle_beta 90.000000
_cell_angle_gamma 90.000000
_cell_volume 3691.638693
_symmetry_space_group_name_H-M "C C C M"
_symmetry_group_IT_number 66
_symmetry_cell_setting 'orthorhombic'
loop_
_space_group_symop_operation_xyz
x,y,z
-x,-y,z
x,-y,1/2-z
-x,y,1/2-z
-x,-y,-z
x,y,-z
-x,y,1/2+z
x,-y,1/2+z
1/2+x,1/2+y,z
1/2-x,1/2-y,z
1/2+x,1/2-y,1/2-z
1/2-x,1/2+y,1/2-z
1/2-x,1/2-y,-z
1/2+x,1/2+y,-z
1/2-x,1/2+y,1/2+z
1/2+x,1/2-y,1/2+z
loop_
_atom_site_type_symbol
_atom_site_label
_atom_site_fract_x
_atom_site_fract_y
_atom_site_fract_z
Si Si1 0.022651 0.196107 0.696804
Si Si2 0.227051 0.946330 0.500000
Si Si3 0.582898 0.740321 0.108242
Si Si4 0.652752 0.382047 0.862567
Si Si5 0.062384 0.859567 0.500000
Si Si6 0.301465 0.036947 0.603128
O O1 0.110962 0.190183 0.688134
O O2 0.000000 0.291068 0.750000
O O3 0.980242 0.287063 0.649271
O O4 0.000000 0.000000 0.701102
O O5 0.250000 0.750000 0.500000
O O6 0.139618 0.960627 0.500000
O O7 0.259914 0.033437 0.549745
O O8 0.606617 0.539587 0.113380
O O9 0.651667 0.867629 0.116636
O O10 0.554505 0.762345 0.050225
O O11 0.650698 0.212390 0.899128
O O12 0.737026 0.443814 0.853498
O O13 0.000000 0.000000 0.500000
#
# Coordination Sequence:
#
# PCOD8277024 Si02
#       6
#    16   8  16  16   8  16
#     4   9  20  41  69  89 120 170 215 264 322 378
#     4  12  20  38  61  89 130 177 211 248 326 391
#     4  11  21  39  63  88 125 165 210 259 315 379
#     4  10  21  37  61  90 121 158 213 259 309 380
#     4  12  22  35  62  94 125 168 213 254 311 381
#     4  11  22  36  60  92 128 163 204 260 319 378
#
# _framework density 21.670593
#
# number of rings (size 3 to 8) (size 9 to 14) (size 15 to 20)
#    0.000    1.400    4.000    2.400    0.000    3.200 
#    0.000    3.000   35.200    3.600    0.000    0.000 
#    0.000    0.000    0.000    0.000    0.000    0.000 
#
# Total GULP energy -495543.950181 kJ/mol
# GULP energy per Si atom -12388.598755 kJ/mol
# Density = 2.162127 g / cm^3
# Si number density = 21.670593 Si / 1000 Ang^3
#
#
#
# Elastic Constant Matrix: (Units=GPa)
#
#
# Indices 1 2 3 4 5 6 
#
# 1 145.4199 43.7131 75.6868 0.0000 0.0000 0.0000
# 2 43.7131 82.9854 36.1821 0.0000 0.0000 0.0000
# 3 75.6868 36.1821 153.8610 0.0000 0.0000 0.0000
# 4 0.0000 0.0000 0.0000 7.5451 0.0000 0.0000
# 5 0.0000 0.0000 0.0000 0.0000 30.6382 0.0000
# 6 0.0000 0.0000 0.0000 0.0000 0.0000 25.0803
#
#
#
# Elastic Compliance Matrix: (Units=1/GPa)
#
#
# Indices 1 2 3 4 5 6 
#
# 1 0.010084 -0.003509 -0.004135 0.000000 0.000000 0.000000
# 2 -0.003509 0.014648 -0.001719 0.000000 0.000000 0.000000
# 3 -0.004135 -0.001719 0.008938 0.000000 0.000000 0.000000
# 4 0.000000 0.000000 0.000000 0.132536 0.000000 0.000000
# 5 0.000000 0.000000 0.000000 0.000000 0.032639 0.000000
# 6 0.000000 0.000000 0.000000 0.000000 0.000000 0.039872
#
#
# Mechanical properties :
#
#
# Convention : Reuss Voigt Hill
#
# Bulk Modulus (GPa) = 66.91560 77.04779 71.98170
# Shear Modulus (GPa) = 19.05328 27.76502 23.40915
#
# Velocity S-wave (km/s) = 2.96839 3.58331 3.29025
# Velocity P-wave (km/s) = 6.53406 7.26302 6.90816
#
# Compressibility (1/GPa) = 0.01494420
#
# Stress axis : x y z
#
# Youngs Moduli (GPa) = 99.17124 68.26945 111.88564
#
# Poissons Ratio (x) = 0.23953 0.46267
# Poissons Ratio (y) = 0.34795 0.19229
# Poissons Ratio (z) = 0.41009 0.11733
#
# Static dielectric constant tensor:
#      x y z
#    x 4.302330 0.000000 0.000000 
#    y 0.000000 3.729050 0.000000 
#    z 0.000000 0.000000 4.507280 
# 
# 
# High freq. dielectric constant tensor:
#      x y z
#    x 1.859200 0.000000 0.000000 
#    y 0.000000 1.843470 0.000000 
#    z 0.000000 0.000000 1.826110 
# 
# From -- ./inp_files/65118.got.cif
#   From: 2010.03.12/outbox.cif.g09.slc.cpg/sg66_33_cif.got.tgz:65118.got - 2010.04.10 21:57:39.
