data_PCOD8277900
_publ_section_title
;
Structure prediction by ZEFSAII (Michael W. Deem and Ramdas Pophale) SiO2 
 PCOD8277900
Probable space group: C C C M
;
_chemical_formula_sum "Si O2"
_cell_formula_units_Z 64
_cell_length_a 11.239535
_cell_length_b 27.872073
_cell_length_c 9.914609
_cell_angle_alpha 90.000000
_cell_angle_beta 90.000000
_cell_angle_gamma 90.000000
_cell_volume 3105.941035
_symmetry_space_group_name_H-M "C C C M"
_symmetry_group_IT_number 66
_symmetry_cell_setting 'orthorhombic'
loop_
_space_group_symop_operation_xyz
x,y,z
-x,-y,z
x,-y,1/2-z
-x,y,1/2-z
-x,-y,-z
x,y,-z
-x,y,1/2+z
x,-y,1/2+z
1/2+x,1/2+y,z
1/2-x,1/2-y,z
1/2+x,1/2-y,1/2-z
1/2-x,1/2+y,1/2-z
1/2-x,1/2-y,-z
1/2+x,1/2+y,-z
1/2-x,1/2+y,1/2+z
1/2+x,1/2-y,1/2+z
loop_
_atom_site_type_symbol
_atom_site_label
_atom_site_fract_x
_atom_site_fract_y
_atom_site_fract_z
Si Si1 0.640097 0.856692 0.244034
Si Si2 0.254926 0.456447 0.838925
Si Si3 0.491085 0.354783 0.500000
Si Si4 0.744921 0.306859 0.000000
Si Si5 0.000000 0.920549 0.750000
Si Si6 0.748859 0.193596 0.500000
O O1 0.500000 0.862440 0.250000
O O2 0.692922 0.908560 0.211939
O O3 0.692907 0.832898 0.376203
O O4 0.673198 0.820274 0.128058
O O5 0.200246 0.500000 0.750000
O O6 0.394330 0.453922 0.804207
O O7 0.235912 0.464360 0.000000
O O8 0.397201 0.312167 0.500000
O O9 0.460374 0.386546 0.629020
O O10 0.623498 0.333049 0.500000
O O11 0.750000 0.250000 0.000000
O O12 0.750000 0.250000 0.500000
#
# Coordination Sequence:
#
# PCOD8277900 Si02
#       6
#    16  16   8   8   8   8
#     4  12  26  48  70 101 148 186 232 290 344 420
#     4  12  27  46  71 104 138 184 234 289 359 419
#     4  12  22  42  75 100 144 180 227 298 348 406
#     4  12  27  44  71 112 137 184 243 285 342 410
#     4  12  21  44  68 102 144 180 224 292 357 412
#     4  12  25  48  73 102 141 192 233 291 354 408
#
# _framework density 20.605671000000001
#
# number of rings (size 3 to 8) (size 9 to 14) (size 15 to 20)
#    0.000    0.000    7.500    1.875    7.000    1.500 
#    0.000    1.250    0.000    0.000    0.000    0.000 
#    0.000    0.000    0.000    0.000    0.000    0.000 
#
# Total GULP energy -396755.006765 kJ/mol
# GULP energy per Si atom -12398.593961 kJ/mol
# Density = 2.055877 g / cm^3
# Si number density = 20.605671 Si / 1000 Ang^3
#
#
#
# Elastic Constant Matrix: (Units=GPa)
#
#
# Indices 1 2 3 4 5 6 
#
# 1 107.3673 26.9542 37.8247 0.0000 0.0000 0.0000
# 2 26.9542 163.7050 83.0309 0.0000 0.0000 0.0000
# 3 37.8247 83.0309 200.9559 0.0000 0.0000 0.0000
# 4 0.0000 0.0000 0.0000 43.3890 0.0000 0.0000
# 5 0.0000 0.0000 0.0000 0.0000 11.3437 0.0000
# 6 0.0000 0.0000 0.0000 0.0000 0.0000 27.2497
#
#
#
# Elastic Compliance Matrix: (Units=1/GPa)
#
#
# Indices 1 2 3 4 5 6 
#
# 1 0.010075 -0.000882 -0.001532 0.000000 0.000000 0.000000
# 2 -0.000882 0.007805 -0.003059 0.000000 0.000000 0.000000
# 3 -0.001532 -0.003059 0.006528 0.000000 0.000000 0.000000
# 4 0.000000 0.000000 0.000000 0.023047 0.000000 0.000000
# 5 0.000000 0.000000 0.000000 0.000000 0.088155 0.000000
# 6 0.000000 0.000000 0.000000 0.000000 0.000000 0.036698
#
#
# Mechanical properties :
#
#
# Convention : Reuss Voigt Hill
#
# Bulk Modulus (GPa) = 74.27741 85.29421 79.78581
# Shear Modulus (GPa) = 26.63234 38.01104 32.32169
#
# Velocity S-wave (km/s) = 3.59900 4.29964 3.96483
# Velocity P-wave (km/s) = 7.30724 8.13220 7.73073
#
# Compressibility (1/GPa) = 0.01346304
#
# Stress axis : x y z
#
# Youngs Moduli (GPa) = 99.25648 128.11877 153.17484
#
# Poissons Ratio (x) = 0.11298 0.23466
# Poissons Ratio (y) = 0.08753 0.46856
# Poissons Ratio (z) = 0.15206 0.39191
#
# Static dielectric constant tensor:
#      x y z
#    x 3.868490 0.000000 0.000000 
#    y 0.000000 3.883960 0.000000 
#    z 0.000000 0.000000 4.207940 
# 
# 
# High freq. dielectric constant tensor:
#      x y z
#    x 1.809530 0.000000 0.000000 
#    y 0.000000 1.820260 0.000000 
#    z 0.000000 0.000000 1.830880 
# 
# From -- ./inp_files/4034.got.cif
#   From: 2010.03.12/outbox.cif.g09.slc.cpg/sg66_3_cif.got.tgz:4034.got - 2010.04.10 21:57:39.
