data_PCOD8277380
_publ_section_title
;
Structure prediction by ZEFSAII (Michael W. Deem and Ramdas Pophale) SiO2 
 PCOD8277380
Probable space group: C C C M
;
_chemical_formula_sum "Si O2"
_cell_formula_units_Z 80
_cell_length_a 6.370342
_cell_length_b 24.062949
_cell_length_c 26.638059
_cell_angle_alpha 90.000000
_cell_angle_beta 90.000000
_cell_angle_gamma 90.000000
_cell_volume 4083.327144
_symmetry_space_group_name_H-M "C C C M"
_symmetry_group_IT_number 66
_symmetry_cell_setting 'orthorhombic'
loop_
_space_group_symop_operation_xyz
x,y,z
-x,-y,z
x,-y,1/2-z
-x,y,1/2-z
-x,-y,-z
x,y,-z
-x,y,1/2+z
x,-y,1/2+z
1/2+x,1/2+y,z
1/2-x,1/2-y,z
1/2+x,1/2-y,1/2-z
1/2-x,1/2+y,1/2-z
1/2-x,1/2-y,-z
1/2+x,1/2+y,-z
1/2-x,1/2+y,1/2+z
1/2+x,1/2-y,1/2+z
loop_
_atom_site_type_symbol
_atom_site_label
_atom_site_fract_x
_atom_site_fract_y
_atom_site_fract_z
Si Si1 0.937372 0.061827 0.135283
Si Si2 0.750000 0.750000 0.164846
Si Si3 0.500000 0.304165 0.750000
Si Si4 0.162265 0.610568 0.788866
Si Si5 0.417207 0.938374 0.941415
Si Si6 0.838187 0.635580 0.126493
O O1 0.812363 0.063441 0.188061
O O2 0.795717 0.078074 0.087398
O O3 0.129630 0.103437 0.143693
O O4 0.000000 0.000000 0.124415
O O5 0.555335 0.733948 0.201696
O O6 0.791228 0.700885 0.124835
O O7 0.705701 0.340756 0.762056
O O8 0.000000 0.582782 0.750000
O O9 0.026969 0.633499 0.834452
O O10 0.591383 0.892267 0.926174
O O11 0.500000 0.000000 0.926198
O O12 0.371270 0.934602 0.000000
#
# Coordination Sequence:
#
# PCOD8277380 Si02
#       6
#    16   8   8  16  16  16
#     4  11  22  40  64  91 130 165 210 268 324 379
#     4  12  22  38  65  88 124 170 211 266 304 368
#     4  12  22  40  61  94 121 170 234 260 300 364
#     4  11  21  40  59  88 127 166 218 261 308 370
#     4  10  22  41  69  97 123 159 210 268 326 393
#     4  11  23  40  61  95 126 163 210 264 321 376
#
# _framework density 19.591866
#
# number of rings (size 3 to 8) (size 9 to 14) (size 15 to 20)
#    0.000    1.000    6.000    1.200    0.000    1.200 
#    0.000    8.000    0.000    1.200    0.000    0.000 
#    0.000    0.000    0.000    0.000    0.000    0.000 
#
# Total GULP energy -495735.163854 kJ/mol
# GULP energy per Si atom -12393.379096 kJ/mol
# Density = 1.954727 g / cm^3
# Si number density = 19.591866 Si / 1000 Ang^3
#
#
#
# Elastic Constant Matrix: (Units=GPa)
#
#
# Indices 1 2 3 4 5 6 
#
# 1 108.3914 37.1975 38.1288 0.0000 0.0000 0.0000
# 2 37.1975 99.6812 53.5997 0.0000 0.0000 0.0000
# 3 38.1288 53.5997 80.9638 0.0000 0.0000 0.0000
# 4 0.0000 0.0000 0.0000 31.9600 0.0000 0.0000
# 5 0.0000 0.0000 0.0000 0.0000 12.1129 0.0000
# 6 0.0000 0.0000 0.0000 0.0000 0.0000 23.1982
#
#
#
# Elastic Compliance Matrix: (Units=1/GPa)
#
#
# Indices 1 2 3 4 5 6 
#
# 1 0.011337 -0.002111 -0.003941 0.000000 0.000000 0.000000
# 2 -0.002111 0.015970 -0.009578 0.000000 0.000000 0.000000
# 3 -0.003941 -0.009578 0.020548 0.000000 0.000000 0.000000
# 4 0.000000 0.000000 0.000000 0.031289 0.000000 0.000000
# 5 0.000000 0.000000 0.000000 0.000000 0.082557 0.000000
# 6 0.000000 0.000000 0.000000 0.000000 0.000000 0.043107
#
#
# Mechanical properties :
#
#
# Convention : Reuss Voigt Hill
#
# Bulk Modulus (GPa) = 60.26386 60.76538 60.51462
# Shear Modulus (GPa) = 20.69530 24.12823 22.41177
#
# Velocity S-wave (km/s) = 3.25363 3.51314 3.38588
# Velocity P-wave (km/s) = 6.70382 6.89487 6.80002
#
# Compressibility (1/GPa) = 0.01659369
#
# Stress axis : x y z
#
# Youngs Moduli (GPa) = 88.20871 62.61656 48.66575
#
# Poissons Ratio (x) = 0.13220 0.19180
# Poissons Ratio (y) = 0.18623 0.46614
# Poissons Ratio (z) = 0.34765 0.59976
#
# Static dielectric constant tensor:
#      x y z
#    x 3.620720 0.000000 0.000000 
#    y 0.000000 3.774260 0.000000 
#    z 0.000000 0.000000 3.504350 
# 
# 
# High freq. dielectric constant tensor:
#      x y z
#    x 1.783700 0.000000 0.000000 
#    y 0.000000 1.752770 0.000000 
#    z 0.000000 0.000000 1.743330 
# 
# From -- ./inp_files/67223.got.cif
#   From: 2010.03.12/outbox.cif.g09.slc.cpg/sg66_34_cif.got.tgz:67223.got - 2010.04.10 21:57:39.
