data_PCOD8277760
_publ_section_title
;
Structure prediction by ZEFSAII (Michael W. Deem and Ramdas Pophale) SiO2 
 PCOD8277760
Probable space group: C C C M
;
_chemical_formula_sum "Si O2"
_cell_formula_units_Z 64
_cell_length_a 21.871923
_cell_length_b 8.390962
_cell_length_c 14.075381
_cell_angle_alpha 90.000000
_cell_angle_beta 90.000000
_cell_angle_gamma 90.000000
_cell_volume 2583.205056
_symmetry_space_group_name_H-M "C C C M"
_symmetry_group_IT_number 66
_symmetry_cell_setting 'orthorhombic'
loop_
_space_group_symop_operation_xyz
x,y,z
-x,-y,z
x,-y,1/2-z
-x,y,1/2-z
-x,-y,-z
x,y,-z
-x,y,1/2+z
x,-y,1/2+z
1/2+x,1/2+y,z
1/2-x,1/2-y,z
1/2+x,1/2-y,1/2-z
1/2-x,1/2+y,1/2-z
1/2-x,1/2-y,-z
1/2+x,1/2+y,-z
1/2-x,1/2+y,1/2+z
1/2+x,1/2-y,1/2+z
loop_
_atom_site_type_symbol
_atom_site_label
_atom_site_fract_x
_atom_site_fract_y
_atom_site_fract_z
Si Si1 0.134844 0.920365 0.893197
Si Si2 0.019458 0.751052 0.852264
Si Si3 0.909186 0.443993 0.394116
Si Si4 0.178568 0.234151 0.210270
O O1 0.060993 0.890723 0.898620
O O2 0.164822 0.789617 0.822322
O O3 0.149868 0.092753 0.852157
O O4 0.161608 0.903680 0.000000
O O5 0.061444 0.593775 0.840817
O O6 0.000000 0.814317 0.750000
O O7 0.958442 0.700611 0.908622
O O8 0.887607 0.494517 0.500000
O O9 0.851613 0.394139 0.330258
O O10 0.250000 0.250000 0.193306
#
# Coordination Sequence:
#
# PCOD8277760 Si02
#       4
#    16  16  16  16
#     4  11  25  47  73 105 139 183 236 291 358 422
#     4  11  22  42  70 105 144 182 230 294 359 421
#     4  11  22  40  70 106 145 187 233 288 354 426
#     4  11  27  48  71 101 144 191 237 294 350 414
#
# _framework density 24.775421999999999
#
# number of rings (size 3 to 8) (size 9 to 14) (size 15 to 20)
#    0.000    1.000    2.500    5.250    0.000    7.500 
#    0.000    2.500    0.000    0.000    0.000    0.000 
#    0.000    0.000    0.000    0.000    0.000    0.000 
#
# Total GULP energy -396686.977233 kJ/mol
# GULP energy per Si atom -12396.468039 kJ/mol
# Density = 2.471903 g / cm^3
# Si number density = 24.775422 Si / 1000 Ang^3
#
#
#
# Elastic Constant Matrix: (Units=GPa)
#
#
# Indices 1 2 3 4 5 6 
#
# 1 142.4076 21.3930 31.6230 0.0000 0.0000 0.0000
# 2 21.3930 33.5149 29.0262 0.0000 0.0000 0.0000
# 3 31.6230 29.0262 159.2121 0.0000 0.0000 0.0000
# 4 0.0000 0.0000 0.0000 17.4930 0.0000 0.0000
# 5 0.0000 0.0000 0.0000 0.0000 13.7318 0.0000
# 6 0.0000 0.0000 0.0000 0.0000 0.0000 30.9663
#
#
#
# Elastic Compliance Matrix: (Units=1/GPa)
#
#
# Indices 1 2 3 4 5 6 
#
# 1 0.007845 -0.004344 -0.000766 0.000000 0.000000 0.000000
# 2 -0.004344 0.037837 -0.006035 0.000000 0.000000 0.000000
# 3 -0.000766 -0.006035 0.007533 0.000000 0.000000 0.000000
# 4 0.000000 0.000000 0.000000 0.057166 0.000000 0.000000
# 5 0.000000 0.000000 0.000000 0.000000 0.072823 0.000000
# 6 0.000000 0.000000 0.000000 0.000000 0.000000 0.032293
#
#
# Mechanical properties :
#
#
# Convention : Reuss Voigt Hill
#
# Bulk Modulus (GPa) = 32.33674 55.46876 43.90275
# Shear Modulus (GPa) = 20.15343 29.31106 24.73224
#
# Velocity S-wave (km/s) = 2.85519 3.44331 3.16295
# Velocity P-wave (km/s) = 4.89385 6.18431 5.57653
#
# Compressibility (1/GPa) = 0.03092458
#
# Stress axis : x y z
#
# Youngs Moduli (GPa) = 127.47315 26.42903 132.74160
#
# Poissons Ratio (x) = 0.11480 0.10171
# Poissons Ratio (y) = 0.55372 0.80114
# Poissons Ratio (z) = 0.09767 0.15951
#
# Static dielectric constant tensor:
#      x y z
#    x 4.450400 0.000000 0.000000 
#    y 0.000000 4.426630 0.000000 
#    z 0.000000 0.000000 4.498520 
# 
# 
# High freq. dielectric constant tensor:
#      x y z
#    x 1.968100 0.000000 0.000000 
#    y 0.000000 1.982000 0.000000 
#    z 0.000000 0.000000 1.993770 
# 
# From -- ./inp_files/31896.got.cif
#   From: 2010.03.12/outbox.cif.g09.slc.cpg/sg66_16_cif.got.tgz:31896.got - 2010.04.10 21:57:39.
