data_PCOD8277408
_publ_section_title
;
Structure prediction by ZEFSAII (Michael W. Deem and Ramdas Pophale) SiO2 
 PCOD8277408
Probable space group: C C C M
;
_chemical_formula_sum "Si O2"
_cell_formula_units_Z 64
_cell_length_a 10.750173
_cell_length_b 9.430963
_cell_length_c 26.338090
_cell_angle_alpha 90.000000
_cell_angle_beta 90.000000
_cell_angle_gamma 90.000000
_cell_volume 2670.273659
_symmetry_space_group_name_H-M "C C C M"
_symmetry_group_IT_number 66
_symmetry_cell_setting 'orthorhombic'
loop_
_space_group_symop_operation_xyz
x,y,z
-x,-y,z
x,-y,1/2-z
-x,y,1/2-z
-x,-y,-z
x,y,-z
-x,y,1/2+z
x,-y,1/2+z
1/2+x,1/2+y,z
1/2-x,1/2-y,z
1/2+x,1/2-y,1/2-z
1/2-x,1/2+y,1/2-z
1/2-x,1/2-y,-z
1/2+x,1/2+y,-z
1/2-x,1/2+y,1/2+z
1/2+x,1/2-y,1/2+z
loop_
_atom_site_type_symbol
_atom_site_label
_atom_site_fract_x
_atom_site_fract_y
_atom_site_fract_z
Si Si1 0.042286 0.754563 0.643309
Si Si2 0.154992 0.141040 0.718383
Si Si3 0.901231 0.377532 0.944594
Si Si4 0.246519 0.473927 0.130924
O O1 0.126150 0.615053 0.649368
O O2 0.974943 0.789378 0.697569
O O3 0.945462 0.737672 0.596996
O O4 0.127577 0.885970 0.627608
O O5 0.250000 0.250000 0.748376
O O6 0.239998 0.099768 0.670748
O O7 0.123149 0.000000 0.750000
O O8 0.776379 0.453494 0.923782
O O9 0.000000 0.500000 0.951757
O O10 0.875522 0.307190 0.000000
#
# Coordination Sequence:
#
# PCOD8277408 Si02
#       4
#    16  16  16  16
#     4  10  22  43  69  98 140 179 228 284 339 410
#     4  12  27  48  71  99 136 181 236 291 351 414
#     4   9  18  37  69 105 143 184 225 279 348 412
#     4  10  22  43  69 100 139 181 225 286 343 407
#
# _framework density 23.967580000000002
#
# number of rings (size 3 to 8) (size 9 to 14) (size 15 to 20)
#    0.000    1.750    2.500    0.750    3.500    3.000 
#    0.000    8.750    0.000    3.000    0.000    0.000 
#    0.000    0.000    0.000    0.000    0.000    0.000 
#
# Total GULP energy -396596.990647 kJ/mol
# GULP energy per Si atom -12393.655958 kJ/mol
# Density = 2.391303 g / cm^3
# Si number density = 23.967580 Si / 1000 Ang^3
#
#
#
# Elastic Constant Matrix: (Units=GPa)
#
#
# Indices 1 2 3 4 5 6 
#
# 1 124.3341 40.2583 23.6732 0.0000 0.0000 0.0000
# 2 40.2583 68.1849 17.9822 0.0000 0.0000 0.0000
# 3 23.6732 17.9822 112.5875 0.0000 0.0000 0.0000
# 4 0.0000 0.0000 0.0000 -31.5232 0.0000 0.0000
# 5 0.0000 0.0000 0.0000 0.0000 0.0577 0.0000
# 6 0.0000 0.0000 0.0000 0.0000 0.0000 43.9459
#
#
#
# Elastic Compliance Matrix: (Units=1/GPa)
#
#
# Indices 1 2 3 4 5 6 
#
# 1 0.010103 -0.005642 -0.001223 0.000000 0.000000 0.000000
# 2 -0.005642 0.018462 -0.001762 0.000000 0.000000 0.000000
# 3 -0.001223 -0.001762 0.009421 0.000000 0.000000 0.000000
# 4 0.000000 0.000000 0.000000 -0.031723 0.000000 0.000000
# 5 0.000000 0.000000 0.000000 0.000000 17.319580 0.000000
# 6 0.000000 0.000000 0.000000 0.000000 0.000000 0.022755
#
#
# Mechanical properties :
#
#
# Convention : Reuss Voigt Hill
#
# Bulk Modulus (GPa) = 48.23934 52.10378 50.17156
# Shear Modulus (GPa) = 0.28781 17.37561 8.83171
#
# Velocity S-wave (km/s) = 0.34690 2.69543 1.92168
# Velocity P-wave (km/s) = 4.50900 5.61014 5.08943
#
# Compressibility (1/GPa) = 0.02072997
#
# Stress axis : x y z
#
# Youngs Moduli (GPa) = 98.98385 54.16479 106.15006
#
# Poissons Ratio (x) = 0.30562 0.12983
# Poissons Ratio (y) = 0.55850 0.18707
# Poissons Ratio (z) = 0.12106 0.09546
#
# Static dielectric constant tensor:
#      x y z
#    x 4.454600 0.000000 0.000000 
#    y 0.000000 4.538900 0.000000 
#    z 0.000000 0.000000 4.837820 
# 
# 
# High freq. dielectric constant tensor:
#      x y z
#    x 1.965500 0.000000 0.000000 
#    y 0.000000 1.954470 0.000000 
#    z 0.000000 0.000000 1.940310 
# 
# From -- ./inp_files/68590.got.cif
#   From: 2010.03.12/outbox.cif.g09.slc.cpg/sg66_35_cif.got.tgz:68590.got - 2010.04.10 21:57:39.
