data_PCOD8277543
_publ_section_title
;
Structure prediction by ZEFSAII (Michael W. Deem and Ramdas Pophale) SiO2 
 PCOD8277543
Probable space group: C C C M
;
_chemical_formula_sum "Si O2"
_cell_formula_units_Z 64
_cell_length_a 9.425928
_cell_length_b 10.877510
_cell_length_c 31.152247
_cell_angle_alpha 90.000000
_cell_angle_beta 90.000000
_cell_angle_gamma 90.000000
_cell_volume 3194.059389
_symmetry_space_group_name_H-M "C C C M"
_symmetry_group_IT_number 66
_symmetry_cell_setting 'orthorhombic'
loop_
_space_group_symop_operation_xyz
x,y,z
-x,-y,z
x,-y,1/2-z
-x,y,1/2-z
-x,-y,-z
x,y,-z
-x,y,1/2+z
x,-y,1/2+z
1/2+x,1/2+y,z
1/2-x,1/2-y,z
1/2+x,1/2-y,1/2-z
1/2-x,1/2+y,1/2-z
1/2-x,1/2-y,-z
1/2+x,1/2+y,-z
1/2-x,1/2+y,1/2+z
1/2+x,1/2-y,1/2+z
loop_
_atom_site_type_symbol
_atom_site_label
_atom_site_fract_x
_atom_site_fract_y
_atom_site_fract_z
Si Si1 0.500000 0.000000 0.652080
Si Si2 0.855220 0.370535 0.772427
Si Si3 0.599257 0.679881 0.500000
Si Si4 0.500000 0.500000 0.070953
Si Si5 0.386478 0.104951 0.000000
Si Si6 0.231461 0.387160 0.907535
O O1 0.401580 0.093513 0.679335
O O2 0.601947 0.070308 0.620427
O O3 0.797475 0.500000 0.750000
O O4 0.750000 0.250000 0.771291
O O5 0.000000 0.326673 0.750000
O O6 0.750000 0.750000 0.500000
O O7 0.582731 0.601037 0.457192
O O8 0.464474 0.766912 0.500000
O O9 0.618808 0.550208 0.103410
O O10 0.288303 0.093237 0.041507
O O11 0.500000 0.000000 0.000000
O O12 0.250000 0.250000 0.893677
#
# Coordination Sequence:
#
# PCOD8277543 Si02
#       6
#     8  16   8   8   8  16
#     4  10  25  41  62  98 138 170 202 259 323 390
#     4   9  21  45  74 104 133 165 209 254 312 395
#     4  11  22  38  59  85 109 151 232 291 323 371
#     4  11  24  38  58  86 113 158 222 278 321 374
#     4  12  21  40  62  80 115 176 230 277 321 368
#     4  12  24  41  59  87 129 173 222 275 323 370
#
# _framework density 20.037199000000001
#
# number of rings (size 3 to 8) (size 9 to 14) (size 15 to 20)
#    0.000    1.500    3.750    3.375    0.000    6.500 
#    0.000    0.000    0.000    0.000    0.000    0.000 
#    0.000    0.000    0.000    0.000    0.000    0.000 
#
# Total GULP energy -396428.286301 kJ/mol
# GULP energy per Si atom -12388.383947 kJ/mol
# Density = 1.999159 g / cm^3
# Si number density = 20.037199 Si / 1000 Ang^3
#
#
#
# Elastic Constant Matrix: (Units=GPa)
#
#
# Indices 1 2 3 4 5 6 
#
# 1 131.3464 87.2971 47.7396 0.0000 0.0000 0.0000
# 2 87.2971 152.6665 46.0522 0.0000 0.0000 0.0000
# 3 47.7396 46.0522 104.4414 0.0000 0.0000 0.0000
# 4 0.0000 0.0000 0.0000 73.8668 0.0000 0.0000
# 5 0.0000 0.0000 0.0000 0.0000 33.2709 0.0000
# 6 0.0000 0.0000 0.0000 0.0000 0.0000 58.7155
#
#
#
# Elastic Compliance Matrix: (Units=1/GPa)
#
#
# Indices 1 2 3 4 5 6 
#
# 1 0.013094 -0.006554 -0.003096 0.000000 0.000000 0.000000
# 2 -0.006554 0.010835 -0.001782 0.000000 0.000000 0.000000
# 3 -0.003096 -0.001782 0.011775 0.000000 0.000000 0.000000
# 4 0.000000 0.000000 0.000000 0.013538 0.000000 0.000000
# 5 0.000000 0.000000 0.000000 0.000000 0.030056 0.000000
# 6 0.000000 0.000000 0.000000 0.000000 0.000000 0.017031
#
#
# Mechanical properties :
#
#
# Convention : Reuss Voigt Hill
#
# Bulk Modulus (GPa) = 77.86660 83.40356 80.63508
# Shear Modulus (GPa) = 40.49420 46.99498 43.74459
#
# Velocity S-wave (km/s) = 4.50038 4.84817 4.67751
# Velocity P-wave (km/s) = 8.12095 8.54719 8.33680
#
# Compressibility (1/GPa) = 0.01284248
#
# Stress axis : x y z
#
# Youngs Moduli (GPa) = 76.36803 92.29047 84.92229
#
# Poissons Ratio (x) = 0.60486 0.26288
# Poissons Ratio (y) = 0.50050 0.15133
# Poissons Ratio (z) = 0.23640 0.16446
#
# Static dielectric constant tensor:
#      x y z
#    x 3.743700 0.000000 0.000000 
#    y 0.000000 5.136980 0.000000 
#    z 0.000000 0.000000 3.639460 
# 
# 
# High freq. dielectric constant tensor:
#      x y z
#    x 1.797590 0.000000 0.000000 
#    y 0.000000 1.796710 0.000000 
#    z 0.000000 0.000000 1.760330 
# 
# From -- ./inp_files/67954.got.cif
#   From: 2010.03.12/outbox.cif.g09.slc.cpg/sg66_34_cif.got.tgz:67954.got - 2010.04.10 21:57:39.
