data_PCOD8277262
_publ_section_title
;
Structure prediction by ZEFSAII (Michael W. Deem and Ramdas Pophale) SiO2 
 PCOD8277262
Probable space group: C C C M
;
_chemical_formula_sum "Si O2"
_cell_formula_units_Z 64
_cell_length_a 5.148686
_cell_length_b 23.663992
_cell_length_c 24.973698
_cell_angle_alpha 90.000000
_cell_angle_beta 90.000000
_cell_angle_gamma 90.000000
_cell_volume 3042.757013
_symmetry_space_group_name_H-M "C C C M"
_symmetry_group_IT_number 66
_symmetry_cell_setting 'orthorhombic'
loop_
_space_group_symop_operation_xyz
x,y,z
-x,-y,z
x,-y,1/2-z
-x,y,1/2-z
-x,-y,-z
x,y,-z
-x,y,1/2+z
x,-y,1/2+z
1/2+x,1/2+y,z
1/2-x,1/2-y,z
1/2+x,1/2-y,1/2-z
1/2-x,1/2+y,1/2-z
1/2-x,1/2-y,-z
1/2+x,1/2+y,-z
1/2-x,1/2+y,1/2+z
1/2+x,1/2-y,1/2+z
loop_
_atom_site_type_symbol
_atom_site_label
_atom_site_fract_x
_atom_site_fract_y
_atom_site_fract_z
Si Si1 0.407662 0.397284 0.119059
Si Si2 0.751494 0.062485 0.726514
Si Si3 0.500921 0.713038 0.188253
Si Si4 0.927904 0.434939 0.938806
O O1 0.273852 0.439218 0.162739
O O2 0.477966 0.338591 0.146981
O O3 0.673019 0.422388 0.096099
O O4 0.175969 0.394745 0.075309
O O5 0.500000 0.095670 0.750000
O O6 0.000000 0.095480 0.750000
O O7 0.742789 0.000000 0.750000
O O8 0.500000 0.692656 0.250000
O O9 0.250000 0.750000 0.173975
O O10 0.750000 0.750000 0.176514
O O11 0.000000 0.500000 0.930334
O O12 0.854260 0.422229 0.000000
#
# Coordination Sequence:
#
# PCOD8277262 Si02
#       4
#    16  16  16  16
#     4  12  23  40  70  91 126 177 213 263 330 373
#     4  10  22  34  52  89 131 160 194 250 304 380
#     4  10  22  41  65  95 131 167 213 259 314 396
#     4  11  26  44  64  93 129 172 223 268 320 388
#
# _framework density 21.033556999999998
#
# number of rings (size 3 to 8) (size 9 to 14) (size 15 to 20)
#    0.000    1.250    0.000    5.250   10.500    5.000 
#    0.000    0.000    0.000   15.000    0.000    0.000 
#    0.000    0.000    0.000    0.000    0.000    0.000 
#
# Total GULP energy -396563.726906 kJ/mol
# GULP energy per Si atom -12392.616466 kJ/mol
# Density = 2.098568 g / cm^3
# Si number density = 21.033557 Si / 1000 Ang^3
#
#
#
# Elastic Constant Matrix: (Units=GPa)
#
#
# Indices 1 2 3 4 5 6 
#
# 1 221.0502 50.4614 73.4275 0.0000 0.0000 0.0000
# 2 50.4614 104.0777 66.8588 0.0000 0.0000 0.0000
# 3 73.4275 66.8588 132.7730 0.0000 0.0000 0.0000
# 4 0.0000 0.0000 0.0000 28.9058 0.0000 0.0000
# 5 0.0000 0.0000 0.0000 0.0000 47.6486 0.0000
# 6 0.0000 0.0000 0.0000 0.0000 0.0000 2.9091
#
#
#
# Elastic Compliance Matrix: (Units=1/GPa)
#
#
# Indices 1 2 3 4 5 6 
#
# 1 0.005622 -0.001077 -0.002567 0.000000 0.000000 0.000000
# 2 -0.001077 0.014409 -0.006660 0.000000 0.000000 0.000000
# 3 -0.002567 -0.006660 0.012305 0.000000 0.000000 0.000000
# 4 0.000000 0.000000 0.000000 0.034595 0.000000 0.000000
# 5 0.000000 0.000000 0.000000 0.000000 0.020987 0.000000
# 6 0.000000 0.000000 0.000000 0.000000 0.000000 0.343754
#
#
# Mechanical properties :
#
#
# Convention : Reuss Voigt Hill
#
# Bulk Modulus (GPa) = 85.26541 93.26627 89.26584
# Shear Modulus (GPa) = 10.96036 33.70292 22.33164
#
# Velocity S-wave (km/s) = 2.28521 4.00727 3.26193
# Velocity P-wave (km/s) = 6.89846 8.11473 7.53119
#
# Compressibility (1/GPa) = 0.01172808
#
# Stress axis : x y z
#
# Youngs Moduli (GPa) = 177.85943 69.40251 81.26756
#
# Poissons Ratio (x) = 0.07474 0.20862
# Poissons Ratio (y) = 0.19154 0.54125
# Poissons Ratio (z) = 0.45658 0.46222
#
# Static dielectric constant tensor:
#      x y z
#    x 3.949230 0.000000 0.000000 
#    y 0.000000 3.317330 0.000000 
#    z 0.000000 0.000000 4.006530 
# 
# 
# High freq. dielectric constant tensor:
#      x y z
#    x 1.860780 0.000000 0.000000 
#    y 0.000000 1.803790 0.000000 
#    z 0.000000 0.000000 1.819490 
# 
# From -- ./inp_files/54118.got.cif
#   From: 2010.03.12/outbox.cif.g09.slc.cpg/sg66_28_cif.got.tgz:54118.got - 2010.04.10 21:57:39.
