data_PCOD8277469
_publ_section_title
;
Structure prediction by ZEFSAII (Michael W. Deem and Ramdas Pophale) SiO2 
 PCOD8277469
Probable space group: C C C M
;
_chemical_formula_sum "Si O2"
_cell_formula_units_Z 96
_cell_length_a 14.900865
_cell_length_b 19.002701
_cell_length_c 14.298177
_cell_angle_alpha 90.000000
_cell_angle_beta 90.000000
_cell_angle_gamma 90.000000
_cell_volume 4048.624361
_symmetry_space_group_name_H-M "C C C M"
_symmetry_group_IT_number 66
_symmetry_cell_setting 'orthorhombic'
loop_
_space_group_symop_operation_xyz
x,y,z
-x,-y,z
x,-y,1/2-z
-x,y,1/2-z
-x,-y,-z
x,y,-z
-x,y,1/2+z
x,-y,1/2+z
1/2+x,1/2+y,z
1/2-x,1/2-y,z
1/2+x,1/2-y,1/2-z
1/2-x,1/2+y,1/2-z
1/2-x,1/2-y,-z
1/2+x,1/2+y,-z
1/2-x,1/2+y,1/2+z
1/2+x,1/2-y,1/2+z
loop_
_atom_site_type_symbol
_atom_site_label
_atom_site_fract_x
_atom_site_fract_y
_atom_site_fract_z
Si Si1 0.136793 0.311491 0.603205
Si Si2 0.586632 0.965098 0.394000
Si Si3 0.469095 0.724719 0.601685
Si Si4 0.180845 0.695711 0.304359
Si Si5 0.450045 0.434495 0.848072
Si Si6 0.247984 0.445132 0.110929
O O1 0.186018 0.312245 0.500000
O O2 0.076281 0.381500 0.613144
O O3 0.202671 0.311722 0.692563
O O4 0.073821 0.243358 0.610642
O O5 0.586180 0.992939 0.500000
O O6 0.500000 0.000000 0.342336
O O7 0.683701 0.990628 0.354618
O O8 0.433306 0.749384 0.500000
O O9 0.416516 0.768705 0.680695
O O10 0.460125 0.640588 0.603186
O O11 0.250000 0.750000 0.349791
O O12 0.191991 0.623186 0.358050
O O13 0.500000 0.500000 0.901831
O O14 0.500000 0.427999 0.750000
O O15 0.343944 0.451213 0.837588
O O16 0.266289 0.444220 0.000000
#
# Coordination Sequence:
#
# PCOD8277469 Si02
#       6
#    16  16  16  16  16  16
#     4  10  23  42  64  93 133 180 221 270 341 422
#     4   9  19  40  69 102 140 177 220 278 349 424
#     4  11  23  43  69  98 133 174 230 285 347 412
#     4  12  24  39  67  96 132 168 221 291 343 400
#     4  11  25  43  66  94 135 183 235 289 343 405
#     4  11  24  43  70 105 139 179 232 288 348 411
#
# _framework density 23.711758
#
# number of rings (size 3 to 8) (size 9 to 14) (size 15 to 20)
#    0.000    1.333    1.667    3.500    0.000    8.333 
#    0.000    0.833    0.000    0.000    0.000    0.000 
#    0.000    0.000    0.000    0.000    0.000    0.000 
#
# Total GULP energy -594757.196200 kJ/mol
# GULP energy per Si atom -12390.774921 kJ/mol
# Density = 2.365779 g / cm^3
# Si number density = 23.711758 Si / 1000 Ang^3
#
#
#
# Elastic Constant Matrix: (Units=GPa)
#
#
# Indices 1 2 3 4 5 6 
#
# 1 127.8444 47.9074 13.2781 0.0000 0.0000 0.0000
# 2 47.9074 120.6362 -4.2801 0.0000 0.0000 0.0000
# 3 13.2781 -4.2801 99.5404 0.0000 0.0000 0.0000
# 4 0.0000 0.0000 0.0000 27.8419 0.0000 0.0000
# 5 0.0000 0.0000 0.0000 0.0000 20.1119 0.0000
# 6 0.0000 0.0000 0.0000 0.0000 0.0000 43.8598
#
#
#
# Elastic Compliance Matrix: (Units=1/GPa)
#
#
# Indices 1 2 3 4 5 6 
#
# 1 0.009384 -0.003777 -0.001414 0.000000 0.000000 0.000000
# 2 -0.003777 0.009822 0.000926 0.000000 0.000000 0.000000
# 3 -0.001414 0.000926 0.010275 0.000000 0.000000 0.000000
# 4 0.000000 0.000000 0.000000 0.035917 0.000000 0.000000
# 5 0.000000 0.000000 0.000000 0.000000 0.049722 0.000000
# 6 0.000000 0.000000 0.000000 0.000000 0.000000 0.022800
#
#
# Mechanical properties :
#
#
# Convention : Reuss Voigt Hill
#
# Bulk Modulus (GPa) = 47.73008 51.31465 49.52236
# Shear Modulus (GPa) = 32.58745 37.77043 35.17894
#
# Velocity S-wave (km/s) = 3.71120 3.99544 3.85594
# Velocity P-wave (km/s) = 6.20782 6.55536 6.38395
#
# Compressibility (1/GPa) = 0.02095115
#
# Stress axis : x y z
#
# Youngs Moduli (GPa) = 106.56210 101.81096 97.32702
#
# Poissons Ratio (x) = 0.38453 0.13764
# Poissons Ratio (y) = 0.40247 -0.09014
# Poissons Ratio (z) = 0.15070 -0.09429
#
# Static dielectric constant tensor:
#      x y z
#    x 4.073280 0.000000 0.000000 
#    y 0.000000 4.627440 0.000000 
#    z 0.000000 0.000000 4.306150 
# 
# 
# High freq. dielectric constant tensor:
#      x y z
#    x 1.923900 0.000000 0.000000 
#    y 0.000000 1.949230 0.000000 
#    z 0.000000 0.000000 1.940100 
# 
# From -- ./inp_files/28325.got.cif
#   From: 2010.03.12/outbox.cif.g09.slc.cpg/sg66_15_cif.got.tgz:28325.got - 2010.04.10 21:57:39.
