data_PCOD8277764
_publ_section_title
;
Structure prediction by ZEFSAII (Michael W. Deem and Ramdas Pophale) SiO2 
 PCOD8277764
Probable space group: C C C M
;
_chemical_formula_sum "Si O2"
_cell_formula_units_Z 64
_cell_length_a 10.868402
_cell_length_b 17.061376
_cell_length_c 15.789280
_cell_angle_alpha 90.000000
_cell_angle_beta 90.000000
_cell_angle_gamma 90.000000
_cell_volume 2927.804502
_symmetry_space_group_name_H-M "C C C M"
_symmetry_group_IT_number 66
_symmetry_cell_setting 'orthorhombic'
loop_
_space_group_symop_operation_xyz
x,y,z
-x,-y,z
x,-y,1/2-z
-x,y,1/2-z
-x,-y,-z
x,y,-z
-x,y,1/2+z
x,-y,1/2+z
1/2+x,1/2+y,z
1/2-x,1/2-y,z
1/2+x,1/2-y,1/2-z
1/2-x,1/2+y,1/2-z
1/2-x,1/2-y,-z
1/2+x,1/2+y,-z
1/2-x,1/2+y,1/2+z
1/2+x,1/2-y,1/2+z
loop_
_atom_site_type_symbol
_atom_site_label
_atom_site_fract_x
_atom_site_fract_y
_atom_site_fract_z
Si Si1 0.486084 0.388785 0.346596
Si Si2 0.888902 0.260330 0.597812
Si Si3 0.304785 0.504356 0.595636
Si Si4 0.931817 0.570873 0.840214
O O1 0.500000 0.414145 0.250000
O O2 0.512198 0.296288 0.356800
O O3 0.581813 0.435788 0.404205
O O4 0.349731 0.416614 0.377028
O O5 0.886052 0.238328 0.500000
O O6 0.750000 0.250000 0.635622
O O7 0.938821 0.347835 0.610156
O O8 0.250718 0.502256 0.500000
O O9 0.208556 0.540225 0.663497
O O10 0.000000 0.500000 0.890494
O O11 0.000000 0.581031 0.750000
#
# Coordination Sequence:
#
# PCOD8277764 Si02
#       4
#    16  16  16  16
#     4  11  23  38  70 103 135 172 223 283 339 397
#     4  11  22  42  69  99 135 176 225 277 338 409
#     4  11  22  41  68 100 134 173 224 279 337 404
#     4  11  26  42  66  95 137 181 223 274 341 409
#
# _framework density 21.859383000000001
#
# number of rings (size 3 to 8) (size 9 to 14) (size 15 to 20)
#    0.000    1.000    2.500    6.000    7.000    2.000 
#    0.000    1.250    0.000    3.000    0.000    0.000 
#    0.000    0.000    0.000    0.000    0.000    0.000 
#
# Total GULP energy -396547.455708 kJ/mol
# GULP energy per Si atom -12392.107991 kJ/mol
# Density = 2.180963 g / cm^3
# Si number density = 21.859383 Si / 1000 Ang^3
#
#
#
# Elastic Constant Matrix: (Units=GPa)
#
#
# Indices 1 2 3 4 5 6 
#
# 1 85.3324 47.0735 35.0332 0.0000 0.0000 0.0000
# 2 47.0735 171.7560 15.1098 0.0000 0.0000 0.0000
# 3 35.0332 15.1098 101.8060 0.0000 0.0000 0.0000
# 4 0.0000 0.0000 0.0000 16.3444 0.0000 0.0000
# 5 0.0000 0.0000 0.0000 0.0000 30.4888 0.0000
# 6 0.0000 0.0000 0.0000 0.0000 0.0000 42.5360
#
#
#
# Elastic Compliance Matrix: (Units=1/GPa)
#
#
# Indices 1 2 3 4 5 6 
#
# 1 0.015890 -0.003925 -0.004885 0.000000 0.000000 0.000000
# 2 -0.003925 0.006869 0.000331 0.000000 0.000000 0.000000
# 3 -0.004885 0.000331 0.011455 0.000000 0.000000 0.000000
# 4 0.000000 0.000000 0.000000 0.061183 0.000000 0.000000
# 5 0.000000 0.000000 0.000000 0.000000 0.032799 0.000000
# 6 0.000000 0.000000 0.000000 0.000000 0.000000 0.023509
#
#
# Mechanical properties :
#
#
# Convention : Reuss Voigt Hill
#
# Bulk Modulus (GPa) = 57.95535 61.48082 59.71809
# Shear Modulus (GPa) = 28.66721 35.31901 31.99311
#
# Velocity S-wave (km/s) = 3.62531 4.02398 3.82984
# Velocity P-wave (km/s) = 6.64034 7.05525 6.85094
#
# Compressibility (1/GPa) = 0.01725466
#
# Stress axis : x y z
#
# Youngs Moduli (GPa) = 62.93296 145.58459 87.30121
#
# Poissons Ratio (x) = 0.57145 0.42650
# Poissons Ratio (y) = 0.24702 -0.02892
# Poissons Ratio (z) = 0.30745 -0.04823
#
# Static dielectric constant tensor:
#      x y z
#    x 4.178970 0.000000 0.000000 
#    y 0.000000 4.262020 0.000000 
#    z 0.000000 0.000000 3.671290 
# 
# 
# High freq. dielectric constant tensor:
#      x y z
#    x 1.845790 0.000000 0.000000 
#    y 0.000000 1.866130 0.000000 
#    z 0.000000 0.000000 1.851590 
# 
# From -- ./inp_files/25769.got.cif
#   From: 2010.03.12/outbox.cif.g09.slc.cpg/sg66_13_cif.got.tgz:25769.got - 2010.04.10 21:57:39.
