data_PCOD8277650
_publ_section_title
;
Structure prediction by ZEFSAII (Michael W. Deem and Ramdas Pophale) SiO2 
 PCOD8277650
Probable space group: C C C M
;
_chemical_formula_sum "Si O2"
_cell_formula_units_Z 64
_cell_length_a 41.331546
_cell_length_b 9.803233
_cell_length_c 8.567332
_cell_angle_alpha 90.000000
_cell_angle_beta 90.000000
_cell_angle_gamma 90.000000
_cell_volume 3471.335360
_symmetry_space_group_name_H-M "C C C M"
_symmetry_group_IT_number 66
_symmetry_cell_setting 'orthorhombic'
loop_
_space_group_symop_operation_xyz
x,y,z
-x,-y,z
x,-y,1/2-z
-x,y,1/2-z
-x,-y,-z
x,y,-z
-x,y,1/2+z
x,-y,1/2+z
1/2+x,1/2+y,z
1/2-x,1/2-y,z
1/2+x,1/2-y,1/2-z
1/2-x,1/2+y,1/2-z
1/2-x,1/2-y,-z
1/2+x,1/2+y,-z
1/2-x,1/2+y,1/2+z
1/2+x,1/2-y,1/2+z
loop_
_atom_site_type_symbol
_atom_site_label
_atom_site_fract_x
_atom_site_fract_y
_atom_site_fract_z
Si Si1 0.087208 0.847293 0.183982
Si Si2 0.776901 0.850247 0.182620
Si Si3 0.035115 0.355325 0.815529
Si Si4 0.652152 0.649472 0.817403
O O1 0.059165 0.762534 0.264488
O O2 0.122029 0.778487 0.228822
O O3 0.085814 0.000000 0.250000
O O4 0.082185 0.847027 0.000000
O O5 0.750000 0.750000 0.256809
O O6 0.812588 0.783984 0.215874
O O7 0.772557 0.000000 0.250000
O O8 0.771400 0.865123 0.000000
O O9 0.047447 0.500000 0.750000
O O10 0.000000 0.318169 0.750000
O O11 0.033241 0.364619 0.000000
O O12 0.655250 0.500000 0.750000
O O13 0.643938 0.645256 0.000000
#
# Coordination Sequence:
#
# PCOD8277650 Si02
#       4
#    16  16  16  16
#     4  11  21  35  55  81 108 137 175 219 263 308
#     4   9  18  32  50  73 101 133 170 212 257 307
#     4  11  22  39  59  81 108 141 176 211 256 310
#     4   9  16  29  49  72 100 134 170 211 259 309
#
# _framework density 18.436709
#
# number of rings (size 3 to 8) (size 9 to 14) (size 15 to 20)
#    0.000    2.000    0.000    7.500    0.000    2.000 
#    0.000    3.750    0.000    3.000    0.000    0.000 
#    0.000    0.000    0.000    0.000    0.000    0.000 
#
# Total GULP energy -396595.917139 kJ/mol
# GULP energy per Si atom -12393.622411 kJ/mol
# Density = 1.839475 g / cm^3
# Si number density = 18.436709 Si / 1000 Ang^3
#
#
#
# Elastic Constant Matrix: (Units=GPa)
#
#
# Indices 1 2 3 4 5 6 
#
# 1 145.1160 66.4925 53.5955 0.0000 0.0000 0.0000
# 2 66.4925 70.5612 31.0440 0.0000 0.0000 0.0000
# 3 53.5955 31.0440 126.9671 0.0000 0.0000 0.0000
# 4 0.0000 0.0000 0.0000 23.0401 0.0000 0.0000
# 5 0.0000 0.0000 0.0000 0.0000 31.7901 0.0000
# 6 0.0000 0.0000 0.0000 0.0000 0.0000 31.2311
#
#
#
# Elastic Compliance Matrix: (Units=1/GPa)
#
#
# Indices 1 2 3 4 5 6 
#
# 1 0.012949 -0.010978 -0.002782 0.000000 0.000000 0.000000
# 2 -0.010978 0.025188 -0.001524 0.000000 0.000000 0.000000
# 3 -0.002782 -0.001524 0.009423 0.000000 0.000000 0.000000
# 4 0.000000 0.000000 0.000000 0.043403 0.000000 0.000000
# 5 0.000000 0.000000 0.000000 0.000000 0.031456 0.000000
# 6 0.000000 0.000000 0.000000 0.000000 0.000000 0.032019
#
#
# Mechanical properties :
#
#
# Convention : Reuss Voigt Hill
#
# Bulk Modulus (GPa) = 58.85477 71.65649 65.25563
# Shear Modulus (GPa) = 26.22334 29.97976 28.10155
#
# Velocity S-wave (km/s) = 3.77549 4.03686 3.90836
# Velocity P-wave (km/s) = 7.14126 7.78966 7.47250
#
# Compressibility (1/GPa) = 0.01699098
#
# Stress axis : x y z
#
# Youngs Moduli (GPa) = 77.22842 39.70163 106.12341
#
# Poissons Ratio (x) = 0.43585 0.29520
# Poissons Ratio (y) = 0.84782 0.16178
# Poissons Ratio (z) = 0.21483 0.06052
#
# Static dielectric constant tensor:
#      x y z
#    x 4.292180 0.000000 0.000000 
#    y 0.000000 3.137780 0.000000 
#    z 0.000000 0.000000 3.547000 
# 
# 
# High freq. dielectric constant tensor:
#      x y z
#    x 1.739400 0.000000 0.000000 
#    y 0.000000 1.675780 0.000000 
#    z 0.000000 0.000000 1.730700 
# 
# From -- ./inp_files/11201.got.cif
#   From: 2010.03.12/outbox.cif.g09.slc.cpg/sg66_6_cif.got.tgz:11201.got - 2010.04.10 21:57:39.
