data_PCOD8277922
_publ_section_title
;
Structure prediction by ZEFSAII (Michael W. Deem and Ramdas Pophale) SiO2 
 PCOD8277922
Probable space group: C C C M
;
_chemical_formula_sum "Si O2"
_cell_formula_units_Z 96
_cell_length_a 32.166083
_cell_length_b 18.906805
_cell_length_c 9.588403
_cell_angle_alpha 90.000000
_cell_angle_beta 90.000000
_cell_angle_gamma 90.000000
_cell_volume 5831.262639
_symmetry_space_group_name_H-M "C C C M"
_symmetry_group_IT_number 66
_symmetry_cell_setting 'orthorhombic'
loop_
_space_group_symop_operation_xyz
x,y,z
-x,-y,z
x,-y,1/2-z
-x,y,1/2-z
-x,-y,-z
x,y,-z
-x,y,1/2+z
x,-y,1/2+z
1/2+x,1/2+y,z
1/2-x,1/2-y,z
1/2+x,1/2-y,1/2-z
1/2-x,1/2+y,1/2-z
1/2-x,1/2-y,-z
1/2+x,1/2+y,-z
1/2-x,1/2+y,1/2+z
1/2+x,1/2-y,1/2+z
loop_
_atom_site_type_symbol
_atom_site_label
_atom_site_fract_x
_atom_site_fract_y
_atom_site_fract_z
Si Si1 0.333387 0.847301 0.664533
Si Si2 0.459765 0.209657 0.161168
Si Si3 0.411672 0.067617 0.838058
Si Si4 0.660639 0.431184 0.662755
Si Si5 0.755822 0.567506 0.161037
Si Si6 0.877674 0.787997 0.834922
O O1 0.339186 0.841759 0.500000
O O2 0.366355 0.906456 0.715526
O O3 0.286463 0.868570 0.706585
O O4 0.345188 0.770234 0.727132
O O5 0.500000 0.227675 0.250000
O O6 0.444662 0.129963 0.189112
O O7 0.424220 0.265577 0.207039
O O8 0.470940 0.220140 0.000000
O O9 0.425934 0.000000 0.750000
O O10 0.410797 0.046282 0.000000
O O11 0.647889 0.500000 0.750000
O O12 0.652616 0.447100 0.500000
O O13 0.708580 0.409672 0.689327
O O14 0.633261 0.366083 0.721807
O O15 0.768524 0.500000 0.250000
O O16 0.762988 0.547874 0.000000
O O17 0.872554 0.790142 0.000000
#
# Coordination Sequence:
#
# PCOD8277922 Si02
#       6
#    16  16  16  16  16  16
#     4   8  14  25  41  62  87 115 149 183 209 237
#     4   9  18  32  48  65  85 110 141 177 216 256
#     4   9  17  28  42  61  87 118 148 178 210 244
#     4   9  17  29  46  67  89 113 140 172 212 256
#     4   9  16  25  40  63  89 117 148 179 208 241
#     4   8  15  29  47  65  86 112 141 175 215 254
#
# _framework density 16.462986999999998
#
# number of rings (size 3 to 8) (size 9 to 14) (size 15 to 20)
#    0.000    3.333    0.000    2.500    0.000    1.667 
#    0.000    5.833    0.000    3.500    0.000    8.167 
#    0.000    0.000    0.000    0.000    0.000    0.000 
#
# Total GULP energy -594917.502209 kJ/mol
# GULP energy per Si atom -12394.114629 kJ/mol
# Density = 1.642552 g / cm^3
# Si number density = 16.462987 Si / 1000 Ang^3
#
#
#
# Elastic Constant Matrix: (Units=GPa)
#
#
# Indices 1 2 3 4 5 6 
#
# 1 95.3847 78.5200 39.1925 0.0000 0.0000 0.0000
# 2 78.5200 137.7185 47.1709 0.0000 0.0000 0.0000
# 3 39.1925 47.1709 39.8949 0.0000 0.0000 0.0000
# 4 0.0000 0.0000 0.0000 21.4002 0.0000 0.0000
# 5 0.0000 0.0000 0.0000 0.0000 29.2029 0.0000
# 6 0.0000 0.0000 0.0000 0.0000 0.0000 16.1328
#
#
#
# Elastic Compliance Matrix: (Units=1/GPa)
#
#
# Indices 1 2 3 4 5 6 
#
# 1 0.022601 -0.008876 -0.011709 0.000000 0.000000 0.000000
# 2 -0.008876 0.015689 -0.009831 0.000000 0.000000 0.000000
# 3 -0.011709 -0.009831 0.048192 0.000000 0.000000 0.000000
# 4 0.000000 0.000000 0.000000 0.046728 0.000000 0.000000
# 5 0.000000 0.000000 0.000000 0.000000 0.034243 0.000000
# 6 0.000000 0.000000 0.000000 0.000000 0.000000 0.061985
#
#
# Mechanical properties :
#
#
# Convention : Reuss Voigt Hill
#
# Bulk Modulus (GPa) = 38.98379 66.97387 52.97883
# Shear Modulus (GPa) = 16.73242 20.55483 18.64363
#
# Velocity S-wave (km/s) = 3.19151 3.53731 3.36885
# Velocity P-wave (km/s) = 6.10836 7.57979 6.88351
#
# Compressibility (1/GPa) = 0.02565169
#
# Stress axis : x y z
#
# Youngs Moduli (GPa) = 44.24527 63.73978 20.75012
#
# Poissons Ratio (x) = 0.56573 0.24296
# Poissons Ratio (y) = 0.39270 0.20399
# Poissons Ratio (z) = 0.51807 0.62661
#
# Static dielectric constant tensor:
#      x y z
#    x 3.064620 0.000000 0.000000 
#    y 0.000000 3.263600 0.000000 
#    z 0.000000 0.000000 2.774660 
# 
# 
# High freq. dielectric constant tensor:
#      x y z
#    x 1.627620 0.000000 0.000000 
#    y 0.000000 1.627390 0.000000 
#    z 0.000000 0.000000 1.598080 
# 
# From -- ./inp_files/7987.got.cif
#   From: 2010.03.12/outbox.cif.g09.slc.cpg/sg66_4_cif.got.tgz:7987.got - 2010.04.10 21:57:39.
