data_PCOD8277751
_publ_section_title
;
Structure prediction by ZEFSAII (Michael W. Deem and Ramdas Pophale) SiO2 
 PCOD8277751
Probable space group: C C C M
;
_chemical_formula_sum "Si O2"
_cell_formula_units_Z 80
_cell_length_a 11.248428
_cell_length_b 17.137199
_cell_length_c 20.285376
_cell_angle_alpha 90.000000
_cell_angle_beta 90.000000
_cell_angle_gamma 90.000000
_cell_volume 3910.341928
_symmetry_space_group_name_H-M "C C C M"
_symmetry_group_IT_number 66
_symmetry_cell_setting 'orthorhombic'
loop_
_space_group_symop_operation_xyz
x,y,z
-x,-y,z
x,-y,1/2-z
-x,y,1/2-z
-x,-y,-z
x,y,-z
-x,y,1/2+z
x,-y,1/2+z
1/2+x,1/2+y,z
1/2-x,1/2-y,z
1/2+x,1/2-y,1/2-z
1/2-x,1/2+y,1/2-z
1/2-x,1/2-y,-z
1/2+x,1/2+y,-z
1/2-x,1/2+y,1/2+z
1/2+x,1/2-y,1/2+z
loop_
_atom_site_type_symbol
_atom_site_label
_atom_site_fract_x
_atom_site_fract_y
_atom_site_fract_z
Si Si1 0.719291 0.839888 0.875469
Si Si2 0.842979 0.081952 0.500000
Si Si3 0.999660 0.413283 0.927974
Si Si4 0.139543 0.408165 0.253443
Si Si5 0.622948 0.591236 0.500000
Si Si6 0.731685 0.159162 0.111046
O O1 0.750000 0.750000 0.874491
O O2 0.796039 0.880562 0.932289
O O3 0.580252 0.853056 0.888612
O O4 0.730241 0.875304 0.802302
O O5 0.982953 0.087522 0.500000
O O6 0.808270 0.991349 0.500000
O O7 0.876092 0.368288 0.935596
O O8 0.000000 0.500000 0.893041
O O9 0.056412 0.426895 0.000000
O O10 0.141024 0.500000 0.250000
O O11 0.205791 0.382985 0.320127
O O12 0.000000 0.378847 0.250000
O O13 0.653618 0.633816 0.431014
O O14 0.750000 0.250000 0.124149
#
# Coordination Sequence:
#
# PCOD8277751 Si02
#       6
#    16   8  16  16   8  16
#     4  12  25  40  66  99 136 168 216 279 332 383
#     4  11  25  43  65  93 133 179 219 257 321 405
#     4  11  22  39  69 101 130 171 227 279 327 385
#     4  11  23  42  69  97 128 169 223 278 334 394
#     4  11  25  43  65  93 133 179 219 257 321 405
#     4  12  25  40  66  99 136 168 216 279 332 383
#
# _framework density 20.458568
#
# number of rings (size 3 to 8) (size 9 to 14) (size 15 to 20)
#    0.000    0.600    4.000    4.800    2.800    0.000 
#    0.000    1.000    0.000    3.600    0.000    0.000 
#    0.000    0.000    0.000    0.000    0.000    0.000 
#
# Total GULP energy -495594.022310 kJ/mol
# GULP energy per Si atom -12389.850558 kJ/mol
# Density = 2.041200 g / cm^3
# Si number density = 20.458568 Si / 1000 Ang^3
#
#
#
# Elastic Constant Matrix: (Units=GPa)
#
#
# Indices 1 2 3 4 5 6 
#
# 1 60.8958 40.1641 34.0212 0.0000 0.0000 0.0000
# 2 40.1641 149.6211 55.2255 0.0000 0.0000 0.0000
# 3 34.0212 55.2255 176.8551 0.0000 0.0000 0.0000
# 4 0.0000 0.0000 0.0000 33.9817 0.0000 0.0000
# 5 0.0000 0.0000 0.0000 0.0000 18.2926 0.0000
# 6 0.0000 0.0000 0.0000 0.0000 0.0000 35.1219
#
#
#
# Elastic Compliance Matrix: (Units=1/GPa)
#
#
# Indices 1 2 3 4 5 6 
#
# 1 0.020938 -0.004673 -0.002569 0.000000 0.000000 0.000000
# 2 -0.004673 0.008597 -0.001786 0.000000 0.000000 0.000000
# 3 -0.002569 -0.001786 0.006706 0.000000 0.000000 0.000000
# 4 0.000000 0.000000 0.000000 0.029428 0.000000 0.000000
# 5 0.000000 0.000000 0.000000 0.000000 0.054667 0.000000
# 6 0.000000 0.000000 0.000000 0.000000 0.000000 0.028472
#
#
# Mechanical properties :
#
#
# Convention : Reuss Voigt Hill
#
# Bulk Modulus (GPa) = 54.98302 71.79929 63.39116
# Shear Modulus (GPa) = 28.91430 34.67664 31.79547
#
# Velocity S-wave (km/s) = 3.76348 4.12147 3.94653
# Velocity P-wave (km/s) = 6.76895 7.60393 7.19856
#
# Compressibility (1/GPa) = 0.01818743
#
# Stress axis : x y z
#
# Youngs Moduli (GPa) = 47.75908 116.32053 149.11788
#
# Poissons Ratio (x) = 0.54351 0.38306
# Poissons Ratio (y) = 0.22316 0.26628
# Poissons Ratio (z) = 0.12268 0.20771
#
# Static dielectric constant tensor:
#      x y z
#    x 3.688980 0.000000 0.000000 
#    y 0.000000 3.743640 0.000000 
#    z 0.000000 0.000000 4.161750 
# 
# 
# High freq. dielectric constant tensor:
#      x y z
#    x 1.788700 0.000000 0.000000 
#    y 0.000000 1.803750 0.000000 
#    z 0.000000 0.000000 1.824250 
# 
# From -- ./inp_files/48481.got.cif
#   From: 2010.03.12/outbox.cif.g09.slc.cpg/sg66_25_cif.got.tgz:48481.got - 2010.04.10 21:57:39.
