data_PCOD8277137
_publ_section_title
;
Structure prediction by ZEFSAII (Michael W. Deem and Ramdas Pophale) SiO2 
 PCOD8277137
Probable space group: C C C M
;
_chemical_formula_sum "Si O2"
_cell_formula_units_Z 72
_cell_length_a 13.179878
_cell_length_b 15.994772
_cell_length_c 17.928050
_cell_angle_alpha 90.000000
_cell_angle_beta 90.000000
_cell_angle_gamma 90.000000
_cell_volume 3779.396867
_symmetry_space_group_name_H-M "C C C M"
_symmetry_group_IT_number 66
_symmetry_cell_setting 'orthorhombic'
loop_
_space_group_symop_operation_xyz
x,y,z
-x,-y,z
x,-y,1/2-z
-x,y,1/2-z
-x,-y,-z
x,y,-z
-x,y,1/2+z
x,-y,1/2+z
1/2+x,1/2+y,z
1/2-x,1/2-y,z
1/2+x,1/2-y,1/2-z
1/2-x,1/2+y,1/2-z
1/2-x,1/2-y,-z
1/2+x,1/2+y,-z
1/2-x,1/2+y,1/2+z
1/2+x,1/2-y,1/2+z
loop_
_atom_site_type_symbol
_atom_site_label
_atom_site_fract_x
_atom_site_fract_y
_atom_site_fract_z
Si Si1 0.754260 0.090191 0.211239
Si Si2 0.250000 0.750000 0.682470
Si Si3 0.944756 0.730797 0.084638
Si Si4 0.467337 0.906559 0.827878
Si Si5 0.840499 0.816508 0.585272
O O1 0.748137 0.164707 0.270832
O O2 0.652419 0.092825 0.162860
O O3 0.836169 0.108565 0.146120
O O4 0.774134 0.000000 0.250000
O O5 0.149200 0.761409 0.633469
O O6 0.974470 0.635681 0.103528
O O7 0.047869 0.781004 0.100362
O O8 0.909275 0.737350 0.000000
O O9 0.500000 0.861533 0.750000
O O10 0.500000 0.000000 0.825212
O O11 0.830960 0.849223 0.500000
O O12 0.750000 0.750000 0.601658
#
# Coordination Sequence:
#
# PCOD8277137 Si02
#       5
#    16   8  16  16  16
#     4  12  22  37  65  96 122 161 207 255 314 367
#     4  12  23  40  61  88 130 164 202 258 303 372
#     4  11  23  39  60  87 121 166 206 248 312 369
#     4  11  19  35  58  89 124 150 191 256 319 368
#     4  10  21  39  63  89 120 159 206 254 300 358
#
# _framework density 19.050659
#
# number of rings (size 3 to 8) (size 9 to 14) (size 15 to 20)
#    0.000    0.889    7.778    0.333    0.000    0.444 
#    0.000    6.667    0.000    2.667    0.000    0.000 
#    0.000    0.000    0.000    0.000    0.000    0.000 
#
# Total GULP energy -446080.235047 kJ/mol
# GULP energy per Si atom -12391.117640 kJ/mol
# Density = 1.900730 g / cm^3
# Si number density = 19.050659 Si / 1000 Ang^3
#
#
#
# Elastic Constant Matrix: (Units=GPa)
#
#
# Indices 1 2 3 4 5 6 
#
# 1 117.3724 36.5734 63.2316 0.0000 0.0000 0.0000
# 2 36.5734 101.0469 55.5857 0.0000 0.0000 0.0000
# 3 63.2316 55.5857 103.9068 0.0000 0.0000 0.0000
# 4 0.0000 0.0000 0.0000 40.6140 0.0000 0.0000
# 5 0.0000 0.0000 0.0000 0.0000 27.0606 0.0000
# 6 0.0000 0.0000 0.0000 0.0000 0.0000 179.2029
#
#
#
# Elastic Compliance Matrix: (Units=1/GPa)
#
#
# Indices 1 2 3 4 5 6 
#
# 1 0.012692 -0.000489 -0.007462 0.000000 0.000000 0.000000
# 2 -0.000489 0.014042 -0.007214 0.000000 0.000000 0.000000
# 3 -0.007462 -0.007214 0.018024 0.000000 0.000000 0.000000
# 4 0.000000 0.000000 0.000000 0.024622 0.000000 0.000000
# 5 0.000000 0.000000 0.000000 0.000000 0.036954 0.000000
# 6 0.000000 0.000000 0.000000 0.000000 0.000000 0.005580
#
#
# Mechanical properties :
#
#
# Convention : Reuss Voigt Hill
#
# Bulk Modulus (GPa) = 69.31095 70.34527 69.82811
# Shear Modulus (GPa) = 34.00081 60.50453 47.25267
#
# Velocity S-wave (km/s) = 4.22922 5.64170 4.98573
# Velocity P-wave (km/s) = 7.76594 8.91313 8.35924
#
# Compressibility (1/GPa) = 0.01442773
#
# Stress axis : x y z
#
# Youngs Moduli (GPa) = 78.78753 71.21530 55.48031
#
# Poissons Ratio (x) = 0.03482 0.41401
# Poissons Ratio (y) = 0.03853 0.40025
# Poissons Ratio (z) = 0.58793 0.51377
#
# Static dielectric constant tensor:
#      x y z
#    x 3.466010 0.000000 0.000000 
#    y 0.000000 3.358930 0.000000 
#    z 0.000000 0.000000 4.464580 
# 
# 
# High freq. dielectric constant tensor:
#      x y z
#    x 1.750910 0.000000 0.000000 
#    y 0.000000 1.719270 0.000000 
#    z 0.000000 0.000000 1.749320 
# 
# From -- ./inp_files/40041.got.cif
#   From: 2010.03.12/outbox.cif.g09.slc.cpg/sg66_21_cif.got.tgz:40041.got - 2010.04.10 21:57:39.
