data_PCOD8277295
_publ_section_title
;
Structure prediction by ZEFSAII (Michael W. Deem and Ramdas Pophale) SiO2 
 PCOD8277295
Probable space group: C C C M
;
_chemical_formula_sum "Si O2"
_cell_formula_units_Z 72
_cell_length_a 14.656932
_cell_length_b 13.397556
_cell_length_c 19.472408
_cell_angle_alpha 90.000000
_cell_angle_beta 90.000000
_cell_angle_gamma 90.000000
_cell_volume 3823.739651
_symmetry_space_group_name_H-M "C C C M"
_symmetry_group_IT_number 66
_symmetry_cell_setting 'orthorhombic'
loop_
_space_group_symop_operation_xyz
x,y,z
-x,-y,z
x,-y,1/2-z
-x,y,1/2-z
-x,-y,-z
x,y,-z
-x,y,1/2+z
x,-y,1/2+z
1/2+x,1/2+y,z
1/2-x,1/2-y,z
1/2+x,1/2-y,1/2-z
1/2-x,1/2+y,1/2-z
1/2-x,1/2-y,-z
1/2+x,1/2+y,-z
1/2-x,1/2+y,1/2+z
1/2+x,1/2-y,1/2+z
loop_
_atom_site_type_symbol
_atom_site_label
_atom_site_fract_x
_atom_site_fract_y
_atom_site_fract_z
Si Si1 0.777727 0.528492 0.855537
Si Si2 0.610114 0.309534 0.500000
Si Si3 0.570441 0.411072 0.635668
Si Si4 0.321583 0.161091 0.269932
Si Si5 0.000000 0.767413 0.750000
Si Si6 0.188287 0.603457 0.500000
O O1 0.669654 0.541654 0.857755
O O2 0.820148 0.612668 0.805970
O O3 0.797711 0.418481 0.828328
O O4 0.822519 0.537611 0.931121
O O5 0.556426 0.350138 0.565717
O O6 0.713024 0.347160 0.500000
O O7 0.610984 0.189239 0.500000
O O8 0.500000 0.500000 0.639370
O O9 0.554851 0.335047 0.696991
O O10 0.250000 0.250000 0.274496
O O11 0.423613 0.199023 0.286042
#
# Coordination Sequence:
#
# PCOD8277295 Si02
#       6
#    16   8  16  16   8   8
#     4  10  22  38  61  84 120 154 204 246 298 359
#     4   9  19  34  57  85 117 148 198 250 299 354
#     4  11  21  35  58  90 116 154 196 254 300 355
#     4  11  22  39  58  88 121 157 196 251 301 361
#     4  12  23  35  62  86 120 158 200 242 306 354
#     4   9  18  36  60  83 109 163 203 238 301 366
#
# _framework density 18.829733999999998
#
# number of rings (size 3 to 8) (size 9 to 14) (size 15 to 20)
#    0.000    1.556    2.222    3.333    6.222    1.778 
#    0.000    1.667    0.000    2.667    0.000    0.000 
#    0.000    0.000    0.000    0.000    0.000    0.000 
#
# Total GULP energy -446510.804452 kJ/mol
# GULP energy per Si atom -12403.077901 kJ/mol
# Density = 1.878688 g / cm^3
# Si number density = 18.829734 Si / 1000 Ang^3
#
#
#
# Elastic Constant Matrix: (Units=GPa)
#
#
# Indices 1 2 3 4 5 6 
#
# 1 81.5045 44.5640 13.4499 0.0000 0.0000 0.0000
# 2 44.5640 135.7710 63.5218 0.0000 0.0000 0.0000
# 3 13.4499 63.5218 130.4748 0.0000 0.0000 0.0000
# 4 0.0000 0.0000 0.0000 27.1820 0.0000 0.0000
# 5 0.0000 0.0000 0.0000 0.0000 -9.0076 0.0000
# 6 0.0000 0.0000 0.0000 0.0000 0.0000 16.9560
#
#
#
# Elastic Compliance Matrix: (Units=1/GPa)
#
#
# Indices 1 2 3 4 5 6 
#
# 1 0.015075 -0.005466 0.001107 0.000000 0.000000 0.000000
# 2 -0.005466 0.011520 -0.005045 0.000000 0.000000 0.000000
# 3 0.001107 -0.005045 0.010006 0.000000 0.000000 0.000000
# 4 0.000000 0.000000 0.000000 0.036789 0.000000 0.000000
# 5 0.000000 0.000000 0.000000 0.000000 -0.111017 0.000000
# 6 0.000000 0.000000 0.000000 0.000000 0.000000 0.058976
#
#
# Mechanical properties :
#
#
# Convention : Reuss Voigt Hill
#
# Bulk Modulus (GPa) = 56.20015 65.64686 60.92350
# Shear Modulus (GPa) = 108.48776 22.10706 65.29741
#
# Velocity S-wave (km/s) = 7.59870 3.43016 5.89518
# Velocity P-wave (km/s) = 10.33916 7.11527 8.87483
#
# Compressibility (1/GPa) = 0.01779355
#
# Stress axis : x y z
#
# Youngs Moduli (GPa) = 66.33390 86.80688 99.93670
#
# Poissons Ratio (x) = 0.47450 -0.11065
# Poissons Ratio (y) = 0.36259 0.50418
# Poissons Ratio (z) = -0.07344 0.43794
#
# Static dielectric constant tensor:
#      x y z
#    x 3.357310 0.000000 0.000000 
#    y 0.000000 3.561370 0.000000 
#    z 0.000000 0.000000 3.655700 
# 
# 
# High freq. dielectric constant tensor:
#      x y z
#    x 1.720980 0.000000 0.000000 
#    y 0.000000 1.738220 0.000000 
#    z 0.000000 0.000000 1.735750 
# 
# From -- ./inp_files/40066.got.cif
#   From: 2010.03.12/outbox.cif.g09.slc.cpg/sg66_21_cif.got.tgz:40066.got - 2010.04.10 21:57:39.
