data_PCOD8277407
_publ_section_title
;
Structure prediction by ZEFSAII (Michael W. Deem and Ramdas Pophale) SiO2 
 PCOD8277407
Probable space group: C C C M
;
_chemical_formula_sum "Si O2"
_cell_formula_units_Z 56
_cell_length_a 6.137559
_cell_length_b 18.869757
_cell_length_c 22.794839
_cell_angle_alpha 90.000000
_cell_angle_beta 90.000000
_cell_angle_gamma 90.000000
_cell_volume 2639.967112
_symmetry_space_group_name_H-M "C C C M"
_symmetry_group_IT_number 66
_symmetry_cell_setting 'orthorhombic'
loop_
_space_group_symop_operation_xyz
x,y,z
-x,-y,z
x,-y,1/2-z
-x,y,1/2-z
-x,-y,-z
x,y,-z
-x,y,1/2+z
x,-y,1/2+z
1/2+x,1/2+y,z
1/2-x,1/2-y,z
1/2+x,1/2-y,1/2-z
1/2-x,1/2+y,1/2-z
1/2-x,1/2-y,-z
1/2+x,1/2+y,-z
1/2-x,1/2+y,1/2+z
1/2+x,1/2-y,1/2+z
loop_
_atom_site_type_symbol
_atom_site_label
_atom_site_fract_x
_atom_site_fract_y
_atom_site_fract_z
Si Si1 0.755132 0.669671 0.645551
Si Si2 0.369045 0.573420 0.332468
Si Si3 0.500000 0.116256 0.750000
Si Si4 0.546402 0.081929 0.565017
O O1 0.750000 0.750000 0.622792
O O2 0.531471 0.639869 0.673087
O O3 0.926423 0.667720 0.698353
O O4 0.835029 0.621074 0.591665
O O5 0.500000 0.500000 0.333519
O O6 0.255049 0.590316 0.394089
O O7 0.196817 0.568715 0.278025
O O8 0.595137 0.112860 0.500000
O O9 0.500000 0.000000 0.560609
#
# Coordination Sequence:
#
# PCOD8277407 Si02
#       4
#    16  16   8  16
#     4  11  25  42  65  96 133 171 219 268 332 389
#     4  11  23  43  66  98 130 175 221 270 328 387
#     4  10  26  39  64  92 135 172 220 268 325 394
#     4  10  22  43  68  97 130 167 223 276 323 388
#
# _framework density 21.212385000000001
#
# number of rings (size 3 to 8) (size 9 to 14) (size 15 to 20)
#    0.000    1.429    2.857    0.857    4.000    9.143 
#    0.000    1.429    0.000    0.000    0.000    0.000 
#    0.000    0.000    0.000    0.000    0.000    0.000 
#
# Total GULP energy -347093.627278 kJ/mol
# GULP energy per Si atom -12396.200974 kJ/mol
# Density = 2.116410 g / cm^3
# Si number density = 21.212385 Si / 1000 Ang^3
#
#
#
# Elastic Constant Matrix: (Units=GPa)
#
#
# Indices 1 2 3 4 5 6 
#
# 1 114.8526 57.1056 42.6749 0.0000 0.0000 0.0000
# 2 57.1056 121.7755 40.9985 0.0000 0.0000 0.0000
# 3 42.6749 40.9985 150.3580 0.0000 0.0000 0.0000
# 4 0.0000 0.0000 0.0000 38.0297 0.0000 0.0000
# 5 0.0000 0.0000 0.0000 0.0000 25.2397 0.0000
# 6 0.0000 0.0000 0.0000 0.0000 0.0000 27.4213
#
#
#
# Elastic Compliance Matrix: (Units=1/GPa)
#
#
# Indices 1 2 3 4 5 6 
#
# 1 0.011898 -0.004892 -0.002043 0.000000 0.000000 0.000000
# 2 -0.004892 0.011053 -0.001625 0.000000 0.000000 0.000000
# 3 -0.002043 -0.001625 0.007674 0.000000 0.000000 0.000000
# 4 0.000000 0.000000 0.000000 0.026295 0.000000 0.000000
# 5 0.000000 0.000000 0.000000 0.000000 0.039620 0.000000
# 6 0.000000 0.000000 0.000000 0.000000 0.000000 0.036468
#
#
# Mechanical properties :
#
#
# Convention : Reuss Voigt Hill
#
# Bulk Modulus (GPa) = 74.04955 74.28268 74.16611
# Shear Modulus (GPa) = 32.33516 34.55194 33.44355
#
# Velocity S-wave (km/s) = 3.90853 4.04029 3.97496
# Velocity P-wave (km/s) = 7.43998 7.54054 7.49043
#
# Compressibility (1/GPa) = 0.01350447
#
# Stress axis : x y z
#
# Youngs Moduli (GPa) = 84.04680 90.47319 130.31177
#
# Poissons Ratio (x) = 0.44256 0.26624
# Poissons Ratio (y) = 0.41113 0.21182
# Poissons Ratio (z) = 0.17172 0.14706
#
# Static dielectric constant tensor:
#      x y z
#    x 4.195230 0.000000 0.000000 
#    y 0.000000 3.555860 0.000000 
#    z 0.000000 0.000000 4.379930 
# 
# 
# High freq. dielectric constant tensor:
#      x y z
#    x 1.840760 0.000000 0.000000 
#    y 0.000000 1.813560 0.000000 
#    z 0.000000 0.000000 1.839060 
# 
# From -- ./inp_files/53894.got.cif
#   From: 2010.03.12/outbox.cif.g09.slc.cpg/sg66_27_cif.got.tgz:53894.got - 2010.04.10 21:57:39.
