data_PCOD8277484
_publ_section_title
;
Structure prediction by ZEFSAII (Michael W. Deem and Ramdas Pophale) SiO2 
 PCOD8277484
Probable space group: C C C M
;
_chemical_formula_sum "Si O2"
_cell_formula_units_Z 64
_cell_length_a 7.153969
_cell_length_b 18.601927
_cell_length_c 22.870981
_cell_angle_alpha 90.000000
_cell_angle_beta 90.000000
_cell_angle_gamma 90.000000
_cell_volume 3043.615469
_symmetry_space_group_name_H-M "C C C M"
_symmetry_group_IT_number 66
_symmetry_cell_setting 'orthorhombic'
loop_
_space_group_symop_operation_xyz
x,y,z
-x,-y,z
x,-y,1/2-z
-x,y,1/2-z
-x,-y,-z
x,y,-z
-x,y,1/2+z
x,-y,1/2+z
1/2+x,1/2+y,z
1/2-x,1/2-y,z
1/2+x,1/2-y,1/2-z
1/2-x,1/2+y,1/2-z
1/2-x,1/2-y,-z
1/2+x,1/2+y,-z
1/2-x,1/2+y,1/2+z
1/2+x,1/2-y,1/2+z
loop_
_atom_site_type_symbol
_atom_site_label
_atom_site_fract_x
_atom_site_fract_y
_atom_site_fract_z
Si Si1 0.421754 0.922300 0.134295
Si Si2 0.068143 0.921749 0.067406
Si Si3 0.713567 0.667748 0.859165
Si Si4 0.789266 0.672113 0.730743
O O1 0.292450 0.921793 0.076687
O O2 0.598550 0.872646 0.122060
O O3 0.279080 0.893022 0.184631
O O4 0.500000 0.000000 0.152185
O O5 0.963146 0.861262 0.105241
O O6 0.023665 0.906427 0.000000
O O7 0.000000 0.000000 0.087421
O O8 0.750000 0.750000 0.875129
O O9 0.665104 0.658852 0.789520
O O10 0.750000 0.750000 0.701246
O O11 0.000000 0.675461 0.750000
#
# Coordination Sequence:
#
# PCOD8277484 Si02
#       4
#    16  16  16  16
#     4  11  23  41  65  97 130 168 212 264 314 379
#     4  11  25  44  66  92 125 172 223 263 316 374
#     4  10  23  43  65  97 133 165 206 263 322 380
#     4   9  21  37  63  95 132 165 199 253 327 388
#
# _framework density 21.027622000000001
#
# number of rings (size 3 to 8) (size 9 to 14) (size 15 to 20)
#    0.000    1.750    2.500    0.000   10.500    6.500 
#    0.000    2.500    0.000    0.000    0.000    0.000 
#    0.000    0.000    0.000    0.000    0.000    0.000 
#
# Total GULP energy -396704.317008 kJ/mol
# GULP energy per Si atom -12397.009906 kJ/mol
# Density = 2.097976 g / cm^3
# Si number density = 21.027622 Si / 1000 Ang^3
#
#
#
# Elastic Constant Matrix: (Units=GPa)
#
#
# Indices 1 2 3 4 5 6 
#
# 1 62.1124 45.2331 36.3939 0.0000 0.0000 0.0000
# 2 45.2331 157.3524 54.4543 0.0000 0.0000 0.0000
# 3 36.3939 54.4543 77.0055 0.0000 0.0000 0.0000
# 4 0.0000 0.0000 0.0000 3.6338 0.0000 0.0000
# 5 0.0000 0.0000 0.0000 0.0000 39.3924 0.0000
# 6 0.0000 0.0000 0.0000 0.0000 0.0000 39.1298
#
#
#
# Elastic Compliance Matrix: (Units=1/GPa)
#
#
# Indices 1 2 3 4 5 6 
#
# 1 0.023973 -0.003933 -0.008549 0.000000 0.000000 0.000000
# 2 -0.003933 0.009060 -0.004548 0.000000 0.000000 0.000000
# 3 -0.008549 -0.004548 0.020242 0.000000 0.000000 0.000000
# 4 0.000000 0.000000 0.000000 0.275197 0.000000 0.000000
# 5 0.000000 0.000000 0.000000 0.000000 0.025386 0.000000
# 6 0.000000 0.000000 0.000000 0.000000 0.000000 0.025556
#
#
# Mechanical properties :
#
#
# Convention : Reuss Voigt Hill
#
# Bulk Modulus (GPa) = 52.04007 63.18145 57.61076
# Shear Modulus (GPa) = 11.90823 27.12381 19.51602
#
# Velocity S-wave (km/s) = 2.38232 3.59543 3.04980
# Velocity P-wave (km/s) = 5.68941 6.88101 6.31339
#
# Compressibility (1/GPa) = 0.01921596
#
# Stress axis : x y z
#
# Youngs Moduli (GPa) = 41.71353 110.38100 49.40157
#
# Poissons Ratio (x) = 0.43412 0.42233
# Poissons Ratio (y) = 0.16406 0.22466
# Poissons Ratio (z) = 0.35660 0.50198
#
# Static dielectric constant tensor:
#      x y z
#    x 4.062960 0.000000 0.000000 
#    y 0.000000 3.720540 0.000000 
#    z 0.000000 0.000000 4.170740 
# 
# 
# High freq. dielectric constant tensor:
#      x y z
#    x 1.838490 0.000000 0.000000 
#    y 0.000000 1.829790 0.000000 
#    z 0.000000 0.000000 1.802080 
# 
# From -- ./inp_files/50513.got.cif
#   From: 2010.03.12/outbox.cif.g09.slc.cpg/sg66_26_cif.got.tgz:50513.got - 2010.04.10 21:57:39.
