data_PCOD8277916
_publ_section_title
;
Structure prediction by ZEFSAII (Michael W. Deem and Ramdas Pophale) SiO2 
 PCOD8277916
Probable space group: C C C M
;
_chemical_formula_sum "Si O2"
_cell_formula_units_Z 48
_cell_length_a 9.979758
_cell_length_b 10.087507
_cell_length_c 18.286915
_cell_angle_alpha 90.000000
_cell_angle_beta 90.000000
_cell_angle_gamma 90.000000
_cell_volume 1840.959801
_symmetry_space_group_name_H-M "C C C M"
_symmetry_group_IT_number 66
_symmetry_cell_setting 'orthorhombic'
loop_
_space_group_symop_operation_xyz
x,y,z
-x,-y,z
x,-y,1/2-z
-x,y,1/2-z
-x,-y,-z
x,y,-z
-x,y,1/2+z
x,-y,1/2+z
1/2+x,1/2+y,z
1/2-x,1/2-y,z
1/2+x,1/2-y,1/2-z
1/2-x,1/2+y,1/2-z
1/2-x,1/2-y,-z
1/2+x,1/2+y,-z
1/2-x,1/2+y,1/2+z
1/2+x,1/2-y,1/2+z
loop_
_atom_site_type_symbol
_atom_site_label
_atom_site_fract_x
_atom_site_fract_y
_atom_site_fract_z
Si Si1 0.965960 0.199688 0.417863
Si Si2 0.307943 0.383854 0.693366
Si Si3 0.187843 0.546025 0.580575
O O1 0.024923 0.175178 0.500000
O O2 0.937676 0.356198 0.406468
O O3 0.827112 0.123164 0.410027
O O4 0.061549 0.145863 0.354815
O O5 0.342806 0.500000 0.750000
O O6 0.250000 0.250000 0.732427
O O7 0.186883 0.428447 0.639735
O O8 0.176882 0.483254 0.500000
#
# Coordination Sequence:
#
# PCOD8277916 Si02
#       3
#    16  16  16
#     4   9  20  43  78 108 135 182 239 302 364 428
#     4  12  28  46  65 102 150 198 244 294 359 431
#     4   9  20  43  75 111 140 171 240 310 361 429
#
# _framework density 26.073357000000001
#
# number of rings (size 3 to 8) (size 9 to 14) (size 15 to 20)
#    0.000    2.000    0.000    4.000    4.667    9.333 
#    0.000    5.000    0.000    0.000    0.000    0.000 
#    0.000    0.000    0.000    0.000    0.000    0.000 
#
# Total GULP energy -297510.395974 kJ/mol
# GULP energy per Si atom -12396.266499 kJ/mol
# Density = 2.601401 g / cm^3
# Si number density = 26.073357 Si / 1000 Ang^3
#
#
#
# Elastic Constant Matrix: (Units=GPa)
#
#
# Indices 1 2 3 4 5 6 
#
# 1 96.9140 29.4943 63.6089 0.0000 0.0000 0.0000
# 2 29.4943 145.0428 78.5292 0.0000 0.0000 0.0000
# 3 63.6089 78.5292 164.0098 0.0000 0.0000 0.0000
# 4 0.0000 0.0000 0.0000 -190.2645 0.0000 0.0000
# 5 0.0000 0.0000 0.0000 0.0000 -612.4134 0.0000
# 6 0.0000 0.0000 0.0000 0.0000 0.0000 25.9313
#
#
#
# Elastic Compliance Matrix: (Units=1/GPa)
#
#
# Indices 1 2 3 4 5 6 
#
# 1 0.013844 0.000124 -0.005428 0.000000 0.000000 0.000000
# 2 0.000124 0.009308 -0.004505 0.000000 0.000000 0.000000
# 3 -0.005428 -0.004505 0.010360 0.000000 0.000000 0.000000
# 4 0.000000 0.000000 0.000000 -0.005256 0.000000 0.000000
# 5 0.000000 0.000000 0.000000 0.000000 -0.001633 0.000000
# 6 0.000000 0.000000 0.000000 0.000000 0.000000 0.038563
#
#
# Mechanical properties :
#
#
# Convention : Reuss Voigt Hill
#
# Bulk Modulus (GPa) = 71.98040 83.24791 77.61415
# Shear Modulus (GPa) = 55.90580 -139.72704 -41.91062
#
# Velocity S-wave (km/s) = 4.63555 -7.32846 -4.01360
# Velocity P-wave (km/s) = 7.50452 6.29371 2.89025
#
# Compressibility (1/GPa) = 0.01389267
#
# Stress axis : x y z
#
# Youngs Moduli (GPa) = 72.23558 107.42957 96.52917
#
# Poissons Ratio (x) = -0.01332 0.52400
# Poissons Ratio (y) = -0.00895 0.43487
# Poissons Ratio (z) = 0.39212 0.48397
#
# Static dielectric constant tensor:
#      x y z
#    x 4.552950 0.000000 0.000000 
#    y 0.000000 5.389450 0.000000 
#    z 0.000000 0.000000 4.866470 
# 
# 
# High freq. dielectric constant tensor:
#      x y z
#    x 2.040500 0.000000 0.000000 
#    y 0.000000 2.059280 0.000000 
#    z 0.000000 0.000000 2.035910 
# 
# From -- ./inp_files/37616.got.cif
#   From: 2010.03.12/outbox.cif.g09.slc.cpg/sg66_19_cif.got.tgz:37616.got - 2010.04.10 21:57:39.
