data_PCOD8277471
_publ_section_title
;
Structure prediction by ZEFSAII (Michael W. Deem and Ramdas Pophale) SiO2 
 PCOD8277471
Probable space group: C C C M
;
_chemical_formula_sum "Si O2"
_cell_formula_units_Z 44
_cell_length_a 27.500313
_cell_length_b 4.890729
_cell_length_c 13.634822
_cell_angle_alpha 90.000000
_cell_angle_beta 90.000000
_cell_angle_gamma 90.000000
_cell_volume 1833.836905
_symmetry_space_group_name_H-M "C C C M"
_symmetry_group_IT_number 66
_symmetry_cell_setting 'orthorhombic'
loop_
_space_group_symop_operation_xyz
x,y,z
-x,-y,z
x,-y,1/2-z
-x,y,1/2-z
-x,-y,-z
x,y,-z
-x,y,1/2+z
x,-y,1/2+z
1/2+x,1/2+y,z
1/2-x,1/2-y,z
1/2+x,1/2-y,1/2-z
1/2-x,1/2+y,1/2-z
1/2-x,1/2-y,-z
1/2+x,1/2+y,-z
1/2-x,1/2+y,1/2+z
1/2+x,1/2-y,1/2+z
loop_
_atom_site_type_symbol
_atom_site_label
_atom_site_fract_x
_atom_site_fract_y
_atom_site_fract_z
Si Si1 0.500000 0.000000 0.250000
Si Si2 0.780752 0.500000 0.250000
Si Si3 0.141187 0.258338 0.391633
Si Si4 0.574169 0.276323 0.609921
O O1 0.529906 0.209731 0.317888
O O2 0.750000 0.750000 0.200809
O O3 0.811866 0.665009 0.329421
O O4 0.159174 0.170007 0.500000
O O5 0.106754 0.513532 0.397165
O O6 0.108410 0.015466 0.345678
O O7 0.554976 0.354859 0.500000
#
# Coordination Sequence:
#
# PCOD8277471 Si02
#       4
#     4   8  16  16
#     4  12  24  38  68 104 136 170 226 290 318 364
#     4  12  25  40  68 105 130 161 224 282 329 398
#     4  10  23  45  66  90 134 180 214 264 335 399
#     4  10  23  42  65  94 132 179 223 264 325 395
#
# _framework density 23.993407999999999
#
# number of rings (size 3 to 8) (size 9 to 14) (size 15 to 20)
#    0.000    1.455    0.000    3.818    0.000    8.727 
#    0.000    5.455    0.000    2.182    0.000    0.000 
#    0.000    0.000    0.000    0.000    0.000    0.000 
#
# Total GULP energy -272698.846505 kJ/mol
# GULP energy per Si atom -12395.402114 kJ/mol
# Density = 2.393880 g / cm^3
# Si number density = 23.993408 Si / 1000 Ang^3
#
#
#
# Elastic Constant Matrix: (Units=GPa)
#
#
# Indices 1 2 3 4 5 6 
#
# 1 148.9475 75.8013 86.7884 0.0000 0.0000 0.0000
# 2 75.8013 180.2118 49.0247 0.0000 0.0000 0.0000
# 3 86.7884 49.0247 131.9567 0.0000 0.0000 0.0000
# 4 0.0000 0.0000 0.0000 25.0355 0.0000 0.0000
# 5 0.0000 0.0000 0.0000 0.0000 9.9377 0.0000
# 6 0.0000 0.0000 0.0000 0.0000 0.0000 56.2570
#
#
#
# Elastic Compliance Matrix: (Units=1/GPa)
#
#
# Indices 1 2 3 4 5 6 
#
# 1 0.012476 -0.003354 -0.006959 0.000000 0.000000 0.000000
# 2 -0.003354 0.007075 -0.000422 0.000000 0.000000 0.000000
# 3 -0.006959 -0.000422 0.012312 0.000000 0.000000 0.000000
# 4 0.000000 0.000000 0.000000 0.039943 0.000000 0.000000
# 5 0.000000 0.000000 0.000000 0.000000 0.100627 0.000000
# 6 0.000000 0.000000 0.000000 0.000000 0.000000 0.017776
#
#
# Mechanical properties :
#
#
# Convention : Reuss Voigt Hill
#
# Bulk Modulus (GPa) = 96.23527 98.26050 97.24789
# Shear Modulus (GPa) = 23.24026 34.87948 29.05987
#
# Velocity S-wave (km/s) = 3.11563 3.81689 3.48395
# Velocity P-wave (km/s) = 7.28965 7.77605 7.53677
#
# Compressibility (1/GPa) = 0.01039120
#
# Stress axis : x y z
#
# Youngs Moduli (GPa) = 80.15482 141.34566 81.22048
#
# Poissons Ratio (x) = 0.47414 0.56523
# Poissons Ratio (y) = 0.26888 0.03429
# Poissons Ratio (z) = 0.55781 0.05968
#
# Static dielectric constant tensor:
#      x y z
#    x 4.228470 0.000000 0.000000 
#    y 0.000000 4.505830 0.000000 
#    z 0.000000 0.000000 5.233650 
# 
# 
# High freq. dielectric constant tensor:
#      x y z
#    x 1.943050 0.000000 0.000000 
#    y 0.000000 1.976710 0.000000 
#    z 0.000000 0.000000 1.956090 
# 
# From -- ./inp_files/32799.got.cif
#   From: 2010.03.12/outbox.cif.g09.slc.cpg/sg66_17_cif.got.tgz:32799.got - 2010.04.10 21:57:39.
