data_PCOD8277008
_publ_section_title
;
Structure prediction by ZEFSAII (Michael W. Deem and Ramdas Pophale) SiO2 
 PCOD8277008
Probable space group: C C C M
;
_chemical_formula_sum "Si O2"
_cell_formula_units_Z 104
_cell_length_a 8.958205
_cell_length_b 20.201977
_cell_length_c 28.451521
_cell_angle_alpha 90.000000
_cell_angle_beta 90.000000
_cell_angle_gamma 90.000000
_cell_volume 5148.969952
_symmetry_space_group_name_H-M "C C C M"
_symmetry_group_IT_number 66
_symmetry_cell_setting 'orthorhombic'
loop_
_space_group_symop_operation_xyz
x,y,z
-x,-y,z
x,-y,1/2-z
-x,y,1/2-z
-x,-y,-z
x,y,-z
-x,y,1/2+z
x,-y,1/2+z
1/2+x,1/2+y,z
1/2-x,1/2-y,z
1/2+x,1/2-y,1/2-z
1/2-x,1/2+y,1/2-z
1/2-x,1/2-y,-z
1/2+x,1/2+y,-z
1/2-x,1/2+y,1/2+z
1/2+x,1/2-y,1/2+z
loop_
_atom_site_type_symbol
_atom_site_label
_atom_site_fract_x
_atom_site_fract_y
_atom_site_fract_z
Si Si1 0.499511 0.102824 0.306296
Si Si2 0.277703 0.952090 0.124122
Si Si3 0.417988 0.758301 0.203575
Si Si4 0.952307 0.634491 0.447225
Si Si5 0.250000 0.250000 0.576611
Si Si6 0.776088 0.397708 0.382829
Si Si7 0.039681 0.152641 0.365646
O O1 0.500000 0.089933 0.250000
O O2 0.394311 0.048268 0.331987
O O3 0.433035 0.173310 0.325798
O O4 0.665876 0.102234 0.328536
O O5 0.344140 0.916937 0.078262
O O6 0.123128 0.917475 0.140490
O O7 0.246120 0.025604 0.105642
O O8 0.500000 0.778988 0.250000
O O9 0.250000 0.750000 0.217566
O O10 0.490150 0.691232 0.183120
O O11 0.987463 0.610066 0.500000
O O12 0.865882 0.704976 0.452504
O O13 0.107859 0.637352 0.418414
O O14 0.146423 0.203752 0.608067
O O15 0.621073 0.358465 0.389195
#
# Coordination Sequence:
#
# PCOD8277008 Si02
#       7
#    16  16  16  16   8  16  16
#     4  10  21  37  58  84 115 154 196 241 295 347
#     4  10  21  40  59  84 118 157 197 237 288 353
#     4  11  22  36  57  84 114 154 199 250 294 346
#     4  10  21  40  65  90 117 151 189 238 298 355
#     4  10  21  40  64  86 116 150 190 234 300 358
#     4  11  24  36  59  89 116 154 200 241 284 345
#     4  11  21  39  59  83 118 156 193 243 295 342
#
# _framework density 20.198215000000001
#
# number of rings (size 3 to 8) (size 9 to 14) (size 15 to 20)
#    0.000    1.538    2.308    4.385    4.308    4.308 
#    0.000    4.615    0.000    7.385    0.000    0.000 
#    0.000    0.000    0.000    0.000    0.000    0.000 
#
# Total GULP energy -644348.622127 kJ/mol
# GULP energy per Si atom -12391.319656 kJ/mol
# Density = 2.015224 g / cm^3
# Si number density = 20.198215 Si / 1000 Ang^3
#
#
#
# Elastic Constant Matrix: (Units=GPa)
#
#
# Indices 1 2 3 4 5 6 
#
# 1 120.8853 48.4795 26.6784 0.0000 0.0000 0.0000
# 2 48.4795 95.5065 17.9315 0.0000 0.0000 0.0000
# 3 26.6784 17.9315 105.2363 0.0000 0.0000 0.0000
# 4 0.0000 0.0000 0.0000 26.1353 0.0000 0.0000
# 5 0.0000 0.0000 0.0000 0.0000 7.2791 0.0000
# 6 0.0000 0.0000 0.0000 0.0000 0.0000 34.8153
#
#
#
# Elastic Compliance Matrix: (Units=1/GPa)
#
#
# Indices 1 2 3 4 5 6 
#
# 1 0.010725 -0.005096 -0.001850 0.000000 0.000000 0.000000
# 2 -0.005096 0.013238 -0.000964 0.000000 0.000000 0.000000
# 3 -0.001850 -0.000964 0.010136 0.000000 0.000000 0.000000
# 4 0.000000 0.000000 0.000000 0.038262 0.000000 0.000000
# 5 0.000000 0.000000 0.000000 0.000000 0.137380 0.000000
# 6 0.000000 0.000000 0.000000 0.000000 0.000000 0.028723
#
#
# Mechanical properties :
#
#
# Convention : Reuss Voigt Hill
#
# Bulk Modulus (GPa) = 54.71178 56.42299 55.56739
# Shear Modulus (GPa) = 19.20287 28.88185 24.04236
#
# Velocity S-wave (km/s) = 3.08672 3.78553 3.45385
# Velocity P-wave (km/s) = 6.31269 6.86311 6.59365
#
# Compressibility (1/GPa) = 0.01827760
#
# Stress axis : x y z
#
# Youngs Moduli (GPa) = 93.24429 75.53791 98.66091
#
# Poissons Ratio (x) = 0.38497 0.18256
# Poissons Ratio (y) = 0.47521 0.09508
# Poissons Ratio (z) = 0.17254 0.07280
#
# Static dielectric constant tensor:
#      x y z
#    x 3.683640 0.000000 0.000000 
#    y 0.000000 4.039270 0.000000 
#    z 0.000000 0.000000 3.460290 
# 
# 
# High freq. dielectric constant tensor:
#      x y z
#    x 1.787890 0.000000 0.000000 
#    y 0.000000 1.802150 0.000000 
#    z 0.000000 0.000000 1.766530 
# 
# From -- ./inp_files/68260.got.cif
#   From: 2010.03.12/outbox.cif.g09.slc.cpg/sg66_35_cif.got.tgz:68260.got - 2010.04.10 21:57:39.
