data_PCOD8277617
_publ_section_title
;
Structure prediction by ZEFSAII (Michael W. Deem and Ramdas Pophale) SiO2 
 PCOD8277617
Probable space group: C C C M
;
_chemical_formula_sum "Si O2"
_cell_formula_units_Z 100
_cell_length_a 11.259222
_cell_length_b 17.913518
_cell_length_c 25.454536
_cell_angle_alpha 90.000000
_cell_angle_beta 90.000000
_cell_angle_gamma 90.000000
_cell_volume 5133.983299
_symmetry_space_group_name_H-M "C C C M"
_symmetry_group_IT_number 66
_symmetry_cell_setting 'orthorhombic'
loop_
_space_group_symop_operation_xyz
x,y,z
-x,-y,z
x,-y,1/2-z
-x,y,1/2-z
-x,-y,-z
x,y,-z
-x,y,1/2+z
x,-y,1/2+z
1/2+x,1/2+y,z
1/2-x,1/2-y,z
1/2+x,1/2-y,1/2-z
1/2-x,1/2+y,1/2-z
1/2-x,1/2-y,-z
1/2+x,1/2+y,-z
1/2-x,1/2+y,1/2+z
1/2+x,1/2-y,1/2+z
loop_
_atom_site_type_symbol
_atom_site_label
_atom_site_fract_x
_atom_site_fract_y
_atom_site_fract_z
Si Si1 0.419519 0.685776 0.165766
Si Si2 0.246558 0.566560 0.888017
Si Si3 0.666352 0.314815 0.718519
Si Si4 0.500000 0.000000 0.750000
Si Si5 0.805119 0.479981 0.000000
Si Si6 0.961987 0.382672 0.500000
Si Si7 0.015912 0.664756 0.110126
Si Si8 0.330309 0.923872 0.326403
O O1 0.353467 0.618085 0.134946
O O2 0.355619 0.704172 0.220641
O O3 0.554114 0.669189 0.181397
O O4 0.423816 0.758384 0.128881
O O5 0.271220 0.545653 0.949058
O O6 0.118109 0.603713 0.881580
O O7 0.236042 0.488395 0.858175
O O8 0.750000 0.250000 0.694847
O O9 0.733622 0.392053 0.713416
O O10 0.429352 0.947158 0.712936
O O11 0.838454 0.568970 0.000000
O O12 0.930546 0.439949 0.000000
O O13 0.974964 0.328127 0.450198
O O14 0.894640 0.639051 0.138312
#
# Coordination Sequence:
#
# PCOD8277617 Si02
#       8
#    16  16  16   4   8   8  16  16
#     4  11  25  40  60  87 128 170 210 255 321 386
#     4  11  21  39  61  95 127 161 203 266 316 383
#     4  11  24  41  60  86 122 171 210 254 314 386
#     4  12  24  32  60 104 116 144 210 268 298 366
#     4   9  18  33  61  92 129 158 204 259 336 371
#     4   9  18  33  61  96 124 157 206 267 325 369
#     4  11  20  38  63  94 125 160 209 263 316 375
#     4  12  23  37  62  90 126 159 208 261 315 368
#
# _framework density 19.478052999999999
#
# number of rings (size 3 to 8) (size 9 to 14) (size 15 to 20)
#    0.000    1.120    4.800    2.400    2.240    1.280 
#    0.000    4.000    0.000    5.760    0.000    0.000 
#    0.000    0.000    0.000    0.000    0.000    0.000 
#
# Total GULP energy -619491.845187 kJ/mol
# GULP energy per Si atom -12389.836904 kJ/mol
# Density = 1.943372 g / cm^3
# Si number density = 19.478053 Si / 1000 Ang^3
#
#
#
# Elastic Constant Matrix: (Units=GPa)
#
#
# Indices 1 2 3 4 5 6 
#
# 1 97.4005 48.5263 46.0946 0.0000 0.0000 0.0000
# 2 48.5263 109.4417 59.0360 0.0000 0.0000 0.0000
# 3 46.0946 59.0360 136.8364 0.0000 0.0000 0.0000
# 4 0.0000 0.0000 0.0000 35.1639 0.0000 0.0000
# 5 0.0000 0.0000 0.0000 0.0000 22.3521 0.0000
# 6 0.0000 0.0000 0.0000 0.0000 0.0000 47.5441
#
#
#
# Elastic Compliance Matrix: (Units=1/GPa)
#
#
# Indices 1 2 3 4 5 6 
#
# 1 0.013869 -0.004730 -0.002631 0.000000 0.000000 0.000000
# 2 -0.004730 0.013522 -0.004241 0.000000 0.000000 0.000000
# 3 -0.002631 -0.004241 0.010024 0.000000 0.000000 0.000000
# 4 0.000000 0.000000 0.000000 0.028438 0.000000 0.000000
# 5 0.000000 0.000000 0.000000 0.000000 0.044739 0.000000
# 6 0.000000 0.000000 0.000000 0.000000 0.000000 0.021033
#
#
# Mechanical properties :
#
#
# Convention : Reuss Voigt Hill
#
# Bulk Modulus (GPa) = 70.36708 72.33249 71.34979
# Shear Modulus (GPa) = 31.33525 33.68014 32.50769
#
# Velocity S-wave (km/s) = 4.01527 4.16280 4.08970
# Velocity P-wave (km/s) = 7.59614 7.76667 7.68188
#
# Compressibility (1/GPa) = 0.01421119
#
# Stress axis : x y z
#
# Youngs Moduli (GPa) = 72.10523 73.95328 99.76254
#
# Poissons Ratio (x) = 0.34980 0.26248
# Poissons Ratio (y) = 0.34106 0.42305
# Poissons Ratio (z) = 0.18971 0.31360
#
# Static dielectric constant tensor:
#      x y z
#    x 3.495070 0.000000 0.000000 
#    y 0.000000 3.490890 0.000000 
#    z 0.000000 0.000000 3.921020 
# 
# 
# High freq. dielectric constant tensor:
#      x y z
#    x 1.748570 0.000000 0.000000 
#    y 0.000000 1.750600 0.000000 
#    z 0.000000 0.000000 1.768750 
# 
# From -- ./inp_files/69052.got.cif
#   From: 2010.03.12/outbox.cif.g09.slc.cpg/sg66_35_cif.got.tgz:69052.got - 2010.04.10 21:57:39.
