data_PCOD8277662
_publ_section_title
;
Structure prediction by ZEFSAII (Michael W. Deem and Ramdas Pophale) SiO2 
 PCOD8277662
Probable space group: C C C M
;
_chemical_formula_sum "Si O2"
_cell_formula_units_Z 104
_cell_length_a 8.737458
_cell_length_b 27.985710
_cell_length_c 22.716204
_cell_angle_alpha 90.000000
_cell_angle_beta 90.000000
_cell_angle_gamma 90.000000
_cell_volume 5554.656288
_symmetry_space_group_name_H-M "C C C M"
_symmetry_group_IT_number 66
_symmetry_cell_setting 'orthorhombic'
loop_
_space_group_symop_operation_xyz
x,y,z
-x,-y,z
x,-y,1/2-z
-x,y,1/2-z
-x,-y,-z
x,y,-z
-x,y,1/2+z
x,-y,1/2+z
1/2+x,1/2+y,z
1/2-x,1/2-y,z
1/2+x,1/2-y,1/2-z
1/2-x,1/2+y,1/2-z
1/2-x,1/2-y,-z
1/2+x,1/2+y,-z
1/2-x,1/2+y,1/2+z
1/2+x,1/2-y,1/2+z
loop_
_atom_site_type_symbol
_atom_site_label
_atom_site_fract_x
_atom_site_fract_y
_atom_site_fract_z
Si Si1 0.807554 0.402807 0.859209
Si Si2 0.679935 0.947398 0.759084
Si Si3 0.720428 0.801897 0.403495
Si Si4 0.749916 0.627200 0.000000
Si Si5 0.832968 0.020406 0.069139
Si Si6 0.648403 0.066428 0.611695
Si Si7 0.032039 0.184498 0.500000
Si Si8 0.527737 0.212122 0.500000
O O1 0.757947 0.413686 0.792445
O O2 0.805958 0.345237 0.858713
O O3 0.682486 0.426952 0.902295
O O4 0.967778 0.425226 0.881709
O O5 0.500000 0.951656 0.750000
O O6 0.721397 0.924809 0.823073
O O7 0.753420 0.000000 0.750000
O O8 0.750000 0.750000 0.372406
O O9 0.865753 0.815399 0.442253
O O10 0.569798 0.799110 0.442430
O O11 0.787792 0.599737 0.059964
O O12 0.568800 0.636600 0.000000
O O13 0.826115 0.678793 0.000000
O O14 0.695156 0.987527 0.094489
O O15 0.811143 0.025258 0.000000
O O16 0.000000 0.000000 0.085161
O O17 0.925851 0.232177 0.500000
#
# Coordination Sequence:
#
# PCOD8277662 Si02
#       8
#    16  16  16   8  16  16   8   8
#     4  11  21  36  63  76 108 153 187 233 275 318
#     4   9  18  36  55  79 107 144 191 230 269 319
#     4   9  19  35  56  85 109 141 192 228 272 337
#     4  12  21  32  56  86 115 144 177 229 295 332
#     4  11  25  36  51  82 121 149 177 223 285 337
#     4  11  22  36  55  85 111 140 191 232 265 341
#     4   9  21  33  56  76 123 146 168 236 290 329
#     4   9  17  37  52  84 105 145 194 223 269 347
#
# _framework density 18.723030999999999
#
# number of rings (size 3 to 8) (size 9 to 14) (size 15 to 20)
#    0.000    1.846    3.846    1.615    5.385    0.615 
#    0.000    1.538    0.000    1.846    0.000    0.000 
#    0.000    0.000    0.000    0.000    0.000    0.000 
#
# Total GULP energy -644318.821868 kJ/mol
# GULP energy per Si atom -12390.746574 kJ/mol
# Density = 1.868042 g / cm^3
# Si number density = 18.723031 Si / 1000 Ang^3
#
#
#
# Elastic Constant Matrix: (Units=GPa)
#
#
# Indices 1 2 3 4 5 6 
#
# 1 47.7986 28.9020 30.2623 0.0000 0.0000 0.0000
# 2 28.9020 114.6101 61.5497 0.0000 0.0000 0.0000
# 3 30.2623 61.5497 141.7963 0.0000 0.0000 0.0000
# 4 0.0000 0.0000 0.0000 24.9547 0.0000 0.0000
# 5 0.0000 0.0000 0.0000 0.0000 9.2317 0.0000
# 6 0.0000 0.0000 0.0000 0.0000 0.0000 29.7293
#
#
#
# Elastic Compliance Matrix: (Units=1/GPa)
#
#
# Indices 1 2 3 4 5 6 
#
# 1 0.025966 -0.004658 -0.003520 0.000000 0.000000 0.000000
# 2 -0.004658 0.012213 -0.004307 0.000000 0.000000 0.000000
# 3 -0.003520 -0.004307 0.009673 0.000000 0.000000 0.000000
# 4 0.000000 0.000000 0.000000 0.040073 0.000000 0.000000
# 5 0.000000 0.000000 0.000000 0.000000 0.108323 0.000000
# 6 0.000000 0.000000 0.000000 0.000000 0.000000 0.033637
#
#
# Mechanical properties :
#
#
# Convention : Reuss Voigt Hill
#
# Bulk Modulus (GPa) = 43.70158 60.62590 52.16374
# Shear Modulus (GPa) = 19.04896 25.01587 22.03241
#
# Velocity S-wave (km/s) = 3.19314 3.65924 3.43411
# Velocity P-wave (km/s) = 6.08166 7.09253 6.60646
#
# Compressibility (1/GPa) = 0.02288247
#
# Stress axis : x y z
#
# Youngs Moduli (GPa) = 38.51195 81.88038 103.37793
#
# Poissons Ratio (x) = 0.38137 0.36388
# Poissons Ratio (y) = 0.17938 0.44527
# Poissons Ratio (z) = 0.13556 0.35268
#
# Static dielectric constant tensor:
#      x y z
#    x 3.265800 0.000000 0.000000 
#    y 0.000000 3.572150 0.000000 
#    z 0.000000 0.000000 3.491000 
# 
# 
# High freq. dielectric constant tensor:
#      x y z
#    x 1.711950 0.000000 0.000000 
#    y 0.000000 1.728500 0.000000 
#    z 0.000000 0.000000 1.713540 
# 
# From -- ./inp_files/55879.got.cif
#   From: 2010.03.12/outbox.cif.g09.slc.cpg/sg66_28_cif.got.tgz:55879.got - 2010.04.10 21:57:39.
