data_PCOD8277060
_publ_section_title
;
Structure prediction by ZEFSAII (Michael W. Deem and Ramdas Pophale) SiO2 
 PCOD8277060
Probable space group: C C C M
;
_chemical_formula_sum "Si O2"
_cell_formula_units_Z 56
_cell_length_a 4.977993
_cell_length_b 22.016487
_cell_length_c 26.095725
_cell_angle_alpha 90.000000
_cell_angle_beta 90.000000
_cell_angle_gamma 90.000000
_cell_volume 2860.037133
_symmetry_space_group_name_H-M "C C C M"
_symmetry_group_IT_number 66
_symmetry_cell_setting 'orthorhombic'
loop_
_space_group_symop_operation_xyz
x,y,z
-x,-y,z
x,-y,1/2-z
-x,y,1/2-z
-x,-y,-z
x,y,-z
-x,y,1/2+z
x,-y,1/2+z
1/2+x,1/2+y,z
1/2-x,1/2-y,z
1/2+x,1/2-y,1/2-z
1/2-x,1/2+y,1/2-z
1/2-x,1/2-y,-z
1/2+x,1/2+y,-z
1/2-x,1/2+y,1/2+z
1/2+x,1/2-y,1/2+z
loop_
_atom_site_type_symbol
_atom_site_label
_atom_site_fract_x
_atom_site_fract_y
_atom_site_fract_z
Si Si1 0.579180 0.863752 0.846021
Si Si2 0.250000 0.250000 0.218007
Si Si3 0.063315 0.929903 0.808132
Si Si4 0.494946 0.208048 0.441961
O O1 0.599329 0.800953 0.815148
O O2 0.368691 0.910704 0.820497
O O3 0.500883 0.850074 0.904744
O O4 0.870709 0.894023 0.846646
O O5 0.500000 0.278883 0.250000
O O6 0.000000 0.911434 0.750000
O O7 0.000000 0.000000 0.817338
O O8 0.469173 0.183421 0.500000
O O9 0.750000 0.250000 0.434379
O O10 0.250000 0.250000 0.425889
#
# Coordination Sequence:
#
# PCOD8277060 Si02
#       4
#    16   8  16  16
#     4  12  22  38  61  85 119 153 191 244 290 346
#     4  12  24  34  53  90 129 152 180 234 310 360
#     4  11  24  41  59  82 115 162 207 235 274 340
#     4  10  21  38  59  86 118 151 189 231 289 360
#
# _framework density 19.580165000000001
#
# number of rings (size 3 to 8) (size 9 to 14) (size 15 to 20)
#    0.000    0.857    1.429    7.714    2.000    2.286 
#    0.000    0.000    0.000    5.143    0.000    0.000 
#    0.000    0.000    0.000    0.000    0.000    0.000 
#
# Total GULP energy -347257.107288 kJ/mol
# GULP energy per Si atom -12402.039546 kJ/mol
# Density = 1.953560 g / cm^3
# Si number density = 19.580165 Si / 1000 Ang^3
#
#
#
# Elastic Constant Matrix: (Units=GPa)
#
#
# Indices 1 2 3 4 5 6 
#
# 1 99.9175 22.9280 11.8242 0.0000 0.0000 0.0000
# 2 22.9280 92.5009 37.4304 0.0000 0.0000 0.0000
# 3 11.8242 37.4304 100.3252 0.0000 0.0000 0.0000
# 4 0.0000 0.0000 0.0000 24.1239 0.0000 0.0000
# 5 0.0000 0.0000 0.0000 0.0000 29.5758 0.0000
# 6 0.0000 0.0000 0.0000 0.0000 0.0000 33.9869
#
#
#
# Elastic Compliance Matrix: (Units=1/GPa)
#
#
# Indices 1 2 3 4 5 6 
#
# 1 0.010620 -0.002504 -0.000317 0.000000 0.000000 0.000000
# 2 -0.002504 0.013323 -0.004676 0.000000 0.000000 0.000000
# 3 -0.000317 -0.004676 0.011749 0.000000 0.000000 0.000000
# 4 0.000000 0.000000 0.000000 0.041453 0.000000 0.000000
# 5 0.000000 0.000000 0.000000 0.000000 0.033811 0.000000
# 6 0.000000 0.000000 0.000000 0.000000 0.000000 0.029423
#
#
# Mechanical properties :
#
#
# Convention : Reuss Voigt Hill
#
# Bulk Modulus (GPa) = 48.31175 48.56761 48.43968
# Shear Modulus (GPa) = 30.81198 32.24138 31.52668
#
# Velocity S-wave (km/s) = 3.97121 4.06228 4.01700
# Velocity P-wave (km/s) = 6.76422 6.84552 6.80499
#
# Compressibility (1/GPa) = 0.02069890
#
# Stress axis : x y z
#
# Youngs Moduli (GPa) = 94.15823 75.05597 85.11020
#
# Poissons Ratio (x) = 0.18794 0.02702
# Poissons Ratio (y) = 0.23577 0.39795
# Poissons Ratio (z) = 0.02989 0.35094
#
# Static dielectric constant tensor:
#      x y z
#    x 3.733900 0.000000 0.000000 
#    y 0.000000 3.407380 0.000000 
#    z 0.000000 0.000000 3.653540 
# 
# 
# High freq. dielectric constant tensor:
#      x y z
#    x 1.788890 0.000000 0.000000 
#    y 0.000000 1.746480 0.000000 
#    z 0.000000 0.000000 1.752320 
# 
# From -- ./inp_files/53899.got.cif
#   From: 2010.03.12/outbox.cif.g09.slc.cpg/sg66_27_cif.got.tgz:53899.got - 2010.04.10 21:57:39.
