data_PCOD8277630
_publ_section_title
;
Structure prediction by ZEFSAII (Michael W. Deem and Ramdas Pophale) SiO2 
 PCOD8277630
Probable space group: C C C M
;
_chemical_formula_sum "Si O2"
_cell_formula_units_Z 56
_cell_length_a 11.934413
_cell_length_b 14.708394
_cell_length_c 14.352923
_cell_angle_alpha 90.000000
_cell_angle_beta 90.000000
_cell_angle_gamma 90.000000
_cell_volume 2519.455389
_symmetry_space_group_name_H-M "C C C M"
_symmetry_group_IT_number 66
_symmetry_cell_setting 'orthorhombic'
loop_
_space_group_symop_operation_xyz
x,y,z
-x,-y,z
x,-y,1/2-z
-x,y,1/2-z
-x,-y,-z
x,y,-z
-x,y,1/2+z
x,-y,1/2+z
1/2+x,1/2+y,z
1/2-x,1/2-y,z
1/2+x,1/2-y,1/2-z
1/2-x,1/2+y,1/2-z
1/2-x,1/2-y,-z
1/2+x,1/2+y,-z
1/2-x,1/2+y,1/2+z
1/2+x,1/2-y,1/2+z
loop_
_atom_site_type_symbol
_atom_site_label
_atom_site_fract_x
_atom_site_fract_y
_atom_site_fract_z
Si Si1 0.500000 0.284312 0.250000
Si Si2 0.173140 0.477368 0.355790
Si Si3 0.084726 0.920307 0.896362
Si Si4 0.968187 0.645664 0.102778
O O1 0.581224 0.343730 0.184080
O O2 0.429194 0.221523 0.177853
O O3 0.196091 0.500000 0.250000
O O4 0.289615 0.456553 0.404902
O O5 0.121297 0.565340 0.404797
O O6 0.089068 0.392411 0.364940
O O7 0.051949 0.883528 0.000000
O O8 0.000000 0.000000 0.866572
O O9 0.978698 0.689601 0.000000
#
# Coordination Sequence:
#
# PCOD8277630 Si02
#       4
#     8  16  16  16
#     4  12  23  43  62 102 134 170 218 281 335 384
#     4  11  20  42  69  98 133 177 219 266 334 405
#     4  11  25  45  67  93 132 182 226 267 331 408
#     4  11  22  40  68 101 134 171 222 279 334 393
#
# _framework density 22.227027
#
# number of rings (size 3 to 8) (size 9 to 14) (size 15 to 20)
#    0.000    0.857    2.857    7.286    0.000    1.143 
#    5.143    2.857    0.000    6.857    0.000    0.000 
#    0.000    0.000    0.000    0.000    0.000    0.000 
#
# Total GULP energy -347139.628493 kJ/mol
# GULP energy per Si atom -12397.843875 kJ/mol
# Density = 2.217644 g / cm^3
# Si number density = 22.227027 Si / 1000 Ang^3
#
#
#
# Elastic Constant Matrix: (Units=GPa)
#
#
# Indices 1 2 3 4 5 6 
#
# 1 119.6565 52.7938 9.0130 0.0000 0.0000 0.0000
# 2 52.7938 113.1765 69.0229 0.0000 0.0000 0.0000
# 3 9.0130 69.0229 183.7771 0.0000 0.0000 0.0000
# 4 0.0000 0.0000 0.0000 20.8048 0.0000 0.0000
# 5 0.0000 0.0000 0.0000 0.0000 34.4247 0.0000
# 6 0.0000 0.0000 0.0000 0.0000 0.0000 15.4205
#
#
#
# Elastic Compliance Matrix: (Units=1/GPa)
#
#
# Indices 1 2 3 4 5 6 
#
# 1 0.010961 -0.006207 0.001794 0.000000 0.000000 0.000000
# 2 -0.006207 0.014976 -0.005320 0.000000 0.000000 0.000000
# 3 0.001794 -0.005320 0.007352 0.000000 0.000000 0.000000
# 4 0.000000 0.000000 0.000000 0.048066 0.000000 0.000000
# 5 0.000000 0.000000 0.000000 0.000000 0.029049 0.000000
# 6 0.000000 0.000000 0.000000 0.000000 0.000000 0.064849
#
#
# Mechanical properties :
#
#
# Convention : Reuss Voigt Hill
#
# Bulk Modulus (GPa) = 72.35230 75.36327 73.85779
# Shear Modulus (GPa) = 25.08471 33.18203 29.13337
#
# Velocity S-wave (km/s) = 3.36306 3.86796 3.62431
# Velocity P-wave (km/s) = 6.90669 7.34356 7.12847
#
# Compressibility (1/GPa) = 0.01382126
#
# Stress axis : x y z
#
# Youngs Moduli (GPa) = 91.23587 66.77541 136.02590
#
# Poissons Ratio (x) = 0.41445 -0.24397
# Poissons Ratio (y) = 0.56627 0.72367
# Poissons Ratio (z) = -0.16364 0.35525
#
# Static dielectric constant tensor:
#      x y z
#    x 3.704080 0.000000 0.000000 
#    y 0.000000 4.017440 0.000000 
#    z 0.000000 0.000000 4.249930 
# 
# 
# High freq. dielectric constant tensor:
#      x y z
#    x 1.844990 0.000000 0.000000 
#    y 0.000000 1.864280 0.000000 
#    z 0.000000 0.000000 1.913270 
# 
# From -- ./inp_files/25355.got.cif
#   From: 2010.03.12/outbox.cif.g09.slc.cpg/sg66_13_cif.got.tgz:25355.got - 2010.04.10 21:57:39.
