data_PCOD8277040
_publ_section_title
;
Structure prediction by ZEFSAII (Michael W. Deem and Ramdas Pophale) SiO2 
 PCOD8277040
Probable space group: C C C M
;
_chemical_formula_sum "Si O2"
_cell_formula_units_Z 96
_cell_length_a 19.770717
_cell_length_b 17.515387
_cell_length_c 14.382163
_cell_angle_alpha 90.000000
_cell_angle_beta 90.000000
_cell_angle_gamma 90.000000
_cell_volume 4980.424531
_symmetry_space_group_name_H-M "C C C M"
_symmetry_group_IT_number 66
_symmetry_cell_setting 'orthorhombic'
loop_
_space_group_symop_operation_xyz
x,y,z
-x,-y,z
x,-y,1/2-z
-x,y,1/2-z
-x,-y,-z
x,y,-z
-x,y,1/2+z
x,-y,1/2+z
1/2+x,1/2+y,z
1/2-x,1/2-y,z
1/2+x,1/2-y,1/2-z
1/2-x,1/2+y,1/2-z
1/2-x,1/2-y,-z
1/2+x,1/2+y,-z
1/2-x,1/2+y,1/2+z
1/2+x,1/2-y,1/2+z
loop_
_atom_site_type_symbol
_atom_site_label
_atom_site_fract_x
_atom_site_fract_y
_atom_site_fract_z
Si Si1 0.203390 0.924295 0.000000
Si Si2 0.441243 0.849729 0.186668
Si Si3 0.681580 0.915504 0.208217
Si Si4 0.554773 0.324925 0.822808
Si Si5 0.814322 0.455684 0.500000
Si Si6 0.939824 0.441068 0.000000
Si Si7 0.787811 0.168396 0.814414
Si Si8 0.950792 0.072882 0.000000
O O1 0.223183 0.872116 0.912971
O O2 0.126685 0.953705 0.000000
O O3 0.241733 0.004551 0.000000
O O4 0.500000 0.885480 0.250000
O O5 0.371620 0.858699 0.243131
O O6 0.458545 0.763601 0.158955
O O7 0.442924 0.891326 0.090393
O O8 0.675364 0.908325 0.095865
O O9 0.755515 0.884808 0.234827
O O10 0.669727 0.000000 0.250000
O O11 0.500000 0.356583 0.750000
O O12 0.632763 0.329976 0.789648
O O13 0.536898 0.374036 0.912077
O O14 0.867493 0.522211 0.500000
O O15 0.000000 0.500000 0.000000
O O16 0.750000 0.250000 0.817500
O O17 0.000000 0.000000 0.000000
#
# Coordination Sequence:
#
# PCOD8277040 Si02
#       8
#     8  16  16  16   8   8  16   8
#     4  10  21  37  65  97 122 160 214 278 325 384
#     4  11  23  39  62  88 128 172 216 264 313 389
#     4  12  23  40  63  92 133 164 210 268 326 393
#     4  10  23  43  65  93 125 172 217 261 328 384
#     4  12  24  38  57  95 129 165 206 254 332 381
#     4  12  23  35  58  91 124 169 212 258 316 380
#     4  11  21  40  66  93 124 164 219 272 324 375
#     4  10  23  42  67  98 127 159 218 282 329 379
#
# _framework density 19.275466000000002
#
# number of rings (size 3 to 8) (size 9 to 14) (size 15 to 20)
#    0.000    1.000    5.000    1.750    0.000    1.667 
#    0.000    1.250    0.000    0.000    0.000    0.000 
#    0.000    0.000    0.000    0.000    0.000    0.000 
#
# Total GULP energy -595067.955150 kJ/mol
# GULP energy per Si atom -12397.249066 kJ/mol
# Density = 1.923159 g / cm^3
# Si number density = 19.275466 Si / 1000 Ang^3
#
#
#
# Elastic Constant Matrix: (Units=GPa)
#
#
# Indices 1 2 3 4 5 6 
#
# 1 123.8274 40.7748 70.9422 0.0000 0.0000 0.0000
# 2 40.7748 81.0892 58.2967 0.0000 0.0000 0.0000
# 3 70.9422 58.2967 175.9673 0.0000 0.0000 0.0000
# 4 0.0000 0.0000 0.0000 29.9486 0.0000 0.0000
# 5 0.0000 0.0000 0.0000 0.0000 34.4581 0.0000
# 6 0.0000 0.0000 0.0000 0.0000 0.0000 29.8028
#
#
#
# Elastic Compliance Matrix: (Units=1/GPa)
#
#
# Indices 1 2 3 4 5 6 
#
# 1 0.011062 -0.003093 -0.003435 0.000000 0.000000 0.000000
# 2 -0.003093 0.017052 -0.004402 0.000000 0.000000 0.000000
# 3 -0.003435 -0.004402 0.008526 0.000000 0.000000 0.000000
# 4 0.000000 0.000000 0.000000 0.033390 0.000000 0.000000
# 5 0.000000 0.000000 0.000000 0.000000 0.029021 0.000000
# 6 0.000000 0.000000 0.000000 0.000000 0.000000 0.033554
#
#
# Mechanical properties :
#
#
# Convention : Reuss Voigt Hill
#
# Bulk Modulus (GPa) = 67.65943 80.10125 73.88034
# Shear Modulus (GPa) = 31.36891 32.89992 32.13441
#
# Velocity S-wave (km/s) = 4.03848 4.13586 4.08746
# Velocity P-wave (km/s) = 7.54475 8.02829 7.79027
#
# Compressibility (1/GPa) = 0.01477991
#
# Stress axis : x y z
#
# Youngs Moduli (GPa) = 90.39750 58.64314 117.28496
#
# Poissons Ratio (x) = 0.18138 0.40289
# Poissons Ratio (y) = 0.27959 0.51633
# Poissons Ratio (z) = 0.31053 0.25817
#
# Static dielectric constant tensor:
#      x y z
#    x 3.811350 0.000000 0.000000 
#    y 0.000000 3.455800 0.000000 
#    z 0.000000 0.000000 3.669660 
# 
# 
# High freq. dielectric constant tensor:
#      x y z
#    x 1.765920 0.000000 0.000000 
#    y 0.000000 1.743750 0.000000 
#    z 0.000000 0.000000 1.758060 
# 
# From -- ./inp_files/31275.got.cif
#   From: 2010.03.12/outbox.cif.g09.slc.cpg/sg66_16_cif.got.tgz:31275.got - 2010.04.10 21:57:39.
