data_PCOD8277929
_publ_section_title
;
Structure prediction by ZEFSAII (Michael W. Deem and Ramdas Pophale) SiO2 
 PCOD8277929
Probable space group: C C C M
;
_chemical_formula_sum "Si O2"
_cell_formula_units_Z 96
_cell_length_a 25.959288
_cell_length_b 12.930263
_cell_length_c 17.233831
_cell_angle_alpha 90.000000
_cell_angle_beta 90.000000
_cell_angle_gamma 90.000000
_cell_volume 5784.714971
_symmetry_space_group_name_H-M "C C C M"
_symmetry_group_IT_number 66
_symmetry_cell_setting 'orthorhombic'
loop_
_space_group_symop_operation_xyz
x,y,z
-x,-y,z
x,-y,1/2-z
-x,y,1/2-z
-x,-y,-z
x,y,-z
-x,y,1/2+z
x,-y,1/2+z
1/2+x,1/2+y,z
1/2-x,1/2-y,z
1/2+x,1/2-y,1/2-z
1/2-x,1/2+y,1/2-z
1/2-x,1/2-y,-z
1/2+x,1/2+y,-z
1/2-x,1/2+y,1/2+z
1/2+x,1/2-y,1/2+z
loop_
_atom_site_type_symbol
_atom_site_label
_atom_site_fract_x
_atom_site_fract_y
_atom_site_fract_z
Si Si1 0.396039 0.881383 0.731037
Si Si2 0.876927 0.070995 0.178472
Si Si3 0.035134 0.227700 0.679232
Si Si4 0.852173 0.878897 0.912155
Si Si5 0.059506 0.281718 0.912484
Si Si6 0.307976 0.277057 0.231627
O O1 0.434375 0.829690 0.793077
O O2 0.419996 0.870651 0.644889
O O3 0.340343 0.828340 0.734047
O O4 0.388490 0.000000 0.750000
O O5 0.925468 0.139320 0.152675
O O6 0.829323 0.142897 0.204539
O O7 0.894527 0.000000 0.250000
O O8 0.859704 0.000196 0.106370
O O9 0.000000 0.186523 0.750000
O O10 0.999811 0.254944 0.605631
O O11 0.906861 0.821922 0.900046
O O12 0.810567 0.828435 0.854049
O O13 0.831748 0.867237 0.000000
O O14 0.063798 0.323617 0.000000
O O15 0.250000 0.250000 0.253422
#
# Coordination Sequence:
#
# PCOD8277929 Si02
#       6
#    16  16  16  16  16  16
#     4   9  18  32  48  66  91 122 155 192 231 267
#     4   9  17  29  45  68  95 121 152 189 228 272
#     4   9  17  28  43  65  93 125 157 188 223 264
#     4   9  18  31  47  70  98 122 145 183 233 277
#     4   9  18  31  46  68  96 122 153 189 221 263
#     4   9  18  32  51  71  90 116 153 196 233 272
#
# _framework density 16.595459999999999
#
# number of rings (size 3 to 8) (size 9 to 14) (size 15 to 20)
#    0.000    3.000    0.000    3.000    0.000    8.333 
#    0.000    3.333    0.000    1.500    0.000    0.000 
#    0.000    0.000    0.000    0.000    0.000    0.000 
#
# Total GULP energy -595157.901693 kJ/mol
# GULP energy per Si atom -12399.122952 kJ/mol
# Density = 1.655769 g / cm^3
# Si number density = 16.595460 Si / 1000 Ang^3
#
#
#
# Elastic Constant Matrix: (Units=GPa)
#
#
# Indices 1 2 3 4 5 6 
#
# 1 104.4694 43.4533 28.3673 0.0000 0.0000 0.0000
# 2 43.4533 117.4901 40.6315 0.0000 0.0000 0.0000
# 3 28.3673 40.6315 71.6904 0.0000 0.0000 0.0000
# 4 0.0000 0.0000 0.0000 17.6303 0.0000 0.0000
# 5 0.0000 0.0000 0.0000 0.0000 15.8300 0.0000
# 6 0.0000 0.0000 0.0000 0.0000 0.0000 11.1609
#
#
#
# Elastic Compliance Matrix: (Units=1/GPa)
#
#
# Indices 1 2 3 4 5 6 
#
# 1 0.011722 -0.003397 -0.002713 0.000000 0.000000 0.000000
# 2 -0.003397 0.011571 -0.005214 0.000000 0.000000 0.000000
# 3 -0.002713 -0.005214 0.017977 0.000000 0.000000 0.000000
# 4 0.000000 0.000000 0.000000 0.056721 0.000000 0.000000
# 5 0.000000 0.000000 0.000000 0.000000 0.063171 0.000000
# 6 0.000000 0.000000 0.000000 0.000000 0.000000 0.089598
#
#
# Mechanical properties :
#
#
# Convention : Reuss Voigt Hill
#
# Bulk Modulus (GPa) = 53.69836 57.61712 55.65774
# Shear Modulus (GPa) = 17.88175 21.00411 19.44293
#
# Velocity S-wave (km/s) = 3.28610 3.56146 3.42655
# Velocity P-wave (km/s) = 6.84291 7.19069 7.01896
#
# Compressibility (1/GPa) = 0.01862254
#
# Stress axis : x y z
#
# Youngs Moduli (GPa) = 85.31106 86.42444 55.62579
#
# Poissons Ratio (x) = 0.29359 0.15091
# Poissons Ratio (y) = 0.28981 0.29002
# Poissons Ratio (z) = 0.23144 0.45059
#
# Static dielectric constant tensor:
#      x y z
#    x 2.984910 0.000000 0.000000 
#    y 0.000000 3.021490 0.000000 
#    z 0.000000 0.000000 3.073610 
# 
# 
# High freq. dielectric constant tensor:
#      x y z
#    x 1.629110 0.000000 0.000000 
#    y 0.000000 1.631770 0.000000 
#    z 0.000000 0.000000 1.623840 
# 
# From -- ./inp_files/38811.got.cif
#   From: 2010.03.12/outbox.cif.g09.slc.cpg/sg66_20_cif.got.tgz:38811.got - 2010.04.10 21:57:39.
