data_PCOD8277987
_publ_section_title
;
Structure prediction by ZEFSAII (Michael W. Deem and Ramdas Pophale) SiO2 
 PCOD8277987
Probable space group: C M M A
;
_chemical_formula_sum "Si O2"
_cell_formula_units_Z 84
_cell_length_a 16.580536
_cell_length_b 13.729762
_cell_length_c 19.252610
_cell_angle_alpha 90.000000
_cell_angle_beta 90.000000
_cell_angle_gamma 90.000000
_cell_volume 4382.795311
_symmetry_space_group_name_H-M "C M M A"
_symmetry_group_IT_number 67
_symmetry_cell_setting 'orthorhombic'
loop_
_space_group_symop_operation_xyz
x,y,z
-x,1/2-y,z
x,-y,-z
-x,1/2+y,-z
-x,-y,-z
x,1/2+y,-z
-x,y,z
x,1/2-y,z
1/2+x,1/2+y,z
1/2-x,-y,z
1/2+x,1/2-y,-z
1/2-x,y,-z
1/2-x,1/2-y,-z
1/2+x,y,-z
1/2-x,1/2+y,z
1/2+x,-y,z
loop_
_atom_site_type_symbol
_atom_site_label
_atom_site_fract_x
_atom_site_fract_y
_atom_site_fract_z
Si Si1 0.500000 0.750000 0.864356
Si Si2 0.836773 0.964811 0.698599
Si Si3 0.666080 0.750000 0.819437
Si Si4 0.293129 0.750000 0.298163
Si Si5 0.092828 0.057517 0.567965
Si Si6 0.696945 0.250000 0.432657
Si Si7 0.500000 0.459574 0.076886
Si Si8 0.835416 0.040776 0.851139
O O1 0.570307 0.750000 0.807197
O O2 0.500000 0.657392 0.916193
O O3 0.843622 0.848937 0.715692
O O4 0.750000 0.000000 0.670173
O O5 0.899019 0.992291 0.637801
O O6 0.853116 0.022278 0.769835
O O7 0.712862 0.750000 0.747710
O O8 0.682917 0.845625 0.864877
O O9 0.266769 0.750000 0.376577
O O10 0.142194 0.155849 0.575055
O O11 0.000000 0.085317 0.557954
O O12 0.124348 0.000000 0.500000
O O13 0.750000 0.250000 0.500000
O O14 0.415815 0.499003 0.110380
O O15 0.500000 0.500000 0.000000
O O16 0.750000 0.000000 0.878134
#
# Coordination Sequence:
#
# PCOD8277987 Si02
#       8
#     4  16   8   8  16   8   8  16
#     4   8  20  36  60  88 118 158 190 250 296 338
#     4  11  21  37  59  86 116 153 200 245 302 354
#     4  10  16  34  55  86 119 147 198 243 294 349
#     4  12  20  35  57  91 112 147 206 248 291 365
#     4  11  25  41  57  84 121 158 201 251 303 364
#     4  12  23  37  62  85 112 155 202 252 305 356
#     4  10  22  40  62  92 123 159 201 238 302 366
#     4  10  20  36  62  88 122 156 197 250 297 356
#
# _framework density 19.165851
#
# number of rings (size 3 to 8) (size 9 to 14) (size 15 to 20)
#    0.000    1.333    5.714    1.429    1.333    0.381 
#    5.143    3.333    0.000    3.429    0.000    0.000 
#    0.000    0.000    0.000    0.000    0.000    0.000 
#
# Total GULP energy -520436.804883 kJ/mol
# GULP energy per Si atom -12391.352497 kJ/mol
# Density = 1.912223 g / cm^3
# Si number density = 19.165851 Si / 1000 Ang^3
#
#
#
# Elastic Constant Matrix: (Units=GPa)
#
#
# Indices 1 2 3 4 5 6 
#
# 1 109.2589 35.0149 45.4994 0.0000 0.0000 0.0000
# 2 35.0149 122.6934 21.8934 0.0000 0.0000 0.0000
# 3 45.4994 21.8934 97.9544 0.0000 0.0000 0.0000
# 4 0.0000 0.0000 0.0000 21.7019 0.0000 0.0000
# 5 0.0000 0.0000 0.0000 0.0000 31.0622 0.0000
# 6 0.0000 0.0000 0.0000 0.0000 0.0000 9.3739
#
#
#
# Elastic Compliance Matrix: (Units=1/GPa)
#
#
# Indices 1 2 3 4 5 6 
#
# 1 0.012065 -0.002545 -0.005035 0.000000 0.000000 0.000000
# 2 -0.002545 0.009026 -0.000835 0.000000 0.000000 0.000000
# 3 -0.005035 -0.000835 0.012734 0.000000 0.000000 0.000000
# 4 0.000000 0.000000 0.000000 0.046079 0.000000 0.000000
# 5 0.000000 0.000000 0.000000 0.000000 0.032193 0.000000
# 6 0.000000 0.000000 0.000000 0.000000 0.000000 0.106680
#
#
# Mechanical properties :
#
#
# Convention : Reuss Voigt Hill
#
# Bulk Modulus (GPa) = 58.84295 59.41355 59.12825
# Shear Modulus (GPa) = 20.72345 27.59420 24.15883
#
# Velocity S-wave (km/s) = 3.29183 3.79853 3.55422
# Velocity P-wave (km/s) = 6.72435 7.09263 6.91094
#
# Compressibility (1/GPa) = 0.01699439
#
# Stress axis : x y z
#
# Youngs Moduli (GPa) = 82.88443 110.79524 78.52721
#
# Poissons Ratio (x) = 0.28194 0.39542
# Poissons Ratio (y) = 0.21091 0.06559
# Poissons Ratio (z) = 0.41736 0.09255
#
# Static dielectric constant tensor:
#      x y z
#    x 3.615910 0.000000 0.000000 
#    y 0.000000 3.818910 0.000000 
#    z 0.000000 0.000000 3.263120 
# 
# 
# High freq. dielectric constant tensor:
#      x y z
#    x 1.744480 0.000000 0.000000 
#    y 0.000000 1.757730 0.000000 
#    z 0.000000 0.000000 1.724670 
# 
# From -- ./inp_files/38360.got.cif
#   From: 2010.03.12/outbox.cif.g09.slc.cpg/sg67_20_cif.got.tgz:38360.got - 2010.04.10 22:41:39.
