data_PCOD8277164
_publ_section_title
;
Structure prediction by ZEFSAII (Michael W. Deem and Ramdas Pophale) SiO2 
 PCOD8277164
Probable space group: C C C M
;
_chemical_formula_sum "Si O2"
_cell_formula_units_Z 112
_cell_length_a 25.436839
_cell_length_b 11.559389
_cell_length_c 18.918279
_cell_angle_alpha 90.000000
_cell_angle_beta 90.000000
_cell_angle_gamma 90.000000
_cell_volume 5562.623243
_symmetry_space_group_name_H-M "C C C M"
_symmetry_group_IT_number 66
_symmetry_cell_setting 'orthorhombic'
loop_
_space_group_symop_operation_xyz
x,y,z
-x,-y,z
x,-y,1/2-z
-x,y,1/2-z
-x,-y,-z
x,y,-z
-x,y,1/2+z
x,-y,1/2+z
1/2+x,1/2+y,z
1/2-x,1/2-y,z
1/2+x,1/2-y,1/2-z
1/2-x,1/2+y,1/2-z
1/2-x,1/2-y,-z
1/2+x,1/2+y,-z
1/2-x,1/2+y,1/2+z
1/2+x,1/2-y,1/2+z
loop_
_atom_site_type_symbol
_atom_site_label
_atom_site_fract_x
_atom_site_fract_y
_atom_site_fract_z
Si Si1 0.594814 0.281857 0.675194
Si Si2 0.250803 0.381408 0.419468
Si Si3 0.492261 0.633164 0.422482
Si Si4 0.562065 0.025139 0.329604
Si Si5 0.865474 0.633442 0.419089
Si Si6 0.670657 0.474796 0.327286
Si Si7 0.406992 0.328949 0.335950
O O1 0.558516 0.358166 0.625627
O O2 0.584481 0.151210 0.649870
O O3 0.654025 0.337982 0.664598
O O4 0.578692 0.287486 0.757263
O O5 0.271150 0.374234 0.500000
O O6 0.250000 0.250000 0.387867
O O7 0.191198 0.428966 0.414392
O O8 0.286648 0.478116 0.382035
O O9 0.500000 0.500000 0.435623
O O10 0.485724 0.693054 0.500000
O O11 0.541136 0.689208 0.382008
O O12 0.500000 0.000000 0.337386
O O13 0.580663 0.000000 0.250000
O O14 0.589167 0.943065 0.385775
O O15 0.879822 0.661819 0.500000
O O16 0.862046 0.751839 0.373641
O O17 0.694892 0.500000 0.250000
O O18 0.615022 0.541478 0.334166
#
# Coordination Sequence:
#
# PCOD8277164 Si02
#       7
#    16  16  16  16  16  16  16
#     4  11  23  40  62  87 130 170 212 269 328 381
#     4  10  21  39  65  95 127 165 210 264 321 382
#     4  11  23  35  54  91 130 168 208 253 319 392
#     4  11  24  42  63  92 124 172 222 263 320 388
#     4  11  23  40  66  94 122 165 214 265 322 381
#     4  10  22  38  59  96 127 163 211 266 332 386
#     4  11  20  37  61  90 125 161 212 266 321 387
#
# _framework density 20.134385000000002
#
# number of rings (size 3 to 8) (size 9 to 14) (size 15 to 20)
#    0.000    1.286    4.286    1.714    2.000    3.143 
#    0.000    0.714    0.000    1.714    0.000    0.000 
#    0.000    0.000    0.000    0.000    0.000    0.000 
#
# Total GULP energy -693987.699365 kJ/mol
# GULP energy per Si atom -12392.637489 kJ/mol
# Density = 2.008856 g / cm^3
# Si number density = 20.134385 Si / 1000 Ang^3
#
#
#
# Elastic Constant Matrix: (Units=GPa)
#
#
# Indices 1 2 3 4 5 6 
#
# 1 77.3305 26.4781 49.1122 0.0000 0.0000 0.0000
# 2 26.4781 93.9937 27.3684 0.0000 0.0000 0.0000
# 3 49.1122 27.3684 142.5790 0.0000 0.0000 0.0000
# 4 0.0000 0.0000 0.0000 -6.0845 0.0000 0.0000
# 5 0.0000 0.0000 0.0000 0.0000 35.9580 0.0000
# 6 0.0000 0.0000 0.0000 0.0000 0.0000 34.7752
#
#
#
# Elastic Compliance Matrix: (Units=1/GPa)
#
#
# Indices 1 2 3 4 5 6 
#
# 1 0.017502 -0.003363 -0.005383 0.000000 0.000000 0.000000
# 2 -0.003363 0.011915 -0.001129 0.000000 0.000000 0.000000
# 3 -0.005383 -0.001129 0.009085 0.000000 0.000000 0.000000
# 4 0.000000 0.000000 0.000000 -0.164353 0.000000 0.000000
# 5 0.000000 0.000000 0.000000 0.000000 0.027810 0.000000
# 6 0.000000 0.000000 0.000000 0.000000 0.000000 0.028756
#
#
# Mechanical properties :
#
#
# Convention : Reuss Voigt Hill
#
# Bulk Modulus (GPa) = 53.32789 57.75784 55.54286
# Shear Modulus (GPa) = -115.51332 26.99272 -44.26030
#
# Velocity S-wave (km/s) = -7.58259 3.66543 -4.69363
# Velocity P-wave (km/s) = 7.07937 6.83098 1.31438
#
# Compressibility (1/GPa) = 0.01875191
#
# Stress axis : x y z
#
# Youngs Moduli (GPa) = 57.13727 83.92786 110.07698
#
# Poissons Ratio (x) = 0.28224 0.59255
# Poissons Ratio (y) = 0.19214 0.12425
# Poissons Ratio (z) = 0.30757 0.09473
#
# Static dielectric constant tensor:
#      x y z
#    x 3.536410 0.000000 0.000000 
#    y 0.000000 3.956180 0.000000 
#    z 0.000000 0.000000 3.797280 
# 
# 
# High freq. dielectric constant tensor:
#      x y z
#    x 1.774870 0.000000 0.000000 
#    y 0.000000 1.777110 0.000000 
#    z 0.000000 0.000000 1.792880 
# 
# From -- ./inp_files/52575.got.cif
#   From: 2010.03.12/outbox.cif.g09.slc.cpg/sg66_27_cif.got.tgz:52575.got - 2010.04.10 21:57:39.
