data_PCOD8277185
_publ_section_title
;
Structure prediction by ZEFSAII (Michael W. Deem and Ramdas Pophale) SiO2 
 PCOD8277185
Probable space group: C C C M
;
_chemical_formula_sum "Si O2"
_cell_formula_units_Z 64
_cell_length_a 10.587889
_cell_length_b 10.813558
_cell_length_c 27.580050
_cell_angle_alpha 90.000000
_cell_angle_beta 90.000000
_cell_angle_gamma 90.000000
_cell_volume 3157.715819
_symmetry_space_group_name_H-M "C C C M"
_symmetry_group_IT_number 66
_symmetry_cell_setting 'orthorhombic'
loop_
_space_group_symop_operation_xyz
x,y,z
-x,-y,z
x,-y,1/2-z
-x,y,1/2-z
-x,-y,-z
x,y,-z
-x,y,1/2+z
x,-y,1/2+z
1/2+x,1/2+y,z
1/2-x,1/2-y,z
1/2+x,1/2-y,1/2-z
1/2-x,1/2+y,1/2-z
1/2-x,1/2-y,-z
1/2+x,1/2+y,-z
1/2-x,1/2+y,1/2+z
1/2+x,1/2-y,1/2+z
loop_
_atom_site_type_symbol
_atom_site_label
_atom_site_fract_x
_atom_site_fract_y
_atom_site_fract_z
Si Si1 0.395272 0.600811 0.823960
Si Si2 0.774492 0.560324 0.000000
Si Si3 0.834020 0.859727 0.567618
Si Si4 0.697781 0.000000 0.250000
Si Si5 0.500000 0.797048 0.750000
Si Si6 0.954184 0.227448 0.500000
O O1 0.500000 0.500000 0.834334
O O2 0.339425 0.643670 0.874651
O O3 0.282101 0.539261 0.794919
O O4 0.456091 0.714939 0.795197
O O5 0.738331 0.481405 0.951950
O O6 0.918894 0.622143 0.000000
O O7 0.683521 0.674930 0.000000
O O8 0.750000 0.750000 0.547662
O O9 0.972898 0.828197 0.546784
O O10 0.614519 0.116192 0.267711
#
# Coordination Sequence:
#
# PCOD8277185 Si02
#       6
#    16   8  16   8   8   8
#     4  12  23  41  64  89 122 164 205 256 313 372
#     4  10  21  40  63  89 122 162 207 255 308 369
#     4  11  23  38  61  90 124 161 203 256 308 373
#     4  11  23  40  62  88 121 159 204 258 312 375
#     4  11  23  40  62  88 121 159 204 258 312 375
#     4  10  21  40  63  89 122 162 207 255 308 369
#
# _framework density 20.267814999999999
#
# number of rings (size 3 to 8) (size 9 to 14) (size 15 to 20)
#    0.000    1.000    2.500    6.750    0.000    4.000 
#    0.000    0.000    0.000    0.000    0.000    0.000 
#    0.000    0.000    0.000    0.000    0.000    0.000 
#
# Total GULP energy -396511.810314 kJ/mol
# GULP energy per Si atom -12390.994072 kJ/mol
# Density = 2.022168 g / cm^3
# Si number density = 20.267815 Si / 1000 Ang^3
#
#
#
# Elastic Constant Matrix: (Units=GPa)
#
#
# Indices 1 2 3 4 5 6 
#
# 1 49.8336 19.2179 21.0525 0.0000 0.0000 0.0000
# 2 19.2179 103.3119 30.7649 0.0000 0.0000 0.0000
# 3 21.0525 30.7649 154.6499 0.0000 0.0000 0.0000
# 4 0.0000 0.0000 0.0000 39.8586 0.0000 0.0000
# 5 0.0000 0.0000 0.0000 0.0000 66.2854 0.0000
# 6 0.0000 0.0000 0.0000 0.0000 0.0000 54.3835
#
#
#
# Elastic Compliance Matrix: (Units=1/GPa)
#
#
# Indices 1 2 3 4 5 6 
#
# 1 0.022400 -0.003464 -0.002360 0.000000 0.000000 0.000000
# 2 -0.003464 0.010825 -0.001682 0.000000 0.000000 0.000000
# 3 -0.002360 -0.001682 0.007122 0.000000 0.000000 0.000000
# 4 0.000000 0.000000 0.000000 0.025089 0.000000 0.000000
# 5 0.000000 0.000000 0.000000 0.000000 0.015086 0.000000
# 6 0.000000 0.000000 0.000000 0.000000 0.000000 0.018388
#
#
# Mechanical properties :
#
#
# Convention : Reuss Voigt Hill
#
# Bulk Modulus (GPa) = 39.47182 49.98512 44.72847
# Shear Modulus (GPa) = 40.86104 47.88953 44.37528
#
# Velocity S-wave (km/s) = 4.49492 4.86617 4.68423
# Velocity P-wave (km/s) = 6.81590 7.50258 7.16747
#
# Compressibility (1/GPa) = 0.02533453
#
# Stress axis : x y z
#
# Youngs Moduli (GPa) = 44.64344 92.38215 140.40843
#
# Poissons Ratio (x) = 0.32000 0.33139
# Poissons Ratio (y) = 0.15464 0.23614
# Poissons Ratio (z) = 0.10537 0.15537
#
# Static dielectric constant tensor:
#      x y z
#    x 4.180560 0.000000 0.000000 
#    y 0.000000 4.075640 0.000000 
#    z 0.000000 0.000000 3.542010 
# 
# 
# High freq. dielectric constant tensor:
#      x y z
#    x 1.806690 0.000000 0.000000 
#    y 0.000000 1.814560 0.000000 
#    z 0.000000 0.000000 1.780430 
# 
# From -- ./inp_files/67961.got.cif
#   From: 2010.03.12/outbox.cif.g09.slc.cpg/sg66_34_cif.got.tgz:67961.got - 2010.04.10 21:57:39.
