data_PCOD8277149
_publ_section_title
;
Structure prediction by ZEFSAII (Michael W. Deem and Ramdas Pophale) SiO2 
 PCOD8277149
Probable space group: C C C M
;
_chemical_formula_sum "Si O2"
_cell_formula_units_Z 64
_cell_length_a 12.613746
_cell_length_b 12.496606
_cell_length_c 18.114878
_cell_angle_alpha 90.000000
_cell_angle_beta 90.000000
_cell_angle_gamma 90.000000
_cell_volume 2855.430357
_symmetry_space_group_name_H-M "C C C M"
_symmetry_group_IT_number 66
_symmetry_cell_setting 'orthorhombic'
loop_
_space_group_symop_operation_xyz
x,y,z
-x,-y,z
x,-y,1/2-z
-x,y,1/2-z
-x,-y,-z
x,y,-z
-x,y,1/2+z
x,-y,1/2+z
1/2+x,1/2+y,z
1/2-x,1/2-y,z
1/2+x,1/2-y,1/2-z
1/2-x,1/2+y,1/2-z
1/2-x,1/2-y,-z
1/2+x,1/2+y,-z
1/2-x,1/2+y,1/2+z
1/2+x,1/2-y,1/2+z
loop_
_atom_site_type_symbol
_atom_site_label
_atom_site_fract_x
_atom_site_fract_y
_atom_site_fract_z
Si Si1 0.006381 0.669752 0.918335
Si Si2 0.186475 0.355284 0.182919
Si Si3 0.430066 0.403509 0.417204
Si Si4 0.286672 0.090469 0.652801
O O1 0.928863 0.633416 0.853446
O O2 0.999777 0.797746 0.918049
O O3 0.121891 0.617649 0.905667
O O4 0.969728 0.630535 0.000000
O O5 0.250000 0.250000 0.155217
O O6 0.176308 0.354303 0.271202
O O7 0.242724 0.464655 0.158625
O O8 0.500000 0.500000 0.381208
O O9 0.396202 0.438661 0.500000
O O10 0.326602 0.364702 0.372294
#
# Coordination Sequence:
#
# PCOD8277149 Si02
#       4
#    16  16  16  16
#     4  11  23  39  62  90 122 162 206 256 310 368
#     4  11  24  41  60  87 122 161 205 254 308 368
#     4  10  21  39  64  93 124 159 202 255 313 372
#     4  11  23  40  63  90 121 161 205 251 310 375
#
# _framework density 22.413435
#
# number of rings (size 3 to 8) (size 9 to 14) (size 15 to 20)
#    0.000    1.250    0.000    6.000    0.000    7.500 
#    0.000    7.500    0.000    0.000    0.000    0.000 
#    0.000    0.000    0.000    0.000    0.000    0.000 
#
# Total GULP energy -396700.830276 kJ/mol
# GULP energy per Si atom -12396.900946 kJ/mol
# Density = 2.236242 g / cm^3
# Si number density = 22.413435 Si / 1000 Ang^3
#
#
#
# Elastic Constant Matrix: (Units=GPa)
#
#
# Indices 1 2 3 4 5 6 
#
# 1 111.1179 2.7880 52.7140 0.0000 0.0000 0.0000
# 2 2.7880 95.4601 13.2279 0.0000 0.0000 0.0000
# 3 52.7140 13.2279 122.4711 0.0000 0.0000 0.0000
# 4 0.0000 0.0000 0.0000 29.3548 0.0000 0.0000
# 5 0.0000 0.0000 0.0000 0.0000 37.4290 0.0000
# 6 0.0000 0.0000 0.0000 0.0000 0.0000 35.6121
#
#
#
# Elastic Compliance Matrix: (Units=1/GPa)
#
#
# Indices 1 2 3 4 5 6 
#
# 1 0.011320 0.000350 -0.004910 0.000000 0.000000 0.000000
# 2 0.000350 0.010646 -0.001300 0.000000 0.000000 0.000000
# 3 -0.004910 -0.001300 0.010419 0.000000 0.000000 0.000000
# 4 0.000000 0.000000 0.000000 0.034066 0.000000 0.000000
# 5 0.000000 0.000000 0.000000 0.000000 0.026717 0.000000
# 6 0.000000 0.000000 0.000000 0.000000 0.000000 0.028080
#
#
# Mechanical properties :
#
#
# Convention : Reuss Voigt Hill
#
# Bulk Modulus (GPa) = 48.39521 51.83433 50.11477
# Shear Modulus (GPa) = 35.75072 37.83381 36.79226
#
# Velocity S-wave (km/s) = 3.99815 4.11298 4.05597
# Velocity P-wave (km/s) = 6.55382 6.76255 6.65900
#
# Compressibility (1/GPa) = 0.02066320
#
# Stress axis : x y z
#
# Youngs Moduli (GPa) = 88.33897 93.93594 95.97786
#
# Poissons Ratio (x) = -0.03286 0.47127
# Poissons Ratio (y) = -0.03090 0.12481
# Poissons Ratio (z) = 0.43376 0.12215
#
# Static dielectric constant tensor:
#      x y z
#    x 3.656120 0.000000 0.000000 
#    y 0.000000 4.217850 0.000000 
#    z 0.000000 0.000000 4.001450 
# 
# 
# High freq. dielectric constant tensor:
#      x y z
#    x 1.866630 0.000000 0.000000 
#    y 0.000000 1.905580 0.000000 
#    z 0.000000 0.000000 1.876910 
# 
# From -- ./inp_files/37987.got.cif
#   From: 2010.03.12/outbox.cif.g09.slc.cpg/sg66_19_cif.got.tgz:37987.got - 2010.04.10 21:57:39.
