data_PCOD8277016
_publ_section_title
;
Structure prediction by ZEFSAII (Michael W. Deem and Ramdas Pophale) SiO2 
 PCOD8277016
Probable space group: C C C M
;
_chemical_formula_sum "Si O2"
_cell_formula_units_Z 56
_cell_length_a 4.959311
_cell_length_b 31.654731
_cell_length_c 15.549192
_cell_angle_alpha 90.000000
_cell_angle_beta 90.000000
_cell_angle_gamma 90.000000
_cell_volume 2441.000101
_symmetry_space_group_name_H-M "C C C M"
_symmetry_group_IT_number 66
_symmetry_cell_setting 'orthorhombic'
loop_
_space_group_symop_operation_xyz
x,y,z
-x,-y,z
x,-y,1/2-z
-x,y,1/2-z
-x,-y,-z
x,y,-z
-x,y,1/2+z
x,-y,1/2+z
1/2+x,1/2+y,z
1/2-x,1/2-y,z
1/2+x,1/2-y,1/2-z
1/2-x,1/2+y,1/2-z
1/2-x,1/2-y,-z
1/2+x,1/2+y,-z
1/2-x,1/2+y,1/2+z
1/2+x,1/2-y,1/2+z
loop_
_atom_site_type_symbol
_atom_site_label
_atom_site_fract_x
_atom_site_fract_y
_atom_site_fract_z
Si Si1 0.759004 0.971887 0.904419
Si Si2 0.545050 0.114721 0.652870
Si Si3 0.000000 0.222318 0.750000
Si Si4 0.554227 0.338824 0.095926
O O1 0.673428 0.931986 0.847400
O O2 0.500000 0.000000 0.912469
O O3 0.849694 0.956573 0.000000
O O4 0.000000 0.000000 0.862144
O O5 0.500000 0.128904 0.750000
O O6 0.257021 0.120759 0.605719
O O7 0.749068 0.146165 0.606472
O O8 0.250000 0.250000 0.783582
O O9 0.114778 0.195520 0.669379
O O10 0.587011 0.319565 0.000000
#
# Coordination Sequence:
#
# PCOD8277016 Si02
#       4
#    16  16   8  16
#     4  10  21  37  59  91 130 172 221 277 334 391
#     4  12  23  43  68  98 137 182 237 290 337 404
#     4  12  26  46  72 104 143 172 221 288 350 416
#     4  12  25  45  72 102 136 184 232 277 346 418
#
# _framework density 22.941414999999999
#
# number of rings (size 3 to 8) (size 9 to 14) (size 15 to 20)
#    0.000    0.571    2.857    6.000    0.000    4.000 
#    0.000    1.429    0.000    0.000    0.000    0.000 
#    0.000    0.000    0.000    0.000    0.000    0.000 
#
# Total GULP energy -347183.930030 kJ/mol
# GULP energy per Si atom -12399.426073 kJ/mol
# Density = 2.288920 g / cm^3
# Si number density = 22.941415 Si / 1000 Ang^3
#
#
#
# Elastic Constant Matrix: (Units=GPa)
#
#
# Indices 1 2 3 4 5 6 
#
# 1 135.6429 33.5672 35.6655 0.0000 0.0000 0.0000
# 2 33.5672 93.7402 41.0232 0.0000 0.0000 0.0000
# 3 35.6655 41.0232 151.8562 0.0000 0.0000 0.0000
# 4 0.0000 0.0000 0.0000 24.8683 0.0000 0.0000
# 5 0.0000 0.0000 0.0000 0.0000 29.8972 0.0000
# 6 0.0000 0.0000 0.0000 0.0000 0.0000 39.8975
#
#
#
# Elastic Compliance Matrix: (Units=1/GPa)
#
#
# Indices 1 2 3 4 5 6 
#
# 1 0.008310 -0.002406 -0.001302 0.000000 0.000000 0.000000
# 2 -0.002406 0.012795 -0.002891 0.000000 0.000000 0.000000
# 3 -0.001302 -0.002891 0.007672 0.000000 0.000000 0.000000
# 4 0.000000 0.000000 0.000000 0.040212 0.000000 0.000000
# 5 0.000000 0.000000 0.000000 0.000000 0.033448 0.000000
# 6 0.000000 0.000000 0.000000 0.000000 0.000000 0.025064
#
#
# Mechanical properties :
#
#
# Convention : Reuss Voigt Hill
#
# Bulk Modulus (GPa) = 64.19120 66.86123 65.52622
# Shear Modulus (GPa) = 34.27201 36.99817 35.63509
#
# Velocity S-wave (km/s) = 3.86928 4.02023 3.94548
# Velocity P-wave (km/s) = 6.92842 7.12441 7.02710
#
# Compressibility (1/GPa) = 0.01557846
#
# Stress axis : x y z
#
# Youngs Moduli (GPa) = 120.33713 78.15747 130.34437
#
# Poissons Ratio (x) = 0.18805 0.16967
# Poissons Ratio (y) = 0.28953 0.37687
# Poissons Ratio (z) = 0.15665 0.22598
#
# Static dielectric constant tensor:
#      x y z
#    x 4.324980 0.000000 0.000000 
#    y 0.000000 3.887330 0.000000 
#    z 0.000000 0.000000 4.237850 
# 
# 
# High freq. dielectric constant tensor:
#      x y z
#    x 1.927980 0.000000 0.000000 
#    y 0.000000 1.888300 0.000000 
#    z 0.000000 0.000000 1.899660 
# 
# From -- ./inp_files/22507.got.cif
#   From: 2010.03.12/outbox.cif.g09.slc.cpg/sg66_12_cif.got.tgz:22507.got - 2010.04.10 21:57:39.
