data_PCOD8277515
_publ_section_title
;
Structure prediction by ZEFSAII (Michael W. Deem and Ramdas Pophale) SiO2 
 PCOD8277515
Probable space group: C C C M
;
_chemical_formula_sum "Si O2"
_cell_formula_units_Z 64
_cell_length_a 16.387600
_cell_length_b 22.109547
_cell_length_c 8.988477
_cell_angle_alpha 90.000000
_cell_angle_beta 90.000000
_cell_angle_gamma 90.000000
_cell_volume 3256.726671
_symmetry_space_group_name_H-M "C C C M"
_symmetry_group_IT_number 66
_symmetry_cell_setting 'orthorhombic'
loop_
_space_group_symop_operation_xyz
x,y,z
-x,-y,z
x,-y,1/2-z
-x,y,1/2-z
-x,-y,-z
x,y,-z
-x,y,1/2+z
x,-y,1/2+z
1/2+x,1/2+y,z
1/2-x,1/2-y,z
1/2+x,1/2-y,1/2-z
1/2-x,1/2+y,1/2-z
1/2-x,1/2-y,-z
1/2+x,1/2+y,-z
1/2-x,1/2+y,1/2+z
1/2+x,1/2-y,1/2+z
loop_
_atom_site_type_symbol
_atom_site_label
_atom_site_fract_x
_atom_site_fract_y
_atom_site_fract_z
Si Si1 0.236694 0.872626 0.000000
Si Si2 0.414677 0.079269 0.500000
Si Si3 0.938840 0.814237 0.000000
Si Si4 0.000000 0.500000 0.250000
Si Si5 0.070072 0.719545 0.000000
Si Si6 0.323549 0.285058 0.742901
Si Si7 0.500000 0.500000 0.750000
Si Si8 0.933002 0.077431 0.000000
O O1 0.316899 0.914169 0.000000
O O2 0.229026 0.831168 0.855139
O O3 0.162041 0.916736 0.000000
O O4 0.443669 0.043100 0.352955
O O5 0.448219 0.148027 0.500000
O O6 0.881952 0.821507 0.855356
O O7 0.980057 0.748496 0.000000
O O8 0.012593 0.862073 0.000000
O O9 0.120450 0.740163 0.145037
O O10 0.250000 0.250000 0.828401
O O11 0.444499 0.458741 0.649492
#
# Coordination Sequence:
#
# PCOD8277515 Si02
#       8
#     8   8   8   4   8  16   4   8
#     4  11  21  39  70  86 133 167 201 265 326 376
#     4  11  24  48  68  95 125 172 217 280 324 388
#     4  12  24  35  64 101 132 163 211 271 323 385
#     4  10  28  48  70  94 128 164 240 280 312 380
#     4  11  22  37  68  92 126 174 211 253 348 398
#     4  11  21  38  57 103 133 165 204 260 330 398
#     4  10  24  40  58  82 120 176 212 248 300 368
#     4  11  22  40  60  88 124 163 217 256 303 383
#
# _framework density 19.651634999999999
#
# number of rings (size 3 to 8) (size 9 to 14) (size 15 to 20)
#    0.000    1.000    5.000    3.375    3.500    1.000 
#    0.000    2.500    0.000    0.000    0.000    0.000 
#    0.000    0.000    0.000    0.000    0.000    0.000 
#
# Total GULP energy -396545.625137 kJ/mol
# GULP energy per Si atom -12392.050786 kJ/mol
# Density = 1.960691 g / cm^3
# Si number density = 19.651635 Si / 1000 Ang^3
#
#
#
# Elastic Constant Matrix: (Units=GPa)
#
#
# Indices 1 2 3 4 5 6 
#
# 1 152.9957 61.0025 57.4087 0.0000 0.0000 0.0000
# 2 61.0025 124.7136 58.0349 0.0000 0.0000 0.0000
# 3 57.4087 58.0349 119.3803 0.0000 0.0000 0.0000
# 4 0.0000 0.0000 0.0000 25.0545 0.0000 0.0000
# 5 0.0000 0.0000 0.0000 0.0000 21.1683 0.0000
# 6 0.0000 0.0000 0.0000 0.0000 0.0000 62.6312
#
#
#
# Elastic Compliance Matrix: (Units=1/GPa)
#
#
# Indices 1 2 3 4 5 6 
#
# 1 0.008769 -0.003007 -0.002755 0.000000 0.000000 0.000000
# 2 -0.003007 0.011394 -0.004093 0.000000 0.000000 0.000000
# 3 -0.002755 -0.004093 0.011691 0.000000 0.000000 0.000000
# 4 0.000000 0.000000 0.000000 0.039913 0.000000 0.000000
# 5 0.000000 0.000000 0.000000 0.000000 0.047240 0.000000
# 6 0.000000 0.000000 0.000000 0.000000 0.000000 0.015966
#
#
# Mechanical properties :
#
#
# Convention : Reuss Voigt Hill
#
# Bulk Modulus (GPa) = 82.34600 83.33130 82.83865
# Shear Modulus (GPa) = 31.49969 36.48038 33.99003
#
# Velocity S-wave (km/s) = 4.00797 4.31322 4.16339
# Velocity P-wave (km/s) = 7.96318 8.20374 8.08436
#
# Compressibility (1/GPa) = 0.01214388
#
# Stress axis : x y z
#
# Youngs Moduli (GPa) = 114.03909 87.76620 85.53530
#
# Poissons Ratio (x) = 0.26393 0.23565
# Poissons Ratio (y) = 0.34294 0.35008
# Poissons Ratio (z) = 0.31417 0.35921
#
# Static dielectric constant tensor:
#      x y z
#    x 3.698830 0.000000 0.000000 
#    y 0.000000 3.654750 0.000000 
#    z 0.000000 0.000000 3.652010 
# 
# 
# High freq. dielectric constant tensor:
#      x y z
#    x 1.778010 0.000000 0.000000 
#    y 0.000000 1.760460 0.000000 
#    z 0.000000 0.000000 1.769360 
# 
# From -- ./inp_files/6445.got.cif
#   From: 2010.03.12/outbox.cif.g09.slc.cpg/sg66_4_cif.got.tgz:6445.got - 2010.04.10 21:57:39.
