data_PCOD8277636
_publ_section_title
;
Structure prediction by ZEFSAII (Michael W. Deem and Ramdas Pophale) SiO2 
 PCOD8277636
Probable space group: C C C M
;
_chemical_formula_sum "Si O2"
_cell_formula_units_Z 96
_cell_length_a 31.057085
_cell_length_b 27.590669
_cell_length_c 9.133956
_cell_angle_alpha 90.000000
_cell_angle_beta 90.000000
_cell_angle_gamma 90.000000
_cell_volume 7826.756759
_symmetry_space_group_name_H-M "C C C M"
_symmetry_group_IT_number 66
_symmetry_cell_setting 'orthorhombic'
loop_
_space_group_symop_operation_xyz
x,y,z
-x,-y,z
x,-y,1/2-z
-x,y,1/2-z
-x,-y,-z
x,y,-z
-x,y,1/2+z
x,-y,1/2+z
1/2+x,1/2+y,z
1/2-x,1/2-y,z
1/2+x,1/2-y,1/2-z
1/2-x,1/2+y,1/2-z
1/2-x,1/2-y,-z
1/2+x,1/2+y,-z
1/2-x,1/2+y,1/2+z
1/2+x,1/2-y,1/2+z
loop_
_atom_site_type_symbol
_atom_site_label
_atom_site_fract_x
_atom_site_fract_y
_atom_site_fract_z
Si Si1 0.245198 0.857891 0.162231
Si Si2 0.705133 0.721650 0.162921
Si Si3 0.544938 0.949444 0.823063
Si Si4 0.793769 0.449946 0.172646
Si Si5 0.834153 0.301193 0.838791
Si Si6 0.119337 0.396328 0.327306
O O1 0.209765 0.830678 0.260210
O O2 0.257986 0.910759 0.225656
O O3 0.288153 0.826498 0.154593
O O4 0.225557 0.862980 0.000000
O O5 0.750000 0.750000 0.167860
O O6 0.667635 0.754216 0.235296
O O7 0.689832 0.711016 0.000000
O O8 0.500000 0.933690 0.750000
O O9 0.579530 0.909379 0.776593
O O10 0.559639 0.000000 0.750000
O O11 0.541362 0.953765 0.000000
O O12 0.783093 0.500000 0.250000
O O13 0.841366 0.431741 0.214792
O O14 0.790514 0.456715 0.000000
O O15 0.868942 0.340862 0.785848
O O16 0.846616 0.282514 0.000000
O O17 0.108294 0.401050 0.500000
#
# Coordination Sequence:
#
# PCOD8277636 Si02
#       6
#    16  16  16  16  16  16
#     4   8  14  24  34  44  60  84 109 127 152 191
#     4   9  15  21  31  48  66  81 101 129 156 183
#     4  11  21  32  44  55  67  84 106 133 165 201
#     4   9  17  26  36  49  65  85 108 135 165 199
#     4   8  14  24  37  49  64  85 103 122 152 193
#     4   9  17  29  41  54  69  84 105 131 163 202
#
# _framework density 12.265616
#
# number of rings (size 3 to 8) (size 9 to 14) (size 15 to 20)
#    0.000    3.000    0.000    5.000    0.000    5.333 
#    0.000    3.333    0.000    0.000    0.000    0.000 
#    0.000    0.000    0.000    0.000    0.000    0.000 
#
# Total GULP energy -594837.983518 kJ/mol
# GULP energy per Si atom -12392.457990 kJ/mol
# Density = 1.223770 g / cm^3
# Si number density = 12.265616 Si / 1000 Ang^3
#
#
#
# Elastic Constant Matrix: (Units=GPa)
#
#
# Indices 1 2 3 4 5 6 
#
# 1 37.6753 41.0803 32.8805 0.0000 0.0000 0.0000
# 2 41.0803 85.3376 49.0158 0.0000 0.0000 0.0000
# 3 32.8805 49.0158 81.3635 0.0000 0.0000 0.0000
# 4 0.0000 0.0000 0.0000 20.0806 0.0000 0.0000
# 5 0.0000 0.0000 0.0000 0.0000 11.4223 0.0000
# 6 0.0000 0.0000 0.0000 0.0000 0.0000 19.9646
#
#
#
# Elastic Compliance Matrix: (Units=1/GPa)
#
#
# Indices 1 2 3 4 5 6 
#
# 1 0.061426 -0.023413 -0.010719 0.000000 0.000000 0.000000
# 2 -0.023413 0.026842 -0.006709 0.000000 0.000000 0.000000
# 3 -0.010719 -0.006709 0.020664 0.000000 0.000000 0.000000
# 4 0.000000 0.000000 0.000000 0.049799 0.000000 0.000000
# 5 0.000000 0.000000 0.000000 0.000000 0.087548 0.000000
# 6 0.000000 0.000000 0.000000 0.000000 0.000000 0.050089
#
#
# Mechanical properties :
#
#
# Convention : Reuss Voigt Hill
#
# Bulk Modulus (GPa) = 36.69612 50.03661 43.36637
# Shear Modulus (GPa) = 12.91543 15.72016 14.31780
#
# Velocity S-wave (km/s) = 3.24848 3.58389 3.42030
# Velocity P-wave (km/s) = 6.63724 7.61633 7.14358
#
# Compressibility (1/GPa) = 0.02725084
#
# Stress axis : x y z
#
# Youngs Moduli (GPa) = 16.27966 37.25454 48.39373
#
# Poissons Ratio (x) = 0.87225 0.51872
# Poissons Ratio (y) = 0.38116 0.32467
# Poissons Ratio (z) = 0.17450 0.24994
#
# Static dielectric constant tensor:
#      x y z
#    x 2.210110 0.000000 0.000000 
#    y 0.000000 2.592080 0.000000 
#    z 0.000000 0.000000 2.640110 
# 
# 
# High freq. dielectric constant tensor:
#      x y z
#    x 1.409820 0.000000 0.000000 
#    y 0.000000 1.453760 0.000000 
#    z 0.000000 0.000000 1.473810 
# 
# From -- ./inp_files/10634.got.cif
#   From: 2010.03.12/outbox.cif.g09.slc.cpg/sg66_6_cif.got.tgz:10634.got - 2010.04.10 21:57:39.
