data_PCOD8277182
_publ_section_title
;
Structure prediction by ZEFSAII (Michael W. Deem and Ramdas Pophale) SiO2 
 PCOD8277182
Probable space group: C C C M
;
_chemical_formula_sum "Si O2"
_cell_formula_units_Z 64
_cell_length_a 17.950738
_cell_length_b 6.933056
_cell_length_c 27.922184
_cell_angle_alpha 90.000000
_cell_angle_beta 90.000000
_cell_angle_gamma 90.000000
_cell_volume 3475.012739
_symmetry_space_group_name_H-M "C C C M"
_symmetry_group_IT_number 66
_symmetry_cell_setting 'orthorhombic'
loop_
_space_group_symop_operation_xyz
x,y,z
-x,-y,z
x,-y,1/2-z
-x,y,1/2-z
-x,-y,-z
x,y,-z
-x,y,1/2+z
x,-y,1/2+z
1/2+x,1/2+y,z
1/2-x,1/2-y,z
1/2+x,1/2-y,1/2-z
1/2-x,1/2+y,1/2-z
1/2-x,1/2-y,-z
1/2+x,1/2+y,-z
1/2-x,1/2+y,1/2+z
1/2+x,1/2-y,1/2+z
loop_
_atom_site_type_symbol
_atom_site_label
_atom_site_fract_x
_atom_site_fract_y
_atom_site_fract_z
Si Si1 0.836043 0.216680 0.500000
Si Si2 0.579294 0.102383 0.000000
Si Si3 0.915716 0.942166 0.429809
Si Si4 0.838089 0.720606 0.243312
Si Si5 0.087556 0.992163 0.180427
O O1 0.750000 0.250000 0.500000
O O2 0.862094 0.434575 0.500000
O O3 0.862079 0.100676 0.453181
O O4 0.594024 0.230906 0.047328
O O5 0.500000 0.000000 0.000000
O O6 0.896173 0.937432 0.374121
O O7 0.000000 0.000000 0.440306
O O8 0.859746 0.500000 0.250000
O O9 0.750000 0.750000 0.241267
O O10 0.872611 0.830194 0.288357
O O11 0.875660 0.801726 0.194437
O O12 0.000000 0.000000 0.191431
#
# Coordination Sequence:
#
# PCOD8277182 Si02
#       5
#     8   8  16  16  16
#     4  11  23  39  57  93 123 157 197 253 302 346
#     4  11  19  39  69  84 119 167 205 238 299 367
#     4  10  21  40  62  88 122 158 203 249 296 360
#     4  11  21  40  62  84 120 159 193 245 309 359
#     4  10  23  40  60  91 120 153 205 253 292 356
#
# _framework density 18.417199
#
# number of rings (size 3 to 8) (size 9 to 14) (size 15 to 20)
#    0.000    1.500    5.000    2.250    0.000    7.000 
#    4.500    0.000    0.000    0.000    0.000    0.000 
#    0.000    0.000    0.000    0.000    0.000    0.000 
#
# Total GULP energy -396763.406495 kJ/mol
# GULP energy per Si atom -12398.856453 kJ/mol
# Density = 1.837528 g / cm^3
# Si number density = 18.417199 Si / 1000 Ang^3
#
#
#
# Elastic Constant Matrix: (Units=GPa)
#
#
# Indices 1 2 3 4 5 6 
#
# 1 154.5270 63.3471 65.2218 0.0000 0.0000 0.0000
# 2 63.3471 173.4340 63.3332 0.0000 0.0000 0.0000
# 3 65.2218 63.3332 150.7034 0.0000 0.0000 0.0000
# 4 0.0000 0.0000 0.0000 2.7280 0.0000 0.0000
# 5 0.0000 0.0000 0.0000 0.0000 14.6289 0.0000
# 6 0.0000 0.0000 0.0000 0.0000 0.0000 35.3652
#
#
#
# Elastic Compliance Matrix: (Units=1/GPa)
#
#
# Indices 1 2 3 4 5 6 
#
# 1 0.008510 -0.002083 -0.002808 0.000000 0.000000 0.000000
# 2 -0.002083 0.007321 -0.002175 0.000000 0.000000 0.000000
# 3 -0.002808 -0.002175 0.008765 0.000000 0.000000 0.000000
# 4 0.000000 0.000000 0.000000 0.366569 0.000000 0.000000
# 5 0.000000 0.000000 0.000000 0.000000 0.068358 0.000000
# 6 0.000000 0.000000 0.000000 0.000000 0.000000 0.028276
#
#
# Mechanical properties :
#
#
# Convention : Reuss Voigt Hill
#
# Bulk Modulus (GPa) = 95.56337 95.82986 95.69661
# Shear Modulus (GPa) = 9.89278 29.66191 19.77734
#
# Velocity S-wave (km/s) = 2.32016 4.01753 3.28052
# Velocity P-wave (km/s) = 7.69274 8.58292 8.14999
#
# Compressibility (1/GPa) = 0.01046426
#
# Stress axis : x y z
#
# Youngs Moduli (GPa) = 117.50349 136.59244 114.09305
#
# Poissons Ratio (x) = 0.28454 0.32034
# Poissons Ratio (y) = 0.24478 0.24817
# Poissons Ratio (z) = 0.32992 0.29711
#
# Static dielectric constant tensor:
#      x y z
#    x 3.463810 0.000000 0.000000 
#    y 0.000000 3.645000 0.000000 
#    z 0.000000 0.000000 3.490720 
# 
# 
# High freq. dielectric constant tensor:
#      x y z
#    x 1.723100 0.000000 0.000000 
#    y 0.000000 1.725720 0.000000 
#    z 0.000000 0.000000 1.715470 
# 
# From -- ./inp_files/69797.got.cif
#   From: 2010.03.12/outbox.cif.g09.slc.cpg/sg66_35_cif.got.tgz:69797.got - 2010.04.10 21:57:39.
