data_PCOD8277809
_publ_section_title
;
Structure prediction by ZEFSAII (Michael W. Deem and Ramdas Pophale) SiO2 
 PCOD8277809
Probable space group: C C C M
;
_chemical_formula_sum "Si O2"
_cell_formula_units_Z 64
_cell_length_a 15.991052
_cell_length_b 11.534048
_cell_length_c 14.720511
_cell_angle_alpha 90.000000
_cell_angle_beta 90.000000
_cell_angle_gamma 90.000000
_cell_volume 2715.074033
_symmetry_space_group_name_H-M "C C C M"
_symmetry_group_IT_number 66
_symmetry_cell_setting 'orthorhombic'
loop_
_space_group_symop_operation_xyz
x,y,z
-x,-y,z
x,-y,1/2-z
-x,y,1/2-z
-x,-y,-z
x,y,-z
-x,y,1/2+z
x,-y,1/2+z
1/2+x,1/2+y,z
1/2-x,1/2-y,z
1/2+x,1/2-y,1/2-z
1/2-x,1/2+y,1/2-z
1/2-x,1/2-y,-z
1/2+x,1/2+y,-z
1/2-x,1/2+y,1/2+z
1/2+x,1/2-y,1/2+z
loop_
_atom_site_type_symbol
_atom_site_label
_atom_site_fract_x
_atom_site_fract_y
_atom_site_fract_z
Si Si1 0.860139 0.281793 0.602775
Si Si2 0.947391 0.729576 0.399935
Si Si3 0.837611 0.531378 0.345680
Si Si4 0.333064 0.625979 0.769838
O O1 0.846755 0.233356 0.500000
O O2 0.818371 0.409994 0.604617
O O3 0.816941 0.195921 0.675688
O O4 0.957438 0.290383 0.629375
O O5 0.943141 0.785939 0.500000
O O6 0.901345 0.605714 0.404865
O O7 0.902006 0.812263 0.329877
O O8 0.881016 0.500000 0.250000
O O9 0.754592 0.608910 0.323800
O O10 0.371181 0.500000 0.750000
#
# Coordination Sequence:
#
# PCOD8277809 Si02
#       4
#    16  16  16  16
#     4  11  25  46  73 105 141 187 237 293 356 418
#     4  11  24  43  72 106 141 184 237 297 357 413
#     4  11  23  41  71 103 139 182 237 293 352 414
#     4  11  26  44  69 102 146 190 237 285 351 425
#
# _framework density 23.572101
#
# number of rings (size 3 to 8) (size 9 to 14) (size 15 to 20)
#    0.000    1.000    2.500    3.000    3.500    9.000 
#    0.000   15.000    0.000    0.000    0.000    0.000 
#    0.000    0.000    0.000    0.000    0.000    0.000 
#
# Total GULP energy -396661.825073 kJ/mol
# GULP energy per Si atom -12395.682034 kJ/mol
# Density = 2.351845 g / cm^3
# Si number density = 23.572101 Si / 1000 Ang^3
#
#
#
# Elastic Constant Matrix: (Units=GPa)
#
#
# Indices 1 2 3 4 5 6 
#
# 1 150.6481 54.3025 41.2304 0.0000 0.0000 0.0000
# 2 54.3025 138.5833 36.4322 0.0000 0.0000 0.0000
# 3 41.2304 36.4322 113.7730 0.0000 0.0000 0.0000
# 4 0.0000 0.0000 0.0000 -228.8800 0.0000 0.0000
# 5 0.0000 0.0000 0.0000 0.0000 12.5144 0.0000
# 6 0.0000 0.0000 0.0000 0.0000 0.0000 29.5516
#
#
#
# Elastic Compliance Matrix: (Units=1/GPa)
#
#
# Indices 1 2 3 4 5 6 
#
# 1 0.008170 -0.002646 -0.002114 0.000000 0.000000 0.000000
# 2 -0.002646 0.008736 -0.001839 0.000000 0.000000 0.000000
# 3 -0.002114 -0.001839 0.010144 0.000000 0.000000 0.000000
# 4 0.000000 0.000000 0.000000 -0.004369 0.000000 0.000000
# 5 0.000000 0.000000 0.000000 0.000000 0.079908 0.000000
# 6 0.000000 0.000000 0.000000 0.000000 0.000000 0.033839
#
#
# Mechanical properties :
#
#
# Convention : Reuss Voigt Hill
#
# Bulk Modulus (GPa) = 72.17955 74.10384 73.14170
# Shear Modulus (GPa) = 32.41654 -19.29352 6.56151
#
# Velocity S-wave (km/s) = 3.71240 -2.86403 1.67022
# Velocity P-wave (km/s) = 7.00451 4.53525 5.90049
#
# Compressibility (1/GPa) = 0.01385434
#
# Stress axis : x y z
#
# Youngs Moduli (GPa) = 122.39711 114.46968 98.57919
#
# Poissons Ratio (x) = 0.30286 0.20835
# Poissons Ratio (y) = 0.32383 0.18125
# Poissons Ratio (z) = 0.25870 0.21047
#
# Static dielectric constant tensor:
#      x y z
#    x 4.216460 0.000000 0.000000 
#    y 0.000000 4.395860 0.000000 
#    z 0.000000 0.000000 4.444310 
# 
# 
# High freq. dielectric constant tensor:
#      x y z
#    x 1.941860 0.000000 0.000000 
#    y 0.000000 1.934390 0.000000 
#    z 0.000000 0.000000 1.938570 
# 
# From -- ./inp_files/25780.got.cif
#   From: 2010.03.12/outbox.cif.g09.slc.cpg/sg66_13_cif.got.tgz:25780.got - 2010.04.10 21:57:39.
