data_PCOD8277030
_publ_section_title
;
Structure prediction by ZEFSAII (Michael W. Deem and Ramdas Pophale) SiO2 
 PCOD8277030
Probable space group: C C C M
;
_chemical_formula_sum "Si O2"
_cell_formula_units_Z 64
_cell_length_a 10.033837
_cell_length_b 9.789316
_cell_length_c 27.123488
_cell_angle_alpha 90.000000
_cell_angle_beta 90.000000
_cell_angle_gamma 90.000000
_cell_volume 2664.188364
_symmetry_space_group_name_H-M "C C C M"
_symmetry_group_IT_number 66
_symmetry_cell_setting 'orthorhombic'
loop_
_space_group_symop_operation_xyz
x,y,z
-x,-y,z
x,-y,1/2-z
-x,y,1/2-z
-x,-y,-z
x,y,-z
-x,y,1/2+z
x,-y,1/2+z
1/2+x,1/2+y,z
1/2-x,1/2-y,z
1/2+x,1/2-y,1/2-z
1/2-x,1/2+y,1/2-z
1/2-x,1/2-y,-z
1/2+x,1/2+y,-z
1/2-x,1/2+y,1/2+z
1/2+x,1/2-y,1/2+z
loop_
_atom_site_type_symbol
_atom_site_label
_atom_site_fract_x
_atom_site_fract_y
_atom_site_fract_z
Si Si1 0.116691 0.191787 0.788078
Si Si2 0.384342 0.667869 0.445443
Si Si3 0.797679 0.967927 0.362666
Si Si4 0.951172 0.695236 0.368735
O O1 0.250000 0.250000 0.761306
O O2 0.161581 0.053639 0.814990
O O3 0.000000 0.160931 0.750000
O O4 0.071245 0.306185 0.828571
O O5 0.430980 0.621678 0.500000
O O6 0.250000 0.750000 0.448688
O O7 0.361783 0.534040 0.411738
O O8 0.492238 0.773444 0.423074
O O9 0.860135 0.821879 0.352770
O O10 0.636361 0.945017 0.368821
#
# Coordination Sequence:
#
# PCOD8277030 Si02
#       4
#    16  16  16  16
#     4  11  25  44  66  96 129 170 222 279 338 409
#     4  10  21  37  61  94 132 175 221 274 333 395
#     4  10  22  41  67  90 131 175 215 277 340 395
#     4  10  22  41  64  96 126 173 223 270 338 404
#
# _framework density 24.022324000000001
#
# number of rings (size 3 to 8) (size 9 to 14) (size 15 to 20)
#    0.000    1.750    0.000    6.000    3.500    9.000 
#    0.000    6.250    0.000    0.000    0.000    0.000 
#    0.000    0.000    0.000    0.000    0.000    0.000 
#
# Total GULP energy -396712.508725 kJ/mol
# GULP energy per Si atom -12397.265898 kJ/mol
# Density = 2.396765 g / cm^3
# Si number density = 24.022324 Si / 1000 Ang^3
#
#
#
# Elastic Constant Matrix: (Units=GPa)
#
#
# Indices 1 2 3 4 5 6 
#
# 1 166.6667 44.1363 74.4071 0.0000 0.0000 0.0000
# 2 44.1363 87.9263 56.6032 0.0000 0.0000 0.0000
# 3 74.4071 56.6032 144.7395 0.0000 0.0000 0.0000
# 4 0.0000 0.0000 0.0000 14.8688 0.0000 0.0000
# 5 0.0000 0.0000 0.0000 0.0000 45.4484 0.0000
# 6 0.0000 0.0000 0.0000 0.0000 0.0000 46.8706
#
#
#
# Elastic Compliance Matrix: (Units=1/GPa)
#
#
# Indices 1 2 3 4 5 6 
#
# 1 0.008001 -0.001829 -0.003398 0.000000 0.000000 0.000000
# 2 -0.001829 0.015618 -0.005167 0.000000 0.000000 0.000000
# 3 -0.003398 -0.005167 0.010677 0.000000 0.000000 0.000000
# 4 0.000000 0.000000 0.000000 0.067255 0.000000 0.000000
# 5 0.000000 0.000000 0.000000 0.000000 0.022003 0.000000
# 6 0.000000 0.000000 0.000000 0.000000 0.000000 0.021335
#
#
# Mechanical properties :
#
#
# Convention : Reuss Voigt Hill
#
# Bulk Modulus (GPa) = 74.03585 83.29173 78.66379
# Shear Modulus (GPa) = 29.38063 36.38329 32.88196
#
# Velocity S-wave (km/s) = 3.50101 3.89596 3.70375
# Velocity P-wave (km/s) = 6.87236 7.41525 7.14896
#
# Compressibility (1/GPa) = 0.01350697
#
# Stress axis : x y z
#
# Youngs Moduli (GPa) = 124.97850 64.02954 93.66214
#
# Poissons Ratio (x) = 0.11710 0.31827
# Poissons Ratio (y) = 0.22857 0.48399
# Poissons Ratio (z) = 0.42469 0.33087
#
# Static dielectric constant tensor:
#      x y z
#    x 5.072560 0.000000 0.000000 
#    y 0.000000 4.005020 0.000000 
#    z 0.000000 0.000000 4.690510 
# 
# 
# High freq. dielectric constant tensor:
#      x y z
#    x 1.980790 0.000000 0.000000 
#    y 0.000000 1.948860 0.000000 
#    z 0.000000 0.000000 1.936680 
# 
# From -- ./inp_files/68571.got.cif
#   From: 2010.03.12/outbox.cif.g09.slc.cpg/sg66_35_cif.got.tgz:68571.got - 2010.04.10 21:57:39.
