data_PCOD8277530
_publ_section_title
;
Structure prediction by ZEFSAII (Michael W. Deem and Ramdas Pophale) SiO2 
 PCOD8277530
Probable space group: C C C M
;
_chemical_formula_sum "Si O2"
_cell_formula_units_Z 72
_cell_length_a 13.416688
_cell_length_b 15.240996
_cell_length_c 17.647514
_cell_angle_alpha 90.000000
_cell_angle_beta 90.000000
_cell_angle_gamma 90.000000
_cell_volume 3608.628749
_symmetry_space_group_name_H-M "C C C M"
_symmetry_group_IT_number 66
_symmetry_cell_setting 'orthorhombic'
loop_
_space_group_symop_operation_xyz
x,y,z
-x,-y,z
x,-y,1/2-z
-x,y,1/2-z
-x,-y,-z
x,y,-z
-x,y,1/2+z
x,-y,1/2+z
1/2+x,1/2+y,z
1/2-x,1/2-y,z
1/2+x,1/2-y,1/2-z
1/2-x,1/2+y,1/2-z
1/2-x,1/2-y,-z
1/2+x,1/2+y,-z
1/2-x,1/2+y,1/2+z
1/2+x,1/2-y,1/2+z
loop_
_atom_site_type_symbol
_atom_site_label
_atom_site_fract_x
_atom_site_fract_y
_atom_site_fract_z
Si Si1 0.437543 0.763394 0.912643
Si Si2 0.453883 0.908796 0.330772
Si Si3 0.945615 0.911153 0.087740
Si Si4 0.250000 0.750000 0.812205
Si Si5 0.725474 0.412135 0.706234
O O1 0.522470 0.833441 0.891195
O O2 0.477374 0.666606 0.895077
O O3 0.339562 0.783843 0.864296
O O4 0.409228 0.774478 0.000000
O O5 0.500000 0.881629 0.250000
O O6 0.336327 0.920281 0.325438
O O7 0.500000 0.000000 0.359634
O O8 0.845783 0.897592 0.135015
O O9 0.913974 0.913067 0.000000
O O10 0.000000 0.000000 0.112474
O O11 0.287833 0.670265 0.761207
O O12 0.694486 0.500000 0.750000
#
# Coordination Sequence:
#
# PCOD8277530 Si02
#       5
#    16  16  16   8  16
#     4  11  24  41  62  90 126 167 206 255 316 370
#     4  11  21  42  63  88 126 158 203 259 314 365
#     4  10  24  44  63  90 131 168 207 261 312 371
#     4  12  23  38  63  92 124 164 208 264 305 372
#     4  12  23  38  67  94 118 165 211 254 313 373
#
# _framework density 19.952178
#
# number of rings (size 3 to 8) (size 9 to 14) (size 15 to 20)
#    0.000    0.889    4.444    3.000    0.000    3.556 
#    0.000    8.333    0.000    0.000    0.000    0.000 
#    0.000    0.000    0.000    0.000    0.000    0.000 
#
# Total GULP energy -446679.374386 kJ/mol
# GULP energy per Si atom -12407.760400 kJ/mol
# Density = 1.990677 g / cm^3
# Si number density = 19.952178 Si / 1000 Ang^3
#
#
#
# Elastic Constant Matrix: (Units=GPa)
#
#
# Indices 1 2 3 4 5 6 
#
# 1 93.8466 4.0602 65.7018 0.0000 0.0000 0.0000
# 2 4.0602 125.1697 56.7387 0.0000 0.0000 0.0000
# 3 65.7018 56.7387 100.9799 0.0000 0.0000 0.0000
# 4 0.0000 0.0000 0.0000 35.0028 0.0000 0.0000
# 5 0.0000 0.0000 0.0000 0.0000 35.7119 0.0000
# 6 0.0000 0.0000 0.0000 0.0000 0.0000 24.8250
#
#
#
# Elastic Compliance Matrix: (Units=1/GPa)
#
#
# Indices 1 2 3 4 5 6 
#
# 1 0.025300 0.008911 -0.021468 0.000000 0.000000 0.000000
# 2 0.008911 0.013858 -0.013584 0.000000 0.000000 0.000000
# 3 -0.021468 -0.013584 0.031503 0.000000 0.000000 0.000000
# 4 0.000000 0.000000 0.000000 0.028569 0.000000 0.000000
# 5 0.000000 0.000000 0.000000 0.000000 0.028002 0.000000
# 6 0.000000 0.000000 0.000000 0.000000 0.000000 0.040282
#
#
# Mechanical properties :
#
#
# Convention : Reuss Voigt Hill
#
# Bulk Modulus (GPa) = 54.41157 63.66641 59.03899
# Shear Modulus (GPa) = 22.13152 32.00763 27.06958
#
# Velocity S-wave (km/s) = 3.33412 4.00961 3.68737
# Velocity P-wave (km/s) = 6.49246 7.30854 6.91255
#
# Compressibility (1/GPa) = 0.01837844
#
# Stress axis : x y z
#
# Youngs Moduli (GPa) = 39.52614 72.16237 31.74264
#
# Poissons Ratio (x) = -0.64301 0.68144
# Poissons Ratio (y) = -0.35220 0.43119
# Poissons Ratio (z) = 0.84854 0.98025
#
# Static dielectric constant tensor:
#      x y z
#    x 3.578010 0.000000 0.000000 
#    y 0.000000 3.819420 0.000000 
#    z 0.000000 0.000000 3.590400 
# 
# 
# High freq. dielectric constant tensor:
#      x y z
#    x 1.783880 0.000000 0.000000 
#    y 0.000000 1.796320 0.000000 
#    z 0.000000 0.000000 1.776720 
# 
# From -- ./inp_files/40042.got.cif
#   From: 2010.03.12/outbox.cif.g09.slc.cpg/sg66_21_cif.got.tgz:40042.got - 2010.04.10 21:57:39.
