data_PCOD8277014
_publ_section_title
;
Structure prediction by ZEFSAII (Michael W. Deem and Ramdas Pophale) SiO2 
 PCOD8277014
Probable space group: C C C M
;
_chemical_formula_sum "Si O2"
_cell_formula_units_Z 72
_cell_length_a 27.317769
_cell_length_b 8.491360
_cell_length_c 13.022180
_cell_angle_alpha 90.000000
_cell_angle_beta 90.000000
_cell_angle_gamma 90.000000
_cell_volume 3020.690127
_symmetry_space_group_name_H-M "C C C M"
_symmetry_group_IT_number 66
_symmetry_cell_setting 'orthorhombic'
loop_
_space_group_symop_operation_xyz
x,y,z
-x,-y,z
x,-y,1/2-z
-x,y,1/2-z
-x,-y,-z
x,y,-z
-x,y,1/2+z
x,-y,1/2+z
1/2+x,1/2+y,z
1/2-x,1/2-y,z
1/2+x,1/2-y,1/2-z
1/2-x,1/2+y,1/2-z
1/2-x,1/2-y,-z
1/2+x,1/2+y,-z
1/2-x,1/2+y,1/2+z
1/2+x,1/2-y,1/2+z
loop_
_atom_site_type_symbol
_atom_site_label
_atom_site_fract_x
_atom_site_fract_y
_atom_site_fract_z
Si Si1 0.803111 0.716359 0.117126
Si Si2 0.866537 0.500000 0.250000
Si Si3 0.522779 0.158684 0.614094
Si Si4 0.896839 0.898737 0.880862
Si Si5 0.919089 0.238487 0.116880
O O1 0.750000 0.750000 0.167812
O O2 0.829481 0.573937 0.170585
O O3 0.839260 0.865303 0.128592
O O4 0.794920 0.666913 0.000000
O O5 0.900901 0.386648 0.182780
O O6 0.540364 0.108262 0.500000
O O7 0.569094 0.253503 0.667285
O O8 0.477759 0.278542 0.614914
O O9 0.500000 0.000000 0.667642
O O10 0.902336 0.072950 0.830473
O O11 0.913803 0.910761 0.000000
O O12 0.898951 0.255495 0.000000
#
# Coordination Sequence:
#
# PCOD8277014 Si02
#       5
#    16   8  16  16  16
#     4  10  23  44  66  88 118 158 204 255 310 366
#     4  12  24  38  63  92 122 162 207 256 312 372
#     4   9  16  30  57  89 121 159 199 242 300 368
#     4   9  18  36  62  88 119 161 205 253 308 366
#     4  10  21  37  59  91 127 162 204 252 306 371
#
# _framework density 23.835614
#
# number of rings (size 3 to 8) (size 9 to 14) (size 15 to 20)
#    0.000    2.222    0.000    2.667    0.000    8.889 
#    0.000    5.000    0.000   12.000    0.000    0.000 
#    0.000    3.556    0.000    0.000    0.000    0.000 
#
# Total GULP energy -446017.216802 kJ/mol
# GULP energy per Si atom -12389.367133 kJ/mol
# Density = 2.378136 g / cm^3
# Si number density = 23.835614 Si / 1000 Ang^3
#
#
#
# Elastic Constant Matrix: (Units=GPa)
#
#
# Indices 1 2 3 4 5 6 
#
# 1 183.9696 63.5612 30.6120 0.0000 0.0000 0.0000
# 2 63.5612 155.2076 31.7861 0.0000 0.0000 0.0000
# 3 30.6120 31.7861 49.3639 0.0000 0.0000 0.0000
# 4 0.0000 0.0000 0.0000 40.0235 0.0000 0.0000
# 5 0.0000 0.0000 0.0000 0.0000 19.1908 0.0000
# 6 0.0000 0.0000 0.0000 0.0000 0.0000 27.8970
#
#
#
# Elastic Compliance Matrix: (Units=1/GPa)
#
#
# Indices 1 2 3 4 5 6 
#
# 1 0.006635 -0.002159 -0.002724 0.000000 0.000000 0.000000
# 2 -0.002159 0.008124 -0.003892 0.000000 0.000000 0.000000
# 3 -0.002724 -0.003892 0.024453 0.000000 0.000000 0.000000
# 4 0.000000 0.000000 0.000000 0.024985 0.000000 0.000000
# 5 0.000000 0.000000 0.000000 0.000000 0.052108 0.000000
# 6 0.000000 0.000000 0.000000 0.000000 0.000000 0.035846
#
#
# Mechanical properties :
#
#
# Convention : Reuss Voigt Hill
#
# Bulk Modulus (GPa) = 46.16558 71.16219 58.66389
# Shear Modulus (GPa) = 28.26061 34.92772 31.59416
#
# Velocity S-wave (km/s) = 3.44706 3.83215 3.64469
# Velocity P-wave (km/s) = 5.93745 7.03568 6.50976
#
# Compressibility (1/GPa) = 0.02166116
#
# Stress axis : x y z
#
# Youngs Moduli (GPa) = 150.71585 123.08570 40.89406
#
# Poissons Ratio (x) = 0.26578 0.11140
# Poissons Ratio (y) = 0.32544 0.15918
# Poissons Ratio (z) = 0.41057 0.47910
#
# Static dielectric constant tensor:
#      x y z
#    x 4.345040 0.000000 0.000000 
#    y 0.000000 4.422710 0.000000 
#    z 0.000000 0.000000 4.532320 
# 
# 
# High freq. dielectric constant tensor:
#      x y z
#    x 1.929300 0.000000 0.000000 
#    y 0.000000 1.946360 0.000000 
#    z 0.000000 0.000000 1.965230 
# 
# From -- ./inp_files/32988.got.cif
#   From: 2010.03.12/outbox.cif.g09.slc.cpg/sg66_17_cif.got.tgz:32988.got - 2010.04.10 21:57:39.
