data_PCOD8277579
_publ_section_title
;
Structure prediction by ZEFSAII (Michael W. Deem and Ramdas Pophale) SiO2 
 PCOD8277579
Probable space group: C C C M
;
_chemical_formula_sum "Si O2"
_cell_formula_units_Z 80
_cell_length_a 23.571191
_cell_length_b 11.683432
_cell_length_c 13.899057
_cell_angle_alpha 90.000000
_cell_angle_beta 90.000000
_cell_angle_gamma 90.000000
_cell_volume 3827.694765
_symmetry_space_group_name_H-M "C C C M"
_symmetry_group_IT_number 66
_symmetry_cell_setting 'orthorhombic'
loop_
_space_group_symop_operation_xyz
x,y,z
-x,-y,z
x,-y,1/2-z
-x,y,1/2-z
-x,-y,-z
x,y,-z
-x,y,1/2+z
x,-y,1/2+z
1/2+x,1/2+y,z
1/2-x,1/2-y,z
1/2+x,1/2-y,1/2-z
1/2-x,1/2+y,1/2-z
1/2-x,1/2-y,-z
1/2+x,1/2+y,-z
1/2-x,1/2+y,1/2+z
1/2+x,1/2-y,1/2+z
loop_
_atom_site_type_symbol
_atom_site_label
_atom_site_fract_x
_atom_site_fract_y
_atom_site_fract_z
Si Si1 0.003145 0.192283 0.114956
Si Si2 0.905922 0.874182 0.246703
Si Si3 0.327475 0.014209 0.105213
Si Si4 0.307913 0.190022 0.259848
Si Si5 0.449803 0.936242 0.648191
O O1 0.051610 0.107266 0.155107
O O2 0.028322 0.308130 0.161242
O O3 0.941572 0.161582 0.157902
O O4 0.999814 0.192163 0.000000
O O5 0.856545 0.780703 0.232590
O O6 0.876926 0.000000 0.250000
O O7 0.294688 0.107968 0.168953
O O8 0.391786 0.057292 0.090351
O O9 0.327803 0.888053 0.151234
O O10 0.298720 0.008393 0.000000
O O11 0.250000 0.250000 0.290516
O O12 0.500000 0.000000 0.589871
O O13 0.440008 0.000000 0.750000
#
# Coordination Sequence:
#
# PCOD8277579 Si02
#       5
#    16  16  16  16  16
#     4  11  22  39  62  93 133 169 208 262 322 386
#     4  11  24  41  64  94 131 175 220 262 315 389
#     4  11  23  43  68  98 129 162 214 272 322 383
#     4  11  25  45  69  92 128 174 219 271 325 376
#     4  11  19  33  61  96 132 166 201 253 319 389
#
# _framework density 20.900307999999999
#
# number of rings (size 3 to 8) (size 9 to 14) (size 15 to 20)
#    0.000    1.000    4.000    5.400    2.800    6.400 
#    0.000    0.000    0.000    0.000    0.000    0.000 
#    0.000    0.000    0.000    0.000    0.000    0.000 
#
# Total GULP energy -495648.111654 kJ/mol
# GULP energy per Si atom -12391.202791 kJ/mol
# Density = 2.085274 g / cm^3
# Si number density = 20.900308 Si / 1000 Ang^3
#
#
#
# Elastic Constant Matrix: (Units=GPa)
#
#
# Indices 1 2 3 4 5 6 
#
# 1 86.0534 28.5657 8.8326 0.0000 0.0000 0.0000
# 2 28.5657 116.7235 36.2348 0.0000 0.0000 0.0000
# 3 8.8326 36.2348 152.8840 0.0000 0.0000 0.0000
# 4 0.0000 0.0000 0.0000 5.6364 0.0000 0.0000
# 5 0.0000 0.0000 0.0000 0.0000 5.4968 0.0000
# 6 0.0000 0.0000 0.0000 0.0000 0.0000 22.2761
#
#
#
# Elastic Compliance Matrix: (Units=1/GPa)
#
#
# Indices 1 2 3 4 5 6 
#
# 1 0.012648 -0.003096 0.000003 0.000000 0.000000 0.000000
# 2 -0.003096 0.010006 -0.002193 0.000000 0.000000 0.000000
# 3 0.000003 -0.002193 0.007060 0.000000 0.000000 0.000000
# 4 0.000000 0.000000 0.000000 0.177418 0.000000 0.000000
# 5 0.000000 0.000000 0.000000 0.000000 0.181923 0.000000
# 6 0.000000 0.000000 0.000000 0.000000 0.000000 0.044891
#
#
# Mechanical properties :
#
#
# Convention : Reuss Voigt Hill
#
# Bulk Modulus (GPa) = 52.23917 55.88078 54.05998
# Shear Modulus (GPa) = 11.08898 25.48373 18.28635
#
# Velocity S-wave (km/s) = 2.30590 3.49563 2.96113
# Velocity P-wave (km/s) = 5.66906 6.56411 6.13293
#
# Compressibility (1/GPa) = 0.01914272
#
# Stress axis : x y z
#
# Youngs Moduli (GPa) = 79.06245 99.94334 141.63547
#
# Poissons Ratio (x) = 0.30946 -0.00044
# Poissons Ratio (y) = 0.24481 0.31054
# Poissons Ratio (z) = -0.00025 0.21913
#
# Static dielectric constant tensor:
#      x y z
#    x 3.772690 0.000000 0.000000 
#    y 0.000000 4.040450 0.000000 
#    z 0.000000 0.000000 3.654660 
# 
# 
# High freq. dielectric constant tensor:
#      x y z
#    x 1.800600 0.000000 0.000000 
#    y 0.000000 1.834730 0.000000 
#    z 0.000000 0.000000 1.807430 
# 
# From -- ./inp_files/33126.got.cif
#   From: 2010.03.12/outbox.cif.g09.slc.cpg/sg66_17_cif.got.tgz:33126.got - 2010.04.10 21:57:39.
