data_PCOD8277486
_publ_section_title
;
Structure prediction by ZEFSAII (Michael W. Deem and Ramdas Pophale) SiO2 
 PCOD8277486
Probable space group: C C C M
;
_chemical_formula_sum "Si O2"
_cell_formula_units_Z 64
_cell_length_a 9.526323
_cell_length_b 35.418196
_cell_length_c 9.952894
_cell_angle_alpha 90.000000
_cell_angle_beta 90.000000
_cell_angle_gamma 90.000000
_cell_volume 3358.157944
_symmetry_space_group_name_H-M "C C C M"
_symmetry_group_IT_number 66
_symmetry_cell_setting 'orthorhombic'
loop_
_space_group_symop_operation_xyz
x,y,z
-x,-y,z
x,-y,1/2-z
-x,y,1/2-z
-x,-y,-z
x,y,-z
-x,y,1/2+z
x,-y,1/2+z
1/2+x,1/2+y,z
1/2-x,1/2-y,z
1/2+x,1/2-y,1/2-z
1/2-x,1/2+y,1/2-z
1/2-x,1/2-y,-z
1/2+x,1/2+y,-z
1/2-x,1/2+y,1/2+z
1/2+x,1/2-y,1/2+z
loop_
_atom_site_type_symbol
_atom_site_label
_atom_site_fract_x
_atom_site_fract_y
_atom_site_fract_z
Si Si1 0.862233 0.218032 0.343031
Si Si2 0.416937 0.462178 0.500000
Si Si3 0.000000 0.590452 0.250000
Si Si4 0.500000 0.585854 0.250000
Si Si5 0.912625 0.460888 0.000000
Si Si6 0.239053 0.864420 0.345801
O O1 0.907971 0.220375 0.500000
O O2 0.750000 0.250000 0.305822
O O3 0.778911 0.179539 0.311161
O O4 0.000000 0.221994 0.250000
O O5 0.500000 0.500000 0.500000
O O6 0.472089 0.440185 0.373917
O O7 0.251489 0.470784 0.500000
O O8 0.055192 0.563336 0.132458
O O9 0.109587 0.619935 0.309791
O O10 0.366900 0.612421 0.256334
O O11 0.000000 0.500000 0.000000
O O12 0.204698 0.872145 0.500000
#
# Coordination Sequence:
#
# PCOD8277486 Si02
#       6
#    16   8   8   8   8  16
#     4  10  23  43  66  98 137 174 214 262 319 379
#     4  12  28  42  64  94 125 166 214 262 327 389
#     4  12  25  44  65  94 126 170 214 268 325 386
#     4  12  23  42  67  92 122 164 216 268 317 372
#     4  12  28  44  64  92 129 168 213 265 330 392
#     4  11  23  42  68  96 127 168 215 272 314 374
#
# _framework density 19.058067000000001
#
# number of rings (size 3 to 8) (size 9 to 14) (size 15 to 20)
#    0.000    0.750    6.250    0.750    5.250    2.500 
#    2.250    0.000    0.000    0.000    0.000    0.000 
#    0.000    0.000    0.000    0.000    0.000    0.000 
#
# Total GULP energy -396758.849799 kJ/mol
# GULP energy per Si atom -12398.714056 kJ/mol
# Density = 1.901469 g / cm^3
# Si number density = 19.058067 Si / 1000 Ang^3
#
#
#
# Elastic Constant Matrix: (Units=GPa)
#
#
# Indices 1 2 3 4 5 6 
#
# 1 118.9307 70.8642 32.7655 0.0000 0.0000 0.0000
# 2 70.8642 168.3348 63.6299 0.0000 0.0000 0.0000
# 3 32.7655 63.6299 109.7761 0.0000 0.0000 0.0000
# 4 0.0000 0.0000 0.0000 37.5296 0.0000 0.0000
# 5 0.0000 0.0000 0.0000 0.0000 38.0755 0.0000
# 6 0.0000 0.0000 0.0000 0.0000 0.0000 48.3427
#
#
#
# Elastic Compliance Matrix: (Units=1/GPa)
#
#
# Indices 1 2 3 4 5 6 
#
# 1 0.011276 -0.004450 -0.000786 0.000000 0.000000 0.000000
# 2 -0.004450 0.009363 -0.004099 0.000000 0.000000 0.000000
# 3 -0.000786 -0.004099 0.011720 0.000000 0.000000 0.000000
# 4 0.000000 0.000000 0.000000 0.026646 0.000000 0.000000
# 5 0.000000 0.000000 0.000000 0.000000 0.026264 0.000000
# 6 0.000000 0.000000 0.000000 0.000000 0.000000 0.020686
#
#
# Mechanical properties :
#
#
# Convention : Reuss Voigt Hill
#
# Bulk Modulus (GPa) = 73.05110 81.28456 77.16783
# Shear Modulus (GPa) = 38.70325 40.10835 39.40580
#
# Velocity S-wave (km/s) = 4.51134 4.59250 4.55210
# Velocity P-wave (km/s) = 8.09631 8.41813 8.25879
#
# Compressibility (1/GPa) = 0.01368905
#
# Stress axis : x y z
#
# Youngs Moduli (GPa) = 88.68185 106.80134 85.32296
#
# Poissons Ratio (x) = 0.47523 0.06711
# Poissons Ratio (y) = 0.39461 0.34975
# Poissons Ratio (z) = 0.06975 0.43779
#
# Static dielectric constant tensor:
#      x y z
#    x 3.596760 0.000000 0.000000 
#    y 0.000000 5.658740 0.000000 
#    z 0.000000 0.000000 3.650380 
# 
# 
# High freq. dielectric constant tensor:
#      x y z
#    x 1.751810 0.000000 0.000000 
#    y 0.000000 1.761260 0.000000 
#    z 0.000000 0.000000 1.753810 
# 
# From -- ./inp_files/13631.got.cif
#   From: 2010.03.12/outbox.cif.g09.slc.cpg/sg66_7_cif.got.tgz:13631.got - 2010.04.10 21:57:39.
