data_PCOD8277306
_publ_section_title
;
Structure prediction by ZEFSAII (Michael W. Deem and Ramdas Pophale) SiO2 
 PCOD8277306
Probable space group: C C C M
;
_chemical_formula_sum "Si O2"
_cell_formula_units_Z 96
_cell_length_a 20.659670
_cell_length_b 25.506242
_cell_length_c 8.860226
_cell_angle_alpha 90.000000
_cell_angle_beta 90.000000
_cell_angle_gamma 90.000000
_cell_volume 4668.900899
_symmetry_space_group_name_H-M "C C C M"
_symmetry_group_IT_number 66
_symmetry_cell_setting 'orthorhombic'
loop_
_space_group_symop_operation_xyz
x,y,z
-x,-y,z
x,-y,1/2-z
-x,y,1/2-z
-x,-y,-z
x,y,-z
-x,y,1/2+z
x,-y,1/2+z
1/2+x,1/2+y,z
1/2-x,1/2-y,z
1/2+x,1/2-y,1/2-z
1/2-x,1/2+y,1/2-z
1/2-x,1/2-y,-z
1/2+x,1/2+y,-z
1/2-x,1/2+y,1/2+z
1/2+x,1/2-y,1/2+z
loop_
_atom_site_type_symbol
_atom_site_label
_atom_site_fract_x
_atom_site_fract_y
_atom_site_fract_z
Si Si1 0.809242 0.882332 0.822379
Si Si2 0.937510 0.380114 0.669505
Si Si3 0.314938 0.944600 0.678545
Si Si4 0.723287 0.804518 0.337172
Si Si5 0.067206 0.842086 0.820278
Si Si6 0.600068 0.767536 0.828921
O O1 0.757704 0.926874 0.770353
O O2 0.777667 0.828118 0.771867
O O3 0.878405 0.883440 0.736977
O O4 0.822203 0.883620 0.000000
O O5 0.939546 0.400853 0.500000
O O6 0.868710 0.402214 0.736592
O O7 0.948499 0.316956 0.674348
O O8 0.000000 0.405598 0.750000
O O9 0.315463 0.949136 0.500000
O O10 0.331782 0.000000 0.750000
O O11 0.711222 0.834490 0.500000
O O12 0.750000 0.750000 0.389916
O O13 0.661153 0.797655 0.236027
O O14 0.078011 0.781660 0.770737
O O15 0.000000 0.862057 0.750000
O O16 0.064286 0.843345 0.000000
O O17 0.611183 0.747172 0.000000
#
# Coordination Sequence:
#
# PCOD8277306 Si02
#       6
#    16  16  16  16  16  16
#     4  11  22  40  63  85 116 156 197 247 302 357
#     4  10  22  39  57  84 119 159 203 245 290 347
#     4  10  23  43  64  89 116 147 195 248 306 364
#     4  11  21  32  52  86 119 152 200 245 286 347
#     4  12  25  40  58  89 125 161 203 241 290 353
#     4  11  21  36  57  82 120 165 204 244 289 339
#
# _framework density 20.561585000000001
#
# number of rings (size 3 to 8) (size 9 to 14) (size 15 to 20)
#    0.000    1.167    3.333    3.500    0.000    5.667 
#    0.000    1.667    0.000    0.500    0.000    3.500 
#    0.000    0.000    0.000    0.000    0.000    0.000 
#
# Total GULP energy -594629.357525 kJ/mol
# GULP energy per Si atom -12388.111615 kJ/mol
# Density = 2.051479 g / cm^3
# Si number density = 20.561585 Si / 1000 Ang^3
#
#
#
# Elastic Constant Matrix: (Units=GPa)
#
#
# Indices 1 2 3 4 5 6 
#
# 1 148.3439 18.0555 54.5959 0.0000 0.0000 0.0000
# 2 18.0555 63.0714 18.4340 0.0000 0.0000 0.0000
# 3 54.5959 18.4340 116.7079 0.0000 0.0000 0.0000
# 4 0.0000 0.0000 0.0000 -177.4778 0.0000 0.0000
# 5 0.0000 0.0000 0.0000 0.0000 37.3686 0.0000
# 6 0.0000 0.0000 0.0000 0.0000 0.0000 17.1301
#
#
#
# Elastic Compliance Matrix: (Units=1/GPa)
#
#
# Indices 1 2 3 4 5 6 
#
# 1 0.008242 -0.001292 -0.003652 0.000000 0.000000 0.000000
# 2 -0.001292 0.016825 -0.002053 0.000000 0.000000 0.000000
# 3 -0.003652 -0.002053 0.010601 0.000000 0.000000 0.000000
# 4 0.000000 0.000000 0.000000 -0.005635 0.000000 0.000000
# 5 0.000000 0.000000 0.000000 0.000000 0.026760 0.000000
# 6 0.000000 0.000000 0.000000 0.000000 0.000000 0.058377
#
#
# Mechanical properties :
#
#
# Convention : Reuss Voigt Hill
#
# Bulk Modulus (GPa) = 46.13726 56.69934 51.41830
# Shear Modulus (GPa) = 36.65972 -8.79330 13.93321
#
# Velocity S-wave (km/s) = 4.22705 -2.07023 2.60596
# Velocity P-wave (km/s) = 6.80523 4.68196 5.84089
#
# Compressibility (1/GPa) = 0.02167446
#
# Stress axis : x y z
#
# Youngs Moduli (GPa) = 121.32509 59.43526 94.33154
#
# Poissons Ratio (x) = 0.07681 0.34446
# Poissons Ratio (y) = 0.15678 0.19366
# Poissons Ratio (z) = 0.44304 0.12202
#
# Static dielectric constant tensor:
#      x y z
#    x 4.030030 0.000000 0.000000 
#    y 0.000000 3.477320 0.000000 
#    z 0.000000 0.000000 3.727400 
# 
# 
# High freq. dielectric constant tensor:
#      x y z
#    x 1.813500 0.000000 0.000000 
#    y 0.000000 1.760840 0.000000 
#    z 0.000000 0.000000 1.815690 
# 
# From -- ./inp_files/7969.got.cif
#   From: 2010.03.12/outbox.cif.g09.slc.cpg/sg66_4_cif.got.tgz:7969.got - 2010.04.10 21:57:39.
