data_PCOD8277441
_publ_section_title
;
Structure prediction by ZEFSAII (Michael W. Deem and Ramdas Pophale) SiO2 
 PCOD8277441
Probable space group: C C C M
;
_chemical_formula_sum "Si O2"
_cell_formula_units_Z 96
_cell_length_a 28.485458
_cell_length_b 20.076199
_cell_length_c 8.855099
_cell_angle_alpha 90.000000
_cell_angle_beta 90.000000
_cell_angle_gamma 90.000000
_cell_volume 5064.051567
_symmetry_space_group_name_H-M "C C C M"
_symmetry_group_IT_number 66
_symmetry_cell_setting 'orthorhombic'
loop_
_space_group_symop_operation_xyz
x,y,z
-x,-y,z
x,-y,1/2-z
-x,y,1/2-z
-x,-y,-z
x,y,-z
-x,y,1/2+z
x,-y,1/2+z
1/2+x,1/2+y,z
1/2-x,1/2-y,z
1/2+x,1/2-y,1/2-z
1/2-x,1/2+y,1/2-z
1/2-x,1/2-y,-z
1/2+x,1/2+y,-z
1/2-x,1/2+y,1/2+z
1/2+x,1/2-y,1/2+z
loop_
_atom_site_type_symbol
_atom_site_label
_atom_site_fract_x
_atom_site_fract_y
_atom_site_fract_z
Si Si1 0.949557 0.829364 0.177927
Si Si2 0.132473 0.927908 0.678106
Si Si3 0.312474 0.802952 0.170330
Si Si4 0.213694 0.149729 0.668853
Si Si5 0.949549 0.435810 0.823134
Si Si6 0.593574 0.187985 0.674432
O O1 0.911003 0.882580 0.236256
O O2 0.931315 0.756399 0.224953
O O3 0.000000 0.844781 0.250000
O O4 0.955273 0.834587 0.000000
O O5 0.130889 0.935146 0.500000
O O6 0.182245 0.894584 0.720176
O O7 0.127082 0.000000 0.750000
O O8 0.269004 0.851953 0.212693
O O9 0.299283 0.726325 0.174932
O O10 0.350962 0.810756 0.300034
O O11 0.330153 0.820504 0.000000
O O12 0.206159 0.121411 0.500000
O O13 0.923192 0.500000 0.750000
O O14 0.923481 0.368268 0.787032
O O15 0.000000 0.430291 0.750000
O O16 0.953618 0.446191 0.000000
O O17 0.582697 0.171703 0.500000
#
# Coordination Sequence:
#
# PCOD8277441 Si02
#       6
#    16  16  16  16  16  16
#     4  10  23  39  57  83 115 150 195 245 294 347
#     4  11  23  40  59  84 115 154 198 245 298 354
#     4   9  18  33  57  87 116 146 185 230 281 338
#     4   9  18  35  58  85 114 147 186 230 281 341
#     4  11  22  38  58  82 112 151 192 234 283 342
#     4  11  21  36  57  87 120 153 192 238 288 343
#
# _framework density 18.957153999999999
#
# number of rings (size 3 to 8) (size 9 to 14) (size 15 to 20)
#    0.000    1.833    1.667    4.500    0.000    5.000 
#    0.000    4.167    0.000    4.000    0.000    0.000 
#    0.000    0.000    0.000    0.000    0.000    0.000 
#
# Total GULP energy -595037.005255 kJ/mol
# GULP energy per Si atom -12396.604276 kJ/mol
# Density = 1.891401 g / cm^3
# Si number density = 18.957154 Si / 1000 Ang^3
#
#
#
# Elastic Constant Matrix: (Units=GPa)
#
#
# Indices 1 2 3 4 5 6 
#
# 1 91.9668 39.0270 29.1060 0.0000 0.0000 0.0000
# 2 39.0270 104.4126 34.8137 0.0000 0.0000 0.0000
# 3 29.1060 34.8137 81.7479 0.0000 0.0000 0.0000
# 4 0.0000 0.0000 0.0000 26.2116 0.0000 0.0000
# 5 0.0000 0.0000 0.0000 0.0000 24.5378 0.0000
# 6 0.0000 0.0000 0.0000 0.0000 0.0000 -42.4195
#
#
#
# Elastic Compliance Matrix: (Units=1/GPa)
#
#
# Indices 1 2 3 4 5 6 
#
# 1 0.013571 -0.004034 -0.003114 0.000000 0.000000 0.000000
# 2 -0.004034 0.012362 -0.003828 0.000000 0.000000 0.000000
# 3 -0.003114 -0.003828 0.014972 0.000000 0.000000 0.000000
# 4 0.000000 0.000000 0.000000 0.038151 0.000000 0.000000
# 5 0.000000 0.000000 0.000000 0.000000 0.040754 0.000000
# 6 0.000000 0.000000 0.000000 0.000000 0.000000 -0.023574
#
#
# Mechanical properties :
#
#
# Convention : Reuss Voigt Hill
#
# Bulk Modulus (GPa) = 52.76494 53.78008 53.27251
# Shear Modulus (GPa) = 40.15928 13.34469 26.75198
#
# Velocity S-wave (km/s) = 4.60763 2.65606 3.76064
# Velocity P-wave (km/s) = 7.49674 6.15119 6.85705
#
# Compressibility (1/GPa) = 0.01895198
#
# Stress axis : x y z
#
# Youngs Moduli (GPa) = 73.68682 80.89525 66.79305
#
# Poissons Ratio (x) = 0.32635 0.20798
# Poissons Ratio (y) = 0.29727 0.25569
# Poissons Ratio (z) = 0.22945 0.30967
#
# Static dielectric constant tensor:
#      x y z
#    x 3.027510 0.000000 0.000000 
#    y 0.000000 4.056690 0.000000 
#    z 0.000000 0.000000 4.735620 
# 
# 
# High freq. dielectric constant tensor:
#      x y z
#    x 1.738480 0.000000 0.000000 
#    y 0.000000 1.731240 0.000000 
#    z 0.000000 0.000000 1.738010 
# 
# From -- ./inp_files/8022.got.cif
#   From: 2010.03.12/outbox.cif.g09.slc.cpg/sg66_5_cif.got.tgz:8022.got - 2010.04.10 21:57:39.
