data_PCOD8277601
_publ_section_title
;
Structure prediction by ZEFSAII (Michael W. Deem and Ramdas Pophale) SiO2 
 PCOD8277601
Probable space group: C C C M
;
_chemical_formula_sum "Si O2"
_cell_formula_units_Z 80
_cell_length_a 23.721481
_cell_length_b 11.633869
_cell_length_c 14.302249
_cell_angle_alpha 90.000000
_cell_angle_beta 90.000000
_cell_angle_gamma 90.000000
_cell_volume 3947.028877
_symmetry_space_group_name_H-M "C C C M"
_symmetry_group_IT_number 66
_symmetry_cell_setting 'orthorhombic'
loop_
_space_group_symop_operation_xyz
x,y,z
-x,-y,z
x,-y,1/2-z
-x,y,1/2-z
-x,-y,-z
x,y,-z
-x,y,1/2+z
x,-y,1/2+z
1/2+x,1/2+y,z
1/2-x,1/2-y,z
1/2+x,1/2-y,1/2-z
1/2-x,1/2+y,1/2-z
1/2-x,1/2-y,-z
1/2+x,1/2+y,-z
1/2-x,1/2+y,1/2+z
1/2+x,1/2-y,1/2+z
loop_
_atom_site_type_symbol
_atom_site_label
_atom_site_fract_x
_atom_site_fract_y
_atom_site_fract_z
Si Si1 0.694287 0.175022 0.000000
Si Si2 0.490747 0.681048 0.352724
Si Si3 0.593626 0.404571 0.500000
Si Si4 0.812538 0.706311 0.000000
Si Si5 0.552512 0.919166 0.104615
Si Si6 0.169322 0.511429 0.354045
Si Si7 0.087127 0.837200 0.000000
O O1 0.750000 0.250000 0.000000
O O2 0.695119 0.095492 0.908870
O O3 0.638423 0.250065 0.000000
O O4 0.500000 0.627195 0.250000
O O5 0.445541 0.604970 0.408284
O O6 0.464044 0.807176 0.337253
O O7 0.549500 0.686658 0.408382
O O8 0.645328 0.315656 0.500000
O O9 0.614994 0.535909 0.500000
O O10 0.750000 0.750000 0.000000
O O11 0.818343 0.632441 0.095089
O O12 0.601383 0.993822 0.152715
O O13 0.500000 0.000000 0.094653
O O14 0.572545 0.878798 0.000000
O O15 0.195029 0.500000 0.250000
#
# Coordination Sequence:
#
# PCOD8277601 Si02
#       7
#     8  16   8   8  16  16   8
#     4  11  26  46  67  93 128 171 217 268 326 373
#     4  11  22  38  61  92 132 166 206 261 318 382
#     4  11  23  43  62  92 127 171 224 257 310 387
#     4  11  24  45  72  92 124 175 218 267 324 376
#     4  11  20  34  60  94 130 167 201 250 319 382
#     4  11  24  43  68  98 130 158 210 273 320 380
#     4  11  25  40  63  91 129 174 217 260 308 389
#
# _framework density 20.268409999999999
#
# number of rings (size 3 to 8) (size 9 to 14) (size 15 to 20)
#    0.000    1.000    6.000    2.400    8.400    2.400 
#    0.000    0.000    0.000    0.000    0.000    0.000 
#    0.000    0.000    0.000    0.000    0.000    0.000 
#
# Total GULP energy -495987.465869 kJ/mol
# GULP energy per Si atom -12399.686647 kJ/mol
# Density = 2.022228 g / cm^3
# Si number density = 20.268410 Si / 1000 Ang^3
#
#
#
# Elastic Constant Matrix: (Units=GPa)
#
#
# Indices 1 2 3 4 5 6 
#
# 1 113.1289 36.2900 43.6903 0.0000 0.0000 0.0000
# 2 36.2900 102.8459 40.4293 0.0000 0.0000 0.0000
# 3 43.6903 40.4293 169.5903 0.0000 0.0000 0.0000
# 4 0.0000 0.0000 0.0000 7.1676 0.0000 0.0000
# 5 0.0000 0.0000 0.0000 0.0000 10.3509 0.0000
# 6 0.0000 0.0000 0.0000 0.0000 0.0000 35.4913
#
#
#
# Elastic Compliance Matrix: (Units=1/GPa)
#
#
# Indices 1 2 3 4 5 6 
#
# 1 0.010561 -0.002932 -0.002022 0.000000 0.000000 0.000000
# 2 -0.002932 0.011543 -0.001996 0.000000 0.000000 0.000000
# 3 -0.002022 -0.001996 0.006893 0.000000 0.000000 0.000000
# 4 0.000000 0.000000 0.000000 0.139517 0.000000 0.000000
# 5 0.000000 0.000000 0.000000 0.000000 0.096610 0.000000
# 6 0.000000 0.000000 0.000000 0.000000 0.000000 0.028176
#
#
# Mechanical properties :
#
#
# Convention : Reuss Voigt Hill
#
# Bulk Modulus (GPa) = 66.23874 69.59824 67.91849
# Shear Modulus (GPa) = 16.01376 28.27898 22.14637
#
# Velocity S-wave (km/s) = 2.81389 3.73932 3.30912
# Velocity P-wave (km/s) = 6.58096 7.28397 6.94137
#
# Compressibility (1/GPa) = 0.01509691
#
# Stress axis : x y z
#
# Youngs Moduli (GPa) = 94.69054 86.63597 145.06720
#
# Poissons Ratio (x) = 0.25399 0.29330
# Poissons Ratio (y) = 0.27760 0.28961
# Poissons Ratio (z) = 0.19144 0.17296
#
# Static dielectric constant tensor:
#      x y z
#    x 3.620910 0.000000 0.000000 
#    y 0.000000 3.856450 0.000000 
#    z 0.000000 0.000000 3.854040 
# 
# 
# High freq. dielectric constant tensor:
#      x y z
#    x 1.778820 0.000000 0.000000 
#    y 0.000000 1.801150 0.000000 
#    z 0.000000 0.000000 1.789140 
# 
# From -- ./inp_files/26476.got.cif
#   From: 2010.03.12/outbox.cif.g09.slc.cpg/sg66_14_cif.got.tgz:26476.got - 2010.04.10 21:57:39.
