data_PCOD8277519
_publ_section_title
;
Structure prediction by ZEFSAII (Michael W. Deem and Ramdas Pophale) SiO2 
 PCOD8277519
Probable space group: C C C M
;
_chemical_formula_sum "Si O2"
_cell_formula_units_Z 96
_cell_length_a 10.224077
_cell_length_b 25.564755
_cell_length_c 19.069253
_cell_angle_alpha 90.000000
_cell_angle_beta 90.000000
_cell_angle_gamma 90.000000
_cell_volume 4984.245522
_symmetry_space_group_name_H-M "C C C M"
_symmetry_group_IT_number 66
_symmetry_cell_setting 'orthorhombic'
loop_
_space_group_symop_operation_xyz
x,y,z
-x,-y,z
x,-y,1/2-z
-x,y,1/2-z
-x,-y,-z
x,y,-z
-x,y,1/2+z
x,-y,1/2+z
1/2+x,1/2+y,z
1/2-x,1/2-y,z
1/2+x,1/2-y,1/2-z
1/2-x,1/2+y,1/2-z
1/2-x,1/2-y,-z
1/2+x,1/2+y,-z
1/2-x,1/2+y,1/2+z
1/2+x,1/2-y,1/2+z
loop_
_atom_site_type_symbol
_atom_site_label
_atom_site_fract_x
_atom_site_fract_y
_atom_site_fract_z
Si Si1 0.000000 0.419554 0.750000
Si Si2 0.297948 0.000000 0.750000
Si Si3 0.622481 0.534853 0.128911
Si Si4 0.631987 0.647875 0.918929
Si Si5 0.074061 0.649028 0.622798
Si Si6 0.291400 0.005434 0.000000
Si Si7 0.904049 0.241546 0.684242
Si Si8 0.976975 0.411420 0.000000
O O1 0.108793 0.456618 0.712495
O O2 0.073213 0.384462 0.806675
O O3 0.214685 0.033993 0.803752
O O4 0.500000 0.500000 0.148192
O O5 0.574704 0.593269 0.109887
O O6 0.699885 0.508667 0.066412
O O7 0.787766 0.645069 0.915676
O O8 0.578700 0.693657 0.869262
O O9 0.589940 0.657249 0.000000
O O10 0.041335 0.708465 0.642552
O O11 0.969352 0.625816 0.568240
O O12 0.351789 0.948036 0.000000
O O13 0.394360 0.052468 0.000000
O O14 0.750000 0.250000 0.706197
O O15 0.000000 0.231185 0.750000
#
# Coordination Sequence:
#
# PCOD8277519 Si02
#       8
#     8   8  16  16  16   8  16   8
#     4  11  20  36  62  88 130 150 195 262 324 370
#     4  11  23  36  56  94 117 163 202 252 314 367
#     4  12  23  39  58  83 126 165 210 244 298 376
#     4  11  22  41  65  93 124 163 213 260 303 367
#     4  11  19  37  62  93 122 154 199 258 319 366
#     4  11  21  38  57  87 121 162 198 250 317 360
#     4  10  24  41  66  92 124 163 208 262 321 371
#     4  11  20  34  64  90 121 150 200 264 310 376
#
# _framework density 19.260688999999999
#
# number of rings (size 3 to 8) (size 9 to 14) (size 15 to 20)
#    0.000    1.000    5.833    1.500    1.167    5.000 
#    0.000    0.000    0.000    0.500    0.000    0.000 
#    0.000    0.000    0.000    0.000    0.000    0.000 
#
# Total GULP energy -595114.934899 kJ/mol
# GULP energy per Si atom -12398.227810 kJ/mol
# Density = 1.921685 g / cm^3
# Si number density = 19.260689 Si / 1000 Ang^3
#
#
#
# Elastic Constant Matrix: (Units=GPa)
#
#
# Indices 1 2 3 4 5 6 
#
# 1 63.3634 46.4378 29.9048 0.0000 0.0000 0.0000
# 2 46.4378 165.2850 64.6325 0.0000 0.0000 0.0000
# 3 29.9048 64.6325 113.1913 0.0000 0.0000 0.0000
# 4 0.0000 0.0000 0.0000 35.7677 0.0000 0.0000
# 5 0.0000 0.0000 0.0000 0.0000 25.8766 0.0000
# 6 0.0000 0.0000 0.0000 0.0000 0.0000 27.1170
#
#
#
# Elastic Compliance Matrix: (Units=1/GPa)
#
#
# Indices 1 2 3 4 5 6 
#
# 1 0.020514 -0.004692 -0.002741 0.000000 0.000000 0.000000
# 2 -0.004692 0.008862 -0.003821 0.000000 0.000000 0.000000
# 3 -0.002741 -0.003821 0.011740 0.000000 0.000000 0.000000
# 4 0.000000 0.000000 0.000000 0.027958 0.000000 0.000000
# 5 0.000000 0.000000 0.000000 0.000000 0.038645 0.000000
# 6 0.000000 0.000000 0.000000 0.000000 0.000000 0.036877
#
#
# Mechanical properties :
#
#
# Convention : Reuss Voigt Hill
#
# Bulk Modulus (GPa) = 53.73444 69.30999 61.52221
# Shear Modulus (GPa) = 28.85047 31.14326 29.99686
#
# Velocity S-wave (km/s) = 3.87446 4.02547 3.95069
# Velocity P-wave (km/s) = 6.92635 7.59403 7.26786
#
# Compressibility (1/GPa) = 0.01861004
#
# Stress axis : x y z
#
# Youngs Moduli (GPa) = 48.74718 112.83530 85.17565
#
# Poissons Ratio (x) = 0.52940 0.23344
# Poissons Ratio (y) = 0.22871 0.32545
# Poissons Ratio (z) = 0.13360 0.43114
#
# Static dielectric constant tensor:
#      x y z
#    x 3.369320 0.000000 0.000000 
#    y 0.000000 3.782000 0.000000 
#    z 0.000000 0.000000 3.508660 
# 
# 
# High freq. dielectric constant tensor:
#      x y z
#    x 1.723710 0.000000 0.000000 
#    y 0.000000 1.764530 0.000000 
#    z 0.000000 0.000000 1.754140 
# 
# From -- ./inp_files/38928.got.cif
#   From: 2010.03.12/outbox.cif.g09.slc.cpg/sg66_20_cif.got.tgz:38928.got - 2010.04.10 21:57:39.
