data_PCOD8277115
_publ_section_title
;
Structure prediction by ZEFSAII (Michael W. Deem and Ramdas Pophale) SiO2 
 PCOD8277115
Probable space group: C C C M
;
_chemical_formula_sum "Si O2"
_cell_formula_units_Z 64
_cell_length_a 12.142249
_cell_length_b 14.419174
_cell_length_c 18.049861
_cell_angle_alpha 90.000000
_cell_angle_beta 90.000000
_cell_angle_gamma 90.000000
_cell_volume 3160.191343
_symmetry_space_group_name_H-M "C C C M"
_symmetry_group_IT_number 66
_symmetry_cell_setting 'orthorhombic'
loop_
_space_group_symop_operation_xyz
x,y,z
-x,-y,z
x,-y,1/2-z
-x,y,1/2-z
-x,-y,-z
x,y,-z
-x,y,1/2+z
x,-y,1/2+z
1/2+x,1/2+y,z
1/2-x,1/2-y,z
1/2+x,1/2-y,1/2-z
1/2-x,1/2+y,1/2-z
1/2-x,1/2-y,-z
1/2+x,1/2+y,-z
1/2-x,1/2+y,1/2+z
1/2+x,1/2-y,1/2+z
loop_
_atom_site_type_symbol
_atom_site_label
_atom_site_fract_x
_atom_site_fract_y
_atom_site_fract_z
Si Si1 0.038359 0.898729 0.586539
Si Si2 0.604604 0.934108 0.419215
Si Si3 0.509542 0.782417 0.837048
Si Si4 0.291068 0.886123 0.413382
O O1 0.011024 0.893929 0.500000
O O2 0.974728 0.817224 0.629334
O O3 0.163973 0.868532 0.603219
O O4 0.000000 0.000000 0.616673
O O5 0.630253 0.890423 0.500000
O O6 0.587205 0.852429 0.361139
O O7 0.500000 0.000000 0.424963
O O8 0.700335 0.004183 0.393555
O O9 0.500000 0.774856 0.750000
O O10 0.629026 0.820669 0.864567
O O11 0.320635 0.867737 0.500000
#
# Coordination Sequence:
#
# PCOD8277115 Si02
#       4
#    16  16  16  16
#     4  10  21  39  61  82 107 145 193 237 275 321
#     4   8  15  30  53  79 104 134 180 233 272 309
#     4  11  21  33  52  83 116 147 181 222 278 336
#     4   9  18  36  62  85 107 143 190 233 273 326
#
# _framework density 20.251939
#
# number of rings (size 3 to 8) (size 9 to 14) (size 15 to 20)
#    0.000    2.500    0.000    4.500    0.000    7.000 
#    0.000    8.750    0.000    6.000    0.000    0.000 
#    0.000    0.000    0.000    0.000    0.000    0.000 
#
# Total GULP energy -396449.203630 kJ/mol
# GULP energy per Si atom -12389.037613 kJ/mol
# Density = 2.020584 g / cm^3
# Si number density = 20.251939 Si / 1000 Ang^3
#
#
#
# Elastic Constant Matrix: (Units=GPa)
#
#
# Indices 1 2 3 4 5 6 
#
# 1 30.4849 19.7085 22.6361 0.0000 0.0000 0.0000
# 2 19.7085 168.2513 74.4833 0.0000 0.0000 0.0000
# 3 22.6361 74.4833 101.7541 0.0000 0.0000 0.0000
# 4 0.0000 0.0000 0.0000 35.9469 0.0000 0.0000
# 5 0.0000 0.0000 0.0000 0.0000 11.9299 0.0000
# 6 0.0000 0.0000 0.0000 0.0000 0.0000 22.8842
#
#
#
# Elastic Compliance Matrix: (Units=1/GPa)
#
#
# Indices 1 2 3 4 5 6 
#
# 1 0.039428 -0.001088 -0.007975 0.000000 0.000000 0.000000
# 2 -0.001088 0.008823 -0.006216 0.000000 0.000000 0.000000
# 3 -0.007975 -0.006216 0.016152 0.000000 0.000000 0.000000
# 4 0.000000 0.000000 0.000000 0.027819 0.000000 0.000000
# 5 0.000000 0.000000 0.000000 0.000000 0.083823 0.000000
# 6 0.000000 0.000000 0.000000 0.000000 0.000000 0.043698
#
#
# Mechanical properties :
#
#
# Convention : Reuss Voigt Hill
#
# Bulk Modulus (GPa) = 29.54666 59.34959 44.44812
# Shear Modulus (GPa) = 19.11445 26.39635 22.75540
#
# Velocity S-wave (km/s) = 3.07552 3.61418 3.35567
# Velocity P-wave (km/s) = 5.21852 6.84000 6.08353
#
# Compressibility (1/GPa) = 0.03384477
#
# Stress axis : x y z
#
# Youngs Moduli (GPa) = 25.36267 113.34294 61.91270
#
# Poissons Ratio (x) = 0.12335 0.49372
# Poissons Ratio (y) = 0.02760 0.38486
# Poissons Ratio (z) = 0.20226 0.70455
#
# Static dielectric constant tensor:
#      x y z
#    x 4.109490 0.000000 0.000000 
#    y 0.000000 4.411720 0.000000 
#    z 0.000000 0.000000 3.347760 
# 
# 
# High freq. dielectric constant tensor:
#      x y z
#    x 1.763840 0.000000 0.000000 
#    y 0.000000 1.807640 0.000000 
#    z 0.000000 0.000000 1.762050 
# 
# From -- ./inp_files/27721.got.cif
#   From: 2010.03.12/outbox.cif.g09.slc.cpg/sg66_14_cif.got.tgz:27721.got - 2010.04.10 21:57:39.
