data_PCOD8277301
_publ_section_title
;
Structure prediction by ZEFSAII (Michael W. Deem and Ramdas Pophale) SiO2 
 PCOD8277301
Probable space group: C C C M
;
_chemical_formula_sum "Si O2"
_cell_formula_units_Z 116
_cell_length_a 26.220260
_cell_length_b 26.058474
_cell_length_c 9.672456
_cell_angle_alpha 90.000000
_cell_angle_beta 90.000000
_cell_angle_gamma 90.000000
_cell_volume 6608.801933
_symmetry_space_group_name_H-M "C C C M"
_symmetry_group_IT_number 66
_symmetry_cell_setting 'orthorhombic'
loop_
_space_group_symop_operation_xyz
x,y,z
-x,-y,z
x,-y,1/2-z
-x,y,1/2-z
-x,-y,-z
x,y,-z
-x,y,1/2+z
x,-y,1/2+z
1/2+x,1/2+y,z
1/2-x,1/2-y,z
1/2+x,1/2-y,1/2-z
1/2-x,1/2+y,1/2-z
1/2-x,1/2-y,-z
1/2+x,1/2+y,-z
1/2-x,1/2+y,1/2+z
1/2+x,1/2-y,1/2+z
loop_
_atom_site_type_symbol
_atom_site_label
_atom_site_fract_x
_atom_site_fract_y
_atom_site_fract_z
Si Si1 0.924613 0.324854 0.343013
Si Si2 0.500000 0.000000 0.250000
Si Si3 0.811790 0.706763 0.153857
Si Si4 0.258595 0.643052 0.160753
Si Si5 0.185642 0.452164 0.659589
Si Si6 0.656521 0.676549 0.156788
Si Si7 0.046423 0.210947 0.161599
Si Si8 0.574697 0.916730 0.344701
O O1 0.941125 0.336409 0.500000
O O2 0.863760 0.324627 0.327985
O O3 0.946175 0.270179 0.293917
O O4 0.946914 0.370273 0.248398
O O5 0.535912 0.964451 0.344290
O O6 0.772456 0.689502 0.270299
O O7 0.821089 0.766681 0.171207
O O8 0.789360 0.695790 0.000000
O O9 0.228187 0.590778 0.183317
O O10 0.313481 0.639244 0.237510
O O11 0.266903 0.655494 0.000000
O O12 0.203593 0.500000 0.750000
O O13 0.182481 0.468823 0.500000
O O14 0.130145 0.433629 0.711347
O O15 0.596772 0.677942 0.196560
O O16 0.663067 0.656404 0.000000
O O17 0.000000 0.187545 0.250000
O O18 0.033791 0.207386 0.000000
O O19 0.580016 0.895799 0.500000
#
# Coordination Sequence:
#
# PCOD8277301 Si02
#       8
#    16   4  16  16  16  16  16  16
#     4   9  19  34  52  72  95 127 167 208 252 307
#     4  12  26  40  52  70  90 124 176 226 276 320
#     4   9  17  31  50  71  98 134 168 198 243 306
#     4  11  21  32  49  76 103 127 163 211 259 303
#     4  10  22  39  55  73  97 128 166 213 266 319
#     4   9  19  34  50  72 104 137 171 202 239 302
#     4   9  19  35  52  74 103 136 171 206 243 291
#     4  11  23  39  54  69  92 123 165 222 273 312
#
# _framework density 17.552350000000001
#
# number of rings (size 3 to 8) (size 9 to 14) (size 15 to 20)
#    0.000    2.207    2.069    2.690    0.966    6.069 
#    0.000    2.759    0.000    0.000    0.000    0.000 
#    0.000    0.552    0.000    6.069    0.000    4.414 
#
# Total GULP energy -719186.851461 kJ/mol
# GULP energy per Si atom -12399.773301 kJ/mol
# Density = 1.751240 g / cm^3
# Si number density = 17.552350 Si / 1000 Ang^3
#
#
#
# Elastic Constant Matrix: (Units=GPa)
#
#
# Indices 1 2 3 4 5 6 
#
# 1 112.5111 31.5840 59.9958 0.0000 0.0000 0.0000
# 2 31.5840 38.4423 28.3730 0.0000 0.0000 0.0000
# 3 59.9958 28.3730 89.3464 0.0000 0.0000 0.0000
# 4 0.0000 0.0000 0.0000 24.3541 0.0000 0.0000
# 5 0.0000 0.0000 0.0000 0.0000 25.8089 0.0000
# 6 0.0000 0.0000 0.0000 0.0000 0.0000 23.3448
#
#
#
# Elastic Compliance Matrix: (Units=1/GPa)
#
#
# Indices 1 2 3 4 5 6 
#
# 1 0.014950 -0.006366 -0.008018 0.000000 0.000000 0.000000
# 2 -0.006366 0.036687 -0.007376 0.000000 0.000000 0.000000
# 3 -0.008018 -0.007376 0.018918 0.000000 0.000000 0.000000
# 4 0.000000 0.000000 0.000000 0.041061 0.000000 0.000000
# 5 0.000000 0.000000 0.000000 0.000000 0.038746 0.000000
# 6 0.000000 0.000000 0.000000 0.000000 0.000000 0.042836
#
#
# Mechanical properties :
#
#
# Convention : Reuss Voigt Hill
#
# Bulk Modulus (GPa) = 36.98567 53.35616 45.17092
# Shear Modulus (GPa) = 20.34759 22.72471 21.53615
#
# Velocity S-wave (km/s) = 3.40847 3.60207 3.50661
# Velocity P-wave (km/s) = 6.05042 6.91116 6.49507
#
# Compressibility (1/GPa) = 0.02703750
#
# Stress axis : x y z
#
# Youngs Moduli (GPa) = 66.88850 27.25774 52.85838
#
# Poissons Ratio (x) = 0.17351 0.42380
# Poissons Ratio (y) = 0.42578 0.38988
# Poissons Ratio (z) = 0.53628 0.20105
#
# Static dielectric constant tensor:
#      x y z
#    x 3.382820 0.000000 0.000000 
#    y 0.000000 2.925230 0.000000 
#    z 0.000000 0.000000 3.261980 
# 
# 
# High freq. dielectric constant tensor:
#      x y z
#    x 1.680450 0.000000 0.000000 
#    y 0.000000 1.634990 0.000000 
#    z 0.000000 0.000000 1.680440 
# 
# From -- ./inp_files/9635.got.cif
#   From: 2010.03.12/outbox.cif.g09.slc.cpg/sg66_5_cif.got.tgz:9635.got - 2010.04.10 21:57:39.
