data_PCOD8277966
_publ_section_title
;
Structure prediction by ZEFSAII (Michael W. Deem and Ramdas Pophale) SiO2 
 PCOD8277966
Probable space group: C M M A
;
_chemical_formula_sum "Si O2"
_cell_formula_units_Z 72
_cell_length_a 17.781552
_cell_length_b 15.785059
_cell_length_c 13.845267
_cell_angle_alpha 90.000000
_cell_angle_beta 90.000000
_cell_angle_gamma 90.000000
_cell_volume 3886.128965
_symmetry_space_group_name_H-M "C M M A"
_symmetry_group_IT_number 67
_symmetry_cell_setting 'orthorhombic'
loop_
_space_group_symop_operation_xyz
x,y,z
-x,1/2-y,z
x,-y,-z
-x,1/2+y,-z
-x,-y,-z
x,1/2+y,-z
-x,y,z
x,1/2-y,z
1/2+x,1/2+y,z
1/2-x,-y,z
1/2+x,1/2-y,-z
1/2-x,y,-z
1/2-x,1/2-y,-z
1/2+x,y,-z
1/2-x,1/2+y,z
1/2+x,-y,z
loop_
_atom_site_type_symbol
_atom_site_label
_atom_site_fract_x
_atom_site_fract_y
_atom_site_fract_z
Si Si1 0.336181 0.406817 0.968684
Si Si2 0.088408 0.250000 0.929912
Si Si3 0.209159 0.913205 0.763100
Si Si4 0.313376 0.750000 0.744997
Si Si5 0.833009 0.580695 0.547444
Si Si6 0.337685 0.250000 0.471820
O O1 0.346195 0.395742 0.852901
O O2 0.364551 0.500000 0.000000
O O3 0.250000 0.391752 0.000000
O O4 0.386850 0.334894 0.015762
O O5 0.121614 0.250000 0.823036
O O6 0.000000 0.250000 0.920581
O O7 0.264690 0.834506 0.753513
O O8 0.165879 0.927601 0.662880
O O9 0.250000 0.000000 0.791673
O O10 0.352705 0.750000 0.641471
O O11 0.875466 0.500000 0.500000
O O12 0.750000 0.583460 0.500000
O O13 0.876177 0.666775 0.518392
O O14 0.250000 0.250000 0.500000
#
# Coordination Sequence:
#
# PCOD8277966 Si02
#       6
#    16   8  16   8  16   8
#     4  11  21  37  58  84 111 139 184 243 292 330
#     4  12  26  41  55  77 112 157 196 231 277 340
#     4  12  18  28  51  80 112 139 171 217 285 335
#     4  12  19  30  52  73 106 143 178 220 270 339
#     4  10  16  25  40  71 116 139 154 203 272 338
#     4  10  16  26  40  71 105 138 158 205 267 315
#
# _framework density 18.527435000000001
#
# number of rings (size 3 to 8) (size 9 to 14) (size 15 to 20)
#    0.000    0.889   11.111    1.000    0.000    0.444 
#    0.000    0.000    0.000    0.000    0.000    3.111 
#    0.000    8.889    0.000    0.000    0.000    0.000 
#
# Total GULP energy -446221.033044 kJ/mol
# GULP energy per Si atom -12395.028696 kJ/mol
# Density = 1.848527 g / cm^3
# Si number density = 18.527435 Si / 1000 Ang^3
#
#
#
# Elastic Constant Matrix: (Units=GPa)
#
#
# Indices 1 2 3 4 5 6 
#
# 1 39.2583 34.7452 30.9438 0.0000 0.0000 0.0000
# 2 34.7452 169.5345 43.7283 0.0000 0.0000 0.0000
# 3 30.9438 43.7283 191.3719 0.0000 0.0000 0.0000
# 4 0.0000 0.0000 0.0000 37.0933 0.0000 0.0000
# 5 0.0000 0.0000 0.0000 0.0000 5.9667 0.0000
# 6 0.0000 0.0000 0.0000 0.0000 0.0000 5.4066
#
#
#
# Elastic Compliance Matrix: (Units=1/GPa)
#
#
# Indices 1 2 3 4 5 6 
#
# 1 0.033951 -0.005889 -0.004144 0.000000 0.000000 0.000000
# 2 -0.005889 0.007289 -0.000713 0.000000 0.000000 0.000000
# 3 -0.004144 -0.000713 0.006058 0.000000 0.000000 0.000000
# 4 0.000000 0.000000 0.000000 0.026959 0.000000 0.000000
# 5 0.000000 0.000000 0.000000 0.000000 0.167596 0.000000
# 6 0.000000 0.000000 0.000000 0.000000 0.000000 0.184958
#
#
# Mechanical properties :
#
#
# Convention : Reuss Voigt Hill
#
# Bulk Modulus (GPa) = 38.75117 68.77768 53.76443
# Shear Modulus (GPa) = 10.94317 29.07650 20.00984
#
# Velocity S-wave (km/s) = 2.43296 3.96583 3.28992
# Velocity P-wave (km/s) = 5.37153 7.62713 6.59646
#
# Compressibility (1/GPa) = 0.02580567
#
# Stress axis : x y z
#
# Youngs Moduli (GPa) = 29.45439 137.18432 165.05743
#
# Poissons Ratio (x) = 0.80790 0.68400
# Poissons Ratio (y) = 0.17346 0.11775
# Poissons Ratio (z) = 0.12206 0.09787
#
# Static dielectric constant tensor:
#      x y z
#    x 2.566270 0.000000 0.000000 
#    y 0.000000 5.934980 0.000000 
#    z 0.000000 0.000000 3.894030 
# 
# 
# High freq. dielectric constant tensor:
#      x y z
#    x 1.614210 0.000000 0.000000 
#    y 0.000000 1.760700 0.000000 
#    z 0.000000 0.000000 1.747740 
# 
# From -- ./inp_files/28301.got.cif
#   From: 2010.03.12/outbox.cif.g09.slc.cpg/sg67_15_cif.got.tgz:28301.got - 2010.04.10 22:41:39.
