data_PCOD8277811
_publ_section_title
;
Structure prediction by ZEFSAII (Michael W. Deem and Ramdas Pophale) SiO2 
 PCOD8277811
Probable space group: C C C M
;
_chemical_formula_sum "Si O2"
_cell_formula_units_Z 64
_cell_length_a 8.222715
_cell_length_b 15.256789
_cell_length_c 20.301787
_cell_angle_alpha 90.000000
_cell_angle_beta 90.000000
_cell_angle_gamma 90.000000
_cell_volume 2546.904407
_symmetry_space_group_name_H-M "C C C M"
_symmetry_group_IT_number 66
_symmetry_cell_setting 'orthorhombic'
loop_
_space_group_symop_operation_xyz
x,y,z
-x,-y,z
x,-y,1/2-z
-x,y,1/2-z
-x,-y,-z
x,y,-z
-x,y,1/2+z
x,-y,1/2+z
1/2+x,1/2+y,z
1/2-x,1/2-y,z
1/2+x,1/2-y,1/2-z
1/2-x,1/2+y,1/2-z
1/2-x,1/2-y,-z
1/2+x,1/2+y,-z
1/2-x,1/2+y,1/2+z
1/2+x,1/2-y,1/2+z
loop_
_atom_site_type_symbol
_atom_site_label
_atom_site_fract_x
_atom_site_fract_y
_atom_site_fract_z
Si Si1 0.187123 0.155464 0.115206
Si Si2 0.692553 0.152304 0.242917
Si Si3 0.808691 0.651174 0.500000
Si Si4 0.871729 0.578611 0.000000
Si Si5 0.869759 0.080454 0.878120
O O1 0.250000 0.250000 0.095225
O O2 0.237587 0.122749 0.187184
O O3 0.991456 0.163515 0.114400
O O4 0.256465 0.082420 0.064537
O O5 0.500000 0.147155 0.250000
O O6 0.750000 0.250000 0.224415
O O7 0.762274 0.085432 0.188299
O O8 0.750000 0.750000 0.500000
O O9 0.752274 0.589556 0.560757
O O10 0.004695 0.661527 0.500000
O O11 0.000000 0.500000 0.000000
O O12 0.000000 0.000000 0.877992
#
# Coordination Sequence:
#
# PCOD8277811 Si02
#       5
#    16  16   8   8  16
#     4  11  23  42  66  93 131 180 229 281 343 421
#     4  11  23  43  70 100 134 181 239 297 355 430
#     4  12  24  42  70 102 140 190 242 289 347 428
#     4  12  24  42  66 100 136 174 224 287 348 412
#     4  12  25  44  68 102 143 186 233 294 360 423
#
# _framework density 25.128546
#
# number of rings (size 3 to 8) (size 9 to 14) (size 15 to 20)
#    0.000    0.500    0.000   10.500    0.000    2.000 
#    0.000    1.250    0.000    0.000    0.000    0.000 
#    0.000    0.000    0.000    0.000    0.000    0.000 
#
# Total GULP energy -396661.735444 kJ/mol
# GULP energy per Si atom -12395.679233 kJ/mol
# Density = 2.507135 g / cm^3
# Si number density = 25.128546 Si / 1000 Ang^3
#
#
#
# Elastic Constant Matrix: (Units=GPa)
#
#
# Indices 1 2 3 4 5 6 
#
# 1 171.8315 -3.9595 49.8243 0.0000 0.0000 0.0000
# 2 -3.9595 82.1933 15.8687 0.0000 0.0000 0.0000
# 3 49.8243 15.8687 207.4160 0.0000 0.0000 0.0000
# 4 0.0000 0.0000 0.0000 -19.3949 0.0000 0.0000
# 5 0.0000 0.0000 0.0000 0.0000 39.0672 0.0000
# 6 0.0000 0.0000 0.0000 0.0000 0.0000 34.5936
#
#
#
# Elastic Compliance Matrix: (Units=1/GPa)
#
#
# Indices 1 2 3 4 5 6 
#
# 1 0.006285 0.000603 -0.001556 0.000000 0.000000 0.000000
# 2 0.000603 0.012407 -0.001094 0.000000 0.000000 0.000000
# 3 -0.001556 -0.001094 0.005279 0.000000 0.000000 0.000000
# 4 0.000000 0.000000 0.000000 -0.051560 0.000000 0.000000
# 5 0.000000 0.000000 0.000000 0.000000 0.025597 0.000000
# 6 0.000000 0.000000 0.000000 0.000000 0.000000 0.028907
#
#
# Mechanical properties :
#
#
# Convention : Reuss Voigt Hill
#
# Bulk Modulus (GPa) = 50.31056 64.98975 57.65016
# Shear Modulus (GPa) = 132.86166 37.50035 85.18100
#
# Velocity S-wave (km/s) = 7.27926 3.86727 5.82852
# Velocity P-wave (km/s) = 9.52443 6.77201 8.26362
#
# Compressibility (1/GPa) = 0.01987654
#
# Stress axis : x y z
#
# Youngs Moduli (GPa) = 159.11718 80.60143 189.44195
#
# Poissons Ratio (x) = -0.04861 0.29474
# Poissons Ratio (y) = -0.09597 0.20726
# Poissons Ratio (z) = 0.24756 0.08818
#
# Static dielectric constant tensor:
#      x y z
#    x 5.617910 0.000000 0.000000 
#    y 0.000000 4.627550 0.000000 
#    z 0.000000 0.000000 4.686280 
# 
# 
# High freq. dielectric constant tensor:
#      x y z
#    x 2.029560 0.000000 0.000000 
#    y 0.000000 2.009000 0.000000 
#    z 0.000000 0.000000 2.009140 
# 
# From -- ./inp_files/55184.got.cif
#   From: 2010.03.12/outbox.cif.g09.slc.cpg/sg66_28_cif.got.tgz:55184.got - 2010.04.10 21:57:39.
