data_PCOD8277218
_publ_section_title
;
Structure prediction by ZEFSAII (Michael W. Deem and Ramdas Pophale) SiO2 
 PCOD8277218
Probable space group: C C C M
;
_chemical_formula_sum "Si O2"
_cell_formula_units_Z 88
_cell_length_a 13.684184
_cell_length_b 20.400680
_cell_length_c 15.132629
_cell_angle_alpha 90.000000
_cell_angle_beta 90.000000
_cell_angle_gamma 90.000000
_cell_volume 4224.525477
_symmetry_space_group_name_H-M "C C C M"
_symmetry_group_IT_number 66
_symmetry_cell_setting 'orthorhombic'
loop_
_space_group_symop_operation_xyz
x,y,z
-x,-y,z
x,-y,1/2-z
-x,y,1/2-z
-x,-y,-z
x,y,-z
-x,y,1/2+z
x,-y,1/2+z
1/2+x,1/2+y,z
1/2-x,1/2-y,z
1/2+x,1/2-y,1/2-z
1/2-x,1/2+y,1/2-z
1/2-x,1/2-y,-z
1/2+x,1/2+y,-z
1/2-x,1/2+y,1/2+z
1/2+x,1/2-y,1/2+z
loop_
_atom_site_type_symbol
_atom_site_label
_atom_site_fract_x
_atom_site_fract_y
_atom_site_fract_z
Si Si1 0.093759 0.621560 0.666614
Si Si2 0.096599 0.201172 0.000000
Si Si3 0.543632 0.324353 0.152476
Si Si4 0.610795 0.180306 0.841854
Si Si5 0.222264 0.089183 0.602524
Si Si6 0.182893 0.500000 0.250000
Si Si7 0.318601 0.164028 0.000000
O O1 0.126376 0.678651 0.735458
O O2 0.106803 0.552353 0.713154
O O3 0.167365 0.619888 0.585553
O O4 0.982904 0.634519 0.635962
O O5 0.047329 0.170511 0.913715
O O6 0.209652 0.187198 0.000000
O O7 0.095888 0.280379 0.000000
O O8 0.500000 0.328945 0.250000
O O9 0.598242 0.255818 0.131643
O O10 0.616905 0.383971 0.133327
O O11 0.701825 0.149599 0.893376
O O12 0.217693 0.064418 0.500000
O O13 0.250829 0.030928 0.670876
#
# Coordination Sequence:
#
# PCOD8277218 Si02
#       7
#    16   8  16  16  16   8   8
#     4  10  21  41  64  93 131 172 219 274 322 401
#     4  11  24  38  65 101 133 166 220 271 338 413
#     4  12  23  43  67  99 139 172 215 277 342 407
#     4  10  21  40  67  99 135 169 209 275 349 407
#     4  11  26  43  69  97 133 179 228 280 336 398
#     4  10  26  47  65  94 138 184 237 270 329 392
#     4  11  22  38  66  97 129 171 218 275 334 392
#
# _framework density 20.830742000000001
#
# number of rings (size 3 to 8) (size 9 to 14) (size 15 to 20)
#    0.000    1.273    4.545    0.545    8.909    6.545 
#    0.000    1.364    0.000    2.182    0.000    0.000 
#    0.000    0.000    0.000    0.000    0.000    0.000 
#
# Total GULP energy -545435.247344 kJ/mol
# GULP energy per Si atom -12396.255621 kJ/mol
# Density = 2.078333 g / cm^3
# Si number density = 20.830742 Si / 1000 Ang^3
#
#
#
# Elastic Constant Matrix: (Units=GPa)
#
#
# Indices 1 2 3 4 5 6 
#
# 1 92.5860 25.9062 48.9342 0.0000 0.0000 0.0000
# 2 25.9062 55.7862 29.6378 0.0000 0.0000 0.0000
# 3 48.9342 29.6378 147.1404 0.0000 0.0000 0.0000
# 4 0.0000 0.0000 0.0000 26.1007 0.0000 0.0000
# 5 0.0000 0.0000 0.0000 0.0000 -26.6976 0.0000
# 6 0.0000 0.0000 0.0000 0.0000 0.0000 26.0748
#
#
#
# Elastic Compliance Matrix: (Units=1/GPa)
#
#
# Indices 1 2 3 4 5 6 
#
# 1 0.014057 -0.004529 -0.003763 0.000000 0.000000 0.000000
# 2 -0.004529 0.021533 -0.002831 0.000000 0.000000 0.000000
# 3 -0.003763 -0.002831 0.008618 0.000000 0.000000 0.000000
# 4 0.000000 0.000000 0.000000 0.038313 0.000000 0.000000
# 5 0.000000 0.000000 0.000000 0.000000 -0.037456 0.000000
# 6 0.000000 0.000000 0.000000 0.000000 0.000000 0.038351
#
#
# Mechanical properties :
#
#
# Convention : Reuss Voigt Hill
#
# Bulk Modulus (GPa) = 45.53255 56.05211 50.79233
# Shear Modulus (GPa) = 44.25538 17.83118 31.04328
#
# Velocity S-wave (km/s) = 4.61425 2.92893 3.86458
# Velocity P-wave (km/s) = 7.09184 6.19717 6.65955
#
# Compressibility (1/GPa) = 0.02196231
#
# Stress axis : x y z
#
# Youngs Moduli (GPa) = 71.14130 46.44085 116.03883
#
# Poissons Ratio (x) = 0.21032 0.43660
# Poissons Ratio (y) = 0.32218 0.32852
# Poissons Ratio (z) = 0.26767 0.13148
#
# Static dielectric constant tensor:
#      x y z
#    x 3.670370 0.000000 0.000000 
#    y 0.000000 3.704050 0.000000 
#    z 0.000000 0.000000 4.016100 
# 
# 
# High freq. dielectric constant tensor:
#      x y z
#    x 1.815160 0.000000 0.000000 
#    y 0.000000 1.791770 0.000000 
#    z 0.000000 0.000000 1.828600 
# 
# From -- ./inp_files/28270.got.cif
#   From: 2010.03.12/outbox.cif.g09.slc.cpg/sg66_15_cif.got.tgz:28270.got - 2010.04.10 21:57:39.
