data_PCOD8277715
_publ_section_title
;
Structure prediction by ZEFSAII (Michael W. Deem and Ramdas Pophale) SiO2 
 PCOD8277715
Probable space group: C C C M
;
_chemical_formula_sum "Si O2"
_cell_formula_units_Z 88
_cell_length_a 12.264922
_cell_length_b 11.535109
_cell_length_c 29.725761
_cell_angle_alpha 90.000000
_cell_angle_beta 90.000000
_cell_angle_gamma 90.000000
_cell_volume 4205.517795
_symmetry_space_group_name_H-M "C C C M"
_symmetry_group_IT_number 66
_symmetry_cell_setting 'orthorhombic'
loop_
_space_group_symop_operation_xyz
x,y,z
-x,-y,z
x,-y,1/2-z
-x,y,1/2-z
-x,-y,-z
x,y,-z
-x,y,1/2+z
x,-y,1/2+z
1/2+x,1/2+y,z
1/2-x,1/2-y,z
1/2+x,1/2-y,1/2-z
1/2-x,1/2+y,1/2-z
1/2-x,1/2-y,-z
1/2+x,1/2+y,-z
1/2-x,1/2+y,1/2+z
1/2+x,1/2-y,1/2+z
loop_
_atom_site_type_symbol
_atom_site_label
_atom_site_fract_x
_atom_site_fract_y
_atom_site_fract_z
Si Si1 0.597895 0.413898 0.375041
Si Si2 0.823415 0.506066 0.142889
Si Si3 0.589174 0.782430 0.811962
Si Si4 0.000000 0.500000 0.079865
Si Si5 0.847588 0.673455 0.713662
Si Si6 0.379612 0.765994 0.449198
O O1 0.500000 0.500000 0.367486
O O2 0.707213 0.489467 0.382115
O O3 0.621513 0.345913 0.328051
O O4 0.565125 0.326377 0.415328
O O5 0.874538 0.634876 0.147071
O O6 0.907003 0.436794 0.110421
O O7 0.824821 0.453430 0.193302
O O8 0.652989 0.824021 0.767581
O O9 0.460747 0.779105 0.804615
O O10 0.933555 0.603371 0.053783
O O11 0.750000 0.750000 0.694033
O O12 0.402178 0.724363 0.500000
O O13 0.250000 0.750000 0.439022
#
# Coordination Sequence:
#
# PCOD8277715 Si02
#       6
#    16  16  16   8  16  16
#     4  12  24  42  66  94 136 183 219 279 350 410
#     4  12  21  38  65  91 125 173 228 269 326 399
#     4  11  22  39  58  86 127 173 227 270 327 398
#     4  12  21  40  71 100 124 172 224 281 327 418
#     4  11  22  36  56  89 128 169 222 280 328 383
#     4  11  23  43  71 102 134 172 223 283 345 418
#
# _framework density 20.924890999999999
#
# number of rings (size 3 to 8) (size 9 to 14) (size 15 to 20)
#    0.000    0.545    5.455    3.545    0.000    1.818 
#    0.000    5.455    0.000    1.091    0.000    0.000 
#    0.000    0.000    0.000    0.000    0.000    0.000 
#
# Total GULP energy -545167.890637 kJ/mol
# GULP energy per Si atom -12390.179333 kJ/mol
# Density = 2.087726 g / cm^3
# Si number density = 20.924891 Si / 1000 Ang^3
#
#
#
# Elastic Constant Matrix: (Units=GPa)
#
#
# Indices 1 2 3 4 5 6 
#
# 1 135.1988 39.7674 22.8903 0.0000 0.0000 0.0000
# 2 39.7674 91.3235 40.5957 0.0000 0.0000 0.0000
# 3 22.8903 40.5957 98.2832 0.0000 0.0000 0.0000
# 4 0.0000 0.0000 0.0000 27.1444 0.0000 0.0000
# 5 0.0000 0.0000 0.0000 0.0000 17.1638 0.0000
# 6 0.0000 0.0000 0.0000 0.0000 0.0000 37.5739
#
#
#
# Elastic Compliance Matrix: (Units=1/GPa)
#
#
# Indices 1 2 3 4 5 6 
#
# 1 0.008508 -0.003459 -0.000553 0.000000 0.000000 0.000000
# 2 -0.003459 0.014819 -0.005315 0.000000 0.000000 0.000000
# 3 -0.000553 -0.005315 0.012499 0.000000 0.000000 0.000000
# 4 0.000000 0.000000 0.000000 0.036840 0.000000 0.000000
# 5 0.000000 0.000000 0.000000 0.000000 0.058262 0.000000
# 6 0.000000 0.000000 0.000000 0.000000 0.000000 0.026614
#
#
# Mechanical properties :
#
#
# Convention : Reuss Voigt Hill
#
# Bulk Modulus (GPa) = 58.23627 59.03471 58.63549
# Shear Modulus (GPa) = 27.48463 31.14656 29.31559
#
# Velocity S-wave (km/s) = 3.62814 3.86229 3.74704
# Velocity P-wave (km/s) = 6.74112 6.94000 6.84128
#
# Compressibility (1/GPa) = 0.01717143
#
# Stress axis : x y z
#
# Youngs Moduli (GPa) = 117.54324 67.48022 80.00679
#
# Poissons Ratio (x) = 0.23341 0.04422
# Poissons Ratio (y) = 0.40658 0.42527
# Poissons Ratio (z) = 0.06497 0.35869
#
# Static dielectric constant tensor:
#      x y z
#    x 3.915870 0.000000 0.000000 
#    y 0.000000 3.743830 0.000000 
#    z 0.000000 0.000000 3.785710 
# 
# 
# High freq. dielectric constant tensor:
#      x y z
#    x 1.832610 0.000000 0.000000 
#    y 0.000000 1.802280 0.000000 
#    z 0.000000 0.000000 1.812720 
# 
# From -- ./inp_files/68898.got.cif
#   From: 2010.03.12/outbox.cif.g09.slc.cpg/sg66_35_cif.got.tgz:68898.got - 2010.04.10 21:57:39.
