data_PCOD8277808
_publ_section_title
;
Structure prediction by ZEFSAII (Michael W. Deem and Ramdas Pophale) SiO2 
 PCOD8277808
Probable space group: C C C M
;
_chemical_formula_sum "Si O2"
_cell_formula_units_Z 88
_cell_length_a 21.721078
_cell_length_b 12.392554
_cell_length_c 14.715294
_cell_angle_alpha 90.000000
_cell_angle_beta 90.000000
_cell_angle_gamma 90.000000
_cell_volume 3961.057424
_symmetry_space_group_name_H-M "C C C M"
_symmetry_group_IT_number 66
_symmetry_cell_setting 'orthorhombic'
loop_
_space_group_symop_operation_xyz
x,y,z
-x,-y,z
x,-y,1/2-z
-x,y,1/2-z
-x,-y,-z
x,y,-z
-x,y,1/2+z
x,-y,1/2+z
1/2+x,1/2+y,z
1/2-x,1/2-y,z
1/2+x,1/2-y,1/2-z
1/2-x,1/2+y,1/2-z
1/2-x,1/2-y,-z
1/2+x,1/2+y,-z
1/2-x,1/2+y,1/2+z
1/2+x,1/2-y,1/2+z
loop_
_atom_site_type_symbol
_atom_site_label
_atom_site_fract_x
_atom_site_fract_y
_atom_site_fract_z
Si Si1 0.110590 0.879527 0.739982
Si Si2 0.180537 0.241830 0.395658
Si Si3 0.324314 0.013411 0.648141
Si Si4 0.944397 0.426253 0.098576
Si Si5 0.780326 0.140924 0.601147
Si Si6 0.000000 0.270734 0.750000
O O1 0.140932 0.839467 0.834635
O O2 0.162982 0.888280 0.663733
O O3 0.054049 0.804615 0.707527
O O4 0.084408 0.000000 0.750000
O O5 0.177861 0.201011 0.500000
O O6 0.250000 0.250000 0.359384
O O7 0.158501 0.364006 0.383464
O O8 0.394880 0.978881 0.633141
O O9 0.300867 0.000000 0.750000
O O10 0.271436 0.953753 0.591716
O O11 0.964439 0.338364 0.173389
O O12 0.000000 0.500000 0.076070
O O13 0.925896 0.371960 0.000000
O O14 0.805649 0.161541 0.500000
O O15 0.750000 0.250000 0.640687
#
# Coordination Sequence:
#
# PCOD8277808 Si02
#       6
#    16  16  16  16  16   8
#     4  12  26  45  67  97 136 187 243 298 361 436
#     4  11  23  41  68  99 132 173 229 297 356 417
#     4  12  22  40  69 101 138 177 229 286 363 431
#     4  11  25  43  69 104 137 180 236 295 356 421
#     4  11  25  42  66 103 144 187 230 293 372 442
#     4  12  26  46  70  98 142 194 240 292 354 430
#
# _framework density 22.216289
#
# number of rings (size 3 to 8) (size 9 to 14) (size 15 to 20)
#    0.000    0.545    1.818    7.636    2.545    2.909 
#    0.000    0.000    0.000    3.273    0.000    0.000 
#    0.000    0.000    0.000    0.000    0.000    0.000 
#
# Total GULP energy -545091.888447 kJ/mol
# GULP energy per Si atom -12388.452010 kJ/mol
# Density = 2.216572 g / cm^3
# Si number density = 22.216289 Si / 1000 Ang^3
#
#
#
# Elastic Constant Matrix: (Units=GPa)
#
#
# Indices 1 2 3 4 5 6 
#
# 1 137.2868 35.6074 40.2338 0.0000 0.0000 0.0000
# 2 35.6074 107.1207 37.1772 0.0000 0.0000 0.0000
# 3 40.2338 37.1772 110.3301 0.0000 0.0000 0.0000
# 4 0.0000 0.0000 0.0000 19.1514 0.0000 0.0000
# 5 0.0000 0.0000 0.0000 0.0000 12.6592 0.0000
# 6 0.0000 0.0000 0.0000 0.0000 0.0000 40.9706
#
#
#
# Elastic Compliance Matrix: (Units=1/GPa)
#
#
# Indices 1 2 3 4 5 6 
#
# 1 0.008512 -0.001984 -0.002436 0.000000 0.000000 0.000000
# 2 -0.001984 0.011034 -0.002994 0.000000 0.000000 0.000000
# 3 -0.002436 -0.002994 0.010961 0.000000 0.000000 0.000000
# 4 0.000000 0.000000 0.000000 0.052216 0.000000 0.000000
# 5 0.000000 0.000000 0.000000 0.000000 0.078994 0.000000
# 6 0.000000 0.000000 0.000000 0.000000 0.000000 0.024408
#
#
# Mechanical properties :
#
#
# Convention : Reuss Voigt Hill
#
# Bulk Modulus (GPa) = 63.78048 64.53047 64.15548
# Shear Modulus (GPa) = 24.25068 30.67084 27.46076
#
# Velocity S-wave (km/s) = 3.30748 3.71961 3.51958
# Velocity P-wave (km/s) = 6.58461 6.89615 6.74218
#
# Compressibility (1/GPa) = 0.01567878
#
# Stress axis : x y z
#
# Youngs Moduli (GPa) = 117.47486 90.62807 91.23323
#
# Poissons Ratio (x) = 0.17983 0.22221
# Poissons Ratio (y) = 0.23310 0.27320
# Poissons Ratio (z) = 0.28612 0.27138
#
# Static dielectric constant tensor:
#      x y z
#    x 5.039050 0.000000 0.000000 
#    y 0.000000 4.162580 0.000000 
#    z 0.000000 0.000000 4.107160 
# 
# 
# High freq. dielectric constant tensor:
#      x y z
#    x 1.897270 0.000000 0.000000 
#    y 0.000000 1.863860 0.000000 
#    z 0.000000 0.000000 1.881910 
# 
# From -- ./inp_files/32195.got.cif
#   From: 2010.03.12/outbox.cif.g09.slc.cpg/sg66_17_cif.got.tgz:32195.got - 2010.04.10 21:57:39.
