data_PCOD8277583
_publ_section_title
;
Structure prediction by ZEFSAII (Michael W. Deem and Ramdas Pophale) SiO2 
 PCOD8277583
Probable space group: C C C M
;
_chemical_formula_sum "Si O2"
_cell_formula_units_Z 80
_cell_length_a 21.261578
_cell_length_b 20.966008
_cell_length_c 10.048498
_cell_angle_alpha 90.000000
_cell_angle_beta 90.000000
_cell_angle_gamma 90.000000
_cell_volume 4479.323118
_symmetry_space_group_name_H-M "C C C M"
_symmetry_group_IT_number 66
_symmetry_cell_setting 'orthorhombic'
loop_
_space_group_symop_operation_xyz
x,y,z
-x,-y,z
x,-y,1/2-z
-x,y,1/2-z
-x,-y,-z
x,y,-z
-x,y,1/2+z
x,-y,1/2+z
1/2+x,1/2+y,z
1/2-x,1/2-y,z
1/2+x,1/2-y,1/2-z
1/2-x,1/2+y,1/2-z
1/2-x,1/2-y,-z
1/2+x,1/2+y,-z
1/2-x,1/2+y,1/2+z
1/2+x,1/2-y,1/2+z
loop_
_atom_site_type_symbol
_atom_site_label
_atom_site_fract_x
_atom_site_fract_y
_atom_site_fract_z
Si Si1 0.273331 0.849357 0.000000
Si Si2 0.812236 0.427301 0.237669
Si Si3 0.847636 0.219209 0.500000
Si Si4 0.222706 0.647766 0.500000
Si Si5 0.929175 0.762927 0.744424
Si Si6 0.851159 0.229355 0.000000
Si Si7 0.556089 0.118432 0.841200
O O1 0.268708 0.893006 0.870554
O O2 0.215582 0.802667 0.000000
O O3 0.338048 0.806646 0.000000
O O4 0.790468 0.500000 0.250000
O O5 0.801108 0.391590 0.374827
O O6 0.883860 0.425902 0.185257
O O7 0.810202 0.284493 0.500000
O O8 0.798184 0.160068 0.500000
O O9 0.893264 0.215917 0.624732
O O10 0.890880 0.794570 0.624941
O O11 0.929626 0.687600 0.719592
O O12 0.000000 0.789921 0.750000
O O13 0.500000 0.089399 0.750000
O O14 0.538684 0.120358 0.000000
#
# Coordination Sequence:
#
# PCOD8277583 Si02
#       7
#     8  16   8   8  16   8  16
#     4  11  21  38  56  80 107 146 196 224 285 330
#     4  12  23  39  56  79 113 148 196 236 273 326
#     4  11  21  36  54  83 116 143 187 228 285 350
#     4  11  23  36  56  82 111 150 186 234 289 328
#     4  11  20  32  54  83 116 145 180 227 278 334
#     4  11  19  36  60  77 108 147 185 234 273 344
#     4  11  23  38  55  78 112 153 199 236 269 315
#
# _framework density 17.859840999999999
#
# number of rings (size 3 to 8) (size 9 to 14) (size 15 to 20)
#    0.000    0.800    6.000    2.400    5.600    3.600 
#    0.000    1.000    0.000    0.000    0.000    0.000 
#    0.000   56.000    0.000    0.000    0.000    0.000 
#
# Total GULP energy -495961.994538 kJ/mol
# GULP energy per Si atom -12399.049863 kJ/mol
# Density = 1.781919 g / cm^3
# Si number density = 17.859841 Si / 1000 Ang^3
#
#
#
# Elastic Constant Matrix: (Units=GPa)
#
#
# Indices 1 2 3 4 5 6 
#
# 1 105.3283 21.1862 52.0179 0.0000 0.0000 0.0000
# 2 21.1862 53.5403 27.9387 0.0000 0.0000 0.0000
# 3 52.0179 27.9387 164.9197 0.0000 0.0000 0.0000
# 4 0.0000 0.0000 0.0000 -1.7810 0.0000 0.0000
# 5 0.0000 0.0000 0.0000 0.0000 76.9593 0.0000
# 6 0.0000 0.0000 0.0000 0.0000 0.0000 17.0233
#
#
#
# Elastic Compliance Matrix: (Units=1/GPa)
#
#
# Indices 1 2 3 4 5 6 
#
# 1 0.011657 -0.002955 -0.003176 0.000000 0.000000 0.000000
# 2 -0.002955 0.021238 -0.002666 0.000000 0.000000 0.000000
# 3 -0.003176 -0.002666 0.007517 0.000000 0.000000 0.000000
# 4 0.000000 0.000000 0.000000 -0.561468 0.000000 0.000000
# 5 0.000000 0.000000 0.000000 0.000000 0.012994 0.000000
# 6 0.000000 0.000000 0.000000 0.000000 0.000000 0.058743
#
#
# Mechanical properties :
#
#
# Convention : Reuss Voigt Hill
#
# Bulk Modulus (GPa) = 43.82586 58.45267 51.13926
# Shear Modulus (GPa) = -11.78917 33.28335 10.74709
#
# Velocity S-wave (km/s) = -2.57202 4.32161 2.45571
# Velocity P-wave (km/s) = 3.97136 7.59614 6.06107
#
# Compressibility (1/GPa) = 0.02281758
#
# Stress axis : x y z
#
# Youngs Moduli (GPa) = 85.78405 47.08539 133.03255
#
# Poissons Ratio (x) = 0.13916 0.42253
# Poissons Ratio (y) = 0.25353 0.35463
# Poissons Ratio (z) = 0.27246 0.12552
#
# Static dielectric constant tensor:
#      x y z
#    x 3.543440 0.000000 0.000000 
#    y 0.000000 3.009070 0.000000 
#    z 0.000000 0.000000 3.633660 
# 
# 
# High freq. dielectric constant tensor:
#      x y z
#    x 1.695820 0.000000 0.000000 
#    y 0.000000 1.645300 0.000000 
#    z 0.000000 0.000000 1.716960 
# 
# From -- ./inp_files/8948.got.cif
#   From: 2010.03.12/outbox.cif.g09.slc.cpg/sg66_5_cif.got.tgz:8948.got - 2010.04.10 21:57:39.
