data_PCOD8277789
_publ_section_title
;
Structure prediction by ZEFSAII (Michael W. Deem and Ramdas Pophale) SiO2 
 PCOD8277789
Probable space group: C C C M
;
_chemical_formula_sum "Si O2"
_cell_formula_units_Z 96
_cell_length_a 30.455039
_cell_length_b 9.373879
_cell_length_c 19.163466
_cell_angle_alpha 90.000000
_cell_angle_beta 90.000000
_cell_angle_gamma 90.000000
_cell_volume 5470.821736
_symmetry_space_group_name_H-M "C C C M"
_symmetry_group_IT_number 66
_symmetry_cell_setting 'orthorhombic'
loop_
_space_group_symop_operation_xyz
x,y,z
-x,-y,z
x,-y,1/2-z
-x,y,1/2-z
-x,-y,-z
x,y,-z
-x,y,1/2+z
x,-y,1/2+z
1/2+x,1/2+y,z
1/2-x,1/2-y,z
1/2+x,1/2-y,1/2-z
1/2-x,1/2+y,1/2-z
1/2-x,1/2-y,-z
1/2+x,1/2+y,-z
1/2-x,1/2+y,1/2+z
1/2+x,1/2-y,1/2+z
loop_
_atom_site_type_symbol
_atom_site_label
_atom_site_fract_x
_atom_site_fract_y
_atom_site_fract_z
Si Si1 0.548793 0.989335 0.082657
Si Si2 0.861720 0.011714 0.169171
Si Si3 0.312411 0.985031 0.921090
Si Si4 0.120093 0.731176 0.581952
Si Si5 0.761187 0.085119 0.181607
Si Si6 0.886992 0.733516 0.419059
O O1 0.573446 0.841908 0.102776
O O2 0.500000 0.000000 0.115427
O O3 0.575952 0.125642 0.108967
O O4 0.546988 0.997835 0.000000
O O5 0.811386 0.058074 0.161547
O O6 0.891044 0.129208 0.130097
O O7 0.875631 0.000000 0.250000
O O8 0.871485 0.864164 0.131155
O O9 0.341705 0.119783 0.899945
O O10 0.267678 0.982294 0.879084
O O11 0.339563 0.839681 0.909842
O O12 0.297229 0.999627 0.000000
O O13 0.120674 0.773548 0.500000
O O14 0.750000 0.250000 0.193372
O O15 0.747738 0.000000 0.250000
O O16 0.894412 0.776302 0.500000
#
# Coordination Sequence:
#
# PCOD8277789 Si02
#       6
#    16  16  16  16  16  16
#     4   8  15  32  60  87 105 128 169 216 262 316
#     4  11  23  35  50  75 106 144 180 214 261 306
#     4   9  19  34  54  76 101 136 175 217 266 311
#     4   9  19  35  55  80 108 135 169 218 265 312
#     4  11  24  37  52  73 105 142 185 227 258 304
#     4   9  17  33  55  79 105 134 170 214 263 314
#
# _framework density 17.547639
#
# number of rings (size 3 to 8) (size 9 to 14) (size 15 to 20)
#    0.000    2.500    1.667    2.500    4.667    1.667 
#    0.000    5.000    0.000    7.000    0.000    0.000 
#    0.000    0.000    0.000    0.000    0.000    0.000 
#
# Total GULP energy -595058.837013 kJ/mol
# GULP energy per Si atom -12397.059104 kJ/mol
# Density = 1.750770 g / cm^3
# Si number density = 17.547639 Si / 1000 Ang^3
#
#
#
# Elastic Constant Matrix: (Units=GPa)
#
#
# Indices 1 2 3 4 5 6 
#
# 1 81.7338 45.7922 38.8476 0.0000 0.0000 0.0000
# 2 45.7922 138.5926 69.0366 0.0000 0.0000 0.0000
# 3 38.8476 69.0366 81.0314 0.0000 0.0000 0.0000
# 4 0.0000 0.0000 0.0000 28.8394 0.0000 0.0000
# 5 0.0000 0.0000 0.0000 0.0000 -144.8949 0.0000
# 6 0.0000 0.0000 0.0000 0.0000 0.0000 51.1808
#
#
#
# Elastic Compliance Matrix: (Units=1/GPa)
#
#
# Indices 1 2 3 4 5 6 
#
# 1 0.016369 -0.002605 -0.005628 0.000000 0.000000 0.000000
# 2 -0.002605 0.012950 -0.009784 0.000000 0.000000 0.000000
# 3 -0.005628 -0.009784 0.023375 0.000000 0.000000 0.000000
# 4 0.000000 0.000000 0.000000 0.034675 0.000000 0.000000
# 5 0.000000 0.000000 0.000000 0.000000 -0.006902 0.000000
# 6 0.000000 0.000000 0.000000 0.000000 0.000000 0.019539
#
#
# Mechanical properties :
#
#
# Convention : Reuss Voigt Hill
#
# Bulk Modulus (GPa) = 60.02603 67.63452 63.83028
# Shear Modulus (GPa) = 35.31227 -3.12954 16.09136
#
# Velocity S-wave (km/s) = 4.49081 -1.33691 3.03150
# Velocity P-wave (km/s) = 7.82122 6.02029 6.97909
#
# Compressibility (1/GPa) = 0.01665944
#
# Stress axis : x y z
#
# Youngs Moduli (GPa) = 61.08948 77.22150 42.78085
#
# Poissons Ratio (x) = 0.20116 0.24079
# Poissons Ratio (y) = 0.15914 0.41857
# Poissons Ratio (z) = 0.34384 0.75554
#
# Static dielectric constant tensor:
#      x y z
#    x 3.472690 0.000000 0.000000 
#    y 0.000000 3.268310 0.000000 
#    z 0.000000 0.000000 3.110740 
# 
# 
# High freq. dielectric constant tensor:
#      x y z
#    x 1.667250 0.000000 0.000000 
#    y 0.000000 1.684760 0.000000 
#    z 0.000000 0.000000 1.663430 
# 
# From -- ./inp_files/47278.got.cif
#   From: 2010.03.12/outbox.cif.g09.slc.cpg/sg66_24_cif.got.tgz:47278.got - 2010.04.10 21:57:39.
