data_PCOD8277378
_publ_section_title
;
Structure prediction by ZEFSAII (Michael W. Deem and Ramdas Pophale) SiO2 
 PCOD8277378
Probable space group: C C C M
;
_chemical_formula_sum "Si O2"
_cell_formula_units_Z 88
_cell_length_a 16.603611
_cell_length_b 15.415279
_cell_length_c 15.635283
_cell_angle_alpha 90.000000
_cell_angle_beta 90.000000
_cell_angle_gamma 90.000000
_cell_volume 4001.839676
_symmetry_space_group_name_H-M "C C C M"
_symmetry_group_IT_number 66
_symmetry_cell_setting 'orthorhombic'
loop_
_space_group_symop_operation_xyz
x,y,z
-x,-y,z
x,-y,1/2-z
-x,y,1/2-z
-x,-y,-z
x,y,-z
-x,y,1/2+z
x,-y,1/2+z
1/2+x,1/2+y,z
1/2-x,1/2-y,z
1/2+x,1/2-y,1/2-z
1/2-x,1/2+y,1/2-z
1/2-x,1/2-y,-z
1/2+x,1/2+y,-z
1/2-x,1/2+y,1/2+z
1/2+x,1/2-y,1/2+z
loop_
_atom_site_type_symbol
_atom_site_label
_atom_site_fract_x
_atom_site_fract_y
_atom_site_fract_z
Si Si1 0.769960 0.006523 0.000000
Si Si2 0.666741 0.696855 0.500000
Si Si3 0.903234 0.712151 0.657937
Si Si4 0.344141 0.763961 0.334482
Si Si5 0.951077 0.599268 0.899244
Si Si6 0.327401 0.683023 0.500000
Si Si7 0.840648 0.532680 0.342688
O O1 0.717390 0.999391 0.084472
O O2 0.820784 0.919693 0.000000
O O3 0.822828 0.093639 0.000000
O O4 0.750000 0.750000 0.500000
O O5 0.613023 0.720850 0.582233
O O6 0.894536 0.760606 0.749050
O O7 0.835439 0.636761 0.656502
O O8 0.987497 0.661248 0.650885
O O9 0.250000 0.750000 0.316068
O O10 0.363904 0.861791 0.367937
O O11 0.375724 0.703258 0.412551
O O12 0.933796 0.498460 0.868740
O O13 0.967422 0.603341 0.000000
O O14 0.250000 0.750000 0.500000
O O15 0.813484 0.500000 0.250000
#
# Coordination Sequence:
#
# PCOD8277378 Si02
#       7
#     8   8  16  16  16   8  16
#     4  12  26  43  67 101 142 186 240 296 351 420
#     4  12  24  44  63  94 140 193 236 277 348 431
#     4  12  25  41  64  97 145 190 225 282 350 439
#     4  11  23  40  66  95 132 174 232 291 347 411
#     4  12  24  42  66 100 138 188 233 284 356 424
#     4  10  22  41  68  97 126 172 232 301 356 401
#     4  12  24  37  64 100 146 188 230 280 350 436
#
# _framework density 21.989885999999998
#
# number of rings (size 3 to 8) (size 9 to 14) (size 15 to 20)
#    0.000    0.364    6.364    3.818    0.000    1.455 
#    0.000    0.000    0.000    2.182    0.000    2.545 
#    0.000    0.000    0.000    0.000    0.000    0.000 
#
# Total GULP energy -545268.447854 kJ/mol
# GULP energy per Si atom -12392.464724 kJ/mol
# Density = 2.193984 g / cm^3
# Si number density = 21.989886 Si / 1000 Ang^3
#
#
#
# Elastic Constant Matrix: (Units=GPa)
#
#
# Indices 1 2 3 4 5 6 
#
# 1 54.2294 25.2600 38.8137 0.0000 0.0000 0.0000
# 2 25.2600 118.8824 59.5916 0.0000 0.0000 0.0000
# 3 38.8137 59.5916 233.9452 0.0000 0.0000 0.0000
# 4 0.0000 0.0000 0.0000 20.4898 0.0000 0.0000
# 5 0.0000 0.0000 0.0000 0.0000 -63.0754 0.0000
# 6 0.0000 0.0000 0.0000 0.0000 0.0000 28.8376
#
#
#
# Elastic Compliance Matrix: (Units=1/GPa)
#
#
# Indices 1 2 3 4 5 6 
#
# 1 0.021973 -0.003257 -0.002816 0.000000 0.000000 0.000000
# 2 -0.003257 0.010126 -0.002039 0.000000 0.000000 0.000000
# 3 -0.002816 -0.002039 0.005261 0.000000 0.000000 0.000000
# 4 0.000000 0.000000 0.000000 0.048805 0.000000 0.000000
# 5 0.000000 0.000000 0.000000 0.000000 -0.015854 0.000000
# 6 0.000000 0.000000 0.000000 0.000000 0.000000 0.034677
#
#
# Mechanical properties :
#
#
# Convention : Reuss Voigt Hill
#
# Bulk Modulus (GPa) = 47.31337 72.70975 60.01156
# Shear Modulus (GPa) = 38.98442 16.14318 27.56380
#
# Velocity S-wave (km/s) = 4.21507 2.71240 3.54429
# Velocity P-wave (km/s) = 6.72694 6.55335 6.64071
#
# Compressibility (1/GPa) = 0.02113568
#
# Stress axis : x y z
#
# Youngs Moduli (GPa) = 45.51092 98.75765 190.07723
#
# Poissons Ratio (x) = 0.32168 0.53521
# Poissons Ratio (y) = 0.14824 0.38754
# Poissons Ratio (z) = 0.12815 0.20135
#
# Static dielectric constant tensor:
#      x y z
#    x 3.839960 0.000000 0.000000 
#    y 0.000000 4.157430 0.000000 
#    z 0.000000 0.000000 4.402830 
# 
# 
# High freq. dielectric constant tensor:
#      x y z
#    x 1.831190 0.000000 0.000000 
#    y 0.000000 1.854760 0.000000 
#    z 0.000000 0.000000 1.896900 
# 
# From -- ./inp_files/31118.got.cif
#   From: 2010.03.12/outbox.cif.g09.slc.cpg/sg66_16_cif.got.tgz:31118.got - 2010.04.10 21:57:39.
