data_PCOD8277565
_publ_section_title
;
Structure prediction by ZEFSAII (Michael W. Deem and Ramdas Pophale) SiO2 
 PCOD8277565
Probable space group: C C C M
;
_chemical_formula_sum "Si O2"
_cell_formula_units_Z 96
_cell_length_a 25.108190
_cell_length_b 25.544878
_cell_length_c 9.925036
_cell_angle_alpha 90.000000
_cell_angle_beta 90.000000
_cell_angle_gamma 90.000000
_cell_volume 6365.775670
_symmetry_space_group_name_H-M "C C C M"
_symmetry_group_IT_number 66
_symmetry_cell_setting 'orthorhombic'
loop_
_space_group_symop_operation_xyz
x,y,z
-x,-y,z
x,-y,1/2-z
-x,y,1/2-z
-x,-y,-z
x,y,-z
-x,y,1/2+z
x,-y,1/2+z
1/2+x,1/2+y,z
1/2-x,1/2-y,z
1/2+x,1/2-y,1/2-z
1/2-x,1/2+y,1/2-z
1/2-x,1/2-y,-z
1/2+x,1/2+y,-z
1/2-x,1/2+y,1/2+z
1/2+x,1/2-y,1/2+z
loop_
_atom_site_type_symbol
_atom_site_label
_atom_site_fract_x
_atom_site_fract_y
_atom_site_fract_z
Si Si1 0.932576 0.907509 0.000000
Si Si2 0.052174 0.219950 0.500000
Si Si3 0.794666 0.145804 0.844786
Si Si4 0.449381 0.406764 0.500000
Si Si5 0.934226 0.211055 0.500000
Si Si6 0.284388 0.802486 0.345913
Si Si7 0.625430 0.439925 0.765458
Si Si8 0.873003 0.237678 0.234048
O O1 0.895978 0.919725 0.874888
O O2 0.950887 0.848343 0.000000
O O3 0.991516 0.932690 0.000000
O O4 0.056935 0.156512 0.500000
O O5 0.079556 0.246805 0.370846
O O6 0.991143 0.240528 0.500000
O O7 0.745641 0.153311 0.741369
O O8 0.821662 0.090564 0.810584
O O9 0.836843 0.192000 0.826569
O O10 0.774690 0.146054 0.000000
O O11 0.421672 0.431227 0.629589
O O12 0.898042 0.221682 0.373640
O O13 0.294630 0.822208 0.500000
O O14 0.250000 0.750000 0.351990
O O15 0.338914 0.790016 0.264922
O O16 0.641738 0.500000 0.750000
#
# Coordination Sequence:
#
# PCOD8277565 Si02
#       8
#     8   8  16   8   8  16  16  16
#     4  11  23  32  54  62  81 125 161 201 247 281
#     4  11  20  31  50  68  94 126 155 190 234 280
#     4  11  21  35  48  67  89 113 152 198 238 290
#     4  11  21  40  44  64  89 117 165 205 239 281
#     4  11  20  31  48  70  92 124 157 192 236 272
#     4   9  20  31  50  70  88 111 144 188 237 278
#     4  12  23  35  49  65  88 117 152 204 252 284
#     4  11  18  33  49  67  93 117 150 193 228 276
#
# _framework density 15.080645000000001
#
# number of rings (size 3 to 8) (size 9 to 14) (size 15 to 20)
#    0.000    1.167    5.833    1.500    3.500    5.667 
#    0.000    0.000    0.000    0.000    0.000    0.000 
#    0.000    0.000    0.000    0.000    0.000    5.000 
#
# Total GULP energy -595021.580491 kJ/mol
# GULP energy per Si atom -12396.282927 kJ/mol
# Density = 1.504632 g / cm^3
# Si number density = 15.080645 Si / 1000 Ang^3
#
#
#
# Elastic Constant Matrix: (Units=GPa)
#
#
# Indices 1 2 3 4 5 6 
#
# 1 47.7915 35.5203 23.5190 0.0000 0.0000 0.0000
# 2 35.5203 37.5128 24.5090 0.0000 0.0000 0.0000
# 3 23.5190 24.5090 120.3935 0.0000 0.0000 0.0000
# 4 0.0000 0.0000 0.0000 18.7628 0.0000 0.0000
# 5 0.0000 0.0000 0.0000 0.0000 42.1952 0.0000
# 6 0.0000 0.0000 0.0000 0.0000 0.0000 18.3948
#
#
#
# Elastic Compliance Matrix: (Units=1/GPa)
#
#
# Indices 1 2 3 4 5 6 
#
# 1 0.070637 -0.066747 -0.000211 0.000000 0.000000 0.000000
# 2 -0.066747 0.093819 -0.006060 0.000000 0.000000 0.000000
# 3 -0.000211 -0.006060 0.009581 0.000000 0.000000 0.000000
# 4 0.000000 0.000000 0.000000 0.053297 0.000000 0.000000
# 5 0.000000 0.000000 0.000000 0.000000 0.023699 0.000000
# 6 0.000000 0.000000 0.000000 0.000000 0.000000 0.054363
#
#
# Mechanical properties :
#
#
# Convention : Reuss Voigt Hill
#
# Bulk Modulus (GPa) = 35.71381 41.42161 38.56771
# Shear Modulus (GPa) = 10.85151 24.01387 17.43269
#
# Velocity S-wave (km/s) = 2.68538 3.99477 3.40364
# Velocity P-wave (km/s) = 5.77480 6.98598 6.40907
#
# Compressibility (1/GPa) = 0.02800037
#
# Stress axis : x y z
#
# Youngs Moduli (GPa) = 14.15692 10.65887 104.37370
#
# Poissons Ratio (x) = 0.71145 0.02203
# Poissons Ratio (y) = 0.94493 0.63249
# Poissons Ratio (z) = 0.00299 0.06459
#
# Static dielectric constant tensor:
#      x y z
#    x 3.015600 0.000000 0.000000 
#    y 0.000000 2.674790 0.000000 
#    z 0.000000 0.000000 3.020630 
# 
# 
# High freq. dielectric constant tensor:
#      x y z
#    x 1.568070 0.000000 0.000000 
#    y 0.000000 1.521790 0.000000 
#    z 0.000000 0.000000 1.606040 
# 
# From -- ./inp_files/9194.got.cif
#   From: 2010.03.12/outbox.cif.g09.slc.cpg/sg66_5_cif.got.tgz:9194.got - 2010.04.10 21:57:39.
