data_PCOD8277332
_publ_section_title
;
Structure prediction by ZEFSAII (Michael W. Deem and Ramdas Pophale) SiO2 
 PCOD8277332
Probable space group: C C C M
;
_chemical_formula_sum "Si O2"
_cell_formula_units_Z 80
_cell_length_a 28.684906
_cell_length_b 9.116156
_cell_length_c 16.590638
_cell_angle_alpha 90.000000
_cell_angle_beta 90.000000
_cell_angle_gamma 90.000000
_cell_volume 4338.386768
_symmetry_space_group_name_H-M "C C C M"
_symmetry_group_IT_number 66
_symmetry_cell_setting 'orthorhombic'
loop_
_space_group_symop_operation_xyz
x,y,z
-x,-y,z
x,-y,1/2-z
-x,y,1/2-z
-x,-y,-z
x,y,-z
-x,y,1/2+z
x,-y,1/2+z
1/2+x,1/2+y,z
1/2-x,1/2-y,z
1/2+x,1/2-y,1/2-z
1/2-x,1/2+y,1/2-z
1/2-x,1/2-y,-z
1/2+x,1/2+y,-z
1/2-x,1/2+y,1/2+z
1/2+x,1/2-y,1/2+z
loop_
_atom_site_type_symbol
_atom_site_label
_atom_site_fract_x
_atom_site_fract_y
_atom_site_fract_z
Si Si1 0.945417 0.166032 0.263752
Si Si2 0.884939 0.396143 0.824185
Si Si3 0.602208 0.181435 0.594092
Si Si4 0.206115 0.674696 0.408859
Si Si5 0.205345 0.333820 0.408559
O O1 0.922986 0.275936 0.199216
O O2 0.932716 0.217440 0.354509
O O3 0.000000 0.176228 0.250000
O O4 0.927643 0.000000 0.250000
O O5 0.870100 0.500000 0.750000
O O6 0.906182 0.506235 0.892206
O O7 0.840551 0.303834 0.855592
O O8 0.594935 0.216758 0.500000
O O9 0.655091 0.214540 0.626379
O O10 0.204817 0.733243 0.500000
O O11 0.250000 0.750000 0.362644
O O12 0.216404 0.504137 0.405599
O O13 0.196067 0.279832 0.500000
O O14 0.250000 0.250000 0.371648
#
# Coordination Sequence:
#
# PCOD8277332 Si02
#       5
#    16  16  16  16  16
#     4  10  22  40  56  75 107 140 169 215 278 327
#     4   9  18  34  54  75 102 138 175 216 262 311
#     4   9  18  35  58  82 106 136 180 221 253 305
#     4   8  14  26  46  73 103 133 165 205 251 296
#     4   9  17  30  48  73 105 136 170 211 251 297
#
# _framework density 18.440034000000001
#
# number of rings (size 3 to 8) (size 9 to 14) (size 15 to 20)
#    0.000    3.000    0.000    1.800    0.000    5.200 
#    0.000   19.000    0.000    0.000    0.000    0.000 
#    0.000    0.000    0.000    0.000    0.000    0.000 
#
# Total GULP energy -495675.040559 kJ/mol
# GULP energy per Si atom -12391.876014 kJ/mol
# Density = 1.839806 g / cm^3
# Si number density = 18.440034 Si / 1000 Ang^3
#
#
#
# Elastic Constant Matrix: (Units=GPa)
#
#
# Indices 1 2 3 4 5 6 
#
# 1 106.0111 60.7202 48.7799 0.0000 0.0000 0.0000
# 2 60.7202 80.7068 39.2821 0.0000 0.0000 0.0000
# 3 48.7799 39.2821 72.6679 0.0000 0.0000 0.0000
# 4 0.0000 0.0000 0.0000 18.7934 0.0000 0.0000
# 5 0.0000 0.0000 0.0000 0.0000 28.1547 0.0000
# 6 0.0000 0.0000 0.0000 0.0000 0.0000 38.2553
#
#
#
# Elastic Compliance Matrix: (Units=1/GPa)
#
#
# Indices 1 2 3 4 5 6 
#
# 1 0.018718 -0.010811 -0.006720 0.000000 0.000000 0.000000
# 2 -0.010811 0.023059 -0.005208 0.000000 0.000000 0.000000
# 3 -0.006720 -0.005208 0.021088 0.000000 0.000000 0.000000
# 4 0.000000 0.000000 0.000000 0.053210 0.000000 0.000000
# 5 0.000000 0.000000 0.000000 0.000000 0.035518 0.000000
# 6 0.000000 0.000000 0.000000 0.000000 0.000000 0.026140
#
#
# Mechanical properties :
#
#
# Convention : Reuss Voigt Hill
#
# Bulk Modulus (GPa) = 57.51909 61.88337 59.70123
# Shear Modulus (GPa) = 21.83335 24.41425 23.12380
#
# Velocity S-wave (km/s) = 3.44469 3.64260 3.54503
# Velocity P-wave (km/s) = 6.86159 7.16404 7.01445
#
# Compressibility (1/GPa) = 0.01738553
#
# Stress axis : x y z
#
# Youngs Moduli (GPa) = 53.42517 43.36632 47.42122
#
# Poissons Ratio (x) = 0.46885 0.31869
# Poissons Ratio (y) = 0.57760 0.24696
# Poissons Ratio (z) = 0.35904 0.22584
#
# Static dielectric constant tensor:
#      x y z
#    x 3.429250 0.000000 0.000000 
#    y 0.000000 3.469680 0.000000 
#    z 0.000000 0.000000 3.393140 
# 
# 
# High freq. dielectric constant tensor:
#      x y z
#    x 1.711830 0.000000 0.000000 
#    y 0.000000 1.704070 0.000000 
#    z 0.000000 0.000000 1.701790 
# 
# From -- ./inp_files/44072.got.cif
#   From: 2010.03.12/outbox.cif.g09.slc.cpg/sg66_23_cif.got.tgz:44072.got - 2010.04.10 21:57:39.
