data_PCOD8277734
_publ_section_title
;
Structure prediction by ZEFSAII (Michael W. Deem and Ramdas Pophale) SiO2 
 PCOD8277734
Probable space group: C C C M
;
_chemical_formula_sum "Si O2"
_cell_formula_units_Z 72
_cell_length_a 12.732192
_cell_length_b 31.525795
_cell_length_c 9.118273
_cell_angle_alpha 90.000000
_cell_angle_beta 90.000000
_cell_angle_gamma 90.000000
_cell_volume 3660.006166
_symmetry_space_group_name_H-M "C C C M"
_symmetry_group_IT_number 66
_symmetry_cell_setting 'orthorhombic'
loop_
_space_group_symop_operation_xyz
x,y,z
-x,-y,z
x,-y,1/2-z
-x,y,1/2-z
-x,-y,-z
x,y,-z
-x,y,1/2+z
x,-y,1/2+z
1/2+x,1/2+y,z
1/2-x,1/2-y,z
1/2+x,1/2-y,1/2-z
1/2-x,1/2+y,1/2-z
1/2-x,1/2-y,-z
1/2+x,1/2+y,-z
1/2-x,1/2+y,1/2+z
1/2+x,1/2-y,1/2+z
loop_
_atom_site_type_symbol
_atom_site_label
_atom_site_fract_x
_atom_site_fract_y
_atom_site_fract_z
Si Si1 0.902498 0.336848 0.670141
Si Si2 0.685230 0.621441 0.165818
Si Si3 0.130439 0.256538 0.660244
Si Si4 0.500000 0.680764 0.250000
Si Si5 0.112875 0.041711 0.676022
O O1 0.919608 0.342310 0.500000
O O2 0.788734 0.353685 0.719123
O O3 0.912900 0.287287 0.713268
O O4 0.000000 0.361152 0.750000
O O5 0.581783 0.651007 0.163348
O O6 0.678940 0.582979 0.280851
O O7 0.699114 0.604199 0.000000
O O8 0.121651 0.278500 0.500000
O O9 0.250000 0.250000 0.703481
O O10 0.069433 0.211699 0.648618
O O11 0.104602 0.037310 0.500000
O O12 0.000000 0.047425 0.750000
O O13 0.165810 0.000000 0.750000
#
# Coordination Sequence:
#
# PCOD8277734 Si02
#       5
#    16  16  16   8  16
#     4  11  24  41  60  83 115 159 209 257 304 358
#     4  11  24  40  60  90 125 159 201 250 306 363
#     4  11  23  37  54  81 116 158 204 250 301 359
#     4  12  22  36  59  88 122 160 201 254 308 358
#     4  11  22  38  63  93 128 162 195 237 297 364
#
# _framework density 19.672098999999999
#
# number of rings (size 3 to 8) (size 9 to 14) (size 15 to 20)
#    0.000    0.889    4.444    4.000    0.000    4.000 
#    0.000    0.000    0.000    0.667    0.000    4.667 
#    0.000    0.000    0.000    0.000    0.000    0.000 
#
# Total GULP energy -446149.626347 kJ/mol
# GULP energy per Si atom -12393.045176 kJ/mol
# Density = 1.962732 g / cm^3
# Si number density = 19.672099 Si / 1000 Ang^3
#
#
#
# Elastic Constant Matrix: (Units=GPa)
#
#
# Indices 1 2 3 4 5 6 
#
# 1 141.3924 47.6606 42.0369 0.0000 0.0000 0.0000
# 2 47.6606 115.7166 46.1722 0.0000 0.0000 0.0000
# 3 42.0369 46.1722 125.8849 0.0000 0.0000 0.0000
# 4 0.0000 0.0000 0.0000 28.5134 0.0000 0.0000
# 5 0.0000 0.0000 0.0000 0.0000 25.6583 0.0000
# 6 0.0000 0.0000 0.0000 0.0000 0.0000 15.3450
#
#
#
# Elastic Compliance Matrix: (Units=1/GPa)
#
#
# Indices 1 2 3 4 5 6 
#
# 1 0.008559 -0.002794 -0.001834 0.000000 0.000000 0.000000
# 2 -0.002794 0.011035 -0.003115 0.000000 0.000000 0.000000
# 3 -0.001834 -0.003115 0.009698 0.000000 0.000000 0.000000
# 4 0.000000 0.000000 0.000000 0.035071 0.000000 0.000000
# 5 0.000000 0.000000 0.000000 0.000000 0.038974 0.000000
# 6 0.000000 0.000000 0.000000 0.000000 0.000000 0.065168
#
#
# Mechanical properties :
#
#
# Convention : Reuss Voigt Hill
#
# Bulk Modulus (GPa) = 72.41538 72.74813 72.58176
# Shear Modulus (GPa) = 26.51214 30.37827 28.44520
#
# Velocity S-wave (km/s) = 3.67509 3.93393 3.80671
# Velocity P-wave (km/s) = 7.40942 7.59573 7.50315
#
# Compressibility (1/GPa) = 0.01380922
#
# Stress axis : x y z
#
# Youngs Moduli (GPa) = 116.83108 90.61880 103.10967
#
# Poissons Ratio (x) = 0.25317 0.18906
# Poissons Ratio (y) = 0.32640 0.32114
# Poissons Ratio (z) = 0.21421 0.28224
#
# Static dielectric constant tensor:
#      x y z
#    x 3.880350 0.000000 0.000000 
#    y 0.000000 3.684200 0.000000 
#    z 0.000000 0.000000 3.466650 
# 
# 
# High freq. dielectric constant tensor:
#      x y z
#    x 1.773950 0.000000 0.000000 
#    y 0.000000 1.744540 0.000000 
#    z 0.000000 0.000000 1.771000 
# 
# From -- ./inp_files/5538.got.cif
#   From: 2010.03.12/outbox.cif.g09.slc.cpg/sg66_3_cif.got.tgz:5538.got - 2010.04.10 21:57:39.
