data_PCOD8277884
_publ_section_title
;
Structure prediction by ZEFSAII (Michael W. Deem and Ramdas Pophale) SiO2 
 PCOD8277884
Probable space group: C C C M
;
_chemical_formula_sum "Si O2"
_cell_formula_units_Z 40
_cell_length_a 13.704309
_cell_length_b 6.250321
_cell_length_c 19.861388
_cell_angle_alpha 90.000000
_cell_angle_beta 90.000000
_cell_angle_gamma 90.000000
_cell_volume 1701.253611
_symmetry_space_group_name_H-M "C C C M"
_symmetry_group_IT_number 66
_symmetry_cell_setting 'orthorhombic'
loop_
_space_group_symop_operation_xyz
x,y,z
-x,-y,z
x,-y,1/2-z
-x,y,1/2-z
-x,-y,-z
x,y,-z
-x,y,1/2+z
x,-y,1/2+z
1/2+x,1/2+y,z
1/2-x,1/2-y,z
1/2+x,1/2-y,1/2-z
1/2-x,1/2+y,1/2-z
1/2-x,1/2-y,-z
1/2+x,1/2+y,-z
1/2-x,1/2+y,1/2+z
1/2+x,1/2-y,1/2+z
loop_
_atom_site_type_symbol
_atom_site_label
_atom_site_fract_x
_atom_site_fract_y
_atom_site_fract_z
Si Si1 0.641925 0.660666 0.310141
Si Si2 0.500000 0.000000 0.645222
Si Si3 0.641751 0.327170 0.577653
O O1 0.617422 0.500000 0.250000
O O2 0.750000 0.750000 0.302319
O O3 0.566994 0.856662 0.306057
O O4 0.623274 0.543502 0.380970
O O5 0.567656 0.140927 0.596893
O O6 0.628866 0.388402 0.500000
O O7 0.750000 0.250000 0.594844
#
# Coordination Sequence:
#
# PCOD8277884 Si02
#       3
#    16   8  16
#     4  12  28  51  76 108 151 193 249 309 366 438
#     4  12  27  49  76 108 145 203 242 306 367 441
#     4  11  25  48  78 113 151 194 243 302 367 439
#
# _framework density 23.512073999999998
#
# number of rings (size 3 to 8) (size 9 to 14) (size 15 to 20)
#    0.000    0.400    4.000    3.000    0.000   10.400 
#    0.000    0.000    0.000    0.000    0.000    0.000 
#    0.000    0.000    0.000    0.000    0.000    0.000 
#
# Total GULP energy -248194.947933 kJ/mol
# GULP energy per Si atom -12409.747397 kJ/mol
# Density = 2.345856 g / cm^3
# Si number density = 23.512074 Si / 1000 Ang^3
#
#
#
# Elastic Constant Matrix: (Units=GPa)
#
#
# Indices 1 2 3 4 5 6 
#
# 1 174.8408 78.8261 53.3829 0.0000 0.0000 0.0000
# 2 78.8261 140.1426 71.4793 0.0000 0.0000 0.0000
# 3 53.3829 71.4793 136.7381 0.0000 0.0000 0.0000
# 4 0.0000 0.0000 0.0000 34.9978 0.0000 0.0000
# 5 0.0000 0.0000 0.0000 0.0000 17.0389 0.0000
# 6 0.0000 0.0000 0.0000 0.0000 0.0000 66.6598
#
#
#
# Elastic Compliance Matrix: (Units=1/GPa)
#
#
# Indices 1 2 3 4 5 6 
#
# 1 0.007766 -0.003847 -0.001020 0.000000 0.000000 0.000000
# 2 -0.003847 0.011636 -0.004581 0.000000 0.000000 0.000000
# 3 -0.001020 -0.004581 0.010106 0.000000 0.000000 0.000000
# 4 0.000000 0.000000 0.000000 0.028573 0.000000 0.000000
# 5 0.000000 0.000000 0.000000 0.000000 0.058689 0.000000
# 6 0.000000 0.000000 0.000000 0.000000 0.000000 0.015002
#
#
# Mechanical properties :
#
#
# Convention : Reuss Voigt Hill
#
# Bulk Modulus (GPa) = 94.24459 95.45533 94.84996
# Shear Modulus (GPa) = 32.42422 40.27486 36.34954
#
# Velocity S-wave (km/s) = 3.71758 4.14326 3.93618
# Velocity P-wave (km/s) = 7.65491 7.97342 7.81579
#
# Compressibility (1/GPa) = 0.01061069
#
# Stress axis : x y z
#
# Youngs Moduli (GPa) = 128.77177 85.94021 98.94972
#
# Poissons Ratio (x) = 0.33065 0.10098
# Poissons Ratio (y) = 0.49544 0.45325
# Poissons Ratio (z) = 0.13141 0.39366
#
# Static dielectric constant tensor:
#      x y z
#    x 4.588810 0.000000 0.000000 
#    y 0.000000 4.437710 0.000000 
#    z 0.000000 0.000000 4.107620 
# 
# 
# High freq. dielectric constant tensor:
#      x y z
#    x 1.961240 0.000000 0.000000 
#    y 0.000000 1.943660 0.000000 
#    z 0.000000 0.000000 1.934670 
# 
# From -- ./inp_files/53636.got.cif
#   From: 2010.03.12/outbox.cif.g09.slc.cpg/sg66_27_cif.got.tgz:53636.got - 2010.04.10 21:57:39.
