data_PCOD8277108
_publ_section_title
;
Structure prediction by ZEFSAII (Michael W. Deem and Ramdas Pophale) SiO2 
 PCOD8277108
Probable space group: C C C M
;
_chemical_formula_sum "Si O2"
_cell_formula_units_Z 104
_cell_length_a 18.937280
_cell_length_b 9.272737
_cell_length_c 29.860646
_cell_angle_alpha 90.000000
_cell_angle_beta 90.000000
_cell_angle_gamma 90.000000
_cell_volume 5243.541888
_symmetry_space_group_name_H-M "C C C M"
_symmetry_group_IT_number 66
_symmetry_cell_setting 'orthorhombic'
loop_
_space_group_symop_operation_xyz
x,y,z
-x,-y,z
x,-y,1/2-z
-x,y,1/2-z
-x,-y,-z
x,y,-z
-x,y,1/2+z
x,-y,1/2+z
1/2+x,1/2+y,z
1/2-x,1/2-y,z
1/2+x,1/2-y,1/2-z
1/2-x,1/2+y,1/2-z
1/2-x,1/2-y,-z
1/2+x,1/2+y,-z
1/2-x,1/2+y,1/2+z
1/2+x,1/2-y,1/2+z
loop_
_atom_site_type_symbol
_atom_site_label
_atom_site_fract_x
_atom_site_fract_y
_atom_site_fract_z
Si Si1 0.165998 0.758295 0.449073
Si Si2 0.250000 0.750000 0.683305
Si Si3 0.458050 0.275524 0.175963
Si Si4 0.578832 0.036005 0.393403
Si Si5 0.618910 0.242748 0.155957
Si Si6 0.630120 0.161184 0.252231
Si Si7 0.149381 0.953164 0.629478
O O1 0.141297 0.778954 0.500000
O O2 0.250000 0.750000 0.445490
O O3 0.127543 0.614154 0.430398
O O4 0.141098 0.899547 0.421666
O O5 0.304290 0.834136 0.714275
O O6 0.215023 0.870696 0.651927
O O7 0.427169 0.136124 0.150063
O O8 0.540530 0.286882 0.170395
O O9 0.433804 0.258535 0.227787
O O10 0.422744 0.418966 0.155965
O O11 0.500000 0.000000 0.412422
O O12 0.619112 0.890495 0.378404
O O13 0.656638 0.211409 0.203269
O O14 0.659334 0.374288 0.131356
O O15 0.600393 0.000000 0.250000
#
# Coordination Sequence:
#
# PCOD8277108 Si02
#       7
#    16   8  16  16  16  16  16
#     4  10  21  41  67  87 113 157 196 236 307 386
#     4  10  24  38  51  76 124 158 203 234 292 346
#     4   9  19  36  56  81 120 160 201 239 292 345
#     4   9  19  37  60  90 121 153 194 246 301 353
#     4  11  21  34  60  89 113 156 203 251 289 333
#     4  11  22  34  53  81 120 164 201 245 281 340
#     4  10  21  39  59  84 118 156 195 245 298 358
#
# _framework density 19.833922999999999
#
# number of rings (size 3 to 8) (size 9 to 14) (size 15 to 20)
#    0.000    2.000    2.308    0.923    2.154    2.769 
#    0.000    3.846    0.000   13.846    0.000    0.000 
#    0.000    0.000    0.000    0.000    0.000    0.000 
#
# Total GULP energy -644672.490862 kJ/mol
# GULP energy per Si atom -12397.547901 kJ/mol
# Density = 1.978878 g / cm^3
# Si number density = 19.833923 Si / 1000 Ang^3
#
#
#
# Elastic Constant Matrix: (Units=GPa)
#
#
# Indices 1 2 3 4 5 6 
#
# 1 66.1386 18.4397 30.6418 0.0000 0.0000 0.0000
# 2 18.4397 132.4427 63.0024 0.0000 0.0000 0.0000
# 3 30.6418 63.0024 141.3891 0.0000 0.0000 0.0000
# 4 0.0000 0.0000 0.0000 17.8099 0.0000 0.0000
# 5 0.0000 0.0000 0.0000 0.0000 15.9201 0.0000
# 6 0.0000 0.0000 0.0000 0.0000 0.0000 25.8152
#
#
#
# Elastic Compliance Matrix: (Units=1/GPa)
#
#
# Indices 1 2 3 4 5 6 
#
# 1 0.016870 -0.000774 -0.003311 0.000000 0.000000 0.000000
# 2 -0.000774 0.009617 -0.004118 0.000000 0.000000 0.000000
# 3 -0.003311 -0.004118 0.009625 0.000000 0.000000 0.000000
# 4 0.000000 0.000000 0.000000 0.056148 0.000000 0.000000
# 5 0.000000 0.000000 0.000000 0.000000 0.062814 0.000000
# 6 0.000000 0.000000 0.000000 0.000000 0.000000 0.038737
#
#
# Mechanical properties :
#
#
# Convention : Reuss Voigt Hill
#
# Bulk Modulus (GPa) = 50.74432 62.68205 56.71319
# Shear Modulus (GPa) = 23.06441 27.10147 25.08294
#
# Velocity S-wave (km/s) = 3.41380 3.70052 3.56005
# Velocity P-wave (km/s) = 6.41707 7.06616 6.74942
#
# Compressibility (1/GPa) = 0.01970664
#
# Stress axis : x y z
#
# Youngs Moduli (GPa) = 59.27849 103.98416 103.89527
#
# Poissons Ratio (x) = 0.08044 0.34403
# Poissons Ratio (y) = 0.04585 0.42780
# Poissons Ratio (z) = 0.19629 0.42816
#
# Static dielectric constant tensor:
#      x y z
#    x 3.673870 0.000000 0.000000 
#    y 0.000000 3.573320 0.000000 
#    z 0.000000 0.000000 3.596330 
# 
# 
# High freq. dielectric constant tensor:
#      x y z
#    x 1.774380 0.000000 0.000000 
#    y 0.000000 1.767210 0.000000 
#    z 0.000000 0.000000 1.753440 
# 
# From -- ./inp_files/70200.got.cif
#   From: 2010.03.12/outbox.cif.g09.slc.cpg/sg66_36_cif.got.tgz:70200.got - 2010.04.10 21:57:39.
