data_PCOD8277564
_publ_section_title
;
Structure prediction by ZEFSAII (Michael W. Deem and Ramdas Pophale) SiO2 
 PCOD8277564
Probable space group: C C C M
;
_chemical_formula_sum "Si O2"
_cell_formula_units_Z 112
_cell_length_a 18.731203
_cell_length_b 18.368936
_cell_length_c 19.450138
_cell_angle_alpha 90.000000
_cell_angle_beta 90.000000
_cell_angle_gamma 90.000000
_cell_volume 6692.253116
_symmetry_space_group_name_H-M "C C C M"
_symmetry_group_IT_number 66
_symmetry_cell_setting 'orthorhombic'
loop_
_space_group_symop_operation_xyz
x,y,z
-x,-y,z
x,-y,1/2-z
-x,y,1/2-z
-x,-y,-z
x,y,-z
-x,y,1/2+z
x,-y,1/2+z
1/2+x,1/2+y,z
1/2-x,1/2-y,z
1/2+x,1/2-y,1/2-z
1/2-x,1/2+y,1/2-z
1/2-x,1/2-y,-z
1/2+x,1/2+y,-z
1/2-x,1/2+y,1/2+z
1/2+x,1/2-y,1/2+z
loop_
_atom_site_type_symbol
_atom_site_label
_atom_site_fract_x
_atom_site_fract_y
_atom_site_fract_z
Si Si1 0.827555 0.418749 0.282004
Si Si2 0.579690 0.519148 0.579456
Si Si3 0.221599 0.627896 0.144122
Si Si4 0.141474 0.824857 0.079698
Si Si5 0.418200 0.828347 0.078376
Si Si6 0.979339 0.580995 0.828498
Si Si7 0.198495 0.983772 0.327919
O O1 0.837928 0.500000 0.250000
O O2 0.815180 0.361237 0.219550
O O3 0.894511 0.402085 0.331245
O O4 0.754611 0.416589 0.326935
O O5 0.500000 0.500000 0.601569
O O6 0.593206 0.501283 0.500000
O O7 0.595968 0.603147 0.597474
O O8 0.630597 0.466511 0.624596
O O9 0.286300 0.683493 0.125666
O O10 0.157899 0.632472 0.089183
O O11 0.258128 0.549669 0.137699
O O12 0.090606 0.756841 0.096816
O O13 0.164886 0.824701 0.000000
O O14 0.480780 0.860466 0.125159
O O15 0.441803 0.839725 0.000000
O O16 0.000000 0.500000 0.854391
O O17 0.000000 0.591412 0.750000
O O18 0.172689 0.000000 0.250000
#
# Coordination Sequence:
#
# PCOD8277564 Si02
#       7
#    16  16  16  16  16  16  16
#     4   9  15  28  48  68  89 128 165 194 239 280
#     4   9  17  31  52  73  94 126 165 200 240 297
#     4   9  15  27  47  66  92 128 160 185 226 299
#     4   9  18  31  46  69 100 128 151 188 248 297
#     4  11  21  30  46  72 101 130 159 199 243 288
#     4  11  18  32  51  67  93 135 170 199 236 285
#     4   8  16  28  47  70  95 124 159 195 240 288
#
# _framework density 16.735769000000001
#
# number of rings (size 3 to 8) (size 9 to 14) (size 15 to 20)
#    0.000    2.857    2.857    1.714    0.000    2.286 
#    0.000    0.714    9.429    0.000    0.000    0.000 
#    0.000    4.571    0.000    0.000    0.000    0.000 
#
# Total GULP energy -693911.613525 kJ/mol
# GULP energy per Si atom -12391.278813 kJ/mol
# Density = 1.669768 g / cm^3
# Si number density = 16.735769 Si / 1000 Ang^3
#
#
#
# Elastic Constant Matrix: (Units=GPa)
#
#
# Indices 1 2 3 4 5 6 
#
# 1 149.7250 38.3254 64.8353 0.0000 0.0000 0.0000
# 2 38.3254 51.8907 39.5132 0.0000 0.0000 0.0000
# 3 64.8353 39.5132 64.6680 0.0000 0.0000 0.0000
# 4 0.0000 0.0000 0.0000 19.2701 0.0000 0.0000
# 5 0.0000 0.0000 0.0000 0.0000 33.5964 0.0000
# 6 0.0000 0.0000 0.0000 0.0000 0.0000 19.6204
#
#
#
# Elastic Compliance Matrix: (Units=1/GPa)
#
#
# Indices 1 2 3 4 5 6 
#
# 1 0.011812 0.000549 -0.012178 0.000000 0.000000 0.000000
# 2 0.000549 0.036065 -0.022587 0.000000 0.000000 0.000000
# 3 -0.012178 -0.022587 0.041474 0.000000 0.000000 0.000000
# 4 0.000000 0.000000 0.000000 0.051894 0.000000 0.000000
# 5 0.000000 0.000000 0.000000 0.000000 0.029765 0.000000
# 6 0.000000 0.000000 0.000000 0.000000 0.000000 0.050967
#
#
# Mechanical properties :
#
#
# Convention : Reuss Voigt Hill
#
# Bulk Modulus (GPa) = 47.80231 61.29238 54.54734
# Shear Modulus (GPa) = 16.81349 22.73802 19.77576
#
# Velocity S-wave (km/s) = 3.17305 3.68998 3.44124
# Velocity P-wave (km/s) = 6.48454 7.40660 6.96086
#
# Compressibility (1/GPa) = 0.02091949
#
# Stress axis : x y z
#
# Youngs Moduli (GPa) = 84.66196 27.72791 24.11170
#
# Poissons Ratio (x) = -0.01523 0.29363
# Poissons Ratio (y) = -0.04649 0.54460
# Poissons Ratio (z) = 1.03099 0.62628
#
# Static dielectric constant tensor:
#      x y z
#    x 3.446430 0.000000 0.000000 
#    y 0.000000 2.962530 0.000000 
#    z 0.000000 0.000000 3.144960 
# 
# 
# High freq. dielectric constant tensor:
#      x y z
#    x 1.653040 0.000000 0.000000 
#    y 0.000000 1.607640 0.000000 
#    z 0.000000 0.000000 1.629970 
# 
# From -- ./inp_files/51199.got.cif
#   From: 2010.03.12/outbox.cif.g09.slc.cpg/sg66_26_cif.got.tgz:51199.got - 2010.04.10 21:57:39.
