data_PCOD8277256
_publ_section_title
;
Structure prediction by ZEFSAII (Michael W. Deem and Ramdas Pophale) SiO2 
 PCOD8277256
Probable space group: C C C M
;
_chemical_formula_sum "Si O2"
_cell_formula_units_Z 80
_cell_length_a 14.415157
_cell_length_b 13.802612
_cell_length_c 17.470194
_cell_angle_alpha 90.000000
_cell_angle_beta 90.000000
_cell_angle_gamma 90.000000
_cell_volume 3475.988927
_symmetry_space_group_name_H-M "C C C M"
_symmetry_group_IT_number 66
_symmetry_cell_setting 'orthorhombic'
loop_
_space_group_symop_operation_xyz
x,y,z
-x,-y,z
x,-y,1/2-z
-x,y,1/2-z
-x,-y,-z
x,y,-z
-x,y,1/2+z
x,-y,1/2+z
1/2+x,1/2+y,z
1/2-x,1/2-y,z
1/2+x,1/2-y,1/2-z
1/2-x,1/2+y,1/2-z
1/2-x,1/2-y,-z
1/2+x,1/2+y,-z
1/2-x,1/2+y,1/2+z
1/2+x,1/2-y,1/2+z
loop_
_atom_site_type_symbol
_atom_site_label
_atom_site_fract_x
_atom_site_fract_y
_atom_site_fract_z
Si Si1 0.302694 0.396209 0.777533
Si Si2 0.825756 0.592024 0.910769
Si Si3 0.944888 0.259241 0.681755
Si Si4 0.606466 0.691439 0.413677
Si Si5 0.704023 0.884286 0.367717
O O1 0.344520 0.500000 0.750000
O O2 0.270988 0.392807 0.866073
O O3 0.374049 0.308582 0.770682
O O4 0.209689 0.376757 0.725286
O O5 0.903897 0.662795 0.876896
O O6 0.850653 0.479249 0.897161
O O7 0.812401 0.615940 0.000000
O O8 0.000000 0.314882 0.750000
O O9 0.013010 0.185914 0.636055
O O10 0.576987 0.670681 0.500000
O O11 0.650041 0.798010 0.406565
O O12 0.685741 0.614125 0.390024
#
# Coordination Sequence:
#
# PCOD8277256 Si02
#       5
#    16  16  16  16  16
#     4  10  23  43  69  93 126 180 229 273 331 415
#     4  11  24  42  68 102 137 174 223 289 350 406
#     4  12  24  41  65  95 139 174 223 279 346 410
#     4  11  22  38  67  95 128 177 226 281 340 404
#     4  10  21  44  67  92 130 178 235 273 335 416
#
# _framework density 23.015032999999999
#
# number of rings (size 3 to 8) (size 9 to 14) (size 15 to 20)
#    0.000    1.200    2.000    4.800    2.800    3.600 
#    0.000    3.000    0.000    3.600    0.000    0.000 
#    0.000    0.000    0.000    0.000    0.000    0.000 
#
# Total GULP energy -495752.511104 kJ/mol
# GULP energy per Si atom -12393.812778 kJ/mol
# Density = 2.296265 g / cm^3
# Si number density = 23.015033 Si / 1000 Ang^3
#
#
#
# Elastic Constant Matrix: (Units=GPa)
#
#
# Indices 1 2 3 4 5 6 
#
# 1 65.0961 34.0502 31.0655 0.0000 0.0000 0.0000
# 2 34.0502 98.9676 36.6029 0.0000 0.0000 0.0000
# 3 31.0655 36.6029 170.2326 0.0000 0.0000 0.0000
# 4 0.0000 0.0000 0.0000 29.0712 0.0000 0.0000
# 5 0.0000 0.0000 0.0000 0.0000 31.7060 0.0000
# 6 0.0000 0.0000 0.0000 0.0000 0.0000 18.3776
#
#
#
# Elastic Compliance Matrix: (Units=1/GPa)
#
#
# Indices 1 2 3 4 5 6 
#
# 1 0.019530 -0.005868 -0.002302 0.000000 0.000000 0.000000
# 2 -0.005868 0.012740 -0.001669 0.000000 0.000000 0.000000
# 3 -0.002302 -0.001669 0.006653 0.000000 0.000000 0.000000
# 4 0.000000 0.000000 0.000000 0.034398 0.000000 0.000000
# 5 0.000000 0.000000 0.000000 0.000000 0.031540 0.000000
# 6 0.000000 0.000000 0.000000 0.000000 0.000000 0.054414
#
#
# Mechanical properties :
#
#
# Convention : Reuss Voigt Hill
#
# Bulk Modulus (GPa) = 51.95877 59.74817 55.85347
# Shear Modulus (GPa) = 26.97332 31.33614 29.15473
#
# Velocity S-wave (km/s) = 3.42714 3.69392 3.56303
# Velocity P-wave (km/s) = 6.18752 6.64908 6.42245
#
# Compressibility (1/GPa) = 0.01924603
#
# Stress axis : x y z
#
# Youngs Moduli (GPa) = 51.20341 78.49113 150.30296
#
# Poissons Ratio (x) = 0.46057 0.34604
# Poissons Ratio (y) = 0.30045 0.25079
# Poissons Ratio (z) = 0.11789 0.13097
#
# Static dielectric constant tensor:
#      x y z
#    x 4.074580 0.000000 0.000000 
#    y 0.000000 4.136450 0.000000 
#    z 0.000000 0.000000 4.345830 
# 
# 
# High freq. dielectric constant tensor:
#      x y z
#    x 1.884610 0.000000 0.000000 
#    y 0.000000 1.900390 0.000000 
#    z 0.000000 0.000000 1.931270 
# 
# From -- ./inp_files/49753.got.cif
#   From: 2010.03.12/outbox.cif.g09.slc.cpg/sg66_25_cif.got.tgz:49753.got - 2010.04.10 21:57:39.
