data_PCOD8277722
_publ_section_title
;
Structure prediction by ZEFSAII (Michael W. Deem and Ramdas Pophale) SiO2 
 PCOD8277722
Probable space group: C C C M
;
_chemical_formula_sum "Si O2"
_cell_formula_units_Z 64
_cell_length_a 9.714950
_cell_length_b 19.550816
_cell_length_c 16.463404
_cell_angle_alpha 90.000000
_cell_angle_beta 90.000000
_cell_angle_gamma 90.000000
_cell_volume 3126.979930
_symmetry_space_group_name_H-M "C C C M"
_symmetry_group_IT_number 66
_symmetry_cell_setting 'orthorhombic'
loop_
_space_group_symop_operation_xyz
x,y,z
-x,-y,z
x,-y,1/2-z
-x,y,1/2-z
-x,-y,-z
x,y,-z
-x,y,1/2+z
x,-y,1/2+z
1/2+x,1/2+y,z
1/2-x,1/2-y,z
1/2+x,1/2-y,1/2-z
1/2-x,1/2+y,1/2-z
1/2-x,1/2-y,-z
1/2+x,1/2+y,-z
1/2-x,1/2+y,1/2+z
1/2+x,1/2-y,1/2+z
loop_
_atom_site_type_symbol
_atom_site_label
_atom_site_fract_x
_atom_site_fract_y
_atom_site_fract_z
Si Si1 0.323487 0.332331 0.830575
Si Si2 0.973547 0.079958 0.090276
Si Si3 0.942040 0.697664 0.905639
Si Si4 0.731899 0.827388 0.353410
O O1 0.426019 0.395015 0.838708
O O2 0.196625 0.346091 0.892149
O O3 0.416755 0.267276 0.855285
O O4 0.265812 0.324780 0.741070
O O5 0.821057 0.111824 0.105403
O O6 0.015681 0.104953 0.000000
O O7 0.000000 0.000000 0.095614
O O8 0.071465 0.655648 0.869387
O O9 0.964858 0.713742 0.000000
O O10 0.750000 0.750000 0.390264
#
# Coordination Sequence:
#
# PCOD8277722 Si02
#       4
#    16  16  16  16
#     4  11  22  37  62  93 129 166 206 264 328 381
#     4  11  25  44  65  92 129 174 219 264 322 393
#     4  11  22  37  60  93 126 163 209 265 320 374
#     4  12  23  37  63  96 130 165 212 269 320 382
#
# _framework density 20.467033000000001
#
# number of rings (size 3 to 8) (size 9 to 14) (size 15 to 20)
#    0.000    0.750    5.000    5.250    0.000    3.000 
#    0.000    1.250    0.000    7.500    0.000    0.000 
#    0.000    0.000    0.000    0.000    0.000    0.000 
#
# Total GULP energy -396457.094597 kJ/mol
# GULP energy per Si atom -12389.284206 kJ/mol
# Density = 2.042045 g / cm^3
# Si number density = 20.467033 Si / 1000 Ang^3
#
#
#
# Elastic Constant Matrix: (Units=GPa)
#
#
# Indices 1 2 3 4 5 6 
#
# 1 152.2395 70.7142 40.1371 0.0000 0.0000 0.0000
# 2 70.7142 73.3004 29.0050 0.0000 0.0000 0.0000
# 3 40.1371 29.0050 117.5494 0.0000 0.0000 0.0000
# 4 0.0000 0.0000 0.0000 18.2751 0.0000 0.0000
# 5 0.0000 0.0000 0.0000 0.0000 34.6717 0.0000
# 6 0.0000 0.0000 0.0000 0.0000 0.0000 34.1570
#
#
#
# Elastic Compliance Matrix: (Units=1/GPa)
#
#
# Indices 1 2 3 4 5 6 
#
# 1 0.012103 -0.011127 -0.001387 0.000000 0.000000 0.000000
# 2 -0.011127 0.025348 -0.002455 0.000000 0.000000 0.000000
# 3 -0.001387 -0.002455 0.009586 0.000000 0.000000 0.000000
# 4 0.000000 0.000000 0.000000 0.054719 0.000000 0.000000
# 5 0.000000 0.000000 0.000000 0.000000 0.028842 0.000000
# 6 0.000000 0.000000 0.000000 0.000000 0.000000 0.029277
#
#
# Mechanical properties :
#
#
# Convention : Reuss Voigt Hill
#
# Bulk Modulus (GPa) = 58.48231 69.20021 63.84126
# Shear Modulus (GPa) = 25.57377 30.96964 28.27171
#
# Velocity S-wave (km/s) = 3.53868 3.89414 3.72066
# Velocity P-wave (km/s) = 6.73292 7.35548 7.05108
#
# Compressibility (1/GPa) = 0.01709919
#
# Stress axis : x y z
#
# Youngs Moduli (GPa) = 82.62732 39.45045 104.31358
#
# Poissons Ratio (x) = 0.43895 0.14467
# Poissons Ratio (y) = 0.91937 0.25613
# Poissons Ratio (z) = 0.11460 0.09687
#
# Static dielectric constant tensor:
#      x y z
#    x 4.286070 0.000000 0.000000 
#    y 0.000000 3.516010 0.000000 
#    z 0.000000 0.000000 4.242830 
# 
# 
# High freq. dielectric constant tensor:
#      x y z
#    x 1.818740 0.000000 0.000000 
#    y 0.000000 1.756000 0.000000 
#    z 0.000000 0.000000 1.816730 
# 
# From -- ./inp_files/36348.got.cif
#   From: 2010.03.12/outbox.cif.g09.slc.cpg/sg66_19_cif.got.tgz:36348.got - 2010.04.10 21:57:39.
