data_PCOD8277181
_publ_section_title
;
Structure prediction by ZEFSAII (Michael W. Deem and Ramdas Pophale) SiO2 
 PCOD8277181
Probable space group: C C C M
;
_chemical_formula_sum "Si O2"
_cell_formula_units_Z 64
_cell_length_a 16.378456
_cell_length_b 9.098332
_cell_length_c 19.691091
_cell_angle_alpha 90.000000
_cell_angle_beta 90.000000
_cell_angle_gamma 90.000000
_cell_volume 2934.300028
_symmetry_space_group_name_H-M "C C C M"
_symmetry_group_IT_number 66
_symmetry_cell_setting 'orthorhombic'
loop_
_space_group_symop_operation_xyz
x,y,z
-x,-y,z
x,-y,1/2-z
-x,y,1/2-z
-x,-y,-z
x,y,-z
-x,y,1/2+z
x,-y,1/2+z
1/2+x,1/2+y,z
1/2-x,1/2-y,z
1/2+x,1/2-y,1/2-z
1/2-x,1/2+y,1/2-z
1/2-x,1/2-y,-z
1/2+x,1/2+y,-z
1/2-x,1/2+y,1/2+z
1/2+x,1/2-y,1/2+z
loop_
_atom_site_type_symbol
_atom_site_label
_atom_site_fract_x
_atom_site_fract_y
_atom_site_fract_z
Si Si1 0.673652 0.336994 0.760956
Si Si2 0.914849 0.414574 0.500000
Si Si3 0.654474 0.217180 0.000000
Si Si4 0.414407 0.584361 0.112158
Si Si5 0.659128 0.713941 0.109485
O O1 0.708295 0.500000 0.750000
O O2 0.750000 0.250000 0.793702
O O3 0.597075 0.348037 0.812319
O O4 0.645014 0.260278 0.690413
O O5 0.846850 0.541048 0.500000
O O6 0.905046 0.312595 0.432862
O O7 0.000000 0.500000 0.500000
O O8 0.750000 0.250000 0.000000
O O9 0.602385 0.280131 0.062919
O O10 0.500000 0.500000 0.105534
O O11 0.349099 0.458789 0.093793
O O12 0.750000 0.750000 0.085845
#
# Coordination Sequence:
#
# PCOD8277181 Si02
#       5
#    16   8   8  16  16
#     4   9  20  37  61  88 117 156 204 252 303 366
#     4  12  24  40  60  90 124 156 196 252 308 358
#     4  12  24  38  62  94 126 164 212 256 296 362
#     4  11  22  39  62  91 123 160 204 255 307 363
#     4  10  21  40  62  83 117 163 201 241 303 372
#
# _framework density 21.810993
#
# number of rings (size 3 to 8) (size 9 to 14) (size 15 to 20)
#    0.000    1.500    0.000    5.250    0.000    8.500 
#    0.000    0.000    0.000    1.500    0.000    0.000 
#    0.000    0.000    0.000    0.000    0.000    0.000 
#
# Total GULP energy -396599.862840 kJ/mol
# GULP energy per Si atom -12393.745714 kJ/mol
# Density = 2.176135 g / cm^3
# Si number density = 21.810993 Si / 1000 Ang^3
#
#
#
# Elastic Constant Matrix: (Units=GPa)
#
#
# Indices 1 2 3 4 5 6 
#
# 1 87.8254 7.2723 46.1174 0.0000 0.0000 0.0000
# 2 7.2723 82.7876 58.0106 0.0000 0.0000 0.0000
# 3 46.1174 58.0106 135.7142 0.0000 0.0000 0.0000
# 4 0.0000 0.0000 0.0000 34.5304 0.0000 0.0000
# 5 0.0000 0.0000 0.0000 0.0000 21.5782 0.0000
# 6 0.0000 0.0000 0.0000 0.0000 0.0000 41.5657
#
#
#
# Elastic Compliance Matrix: (Units=1/GPa)
#
#
# Indices 1 2 3 4 5 6 
#
# 1 0.014392 0.003087 -0.006210 0.000000 0.000000 0.000000
# 2 0.003087 0.017906 -0.008703 0.000000 0.000000 0.000000
# 3 -0.006210 -0.008703 0.013199 0.000000 0.000000 0.000000
# 4 0.000000 0.000000 0.000000 0.028960 0.000000 0.000000
# 5 0.000000 0.000000 0.000000 0.000000 0.046343 0.000000
# 6 0.000000 0.000000 0.000000 0.000000 0.000000 0.024058
#
#
# Mechanical properties :
#
#
# Convention : Reuss Voigt Hill
#
# Bulk Modulus (GPa) = 45.77729 58.79197 52.28463
# Shear Modulus (GPa) = 28.44279 32.52997 30.48638
#
# Velocity S-wave (km/s) = 3.61509 3.86612 3.74271
# Velocity P-wave (km/s) = 6.20153 6.85149 6.53459
#
# Compressibility (1/GPa) = 0.02184489
#
# Stress axis : x y z
#
# Youngs Moduli (GPa) = 69.48530 55.84629 75.76444
#
# Poissons Ratio (x) = -0.17242 0.47050
# Poissons Ratio (y) = -0.21452 0.65939
# Poissons Ratio (z) = 0.43151 0.48604
#
# Static dielectric constant tensor:
#      x y z
#    x 3.790480 0.000000 0.000000 
#    y 0.000000 4.254940 0.000000 
#    z 0.000000 0.000000 4.083370 
# 
# 
# High freq. dielectric constant tensor:
#      x y z
#    x 1.847680 0.000000 0.000000 
#    y 0.000000 1.861880 0.000000 
#    z 0.000000 0.000000 1.863020 
# 
# From -- ./inp_files/50574.got.cif
#   From: 2010.03.12/outbox.cif.g09.slc.cpg/sg66_26_cif.got.tgz:50574.got - 2010.04.10 21:57:39.
