data_PCOD8277970
_publ_section_title
;
Structure prediction by ZEFSAII (Michael W. Deem and Ramdas Pophale) SiO2 
 PCOD8277970
Probable space group: C M M A
;
_chemical_formula_sum "Si O2"
_cell_formula_units_Z 96
_cell_length_a 25.875292
_cell_length_b 19.223403
_cell_length_c 11.774500
_cell_angle_alpha 90.000000
_cell_angle_beta 90.000000
_cell_angle_gamma 90.000000
_cell_volume 5856.767772
_symmetry_space_group_name_H-M "C M M A"
_symmetry_group_IT_number 67
_symmetry_cell_setting 'orthorhombic'
loop_
_space_group_symop_operation_xyz
x,y,z
-x,1/2-y,z
x,-y,-z
-x,1/2+y,-z
-x,-y,-z
x,1/2+y,-z
-x,y,z
x,1/2-y,z
1/2+x,1/2+y,z
1/2-x,-y,z
1/2+x,1/2-y,-z
1/2-x,y,-z
1/2-x,1/2-y,-z
1/2+x,y,-z
1/2-x,1/2+y,z
1/2+x,-y,z
loop_
_atom_site_type_symbol
_atom_site_label
_atom_site_fract_x
_atom_site_fract_y
_atom_site_fract_z
Si Si1 0.690447 0.580737 0.977461
Si Si2 0.642508 0.169530 0.833202
Si Si3 0.204600 0.413540 0.328904
Si Si4 0.682029 0.434347 0.276366
Si Si5 0.877619 0.421971 0.512320
Si Si6 0.059105 0.668861 0.652542
O O1 0.677008 0.599507 0.847344
O O2 0.681349 0.500000 0.000000
O O3 0.750000 0.601703 0.000000
O O4 0.650516 0.625197 0.052662
O O5 0.643164 0.250000 0.867001
O O6 0.688399 0.153500 0.744708
O O7 0.589278 0.148435 0.768271
O O8 0.265894 0.411180 0.341293
O O9 0.184472 0.482001 0.261213
O O10 0.177999 0.413513 0.451571
O O11 0.633821 0.408582 0.353881
O O12 0.899357 0.500000 0.500000
O O13 0.919347 0.369908 0.459279
O O14 0.065720 0.750000 0.627008
O O15 0.000000 0.647255 0.671231
#
# Coordination Sequence:
#
# PCOD8277970 Si02
#       6
#    16  16  16  16  16  16
#     4  11  18  30  48  70 101 140 169 189 225 286
#     4  10  19  31  48  72  95 123 167 207 234 269
#     4   9  15  29  44  68  99 133 166 189 223 283
#     4  10  16  27  46  70 101 134 162 189 231 288
#     4   9  18  28  49  77  99 123 155 205 245 281
#     4   9  19  37  57  71  90 124 164 204 245 293
#
# _framework density 16.391293999999998
#
# number of rings (size 3 to 8) (size 9 to 14) (size 15 to 20)
#    0.000    2.333    3.333    1.500    0.000    2.667 
#    0.000    1.667    0.000    5.500    0.000    2.333 
#    0.000    0.000    0.000    0.000    0.000    0.000 
#
# Total GULP energy -594975.112195 kJ/mol
# GULP energy per Si atom -12395.314837 kJ/mol
# Density = 1.635399 g / cm^3
# Si number density = 16.391294 Si / 1000 Ang^3
#
#
#
# Elastic Constant Matrix: (Units=GPa)
#
#
# Indices 1 2 3 4 5 6 
#
# 1 91.8987 43.7464 50.2777 0.0000 0.0000 0.0000
# 2 43.7464 55.7164 42.2423 0.0000 0.0000 0.0000
# 3 50.2777 42.2423 118.5672 0.0000 0.0000 0.0000
# 4 0.0000 0.0000 0.0000 23.5344 0.0000 0.0000
# 5 0.0000 0.0000 0.0000 0.0000 16.5599 0.0000
# 6 0.0000 0.0000 0.0000 0.0000 0.0000 20.5281
#
#
#
# Elastic Compliance Matrix: (Units=1/GPa)
#
#
# Indices 1 2 3 4 5 6 
#
# 1 0.018461 -0.011728 -0.003650 0.000000 0.000000 0.000000
# 2 -0.011728 0.032040 -0.006442 0.000000 0.000000 0.000000
# 3 -0.003650 -0.006442 0.012277 0.000000 0.000000 0.000000
# 4 0.000000 0.000000 0.000000 0.042491 0.000000 0.000000
# 5 0.000000 0.000000 0.000000 0.000000 0.060387 0.000000
# 6 0.000000 0.000000 0.000000 0.000000 0.000000 0.048714
#
#
# Mechanical properties :
#
#
# Convention : Reuss Voigt Hill
#
# Bulk Modulus (GPa) = 52.24977 59.85723 56.05350
# Shear Modulus (GPa) = 18.91148 20.78553 19.84850
#
# Velocity S-wave (km/s) = 3.40038 3.56488 3.48360
# Velocity P-wave (km/s) = 6.88204 7.31720 7.10296
#
# Compressibility (1/GPa) = 0.01913884
#
# Stress axis : x y z
#
# Youngs Moduli (GPa) = 54.16754 31.21062 81.45330
#
# Poissons Ratio (x) = 0.36603 0.29731
# Poissons Ratio (y) = 0.63526 0.52473
# Poissons Ratio (z) = 0.19772 0.20106
#
# Static dielectric constant tensor:
#      x y z
#    x 2.905320 0.000000 0.000000 
#    y 0.000000 2.979530 0.000000 
#    z 0.000000 0.000000 3.140040 
# 
# 
# High freq. dielectric constant tensor:
#      x y z
#    x 1.599180 0.000000 0.000000 
#    y 0.000000 1.613920 0.000000 
#    z 0.000000 0.000000 1.634280 
# 
# From -- ./inp_files/19829.got.cif
#   From: 2010.03.12/outbox.cif.g09.slc.cpg/sg67_10_cif.got.tgz:19829.got - 2010.04.10 22:41:39.
