data_PCOD8277374
_publ_section_title
;
Structure prediction by ZEFSAII (Michael W. Deem and Ramdas Pophale) SiO2 
 PCOD8277374
Probable space group: C C C M
;
_chemical_formula_sum "Si O2"
_cell_formula_units_Z 48
_cell_length_a 12.022338
_cell_length_b 10.487753
_cell_length_c 16.358558
_cell_angle_alpha 90.000000
_cell_angle_beta 90.000000
_cell_angle_gamma 90.000000
_cell_volume 2062.606597
_symmetry_space_group_name_H-M "C C C M"
_symmetry_group_IT_number 66
_symmetry_cell_setting 'orthorhombic'
loop_
_space_group_symop_operation_xyz
x,y,z
-x,-y,z
x,-y,1/2-z
-x,y,1/2-z
-x,-y,-z
x,y,-z
-x,y,1/2+z
x,-y,1/2+z
1/2+x,1/2+y,z
1/2-x,1/2-y,z
1/2+x,1/2-y,1/2-z
1/2-x,1/2+y,1/2-z
1/2-x,1/2-y,-z
1/2+x,1/2+y,-z
1/2-x,1/2+y,1/2+z
1/2+x,1/2-y,1/2+z
loop_
_atom_site_type_symbol
_atom_site_label
_atom_site_fract_x
_atom_site_fract_y
_atom_site_fract_z
Si Si1 0.773609 0.048578 0.590695
Si Si2 0.138002 0.191877 0.671114
Si Si3 0.401085 0.771060 0.644994
O O1 0.752958 0.991300 0.500000
O O2 0.653635 0.087591 0.632746
O O3 0.846111 0.176595 0.579650
O O4 0.850294 0.956274 0.646743
O O5 0.250000 0.250000 0.633465
O O6 0.131568 0.210392 0.767800
O O7 0.033891 0.268175 0.631572
#
# Coordination Sequence:
#
# PCOD8277374 Si02
#       3
#    16  16  16
#     4  11  23  41  66  96 131 169 214 270 332 389
#     4  11  23  40  65  96 127 169 224 267 319 394
#     4  10  22  41  66  93 127 170 222 269 320 390
#
# _framework density 23.271525
#
# number of rings (size 3 to 8) (size 9 to 14) (size 15 to 20)
#    0.000    1.333    3.333    4.000    0.000    8.667 
#    0.000    5.000    0.000    0.000    0.000    0.000 
#    0.000    0.000    0.000    0.000    0.000    0.000 
#
# Total GULP energy -297314.652795 kJ/mol
# GULP energy per Si atom -12388.110533 kJ/mol
# Density = 2.321856 g / cm^3
# Si number density = 23.271525 Si / 1000 Ang^3
#
#
#
# Elastic Constant Matrix: (Units=GPa)
#
#
# Indices 1 2 3 4 5 6 
#
# 1 216.4065 28.8308 28.6498 0.0000 0.0000 0.0000
# 2 28.8308 41.9222 31.9152 0.0000 0.0000 0.0000
# 3 28.6498 31.9152 121.9052 0.0000 0.0000 0.0000
# 4 0.0000 0.0000 0.0000 -5.0923 0.0000 0.0000
# 5 0.0000 0.0000 0.0000 0.0000 19.6551 0.0000
# 6 0.0000 0.0000 0.0000 0.0000 0.0000 45.0930
#
#
#
# Elastic Compliance Matrix: (Units=1/GPa)
#
#
# Indices 1 2 3 4 5 6 
#
# 1 0.005099 -0.003240 -0.000350 0.000000 0.000000 0.000000
# 2 -0.003240 0.031850 -0.007577 0.000000 0.000000 0.000000
# 3 -0.000350 -0.007577 0.010269 0.000000 0.000000 0.000000
# 4 0.000000 0.000000 0.000000 -0.196375 0.000000 0.000000
# 5 0.000000 0.000000 0.000000 0.000000 0.050877 0.000000
# 6 0.000000 0.000000 0.000000 0.000000 0.000000 0.022176
#
#
# Mechanical properties :
#
#
# Convention : Reuss Voigt Hill
#
# Bulk Modulus (GPa) = 40.18667 62.11396 51.15032
# Shear Modulus (GPa) = -109.95394 31.32036 -39.31679
#
# Velocity S-wave (km/s) = -6.88120 3.67259 -4.11479
# Velocity P-wave (km/s) = 6.76967 6.68826 0.74014
#
# Compressibility (1/GPa) = 0.02488387
#
# Stress axis : x y z
#
# Youngs Moduli (GPa) = 196.11882 31.39678 97.37982
#
# Poissons Ratio (x) = 0.10173 0.03409
# Poissons Ratio (y) = 0.63546 0.73785
# Poissons Ratio (z) = 0.06865 0.23790
#
# Static dielectric constant tensor:
#      x y z
#    x 4.762630 0.000000 0.000000 
#    y 0.000000 4.156240 0.000000 
#    z 0.000000 0.000000 3.811130 
# 
# 
# High freq. dielectric constant tensor:
#      x y z
#    x 1.929440 0.000000 0.000000 
#    y 0.000000 1.898800 0.000000 
#    z 0.000000 0.000000 1.905440 
# 
# From -- ./inp_files/27377.got.cif
#   From: 2010.03.12/outbox.cif.g09.slc.cpg/sg66_14_cif.got.tgz:27377.got - 2010.04.10 21:57:39.
