data_PCOD8277202
_publ_section_title
;
Structure prediction by ZEFSAII (Michael W. Deem and Ramdas Pophale) SiO2 
 PCOD8277202
Probable space group: C C C M
;
_chemical_formula_sum "Si O2"
_cell_formula_units_Z 88
_cell_length_a 29.274161
_cell_length_b 6.258128
_cell_length_c 20.739133
_cell_angle_alpha 90.000000
_cell_angle_beta 90.000000
_cell_angle_gamma 90.000000
_cell_volume 3799.439167
_symmetry_space_group_name_H-M "C C C M"
_symmetry_group_IT_number 66
_symmetry_cell_setting 'orthorhombic'
loop_
_space_group_symop_operation_xyz
x,y,z
-x,-y,z
x,-y,1/2-z
-x,y,1/2-z
-x,-y,-z
x,y,-z
-x,y,1/2+z
x,-y,1/2+z
1/2+x,1/2+y,z
1/2-x,1/2-y,z
1/2+x,1/2-y,1/2-z
1/2-x,1/2+y,1/2-z
1/2-x,1/2-y,-z
1/2+x,1/2+y,-z
1/2-x,1/2+y,1/2+z
1/2+x,1/2-y,1/2+z
loop_
_atom_site_type_symbol
_atom_site_label
_atom_site_fract_x
_atom_site_fract_y
_atom_site_fract_z
Si Si1 0.891607 0.872624 0.811241
Si Si2 0.949754 0.437229 0.620521
Si Si3 0.390895 0.324351 0.427328
Si Si4 0.705982 0.889354 0.427324
Si Si5 0.700960 0.834391 0.196101
Si Si6 0.521522 0.744271 0.000000
O O1 0.918975 0.648637 0.819543
O O2 0.837343 0.846988 0.802253
O O3 0.911637 0.000000 0.750000
O O4 0.901003 0.994764 0.876672
O O5 0.925985 0.636598 0.586736
O O6 0.951257 0.247448 0.567089
O O7 0.000000 0.500000 0.646798
O O8 0.400548 0.408243 0.500000
O O9 0.338623 0.253725 0.420571
O O10 0.709866 0.984001 0.500000
O O11 0.750000 0.750000 0.409765
O O12 0.703310 0.080779 0.376838
O O13 0.750000 0.750000 0.218180
O O14 0.684629 0.000000 0.250000
O O15 0.500000 0.500000 0.000000
O O16 0.500000 0.000000 0.000000
#
# Coordination Sequence:
#
# PCOD8277202 Si02
#       6
#    16  16  16  16  16   8
#     4  12  28  45  73 102 147 191 241 307 371 454
#     4  11  26  45  75 105 145 192 245 312 376 442
#     4  11  24  45  73 108 142 189 245 303 374 440
#     4  10  21  40  66 101 149 185 226 295 369 444
#     4  12  24  43  71 101 139 187 245 296 364 440
#     4  10  24  44  78 114 146 192 260 326 382 450
#
# _framework density 23.161314999999998
#
# number of rings (size 3 to 8) (size 9 to 14) (size 15 to 20)
#    0.000    0.909    2.727    3.273    6.364    1.091 
#    0.000    2.727    0.000    0.000    0.000    0.000 
#    0.000    0.000    0.000    0.000    0.000    0.000 
#
# Total GULP energy -545248.357047 kJ/mol
# GULP energy per Si atom -12392.008115 kJ/mol
# Density = 2.310860 g / cm^3
# Si number density = 23.161315 Si / 1000 Ang^3
#
#
#
# Elastic Constant Matrix: (Units=GPa)
#
#
# Indices 1 2 3 4 5 6 
#
# 1 134.3792 27.7032 40.1131 0.0000 0.0000 0.0000
# 2 27.7032 90.3371 56.7836 0.0000 0.0000 0.0000
# 3 40.1131 56.7836 126.9693 0.0000 0.0000 0.0000
# 4 0.0000 0.0000 0.0000 59.8166 0.0000 0.0000
# 5 0.0000 0.0000 0.0000 0.0000 131.0675 0.0000
# 6 0.0000 0.0000 0.0000 0.0000 0.0000 29.5514
#
#
#
# Elastic Compliance Matrix: (Units=1/GPa)
#
#
# Indices 1 2 3 4 5 6 
#
# 1 0.008317 -0.001250 -0.002068 0.000000 0.000000 0.000000
# 2 -0.001250 0.015586 -0.006576 0.000000 0.000000 0.000000
# 3 -0.002068 -0.006576 0.011470 0.000000 0.000000 0.000000
# 4 0.000000 0.000000 0.000000 0.016718 0.000000 0.000000
# 5 0.000000 0.000000 0.000000 0.000000 0.007630 0.000000
# 6 0.000000 0.000000 0.000000 0.000000 0.000000 0.033839
#
#
# Mechanical properties :
#
#
# Convention : Reuss Voigt Hill
#
# Bulk Modulus (GPa) = 64.16524 66.76503 65.46514
# Shear Modulus (GPa) = 42.17867 59.22614 50.70241
#
# Velocity S-wave (km/s) = 4.27204 5.06228 4.68386
# Velocity P-wave (km/s) = 7.21787 7.94088 7.58799
#
# Compressibility (1/GPa) = 0.01558476
#
# Stress axis : x y z
#
# Youngs Moduli (GPa) = 120.23842 64.15885 87.18331
#
# Poissons Ratio (x) = 0.08022 0.18032
# Poissons Ratio (y) = 0.15034 0.57328
# Poissons Ratio (z) = 0.24869 0.42188
#
# Static dielectric constant tensor:
#      x y z
#    x 4.430760 0.000000 0.000000 
#    y 0.000000 3.967010 0.000000 
#    z 0.000000 0.000000 4.577190 
# 
# 
# High freq. dielectric constant tensor:
#      x y z
#    x 1.928240 0.000000 0.000000 
#    y 0.000000 1.911270 0.000000 
#    z 0.000000 0.000000 1.926740 
# 
# From -- ./inp_files/60412.got.cif
#   From: 2010.03.12/outbox.cif.g09.slc.cpg/sg66_31_cif.got.tgz:60412.got - 2010.04.10 21:57:39.
