data_PCOD8277990
_publ_section_title
;
Structure prediction by ZEFSAII (Michael W. Deem and Ramdas Pophale) SiO2 
 PCOD8277990
Probable space group: C M M A
;
_chemical_formula_sum "Si O2"
_cell_formula_units_Z 64
_cell_length_a 20.371901
_cell_length_b 17.719630
_cell_length_c 9.364463
_cell_angle_alpha 90.000000
_cell_angle_beta 90.000000
_cell_angle_gamma 90.000000
_cell_volume 3380.407715
_symmetry_space_group_name_H-M "C M M A"
_symmetry_group_IT_number 67
_symmetry_cell_setting 'orthorhombic'
loop_
_space_group_symop_operation_xyz
x,y,z
-x,1/2-y,z
x,-y,-z
-x,1/2+y,-z
-x,-y,-z
x,1/2+y,-z
-x,y,z
x,1/2-y,z
1/2+x,1/2+y,z
1/2-x,-y,z
1/2+x,1/2-y,-z
1/2-x,y,-z
1/2-x,1/2-y,-z
1/2+x,y,-z
1/2-x,1/2+y,z
1/2+x,-y,z
loop_
_atom_site_type_symbol
_atom_site_label
_atom_site_fract_x
_atom_site_fract_y
_atom_site_fract_z
Si Si1 0.359555 0.597703 0.661918
Si Si2 0.859831 0.425907 0.332368
Si Si3 0.743755 0.662465 0.159813
Si Si4 0.000000 0.573453 0.606589
Si Si5 0.000000 0.838728 0.341944
O O1 0.337776 0.511930 0.689755
O O2 0.351765 0.607985 0.491639
O O3 0.308485 0.649453 0.746029
O O4 0.433127 0.620506 0.715742
O O5 0.820311 0.375253 0.224742
O O6 0.936899 0.425882 0.292164
O O7 0.728608 0.750000 0.154454
O O8 0.750000 0.629705 0.000000
O O9 0.000000 0.500000 0.500000
O O10 0.000000 0.649734 0.512315
O O11 0.000000 0.750000 0.303180
#
# Coordination Sequence:
#
# PCOD8277990 Si02
#       5
#    16  16  16   8   8
#     4  10  19  36  59  87 114 143 188 240 291 355
#     4  10  19  35  62  86 112 147 186 236 302 349
#     4  11  25  40  52  76 118 159 198 244 287 339
#     4  10  16  36  57  89 120 143 175 248 293 345
#     4  10  18  30  57  89 115 147 181 227 293 350
#
# _framework density 18.932628000000001
#
# number of rings (size 3 to 8) (size 9 to 14) (size 15 to 20)
#    0.000    1.750    5.000    2.250    0.000   10.000 
#    0.000    1.250    0.000    6.000    0.000    0.000 
#    0.000    0.000    0.000    0.000    0.000    0.000 
#
# Total GULP energy -396560.888645 kJ/mol
# GULP energy per Si atom -12392.527770 kJ/mol
# Density = 1.888954 g / cm^3
# Si number density = 18.932628 Si / 1000 Ang^3
#
#
#
# Elastic Constant Matrix: (Units=GPa)
#
#
# Indices 1 2 3 4 5 6 
#
# 1 151.6172 45.7438 60.0121 0.0000 0.0000 0.0000
# 2 45.7438 74.6402 44.6955 0.0000 0.0000 0.0000
# 3 60.0121 44.6955 86.3002 0.0000 0.0000 0.0000
# 4 0.0000 0.0000 0.0000 24.7274 0.0000 0.0000
# 5 0.0000 0.0000 0.0000 0.0000 2.6223 0.0000
# 6 0.0000 0.0000 0.0000 0.0000 0.0000 32.5858
#
#
#
# Elastic Compliance Matrix: (Units=1/GPa)
#
#
# Indices 1 2 3 4 5 6 
#
# 1 0.009460 -0.002694 -0.005183 0.000000 0.000000 0.000000
# 2 -0.002694 0.020188 -0.008582 0.000000 0.000000 0.000000
# 3 -0.005183 -0.008582 0.019636 0.000000 0.000000 0.000000
# 4 0.000000 0.000000 0.000000 0.040441 0.000000 0.000000
# 5 0.000000 0.000000 0.000000 0.000000 0.381341 0.000000
# 6 0.000000 0.000000 0.000000 0.000000 0.000000 0.030688
#
#
# Mechanical properties :
#
#
# Convention : Reuss Voigt Hill
#
# Bulk Modulus (GPa) = 61.10264 68.16226 64.63245
# Shear Modulus (GPa) = 9.25708 22.79418 16.02563
#
# Velocity S-wave (km/s) = 2.21362 3.47358 2.91255
# Velocity P-wave (km/s) = 6.23516 7.22277 6.74706
#
# Compressibility (1/GPa) = 0.01636591
#
# Stress axis : x y z
#
# Youngs Moduli (GPa) = 105.70993 49.53538 50.92570
#
# Poissons Ratio (x) = 0.13344 0.26395
# Poissons Ratio (y) = 0.28476 0.43705
# Poissons Ratio (z) = 0.54791 0.42512
#
# Static dielectric constant tensor:
#      x y z
#    x 3.726310 0.000000 0.000000 
#    y 0.000000 3.487730 0.000000 
#    z 0.000000 0.000000 3.180880 
# 
# 
# High freq. dielectric constant tensor:
#      x y z
#    x 1.757050 0.000000 0.000000 
#    y 0.000000 1.739340 0.000000 
#    z 0.000000 0.000000 1.689820 
# 
# From -- ./inp_files/10918.got.cif
#   From: 2010.03.12/outbox.cif.g09.slc.cpg/sg67_6_cif.got.tgz:10918.got - 2010.04.10 22:41:39.
