data_PCOD8277390
_publ_section_title
;
Structure prediction by ZEFSAII (Michael W. Deem and Ramdas Pophale) SiO2 
 PCOD8277390
Probable space group: C C C M
;
_chemical_formula_sum "Si O2"
_cell_formula_units_Z 112
_cell_length_a 15.352238
_cell_length_b 14.584199
_cell_length_c 23.160472
_cell_angle_alpha 90.000000
_cell_angle_beta 90.000000
_cell_angle_gamma 90.000000
_cell_volume 5185.631860
_symmetry_space_group_name_H-M "C C C M"
_symmetry_group_IT_number 66
_symmetry_cell_setting 'orthorhombic'
loop_
_space_group_symop_operation_xyz
x,y,z
-x,-y,z
x,-y,1/2-z
-x,y,1/2-z
-x,-y,-z
x,y,-z
-x,y,1/2+z
x,-y,1/2+z
1/2+x,1/2+y,z
1/2-x,1/2-y,z
1/2+x,1/2-y,1/2-z
1/2-x,1/2+y,1/2-z
1/2-x,1/2-y,-z
1/2+x,1/2+y,-z
1/2-x,1/2+y,1/2+z
1/2+x,1/2-y,1/2+z
loop_
_atom_site_type_symbol
_atom_site_label
_atom_site_fract_x
_atom_site_fract_y
_atom_site_fract_z
Si Si1 0.743724 0.008091 0.433340
Si Si2 0.828673 0.676951 0.133679
Si Si3 0.828544 0.321426 0.883092
Si Si4 0.594777 0.406407 0.732667
Si Si5 0.924794 0.931947 0.106084
Si Si6 0.991211 0.251840 0.434935
Si Si7 0.156396 0.282713 0.742108
O O1 0.720807 0.029877 0.500000
O O2 0.702324 0.910308 0.417575
O O3 0.703961 0.080032 0.389116
O O4 0.848711 0.012099 0.426451
O O5 0.750000 0.750000 0.125237
O O6 0.868762 0.664281 0.198853
O O7 0.912020 0.698818 0.095700
O O8 0.750000 0.250000 0.886545
O O9 0.915489 0.276466 0.908164
O O10 0.848366 0.344859 0.815371
O O11 0.650138 0.500000 0.750000
O O12 0.500000 0.435130 0.750000
O O13 0.611610 0.384127 0.664924
O O14 0.608981 0.314251 0.769668
O O15 0.970574 0.856648 0.065854
O O16 0.000000 0.000000 0.126647
O O17 0.994017 0.286766 0.500000
O O18 0.250000 0.250000 0.759511
#
# Coordination Sequence:
#
# PCOD8277390 Si02
#       7
#    16  16  16  16  16  16  16
#     4  12  27  46  69  97 141 190 234 295 349 410
#     4  11  23  46  72 104 136 173 240 304 356 408
#     4  11  27  46  68 101 146 188 231 284 357 434
#     4  11  21  36  66 100 137 175 216 285 351 414
#     4  12  23  39  66 107 134 180 239 285 354 422
#     4  12  25  43  71  98 136 192 238 288 346 413
#     4  10  22  42  65  99 136 181 219 285 358 416
#
# _framework density 21.598139
#
# number of rings (size 3 to 8) (size 9 to 14) (size 15 to 20)
#    0.000    0.714    4.286    3.857    4.000    5.143 
#    0.000    1.429    0.000    1.714    0.000    0.000 
#    0.000    0.000    0.000    0.000    0.000    0.000 
#
# Total GULP energy -693797.486269 kJ/mol
# GULP energy per Si atom -12389.240826 kJ/mol
# Density = 2.154898 g / cm^3
# Si number density = 21.598139 Si / 1000 Ang^3
#
#
#
# Elastic Constant Matrix: (Units=GPa)
#
#
# Indices 1 2 3 4 5 6 
#
# 1 119.6172 44.6326 35.6118 0.0000 0.0000 0.0000
# 2 44.6326 87.3279 39.4452 0.0000 0.0000 0.0000
# 3 35.6118 39.4452 149.3726 0.0000 0.0000 0.0000
# 4 0.0000 0.0000 0.0000 41.4964 0.0000 0.0000
# 5 0.0000 0.0000 0.0000 0.0000 19.3391 0.0000
# 6 0.0000 0.0000 0.0000 0.0000 0.0000 36.1003
#
#
#
# Elastic Compliance Matrix: (Units=1/GPa)
#
#
# Indices 1 2 3 4 5 6 
#
# 1 0.010527 -0.004822 -0.001236 0.000000 0.000000 0.000000
# 2 -0.004822 0.015211 -0.002867 0.000000 0.000000 0.000000
# 3 -0.001236 -0.002867 0.007747 0.000000 0.000000 0.000000
# 4 0.000000 0.000000 0.000000 0.024098 0.000000 0.000000
# 5 0.000000 0.000000 0.000000 0.000000 0.051709 0.000000
# 6 0.000000 0.000000 0.000000 0.000000 0.000000 0.027701
#
#
# Mechanical properties :
#
#
# Convention : Reuss Voigt Hill
#
# Bulk Modulus (GPa) = 63.96531 66.18855 65.07693
# Shear Modulus (GPa) = 31.23940 35.16239 33.20089
#
# Velocity S-wave (km/s) = 3.80727 4.03926 3.92498
# Velocity P-wave (km/s) = 7.00054 7.24335 7.12298
#
# Compressibility (1/GPa) = 0.01563347
#
# Stress axis : x y z
#
# Youngs Moduli (GPa) = 94.99091 65.74365 129.08930
#
# Poissons Ratio (x) = 0.31701 0.15961
# Poissons Ratio (y) = 0.45804 0.37011
# Poissons Ratio (z) = 0.11745 0.18849
#
# Static dielectric constant tensor:
#      x y z
#    x 3.901960 0.000000 0.000000 
#    y 0.000000 3.573390 0.000000 
#    z 0.000000 0.000000 4.122050 
# 
# 
# High freq. dielectric constant tensor:
#      x y z
#    x 1.847010 0.000000 0.000000 
#    y 0.000000 1.839410 0.000000 
#    z 0.000000 0.000000 1.862580 
# 
# From -- ./inp_files/58262.got.cif
#   From: 2010.03.12/outbox.cif.g09.slc.cpg/sg66_30_cif.got.tgz:58262.got - 2010.04.10 21:57:39.
