data_PCOD8277427
_publ_section_title
;
Structure prediction by ZEFSAII (Michael W. Deem and Ramdas Pophale) SiO2 
 PCOD8277427
Probable space group: C C C M
;
_chemical_formula_sum "Si O2"
_cell_formula_units_Z 116
_cell_length_a 9.531684
_cell_length_b 21.308989
_cell_length_c 26.178605
_cell_angle_alpha 90.000000
_cell_angle_beta 90.000000
_cell_angle_gamma 90.000000
_cell_volume 5317.150847
_symmetry_space_group_name_H-M "C C C M"
_symmetry_group_IT_number 66
_symmetry_cell_setting 'orthorhombic'
loop_
_space_group_symop_operation_xyz
x,y,z
-x,-y,z
x,-y,1/2-z
-x,y,1/2-z
-x,-y,-z
x,y,-z
-x,y,1/2+z
x,-y,1/2+z
1/2+x,1/2+y,z
1/2-x,1/2-y,z
1/2+x,1/2-y,1/2-z
1/2-x,1/2+y,1/2-z
1/2-x,1/2-y,-z
1/2+x,1/2+y,-z
1/2-x,1/2+y,1/2+z
1/2+x,1/2-y,1/2+z
loop_
_atom_site_type_symbol
_atom_site_label
_atom_site_fract_x
_atom_site_fract_y
_atom_site_fract_z
Si Si1 0.845611 0.506453 0.440936
Si Si2 0.078436 0.314971 0.110669
Si Si3 0.127103 0.378838 0.217343
Si Si4 0.353557 0.309100 0.275665
Si Si5 0.200490 0.647369 0.941604
Si Si6 0.500000 0.000000 0.250000
Si Si7 0.538912 0.681195 0.385368
Si Si8 0.309002 0.613851 0.440546
O O1 0.865436 0.489763 0.500000
O O2 0.770938 0.573321 0.433185
O O3 0.746398 0.452361 0.418726
O O4 0.000000 0.500000 0.415003
O O5 0.925120 0.337444 0.095953
O O6 0.066131 0.240420 0.118301
O O7 0.130129 0.348371 0.161927
O O8 0.189766 0.332512 0.066762
O O9 0.276170 0.364383 0.244376
O O10 0.099658 0.454568 0.215209
O O11 0.000000 0.347554 0.250000
O O12 0.500000 0.289391 0.250000
O O13 0.250000 0.250000 0.278578
O O14 0.388216 0.335031 0.331859
O O15 0.335249 0.689126 0.926404
O O16 0.159912 0.662133 0.000000
O O17 0.444329 0.624570 0.405495
O O18 0.353065 0.613153 0.500000
#
# Coordination Sequence:
#
# PCOD8277427 Si02
#       8
#    16  16  16  16  16   4  16  16
#     4   9  18  39  66  90 119 171 236 281 324 390
#     4  12  23  40  67  98 131 176 229 274 334 419
#     4  10  22  45  71 102 136 177 224 282 351 415
#     4  12  24  44  72  99 133 177 228 293 352 412
#     4  11  23  39  63  95 137 183 226 277 337 405
#     4   8  24  44  78 104 138 180 218 278 368 428
#     4  12  26  40  60  99 137 176 226 276 347 413
#     4  11  24  42  65  96 137 181 228 284 340 406
#
# _framework density 21.816195
#
# number of rings (size 3 to 8) (size 9 to 14) (size 15 to 20)
#    0.414    0.690    1.379    6.207    0.000    4.966 
#    0.000    2.414    3.034    0.000    0.000    0.000 
#    0.000    0.000    0.000    0.000    0.000    0.000 
#
# Total GULP energy -719096.204100 kJ/mol
# GULP energy per Si atom -12398.210416 kJ/mol
# Density = 2.176654 g / cm^3
# Si number density = 21.816195 Si / 1000 Ang^3
#
#
#
# Elastic Constant Matrix: (Units=GPa)
#
#
# Indices 1 2 3 4 5 6 
#
# 1 97.1366 21.1786 20.0756 0.0000 0.0000 0.0000
# 2 21.1786 81.6751 38.5089 0.0000 0.0000 0.0000
# 3 20.0756 38.5089 77.1942 0.0000 0.0000 0.0000
# 4 0.0000 0.0000 0.0000 23.5088 0.0000 0.0000
# 5 0.0000 0.0000 0.0000 0.0000 47.7185 0.0000
# 6 0.0000 0.0000 0.0000 0.0000 0.0000 35.7194
#
#
#
# Elastic Compliance Matrix: (Units=1/GPa)
#
#
# Indices 1 2 3 4 5 6 
#
# 1 0.011121 -0.001988 -0.001901 0.000000 0.000000 0.000000
# 2 -0.001988 0.016364 -0.007647 0.000000 0.000000 0.000000
# 3 -0.001901 -0.007647 0.017263 0.000000 0.000000 0.000000
# 4 0.000000 0.000000 0.000000 0.042537 0.000000 0.000000
# 5 0.000000 0.000000 0.000000 0.000000 0.020956 0.000000
# 6 0.000000 0.000000 0.000000 0.000000 0.000000 0.027996
#
#
# Mechanical properties :
#
#
# Convention : Reuss Voigt Hill
#
# Bulk Modulus (GPa) = 46.12791 46.17025 46.14908
# Shear Modulus (GPa) = 30.02393 33.13885 31.58139
#
# Velocity S-wave (km/s) = 3.71377 3.90167 3.80888
# Velocity P-wave (km/s) = 6.29120 6.44256 6.36733
#
# Compressibility (1/GPa) = 0.02167885
#
# Stress axis : x y z
#
# Youngs Moduli (GPa) = 89.92045 61.10875 57.92673
#
# Poissons Ratio (x) = 0.12146 0.11010
# Poissons Ratio (y) = 0.17872 0.44294
# Poissons Ratio (z) = 0.17091 0.46727
#
# Static dielectric constant tensor:
#      x y z
#    x 4.072950 0.000000 0.000000 
#    y 0.000000 3.979020 0.000000 
#    z 0.000000 0.000000 3.816800 
# 
# 
# High freq. dielectric constant tensor:
#      x y z
#    x 1.863230 0.000000 0.000000 
#    y 0.000000 1.849440 0.000000 
#    z 0.000000 0.000000 1.849110 
# 
# From -- ./inp_files/62883.got.cif
#   From: 2010.03.12/outbox.cif.g09.slc.cpg/sg66_32_cif.got.tgz:62883.got - 2010.04.10 21:57:39.
