data_PCOD8277507
_publ_section_title
;
Structure prediction by ZEFSAII (Michael W. Deem and Ramdas Pophale) SiO2 
 PCOD8277507
Probable space group: C C C M
;
_chemical_formula_sum "Si O2"
_cell_formula_units_Z 36
_cell_length_a 16.810338
_cell_length_b 8.501189
_cell_length_c 9.016226
_cell_angle_alpha 90.000000
_cell_angle_beta 90.000000
_cell_angle_gamma 90.000000
_cell_volume 1288.489567
_symmetry_space_group_name_H-M "C C C M"
_symmetry_group_IT_number 66
_symmetry_cell_setting 'orthorhombic'
loop_
_space_group_symop_operation_xyz
x,y,z
-x,-y,z
x,-y,1/2-z
-x,y,1/2-z
-x,-y,-z
x,y,-z
-x,y,1/2+z
x,-y,1/2+z
1/2+x,1/2+y,z
1/2-x,1/2-y,z
1/2+x,1/2-y,1/2-z
1/2-x,1/2+y,1/2-z
1/2-x,1/2-y,-z
1/2+x,1/2+y,-z
1/2-x,1/2+y,1/2+z
1/2+x,1/2-y,1/2+z
loop_
_atom_site_type_symbol
_atom_site_label
_atom_site_fract_x
_atom_site_fract_y
_atom_site_fract_z
Si Si1 0.635927 0.281623 0.000000
Si Si2 0.500000 0.500000 0.250000
Si Si3 0.299949 0.500000 0.250000
Si Si4 0.192834 0.563248 0.500000
Si Si5 0.544269 0.715339 0.000000
O O1 0.647132 0.383824 0.851721
O O2 0.545045 0.217903 0.000000
O O3 0.690723 0.127763 0.000000
O O4 0.557492 0.393648 0.354773
O O5 0.243711 0.608779 0.355145
O O6 0.106765 0.643219 0.500000
#
# Coordination Sequence:
#
# PCOD8277507 Si02
#       5
#     8   4   8   8   8
#     4  11  24  50  78 122 162 221 268 341 399 501
#     4  10  26  50  74 126 158 212 256 340 414 498
#     4  10  23  48  81 121 173 208 266 328 429 472
#     4  11  26  48  81 124 155 219 272 346 390 495
#     4  11  25  50  83 116 164 213 275 335 407 481
#
# _framework density 27.939689000000001
#
# number of rings (size 3 to 8) (size 9 to 14) (size 15 to 20)
#    0.000    1.333    0.000    4.667    6.222    0.000 
#   16.000    8.889    0.000    0.000    0.000    0.000 
#    0.000    0.000    0.000    0.000    0.000    0.000 
#
# Total GULP energy -223215.542446 kJ/mol
# GULP energy per Si atom -12400.863469 kJ/mol
# Density = 2.787610 g / cm^3
# Si number density = 27.939689 Si / 1000 Ang^3
#
#
#
# Elastic Constant Matrix: (Units=GPa)
#
#
# Indices 1 2 3 4 5 6 
#
# 1 172.6661 49.6285 64.1330 0.0000 0.0000 0.0000
# 2 49.6285 154.3943 56.5963 0.0000 0.0000 0.0000
# 3 64.1330 56.5963 234.1673 0.0000 0.0000 0.0000
# 4 0.0000 0.0000 0.0000 10.4960 0.0000 0.0000
# 5 0.0000 0.0000 0.0000 0.0000 58.8298 0.0000
# 6 0.0000 0.0000 0.0000 0.0000 0.0000 69.1331
#
#
#
# Elastic Compliance Matrix: (Units=1/GPa)
#
#
# Indices 1 2 3 4 5 6 
#
# 1 0.006811 -0.001652 -0.001466 0.000000 0.000000 0.000000
# 2 -0.001652 0.007507 -0.001362 0.000000 0.000000 0.000000
# 3 -0.001466 -0.001362 0.005001 0.000000 0.000000 0.000000
# 4 0.000000 0.000000 0.000000 0.095275 0.000000 0.000000
# 5 0.000000 0.000000 0.000000 0.000000 0.016998 0.000000
# 6 0.000000 0.000000 0.000000 0.000000 0.000000 0.014465
#
#
# Mechanical properties :
#
#
# Convention : Reuss Voigt Hill
#
# Bulk Modulus (GPa) = 96.53198 100.21592 98.37395
# Shear Modulus (GPa) = 31.55175 53.74976 42.65076
#
# Velocity S-wave (km/s) = 3.36412 4.39085 3.91132
# Velocity P-wave (km/s) = 7.05088 7.85192 7.46215
#
# Compressibility (1/GPa) = 0.01035926
#
# Stress axis : x y z
#
# Youngs Moduli (GPa) = 146.82432 133.20600 199.95322
#
# Poissons Ratio (x) = 0.22004 0.29315
# Poissons Ratio (y) = 0.24253 0.27234
# Poissons Ratio (z) = 0.21526 0.18143
#
# Static dielectric constant tensor:
#      x y z
#    x 5.293400 0.000000 0.000000 
#    y 0.000000 4.691200 0.000000 
#    z 0.000000 0.000000 5.499040 
# 
# 
# High freq. dielectric constant tensor:
#      x y z
#    x 2.166770 0.000000 0.000000 
#    y 0.000000 2.115860 0.000000 
#    z 0.000000 0.000000 2.156470 
# 
# From -- ./inp_files/2385.got.cif
#   From: 2010.03.12/outbox.cif.g09.slc.cpg/sg66_2_cif.got.tgz:2385.got - 2010.04.10 21:57:39.
