data_PCOD8277680
_publ_section_title
;
Structure prediction by ZEFSAII (Michael W. Deem and Ramdas Pophale) SiO2 
 PCOD8277680
Probable space group: C C C M
;
_chemical_formula_sum "Si O2"
_cell_formula_units_Z 64
_cell_length_a 18.043742
_cell_length_b 11.348885
_cell_length_c 14.769567
_cell_angle_alpha 90.000000
_cell_angle_beta 90.000000
_cell_angle_gamma 90.000000
_cell_volume 3024.458065
_symmetry_space_group_name_H-M "C C C M"
_symmetry_group_IT_number 66
_symmetry_cell_setting 'orthorhombic'
loop_
_space_group_symop_operation_xyz
x,y,z
-x,-y,z
x,-y,1/2-z
-x,y,1/2-z
-x,-y,-z
x,y,-z
-x,y,1/2+z
x,-y,1/2+z
1/2+x,1/2+y,z
1/2-x,1/2-y,z
1/2+x,1/2-y,1/2-z
1/2-x,1/2+y,1/2-z
1/2-x,1/2-y,-z
1/2+x,1/2+y,-z
1/2-x,1/2+y,1/2+z
1/2+x,1/2-y,1/2+z
loop_
_atom_site_type_symbol
_atom_site_label
_atom_site_fract_x
_atom_site_fract_y
_atom_site_fract_z
Si Si1 0.073385 0.709331 0.189251
Si Si2 0.110712 0.921678 0.500000
Si Si3 0.662966 0.262178 0.655904
Si Si4 0.411278 0.015437 0.899229
Si Si5 0.553718 0.664111 0.500000
O O1 0.130455 0.792914 0.244557
O O2 0.115014 0.583525 0.172742
O O3 0.000000 0.693792 0.250000
O O4 0.057107 0.759148 0.090254
O O5 0.148961 0.869735 0.588813
O O6 0.025242 0.894534 0.500000
O O7 0.117908 0.063975 0.500000
O O8 0.750000 0.250000 0.661369
O O9 0.618932 0.144122 0.626437
O O10 0.500000 0.000000 0.897975
O O11 0.381226 0.988745 0.000000
#
# Coordination Sequence:
#
# PCOD8277680 Si02
#       5
#    16   8  16  16   8
#     4  12  23  44  72 103 137 175 235 300 344 412
#     4  11  23  45  70  97 136 182 234 281 351 431
#     4  12  26  45  68 103 145 185 226 287 365 424
#     4  11  21  39  73 104 135 171 229 303 353 404
#     4  11  24  45  71 100 132 179 241 294 339 405
#
# _framework density 21.160814999999999
#
# number of rings (size 3 to 8) (size 9 to 14) (size 15 to 20)
#    0.000    0.500    7.500    1.125    0.000    1.000 
#    9.000    0.625    0.000    0.000    0.000    0.000 
#    0.000    0.000    0.000    0.000    0.000    0.000 
#
# Total GULP energy -396498.891126 kJ/mol
# GULP energy per Si atom -12390.590348 kJ/mol
# Density = 2.111265 g / cm^3
# Si number density = 21.160815 Si / 1000 Ang^3
#
#
#
# Elastic Constant Matrix: (Units=GPa)
#
#
# Indices 1 2 3 4 5 6 
#
# 1 94.5014 17.4075 29.9686 0.0000 0.0000 0.0000
# 2 17.4075 82.0574 38.1417 0.0000 0.0000 0.0000
# 3 29.9686 38.1417 162.1056 0.0000 0.0000 0.0000
# 4 0.0000 0.0000 0.0000 14.4218 0.0000 0.0000
# 5 0.0000 0.0000 0.0000 0.0000 12.0986 0.0000
# 6 0.0000 0.0000 0.0000 0.0000 0.0000 21.0525
#
#
#
# Elastic Compliance Matrix: (Units=1/GPa)
#
#
# Indices 1 2 3 4 5 6 
#
# 1 0.011429 -0.001620 -0.001732 0.000000 0.000000 0.000000
# 2 -0.001620 0.013913 -0.002974 0.000000 0.000000 0.000000
# 3 -0.001732 -0.002974 0.007189 0.000000 0.000000 0.000000
# 4 0.000000 0.000000 0.000000 0.069340 0.000000 0.000000
# 5 0.000000 0.000000 0.000000 0.000000 0.082654 0.000000
# 6 0.000000 0.000000 0.000000 0.000000 0.000000 0.047500
#
#
# Mechanical properties :
#
#
# Convention : Reuss Voigt Hill
#
# Bulk Modulus (GPa) = 50.30273 56.63333 53.46803
# Shear Modulus (GPa) = 19.89634 26.39101 23.14367
#
# Velocity S-wave (km/s) = 3.06967 3.53535 3.31071
# Velocity P-wave (km/s) = 6.03217 6.59442 6.31955
#
# Compressibility (1/GPa) = 0.01987964
#
# Stress axis : x y z
#
# Youngs Moduli (GPa) = 87.49352 71.87743 139.10609
#
# Poissons Ratio (x) = 0.11641 0.24092
# Poissons Ratio (y) = 0.14171 0.41371
# Poissons Ratio (z) = 0.15153 0.21377
#
# Static dielectric constant tensor:
#      x y z
#    x 3.665520 0.000000 0.000000 
#    y 0.000000 4.586400 0.000000 
#    z 0.000000 0.000000 4.550670 
# 
# 
# High freq. dielectric constant tensor:
#      x y z
#    x 1.796610 0.000000 0.000000 
#    y 0.000000 1.825430 0.000000 
#    z 0.000000 0.000000 1.861210 
# 
# From -- ./inp_files/25843.got.cif
#   From: 2010.03.12/outbox.cif.g09.slc.cpg/sg66_13_cif.got.tgz:25843.got - 2010.04.10 21:57:39.
