data_PCOD8277974
_publ_section_title
;
Structure prediction by ZEFSAII (Michael W. Deem and Ramdas Pophale) SiO2 
 PCOD8277974
Probable space group: C M M A
;
_chemical_formula_sum "Si O2"
_cell_formula_units_Z 56
_cell_length_a 19.051722
_cell_length_b 14.403439
_cell_length_c 11.622547
_cell_angle_alpha 90.000000
_cell_angle_beta 90.000000
_cell_angle_gamma 90.000000
_cell_volume 3189.346791
_symmetry_space_group_name_H-M "C M M A"
_symmetry_group_IT_number 67
_symmetry_cell_setting 'orthorhombic'
loop_
_space_group_symop_operation_xyz
x,y,z
-x,1/2-y,z
x,-y,-z
-x,1/2+y,-z
-x,-y,-z
x,1/2+y,-z
-x,y,z
x,1/2-y,z
1/2+x,1/2+y,z
1/2-x,-y,z
1/2+x,1/2-y,-z
1/2-x,y,-z
1/2-x,1/2-y,-z
1/2+x,y,-z
1/2-x,1/2+y,z
1/2+x,-y,z
loop_
_atom_site_type_symbol
_atom_site_label
_atom_site_fract_x
_atom_site_fract_y
_atom_site_fract_z
Si Si1 0.582489 0.750000 0.437668
Si Si2 0.677004 0.398862 0.453029
Si Si3 0.839899 0.250000 0.205185
Si Si4 0.777502 0.899639 0.199672
Si Si5 0.671675 0.750000 0.957458
O O1 0.500000 0.750000 0.451258
O O2 0.612210 0.661245 0.504024
O O3 0.600224 0.750000 0.301691
O O4 0.664939 0.500000 0.500000
O O5 0.750000 0.355426 0.500000
O O6 0.678501 0.407977 0.316059
O O7 0.792440 0.159251 0.222163
O O8 0.874982 0.250000 0.075096
O O9 0.833166 0.846391 0.115050
O O10 0.750000 0.000000 0.153784
O O11 0.750000 0.750000 0.000000
#
# Coordination Sequence:
#
# PCOD8277974 Si02
#       5
#     8  16   8  16   8
#     4  12  23  34  52  75 109 153 180 212 261 318
#     4  11  19  33  55  81 106 138 174 218 274 320
#     4  10  19  32  44  70 105 131 175 217 253 309
#     4  10  16  29  52  77 102 128 162 216 278 309
#     4   8  19  27  42  72 101 128 165 213 252 308
#
# _framework density 17.558454000000001
#
# number of rings (size 3 to 8) (size 9 to 14) (size 15 to 20)
#    0.000    2.000    5.714    2.143    0.000    5.714 
#    0.000    0.000    0.000    3.429    0.000    8.000 
#    0.000    0.000    0.000    0.000    0.000    0.000 
#
# Total GULP energy -346903.497989 kJ/mol
# GULP energy per Si atom -12389.410642 kJ/mol
# Density = 1.751849 g / cm^3
# Si number density = 17.558454 Si / 1000 Ang^3
#
#
#
# Elastic Constant Matrix: (Units=GPa)
#
#
# Indices 1 2 3 4 5 6 
#
# 1 83.9281 39.9708 25.0650 0.0000 0.0000 0.0000
# 2 39.9708 135.9487 55.2855 0.0000 0.0000 0.0000
# 3 25.0650 55.2855 143.5964 0.0000 0.0000 0.0000
# 4 0.0000 0.0000 0.0000 34.3719 0.0000 0.0000
# 5 0.0000 0.0000 0.0000 0.0000 16.7827 0.0000
# 6 0.0000 0.0000 0.0000 0.0000 0.0000 18.1050
#
#
#
# Elastic Compliance Matrix: (Units=1/GPa)
#
#
# Indices 1 2 3 4 5 6 
#
# 1 0.013979 -0.003697 -0.001017 0.000000 0.000000 0.000000
# 2 -0.003697 0.009699 -0.003089 0.000000 0.000000 0.000000
# 3 -0.001017 -0.003089 0.008331 0.000000 0.000000 0.000000
# 4 0.000000 0.000000 0.000000 0.029094 0.000000 0.000000
# 5 0.000000 0.000000 0.000000 0.000000 0.059585 0.000000
# 6 0.000000 0.000000 0.000000 0.000000 0.000000 0.055233
#
#
# Mechanical properties :
#
#
# Convention : Reuss Voigt Hill
#
# Bulk Modulus (GPa) = 60.96076 67.12400 64.04238
# Shear Modulus (GPa) = 25.38161 30.06204 27.72183
#
# Velocity S-wave (km/s) = 3.80616 4.14226 3.97776
# Velocity P-wave (km/s) = 7.35595 7.82238 7.59274
#
# Compressibility (1/GPa) = 0.01640399
#
# Stress axis : x y z
#
# Youngs Moduli (GPa) = 71.53524 103.10706 120.03832
#
# Poissons Ratio (x) = 0.38114 0.12207
# Poissons Ratio (y) = 0.26443 0.37078
# Poissons Ratio (z) = 0.07274 0.31848
#
# Static dielectric constant tensor:
#      x y z
#    x 2.690900 0.000000 0.000000 
#    y 0.000000 3.190930 0.000000 
#    z 0.000000 0.000000 5.113690 
# 
# 
# High freq. dielectric constant tensor:
#      x y z
#    x 1.599300 0.000000 0.000000 
#    y 0.000000 1.696660 0.000000 
#    z 0.000000 0.000000 1.703880 
# 
# From -- ./inp_files/18921.got.cif
#   From: 2010.03.12/outbox.cif.g09.slc.cpg/sg67_10_cif.got.tgz:18921.got - 2010.04.10 22:41:39.
