data_PCOD8277991
_publ_section_title
;
Structure prediction by ZEFSAII (Michael W. Deem and Ramdas Pophale) SiO2 
 PCOD8277991
Probable space group: C M M A
;
_chemical_formula_sum "Si O2"
_cell_formula_units_Z 64
_cell_length_a 24.347721
_cell_length_b 22.854565
_cell_length_c 6.593055
_cell_angle_alpha 90.000000
_cell_angle_beta 90.000000
_cell_angle_gamma 90.000000
_cell_volume 3668.748786
_symmetry_space_group_name_H-M "C M M A"
_symmetry_group_IT_number 67
_symmetry_cell_setting 'orthorhombic'
loop_
_space_group_symop_operation_xyz
x,y,z
-x,1/2-y,z
x,-y,-z
-x,1/2+y,-z
-x,-y,-z
x,1/2+y,-z
-x,y,z
x,1/2-y,z
1/2+x,1/2+y,z
1/2-x,-y,z
1/2+x,1/2-y,-z
1/2-x,y,-z
1/2-x,1/2-y,-z
1/2+x,y,-z
1/2-x,1/2+y,z
1/2+x,-y,z
loop_
_atom_site_type_symbol
_atom_site_label
_atom_site_fract_x
_atom_site_fract_y
_atom_site_fract_z
Si Si1 0.750000 0.500000 0.500000
Si Si2 0.500000 0.250000 0.326442
Si Si3 0.088291 0.625119 0.839605
Si Si4 0.000000 0.565140 0.092455
Si Si5 0.302254 0.943470 0.125251
Si Si6 0.000000 0.121289 0.490756
Si Si7 0.938782 0.250000 0.060043
O O1 0.712991 0.540439 0.355538
O O2 0.500000 0.310167 0.451348
O O3 0.445347 0.250000 0.184645
O O4 0.149971 0.602884 0.849979
O O5 0.055316 0.608094 0.636364
O O6 0.094375 0.694443 0.861802
O O7 0.054470 0.599263 0.027114
O O8 0.000000 0.571706 0.335056
O O9 0.000000 0.500000 0.000000
O O10 0.250000 0.917287 0.000000
O O11 0.323409 0.000000 0.000000
O O12 0.000000 0.250000 0.160066
#
# Coordination Sequence:
#
# PCOD8277991 Si02
#       7
#     4   4  16   8  16   8   8
#     4   8  18  40  56  82 100 140 190 220 272 338
#     4  10  16  38  56  74 108 158 188 206 276 320
#     4  11  21  35  56  83 109 143 188 226 271 331
#     4  11  22  34  49  82 118 143 179 219 279 333
#     4   9  20  38  61  78 109 145 184 227 276 322
#     4  11  20  32  56  79 114 146 177 228 269 326
#     4  10  17  38  56  76 113 146 188 220 265 338
#
# _framework density 17.444638999999999
#
# number of rings (size 3 to 8) (size 9 to 14) (size 15 to 20)
#    0.375    1.750    5.000    1.500    0.000    8.000 
#    0.000    0.625    0.000    0.750    0.000    0.000 
#    0.000    0.000    0.000    0.000    0.000    0.000 
#
# Total GULP energy -396553.992322 kJ/mol
# GULP energy per Si atom -12392.312260 kJ/mol
# Density = 1.740493 g / cm^3
# Si number density = 17.444639 Si / 1000 Ang^3
#
#
#
# Elastic Constant Matrix: (Units=GPa)
#
#
# Indices 1 2 3 4 5 6 
#
# 1 140.7521 72.2487 52.6920 0.0000 0.0000 0.0000
# 2 72.2487 118.3126 39.0457 0.0000 0.0000 0.0000
# 3 52.6920 39.0457 124.2560 0.0000 0.0000 0.0000
# 4 0.0000 0.0000 0.0000 18.2222 0.0000 0.0000
# 5 0.0000 0.0000 0.0000 0.0000 2.8595 0.0000
# 6 0.0000 0.0000 0.0000 0.0000 0.0000 214.5487
#
#
#
# Elastic Compliance Matrix: (Units=1/GPa)
#
#
# Indices 1 2 3 4 5 6 
#
# 1 0.011216 -0.005890 -0.002905 0.000000 0.000000 0.000000
# 2 -0.005890 0.012524 -0.001438 0.000000 0.000000 0.000000
# 3 -0.002905 -0.001438 0.009732 0.000000 0.000000 0.000000
# 4 0.000000 0.000000 0.000000 0.054878 0.000000 0.000000
# 5 0.000000 0.000000 0.000000 0.000000 0.349706 0.000000
# 6 0.000000 0.000000 0.000000 0.000000 0.000000 0.004661
#
#
# Mechanical properties :
#
#
# Convention : Reuss Voigt Hill
#
# Bulk Modulus (GPa) = 76.89397 79.03262 77.96329
# Shear Modulus (GPa) = 10.69480 61.74836 36.22158
#
# Velocity S-wave (km/s) = 2.47871 5.95597 4.56167
# Velocity P-wave (km/s) = 7.23647 9.62815 8.51669
#
# Compressibility (1/GPa) = 0.01300492
#
# Stress axis : x y z
#
# Youngs Moduli (GPa) = 89.16003 79.84970 102.75776
#
# Poissons Ratio (x) = 0.47033 0.29854
# Poissons Ratio (y) = 0.52517 0.14772
# Poissons Ratio (z) = 0.25903 0.11479
#
# Static dielectric constant tensor:
#      x y z
#    x 3.099310 0.000000 0.000000 
#    y 0.000000 3.389320 0.000000 
#    z 0.000000 0.000000 3.384440 
# 
# 
# High freq. dielectric constant tensor:
#      x y z
#    x 1.648660 0.000000 0.000000 
#    y 0.000000 1.668050 0.000000 
#    z 0.000000 0.000000 1.687370 
# 
# From -- ./inp_files/2898.got.cif
#   From: 2010.03.12/outbox.cif.g09.slc.cpg/sg67_2_cif.got.tgz:2898.got - 2010.04.10 22:41:39.
