data_PCOD8277829
_publ_section_title
;
Structure prediction by ZEFSAII (Michael W. Deem and Ramdas Pophale) SiO2 
 PCOD8277829
Probable space group: C C C M
;
_chemical_formula_sum "Si O2"
_cell_formula_units_Z 64
_cell_length_a 13.181808
_cell_length_b 8.483551
_cell_length_c 26.996689
_cell_angle_alpha 90.000000
_cell_angle_beta 90.000000
_cell_angle_gamma 90.000000
_cell_volume 3019.000328
_symmetry_space_group_name_H-M "C C C M"
_symmetry_group_IT_number 66
_symmetry_cell_setting 'orthorhombic'
loop_
_space_group_symop_operation_xyz
x,y,z
-x,-y,z
x,-y,1/2-z
-x,y,1/2-z
-x,-y,-z
x,y,-z
-x,y,1/2+z
x,-y,1/2+z
1/2+x,1/2+y,z
1/2-x,1/2-y,z
1/2+x,1/2-y,1/2-z
1/2-x,1/2+y,1/2-z
1/2-x,1/2-y,-z
1/2+x,1/2+y,-z
1/2-x,1/2+y,1/2+z
1/2+x,1/2-y,1/2+z
loop_
_atom_site_type_symbol
_atom_site_label
_atom_site_fract_x
_atom_site_fract_y
_atom_site_fract_z
Si Si1 0.801994 0.902529 0.795343
Si Si2 0.149941 0.352149 0.057298
Si Si3 0.671429 0.879870 0.634037
Si Si4 0.477442 0.321649 0.130469
O O1 0.750000 0.750000 0.771342
O O2 0.888165 0.828440 0.829681
O O3 0.851138 0.000000 0.750000
O O4 0.718071 0.010396 0.822939
O O5 0.250000 0.250000 0.067056
O O6 0.151992 0.517596 0.085447
O O7 0.056154 0.254463 0.078836
O O8 0.131475 0.387270 0.000000
O O9 0.750000 0.750000 0.616428
O O10 0.570341 0.784466 0.651946
O O11 0.500000 0.500000 0.116813
#
# Coordination Sequence:
#
# PCOD8277829 Si02
#       4
#    16  16  16  16
#     4  12  26  48  69 103 138 183 236 292 350 415
#     4  11  23  44  73 104 141 182 230 287 351 421
#     4  12  23  45  70  99 142 184 227 290 348 407
#     4  12  24  44  72  97 140 183 228 287 348 414
#
# _framework density 21.199069999999999
#
# number of rings (size 3 to 8) (size 9 to 14) (size 15 to 20)
#    0.000    0.250    7.500    1.500    0.000    3.500 
#    0.000    1.250    0.000    0.000    0.000    0.000 
#    0.000    0.000    0.000    0.000    0.000    0.000 
#
# Total GULP energy -396684.839244 kJ/mol
# GULP energy per Si atom -12396.401226 kJ/mol
# Density = 2.115082 g / cm^3
# Si number density = 21.199070 Si / 1000 Ang^3
#
#
#
# Elastic Constant Matrix: (Units=GPa)
#
#
# Indices 1 2 3 4 5 6 
#
# 1 110.0635 42.7013 31.2593 0.0000 0.0000 0.0000
# 2 42.7013 146.1880 41.3502 0.0000 0.0000 0.0000
# 3 31.2593 41.3502 99.6705 0.0000 0.0000 0.0000
# 4 0.0000 0.0000 0.0000 -157.3485 0.0000 0.0000
# 5 0.0000 0.0000 0.0000 0.0000 -2.2535 0.0000
# 6 0.0000 0.0000 0.0000 0.0000 0.0000 58.3530
#
#
#
# Elastic Compliance Matrix: (Units=1/GPa)
#
#
# Indices 1 2 3 4 5 6 
#
# 1 0.010706 -0.002467 -0.002334 0.000000 0.000000 0.000000
# 2 -0.002467 0.008318 -0.002677 0.000000 0.000000 0.000000
# 3 -0.002334 -0.002677 0.011876 0.000000 0.000000 0.000000
# 4 0.000000 0.000000 0.000000 -0.006355 0.000000 0.000000
# 5 0.000000 0.000000 0.000000 0.000000 -0.443760 0.000000
# 6 0.000000 0.000000 0.000000 0.000000 0.000000 0.017137
#
#
# Mechanical properties :
#
#
# Convention : Reuss Voigt Hill
#
# Bulk Modulus (GPa) = 62.72292 65.17150 63.94721
# Shear Modulus (GPa) = -13.09562 -4.20905 -8.65233
#
# Velocity S-wave (km/s) = -2.48814 -1.41060 -2.02246
# Velocity P-wave (km/s) = 4.62573 5.30625 4.97763
#
# Compressibility (1/GPa) = 0.01594314
#
# Stress axis : x y z
#
# Youngs Moduli (GPa) = 93.40855 120.21563 84.20442
#
# Poissons Ratio (x) = 0.29656 0.19655
# Poissons Ratio (y) = 0.23043 0.22545
# Poissons Ratio (z) = 0.21803 0.32186
#
# Static dielectric constant tensor:
#      x y z
#    x 4.117430 0.000000 0.000000 
#    y 0.000000 21.883370 0.000000 
#    z 0.000000 0.000000 3.689510 
# 
# 
# High freq. dielectric constant tensor:
#      x y z
#    x 1.837450 0.000000 0.000000 
#    y 0.000000 1.863350 0.000000 
#    z 0.000000 0.000000 1.815840 
# 
# From -- ./inp_files/54977.got.cif
#   From: 2010.03.12/outbox.cif.g09.slc.cpg/sg66_28_cif.got.tgz:54977.got - 2010.04.10 21:57:39.
