data_PCOD8277198
_publ_section_title
;
Structure prediction by ZEFSAII (Michael W. Deem and Ramdas Pophale) SiO2 
 PCOD8277198
Probable space group: C C C M
;
_chemical_formula_sum "Si O2"
_cell_formula_units_Z 112
_cell_length_a 21.028673
_cell_length_b 11.364181
_cell_length_c 23.383916
_cell_angle_alpha 90.000000
_cell_angle_beta 90.000000
_cell_angle_gamma 90.000000
_cell_volume 5588.139668
_symmetry_space_group_name_H-M "C C C M"
_symmetry_group_IT_number 66
_symmetry_cell_setting 'orthorhombic'
loop_
_space_group_symop_operation_xyz
x,y,z
-x,-y,z
x,-y,1/2-z
-x,y,1/2-z
-x,-y,-z
x,y,-z
-x,y,1/2+z
x,-y,1/2+z
1/2+x,1/2+y,z
1/2-x,1/2-y,z
1/2+x,1/2-y,1/2-z
1/2-x,1/2+y,1/2-z
1/2-x,1/2-y,-z
1/2+x,1/2+y,-z
1/2-x,1/2+y,1/2+z
1/2+x,1/2-y,1/2+z
loop_
_atom_site_type_symbol
_atom_site_label
_atom_site_fract_x
_atom_site_fract_y
_atom_site_fract_z
Si Si1 0.417357 0.774945 0.150262
Si Si2 0.596464 0.624728 0.237163
Si Si3 0.277752 0.369260 0.171086
Si Si4 0.848838 0.498368 0.317666
Si Si5 0.139994 0.844118 0.563803
Si Si6 0.938653 0.068615 0.064265
Si Si7 0.558152 0.204671 0.642984
O O1 0.402791 0.706113 0.207888
O O2 0.414356 0.682575 0.098501
O O3 0.485740 0.840177 0.144219
O O4 0.365566 0.879934 0.149719
O O5 0.562893 0.500000 0.250000
O O6 0.666147 0.591618 0.212920
O O7 0.556884 0.689939 0.188745
O O8 0.250000 0.250000 0.198591
O O9 0.224704 0.471164 0.168449
O O10 0.301640 0.334305 0.107606
O O11 0.860932 0.500000 0.250000
O O12 0.893401 0.396977 0.341731
O O13 0.161052 0.805411 0.500000
O O14 0.080702 0.760535 0.582684
O O15 0.120067 0.979965 0.563955
O O16 0.956240 0.109832 0.000000
O O17 0.000000 0.000000 0.091089
#
# Coordination Sequence:
#
# PCOD8277198 Si02
#       7
#    16  16  16  16  16  16  16
#     4  12  23  37  64  94 126 168 214 261 333 394
#     4  11  23  35  58  92 123 163 213 274 309 374
#     4  11  21  42  62  87 128 168 224 261 309 390
#     4  12  24  42  59  88 133 183 205 257 336 392
#     4  10  21  40  68  95 121 159 212 274 327 372
#     4  10  21  40  65  92 125 162 204 266 336 389
#     4  11  22  39  58  93 130 162 212 261 321 400
#
# _framework density 20.042448
#
# number of rings (size 3 to 8) (size 9 to 14) (size 15 to 20)
#    0.000    1.000    5.714    3.000    0.000    1.429 
#    0.000    3.571    0.000    3.429    0.000    0.000 
#    0.000    0.000    0.000    0.000    0.000    0.000 
#
# Total GULP energy -694184.293433 kJ/mol
# GULP energy per Si atom -12396.148097 kJ/mol
# Density = 1.999683 g / cm^3
# Si number density = 20.042448 Si / 1000 Ang^3
#
#
#
# Elastic Constant Matrix: (Units=GPa)
#
#
# Indices 1 2 3 4 5 6 
#
# 1 96.3390 23.7695 22.5893 0.0000 0.0000 0.0000
# 2 23.7695 82.5257 29.7929 0.0000 0.0000 0.0000
# 3 22.5893 29.7929 107.8823 0.0000 0.0000 0.0000
# 4 0.0000 0.0000 0.0000 18.6335 0.0000 0.0000
# 5 0.0000 0.0000 0.0000 0.0000 16.6092 0.0000
# 6 0.0000 0.0000 0.0000 0.0000 0.0000 14.9420
#
#
#
# Elastic Compliance Matrix: (Units=1/GPa)
#
#
# Indices 1 2 3 4 5 6 
#
# 1 0.011432 -0.002698 -0.001649 0.000000 0.000000 0.000000
# 2 -0.002698 0.014096 -0.003328 0.000000 0.000000 0.000000
# 3 -0.001649 -0.003328 0.010534 0.000000 0.000000 0.000000
# 4 0.000000 0.000000 0.000000 0.053667 0.000000 0.000000
# 5 0.000000 0.000000 0.000000 0.000000 0.060208 0.000000
# 6 0.000000 0.000000 0.000000 0.000000 0.000000 0.066925
#
#
# Mechanical properties :
#
#
# Convention : Reuss Voigt Hill
#
# Bulk Modulus (GPa) = 48.27844 48.78339 48.53091
# Shear Modulus (GPa) = 20.91050 24.07662 22.49356
#
# Velocity S-wave (km/s) = 3.23354 3.46971 3.35370
# Velocity P-wave (km/s) = 6.17101 6.35962 6.26602
#
# Compressibility (1/GPa) = 0.02071318
#
# Stress axis : x y z
#
# Youngs Moduli (GPa) = 87.47240 70.94310 94.93394
#
# Poissons Ratio (x) = 0.19137 0.15653
# Poissons Ratio (y) = 0.23596 0.31593
# Poissons Ratio (z) = 0.14423 0.23609
#
# Static dielectric constant tensor:
#      x y z
#    x 3.763000 0.000000 0.000000 
#    y 0.000000 3.747720 0.000000 
#    z 0.000000 0.000000 3.895440 
# 
# 
# High freq. dielectric constant tensor:
#      x y z
#    x 1.780820 0.000000 0.000000 
#    y 0.000000 1.782420 0.000000 
#    z 0.000000 0.000000 1.773610 
# 
# From -- ./inp_files/59548.got.cif
#   From: 2010.03.12/outbox.cif.g09.slc.cpg/sg66_30_cif.got.tgz:59548.got - 2010.04.10 21:57:39.
