data_PCOD8277011
_publ_section_title
;
Structure prediction by ZEFSAII (Michael W. Deem and Ramdas Pophale) SiO2 
 PCOD8277011
Probable space group: C C C M
;
_chemical_formula_sum "Si O2"
_cell_formula_units_Z 88
_cell_length_a 23.086023
_cell_length_b 20.271930
_cell_length_c 9.424174
_cell_angle_alpha 90.000000
_cell_angle_beta 90.000000
_cell_angle_gamma 90.000000
_cell_volume 4410.496867
_symmetry_space_group_name_H-M "C C C M"
_symmetry_group_IT_number 66
_symmetry_cell_setting 'orthorhombic'
loop_
_space_group_symop_operation_xyz
x,y,z
-x,-y,z
x,-y,1/2-z
-x,y,1/2-z
-x,-y,-z
x,y,-z
-x,y,1/2+z
x,-y,1/2+z
1/2+x,1/2+y,z
1/2-x,1/2-y,z
1/2+x,1/2-y,1/2-z
1/2-x,1/2+y,1/2-z
1/2-x,1/2-y,-z
1/2+x,1/2+y,-z
1/2-x,1/2+y,1/2+z
1/2+x,1/2-y,1/2+z
loop_
_atom_site_type_symbol
_atom_site_label
_atom_site_fract_x
_atom_site_fract_y
_atom_site_fract_z
Si Si1 0.152606 0.793382 0.333316
Si Si2 0.168771 0.356949 0.160606
Si Si3 0.947082 0.434284 0.663896
Si Si4 0.271713 0.609379 0.160287
Si Si5 0.144286 0.000000 0.750000
Si Si6 0.443245 0.608285 0.658415
O O1 0.163723 0.804403 0.500000
O O2 0.159871 0.718022 0.288139
O O3 0.201214 0.830627 0.246060
O O4 0.089514 0.824376 0.293217
O O5 0.105319 0.385053 0.169762
O O6 0.210058 0.400874 0.261729
O O7 0.193193 0.360166 0.000000
O O8 0.930883 0.500000 0.750000
O O9 0.963610 0.449836 0.500000
O O10 0.000000 0.400399 0.750000
O O11 0.312718 0.544827 0.155697
O O12 0.259950 0.631161 0.000000
O O13 0.102615 0.047836 0.839994
O O14 0.500000 0.593926 0.750000
O O15 0.466755 0.615650 0.500000
#
# Coordination Sequence:
#
# PCOD8277011 Si02
#       6
#    16  16  16  16   8  16
#     4   9  20  40  59  79 115 158 191 228 287 351
#     4  10  22  39  60  84 114 154 192 228 285 354
#     4  10  21  38  59  83 112 146 185 231 285 341
#     4  11  23  37  58  87 116 148 194 245 286 331
#     4  10  23  40  56  80 119 160 192 232 292 352
#     4  10  21  37  59  84 113 151 194 237 284 340
#
# _framework density 19.952400000000001
#
# number of rings (size 3 to 8) (size 9 to 14) (size 15 to 20)
#    0.000    2.000    0.000    3.000    1.273   11.636 
#    0.000    0.000    0.000    0.000    0.000    0.000 
#    0.000    0.000    0.000    0.000    0.000    0.000 
#
# Total GULP energy -545343.243761 kJ/mol
# GULP energy per Si atom -12394.164631 kJ/mol
# Density = 1.990699 g / cm^3
# Si number density = 19.952400 Si / 1000 Ang^3
#
#
#
# Elastic Constant Matrix: (Units=GPa)
#
#
# Indices 1 2 3 4 5 6 
#
# 1 106.3800 50.4403 40.7007 0.0000 0.0000 0.0000
# 2 50.4403 59.7679 36.3058 0.0000 0.0000 0.0000
# 3 40.7007 36.3058 100.4281 0.0000 0.0000 0.0000
# 4 0.0000 0.0000 0.0000 -12.8266 0.0000 0.0000
# 5 0.0000 0.0000 0.0000 0.0000 11.6254 0.0000
# 6 0.0000 0.0000 0.0000 0.0000 0.0000 25.7956
#
#
#
# Elastic Compliance Matrix: (Units=1/GPa)
#
#
# Indices 1 2 3 4 5 6 
#
# 1 0.015995 -0.012251 -0.002053 0.000000 0.000000 0.000000
# 2 -0.012251 0.030824 -0.006178 0.000000 0.000000 0.000000
# 3 -0.002053 -0.006178 0.013023 0.000000 0.000000 0.000000
# 4 0.000000 0.000000 0.000000 -0.077963 0.000000 0.000000
# 5 0.000000 0.000000 0.000000 0.000000 0.086019 0.000000
# 6 0.000000 0.000000 0.000000 0.000000 0.000000 0.038766
#
#
# Mechanical properties :
#
#
# Convention : Reuss Voigt Hill
#
# Bulk Modulus (GPa) = 52.97682 57.94107 55.45894
# Shear Modulus (GPa) = 32.48430 14.19416 23.33923
#
# Velocity S-wave (km/s) = 4.03934 2.67010 3.42386
# Velocity P-wave (km/s) = 6.95444 6.21358 6.59442
#
# Compressibility (1/GPa) = 0.01887618
#
# Stress axis : x y z
#
# Youngs Moduli (GPa) = 62.52006 32.44275 76.78804
#
# Poissons Ratio (x) = 0.39747 0.15767
# Poissons Ratio (y) = 0.76596 0.47439
# Poissons Ratio (z) = 0.12837 0.20043
#
# Static dielectric constant tensor:
#      x y z
#    x 3.740940 0.000000 0.000000 
#    y 0.000000 3.618690 0.000000 
#    z 0.000000 0.000000 3.644430 
# 
# 
# High freq. dielectric constant tensor:
#      x y z
#    x 1.787330 0.000000 0.000000 
#    y 0.000000 1.774770 0.000000 
#    z 0.000000 0.000000 1.775320 
# 
# From -- ./inp_files/9004.got.cif
#   From: 2010.03.12/outbox.cif.g09.slc.cpg/sg66_5_cif.got.tgz:9004.got - 2010.04.10 21:57:39.
