data_PCOD8277081
_publ_section_title
;
Structure prediction by ZEFSAII (Michael W. Deem and Ramdas Pophale) SiO2 
 PCOD8277081
Probable space group: C C C M
;
_chemical_formula_sum "Si O2"
_cell_formula_units_Z 64
_cell_length_a 14.077003
_cell_length_b 7.913071
_cell_length_c 27.004886
_cell_angle_alpha 90.000000
_cell_angle_beta 90.000000
_cell_angle_gamma 90.000000
_cell_volume 3008.137016
_symmetry_space_group_name_H-M "C C C M"
_symmetry_group_IT_number 66
_symmetry_cell_setting 'orthorhombic'
loop_
_space_group_symop_operation_xyz
x,y,z
-x,-y,z
x,-y,1/2-z
-x,y,1/2-z
-x,-y,-z
x,y,-z
-x,y,1/2+z
x,-y,1/2+z
1/2+x,1/2+y,z
1/2-x,1/2-y,z
1/2+x,1/2-y,1/2-z
1/2-x,1/2+y,1/2-z
1/2-x,1/2-y,-z
1/2+x,1/2+y,-z
1/2-x,1/2+y,1/2+z
1/2+x,1/2-y,1/2+z
loop_
_atom_site_type_symbol
_atom_site_label
_atom_site_fract_x
_atom_site_fract_y
_atom_site_fract_z
Si Si1 0.980838 0.191565 0.856894
Si Si2 0.830114 0.380698 0.617467
Si Si3 0.669695 0.118649 0.795354
Si Si4 0.643005 0.810502 0.443866
O O1 0.923319 0.280810 0.812904
O O2 0.924590 0.198709 0.908923
O O3 0.080043 0.286243 0.860437
O O4 0.000000 0.000000 0.841847
O O5 0.750000 0.250000 0.600270
O O6 0.788818 0.506400 0.659482
O O7 0.862499 0.491195 0.570254
O O8 0.750000 0.250000 0.778119
O O9 0.640837 0.000000 0.750000
O O10 0.607795 0.787149 0.500000
O O11 0.750000 0.750000 0.436674
#
# Coordination Sequence:
#
# PCOD8277081 Si02
#       4
#    16  16  16  16
#     4  11  23  40  63  90 123 163 203 250 303 361
#     4  11  22  39  62  88 121 160 202 250 305 359
#     4  11  23  41  63  90 120 154 197 247 305 364
#     4  10  21  38  61  90 124 162 205 253 304 362
#
# _framework density 21.275625999999999
#
# number of rings (size 3 to 8) (size 9 to 14) (size 15 to 20)
#    0.000    1.250    0.000    9.750    0.000    5.000 
#    0.000    1.250    0.000    0.000    0.000    0.000 
#    0.000    0.000    0.000    0.000    0.000    0.000 
#
# Total GULP energy -396981.929114 kJ/mol
# GULP energy per Si atom -12405.685285 kJ/mol
# Density = 2.122720 g / cm^3
# Si number density = 21.275626 Si / 1000 Ang^3
#
#
#
# Elastic Constant Matrix: (Units=GPa)
#
#
# Indices 1 2 3 4 5 6 
#
# 1 109.7202 48.1263 32.8002 0.0000 0.0000 0.0000
# 2 48.1263 137.7335 45.9191 0.0000 0.0000 0.0000
# 3 32.8002 45.9191 122.6016 0.0000 0.0000 0.0000
# 4 0.0000 0.0000 0.0000 30.3304 0.0000 0.0000
# 5 0.0000 0.0000 0.0000 0.0000 23.4738 0.0000
# 6 0.0000 0.0000 0.0000 0.0000 0.0000 44.7689
#
#
#
# Elastic Compliance Matrix: (Units=1/GPa)
#
#
# Indices 1 2 3 4 5 6 
#
# 1 0.011076 -0.003293 -0.001730 0.000000 0.000000 0.000000
# 2 -0.003293 0.009276 -0.002593 0.000000 0.000000 0.000000
# 3 -0.001730 -0.002593 0.009590 0.000000 0.000000 0.000000
# 4 0.000000 0.000000 0.000000 0.032970 0.000000 0.000000
# 5 0.000000 0.000000 0.000000 0.000000 0.042601 0.000000
# 6 0.000000 0.000000 0.000000 0.000000 0.000000 0.022337
#
#
# Mechanical properties :
#
#
# Convention : Reuss Voigt Hill
#
# Bulk Modulus (GPa) = 67.98218 69.30517 68.64367
# Shear Modulus (GPa) = 33.78721 35.92860 34.85790
#
# Velocity S-wave (km/s) = 3.98938 4.11386 4.05210
# Velocity P-wave (km/s) = 7.29676 7.43040 7.36388
#
# Compressibility (1/GPa) = 0.01470974
#
# Stress axis : x y z
#
# Youngs Moduli (GPa) = 90.28755 107.80921 104.27077
#
# Poissons Ratio (x) = 0.35506 0.18035
# Poissons Ratio (y) = 0.29735 0.27037
# Poissons Ratio (z) = 0.15616 0.27955
#
# Static dielectric constant tensor:
#      x y z
#    x 3.905600 0.000000 0.000000 
#    y 0.000000 5.175100 0.000000 
#    z 0.000000 0.000000 3.804250 
# 
# 
# High freq. dielectric constant tensor:
#      x y z
#    x 1.839990 0.000000 0.000000 
#    y 0.000000 1.847100 0.000000 
#    z 0.000000 0.000000 1.824780 
# 
# From -- ./inp_files/67888.got.cif
#   From: 2010.03.12/outbox.cif.g09.slc.cpg/sg66_34_cif.got.tgz:67888.got - 2010.04.10 21:57:39.
