data_PCOD8277511
_publ_section_title
;
Structure prediction by ZEFSAII (Michael W. Deem and Ramdas Pophale) SiO2 
 PCOD8277511
Probable space group: C C C M
;
_chemical_formula_sum "Si O2"
_cell_formula_units_Z 64
_cell_length_a 25.959616
_cell_length_b 5.010535
_cell_length_c 22.489701
_cell_angle_alpha 90.000000
_cell_angle_beta 90.000000
_cell_angle_gamma 90.000000
_cell_volume 2925.270595
_symmetry_space_group_name_H-M "C C C M"
_symmetry_group_IT_number 66
_symmetry_cell_setting 'orthorhombic'
loop_
_space_group_symop_operation_xyz
x,y,z
-x,-y,z
x,-y,1/2-z
-x,y,1/2-z
-x,-y,-z
x,y,-z
-x,y,1/2+z
x,-y,1/2+z
1/2+x,1/2+y,z
1/2-x,1/2-y,z
1/2+x,1/2-y,1/2-z
1/2-x,1/2+y,1/2-z
1/2-x,1/2-y,-z
1/2+x,1/2+y,-z
1/2-x,1/2+y,1/2+z
1/2+x,1/2-y,1/2+z
loop_
_atom_site_type_symbol
_atom_site_label
_atom_site_fract_x
_atom_site_fract_y
_atom_site_fract_z
Si Si1 0.610148 0.641446 0.932391
Si Si2 0.944348 0.257939 0.210640
Si Si3 0.648986 0.847925 0.636238
Si Si4 0.500000 0.500000 0.889766
Si Si5 0.750000 0.750000 0.708084
O O1 0.638959 0.367949 0.915388
O O2 0.547801 0.615550 0.927890
O O3 0.633417 0.863822 0.889034
O O4 0.623829 0.713333 0.000000
O O5 0.964087 0.500000 0.250000
O O6 0.885000 0.285545 0.193989
O O7 0.952661 0.000000 0.250000
O O8 0.978302 0.240813 0.150709
O O9 0.706101 0.843287 0.662164
O O10 0.734160 0.500000 0.750000
#
# Coordination Sequence:
#
# PCOD8277511 Si02
#       5
#    16  16  16   8   8
#     4  11  24  44  64  89 125 168 215 269 316 367
#     4  11  22  37  56  87 125 161 196 249 313 379
#     4  11  24  42  64  94 125 163 214 261 316 389
#     4  10  24  38  62  90 124 168 218 258 312 388
#     4  12  24  44  71 100 131 168 206 260 328 398
#
# _framework density 21.878319999999999
#
# number of rings (size 3 to 8) (size 9 to 14) (size 15 to 20)
#    0.000    1.000    0.000    7.500    0.000   12.000 
#    0.000   10.000    0.000    0.000    0.000    0.000 
#    0.000    0.000    0.000    0.000    0.000    0.000 
#
# Total GULP energy -396731.532854 kJ/mol
# GULP energy per Si atom -12397.860402 kJ/mol
# Density = 2.182852 g / cm^3
# Si number density = 21.878320 Si / 1000 Ang^3
#
#
#
# Elastic Constant Matrix: (Units=GPa)
#
#
# Indices 1 2 3 4 5 6 
#
# 1 141.4915 18.7128 45.6303 0.0000 0.0000 0.0000
# 2 18.7128 129.8958 30.7315 0.0000 0.0000 0.0000
# 3 45.6303 30.7315 107.3905 0.0000 0.0000 0.0000
# 4 0.0000 0.0000 0.0000 -60.3500 0.0000 0.0000
# 5 0.0000 0.0000 0.0000 0.0000 24.3649 0.0000
# 6 0.0000 0.0000 0.0000 0.0000 0.0000 28.4157
#
#
#
# Elastic Compliance Matrix: (Units=1/GPa)
#
#
# Indices 1 2 3 4 5 6 
#
# 1 0.008208 -0.000383 -0.003378 0.000000 0.000000 0.000000
# 2 -0.000383 0.008275 -0.002205 0.000000 0.000000 0.000000
# 3 -0.003378 -0.002205 0.011378 0.000000 0.000000 0.000000
# 4 0.000000 0.000000 0.000000 -0.016570 0.000000 0.000000
# 5 0.000000 0.000000 0.000000 0.000000 0.041043 0.000000
# 6 0.000000 0.000000 0.000000 0.000000 0.000000 0.035192
#
#
# Mechanical properties :
#
#
# Convention : Reuss Voigt Hill
#
# Bulk Modulus (GPa) = 62.78051 63.21413 62.99732
# Shear Modulus (GPa) = 47.72471 17.39968 32.56219
#
# Velocity S-wave (km/s) = 4.67558 2.82315 3.86208
# Velocity P-wave (km/s) = 7.60958 6.29151 6.98172
#
# Compressibility (1/GPa) = 0.01592851
#
# Stress axis : x y z
#
# Youngs Moduli (GPa) = 121.83915 120.83960 87.88831
#
# Poissons Ratio (x) = 0.04631 0.29686
# Poissons Ratio (y) = 0.04670 0.19382
# Poissons Ratio (z) = 0.41154 0.26649
#
# Static dielectric constant tensor:
#      x y z
#    x 3.459670 0.000000 0.000000 
#    y 0.000000 3.967420 0.000000 
#    z 0.000000 0.000000 3.879360 
# 
# 
# High freq. dielectric constant tensor:
#      x y z
#    x 1.865010 0.000000 0.000000 
#    y 0.000000 1.871270 0.000000 
#    z 0.000000 0.000000 1.856440 
# 
# From -- ./inp_files/52769.got.cif
#   From: 2010.03.12/outbox.cif.g09.slc.cpg/sg66_27_cif.got.tgz:52769.got - 2010.04.10 21:57:39.
