data_PCOD8277989
_publ_section_title
;
Structure prediction by ZEFSAII (Michael W. Deem and Ramdas Pophale) SiO2 
 PCOD8277989
Probable space group: C M M A
;
_chemical_formula_sum "Si O2"
_cell_formula_units_Z 80
_cell_length_a 25.350446
_cell_length_b 17.894915
_cell_length_c 9.870253
_cell_angle_alpha 90.000000
_cell_angle_beta 90.000000
_cell_angle_gamma 90.000000
_cell_volume 4477.581806
_symmetry_space_group_name_H-M "C M M A"
_symmetry_group_IT_number 67
_symmetry_cell_setting 'orthorhombic'
loop_
_space_group_symop_operation_xyz
x,y,z
-x,1/2-y,z
x,-y,-z
-x,1/2+y,-z
-x,-y,-z
x,1/2+y,-z
-x,y,z
x,1/2-y,z
1/2+x,1/2+y,z
1/2-x,-y,z
1/2+x,1/2-y,-z
1/2-x,y,-z
1/2-x,1/2-y,-z
1/2+x,y,-z
1/2-x,1/2+y,z
1/2+x,-y,z
loop_
_atom_site_type_symbol
_atom_site_label
_atom_site_fract_x
_atom_site_fract_y
_atom_site_fract_z
Si Si1 0.186410 0.661607 0.358708
Si Si2 0.196797 0.162929 0.340996
Si Si3 0.112203 0.427141 0.835622
Si Si4 0.112734 0.096638 0.148859
Si Si5 0.000000 0.661701 0.854968
Si Si6 0.000000 0.572068 0.103129
O O1 0.179628 0.750000 0.344692
O O2 0.177176 0.632790 0.512842
O O3 0.244134 0.633290 0.308266
O O4 0.142432 0.624722 0.266771
O O5 0.203328 0.250000 0.359909
O O6 0.156273 0.147026 0.221220
O O7 0.129520 0.512442 0.815648
O O8 0.050188 0.427922 0.799565
O O9 0.118515 0.394740 0.987359
O O10 0.054051 0.121960 0.200386
O O11 0.000000 0.750000 0.820430
O O12 0.000000 0.648518 0.016023
O O13 0.000000 0.500000 0.000000
#
# Coordination Sequence:
#
# PCOD8277989 Si02
#       6
#    16  16  16  16   8   8
#     4   9  20  37  54  74 103 141 185 224 271 323
#     4   9  19  37  55  72 104 144 178 227 275 317
#     4  10  19  33  55  78 106 141 170 223 268 322
#     4  10  19  33  53  79 108 138 174 216 272 321
#     4  10  18  30  53  81 103 137 181 213 253 322
#     4  10  16  36  53  73 114 145 165 214 279 321
#
# _framework density 17.866786999999999
#
# number of rings (size 3 to 8) (size 9 to 14) (size 15 to 20)
#    0.000    2.400    4.000    1.800    0.000    6.400 
#    0.000    7.000    0.000    4.800    0.000    0.000 
#    0.000    0.000    0.000    0.000    0.000    0.000 
#
# Total GULP energy -495572.607605 kJ/mol
# GULP energy per Si atom -12389.315190 kJ/mol
# Density = 1.782612 g / cm^3
# Si number density = 17.866787 Si / 1000 Ang^3
#
#
#
# Elastic Constant Matrix: (Units=GPa)
#
#
# Indices 1 2 3 4 5 6 
#
# 1 128.7881 37.7812 58.1182 0.0000 0.0000 0.0000
# 2 37.7812 62.1073 33.8266 0.0000 0.0000 0.0000
# 3 58.1182 33.8266 66.6750 0.0000 0.0000 0.0000
# 4 0.0000 0.0000 0.0000 24.8763 0.0000 0.0000
# 5 0.0000 0.0000 0.0000 0.0000 -2.3698 0.0000
# 6 0.0000 0.0000 0.0000 0.0000 0.0000 28.4894
#
#
#
# Elastic Compliance Matrix: (Units=1/GPa)
#
#
# Indices 1 2 3 4 5 6 
#
# 1 0.013055 -0.002410 -0.010157 0.000000 0.000000 0.000000
# 2 -0.002410 0.022694 -0.009413 0.000000 0.000000 0.000000
# 3 -0.010157 -0.009413 0.028627 0.000000 0.000000 0.000000
# 4 0.000000 0.000000 0.000000 0.040199 0.000000 0.000000
# 5 0.000000 0.000000 0.000000 0.000000 -0.421984 0.000000
# 6 0.000000 0.000000 0.000000 0.000000 0.000000 0.035101
#
#
# Mechanical properties :
#
#
# Convention : Reuss Voigt Hill
#
# Bulk Modulus (GPa) = 48.97968 57.44693 53.21331
# Shear Modulus (GPa) = -21.59434 18.72213 -1.43610
#
# Velocity S-wave (km/s) = -3.48031 3.24060 -0.89751
# Velocity P-wave (km/s) = 3.36501 6.79887 5.36414
#
# Compressibility (1/GPa) = 0.02041663
#
# Stress axis : x y z
#
# Youngs Moduli (GPa) = 76.59743 44.06494 34.93155
#
# Poissons Ratio (x) = 0.10618 0.35481
# Poissons Ratio (y) = 0.18457 0.32881
# Poissons Ratio (z) = 0.77802 0.41478
#
# Static dielectric constant tensor:
#      x y z
#    x 3.484150 0.000000 0.000000 
#    y 0.000000 3.244860 0.000000 
#    z 0.000000 0.000000 3.038950 
# 
# 
# High freq. dielectric constant tensor:
#      x y z
#    x 1.704220 0.000000 0.000000 
#    y 0.000000 1.688020 0.000000 
#    z 0.000000 0.000000 1.660430 
# 
# From -- ./inp_files/13575.got.cif
#   From: 2010.03.12/outbox.cif.g09.slc.cpg/sg67_7_cif.got.tgz:13575.got - 2010.04.10 22:41:39.
