data_PCOD8277788
_publ_section_title
;
Structure prediction by ZEFSAII (Michael W. Deem and Ramdas Pophale) SiO2 
 PCOD8277788
Probable space group: C C C M
;
_chemical_formula_sum "Si O2"
_cell_formula_units_Z 64
_cell_length_a 20.868016
_cell_length_b 9.648678
_cell_length_c 15.312773
_cell_angle_alpha 90.000000
_cell_angle_beta 90.000000
_cell_angle_gamma 90.000000
_cell_volume 3083.207961
_symmetry_space_group_name_H-M "C C C M"
_symmetry_group_IT_number 66
_symmetry_cell_setting 'orthorhombic'
loop_
_space_group_symop_operation_xyz
x,y,z
-x,-y,z
x,-y,1/2-z
-x,y,1/2-z
-x,-y,-z
x,y,-z
-x,y,1/2+z
x,-y,1/2+z
1/2+x,1/2+y,z
1/2-x,1/2-y,z
1/2+x,1/2-y,1/2-z
1/2-x,1/2+y,1/2-z
1/2-x,1/2-y,-z
1/2+x,1/2+y,-z
1/2-x,1/2+y,1/2+z
1/2+x,1/2-y,1/2+z
loop_
_atom_site_type_symbol
_atom_site_label
_atom_site_fract_x
_atom_site_fract_y
_atom_site_fract_z
Si Si1 0.780902 0.039589 0.348728
Si Si2 0.968057 0.157725 0.000000
Si Si3 0.658889 0.829519 0.102275
Si Si4 0.019726 0.653534 0.652521
Si Si5 0.815014 0.153455 0.000000
O O1 0.705182 0.044524 0.369302
O O2 0.810049 0.185922 0.371961
O O3 0.795477 0.000000 0.250000
O O4 0.813090 0.928246 0.410198
O O5 0.994522 0.230599 0.913345
O O6 0.891123 0.193562 0.000000
O O7 0.000000 0.000000 0.000000
O O8 0.595714 0.847389 0.157112
O O9 0.644479 0.836405 0.000000
O O10 0.000000 0.500000 0.622367
O O11 0.000000 0.692642 0.750000
O O12 0.750000 0.250000 0.000000
#
# Coordination Sequence:
#
# PCOD8277788 Si02
#       5
#    16   8  16  16   8
#     4  11  25  42  69 100 137 179 226 286 348 418
#     4  12  27  48  72 103 147 189 230 291 364 425
#     4  11  22  47  73  92 134 186 233 279 348 420
#     4  11  27  45  73 103 138 184 239 293 347 420
#     4  12  28  41  66 105 144 172 230 291 345 412
#
# _framework density 20.757601000000001
#
# number of rings (size 3 to 8) (size 9 to 14) (size 15 to 20)
#    0.000    0.750    3.750    2.625   14.000    0.500 
#    0.000    0.000    0.000    0.000    0.000    0.000 
#    0.000    0.000    0.000    0.000    0.000    0.000 
#
# Total GULP energy -396459.644573 kJ/mol
# GULP energy per Si atom -12389.363893 kJ/mol
# Density = 2.071036 g / cm^3
# Si number density = 20.757601 Si / 1000 Ang^3
#
#
#
# Elastic Constant Matrix: (Units=GPa)
#
#
# Indices 1 2 3 4 5 6 
#
# 1 128.9270 13.7850 0.4165 0.0000 0.0000 0.0000
# 2 13.7850 82.1345 29.4980 0.0000 0.0000 0.0000
# 3 0.4165 29.4980 144.4579 0.0000 0.0000 0.0000
# 4 0.0000 0.0000 0.0000 -7.3353 0.0000 0.0000
# 5 0.0000 0.0000 0.0000 0.0000 38.6108 0.0000
# 6 0.0000 0.0000 0.0000 0.0000 0.0000 31.7544
#
#
#
# Elastic Compliance Matrix: (Units=1/GPa)
#
#
# Indices 1 2 3 4 5 6 
#
# 1 0.007908 -0.001423 0.000268 0.000000 0.000000 0.000000
# 2 -0.001423 0.013395 -0.002731 0.000000 0.000000 0.000000
# 3 0.000268 -0.002731 0.007479 0.000000 0.000000 0.000000
# 4 0.000000 0.000000 0.000000 -0.136327 0.000000 0.000000
# 5 0.000000 0.000000 0.000000 0.000000 0.025899 0.000000
# 6 0.000000 0.000000 0.000000 0.000000 0.000000 0.031492
#
#
# Mechanical properties :
#
#
# Convention : Reuss Voigt Hill
#
# Bulk Modulus (GPa) = 47.59947 49.21316 48.40632
# Shear Modulus (GPa) = -141.33026 33.39398 -53.96814
#
# Velocity S-wave (km/s) = -8.26038 4.01529 -5.10447
# Velocity P-wave (km/s) = 8.24606 6.72731 3.37201
#
# Compressibility (1/GPa) = 0.02100864
#
# Stress axis : x y z
#
# Youngs Moduli (GPa) = 126.45982 74.65527 133.70161
#
# Poissons Ratio (x) = 0.10626 -0.03581
# Poissons Ratio (y) = 0.18000 0.36515
# Poissons Ratio (z) = -0.03387 0.20389
#
# Static dielectric constant tensor:
#      x y z
#    x 4.476940 0.000000 0.000000 
#    y 0.000000 3.946810 0.000000 
#    z 0.000000 0.000000 3.799740 
# 
# 
# High freq. dielectric constant tensor:
#      x y z
#    x 1.837850 0.000000 0.000000 
#    y 0.000000 1.809390 0.000000 
#    z 0.000000 0.000000 1.828070 
# 
# From -- ./inp_files/42425.got.cif
#   From: 2010.03.12/outbox.cif.g09.slc.cpg/sg66_22_cif.got.tgz:42425.got - 2010.04.10 21:57:39.
