data_PCOD8277913
_publ_section_title
;
Structure prediction by ZEFSAII (Michael W. Deem and Ramdas Pophale) SiO2 
 PCOD8277913
Probable space group: C C C M
;
_chemical_formula_sum "Si O2"
_cell_formula_units_Z 48
_cell_length_a 16.884698
_cell_length_b 7.837662
_cell_length_c 14.377262
_cell_angle_alpha 90.000000
_cell_angle_beta 90.000000
_cell_angle_gamma 90.000000
_cell_volume 1902.637336
_symmetry_space_group_name_H-M "C C C M"
_symmetry_group_IT_number 66
_symmetry_cell_setting 'orthorhombic'
loop_
_space_group_symop_operation_xyz
x,y,z
-x,-y,z
x,-y,1/2-z
-x,y,1/2-z
-x,-y,-z
x,y,-z
-x,y,1/2+z
x,-y,1/2+z
1/2+x,1/2+y,z
1/2-x,1/2-y,z
1/2+x,1/2-y,1/2-z
1/2-x,1/2+y,1/2-z
1/2-x,1/2-y,-z
1/2+x,1/2+y,-z
1/2-x,1/2+y,1/2+z
1/2+x,1/2-y,1/2+z
loop_
_atom_site_type_symbol
_atom_site_label
_atom_site_fract_x
_atom_site_fract_y
_atom_site_fract_z
Si Si1 0.608311 0.925726 0.894508
Si Si2 0.750000 0.750000 0.824605
Si Si3 0.124525 0.000000 0.750000
Si Si4 0.960709 0.775002 0.389558
O O1 0.701506 0.886014 0.886684
O O2 0.550520 0.774391 0.855068
O O3 0.592176 0.113713 0.853369
O O4 0.580897 0.940189 0.000000
O O5 0.817217 0.841251 0.765639
O O6 0.069472 0.053998 0.662209
O O7 0.953691 0.812767 0.500000
#
# Coordination Sequence:
#
# PCOD8277913 Si02
#       4
#    16   8   8  16
#     4   9  20  42  69  95 126 169 221 278 335 393
#     4  12  25  38  57  96 138 172 214 274 336 392
#     4  12  26  43  64  99 138 180 222 273 332 398
#     4   9  21  44  70  94 128 178 228 270 324 397
#
# _framework density 25.228138999999999
#
# number of rings (size 3 to 8) (size 9 to 14) (size 15 to 20)
#    0.000    2.000    0.000    4.500    0.000    6.667 
#    0.000   10.833    0.000    0.000    0.000    4.667 
#    0.000    0.000    0.000    0.000    0.000    0.000 
#
# Total GULP energy -297452.160372 kJ/mol
# GULP energy per Si atom -12393.840016 kJ/mol
# Density = 2.517072 g / cm^3
# Si number density = 25.228139 Si / 1000 Ang^3
#
#
#
# Elastic Constant Matrix: (Units=GPa)
#
#
# Indices 1 2 3 4 5 6 
#
# 1 171.1206 46.5681 54.1315 0.0000 0.0000 0.0000
# 2 46.5681 117.8556 45.0820 0.0000 0.0000 0.0000
# 3 54.1315 45.0820 87.9431 0.0000 0.0000 0.0000
# 4 0.0000 0.0000 0.0000 32.8735 0.0000 0.0000
# 5 0.0000 0.0000 0.0000 0.0000 -15.5745 0.0000
# 6 0.0000 0.0000 0.0000 0.0000 0.0000 48.1454
#
#
#
# Elastic Compliance Matrix: (Units=1/GPa)
#
#
# Indices 1 2 3 4 5 6 
#
# 1 0.007459 -0.001482 -0.003832 0.000000 0.000000 0.000000
# 2 -0.001482 0.010849 -0.004649 0.000000 0.000000 0.000000
# 3 -0.003832 -0.004649 0.016113 0.000000 0.000000 0.000000
# 4 0.000000 0.000000 0.000000 0.030420 0.000000 0.000000
# 5 0.000000 0.000000 0.000000 0.000000 -0.064208 0.000000
# 6 0.000000 0.000000 0.000000 0.000000 0.000000 0.020770
#
#
# Mechanical properties :
#
#
# Convention : Reuss Voigt Hill
#
# Bulk Modulus (GPa) = 68.98782 74.27584 71.63183
# Shear Modulus (GPa) = 108.31648 28.49808 68.40728
#
# Velocity S-wave (km/s) = 6.55957 3.36462 5.21290
# Velocity P-wave (km/s) = 9.20737 6.67831 8.04287
#
# Compressibility (1/GPa) = 0.01449531
#
# Stress axis : x y z
#
# Youngs Moduli (GPa) = 134.06326 92.17535 62.06156
#
# Poissons Ratio (x) = 0.13657 0.23781
# Poissons Ratio (y) = 0.19863 0.28855
# Poissons Ratio (z) = 0.51371 0.42857
#
# Static dielectric constant tensor:
#      x y z
#    x 4.661170 0.000000 0.000000 
#    y 0.000000 4.822800 0.000000 
#    z 0.000000 0.000000 4.168280 
# 
# 
# High freq. dielectric constant tensor:
#      x y z
#    x 2.018600 0.000000 0.000000 
#    y 0.000000 2.028590 0.000000 
#    z 0.000000 0.000000 1.985390 
# 
# From -- ./inp_files/29346.got.cif
#   From: 2010.03.12/outbox.cif.g09.slc.cpg/sg66_15_cif.got.tgz:29346.got - 2010.04.10 21:57:39.
