data_PCOD8277328
_publ_section_title
;
Structure prediction by ZEFSAII (Michael W. Deem and Ramdas Pophale) SiO2 
 PCOD8277328
Probable space group: C C C M
;
_chemical_formula_sum "Si O2"
_cell_formula_units_Z 80
_cell_length_a 16.828903
_cell_length_b 10.156501
_cell_length_c 21.765036
_cell_angle_alpha 90.000000
_cell_angle_beta 90.000000
_cell_angle_gamma 90.000000
_cell_volume 3720.140245
_symmetry_space_group_name_H-M "C C C M"
_symmetry_group_IT_number 66
_symmetry_cell_setting 'orthorhombic'
loop_
_space_group_symop_operation_xyz
x,y,z
-x,-y,z
x,-y,1/2-z
-x,y,1/2-z
-x,-y,-z
x,y,-z
-x,y,1/2+z
x,-y,1/2+z
1/2+x,1/2+y,z
1/2-x,1/2-y,z
1/2+x,1/2-y,1/2-z
1/2-x,1/2+y,1/2-z
1/2-x,1/2-y,-z
1/2+x,1/2+y,-z
1/2-x,1/2+y,1/2+z
1/2+x,1/2-y,1/2+z
loop_
_atom_site_type_symbol
_atom_site_label
_atom_site_fract_x
_atom_site_fract_y
_atom_site_fract_z
Si Si1 0.241370 0.094917 0.126118
Si Si2 0.203268 0.616629 0.500000
Si Si3 0.980779 0.652947 0.000000
Si Si4 0.969089 0.300658 0.131284
Si Si5 0.587213 0.462696 0.178857
Si Si6 0.397085 0.047661 0.816500
O O1 0.250000 0.250000 0.119879
O O2 0.302062 0.059231 0.180907
O O3 0.154119 0.039982 0.140705
O O4 0.272207 0.033898 0.061158
O O5 0.250000 0.750000 0.500000
O O6 0.113181 0.663197 0.500000
O O7 0.000000 0.500000 0.000000
O O8 0.016326 0.729121 0.940638
O O9 0.911728 0.193845 0.165066
O O10 0.923149 0.438665 0.134182
O O11 0.055048 0.317177 0.166446
O O12 0.500000 0.500000 0.153922
O O13 0.597983 0.500000 0.250000
O O14 0.423826 0.000000 0.750000
#
# Coordination Sequence:
#
# PCOD8277328 Si02
#       6
#    16   8   8  16  16  16
#     4  11  23  43  66  95 132 184 223 284 351 416
#     4  10  22  39  67  93 133 171 231 273 337 412
#     4  12  20  43  71 103 134 180 226 291 344 423
#     4  11  23  41  68 102 133 175 228 284 345 410
#     4  11  27  43  64  96 138 178 221 290 350 408
#     4  11  23  39  69  98 132 178 234 279 342 435
#
# _framework density 21.504564999999999
#
# number of rings (size 3 to 8) (size 9 to 14) (size 15 to 20)
#    0.000    1.000    4.000    3.000   11.200    1.600 
#    0.000    1.000    0.000    3.600    0.000    0.000 
#    0.000    0.000    0.000    0.000    0.000    0.000 
#
# Total GULP energy -495693.191873 kJ/mol
# GULP energy per Si atom -12392.329797 kJ/mol
# Density = 2.145562 g / cm^3
# Si number density = 21.504565 Si / 1000 Ang^3
#
#
#
# Elastic Constant Matrix: (Units=GPa)
#
#
# Indices 1 2 3 4 5 6 
#
# 1 142.6305 39.7438 45.8337 0.0000 0.0000 0.0000
# 2 39.7438 81.9147 37.7479 0.0000 0.0000 0.0000
# 3 45.8337 37.7479 168.3594 0.0000 0.0000 0.0000
# 4 0.0000 0.0000 0.0000 24.1537 0.0000 0.0000
# 5 0.0000 0.0000 0.0000 0.0000 27.4489 0.0000
# 6 0.0000 0.0000 0.0000 0.0000 0.0000 37.8539
#
#
#
# Elastic Compliance Matrix: (Units=1/GPa)
#
#
# Indices 1 2 3 4 5 6 
#
# 1 0.008451 -0.003390 -0.001540 0.000000 0.000000 0.000000
# 2 -0.003390 0.014975 -0.002434 0.000000 0.000000 0.000000
# 3 -0.001540 -0.002434 0.006905 0.000000 0.000000 0.000000
# 4 0.000000 0.000000 0.000000 0.041402 0.000000 0.000000
# 5 0.000000 0.000000 0.000000 0.000000 0.036431 0.000000
# 6 0.000000 0.000000 0.000000 0.000000 0.000000 0.026417
#
#
# Mechanical properties :
#
#
# Convention : Reuss Voigt Hill
#
# Bulk Modulus (GPa) = 64.10364 71.06170 67.58267
# Shear Modulus (GPa) = 32.36012 35.86325 34.11168
#
# Velocity S-wave (km/s) = 3.88339 4.08818 3.98710
# Velocity P-wave (km/s) = 7.06977 7.44318 7.25888
#
# Compressibility (1/GPa) = 0.01559974
#
# Stress axis : x y z
#
# Youngs Moduli (GPa) = 118.33104 66.77965 144.82492
#
# Poissons Ratio (x) = 0.22641 0.22310
# Poissons Ratio (y) = 0.40118 0.35257
# Poissons Ratio (z) = 0.18229 0.16257
#
# Static dielectric constant tensor:
#      x y z
#    x 4.082990 0.000000 0.000000 
#    y 0.000000 3.775190 0.000000 
#    z 0.000000 0.000000 4.697060 
# 
# 
# High freq. dielectric constant tensor:
#      x y z
#    x 1.850570 0.000000 0.000000 
#    y 0.000000 1.816150 0.000000 
#    z 0.000000 0.000000 1.855610 
# 
# From -- ./inp_files/50845.got.cif
#   From: 2010.03.12/outbox.cif.g09.slc.cpg/sg66_26_cif.got.tgz:50845.got - 2010.04.10 21:57:39.
