data_PCOD8277033
_publ_section_title
;
Structure prediction by ZEFSAII (Michael W. Deem and Ramdas Pophale) SiO2 
 PCOD8277033
Probable space group: C C C M
;
_chemical_formula_sum "Si O2"
_cell_formula_units_Z 112
_cell_length_a 22.423437
_cell_length_b 13.566234
_cell_length_c 17.087898
_cell_angle_alpha 90.000000
_cell_angle_beta 90.000000
_cell_angle_gamma 90.000000
_cell_volume 5198.165800
_symmetry_space_group_name_H-M "C C C M"
_symmetry_group_IT_number 66
_symmetry_cell_setting 'orthorhombic'
loop_
_space_group_symop_operation_xyz
x,y,z
-x,-y,z
x,-y,1/2-z
-x,y,1/2-z
-x,-y,-z
x,y,-z
-x,y,1/2+z
x,-y,1/2+z
1/2+x,1/2+y,z
1/2-x,1/2-y,z
1/2+x,1/2-y,1/2-z
1/2-x,1/2+y,1/2-z
1/2-x,1/2-y,-z
1/2+x,1/2+y,-z
1/2-x,1/2+y,1/2+z
1/2+x,1/2-y,1/2+z
loop_
_atom_site_type_symbol
_atom_site_label
_atom_site_fract_x
_atom_site_fract_y
_atom_site_fract_z
Si Si1 0.433289 0.773961 0.335312
Si Si2 0.056467 0.064385 0.090270
Si Si3 0.034545 0.388390 0.411428
Si Si4 0.880837 0.442811 0.412501
Si Si5 0.367654 0.217292 0.672501
Si Si6 0.161671 0.084778 0.589620
Si Si7 0.720574 0.052251 0.173258
O O1 0.442914 0.661046 0.356942
O O2 0.494006 0.836703 0.345456
O O3 0.386439 0.826636 0.394200
O O4 0.410223 0.782410 0.247636
O O5 0.117249 0.005573 0.104937
O O6 0.049109 0.095433 0.000000
O O7 0.000000 0.000000 0.117223
O O8 0.012153 0.364906 0.500000
O O9 0.051884 0.506646 0.402303
O O10 0.099705 0.338234 0.399193
O O11 0.857342 0.459307 0.500000
O O12 0.835152 0.486119 0.351339
O O13 0.354485 0.328706 0.648841
O O14 0.304650 0.162301 0.689511
O O15 0.157251 0.120646 0.500000
O O16 0.228926 0.050802 0.606984
O O17 0.747864 0.000000 0.250000
#
# Coordination Sequence:
#
# PCOD8277033 Si02
#       7
#    16  16  16  16  16  16  16
#     4  12  22  38  62  96 132 175 213 267 332 405
#     4  10  23  43  67  95 132 171 216 273 327 385
#     4  10  21  37  62  93 132 173 220 269 323 394
#     4  10  21  39  64  95 131 175 222 269 331 404
#     4  11  24  40  64  97 127 171 215 277 335 385
#     4  11  25  45  70  96 126 175 232 276 325 392
#     4  11  23  43  65  94 134 169 215 278 339 390
#
# _framework density 21.546061000000002
#
# number of rings (size 3 to 8) (size 9 to 14) (size 15 to 20)
#    0.000    1.286    1.429    4.286    2.000    4.571 
#    0.000    2.857    0.000    2.571    0.000    0.000 
#    0.000    0.000    0.000    0.000    0.000    0.000 
#
# Total GULP energy -694424.916334 kJ/mol
# GULP energy per Si atom -12400.444935 kJ/mol
# Density = 2.149702 g / cm^3
# Si number density = 21.546061 Si / 1000 Ang^3
#
#
#
# Elastic Constant Matrix: (Units=GPa)
#
#
# Indices 1 2 3 4 5 6 
#
# 1 103.2291 39.8386 45.3614 0.0000 0.0000 0.0000
# 2 39.8386 126.2907 46.3542 0.0000 0.0000 0.0000
# 3 45.3614 46.3542 96.6208 0.0000 0.0000 0.0000
# 4 0.0000 0.0000 0.0000 32.3980 0.0000 0.0000
# 5 0.0000 0.0000 0.0000 0.0000 37.1735 0.0000
# 6 0.0000 0.0000 0.0000 0.0000 0.0000 20.6082
#
#
#
# Elastic Compliance Matrix: (Units=1/GPa)
#
#
# Indices 1 2 3 4 5 6 
#
# 1 0.012692 -0.002205 -0.004901 0.000000 0.000000 0.000000
# 2 -0.002205 0.009994 -0.003759 0.000000 0.000000 0.000000
# 3 -0.004901 -0.003759 0.014454 0.000000 0.000000 0.000000
# 4 0.000000 0.000000 0.000000 0.030866 0.000000 0.000000
# 5 0.000000 0.000000 0.000000 0.000000 0.026901 0.000000
# 6 0.000000 0.000000 0.000000 0.000000 0.000000 0.048524
#
#
# Mechanical properties :
#
#
# Convention : Reuss Voigt Hill
#
# Bulk Modulus (GPa) = 64.89473 65.47211 65.18342
# Shear Modulus (GPa) = 29.36050 31.00836 30.18443
#
# Velocity S-wave (km/s) = 3.69546 3.79775 3.74695
# Velocity P-wave (km/s) = 6.95651 7.04866 7.00273
#
# Compressibility (1/GPa) = 0.01540957
#
# Stress axis : x y z
#
# Youngs Moduli (GPa) = 78.79252 100.06406 69.18474
#
# Poissons Ratio (x) = 0.22062 0.33905
# Poissons Ratio (y) = 0.17372 0.26009
# Poissons Ratio (z) = 0.38613 0.37618
#
# Static dielectric constant tensor:
#      x y z
#    x 3.891280 0.000000 0.000000 
#    y 0.000000 3.883630 0.000000 
#    z 0.000000 0.000000 3.747560 
# 
# 
# High freq. dielectric constant tensor:
#      x y z
#    x 1.850110 0.000000 0.000000 
#    y 0.000000 1.850130 0.000000 
#    z 0.000000 0.000000 1.844210 
# 
# From -- ./inp_files/32441.got.cif
#   From: 2010.03.12/outbox.cif.g09.slc.cpg/sg66_17_cif.got.tgz:32441.got - 2010.04.10 21:57:39.
