data_PCOD8277092
_publ_section_title
;
Structure prediction by ZEFSAII (Michael W. Deem and Ramdas Pophale) SiO2 
 PCOD8277092
Probable space group: C C C M
;
_chemical_formula_sum "Si O2"
_cell_formula_units_Z 112
_cell_length_a 22.019512
_cell_length_b 17.132263
_cell_length_c 14.806277
_cell_angle_alpha 90.000000
_cell_angle_beta 90.000000
_cell_angle_gamma 90.000000
_cell_volume 5585.580208
_symmetry_space_group_name_H-M "C C C M"
_symmetry_group_IT_number 66
_symmetry_cell_setting 'orthorhombic'
loop_
_space_group_symop_operation_xyz
x,y,z
-x,-y,z
x,-y,1/2-z
-x,y,1/2-z
-x,-y,-z
x,y,-z
-x,y,1/2+z
x,-y,1/2+z
1/2+x,1/2+y,z
1/2-x,1/2-y,z
1/2+x,1/2-y,1/2-z
1/2-x,1/2+y,1/2-z
1/2-x,1/2-y,-z
1/2+x,1/2+y,-z
1/2-x,1/2+y,1/2+z
1/2+x,1/2-y,1/2+z
loop_
_atom_site_type_symbol
_atom_site_label
_atom_site_fract_x
_atom_site_fract_y
_atom_site_fract_z
Si Si1 0.922770 0.301605 0.104797
Si Si2 0.354314 0.643867 0.103100
Si Si3 0.434037 0.493378 0.103821
Si Si4 0.639318 0.652247 0.894330
Si Si5 0.129562 0.408013 0.246830
Si Si6 0.936505 0.693836 0.104221
Si Si7 0.260711 0.338646 0.750804
O O1 0.887826 0.223011 0.133335
O O2 0.894792 0.373234 0.159520
O O3 0.993425 0.291514 0.128469
O O4 0.913142 0.320301 0.000000
O O5 0.402166 0.575511 0.115164
O O6 0.297785 0.624387 0.167414
O O7 0.330950 0.648931 0.000000
O O8 0.500000 0.500000 0.150812
O O9 0.394963 0.423311 0.147212
O O10 0.443251 0.469204 0.000000
O O11 0.598807 0.727189 0.872284
O O12 0.703409 0.658914 0.844832
O O13 0.653617 0.643673 0.000000
O O14 0.120943 0.500000 0.250000
O O15 0.090277 0.376031 0.163412
O O16 0.199819 0.387019 0.233871
O O17 0.928311 0.670346 0.000000
O O18 0.250000 0.250000 0.722349
#
# Coordination Sequence:
#
# PCOD8277092 Si02
#       7
#    16  16  16  16  16  16  16
#     4  10  21  40  66  92 118 153 198 247 305 367
#     4  10  21  38  62  91 123 160 198 242 296 355
#     4   9  18  35  61  95 130 159 191 240 300 358
#     4  10  21  38  62  91 123 160 198 242 296 355
#     4  12  27  43  60  87 122 158 201 255 301 343
#     4  10  21  40  66  92 118 153 198 247 305 367
#     4  12  24  42  61  83 118 158 208 248 286 350
#
# _framework density 20.051632000000001
#
# number of rings (size 3 to 8) (size 9 to 14) (size 15 to 20)
#    0.000    1.571    2.857    1.286    2.000    6.857 
#    0.000    4.286    0.000    0.000    0.000    0.000 
#    0.000    0.000    0.000    0.000    0.000    0.000 
#
# Total GULP energy -694614.884930 kJ/mol
# GULP energy per Si atom -12403.837231 kJ/mol
# Density = 2.000599 g / cm^3
# Si number density = 20.051632 Si / 1000 Ang^3
#
#
#
# Elastic Constant Matrix: (Units=GPa)
#
#
# Indices 1 2 3 4 5 6 
#
# 1 107.7449 22.5154 42.9727 0.0000 0.0000 0.0000
# 2 22.5154 121.3099 32.0928 0.0000 0.0000 0.0000
# 3 42.9727 32.0928 77.7159 0.0000 0.0000 0.0000
# 4 0.0000 0.0000 0.0000 21.5439 0.0000 0.0000
# 5 0.0000 0.0000 0.0000 0.0000 31.6846 0.0000
# 6 0.0000 0.0000 0.0000 0.0000 0.0000 24.9580
#
#
#
# Elastic Compliance Matrix: (Units=1/GPa)
#
#
# Indices 1 2 3 4 5 6 
#
# 1 0.011937 -0.000527 -0.006383 0.000000 0.000000 0.000000
# 2 -0.000527 0.009278 -0.003540 0.000000 0.000000 0.000000
# 3 -0.006383 -0.003540 0.017859 0.000000 0.000000 0.000000
# 4 0.000000 0.000000 0.000000 0.046417 0.000000 0.000000
# 5 0.000000 0.000000 0.000000 0.000000 0.031561 0.000000
# 6 0.000000 0.000000 0.000000 0.000000 0.000000 0.040067
#
#
# Mechanical properties :
#
#
# Convention : Reuss Voigt Hill
#
# Bulk Modulus (GPa) = 55.02417 55.77029 55.39723
# Shear Modulus (GPa) = 27.16270 29.58328 28.37299
#
# Velocity S-wave (km/s) = 3.68453 3.84520 3.76572
# Velocity P-wave (km/s) = 6.75292 6.89839 6.82604
#
# Compressibility (1/GPa) = 0.01817383
#
# Stress axis : x y z
#
# Youngs Moduli (GPa) = 83.77276 107.78625 55.99550
#
# Poissons Ratio (x) = 0.05680 0.35742
# Poissons Ratio (y) = 0.04414 0.19821
# Poissons Ratio (z) = 0.53472 0.38154
#
# Static dielectric constant tensor:
#      x y z
#    x 3.826540 0.000000 0.000000 
#    y 0.000000 3.596460 0.000000 
#    z 0.000000 0.000000 3.647210 
# 
# 
# High freq. dielectric constant tensor:
#      x y z
#    x 1.791190 0.000000 0.000000 
#    y 0.000000 1.780840 0.000000 
#    z 0.000000 0.000000 1.787320 
# 
# From -- ./inp_files/32440.got.cif
#   From: 2010.03.12/outbox.cif.g09.slc.cpg/sg66_17_cif.got.tgz:32440.got - 2010.04.10 21:57:39.
