data_PCOD8277945
_publ_section_title
;
Structure prediction by ZEFSAII (Michael W. Deem and Ramdas Pophale) SiO2 
 PCOD8277945
Probable space group: C M M A
;
_chemical_formula_sum "Si O2"
_cell_formula_units_Z 96
_cell_length_a 19.774585
_cell_length_b 8.794130
_cell_length_c 30.700255
_cell_angle_alpha 90.000000
_cell_angle_beta 90.000000
_cell_angle_gamma 90.000000
_cell_volume 5338.782670
_symmetry_space_group_name_H-M "C M M A"
_symmetry_group_IT_number 67
_symmetry_cell_setting 'orthorhombic'
loop_
_space_group_symop_operation_xyz
x,y,z
-x,1/2-y,z
x,-y,-z
-x,1/2+y,-z
-x,-y,-z
x,1/2+y,-z
-x,y,z
x,1/2-y,z
1/2+x,1/2+y,z
1/2-x,-y,z
1/2+x,1/2-y,-z
1/2-x,y,-z
1/2-x,1/2-y,-z
1/2+x,y,-z
1/2-x,1/2+y,z
1/2+x,-y,z
loop_
_atom_site_type_symbol
_atom_site_label
_atom_site_fract_x
_atom_site_fract_y
_atom_site_fract_z
Si Si1 0.674836 0.930785 0.043107
Si Si2 0.677448 0.574208 0.776609
Si Si3 0.176811 0.572262 0.127694
Si Si4 0.078394 0.075710 0.389664
Si Si5 0.320802 0.428934 0.454115
Si Si6 0.576813 0.425874 0.710405
O O1 0.675983 0.750000 0.040465
O O2 0.750000 0.000000 0.044715
O O3 0.637430 0.987710 0.087679
O O4 0.638232 0.000000 0.000000
O O5 0.691162 0.750000 0.770649
O O6 0.750000 0.500000 0.769527
O O7 0.644352 0.542315 0.824628
O O8 0.625094 0.522297 0.740647
O O9 0.181613 0.750000 0.116598
O O10 0.250000 0.500000 0.131159
O O11 0.094909 0.250000 0.401790
O O12 0.096779 0.044303 0.339541
O O13 0.000000 0.040643 0.398394
O O14 0.122165 0.962857 0.418711
O O15 0.343450 0.500000 0.500000
O O16 0.311926 0.250000 0.459647
O O17 0.250000 0.500000 0.438339
O O18 0.500000 0.478404 0.718650
O O19 0.585336 0.250000 0.722165
#
# Coordination Sequence:
#
# PCOD8277945 Si02
#       6
#    16  16  16  16  16  16
#     4  10  16  22  33  50  75 110 149 188 232 283
#     4  10  20  32  49  72  99 131 166 207 250 297
#     4   9  16  26  38  56  83 115 152 193 238 284
#     4   9  19  37  58  79 104 134 169 209 252 297
#     4  11  22  37  57  80 108 140 173 209 250 295
#     4   9  19  36  56  76 101 133 167 207 253 298
#
# _framework density 17.981627
#
# number of rings (size 3 to 8) (size 9 to 14) (size 15 to 20)
#    0.000    2.333    0.000    7.000    0.000    4.333 
#    0.000    1.667    0.000    0.000    0.000    0.000 
#    0.000    0.667    0.000    2.167    0.000    8.667 
#
# Total GULP energy -594915.617333 kJ/mol
# GULP energy per Si atom -12394.075361 kJ/mol
# Density = 1.794070 g / cm^3
# Si number density = 17.981627 Si / 1000 Ang^3
#
#
#
# Elastic Constant Matrix: (Units=GPa)
#
#
# Indices 1 2 3 4 5 6 
#
# 1 55.3288 38.8028 56.4592 0.0000 0.0000 0.0000
# 2 38.8028 132.7311 66.1991 0.0000 0.0000 0.0000
# 3 56.4592 66.1991 125.2027 0.0000 0.0000 0.0000
# 4 0.0000 0.0000 0.0000 32.4250 0.0000 0.0000
# 5 0.0000 0.0000 0.0000 0.0000 -23.8514 0.0000
# 6 0.0000 0.0000 0.0000 0.0000 0.0000 23.4938
#
#
#
# Elastic Compliance Matrix: (Units=1/GPa)
#
#
# Indices 1 2 3 4 5 6 
#
# 1 0.034424 -0.003153 -0.013856 0.000000 0.000000 0.000000
# 2 -0.003153 0.010521 -0.004141 0.000000 0.000000 0.000000
# 3 -0.013856 -0.004141 0.016425 0.000000 0.000000 0.000000
# 4 0.000000 0.000000 0.000000 0.030840 0.000000 0.000000
# 5 0.000000 0.000000 0.000000 0.000000 -0.041926 0.000000
# 6 0.000000 0.000000 0.000000 0.000000 0.000000 0.042564
#
#
# Mechanical properties :
#
#
# Convention : Reuss Voigt Hill
#
# Bulk Modulus (GPa) = 52.43898 70.68722 61.56310
# Shear Modulus (GPa) = 35.33408 16.53357 25.93383
#
# Velocity S-wave (km/s) = 4.43765 3.03557 3.80180
# Velocity P-wave (km/s) = 7.44868 7.18904 7.32001
#
# Compressibility (1/GPa) = 0.01906978
#
# Stress axis : x y z
#
# Youngs Moduli (GPa) = 29.04918 95.04702 60.88265
#
# Poissons Ratio (x) = 0.29967 0.84361
# Poissons Ratio (y) = 0.09159 0.25212
# Poissons Ratio (z) = 0.40252 0.39360
#
# Static dielectric constant tensor:
#      x y z
#    x 2.882890 0.000000 0.000000 
#    y 0.000000 3.355050 0.000000 
#    z 0.000000 0.000000 4.237400 
# 
# 
# High freq. dielectric constant tensor:
#      x y z
#    x 1.641070 0.000000 0.000000 
#    y 0.000000 1.708220 0.000000 
#    z 0.000000 0.000000 1.719920 
# 
# From -- ./inp_files/44613.got.cif
#   From: 2010.03.12/outbox.cif.g09.slc.cpg/sg67_23_cif.got.tgz:44613.got - 2010.04.10 22:41:39.
