data_PCOD8277898
_publ_section_title
;
Structure prediction by ZEFSAII (Michael W. Deem and Ramdas Pophale) SiO2 
 PCOD8277898
Probable space group: C C C M
;
_chemical_formula_sum "Si O2"
_cell_formula_units_Z 40
_cell_length_a 8.300526
_cell_length_b 13.284139
_cell_length_c 12.096930
_cell_angle_alpha 90.000000
_cell_angle_beta 90.000000
_cell_angle_gamma 90.000000
_cell_volume 1333.872113
_symmetry_space_group_name_H-M "C C C M"
_symmetry_group_IT_number 66
_symmetry_cell_setting 'orthorhombic'
loop_
_space_group_symop_operation_xyz
x,y,z
-x,-y,z
x,-y,1/2-z
-x,y,1/2-z
-x,-y,-z
x,y,-z
-x,y,1/2+z
x,-y,1/2+z
1/2+x,1/2+y,z
1/2-x,1/2-y,z
1/2+x,1/2-y,1/2-z
1/2-x,1/2+y,1/2-z
1/2-x,1/2-y,-z
1/2+x,1/2+y,-z
1/2-x,1/2+y,1/2+z
1/2+x,1/2-y,1/2+z
loop_
_atom_site_type_symbol
_atom_site_label
_atom_site_fract_x
_atom_site_fract_y
_atom_site_fract_z
Si Si1 0.767155 0.553253 0.129895
Si Si2 0.398166 0.155496 0.629823
Si Si3 0.000000 0.162451 0.750000
O O1 0.783208 0.436410 0.179413
O O2 0.593947 0.596940 0.159667
O O3 0.916453 0.626464 0.162130
O O4 0.780318 0.537819 0.000000
O O5 0.373013 0.162304 0.500000
O O6 0.373885 0.267876 0.679800
#
# Coordination Sequence:
#
# PCOD8277898 Si02
#       3
#    16  16   8
#     4   9  20  40  68 108 155 198 246 308 374 443
#     4   9  20  41  70 106 152 199 242 303 378 445
#     4  12  20  33  76 121 142 186 256 310 366 442
#
# _framework density 29.987881999999999
#
# number of rings (size 3 to 8) (size 9 to 14) (size 15 to 20)
#    0.000    2.400    0.000    4.800    0.000    6.400 
#    0.000    0.000    0.000   50.400    0.000  114.800 
#    0.000   16.000    0.000    0.000    0.000    0.000 
#
# Total GULP energy -248241.370033 kJ/mol
# GULP energy per Si atom -12412.068502 kJ/mol
# Density = 2.991963 g / cm^3
# Si number density = 29.987882 Si / 1000 Ang^3
#
#
#
# Elastic Constant Matrix: (Units=GPa)
#
#
# Indices 1 2 3 4 5 6 
#
# 1 120.0856 65.0135 18.8274 0.0000 0.0000 0.0000
# 2 65.0135 238.1463 61.7753 0.0000 0.0000 0.0000
# 3 18.8274 61.7753 80.2507 0.0000 0.0000 0.0000
# 4 0.0000 0.0000 0.0000 43.1587 0.0000 0.0000
# 5 0.0000 0.0000 0.0000 0.0000 62.7583 0.0000
# 6 0.0000 0.0000 0.0000 0.0000 0.0000 37.2520
#
#
#
# Elastic Compliance Matrix: (Units=1/GPa)
#
#
# Indices 1 2 3 4 5 6 
#
# 1 0.009777 -0.002592 -0.000299 0.000000 0.000000 0.000000
# 2 -0.002592 0.005934 -0.003960 0.000000 0.000000 0.000000
# 3 -0.000299 -0.003960 0.015579 0.000000 0.000000 0.000000
# 4 0.000000 0.000000 0.000000 0.023170 0.000000 0.000000
# 5 0.000000 0.000000 0.000000 0.000000 0.015934 0.000000
# 6 0.000000 0.000000 0.000000 0.000000 0.000000 0.026844
#
#
# Mechanical properties :
#
#
# Convention : Reuss Voigt Hill
#
# Bulk Modulus (GPa) = 56.85073 81.07943 68.96508
# Shear Modulus (GPa) = 42.80731 48.15824 45.48278
#
# Velocity S-wave (km/s) = 3.78231 4.01174 3.89871
# Velocity P-wave (km/s) = 6.17038 6.96813 6.58135
#
# Compressibility (1/GPa) = 0.01758992
#
# Stress axis : x y z
#
# Youngs Moduli (GPa) = 102.27709 168.52714 64.18853
#
# Poissons Ratio (x) = 0.43677 0.01918
# Poissons Ratio (y) = 0.26507 0.25416
# Poissons Ratio (z) = 0.03056 0.66731
#
# Static dielectric constant tensor:
#      x y z
#    x 5.252390 0.000000 0.000000 
#    y 0.000000 5.956190 0.000000 
#    z 0.000000 0.000000 6.111390 
# 
# 
# High freq. dielectric constant tensor:
#      x y z
#    x 2.240190 0.000000 0.000000 
#    y 0.000000 2.247720 0.000000 
#    z 0.000000 0.000000 2.296400 
# 
# From -- ./inp_files/23149.got.cif
#   From: 2010.03.12/outbox.cif.g09.slc.cpg/sg66_12_cif.got.tgz:23149.got - 2010.04.10 21:57:39.
