data_PCOD8277525
_publ_section_title
;
Structure prediction by ZEFSAII (Michael W. Deem and Ramdas Pophale) SiO2 
 PCOD8277525
Probable space group: C C C M
;
_chemical_formula_sum "Si O2"
_cell_formula_units_Z 88
_cell_length_a 21.630728
_cell_length_b 11.600082
_cell_length_c 15.626221
_cell_angle_alpha 90.000000
_cell_angle_beta 90.000000
_cell_angle_gamma 90.000000
_cell_volume 3920.903536
_symmetry_space_group_name_H-M "C C C M"
_symmetry_group_IT_number 66
_symmetry_cell_setting 'orthorhombic'
loop_
_space_group_symop_operation_xyz
x,y,z
-x,-y,z
x,-y,1/2-z
-x,y,1/2-z
-x,-y,-z
x,y,-z
-x,y,1/2+z
x,-y,1/2+z
1/2+x,1/2+y,z
1/2-x,1/2-y,z
1/2+x,1/2-y,1/2-z
1/2-x,1/2+y,1/2-z
1/2-x,1/2-y,-z
1/2+x,1/2+y,-z
1/2-x,1/2+y,1/2+z
1/2+x,1/2-y,1/2+z
loop_
_atom_site_type_symbol
_atom_site_label
_atom_site_fract_x
_atom_site_fract_y
_atom_site_fract_z
Si Si1 0.250000 0.750000 0.740840
Si Si2 0.059232 0.220357 0.196926
Si Si3 0.638675 0.127828 0.178357
Si Si4 0.787586 0.936819 0.500000
Si Si5 0.935207 0.439761 0.401104
Si Si6 0.665160 0.181074 0.000000
Si Si7 0.166481 0.929905 0.334497
O O1 0.288638 0.843677 0.799547
O O2 0.205431 0.813247 0.674206
O O3 0.097359 0.295604 0.262855
O O4 0.050639 0.305158 0.116143
O O5 0.094232 0.106178 0.163204
O O6 0.000000 0.178555 0.250000
O O7 0.622711 0.172415 0.083150
O O8 0.617408 0.991527 0.167358
O O9 0.713190 0.928868 0.500000
O O10 0.805268 0.805318 0.500000
O O11 0.814674 0.000204 0.417542
O O12 0.913517 0.455242 0.500000
O O13 0.000000 0.500000 0.381987
O O14 0.181056 0.000000 0.250000
#
# Coordination Sequence:
#
# PCOD8277525 Si02
#       7
#     8  16  16   8  16   8  16
#     4  10  24  42  66  94 132 180 232 279 353 422
#     4  11  24  42  69  94 140 184 229 280 352 417
#     4  11  21  40  67  96 134 180 225 288 343 422
#     4  11  24  43  69  95 142 172 233 286 348 423
#     4  11  23  40  64 102 137 169 221 287 345 410
#     4  11  22  40  66 101 125 181 228 280 350 421
#     4  11  25  45  67  97 134 181 229 289 344 425
#
# _framework density 22.443807
#
# number of rings (size 3 to 8) (size 9 to 14) (size 15 to 20)
#    0.000    1.091    2.727    4.909    1.273    8.000 
#    0.000    0.000    0.000    2.182    0.000    0.000 
#    0.000    0.000    0.000    0.000    0.000    0.000 
#
# Total GULP energy -545160.482439 kJ/mol
# GULP energy per Si atom -12390.010965 kJ/mol
# Density = 2.239272 g / cm^3
# Si number density = 22.443807 Si / 1000 Ang^3
#
#
#
# Elastic Constant Matrix: (Units=GPa)
#
#
# Indices 1 2 3 4 5 6 
#
# 1 89.3336 43.3939 20.8713 0.0000 0.0000 0.0000
# 2 43.3939 91.9886 36.3306 0.0000 0.0000 0.0000
# 3 20.8713 36.3306 109.4090 0.0000 0.0000 0.0000
# 4 0.0000 0.0000 0.0000 56.8681 0.0000 0.0000
# 5 0.0000 0.0000 0.0000 0.0000 9.3893 0.0000
# 6 0.0000 0.0000 0.0000 0.0000 0.0000 40.5148
#
#
#
# Elastic Compliance Matrix: (Units=1/GPa)
#
#
# Indices 1 2 3 4 5 6 
#
# 1 0.014552 -0.006639 -0.000571 0.000000 0.000000 0.000000
# 2 -0.006639 0.015541 -0.003894 0.000000 0.000000 0.000000
# 3 -0.000571 -0.003894 0.010542 0.000000 0.000000 0.000000
# 4 0.000000 0.000000 0.000000 0.017585 0.000000 0.000000
# 5 0.000000 0.000000 0.000000 0.000000 0.106504 0.000000
# 6 0.000000 0.000000 0.000000 0.000000 0.000000 0.024682
#
#
# Mechanical properties :
#
#
# Convention : Reuss Voigt Hill
#
# Bulk Modulus (GPa) = 54.27095 54.65809 54.46452
# Shear Modulus (GPa) = 22.96135 34.03014 28.49574
#
# Velocity S-wave (km/s) = 3.20200 3.89811 3.56708
# Velocity P-wave (km/s) = 6.15660 6.68330 6.42535
#
# Compressibility (1/GPa) = 0.01842607
#
# Stress axis : x y z
#
# Youngs Moduli (GPa) = 68.71674 64.34705 94.85797
#
# Poissons Ratio (x) = 0.42721 0.05421
# Poissons Ratio (y) = 0.45622 0.36938
# Poissons Ratio (z) = 0.03927 0.25057
#
# Static dielectric constant tensor:
#      x y z
#    x 4.665730 0.000000 0.000000 
#    y 0.000000 4.278150 0.000000 
#    z 0.000000 0.000000 4.171830 
# 
# 
# High freq. dielectric constant tensor:
#      x y z
#    x 1.879240 0.000000 0.000000 
#    y 0.000000 1.878360 0.000000 
#    z 0.000000 0.000000 1.894400 
# 
# From -- ./inp_files/42806.got.cif
#   From: 2010.03.12/outbox.cif.g09.slc.cpg/sg66_22_cif.got.tgz:42806.got - 2010.04.10 21:57:39.
