data_PCOD8277625
_publ_section_title
;
Structure prediction by ZEFSAII (Michael W. Deem and Ramdas Pophale) SiO2 
 PCOD8277625
Probable space group: C C C M
;
_chemical_formula_sum "Si O2"
_cell_formula_units_Z 72
_cell_length_a 27.223471
_cell_length_b 9.224263
_cell_length_c 14.692381
_cell_angle_alpha 90.000000
_cell_angle_beta 90.000000
_cell_angle_gamma 90.000000
_cell_volume 3689.498651
_symmetry_space_group_name_H-M "C C C M"
_symmetry_group_IT_number 66
_symmetry_cell_setting 'orthorhombic'
loop_
_space_group_symop_operation_xyz
x,y,z
-x,-y,z
x,-y,1/2-z
-x,y,1/2-z
-x,-y,-z
x,y,-z
-x,y,1/2+z
x,-y,1/2+z
1/2+x,1/2+y,z
1/2-x,1/2-y,z
1/2+x,1/2-y,1/2-z
1/2-x,1/2+y,1/2-z
1/2-x,1/2-y,-z
1/2+x,1/2+y,-z
1/2-x,1/2+y,1/2+z
1/2+x,1/2-y,1/2+z
loop_
_atom_site_type_symbol
_atom_site_label
_atom_site_fract_x
_atom_site_fract_y
_atom_site_fract_z
Si Si1 0.280961 0.896881 0.000000
Si Si2 0.620601 0.723323 0.500000
Si Si3 0.734804 0.415843 0.345075
Si Si4 0.515373 0.160867 0.000000
Si Si5 0.371581 0.475832 0.145252
Si Si6 0.523219 0.643775 0.149695
O O1 0.250000 0.750000 0.000000
O O2 0.336663 0.841994 0.000000
O O3 0.270701 0.996003 0.087958
O O4 0.573244 0.823020 0.500000
O O5 0.619488 0.624011 0.409754
O O6 0.736808 0.500000 0.250000
O O7 0.750000 0.250000 0.331302
O O8 0.679984 0.409643 0.389823
O O9 0.492125 0.220755 0.091808
O O10 0.500000 0.000000 0.000000
O O11 0.362587 0.500000 0.250000
O O12 0.417771 0.367106 0.140895
O O13 0.500000 0.500000 0.104813
O O14 0.500000 0.660700 0.250000
#
# Coordination Sequence:
#
# PCOD8277625 Si02
#       6
#     8   8  16   8  16  16
#     4  12  23  42  66  93 128 172 216 269 322 375
#     4  12  23  40  66  95 127 173 209 264 326 385
#     4  11  25  42  65  96 129 167 217 268 323 391
#     4  12  26  39  60  95 135 165 204 266 324 374
#     4  11  21  37  68  94 121 163 219 259 318 382
#     4  11  20  40  67  93 118 164 217 263 304 379
#
# _framework density 19.514845999999999
#
# number of rings (size 3 to 8) (size 9 to 14) (size 15 to 20)
#    0.000    0.667    6.667    2.000    3.111    2.222 
#    0.000    0.000    0.000    0.000    0.000    0.000 
#    0.000    0.000    0.000    0.000    0.000    0.000 
#
# Total GULP energy -446173.436075 kJ/mol
# GULP energy per Si atom -12393.706558 kJ/mol
# Density = 1.947043 g / cm^3
# Si number density = 19.514846 Si / 1000 Ang^3
#
#
#
# Elastic Constant Matrix: (Units=GPa)
#
#
# Indices 1 2 3 4 5 6 
#
# 1 188.1130 77.0394 49.6007 0.0000 0.0000 0.0000
# 2 77.0394 166.5282 67.8521 0.0000 0.0000 0.0000
# 3 49.6007 67.8521 120.1597 0.0000 0.0000 0.0000
# 4 0.0000 0.0000 0.0000 44.8694 0.0000 0.0000
# 5 0.0000 0.0000 0.0000 0.0000 21.0476 0.0000
# 6 0.0000 0.0000 0.0000 0.0000 0.0000 22.2148
#
#
#
# Elastic Compliance Matrix: (Units=1/GPa)
#
#
# Indices 1 2 3 4 5 6 
#
# 1 0.006716 -0.002568 -0.001322 0.000000 0.000000 0.000000
# 2 -0.002568 0.008782 -0.003899 0.000000 0.000000 0.000000
# 3 -0.001322 -0.003899 0.011070 0.000000 0.000000 0.000000
# 4 0.000000 0.000000 0.000000 0.022287 0.000000 0.000000
# 5 0.000000 0.000000 0.000000 0.000000 0.047511 0.000000
# 6 0.000000 0.000000 0.000000 0.000000 0.000000 0.045015
#
#
# Mechanical properties :
#
#
# Convention : Reuss Voigt Hill
#
# Bulk Modulus (GPa) = 90.99824 95.97614 93.48719
# Shear Modulus (GPa) = 31.12888 36.31360 33.72124
#
# Velocity S-wave (km/s) = 3.99825 4.31840 4.16141
# Velocity P-wave (km/s) = 8.24901 8.61119 8.43205
#
# Compressibility (1/GPa) = 0.01098922
#
# Stress axis : x y z
#
# Youngs Moduli (GPa) = 148.88826 113.87286 90.33820
#
# Poissons Ratio (x) = 0.29248 0.11944
# Poissons Ratio (y) = 0.38242 0.35220
# Poissons Ratio (z) = 0.19685 0.44395
#
# Static dielectric constant tensor:
#      x y z
#    x 4.570450 0.000000 0.000000 
#    y 0.000000 3.368180 0.000000 
#    z 0.000000 0.000000 3.631640 
# 
# 
# High freq. dielectric constant tensor:
#      x y z
#    x 1.782420 0.000000 0.000000 
#    y 0.000000 1.739600 0.000000 
#    z 0.000000 0.000000 1.775230 
# 
# From -- ./inp_files/24536.got.cif
#   From: 2010.03.12/outbox.cif.g09.slc.cpg/sg66_13_cif.got.tgz:24536.got - 2010.04.10 21:57:39.
