data_PCOD8277574
_publ_section_title
;
Structure prediction by ZEFSAII (Michael W. Deem and Ramdas Pophale) SiO2 
 PCOD8277574
Probable space group: C C C M
;
_chemical_formula_sum "Si O2"
_cell_formula_units_Z 56
_cell_length_a 16.464117
_cell_length_b 9.999110
_cell_length_c 14.231277
_cell_angle_alpha 90.000000
_cell_angle_beta 90.000000
_cell_angle_gamma 90.000000
_cell_volume 2342.845564
_symmetry_space_group_name_H-M "C C C M"
_symmetry_group_IT_number 66
_symmetry_cell_setting 'orthorhombic'
loop_
_space_group_symop_operation_xyz
x,y,z
-x,-y,z
x,-y,1/2-z
-x,y,1/2-z
-x,-y,-z
x,y,-z
-x,y,1/2+z
x,-y,1/2+z
1/2+x,1/2+y,z
1/2-x,1/2-y,z
1/2+x,1/2-y,1/2-z
1/2-x,1/2+y,1/2-z
1/2-x,1/2-y,-z
1/2+x,1/2+y,-z
1/2-x,1/2+y,1/2+z
1/2+x,1/2-y,1/2+z
loop_
_atom_site_type_symbol
_atom_site_label
_atom_site_fract_x
_atom_site_fract_y
_atom_site_fract_z
Si Si1 0.697977 0.054525 0.646357
Si Si2 0.630425 0.348481 0.393146
Si Si3 0.500000 0.315479 0.250000
Si Si4 0.559647 0.883383 0.397772
O O1 0.654244 0.197409 0.634280
O O2 0.790860 0.057526 0.612796
O O3 0.692843 0.000000 0.750000
O O4 0.649533 0.943913 0.587256
O O5 0.597457 0.354336 0.500000
O O6 0.561143 0.399347 0.318811
O O7 0.442717 0.230884 0.319651
O O8 0.531600 0.827363 0.500000
O O9 0.500000 0.000000 0.362525
#
# Coordination Sequence:
#
# PCOD8277574 Si02
#       4
#    16  16   8  16
#     4  11  20  37  59  88 125 160 205 249 310 378
#     4  11  23  38  61  92 126 166 207 254 314 379
#     4  12  21  36  57  94 122 154 213 262 309 358
#     4  11  19  31  54  86 122 156 195 254 312 361
#
# _framework density 23.902557000000002
#
# number of rings (size 3 to 8) (size 9 to 14) (size 15 to 20)
#    0.000    0.857    5.714    4.714    0.000    0.000 
#    0.000    0.714    0.000   13.714    0.000    0.000 
#    0.000    0.000    0.000    0.000    0.000    0.000 
#
# Total GULP energy -346966.926280 kJ/mol
# GULP energy per Si atom -12391.675939 kJ/mol
# Density = 2.384815 g / cm^3
# Si number density = 23.902557 Si / 1000 Ang^3
#
#
#
# Elastic Constant Matrix: (Units=GPa)
#
#
# Indices 1 2 3 4 5 6 
#
# 1 150.3942 21.5440 40.5244 0.0000 0.0000 0.0000
# 2 21.5440 27.3939 11.3802 0.0000 0.0000 0.0000
# 3 40.5244 11.3802 172.3233 0.0000 0.0000 0.0000
# 4 0.0000 0.0000 0.0000 25.2649 0.0000 0.0000
# 5 0.0000 0.0000 0.0000 0.0000 31.2723 0.0000
# 6 0.0000 0.0000 0.0000 0.0000 0.0000 37.5188
#
#
#
# Elastic Compliance Matrix: (Units=1/GPa)
#
#
# Indices 1 2 3 4 5 6 
#
# 1 0.007843 -0.005554 -0.001478 0.000000 0.000000 0.000000
# 2 -0.005554 0.041468 -0.001432 0.000000 0.000000 0.000000
# 3 -0.001478 -0.001432 0.006245 0.000000 0.000000 0.000000
# 4 0.000000 0.000000 0.000000 0.039581 0.000000 0.000000
# 5 0.000000 0.000000 0.000000 0.000000 0.031977 0.000000
# 6 0.000000 0.000000 0.000000 0.000000 0.000000 0.026653
#
#
# Mechanical properties :
#
#
# Convention : Reuss Voigt Hill
#
# Bulk Modulus (GPa) = 25.88837 55.22317 40.55577
# Shear Modulus (GPa) = 27.23739 37.25539 32.24639
#
# Velocity S-wave (km/s) = 3.37934 3.95224 3.67696
# Velocity P-wave (km/s) = 5.10694 6.63178 5.91867
#
# Compressibility (1/GPa) = 0.03862738
#
# Stress axis : x y z
#
# Youngs Moduli (GPa) = 127.50233 24.11511 160.12512
#
# Poissons Ratio (x) = 0.13394 0.23660
# Poissons Ratio (y) = 0.70819 0.22936
# Poissons Ratio (z) = 0.18840 0.03454
#
# Static dielectric constant tensor:
#      x y z
#    x 4.991360 0.000000 0.000000 
#    y 0.000000 4.026350 0.000000 
#    z 0.000000 0.000000 4.479680 
# 
# 
# High freq. dielectric constant tensor:
#      x y z
#    x 1.952200 0.000000 0.000000 
#    y 0.000000 1.896210 0.000000 
#    z 0.000000 0.000000 1.976440 
# 
# From -- ./inp_files/25387.got.cif
#   From: 2010.03.12/outbox.cif.g09.slc.cpg/sg66_13_cif.got.tgz:25387.got - 2010.04.10 21:57:39.
