data_PCOD8277232
_publ_section_title
;
Structure prediction by ZEFSAII (Michael W. Deem and Ramdas Pophale) SiO2 
 PCOD8277232
Probable space group: C C C M
;
_chemical_formula_sum "Si O2"
_cell_formula_units_Z 80
_cell_length_a 12.074322
_cell_length_b 15.182509
_cell_length_c 21.594812
_cell_angle_alpha 90.000000
_cell_angle_beta 90.000000
_cell_angle_gamma 90.000000
_cell_volume 3958.728596
_symmetry_space_group_name_H-M "C C C M"
_symmetry_group_IT_number 66
_symmetry_cell_setting 'orthorhombic'
loop_
_space_group_symop_operation_xyz
x,y,z
-x,-y,z
x,-y,1/2-z
-x,y,1/2-z
-x,-y,-z
x,y,-z
-x,y,1/2+z
x,-y,1/2+z
1/2+x,1/2+y,z
1/2-x,1/2-y,z
1/2+x,1/2-y,1/2-z
1/2-x,1/2+y,1/2-z
1/2-x,1/2-y,-z
1/2+x,1/2+y,-z
1/2-x,1/2+y,1/2+z
1/2+x,1/2-y,1/2+z
loop_
_atom_site_type_symbol
_atom_site_label
_atom_site_fract_x
_atom_site_fract_y
_atom_site_fract_z
Si Si1 0.704925 0.412881 0.214044
Si Si2 0.167088 0.385976 0.500000
Si Si3 0.730149 0.653526 0.840516
Si Si4 0.990742 0.898849 0.379629
Si Si5 0.410346 0.309535 0.500000
Si Si6 0.372467 0.991773 0.123926
O O1 0.663087 0.500000 0.250000
O O2 0.745403 0.343648 0.265863
O O3 0.606813 0.379407 0.169623
O O4 0.814210 0.429904 0.173979
O O5 0.294762 0.360460 0.500000
O O6 0.096740 0.296186 0.500000
O O7 0.137711 0.446441 0.442210
O O8 0.750000 0.750000 0.868393
O O9 0.604532 0.625830 0.848494
O O10 0.813341 0.587310 0.875753
O O11 0.976124 0.837845 0.439219
O O12 0.000000 0.000000 0.400802
O O13 0.500000 0.000000 0.142931
#
# Coordination Sequence:
#
# PCOD8277232 Si02
#       6
#    16   8  16  16   8  16
#     4  10  21  41  68  96 128 177 218 267 327 405
#     4  11  23  46  64  98 136 176 225 273 342 400
#     4  11  26  42  65 103 134 170 227 281 335 389
#     4  12  21  43  71  94 135 172 226 276 339 398
#     4  11  25  38  70 105 124 170 232 287 325 399
#     4  11  24  44  69  91 139 183 223 263 342 406
#
# _framework density 20.208507999999998
#
# number of rings (size 3 to 8) (size 9 to 14) (size 15 to 20)
#    0.000    1.000    6.000    1.200    2.800    6.000 
#    3.600    1.000    0.000    0.000    0.000    0.000 
#    0.000    0.000    0.000    0.000    0.000    0.000 
#
# Total GULP energy -496025.238721 kJ/mol
# GULP energy per Si atom -12400.630968 kJ/mol
# Density = 2.016251 g / cm^3
# Si number density = 20.208508 Si / 1000 Ang^3
#
#
#
# Elastic Constant Matrix: (Units=GPa)
#
#
# Indices 1 2 3 4 5 6 
#
# 1 151.8762 51.9646 51.1987 0.0000 0.0000 0.0000
# 2 51.9646 125.8574 52.1018 0.0000 0.0000 0.0000
# 3 51.1987 52.1018 132.9882 0.0000 0.0000 0.0000
# 4 0.0000 0.0000 0.0000 25.8402 0.0000 0.0000
# 5 0.0000 0.0000 0.0000 0.0000 32.6160 0.0000
# 6 0.0000 0.0000 0.0000 0.0000 0.0000 17.7432
#
#
#
# Elastic Compliance Matrix: (Units=1/GPa)
#
#
# Indices 1 2 3 4 5 6 
#
# 1 0.008163 -0.002470 -0.002175 0.000000 0.000000 0.000000
# 2 -0.002470 0.010231 -0.003057 0.000000 0.000000 0.000000
# 3 -0.002175 -0.003057 0.009555 0.000000 0.000000 0.000000
# 4 0.000000 0.000000 0.000000 0.038699 0.000000 0.000000
# 5 0.000000 0.000000 0.000000 0.000000 0.030660 0.000000
# 6 0.000000 0.000000 0.000000 0.000000 0.000000 0.056360
#
#
# Mechanical properties :
#
#
# Convention : Reuss Voigt Hill
#
# Bulk Modulus (GPa) = 79.72018 80.13912 79.92965
# Shear Modulus (GPa) = 28.85962 32.27031 30.56497
#
# Velocity S-wave (km/s) = 3.78311 4.00042 3.89328
# Velocity P-wave (km/s) = 7.65618 7.81537 7.73618
#
# Compressibility (1/GPa) = 0.01254388
#
# Stress axis : x y z
#
# Youngs Moduli (GPa) = 122.51110 97.74260 104.66201
#
# Poissons Ratio (x) = 0.24141 0.22762
# Poissons Ratio (y) = 0.30259 0.31999
# Poissons Ratio (z) = 0.26644 0.29884
#
# Static dielectric constant tensor:
#      x y z
#    x 3.684100 0.000000 0.000000 
#    y 0.000000 3.296280 0.000000 
#    z 0.000000 0.000000 4.029530 
# 
# 
# High freq. dielectric constant tensor:
#      x y z
#    x 1.794270 0.000000 0.000000 
#    y 0.000000 1.782660 0.000000 
#    z 0.000000 0.000000 1.799640 
# 
# From -- ./inp_files/56644.got.cif
#   From: 2010.03.12/outbox.cif.g09.slc.cpg/sg66_29_cif.got.tgz:56644.got - 2010.04.10 21:57:39.
