data_PCOD8277031
_publ_section_title
;
Structure prediction by ZEFSAII (Michael W. Deem and Ramdas Pophale) SiO2 
 PCOD8277031
Probable space group: C C C M
;
_chemical_formula_sum "Si O2"
_cell_formula_units_Z 96
_cell_length_a 18.979498
_cell_length_b 15.309936
_cell_length_c 16.065318
_cell_angle_alpha 90.000000
_cell_angle_beta 90.000000
_cell_angle_gamma 90.000000
_cell_volume 4668.178166
_symmetry_space_group_name_H-M "C C C M"
_symmetry_group_IT_number 66
_symmetry_cell_setting 'orthorhombic'
loop_
_space_group_symop_operation_xyz
x,y,z
-x,-y,z
x,-y,1/2-z
-x,y,1/2-z
-x,-y,-z
x,y,-z
-x,y,1/2+z
x,-y,1/2+z
1/2+x,1/2+y,z
1/2-x,1/2-y,z
1/2+x,1/2-y,1/2-z
1/2-x,1/2+y,1/2-z
1/2-x,1/2-y,-z
1/2+x,1/2+y,-z
1/2-x,1/2+y,1/2+z
1/2+x,1/2-y,1/2+z
loop_
_atom_site_type_symbol
_atom_site_label
_atom_site_fract_x
_atom_site_fract_y
_atom_site_fract_z
Si Si1 0.548861 0.917800 0.402288
Si Si2 0.183122 0.945533 0.404304
Si Si3 0.802556 0.180018 0.742299
Si Si4 0.700001 0.048050 0.167607
Si Si5 0.057773 0.938774 0.095697
Si Si6 0.445750 0.736734 0.819699
O O1 0.537327 0.905070 0.500000
O O2 0.631722 0.924123 0.383534
O O3 0.526879 0.829446 0.354888
O O4 0.500000 0.000000 0.371671
O O5 0.170826 0.913719 0.500000
O O6 0.165682 0.870964 0.336888
O O7 0.262755 0.978076 0.393020
O O8 0.134593 0.027521 0.377304
O O9 0.750000 0.250000 0.702628
O O10 0.756584 0.123119 0.808223
O O11 0.865280 0.233627 0.787244
O O12 0.672621 0.000000 0.250000
O O13 0.047715 0.836734 0.110292
O O14 0.048678 0.955502 0.000000
O O15 0.000000 0.000000 0.142159
O O16 0.500000 0.707958 0.750000
#
# Coordination Sequence:
#
# PCOD8277031 Si02
#       6
#    16  16  16  16  16  16
#     4  11  26  45  66  96 131 173 226 280 336 399
#     4  10  21  37  62  92 128 171 214 273 344 396
#     4  11  22  40  61  96 130 168 229 280 325 408
#     4  10  21  39  67  91 127 167 223 278 330 396
#     4  10  21  39  61  89 125 164 209 265 329 398
#     4  12  25  39  64  96 129 175 219 269 337 396
#
# _framework density 20.564768000000001
#
# number of rings (size 3 to 8) (size 9 to 14) (size 15 to 20)
#    0.000    1.333    3.333    2.000    2.333    2.000 
#    0.000    1.667    0.000    0.000    0.000    0.000 
#    0.000    0.000    0.000    0.000    0.000    0.000 
#
# Total GULP energy -594793.492641 kJ/mol
# GULP energy per Si atom -12391.531097 kJ/mol
# Density = 2.051796 g / cm^3
# Si number density = 20.564768 Si / 1000 Ang^3
#
#
#
# Elastic Constant Matrix: (Units=GPa)
#
#
# Indices 1 2 3 4 5 6 
#
# 1 94.1160 35.6849 30.2603 0.0000 0.0000 0.0000
# 2 35.6849 129.9349 32.3211 0.0000 0.0000 0.0000
# 3 30.2603 32.3211 53.6412 0.0000 0.0000 0.0000
# 4 0.0000 0.0000 0.0000 29.7393 0.0000 0.0000
# 5 0.0000 0.0000 0.0000 0.0000 23.0708 0.0000
# 6 0.0000 0.0000 0.0000 0.0000 0.0000 39.3611
#
#
#
# Elastic Compliance Matrix: (Units=1/GPa)
#
#
# Indices 1 2 3 4 5 6 
#
# 1 0.013461 -0.002127 -0.006312 0.000000 0.000000 0.000000
# 2 -0.002127 0.009389 -0.004458 0.000000 0.000000 0.000000
# 3 -0.006312 -0.004458 0.024889 0.000000 0.000000 0.000000
# 4 0.000000 0.000000 0.000000 0.033626 0.000000 0.000000
# 5 0.000000 0.000000 0.000000 0.000000 0.043345 0.000000
# 6 0.000000 0.000000 0.000000 0.000000 0.000000 0.025406
#
#
# Mechanical properties :
#
#
# Convention : Reuss Voigt Hill
#
# Bulk Modulus (GPa) = 45.56604 52.69162 49.12883
# Shear Modulus (GPa) = 27.28900 30.39596 28.84248
#
# Velocity S-wave (km/s) = 3.64672 3.84873 3.74908
# Velocity P-wave (km/s) = 6.31956 6.74004 6.53319
#
# Compressibility (1/GPa) = 0.02194617
#
# Stress axis : x y z
#
# Youngs Moduli (GPa) = 74.28824 106.50699 40.17812
#
# Poissons Ratio (x) = 0.22651 0.25361
# Poissons Ratio (y) = 0.15799 0.17910
# Poissons Ratio (z) = 0.46893 0.47476
#
# Static dielectric constant tensor:
#      x y z
#    x 3.993290 0.000000 0.000000 
#    y 0.000000 3.732830 0.000000 
#    z 0.000000 0.000000 3.512870 
# 
# 
# High freq. dielectric constant tensor:
#      x y z
#    x 1.815180 0.000000 0.000000 
#    y 0.000000 1.803980 0.000000 
#    z 0.000000 0.000000 1.796170 
# 
# From -- ./inp_files/28328.got.cif
#   From: 2010.03.12/outbox.cif.g09.slc.cpg/sg66_15_cif.got.tgz:28328.got - 2010.04.10 21:57:39.
