data_PCOD8277638
_publ_section_title
;
Structure prediction by ZEFSAII (Michael W. Deem and Ramdas Pophale) SiO2 
 PCOD8277638
Probable space group: C C C M
;
_chemical_formula_sum "Si O2"
_cell_formula_units_Z 112
_cell_length_a 34.740470
_cell_length_b 23.432120
_cell_length_c 9.425552
_cell_angle_alpha 90.000000
_cell_angle_beta 90.000000
_cell_angle_gamma 90.000000
_cell_volume 7672.803325
_symmetry_space_group_name_H-M "C C C M"
_symmetry_group_IT_number 66
_symmetry_cell_setting 'orthorhombic'
loop_
_space_group_symop_operation_xyz
x,y,z
-x,-y,z
x,-y,1/2-z
-x,y,1/2-z
-x,-y,-z
x,y,-z
-x,y,1/2+z
x,-y,1/2+z
1/2+x,1/2+y,z
1/2-x,1/2-y,z
1/2+x,1/2-y,1/2-z
1/2-x,1/2+y,1/2-z
1/2-x,1/2-y,-z
1/2+x,1/2+y,-z
1/2-x,1/2+y,1/2+z
1/2+x,1/2-y,1/2+z
loop_
_atom_site_type_symbol
_atom_site_label
_atom_site_fract_x
_atom_site_fract_y
_atom_site_fract_z
Si Si1 0.189992 0.726046 0.332448
Si Si2 0.688790 0.443260 0.329841
Si Si3 0.965766 0.110133 0.843722
Si Si4 0.379769 0.611419 0.166793
Si Si5 0.619543 0.255886 0.833955
Si Si6 0.264140 0.334937 0.833464
Si Si7 0.965627 0.754106 0.342893
O O1 0.182013 0.727298 0.500000
O O2 0.149679 0.717014 0.252133
O O3 0.219496 0.674925 0.289525
O O4 0.208623 0.784846 0.273375
O O5 0.702602 0.500000 0.250000
O O6 0.686027 0.451472 0.500000
O O7 0.647498 0.574619 0.231996
O O8 0.720716 0.396474 0.284702
O O9 0.923184 0.093033 0.789965
O O10 0.968688 0.178046 0.847081
O O11 0.000000 0.083358 0.750000
O O12 0.972029 0.085172 0.000000
O O13 0.373246 0.677791 0.200616
O O14 0.371985 0.598984 0.000000
O O15 0.576639 0.237565 0.783583
O O16 0.624375 0.244302 0.000000
O O17 0.267141 0.328350 0.000000
O O18 0.970737 0.728984 0.500000
O O19 0.000000 0.727258 0.250000
#
# Coordination Sequence:
#
# PCOD8277638 Si02
#       7
#    16  16  16  16  16  16  16
#     4   9  15  27  45  62  80 104 132 162 195 240
#     4  11  21  33  47  62  79 103 132 164 201 241
#     4   8  14  24  38  55  75  98 124 157 197 238
#     4   9  17  29  42  58  81 104 128 161 200 243
#     4   9  16  25  38  59  85 106 128 165 206 235
#     4   8  16  29  44  61  81 102 129 163 199 236
#     4   8  14  23  33  49  76 106 133 161 191 227
#
# _framework density 14.597011999999999
#
# number of rings (size 3 to 8) (size 9 to 14) (size 15 to 20)
#    0.000    3.143    1.429    3.000    0.000    1.143 
#    0.000    5.714    0.000    0.429    0.000    3.000 
#    0.000    0.000    0.000    0.000    0.000    0.714 
#
# Total GULP energy -693902.492366 kJ/mol
# GULP energy per Si atom -12391.115935 kJ/mol
# Density = 1.456379 g / cm^3
# Si number density = 14.597012 Si / 1000 Ang^3
#
#
#
# Elastic Constant Matrix: (Units=GPa)
#
#
# Indices 1 2 3 4 5 6 
#
# 1 127.5926 46.1423 52.5044 0.0000 0.0000 0.0000
# 2 46.1423 44.9368 27.3008 0.0000 0.0000 0.0000
# 3 52.5044 27.3008 54.3604 0.0000 0.0000 0.0000
# 4 0.0000 0.0000 0.0000 8.6793 0.0000 0.0000
# 5 0.0000 0.0000 0.0000 0.0000 28.2593 0.0000
# 6 0.0000 0.0000 0.0000 0.0000 0.0000 12.5716
#
#
#
# Elastic Compliance Matrix: (Units=1/GPa)
#
#
# Indices 1 2 3 4 5 6 
#
# 1 0.015538 -0.009839 -0.010066 0.000000 0.000000 0.000000
# 2 -0.009839 0.038255 -0.009709 0.000000 0.000000 0.000000
# 3 -0.010066 -0.009709 0.032994 0.000000 0.000000 0.000000
# 4 0.000000 0.000000 0.000000 0.115217 0.000000 0.000000
# 5 0.000000 0.000000 0.000000 0.000000 0.035387 0.000000
# 6 0.000000 0.000000 0.000000 0.000000 0.000000 0.079544
#
#
# Mechanical properties :
#
#
# Convention : Reuss Voigt Hill
#
# Bulk Modulus (GPa) = 36.28632 53.19829 44.74230
# Shear Modulus (GPa) = 12.97523 16.63154 14.80339
#
# Velocity S-wave (km/s) = 2.98467 3.37913 3.18801
# Velocity P-wave (km/s) = 6.06551 7.19364 6.65353
#
# Compressibility (1/GPa) = 0.02755859
#
# Stress axis : x y z
#
# Youngs Moduli (GPa) = 64.35926 26.14013 30.30850
#
# Poissons Ratio (x) = 0.25720 0.30508
# Poissons Ratio (y) = 0.63324 0.29427
# Poissons Ratio (z) = 0.64783 0.25380
#
# Static dielectric constant tensor:
#      x y z
#    x 3.074430 0.000000 0.000000 
#    y 0.000000 2.537530 0.000000 
#    z 0.000000 0.000000 2.837310 
# 
# 
# High freq. dielectric constant tensor:
#      x y z
#    x 1.566240 0.000000 0.000000 
#    y 0.000000 1.492800 0.000000 
#    z 0.000000 0.000000 1.552200 
# 
# From -- ./inp_files/20834.got.cif
#   From: 2010.03.12/outbox.cif.g09.slc.cpg/sg66_11_cif.got.tgz:20834.got - 2010.04.10 21:57:39.
