data_PCOD8277806
_publ_section_title
;
Structure prediction by ZEFSAII (Michael W. Deem and Ramdas Pophale) SiO2 
 PCOD8277806
Probable space group: C C C M
;
_chemical_formula_sum "Si O2"
_cell_formula_units_Z 68
_cell_length_a 20.294445
_cell_length_b 20.046020
_cell_length_c 8.595342
_cell_angle_alpha 90.000000
_cell_angle_beta 90.000000
_cell_angle_gamma 90.000000
_cell_volume 3496.781532
_symmetry_space_group_name_H-M "C C C M"
_symmetry_group_IT_number 66
_symmetry_cell_setting 'orthorhombic'
loop_
_space_group_symop_operation_xyz
x,y,z
-x,-y,z
x,-y,1/2-z
-x,y,1/2-z
-x,-y,-z
x,y,-z
-x,y,1/2+z
x,-y,1/2+z
1/2+x,1/2+y,z
1/2-x,1/2-y,z
1/2+x,1/2-y,1/2-z
1/2-x,1/2+y,1/2-z
1/2-x,1/2-y,-z
1/2+x,1/2+y,-z
1/2-x,1/2+y,1/2+z
1/2+x,1/2-y,1/2+z
loop_
_atom_site_type_symbol
_atom_site_label
_atom_site_fract_x
_atom_site_fract_y
_atom_site_fract_z
Si Si1 0.931239 0.257432 0.317348
Si Si2 0.237508 0.431817 0.182895
Si Si3 0.500000 0.000000 0.750000
Si Si4 0.302710 0.693888 0.181785
Si Si5 0.899920 0.393326 0.171452
O O1 0.926711 0.243916 0.500000
O O2 0.874627 0.218067 0.228307
O O3 0.926009 0.336492 0.286950
O O4 0.000000 0.230290 0.250000
O O5 0.268686 0.500000 0.250000
O O6 0.287258 0.372356 0.221706
O O7 0.167650 0.421944 0.264496
O O8 0.226791 0.437025 0.000000
O O9 0.452812 0.952454 0.851146
O O10 0.250000 0.750000 0.229307
O O11 0.299407 0.677636 0.000000
O O12 0.887552 0.362002 0.000000
#
# Coordination Sequence:
#
# PCOD8277806 Si02
#       5
#    16  16   4  16  16
#     4  12  25  41  63  91 126 165 211 261 317 376
#     4  12  25  41  63  91 126 165 211 261 317 376
#     4  12  26  36  60  82 130 172 218 248 306 364
#     4  11  23  41  67  94 126 165 214 268 320 375
#     4  12  24  38  57  85 122 167 215 258 304 365
#
# _framework density 19.446453000000002
#
# number of rings (size 3 to 8) (size 9 to 14) (size 15 to 20)
#    0.000    0.235    4.706    6.000    0.000    2.824 
#    0.000    0.000    0.000    0.706    0.000    4.941 
#    0.000    0.000    0.000    0.000    0.000    0.000 
#
# Total GULP energy -421760.458223 kJ/mol
# GULP energy per Si atom -12404.719360 kJ/mol
# Density = 1.940219 g / cm^3
# Si number density = 19.446453 Si / 1000 Ang^3
#
#
#
# Elastic Constant Matrix: (Units=GPa)
#
#
# Indices 1 2 3 4 5 6 
#
# 1 119.6155 48.9894 14.9847 0.0000 0.0000 0.0000
# 2 48.9894 89.0014 10.5102 0.0000 0.0000 0.0000
# 3 14.9847 10.5102 95.8924 0.0000 0.0000 0.0000
# 4 0.0000 0.0000 0.0000 29.0336 0.0000 0.0000
# 5 0.0000 0.0000 0.0000 0.0000 26.4107 0.0000
# 6 0.0000 0.0000 0.0000 0.0000 0.0000 22.0998
#
#
#
# Elastic Compliance Matrix: (Units=1/GPa)
#
#
# Indices 1 2 3 4 5 6 
#
# 1 0.010898 -0.005874 -0.001059 0.000000 0.000000 0.000000
# 2 -0.005874 0.014549 -0.000677 0.000000 0.000000 0.000000
# 3 -0.001059 -0.000677 0.010668 0.000000 0.000000 0.000000
# 4 0.000000 0.000000 0.000000 0.034443 0.000000 0.000000
# 5 0.000000 0.000000 0.000000 0.000000 0.037863 0.000000
# 6 0.000000 0.000000 0.000000 0.000000 0.000000 0.045249
#
#
# Mechanical properties :
#
#
# Convention : Reuss Voigt Hill
#
# Bulk Modulus (GPa) = 47.85660 50.38642 49.12151
# Shear Modulus (GPa) = 28.43239 30.84382 29.63811
#
# Velocity S-wave (km/s) = 3.82787 3.98689 3.90819
# Velocity P-wave (km/s) = 6.64828 6.86734 6.75870
#
# Compressibility (1/GPa) = 0.02089576
#
# Stress axis : x y z
#
# Youngs Moduli (GPa) = 91.75594 68.73400 93.73782
#
# Poissons Ratio (x) = 0.40373 0.09929
# Poissons Ratio (y) = 0.53896 0.06344
# Poissons Ratio (z) = 0.09719 0.04651
#
# Static dielectric constant tensor:
#      x y z
#    x 3.578650 0.000000 0.000000 
#    y 0.000000 3.625350 0.000000 
#    z 0.000000 0.000000 3.676500 
# 
# 
# High freq. dielectric constant tensor:
#      x y z
#    x 1.753230 0.000000 0.000000 
#    y 0.000000 1.747420 0.000000 
#    z 0.000000 0.000000 1.774590 
# 
# From -- ./inp_files/6261.got.cif
#   From: 2010.03.12/outbox.cif.g09.slc.cpg/sg66_4_cif.got.tgz:6261.got - 2010.04.10 21:57:39.
