data_PCOD8277004
_publ_section_title
;
Structure prediction by ZEFSAII (Michael W. Deem and Ramdas Pophale) SiO2 
 PCOD8277004
Probable space group: C C C M
;
_chemical_formula_sum "Si O2"
_cell_formula_units_Z 88
_cell_length_a 21.813925
_cell_length_b 8.489179
_cell_length_c 26.235847
_cell_angle_alpha 90.000000
_cell_angle_beta 90.000000
_cell_angle_gamma 90.000000
_cell_volume 4858.414858
_symmetry_space_group_name_H-M "C C C M"
_symmetry_group_IT_number 66
_symmetry_cell_setting 'orthorhombic'
loop_
_space_group_symop_operation_xyz
x,y,z
-x,-y,z
x,-y,1/2-z
-x,y,1/2-z
-x,-y,-z
x,y,-z
-x,y,1/2+z
x,-y,1/2+z
1/2+x,1/2+y,z
1/2-x,1/2-y,z
1/2+x,1/2-y,1/2-z
1/2-x,1/2+y,1/2-z
1/2-x,1/2-y,-z
1/2+x,1/2+y,-z
1/2-x,1/2+y,1/2+z
1/2+x,1/2-y,1/2+z
loop_
_atom_site_type_symbol
_atom_site_label
_atom_site_fract_x
_atom_site_fract_y
_atom_site_fract_z
Si Si1 0.151537 0.178635 0.558092
Si Si2 0.845579 0.888646 0.791749
Si Si3 0.250000 0.250000 0.131674
Si Si4 0.562739 0.595318 0.645878
Si Si5 0.936059 0.681630 0.266220
Si Si6 0.778818 0.509831 0.441793
O O1 0.128676 0.177777 0.500000
O O2 0.094864 0.121296 0.591619
O O3 0.174005 0.353108 0.573653
O O4 0.208689 0.062382 0.565030
O O5 0.796060 0.844355 0.833174
O O6 0.875874 0.740812 0.763374
O O7 0.812260 0.000000 0.750000
O O8 0.899972 0.983426 0.817185
O O9 0.209628 0.364909 0.096132
O O10 0.500000 0.500000 0.635610
O O11 0.563244 0.768488 0.673609
O O12 0.938594 0.500000 0.250000
O O13 0.000000 0.763486 0.250000
O O14 0.790588 0.456897 0.500000
#
# Coordination Sequence:
#
# PCOD8277004 Si02
#       6
#    16  16   8  16  16  16
#     4   9  19  37  57  83 113 147 190 235 286 340
#     4  10  23  38  51  82 115 151 185 229 286 336
#     4  12  21  36  58  86 118 142 189 242 294 326
#     4  11  20  37  61  82 113 153 189 232 280 340
#     4  10  21  37  58  81 106 146 197 233 269 334
#     4   9  19  36  59  82 110 148 192 235 283 344
#
# _framework density 18.112902999999999
#
# number of rings (size 3 to 8) (size 9 to 14) (size 15 to 20)
#    0.000    2.000    3.636    1.364    2.545    1.091 
#    3.273    0.000    0.000    0.000    0.000    5.091 
#    0.000    0.000    0.000    0.000    0.000    0.000 
#
# Total GULP energy -545181.770175 kJ/mol
# GULP energy per Si atom -12390.494777 kJ/mol
# Density = 1.807168 g / cm^3
# Si number density = 18.112903 Si / 1000 Ang^3
#
#
#
# Elastic Constant Matrix: (Units=GPa)
#
#
# Indices 1 2 3 4 5 6 
#
# 1 64.3060 28.4921 42.5549 0.0000 0.0000 0.0000
# 2 28.4921 90.0562 50.5673 0.0000 0.0000 0.0000
# 3 42.5549 50.5673 109.6604 0.0000 0.0000 0.0000
# 4 0.0000 0.0000 0.0000 16.9775 0.0000 0.0000
# 5 0.0000 0.0000 0.0000 0.0000 30.7020 0.0000
# 6 0.0000 0.0000 0.0000 0.0000 0.0000 17.3808
#
#
#
# Elastic Compliance Matrix: (Units=1/GPa)
#
#
# Indices 1 2 3 4 5 6 
#
# 1 0.021453 -0.002851 -0.007010 0.000000 0.000000 0.000000
# 2 -0.002851 0.015363 -0.005978 0.000000 0.000000 0.000000
# 3 -0.007010 -0.005978 0.014596 0.000000 0.000000 0.000000
# 4 0.000000 0.000000 0.000000 0.058901 0.000000 0.000000
# 5 0.000000 0.000000 0.000000 0.000000 0.032571 0.000000
# 6 0.000000 0.000000 0.000000 0.000000 0.000000 0.057535
#
#
# Mechanical properties :
#
#
# Convention : Reuss Voigt Hill
#
# Bulk Modulus (GPa) = 50.67540 56.36126 53.51833
# Shear Modulus (GPa) = 20.94896 22.50595 21.72746
#
# Velocity S-wave (km/s) = 3.40454 3.52879 3.46722
# Velocity P-wave (km/s) = 6.59490 6.91284 6.75574
#
# Compressibility (1/GPa) = 0.01973344
#
# Stress axis : x y z
#
# Youngs Moduli (GPa) = 46.61353 65.09242 68.51155
#
# Poissons Ratio (x) = 0.18557 0.48030
# Poissons Ratio (y) = 0.13289 0.40955
# Poissons Ratio (z) = 0.32678 0.38911
#
# Static dielectric constant tensor:
#      x y z
#    x 3.619100 0.000000 0.000000 
#    y 0.000000 3.308810 0.000000 
#    z 0.000000 0.000000 3.432460 
# 
# 
# High freq. dielectric constant tensor:
#      x y z
#    x 1.685150 0.000000 0.000000 
#    y 0.000000 1.702480 0.000000 
#    z 0.000000 0.000000 1.708810 
# 
# From -- ./inp_files/59399.got.cif
#   From: 2010.03.12/outbox.cif.g09.slc.cpg/sg66_30_cif.got.tgz:59399.got - 2010.04.10 21:57:39.
