data_PCOD8277059
_publ_section_title
;
Structure prediction by ZEFSAII (Michael W. Deem and Ramdas Pophale) SiO2 
 PCOD8277059
Probable space group: C C C M
;
_chemical_formula_sum "Si O2"
_cell_formula_units_Z 80
_cell_length_a 14.167478
_cell_length_b 11.278209
_cell_length_c 24.617011
_cell_angle_alpha 90.000000
_cell_angle_beta 90.000000
_cell_angle_gamma 90.000000
_cell_volume 3933.399018
_symmetry_space_group_name_H-M "C C C M"
_symmetry_group_IT_number 66
_symmetry_cell_setting 'orthorhombic'
loop_
_space_group_symop_operation_xyz
x,y,z
-x,-y,z
x,-y,1/2-z
-x,y,1/2-z
-x,-y,-z
x,y,-z
-x,y,1/2+z
x,-y,1/2+z
1/2+x,1/2+y,z
1/2-x,1/2-y,z
1/2+x,1/2-y,1/2-z
1/2-x,1/2+y,1/2-z
1/2-x,1/2-y,-z
1/2+x,1/2+y,-z
1/2-x,1/2+y,1/2+z
1/2+x,1/2-y,1/2+z
loop_
_atom_site_type_symbol
_atom_site_label
_atom_site_fract_x
_atom_site_fract_y
_atom_site_fract_z
Si Si1 0.154738 0.790479 0.163602
Si Si2 0.809222 0.943142 0.153325
Si Si3 0.149217 0.369377 0.769513
Si Si4 0.689212 0.868682 0.060423
Si Si5 0.547927 0.758796 0.135160
O O1 0.250000 0.750000 0.131769
O O2 0.154700 0.721199 0.220183
O O3 0.063775 0.760066 0.127201
O O4 0.159001 0.930350 0.176419
O O5 0.749397 0.870887 0.198290
O O6 0.743443 0.961186 0.099642
O O7 0.901980 0.869033 0.138398
O O8 0.122887 0.500000 0.750000
O O9 0.064942 0.329073 0.808955
O O10 0.750000 0.750000 0.059298
O O11 0.586241 0.835919 0.084525
O O12 0.677599 0.922511 0.000000
#
# Coordination Sequence:
#
# PCOD8277059 Si02
#       5
#    16  16  16  16  16
#     4  12  23  37  54  81 122 159 190 236 292 341
#     4  10  21  38  59  86 117 149 195 243 291 352
#     4  11  22  37  55  81 114 156 195 230 279 352
#     4   8  16  37  66  90 112 145 194 252 298 345
#     4  10  22  36  59  88 113 146 199 241 288 351
#
# _framework density 20.338643000000001
#
# number of rings (size 3 to 8) (size 9 to 14) (size 15 to 20)
#    0.000    1.800    2.000    4.200    0.000    1.600 
#    0.000    3.000    0.000    8.400    0.000    0.000 
#    0.000    0.000    0.000    0.000    0.000    0.000 
#
# Total GULP energy -495926.757789 kJ/mol
# GULP energy per Si atom -12398.168945 kJ/mol
# Density = 2.029235 g / cm^3
# Si number density = 20.338643 Si / 1000 Ang^3
#
#
#
# Elastic Constant Matrix: (Units=GPa)
#
#
# Indices 1 2 3 4 5 6 
#
# 1 163.5523 30.9726 40.7860 0.0000 0.0000 0.0000
# 2 30.9726 97.0877 49.2284 0.0000 0.0000 0.0000
# 3 40.7860 49.2284 112.9285 0.0000 0.0000 0.0000
# 4 0.0000 0.0000 0.0000 13.5771 0.0000 0.0000
# 5 0.0000 0.0000 0.0000 0.0000 14.6666 0.0000
# 6 0.0000 0.0000 0.0000 0.0000 0.0000 23.3310
#
#
#
# Elastic Compliance Matrix: (Units=1/GPa)
#
#
# Indices 1 2 3 4 5 6 
#
# 1 0.006825 -0.001191 -0.001946 0.000000 0.000000 0.000000
# 2 -0.001191 0.013430 -0.005425 0.000000 0.000000 0.000000
# 3 -0.001946 -0.005425 0.011923 0.000000 0.000000 0.000000
# 4 0.000000 0.000000 0.000000 0.073654 0.000000 0.000000
# 5 0.000000 0.000000 0.000000 0.000000 0.068182 0.000000
# 6 0.000000 0.000000 0.000000 0.000000 0.000000 0.042861
#
#
# Mechanical properties :
#
#
# Convention : Reuss Voigt Hill
#
# Bulk Modulus (GPa) = 66.42001 68.39363 67.40682
# Shear Modulus (GPa) = 20.91912 27.15372 24.03642
#
# Velocity S-wave (km/s) = 3.21057 3.65784 3.44148
# Velocity P-wave (km/s) = 6.81701 7.17915 7.00042
#
# Compressibility (1/GPa) = 0.01505570
#
# Stress axis : x y z
#
# Youngs Moduli (GPa) = 146.52032 74.45827 83.87362
#
# Poissons Ratio (x) = 0.08865 0.16321
# Poissons Ratio (y) = 0.17445 0.45498
# Poissons Ratio (z) = 0.28512 0.40391
#
# Static dielectric constant tensor:
#      x y z
#    x 3.883140 0.000000 0.000000 
#    y 0.000000 3.608200 0.000000 
#    z 0.000000 0.000000 3.773590 
# 
# 
# High freq. dielectric constant tensor:
#      x y z
#    x 1.794700 0.000000 0.000000 
#    y 0.000000 1.790530 0.000000 
#    z 0.000000 0.000000 1.763160 
# 
# From -- ./inp_files/56605.got.cif
#   From: 2010.03.12/outbox.cif.g09.slc.cpg/sg66_29_cif.got.tgz:56605.got - 2010.04.10 21:57:39.
