data_PCOD8277689
_publ_section_title
;
Structure prediction by ZEFSAII (Michael W. Deem and Ramdas Pophale) SiO2 
 PCOD8277689
Probable space group: C C C M
;
_chemical_formula_sum "Si O2"
_cell_formula_units_Z 64
_cell_length_a 11.475158
_cell_length_b 10.569751
_cell_length_c 22.269268
_cell_angle_alpha 90.000000
_cell_angle_beta 90.000000
_cell_angle_gamma 90.000000
_cell_volume 2701.029778
_symmetry_space_group_name_H-M "C C C M"
_symmetry_group_IT_number 66
_symmetry_cell_setting 'orthorhombic'
loop_
_space_group_symop_operation_xyz
x,y,z
-x,-y,z
x,-y,1/2-z
-x,y,1/2-z
-x,-y,-z
x,y,-z
-x,y,1/2+z
x,-y,1/2+z
1/2+x,1/2+y,z
1/2-x,1/2-y,z
1/2+x,1/2-y,1/2-z
1/2-x,1/2+y,1/2-z
1/2-x,1/2-y,-z
1/2+x,1/2+y,-z
1/2-x,1/2+y,1/2+z
1/2+x,1/2-y,1/2+z
loop_
_atom_site_type_symbol
_atom_site_label
_atom_site_fract_x
_atom_site_fract_y
_atom_site_fract_z
Si Si1 0.626919 0.947290 0.121707
Si Si2 0.715800 0.964878 0.500000
Si Si3 0.838144 0.039030 0.182189
Si Si4 0.530444 0.312585 0.371624
Si Si5 0.570405 0.291927 0.000000
O O1 0.699811 0.038134 0.167786
O O2 0.607490 0.807641 0.150002
O O3 0.500000 0.000000 0.111457
O O4 0.692375 0.948016 0.057812
O O5 0.636766 0.840328 0.500000
O O6 0.848085 0.915646 0.500000
O O7 0.889554 0.933171 0.138293
O O8 0.864390 0.000000 0.250000
O O9 0.906316 0.169507 0.164890
O O10 0.510268 0.295744 0.441916
#
# Coordination Sequence:
#
# PCOD8277689 Si02
#       5
#    16   8  16  16   8
#     4  12  24  44  72 106 139 182 235 288 355 426
#     4  11  22  42  67 110 154 176 224 296 356 438
#     4  11  27  51  68  97 143 187 242 300 348 418
#     4  11  23  45  74 101 137 186 231 289 361 422
#     4  11  21  40  75 104 145 192 218 285 375 429
#
# _framework density 23.694666000000002
#
# number of rings (size 3 to 8) (size 9 to 14) (size 15 to 20)
#    0.000    0.750    5.000    3.375    0.000    4.500 
#   13.500    2.500    0.000    0.000    0.000    0.000 
#    0.000    0.000    0.000    0.000    0.000    0.000 
#
# Total GULP energy -396673.143880 kJ/mol
# GULP energy per Si atom -12396.035746 kJ/mol
# Density = 2.364074 g / cm^3
# Si number density = 23.694666 Si / 1000 Ang^3
#
#
#
# Elastic Constant Matrix: (Units=GPa)
#
#
# Indices 1 2 3 4 5 6 
#
# 1 99.9807 21.4444 20.8345 0.0000 0.0000 0.0000
# 2 21.4444 92.6047 11.4368 0.0000 0.0000 0.0000
# 3 20.8345 11.4368 121.6852 0.0000 0.0000 0.0000
# 4 0.0000 0.0000 0.0000 -6.8715 0.0000 0.0000
# 5 0.0000 0.0000 0.0000 0.0000 16.6105 0.0000
# 6 0.0000 0.0000 0.0000 0.0000 0.0000 42.2485
#
#
#
# Elastic Compliance Matrix: (Units=1/GPa)
#
#
# Indices 1 2 3 4 5 6 
#
# 1 0.010838 -0.002307 -0.001639 0.000000 0.000000 0.000000
# 2 -0.002307 0.011417 -0.000678 0.000000 0.000000 0.000000
# 3 -0.001639 -0.000678 0.008562 0.000000 0.000000 0.000000
# 4 0.000000 0.000000 0.000000 -0.145528 0.000000 0.000000
# 5 0.000000 0.000000 0.000000 0.000000 0.060203 0.000000
# 6 0.000000 0.000000 0.000000 0.000000 0.000000 0.023669
#
#
# Mechanical properties :
#
#
# Convention : Reuss Voigt Hill
#
# Bulk Modulus (GPa) = 46.36325 46.85580 46.60953
# Shear Modulus (GPa) = -347.21089 27.76781 -159.72154
#
# Velocity S-wave (km/s) = -12.11832 3.42702 -8.21916
# Velocity P-wave (km/s) = 13.27386 5.95626 8.38804
#
# Compressibility (1/GPa) = 0.02156881
#
# Stress axis : x y z
#
# Youngs Moduli (GPa) = 92.26497 87.59140 116.79183
#
# Poissons Ratio (x) = 0.20211 0.19140
# Poissons Ratio (y) = 0.21290 0.07918
# Poissons Ratio (z) = 0.15121 0.05938
#
# Static dielectric constant tensor:
#      x y z
#    x 5.018120 0.000000 0.000000 
#    y 0.000000 4.936200 0.000000 
#    z 0.000000 0.000000 4.073950 
# 
# 
# High freq. dielectric constant tensor:
#      x y z
#    x 1.956020 0.000000 0.000000 
#    y 0.000000 1.927630 0.000000 
#    z 0.000000 0.000000 1.925540 
# 
# From -- ./inp_files/56324.got.cif
#   From: 2010.03.12/outbox.cif.g09.slc.cpg/sg66_29_cif.got.tgz:56324.got - 2010.04.10 21:57:39.
