data_PCOD8277215
_publ_section_title
;
Structure prediction by ZEFSAII (Michael W. Deem and Ramdas Pophale) SiO2 
 PCOD8277215
Probable space group: C C C M
;
_chemical_formula_sum "Si O2"
_cell_formula_units_Z 68
_cell_length_a 16.154229
_cell_length_b 21.379692
_cell_length_c 9.401791
_cell_angle_alpha 90.000000
_cell_angle_beta 90.000000
_cell_angle_gamma 90.000000
_cell_volume 3247.119503
_symmetry_space_group_name_H-M "C C C M"
_symmetry_group_IT_number 66
_symmetry_cell_setting 'orthorhombic'
loop_
_space_group_symop_operation_xyz
x,y,z
-x,-y,z
x,-y,1/2-z
-x,y,1/2-z
-x,-y,-z
x,y,-z
-x,y,1/2+z
x,-y,1/2+z
1/2+x,1/2+y,z
1/2-x,1/2-y,z
1/2+x,1/2-y,1/2-z
1/2-x,1/2+y,1/2-z
1/2-x,1/2-y,-z
1/2+x,1/2+y,-z
1/2-x,1/2+y,1/2+z
1/2+x,1/2-y,1/2+z
loop_
_atom_site_type_symbol
_atom_site_label
_atom_site_fract_x
_atom_site_fract_y
_atom_site_fract_z
Si Si1 0.142589 0.086565 0.657966
Si Si2 0.577134 0.163894 0.334548
Si Si3 0.656237 0.731495 0.663037
Si Si4 0.500000 0.500000 0.250000
Si Si5 0.796889 0.555884 0.164257
O O1 0.181606 0.079627 0.500000
O O2 0.131490 0.159867 0.690420
O O3 0.203801 0.060343 0.777233
O O4 0.057193 0.047326 0.658947
O O5 0.500000 0.133964 0.250000
O O6 0.555217 0.170855 0.500000
O O7 0.596048 0.231167 0.267845
O O8 0.655984 0.120148 0.309307
O O9 0.638997 0.750883 0.500000
O O10 0.750000 0.750000 0.703658
O O11 0.842614 0.500000 0.250000
O O12 0.793111 0.537757 0.000000
#
# Coordination Sequence:
#
# PCOD8277215 Si02
#       5
#    16  16  16   4  16
#     4  11  24  42  64  94 134 176 220 268 327 395
#     4  11  25  43  65  97 132 171 218 275 334 398
#     4  10  21  40  67  96 128 172 219 273 334 393
#     4  12  26  40  64 102 140 180 224 260 330 396
#     4  11  24  42  67  95 127 168 217 268 328 396
#
# _framework density 20.941638000000001
#
# number of rings (size 3 to 8) (size 9 to 14) (size 15 to 20)
#    0.000    1.176    3.529    1.765    1.647    5.647 
#    0.000    2.353    0.000    0.000    0.000    0.000 
#    0.000    0.000    0.000    0.000    0.000    0.000 
#
# Total GULP energy -421576.901313 kJ/mol
# GULP energy per Si atom -12399.320627 kJ/mol
# Density = 2.089397 g / cm^3
# Si number density = 20.941638 Si / 1000 Ang^3
#
#
#
# Elastic Constant Matrix: (Units=GPa)
#
#
# Indices 1 2 3 4 5 6 
#
# 1 100.0722 45.6767 49.5713 0.0000 0.0000 0.0000
# 2 45.6767 140.5551 62.2408 0.0000 0.0000 0.0000
# 3 49.5713 62.2408 141.7817 0.0000 0.0000 0.0000
# 4 0.0000 0.0000 0.0000 35.2726 0.0000 0.0000
# 5 0.0000 0.0000 0.0000 0.0000 32.2714 0.0000
# 6 0.0000 0.0000 0.0000 0.0000 0.0000 36.0518
#
#
#
# Elastic Compliance Matrix: (Units=1/GPa)
#
#
# Indices 1 2 3 4 5 6 
#
# 1 0.012872 -0.002719 -0.003307 0.000000 0.000000 0.000000
# 2 -0.002719 0.009406 -0.003178 0.000000 0.000000 0.000000
# 3 -0.003307 -0.003178 0.009605 0.000000 0.000000 0.000000
# 4 0.000000 0.000000 0.000000 0.028351 0.000000 0.000000
# 5 0.000000 0.000000 0.000000 0.000000 0.030987 0.000000
# 6 0.000000 0.000000 0.000000 0.000000 0.000000 0.027738
#
#
# Mechanical properties :
#
#
# Convention : Reuss Voigt Hill
#
# Bulk Modulus (GPa) = 74.21700 77.48738 75.85219
# Shear Modulus (GPa) = 35.24676 35.71384 35.48030
#
# Velocity S-wave (km/s) = 4.10700 4.13413 4.12059
# Velocity P-wave (km/s) = 7.61622 7.73757 7.67713
#
# Compressibility (1/GPa) = 0.01347400
#
# Stress axis : x y z
#
# Youngs Moduli (GPa) = 77.68942 106.31951 104.11661
#
# Poissons Ratio (x) = 0.28904 0.34431
# Poissons Ratio (y) = 0.21121 0.33093
# Poissons Ratio (z) = 0.25691 0.33793
#
# Static dielectric constant tensor:
#      x y z
#    x 3.665460 0.000000 0.000000 
#    y 0.000000 4.046180 0.000000 
#    z 0.000000 0.000000 3.757250 
# 
# 
# High freq. dielectric constant tensor:
#      x y z
#    x 1.809060 0.000000 0.000000 
#    y 0.000000 1.837990 0.000000 
#    z 0.000000 0.000000 1.824440 
# 
# From -- ./inp_files/6282.got.cif
#   From: 2010.03.12/outbox.cif.g09.slc.cpg/sg66_4_cif.got.tgz:6282.got - 2010.04.10 21:57:39.
