data_PCOD8277490
_publ_section_title
;
Structure prediction by ZEFSAII (Michael W. Deem and Ramdas Pophale) SiO2 
 PCOD8277490
Probable space group: C C C M
;
_chemical_formula_sum "Si O2"
_cell_formula_units_Z 112
_cell_length_a 24.199633
_cell_length_b 13.983696
_cell_length_c 14.875500
_cell_angle_alpha 90.000000
_cell_angle_beta 90.000000
_cell_angle_gamma 90.000000
_cell_volume 5033.873829
_symmetry_space_group_name_H-M "C C C M"
_symmetry_group_IT_number 66
_symmetry_cell_setting 'orthorhombic'
loop_
_space_group_symop_operation_xyz
x,y,z
-x,-y,z
x,-y,1/2-z
-x,y,1/2-z
-x,-y,-z
x,y,-z
-x,y,1/2+z
x,-y,1/2+z
1/2+x,1/2+y,z
1/2-x,1/2-y,z
1/2+x,1/2-y,1/2-z
1/2-x,1/2+y,1/2-z
1/2-x,1/2-y,-z
1/2+x,1/2+y,-z
1/2-x,1/2+y,1/2+z
1/2+x,1/2-y,1/2+z
loop_
_atom_site_type_symbol
_atom_site_label
_atom_site_fract_x
_atom_site_fract_y
_atom_site_fract_z
Si Si1 0.640084 0.607321 0.238746
Si Si2 0.463819 0.593420 0.604238
Si Si3 0.187301 0.771750 0.593406
Si Si4 0.687138 0.270209 0.101031
Si Si5 0.111555 0.393003 0.150894
Si Si6 0.386307 0.894453 0.146305
Si Si7 0.499644 0.198408 0.397274
O O1 0.660124 0.500000 0.250000
O O2 0.582055 0.607327 0.183189
O O3 0.683672 0.658195 0.176045
O O4 0.647813 0.663046 0.334381
O O5 0.500000 0.500000 0.627964
O O6 0.441038 0.585385 0.500000
O O7 0.502486 0.686383 0.611932
O O8 0.166975 0.821153 0.500000
O O9 0.250000 0.750000 0.584080
O O10 0.153007 0.674136 0.598060
O O11 0.750000 0.250000 0.136017
O O12 0.657974 0.167226 0.091547
O O13 0.688721 0.315537 0.000000
O O14 0.109999 0.498348 0.105801
O O15 0.134024 0.399568 0.251650
O O16 0.051276 0.345997 0.154339
O O17 0.445305 0.843931 0.145940
O O18 0.503899 0.166545 0.500000
#
# Coordination Sequence:
#
# PCOD8277490 Si02
#       7
#    16  16  16  16  16  16  16
#     4  12  26  44  70 102 139 187 236 295 353 422
#     4  10  23  43  69 101 142 191 239 291 356 429
#     4  11  24  45  73 104 137 178 232 290 354 422
#     4  11  26  49  72  99 141 189 239 295 357 430
#     4  11  23  41  68  99 137 176 221 289 350 422
#     4  11  24  41  67 101 133 178 229 279 350 429
#     4  11  22  39  65  96 136 176 222 282 345 417
#
# _framework density 22.249267
#
# number of rings (size 3 to 8) (size 9 to 14) (size 15 to 20)
#    0.000    1.000    2.857    2.571    2.000    6.571 
#    0.000    2.857    0.000    0.429    0.000    0.000 
#    0.000    0.000    0.000    0.000    0.000    0.000 
#
# Total GULP energy -693834.720151 kJ/mol
# GULP energy per Si atom -12389.905717 kJ/mol
# Density = 2.219863 g / cm^3
# Si number density = 22.249267 Si / 1000 Ang^3
#
#
#
# Elastic Constant Matrix: (Units=GPa)
#
#
# Indices 1 2 3 4 5 6 
#
# 1 128.1626 48.4912 28.0446 0.0000 0.0000 0.0000
# 2 48.4912 159.0165 35.9014 0.0000 0.0000 0.0000
# 3 28.0446 35.9014 130.1829 0.0000 0.0000 0.0000
# 4 0.0000 0.0000 0.0000 3.9355 0.0000 0.0000
# 5 0.0000 0.0000 0.0000 0.0000 30.5621 0.0000
# 6 0.0000 0.0000 0.0000 0.0000 0.0000 1.2472
#
#
#
# Elastic Compliance Matrix: (Units=1/GPa)
#
#
# Indices 1 2 3 4 5 6 
#
# 1 0.009011 -0.002463 -0.001262 0.000000 0.000000 0.000000
# 2 -0.002463 0.007379 -0.001505 0.000000 0.000000 0.000000
# 3 -0.001262 -0.001505 0.008368 0.000000 0.000000 0.000000
# 4 0.000000 0.000000 0.000000 0.254095 0.000000 0.000000
# 5 0.000000 0.000000 0.000000 0.000000 0.032720 0.000000
# 6 0.000000 0.000000 0.000000 0.000000 0.000000 0.801799
#
#
# Mechanical properties :
#
#
# Convention : Reuss Voigt Hill
#
# Bulk Modulus (GPa) = 69.93152 71.35960 70.64556
# Shear Modulus (GPa) = 4.43028 27.47729 15.95378
#
# Velocity S-wave (km/s) = 1.41263 3.51803 2.68068
# Velocity P-wave (km/s) = 5.84464 6.97456 6.43445
#
# Compressibility (1/GPa) = 0.01429970
#
# Stress axis : x y z
#
# Youngs Moduli (GPa) = 110.98113 135.51333 119.49932
#
# Poissons Ratio (x) = 0.33374 0.15080
# Poissons Ratio (y) = 0.27333 0.17979
# Poissons Ratio (z) = 0.14005 0.20388
#
# Static dielectric constant tensor:
#      x y z
#    x 3.772490 0.000000 0.000000 
#    y 0.000000 4.237170 0.000000 
#    z 0.000000 0.000000 4.443620 
# 
# 
# High freq. dielectric constant tensor:
#      x y z
#    x 1.866800 0.000000 0.000000 
#    y 0.000000 1.878670 0.000000 
#    z 0.000000 0.000000 1.897170 
# 
# From -- ./inp_files/32433.got.cif
#   From: 2010.03.12/outbox.cif.g09.slc.cpg/sg66_17_cif.got.tgz:32433.got - 2010.04.10 21:57:39.
