data_PCOD8277250
_publ_section_title
;
Structure prediction by ZEFSAII (Michael W. Deem and Ramdas Pophale) SiO2 
 PCOD8277250
Probable space group: C C C M
;
_chemical_formula_sum "Si O2"
_cell_formula_units_Z 112
_cell_length_a 14.881484
_cell_length_b 22.469666
_cell_length_c 14.350675
_cell_angle_alpha 90.000000
_cell_angle_beta 90.000000
_cell_angle_gamma 90.000000
_cell_volume 4798.607050
_symmetry_space_group_name_H-M "C C C M"
_symmetry_group_IT_number 66
_symmetry_cell_setting 'orthorhombic'
loop_
_space_group_symop_operation_xyz
x,y,z
-x,-y,z
x,-y,1/2-z
-x,y,1/2-z
-x,-y,-z
x,y,-z
-x,y,1/2+z
x,-y,1/2+z
1/2+x,1/2+y,z
1/2-x,1/2-y,z
1/2+x,1/2-y,1/2-z
1/2-x,1/2+y,1/2-z
1/2-x,1/2-y,-z
1/2+x,1/2+y,-z
1/2-x,1/2+y,1/2+z
1/2+x,1/2-y,1/2+z
loop_
_atom_site_type_symbol
_atom_site_label
_atom_site_fract_x
_atom_site_fract_y
_atom_site_fract_z
Si Si1 0.720061 0.944595 0.608796
Si Si2 0.133080 0.670322 0.392238
Si Si3 0.976303 0.064835 0.642878
Si Si4 0.565525 0.138891 0.894261
Si Si5 0.769533 0.927696 0.108335
Si Si6 0.629256 0.354167 0.896387
Si Si7 0.852519 0.255763 0.779104
O O1 0.740311 0.950297 0.500000
O O2 0.618018 0.922716 0.629032
O O3 0.792436 0.896480 0.647353
O O4 0.736912 0.009691 0.654562
O O5 0.146914 0.689106 0.500000
O O6 0.211926 0.627731 0.351455
O O7 0.134005 0.731865 0.331881
O O8 0.041163 0.632528 0.379395
O O9 0.873569 0.082883 0.627490
O O10 0.000000 0.067957 0.750000
O O11 0.037726 0.110246 0.586701
O O12 0.000000 0.000000 0.602188
O O13 0.601743 0.189046 0.827724
O O14 0.587252 0.157828 0.000000
O O15 0.746977 0.929347 0.000000
O O16 0.603747 0.304256 0.819401
O O17 0.656767 0.329101 0.000000
O O18 0.750000 0.250000 0.808902
#
# Coordination Sequence:
#
# PCOD8277250 Si02
#       7
#    16  16  16  16  16  16  16
#     4   9  18  35  68 105 134 170 219 277 348 417
#     4  10  25  47  68  96 140 189 234 283 345 417
#     4  11  24  39  63 100 145 187 230 283 348 420
#     4  10  21  42  69 101 139 176 223 285 348 414
#     4  10  21  42  71 101 137 182 231 282 346 427
#     4  11  23  41  66 102 139 178 227 285 357 418
#     4  12  25  42  70  97 132 180 236 293 342 408
#
# _framework density 23.340105999999999
#
# number of rings (size 3 to 8) (size 9 to 14) (size 15 to 20)
#    0.000    1.571    2.857    1.286    2.000    3.143 
#    0.000    2.857    0.000    1.714    0.000    0.000 
#    0.000    0.000    0.000    0.000    0.000    0.000 
#
# Total GULP energy -694240.763578 kJ/mol
# GULP energy per Si atom -12397.156492 kJ/mol
# Density = 2.328698 g / cm^3
# Si number density = 23.340106 Si / 1000 Ang^3
#
#
#
# Elastic Constant Matrix: (Units=GPa)
#
#
# Indices 1 2 3 4 5 6 
#
# 1 146.6219 40.1307 24.7786 0.0000 0.0000 0.0000
# 2 40.1307 116.8212 50.7236 0.0000 0.0000 0.0000
# 3 24.7786 50.7236 84.1853 0.0000 0.0000 0.0000
# 4 0.0000 0.0000 0.0000 -152.1676 0.0000 0.0000
# 5 0.0000 0.0000 0.0000 0.0000 28.0342 0.0000
# 6 0.0000 0.0000 0.0000 0.0000 0.0000 37.2090
#
#
#
# Elastic Compliance Matrix: (Units=1/GPa)
#
#
# Indices 1 2 3 4 5 6 
#
# 1 0.007578 -0.002214 -0.000896 0.000000 0.000000 0.000000
# 2 -0.002214 0.012240 -0.006723 0.000000 0.000000 0.000000
# 3 -0.000896 -0.006723 0.016193 0.000000 0.000000 0.000000
# 4 0.000000 0.000000 0.000000 -0.006572 0.000000 0.000000
# 5 0.000000 0.000000 0.000000 0.000000 0.035671 0.000000
# 6 0.000000 0.000000 0.000000 0.000000 0.000000 0.026875
#
#
# Mechanical properties :
#
#
# Convention : Reuss Voigt Hill
#
# Bulk Modulus (GPa) = 61.18527 64.32159 62.75343
# Shear Modulus (GPa) = 42.69859 -1.91851 20.39004
#
# Velocity S-wave (km/s) = 4.28180 -0.90762 2.95889
# Velocity P-wave (km/s) = 7.12156 5.14974 6.21436
#
# Compressibility (1/GPa) = 0.01634380
#
# Stress axis : x y z
#
# Youngs Moduli (GPa) = 131.96604 81.70077 61.75405
#
# Poissons Ratio (x) = 0.18087 0.05536
# Poissons Ratio (y) = 0.29216 0.41518
# Poissons Ratio (z) = 0.11830 0.54929
#
# Static dielectric constant tensor:
#      x y z
#    x 3.937310 0.000000 0.000000 
#    y 0.000000 4.344990 0.000000 
#    z 0.000000 0.000000 4.198130 
# 
# 
# High freq. dielectric constant tensor:
#      x y z
#    x 1.927740 0.000000 0.000000 
#    y 0.000000 1.906530 0.000000 
#    z 0.000000 0.000000 1.926400 
# 
# From -- ./inp_files/28728.got.cif
#   From: 2010.03.12/outbox.cif.g09.slc.cpg/sg66_15_cif.got.tgz:28728.got - 2010.04.10 21:57:39.
