data_PCOD8277464
_publ_section_title
;
Structure prediction by ZEFSAII (Michael W. Deem and Ramdas Pophale) SiO2 
 PCOD8277464
Probable space group: C C C M
;
_chemical_formula_sum "Si O2"
_cell_formula_units_Z 48
_cell_length_a 25.426514
_cell_length_b 5.072087
_cell_length_c 15.273917
_cell_angle_alpha 90.000000
_cell_angle_beta 90.000000
_cell_angle_gamma 90.000000
_cell_volume 1969.808207
_symmetry_space_group_name_H-M "C C C M"
_symmetry_group_IT_number 66
_symmetry_cell_setting 'orthorhombic'
loop_
_space_group_symop_operation_xyz
x,y,z
-x,-y,z
x,-y,1/2-z
-x,y,1/2-z
-x,-y,-z
x,y,-z
-x,y,1/2+z
x,-y,1/2+z
1/2+x,1/2+y,z
1/2-x,1/2-y,z
1/2+x,1/2-y,1/2-z
1/2-x,1/2+y,1/2-z
1/2-x,1/2-y,-z
1/2+x,1/2+y,-z
1/2-x,1/2+y,1/2+z
1/2+x,1/2-y,1/2+z
loop_
_atom_site_type_symbol
_atom_site_label
_atom_site_fract_x
_atom_site_fract_y
_atom_site_fract_z
Si Si1 0.976110 0.749213 0.652393
Si Si2 0.695638 0.377810 0.345804
Si Si3 0.362828 0.869323 0.900461
O O1 0.913075 0.745106 0.651431
O O2 0.000000 0.500000 0.601207
O O3 0.000000 0.750840 0.750000
O O4 0.000000 0.000000 0.601849
O O5 0.701877 0.500000 0.250000
O O6 0.750000 0.250000 0.379980
O O7 0.679395 0.630021 0.403983
O O8 0.654699 0.134618 0.349632
O O9 0.376349 0.947775 0.000000
#
# Coordination Sequence:
#
# PCOD8277464 Si02
#       3
#    16  16  16
#     4  10  23  41  67 103 139 196 240 297 352 431
#     4  12  27  48  75 108 144 195 250 299 359 445
#     4  12  27  45  74 112 151 191 242 307 373 434
#
# _framework density 24.367854999999999
#
# number of rings (size 3 to 8) (size 9 to 14) (size 15 to 20)
#    0.000    0.667    0.000    7.000   14.000    5.333 
#    0.000    0.000    0.000    0.000    0.000    0.000 
#    0.000    0.000    0.000    0.000    0.000    0.000 
#
# Total GULP energy -297422.994530 kJ/mol
# GULP energy per Si atom -12392.624772 kJ/mol
# Density = 2.431239 g / cm^3
# Si number density = 24.367855 Si / 1000 Ang^3
#
#
#
# Elastic Constant Matrix: (Units=GPa)
#
#
# Indices 1 2 3 4 5 6 
#
# 1 125.4021 54.0397 34.9015 0.0000 0.0000 0.0000
# 2 54.0397 230.4215 13.1743 0.0000 0.0000 0.0000
# 3 34.9015 13.1743 70.7796 0.0000 0.0000 0.0000
# 4 0.0000 0.0000 0.0000 22.9125 0.0000 0.0000
# 5 0.0000 0.0000 0.0000 0.0000 10.2646 0.0000
# 6 0.0000 0.0000 0.0000 0.0000 0.0000 54.2946
#
#
#
# Elastic Compliance Matrix: (Units=1/GPa)
#
#
# Indices 1 2 3 4 5 6 
#
# 1 0.010175 -0.002122 -0.004622 0.000000 0.000000 0.000000
# 2 -0.002122 0.004829 0.000148 0.000000 0.000000 0.000000
# 3 -0.004622 0.000148 0.016380 0.000000 0.000000 0.000000
# 4 0.000000 0.000000 0.000000 0.043644 0.000000 0.000000
# 5 0.000000 0.000000 0.000000 0.000000 0.097422 0.000000
# 6 0.000000 0.000000 0.000000 0.000000 0.000000 0.018418
#
#
# Mechanical properties :
#
#
# Convention : Reuss Voigt Hill
#
# Bulk Modulus (GPa) = 54.97323 70.09269 62.53296
# Shear Modulus (GPa) = 23.79520 39.12686 31.46103
#
# Velocity S-wave (km/s) = 3.12829 4.01143 3.59707
# Velocity P-wave (km/s) = 5.97135 7.09100 6.55512
#
# Compressibility (1/GPa) = 0.01819067
#
# Stress axis : x y z
#
# Youngs Moduli (GPa) = 98.27689 207.07703 61.04919
#
# Poissons Ratio (x) = 0.43944 0.28220
# Poissons Ratio (y) = 0.20855 -0.00901
# Poissons Ratio (z) = 0.45428 -0.03055
#
# Static dielectric constant tensor:
#      x y z
#    x 4.394460 0.000000 0.000000 
#    y 0.000000 2.564480 0.000000 
#    z 0.000000 0.000000 3.853550 
# 
# 
# High freq. dielectric constant tensor:
#      x y z
#    x 1.968300 0.000000 0.000000 
#    y 0.000000 2.010020 0.000000 
#    z 0.000000 0.000000 1.938770 
# 
# From -- ./inp_files/32790.got.cif
#   From: 2010.03.12/outbox.cif.g09.slc.cpg/sg66_17_cif.got.tgz:32790.got - 2010.04.10 21:57:39.
