data_PCOD8277163
_publ_section_title
;
Structure prediction by ZEFSAII (Michael W. Deem and Ramdas Pophale) SiO2 
 PCOD8277163
Probable space group: C C C M
;
_chemical_formula_sum "Si O2"
_cell_formula_units_Z 120
_cell_length_a 20.185273
_cell_length_b 12.582776
_cell_length_c 22.516853
_cell_angle_alpha 90.000000
_cell_angle_beta 90.000000
_cell_angle_gamma 90.000000
_cell_volume 5718.982734
_symmetry_space_group_name_H-M "C C C M"
_symmetry_group_IT_number 66
_symmetry_cell_setting 'orthorhombic'
loop_
_space_group_symop_operation_xyz
x,y,z
-x,-y,z
x,-y,1/2-z
-x,y,1/2-z
-x,-y,-z
x,y,-z
-x,y,1/2+z
x,-y,1/2+z
1/2+x,1/2+y,z
1/2-x,1/2-y,z
1/2+x,1/2-y,1/2-z
1/2-x,1/2+y,1/2-z
1/2-x,1/2-y,-z
1/2+x,1/2+y,-z
1/2-x,1/2+y,1/2+z
1/2+x,1/2-y,1/2+z
loop_
_atom_site_type_symbol
_atom_site_label
_atom_site_fract_x
_atom_site_fract_y
_atom_site_fract_z
Si Si1 0.347165 0.476807 0.067181
Si Si2 0.909116 0.806431 0.434551
Si Si3 0.000000 0.500000 0.352471
Si Si4 0.561061 0.797090 0.786839
Si Si5 0.969050 0.110307 0.632662
Si Si6 0.115637 0.574333 0.068038
Si Si7 0.799728 0.342666 0.245775
Si Si8 0.274407 0.006635 0.147725
O O1 0.353888 0.603386 0.071369
O O2 0.418207 0.424064 0.080928
O O3 0.293572 0.451279 0.118284
O O4 0.325716 0.442661 0.000000
O O5 0.941317 0.807802 0.500000
O O6 0.867839 0.698689 0.424653
O O7 0.970113 0.819643 0.390245
O O8 0.958838 0.412269 0.314648
O O9 0.950538 0.560823 0.394909
O O10 0.500000 0.754277 0.750000
O O11 0.573837 0.693670 0.828257
O O12 0.623167 0.808647 0.741339
O O13 0.000000 0.000000 0.661523
O O14 0.175168 0.504173 0.093263
O O15 0.104634 0.539858 0.000000
O O16 0.750000 0.250000 0.259075
O O17 0.771866 0.398310 0.186317
O O18 0.800869 0.408554 0.306250
#
# Coordination Sequence:
#
# PCOD8277163 Si02
#       8
#    16  16   8  16  16  16  16  16
#     4  10  21  39  65  94 131 173 214 263 323 397
#     4   9  19  35  59  94 127 162 203 255 321 383
#     4  12  22  42  66  92 128 161 219 260 326 392
#     4  12  25  41  69  95 126 172 224 278 326 385
#     4  10  21  39  65  95 130 168 209 262 321 394
#     4  11  22  38  63  95 130 159 203 269 326 387
#     4  11  26  44  65  89 128 173 216 275 329 385
#     4  11  24  42  63  92 122 168 224 260 325 389
#
# _framework density 20.982752000000001
#
# number of rings (size 3 to 8) (size 9 to 14) (size 15 to 20)
#    0.000    1.333    2.667    2.800    3.733    2.933 
#    0.000    2.000    0.000    1.600    0.000    0.000 
#    0.000    0.000    0.000    0.000    0.000    0.000 
#
# Total GULP energy -743469.387682 kJ/mol
# GULP energy per Si atom -12391.156461 kJ/mol
# Density = 2.093499 g / cm^3
# Si number density = 20.982752 Si / 1000 Ang^3
#
#
#
# Elastic Constant Matrix: (Units=GPa)
#
#
# Indices 1 2 3 4 5 6 
#
# 1 89.0535 6.6711 24.0260 0.0000 0.0000 0.0000
# 2 6.6711 66.2280 15.6017 0.0000 0.0000 0.0000
# 3 24.0260 15.6017 76.0800 0.0000 0.0000 0.0000
# 4 0.0000 0.0000 0.0000 -164.7190 0.0000 0.0000
# 5 0.0000 0.0000 0.0000 0.0000 53.9554 0.0000
# 6 0.0000 0.0000 0.0000 0.0000 0.0000 29.2237
#
#
#
# Elastic Compliance Matrix: (Units=1/GPa)
#
#
# Indices 1 2 3 4 5 6 
#
# 1 0.012282 -0.000340 -0.003809 0.000000 0.000000 0.000000
# 2 -0.000340 0.015875 -0.003148 0.000000 0.000000 0.000000
# 3 -0.003809 -0.003148 0.014993 0.000000 0.000000 0.000000
# 4 0.000000 0.000000 0.000000 -0.006071 0.000000 0.000000
# 5 0.000000 0.000000 0.000000 0.000000 0.018534 0.000000
# 6 0.000000 0.000000 0.000000 0.000000 0.000000 0.034219
#
#
# Mechanical properties :
#
#
# Convention : Reuss Voigt Hill
#
# Bulk Modulus (GPa) = 35.01907 35.99545 35.50726
# Shear Modulus (GPa) = 43.88100 -3.97044 19.95528
#
# Velocity S-wave (km/s) = 4.57802 -1.37708 3.08723
# Velocity P-wave (km/s) = 6.68357 3.82930 5.44673
#
# Compressibility (1/GPa) = 0.02855587
#
# Stress axis : x y z
#
# Youngs Moduli (GPa) = 81.41790 62.99122 66.69984
#
# Poissons Ratio (x) = 0.02141 0.25406
# Poissons Ratio (y) = 0.02767 0.20998
# Poissons Ratio (z) = 0.31012 0.19831
#
# Static dielectric constant tensor:
#      x y z
#    x 3.763610 0.000000 0.000000 
#    y 0.000000 3.925030 0.000000 
#    z 0.000000 0.000000 3.882750 
# 
# 
# High freq. dielectric constant tensor:
#      x y z
#    x 1.819420 0.000000 0.000000 
#    y 0.000000 1.823530 0.000000 
#    z 0.000000 0.000000 1.822800 
# 
# From -- ./inp_files/59605.got.cif
#   From: 2010.03.12/outbox.cif.g09.slc.cpg/sg66_30_cif.got.tgz:59605.got - 2010.04.10 21:57:39.
