data_PCOD8277166
_publ_section_title
;
Structure prediction by ZEFSAII (Michael W. Deem and Ramdas Pophale) SiO2 
 PCOD8277166
Probable space group: C C C M
;
_chemical_formula_sum "Si O2"
_cell_formula_units_Z 80
_cell_length_a 25.023393
_cell_length_b 5.008832
_cell_length_c 31.936100
_cell_angle_alpha 90.000000
_cell_angle_beta 90.000000
_cell_angle_gamma 90.000000
_cell_volume 4002.805995
_symmetry_space_group_name_H-M "C C C M"
_symmetry_group_IT_number 66
_symmetry_cell_setting 'orthorhombic'
loop_
_space_group_symop_operation_xyz
x,y,z
-x,-y,z
x,-y,1/2-z
-x,y,1/2-z
-x,-y,-z
x,y,-z
-x,y,1/2+z
x,-y,1/2+z
1/2+x,1/2+y,z
1/2-x,1/2-y,z
1/2+x,1/2-y,1/2-z
1/2-x,1/2+y,1/2-z
1/2-x,1/2-y,-z
1/2+x,1/2+y,-z
1/2-x,1/2+y,1/2+z
1/2+x,1/2-y,1/2+z
loop_
_atom_site_type_symbol
_atom_site_label
_atom_site_fract_x
_atom_site_fract_y
_atom_site_fract_z
Si Si1 0.964857 0.235441 0.088774
Si Si2 0.693903 0.858189 0.910613
Si Si3 0.342864 0.903303 0.500000
Si Si4 0.644734 0.630470 0.373502
Si Si5 0.914864 0.895945 0.500000
Si Si6 0.212948 0.003064 0.702404
O O1 0.913933 0.257305 0.119908
O O2 0.000000 0.500000 0.089921
O O3 0.949553 0.163650 0.041143
O O4 0.000000 0.000000 0.107950
O O5 0.750000 0.750000 0.893132
O O6 0.695535 0.880136 0.960400
O O7 0.648115 0.639581 0.900877
O O8 0.685622 0.143754 0.889195
O O9 0.393069 0.699318 0.500000
O O10 0.364426 0.203014 0.500000
O O11 0.660068 0.536022 0.326444
O O12 0.250000 0.750000 0.691552
O O13 0.191715 0.000000 0.750000
O O14 0.250000 0.250000 0.693872
#
# Coordination Sequence:
#
# PCOD8277166 Si02
#       6
#    16  16   8  16   8  16
#     4  12  24  40  60  84 114 160 209 261 306 344
#     4  12  23  37  58  84 121 162 198 238 296 359
#     4  12  21  39  54  81 118 163 198 249 291 358
#     4  12  23  40  60  88 122 153 200 250 296 354
#     4  12  22  41  59  77 116 157 215 265 306 330
#     4  10  21  39  65  97 126 153 187 230 294 371
#
# _framework density 19.985980000000001
#
# number of rings (size 3 to 8) (size 9 to 14) (size 15 to 20)
#    0.000    0.400    4.000    6.900    0.000    0.000 
#    0.000    3.000    0.000    0.600    0.000    1.400 
#    0.000    0.000    0.000    0.000    0.000    0.000 
#
# Total GULP energy -495966.427385 kJ/mol
# GULP energy per Si atom -12399.160685 kJ/mol
# Density = 1.994049 g / cm^3
# Si number density = 19.985980 Si / 1000 Ang^3
#
#
#
# Elastic Constant Matrix: (Units=GPa)
#
#
# Indices 1 2 3 4 5 6 
#
# 1 93.9243 16.9237 53.4103 0.0000 0.0000 0.0000
# 2 16.9237 110.2219 34.9987 0.0000 0.0000 0.0000
# 3 53.4103 34.9987 131.3822 0.0000 0.0000 0.0000
# 4 0.0000 0.0000 0.0000 12.3141 0.0000 0.0000
# 5 0.0000 0.0000 0.0000 0.0000 1.5955 0.0000
# 6 0.0000 0.0000 0.0000 0.0000 0.0000 -80.4087
#
#
#
# Elastic Compliance Matrix: (Units=1/GPa)
#
#
# Indices 1 2 3 4 5 6 
#
# 1 0.013862 -0.000370 -0.005537 0.000000 0.000000 0.000000
# 2 -0.000370 0.009921 -0.002492 0.000000 0.000000 0.000000
# 3 -0.005537 -0.002492 0.010526 0.000000 0.000000 0.000000
# 4 0.000000 0.000000 0.000000 0.081208 0.000000 0.000000
# 5 0.000000 0.000000 0.000000 0.000000 0.626748 0.000000
# 6 0.000000 0.000000 0.000000 0.000000 0.000000 -0.012436
#
#
# Mechanical properties :
#
#
# Convention : Reuss Voigt Hill
#
# Bulk Modulus (GPa) = 57.10861 60.68819 58.89840
# Shear Modulus (GPa) = 6.64485 2.04657 4.34571
#
# Velocity S-wave (km/s) = 1.82537 1.01303 1.47618
# Velocity P-wave (km/s) = 5.75143 5.63911 5.69555
#
# Compressibility (1/GPa) = 0.01751049
#
# Stress axis : x y z
#
# Youngs Moduli (GPa) = 72.13953 100.79803 95.00225
#
# Poissons Ratio (x) = 0.03733 0.52599
# Poissons Ratio (y) = 0.02672 0.23677
# Poissons Ratio (z) = 0.39941 0.25121
#
# Static dielectric constant tensor:
#      x y z
#    x 3.448390 0.000000 0.000000 
#    y 0.000000 3.897190 0.000000 
#    z 0.000000 0.000000 11.427830 
# 
# 
# High freq. dielectric constant tensor:
#      x y z
#    x 1.762170 0.000000 0.000000 
#    y 0.000000 1.808000 0.000000 
#    z 0.000000 0.000000 1.765020 
# 
# From -- ./inp_files/70318.got.cif
#   From: 2010.03.12/outbox.cif.g09.slc.cpg/sg66_36_cif.got.tgz:70318.got - 2010.04.10 21:57:39.
