data_PCOD8277841
_publ_section_title
;
Structure prediction by ZEFSAII (Michael W. Deem and Ramdas Pophale) SiO2 
 PCOD8277841
Probable space group: C C C M
;
_chemical_formula_sum "Si O2"
_cell_formula_units_Z 64
_cell_length_a 21.495622
_cell_length_b 10.550845
_cell_length_c 13.655107
_cell_angle_alpha 90.000000
_cell_angle_beta 90.000000
_cell_angle_gamma 90.000000
_cell_volume 3096.936973
_symmetry_space_group_name_H-M "C C C M"
_symmetry_group_IT_number 66
_symmetry_cell_setting 'orthorhombic'
loop_
_space_group_symop_operation_xyz
x,y,z
-x,-y,z
x,-y,1/2-z
-x,y,1/2-z
-x,-y,-z
x,y,-z
-x,y,1/2+z
x,-y,1/2+z
1/2+x,1/2+y,z
1/2-x,1/2-y,z
1/2+x,1/2-y,1/2-z
1/2-x,1/2+y,1/2-z
1/2-x,1/2-y,-z
1/2+x,1/2+y,-z
1/2-x,1/2+y,1/2+z
1/2+x,1/2-y,1/2+z
loop_
_atom_site_type_symbol
_atom_site_label
_atom_site_fract_x
_atom_site_fract_y
_atom_site_fract_z
Si Si1 0.809470 0.097775 0.000000
Si Si2 0.250000 0.250000 0.663379
Si Si3 0.067503 0.940852 0.500000
Si Si4 0.790767 0.375085 0.500000
Si Si5 0.153714 0.629545 0.710484
Si Si6 0.069305 0.862616 0.712281
O O1 0.801939 0.182964 0.096475
O O2 0.879436 0.047404 0.000000
O O3 0.756444 0.991426 0.000000
O O4 0.219258 0.355300 0.733454
O O5 0.073255 0.854460 0.595184
O O6 0.000000 0.000000 0.500000
O O7 0.750000 0.250000 0.500000
O O8 0.835583 0.378123 0.594215
O O9 0.122208 0.500000 0.750000
O O10 0.112120 0.747625 0.746939
O O11 0.000000 0.839625 0.750000
O O12 0.093853 0.000000 0.750000
#
# Coordination Sequence:
#
# PCOD8277841 Si02
#       6
#     8   8   8   8  16  16
#     4  11  24  42  65 101 133 173 221 270 338 402
#     4  11  24  41  68  92 136 183 210 271 338 412
#     4  12  23  43  69 101 133 169 232 292 323 390
#     4  12  23  41  64  99 132 173 223 273 340 407
#     4  12  25  42  67  99 139 175 225 277 344 404
#     4  11  24  44  69  98 130 178 232 276 339 402
#
# _framework density 20.665579000000001
#
# number of rings (size 3 to 8) (size 9 to 14) (size 15 to 20)
#    0.000    0.500    6.250    3.750    0.000    1.500 
#    0.000    1.250    0.000    3.000    0.000    0.000 
#    0.000    0.000    0.000    0.000    0.000    0.000 
#
# Total GULP energy -396840.041011 kJ/mol
# GULP energy per Si atom -12401.251282 kJ/mol
# Density = 2.061854 g / cm^3
# Si number density = 20.665579 Si / 1000 Ang^3
#
#
#
# Elastic Constant Matrix: (Units=GPa)
#
#
# Indices 1 2 3 4 5 6 
#
# 1 100.1181 52.9154 35.8094 0.0000 0.0000 0.0000
# 2 52.9154 144.5420 49.7846 0.0000 0.0000 0.0000
# 3 35.8094 49.7846 155.4800 0.0000 0.0000 0.0000
# 4 0.0000 0.0000 0.0000 29.1198 0.0000 0.0000
# 5 0.0000 0.0000 0.0000 0.0000 20.7899 0.0000
# 6 0.0000 0.0000 0.0000 0.0000 0.0000 25.5874
#
#
#
# Elastic Compliance Matrix: (Units=1/GPa)
#
#
# Indices 1 2 3 4 5 6 
#
# 1 0.012737 -0.004105 -0.001619 0.000000 0.000000 0.000000
# 2 -0.004105 0.009099 -0.001968 0.000000 0.000000 0.000000
# 3 -0.001619 -0.001968 0.007435 0.000000 0.000000 0.000000
# 4 0.000000 0.000000 0.000000 0.034341 0.000000 0.000000
# 5 0.000000 0.000000 0.000000 0.000000 0.048100 0.000000
# 6 0.000000 0.000000 0.000000 0.000000 0.000000 0.039082
#
#
# Mechanical properties :
#
#
# Convention : Reuss Voigt Hill
#
# Bulk Modulus (GPa) = 72.01355 75.23988 73.62672
# Shear Modulus (GPa) = 29.27275 32.54146 30.90711
#
# Velocity S-wave (km/s) = 3.76772 3.97252 3.87147
# Velocity P-wave (km/s) = 7.33828 7.58476 7.46254
#
# Compressibility (1/GPa) = 0.01388628
#
# Stress axis : x y z
#
# Youngs Moduli (GPa) = 78.51119 109.90033 134.50356
#
# Poissons Ratio (x) = 0.45117 0.21776
# Poissons Ratio (y) = 0.32231 0.26471
# Poissons Ratio (z) = 0.12711 0.21629
#
# Static dielectric constant tensor:
#      x y z
#    x 3.695840 0.000000 0.000000 
#    y 0.000000 3.592000 0.000000 
#    z 0.000000 0.000000 4.063840 
# 
# 
# High freq. dielectric constant tensor:
#      x y z
#    x 1.791900 0.000000 0.000000 
#    y 0.000000 1.809440 0.000000 
#    z 0.000000 0.000000 1.833480 
# 
# From -- ./inp_files/29630.got.cif
#   From: 2010.03.12/outbox.cif.g09.slc.cpg/sg66_15_cif.got.tgz:29630.got - 2010.04.10 21:57:39.
