data_PCOD8277039
_publ_section_title
;
Structure prediction by ZEFSAII (Michael W. Deem and Ramdas Pophale) SiO2 
 PCOD8277039
Probable space group: C C C M
;
_chemical_formula_sum "Si O2"
_cell_formula_units_Z 88
_cell_length_a 26.156427
_cell_length_b 8.307558
_cell_length_c 20.515940
_cell_angle_alpha 90.000000
_cell_angle_beta 90.000000
_cell_angle_gamma 90.000000
_cell_volume 4458.032403
_symmetry_space_group_name_H-M "C C C M"
_symmetry_group_IT_number 66
_symmetry_cell_setting 'orthorhombic'
loop_
_space_group_symop_operation_xyz
x,y,z
-x,-y,z
x,-y,1/2-z
-x,y,1/2-z
-x,-y,-z
x,y,-z
-x,y,1/2+z
x,-y,1/2+z
1/2+x,1/2+y,z
1/2-x,1/2-y,z
1/2+x,1/2-y,1/2-z
1/2-x,1/2+y,1/2-z
1/2-x,1/2-y,-z
1/2+x,1/2+y,-z
1/2-x,1/2+y,1/2+z
1/2+x,1/2-y,1/2+z
loop_
_atom_site_type_symbol
_atom_site_label
_atom_site_fract_x
_atom_site_fract_y
_atom_site_fract_z
Si Si1 0.300534 0.832601 0.928039
Si Si2 0.941178 0.676845 0.753046
Si Si3 0.447292 0.605462 0.377856
Si Si4 0.590052 0.778955 0.000000
Si Si5 0.550948 0.105559 0.000000
Si Si6 0.799437 0.357672 0.500000
Si Si7 0.096212 0.787267 0.117940
O O1 0.250000 0.750000 0.897197
O O2 0.347861 0.788361 0.882558
O O3 0.296739 0.026987 0.935409
O O4 0.309914 0.754284 0.000000
O O5 0.913506 0.500000 0.750000
O O6 0.930793 0.786834 0.816148
O O7 0.925769 0.774579 0.689906
O O8 0.000000 0.640548 0.750000
O O9 0.500000 0.500000 0.370120
O O10 0.445218 0.724223 0.439477
O O11 0.401993 0.478795 0.393706
O O12 0.650747 0.737724 0.000000
O O13 0.596161 0.973761 0.000000
O O14 0.556984 0.210853 0.934664
O O15 0.500000 0.000000 0.000000
O O16 0.750000 0.250000 0.500000
#
# Coordination Sequence:
#
# PCOD8277039 Si02
#       7
#    16  16  16   8   8   8  16
#     4   9  20  39  63  92 126 167 214 265 341 388
#     4  11  25  42  63  86 125 177 219 263 324 393
#     4  12  25  41  61  95 132 172 221 263 319 396
#     4  12  24  38  62  97 132 162 217 269 328 380
#     4  12  23  37  58  94 132 171 209 261 325 382
#     4  10  21  37  64  92 134 162 212 268 334 394
#     4  12  22  40  65  87 134 170 214 276 325 390
#
# _framework density 19.739650999999999
#
# number of rings (size 3 to 8) (size 9 to 14) (size 15 to 20)
#    0.545    0.364    4.545    3.545    5.091    0.000 
#    0.000    0.000    0.000    3.273    0.000    0.000 
#    0.000    0.000    0.000    0.000    0.000    0.000 
#
# Total GULP energy -545131.697754 kJ/mol
# GULP energy per Si atom -12389.356767 kJ/mol
# Density = 1.969472 g / cm^3
# Si number density = 19.739651 Si / 1000 Ang^3
#
#
#
# Elastic Constant Matrix: (Units=GPa)
#
#
# Indices 1 2 3 4 5 6 
#
# 1 107.5100 31.7122 29.1287 0.0000 0.0000 0.0000
# 2 31.7122 130.1884 50.6821 0.0000 0.0000 0.0000
# 3 29.1287 50.6821 142.3087 0.0000 0.0000 0.0000
# 4 0.0000 0.0000 0.0000 41.6653 0.0000 0.0000
# 5 0.0000 0.0000 0.0000 0.0000 13.4699 0.0000
# 6 0.0000 0.0000 0.0000 0.0000 0.0000 28.2014
#
#
#
# Elastic Compliance Matrix: (Units=1/GPa)
#
#
# Indices 1 2 3 4 5 6 
#
# 1 0.010258 -0.001952 -0.001404 0.000000 0.000000 0.000000
# 2 -0.001952 0.009289 -0.002909 0.000000 0.000000 0.000000
# 3 -0.001404 -0.002909 0.008350 0.000000 0.000000 0.000000
# 4 0.000000 0.000000 0.000000 0.024001 0.000000 0.000000
# 5 0.000000 0.000000 0.000000 0.000000 0.074239 0.000000
# 6 0.000000 0.000000 0.000000 0.000000 0.000000 0.035459
#
#
# Mechanical properties :
#
#
# Convention : Reuss Voigt Hill
#
# Bulk Modulus (GPa) = 65.07451 67.00589 66.04020
# Shear Modulus (GPa) = 27.89417 34.56626 31.23022
#
# Velocity S-wave (km/s) = 3.76321 4.18916 3.98188
# Velocity P-wave (km/s) = 7.20557 7.57742 7.39383
#
# Compressibility (1/GPa) = 0.01536700
#
# Stress axis : x y z
#
# Youngs Moduli (GPa) = 97.48741 107.65465 119.75542
#
# Poissons Ratio (x) = 0.21013 0.16819
# Poissons Ratio (y) = 0.19028 0.34833
# Poissons Ratio (z) = 0.13692 0.31313
#
# Static dielectric constant tensor:
#      x y z
#    x 3.417680 0.000000 0.000000 
#    y 0.000000 4.090200 0.000000 
#    z 0.000000 0.000000 3.329010 
# 
# 
# High freq. dielectric constant tensor:
#      x y z
#    x 1.751340 0.000000 0.000000 
#    y 0.000000 1.790310 0.000000 
#    z 0.000000 0.000000 1.745790 
# 
# From -- ./inp_files/44702.got.cif
#   From: 2010.03.12/outbox.cif.g09.slc.cpg/sg66_23_cif.got.tgz:44702.got - 2010.04.10 21:57:39.
