data_PCOD8277348
_publ_section_title
;
Structure prediction by ZEFSAII (Michael W. Deem and Ramdas Pophale) SiO2 
 PCOD8277348
Probable space group: C C C M
;
_chemical_formula_sum "Si O2"
_cell_formula_units_Z 112
_cell_length_a 23.428846
_cell_length_b 15.950716
_cell_length_c 14.446517
_cell_angle_alpha 90.000000
_cell_angle_beta 90.000000
_cell_angle_gamma 90.000000
_cell_volume 5398.762632
_symmetry_space_group_name_H-M "C C C M"
_symmetry_group_IT_number 66
_symmetry_cell_setting 'orthorhombic'
loop_
_space_group_symop_operation_xyz
x,y,z
-x,-y,z
x,-y,1/2-z
-x,y,1/2-z
-x,-y,-z
x,y,-z
-x,y,1/2+z
x,-y,1/2+z
1/2+x,1/2+y,z
1/2-x,1/2-y,z
1/2+x,1/2-y,1/2-z
1/2-x,1/2+y,1/2-z
1/2-x,1/2-y,-z
1/2+x,1/2+y,-z
1/2-x,1/2+y,1/2+z
1/2+x,1/2-y,1/2+z
loop_
_atom_site_type_symbol
_atom_site_label
_atom_site_fract_x
_atom_site_fract_y
_atom_site_fract_z
Si Si1 0.641725 0.080484 0.395660
Si Si2 0.616632 0.501650 0.103891
Si Si3 0.755308 0.995997 0.643016
Si Si4 0.903349 0.308839 0.766775
Si Si5 0.565741 0.619453 0.750631
Si Si6 0.552736 0.059008 0.894121
Si Si7 0.295838 0.816573 0.105058
O O1 0.628493 0.109923 0.500000
O O2 0.709619 0.068825 0.381556
O O3 0.615316 0.150764 0.330067
O O4 0.611604 0.991010 0.375969
O O5 0.684908 0.509401 0.092151
O O6 0.593620 0.584148 0.155491
O O7 0.598017 0.418881 0.161145
O O8 0.590977 0.496705 0.000000
O O9 0.769132 0.000000 0.750000
O O10 0.729233 0.908690 0.612047
O O11 0.930108 0.219071 0.747481
O O12 0.950077 0.364086 0.822345
O O13 0.849383 0.301038 0.831671
O O14 0.500000 0.591756 0.750000
O O15 0.500000 0.000000 0.870861
O O16 0.549648 0.091627 0.000000
O O17 0.250000 0.750000 0.139966
O O18 0.314591 0.798630 0.000000
#
# Coordination Sequence:
#
# PCOD8277348 Si02
#       7
#    16  16  16  16  16  16  16
#     4  11  23  39  60  94 135 178 220 258 312 385
#     4  11  24  47  74  96 127 169 214 278 350 404
#     4  12  20  40  68  98 131 170 219 269 330 398
#     4  12  24  39  64  95 134 174 216 268 325 380
#     4  11  27  46  67 101 130 164 225 281 327 405
#     4  10  22  40  63  93 131 176 224 263 308 378
#     4  11  23  38  61  95 130 163 209 268 326 385
#
# _framework density 20.745494000000001
#
# number of rings (size 3 to 8) (size 9 to 14) (size 15 to 20)
#    0.000    0.857    4.286    3.857    2.000    4.571 
#    0.000    0.000    0.000    2.143    0.000    0.000 
#    0.000    0.000    0.000    0.000    0.000    0.000 
#
# Total GULP energy -694597.541903 kJ/mol
# GULP energy per Si atom -12403.527534 kJ/mol
# Density = 2.069828 g / cm^3
# Si number density = 20.745494 Si / 1000 Ang^3
#
#
#
# Elastic Constant Matrix: (Units=GPa)
#
#
# Indices 1 2 3 4 5 6 
#
# 1 104.4723 33.1730 29.1164 0.0000 0.0000 0.0000
# 2 33.1730 116.9478 45.5946 0.0000 0.0000 0.0000
# 3 29.1164 45.5946 128.3401 0.0000 0.0000 0.0000
# 4 0.0000 0.0000 0.0000 33.0674 0.0000 0.0000
# 5 0.0000 0.0000 0.0000 0.0000 55.4185 0.0000
# 6 0.0000 0.0000 0.0000 0.0000 0.0000 29.5164
#
#
#
# Elastic Compliance Matrix: (Units=1/GPa)
#
#
# Indices 1 2 3 4 5 6 
#
# 1 0.010788 -0.002445 -0.001579 0.000000 0.000000 0.000000
# 2 -0.002445 0.010479 -0.003168 0.000000 0.000000 0.000000
# 3 -0.001579 -0.003168 0.009276 0.000000 0.000000 0.000000
# 4 0.000000 0.000000 0.000000 0.030241 0.000000 0.000000
# 5 0.000000 0.000000 0.000000 0.000000 0.018045 0.000000
# 6 0.000000 0.000000 0.000000 0.000000 0.000000 0.033879
#
#
# Mechanical properties :
#
#
# Convention : Reuss Voigt Hill
#
# Bulk Modulus (GPa) = 61.88348 62.83647 62.35997
# Shear Modulus (GPa) = 37.74183 39.72554 38.73369
#
# Velocity S-wave (km/s) = 4.26993 4.38070 4.32567
# Velocity P-wave (km/s) = 7.36236 7.47946 7.42114
#
# Compressibility (1/GPa) = 0.01615940
#
# Stress axis : x y z
#
# Youngs Moduli (GPa) = 92.69381 95.42448 107.80916
#
# Poissons Ratio (x) = 0.23327 0.17024
# Poissons Ratio (y) = 0.22659 0.34158
# Poissons Ratio (z) = 0.14637 0.30234
#
# Static dielectric constant tensor:
#      x y z
#    x 3.682010 0.000000 0.000000 
#    y 0.000000 3.459800 0.000000 
#    z 0.000000 0.000000 3.894820 
# 
# 
# High freq. dielectric constant tensor:
#      x y z
#    x 1.825630 0.000000 0.000000 
#    y 0.000000 1.794260 0.000000 
#    z 0.000000 0.000000 1.825440 
# 
# From -- ./inp_files/32472.got.cif
#   From: 2010.03.12/outbox.cif.g09.slc.cpg/sg66_17_cif.got.tgz:32472.got - 2010.04.10 21:57:39.
