data_PCOD8277718
_publ_section_title
;
Structure prediction by ZEFSAII (Michael W. Deem and Ramdas Pophale) SiO2 
 PCOD8277718
Probable space group: C C C M
;
_chemical_formula_sum "Si O2"
_cell_formula_units_Z 80
_cell_length_a 10.406282
_cell_length_b 10.755626
_cell_length_c 31.499023
_cell_angle_alpha 90.000000
_cell_angle_beta 90.000000
_cell_angle_gamma 90.000000
_cell_volume 3525.562081
_symmetry_space_group_name_H-M "C C C M"
_symmetry_group_IT_number 66
_symmetry_cell_setting 'orthorhombic'
loop_
_space_group_symop_operation_xyz
x,y,z
-x,-y,z
x,-y,1/2-z
-x,y,1/2-z
-x,-y,-z
x,y,-z
-x,y,1/2+z
x,-y,1/2+z
1/2+x,1/2+y,z
1/2-x,1/2-y,z
1/2+x,1/2-y,1/2-z
1/2-x,1/2+y,1/2-z
1/2-x,1/2-y,-z
1/2+x,1/2+y,-z
1/2-x,1/2+y,1/2+z
1/2+x,1/2-y,1/2+z
loop_
_atom_site_type_symbol
_atom_site_label
_atom_site_fract_x
_atom_site_fract_y
_atom_site_fract_z
Si Si1 0.926495 0.615781 0.647175
Si Si2 0.453703 0.306676 0.907573
Si Si3 0.205243 0.541118 0.000000
Si Si4 0.968909 0.700260 0.000000
Si Si5 0.147618 0.644792 0.762701
Si Si6 0.301049 0.464034 0.409714
O O1 0.846849 0.669996 0.686502
O O2 0.833538 0.578516 0.608852
O O3 0.000000 0.500000 0.667823
O O4 0.042536 0.692707 0.625166
O O5 0.587374 0.372410 0.895611
O O6 0.334175 0.395073 0.895487
O O7 0.437981 0.275608 0.957258
O O8 0.298573 0.542730 0.960238
O O9 0.117802 0.420538 0.000000
O O10 0.118449 0.664793 0.000000
O O11 0.185275 0.500000 0.750000
O O12 0.250000 0.750000 0.744308
O O13 0.000000 0.675820 0.750000
#
# Coordination Sequence:
#
# PCOD8277718 Si02
#       6
#    16  16   8   8  16  16
#     4  12  24  44  70  98 135 175 219 277 342 406
#     4  11  24  40  62  94 130 174 226 278 333 396
#     4  11  22  37  58  87 126 177 226 275 335 391
#     4  11  22  37  58  87 126 177 226 275 335 391
#     4  11  25  50  78 110 146 185 231 289 359 436
#     4  11  24  40  62  94 130 174 226 278 333 396
#
# _framework density 22.691416
#
# number of rings (size 3 to 8) (size 9 to 14) (size 15 to 20)
#    0.000    0.800    4.000    4.200    0.000    8.400 
#    0.000    0.000    0.000    0.000    0.000    0.000 
#    0.000    0.000    0.000    0.000    0.000    0.000 
#
# Total GULP energy -495742.275870 kJ/mol
# GULP energy per Si atom -12393.556897 kJ/mol
# Density = 2.263977 g / cm^3
# Si number density = 22.691416 Si / 1000 Ang^3
#
#
#
# Elastic Constant Matrix: (Units=GPa)
#
#
# Indices 1 2 3 4 5 6 
#
# 1 71.9745 28.1671 7.5861 0.0000 0.0000 0.0000
# 2 28.1671 101.9352 24.2411 0.0000 0.0000 0.0000
# 3 7.5861 24.2411 103.5221 0.0000 0.0000 0.0000
# 4 0.0000 0.0000 0.0000 18.8347 0.0000 0.0000
# 5 0.0000 0.0000 0.0000 0.0000 24.0315 0.0000
# 6 0.0000 0.0000 0.0000 0.0000 0.0000 33.8575
#
#
#
# Elastic Compliance Matrix: (Units=1/GPa)
#
#
# Indices 1 2 3 4 5 6 
#
# 1 0.015580 -0.004272 -0.000141 0.000000 0.000000 0.000000
# 2 -0.004272 0.011560 -0.002394 0.000000 0.000000 0.000000
# 3 -0.000141 -0.002394 0.010231 0.000000 0.000000 0.000000
# 4 0.000000 0.000000 0.000000 0.053093 0.000000 0.000000
# 5 0.000000 0.000000 0.000000 0.000000 0.041612 0.000000
# 6 0.000000 0.000000 0.000000 0.000000 0.000000 0.029536
#
#
# Mechanical properties :
#
#
# Convention : Reuss Voigt Hill
#
# Bulk Modulus (GPa) = 42.09281 44.15781 43.12531
# Shear Modulus (GPa) = 27.30080 29.84058 28.57069
#
# Velocity S-wave (km/s) = 3.47238 3.63031 3.55223
# Velocity P-wave (km/s) = 5.88787 6.08889 5.98922
#
# Compressibility (1/GPa) = 0.02375703
#
# Stress axis : x y z
#
# Youngs Moduli (GPa) = 64.18323 86.50689 97.74509
#
# Poissons Ratio (x) = 0.36952 0.01383
# Poissons Ratio (y) = 0.27416 0.23399
# Poissons Ratio (z) = 0.00908 0.20709
#
# Static dielectric constant tensor:
#      x y z
#    x 3.999160 0.000000 0.000000 
#    y 0.000000 4.500540 0.000000 
#    z 0.000000 0.000000 3.857870 
# 
# 
# High freq. dielectric constant tensor:
#      x y z
#    x 1.897350 0.000000 0.000000 
#    y 0.000000 1.907950 0.000000 
#    z 0.000000 0.000000 1.883840 
# 
# From -- ./inp_files/68809.got.cif
#   From: 2010.03.12/outbox.cif.g09.slc.cpg/sg66_35_cif.got.tgz:68809.got - 2010.04.10 21:57:39.
