data_PCOD8277080
_publ_section_title
;
Structure prediction by ZEFSAII (Michael W. Deem and Ramdas Pophale) SiO2 
 PCOD8277080
Probable space group: C C C M
;
_chemical_formula_sum "Si O2"
_cell_formula_units_Z 44
_cell_length_a 7.933711
_cell_length_b 10.405298
_cell_length_c 23.852029
_cell_angle_alpha 90.000000
_cell_angle_beta 90.000000
_cell_angle_gamma 90.000000
_cell_volume 1969.047658
_symmetry_space_group_name_H-M "C C C M"
_symmetry_group_IT_number 66
_symmetry_cell_setting 'orthorhombic'
loop_
_space_group_symop_operation_xyz
x,y,z
-x,-y,z
x,-y,1/2-z
-x,y,1/2-z
-x,-y,-z
x,y,-z
-x,y,1/2+z
x,-y,1/2+z
1/2+x,1/2+y,z
1/2-x,1/2-y,z
1/2+x,1/2-y,1/2-z
1/2-x,1/2+y,1/2-z
1/2-x,1/2-y,-z
1/2+x,1/2+y,-z
1/2-x,1/2+y,1/2+z
1/2+x,1/2-y,1/2+z
loop_
_atom_site_type_symbol
_atom_site_label
_atom_site_fract_x
_atom_site_fract_y
_atom_site_fract_z
Si Si1 0.319214 0.609545 0.351868
Si Si2 0.500000 0.000000 0.600436
Si Si3 0.000000 0.000000 0.750000
Si Si4 0.438744 0.726467 0.063457
O O1 0.250000 0.750000 0.351634
O O2 0.174670 0.502079 0.363759
O O3 0.387128 0.587957 0.289783
O O4 0.472280 0.617741 0.397635
O O5 0.479853 0.869640 0.564317
O O6 0.250000 0.750000 0.084832
O O7 0.446591 0.673700 0.000000
#
# Coordination Sequence:
#
# PCOD8277080 Si02
#       4
#    16   8   4  16
#     4  10  24  40  60  88 118 156 202 247 298 361
#     4  10  21  39  60  88 120 155 193 240 306 364
#     4  12  24  42  62  82 116 158 200 250 296 344
#     4  10  21  38  61  90 122 154 194 244 298 361
#
# _framework density 22.345827
#
# number of rings (size 3 to 8) (size 9 to 14) (size 15 to 20)
#    0.000    1.818    0.000    2.727    0.000   16.000 
#    0.000    4.545    0.000    0.000    0.000    0.000 
#    0.000    0.000    0.000    0.000    0.000    0.000 
#
# Total GULP energy -272558.960462 kJ/mol
# GULP energy per Si atom -12389.043657 kJ/mol
# Density = 2.229497 g / cm^3
# Si number density = 22.345827 Si / 1000 Ang^3
#
#
#
# Elastic Constant Matrix: (Units=GPa)
#
#
# Indices 1 2 3 4 5 6 
#
# 1 166.6875 16.8958 71.6282 0.0000 0.0000 0.0000
# 2 16.8958 61.8131 26.9886 0.0000 0.0000 0.0000
# 3 71.6282 26.9886 148.2876 0.0000 0.0000 0.0000
# 4 0.0000 0.0000 0.0000 25.5876 0.0000 0.0000
# 5 0.0000 0.0000 0.0000 0.0000 62.5755 0.0000
# 6 0.0000 0.0000 0.0000 0.0000 0.0000 30.8787
#
#
#
# Elastic Compliance Matrix: (Units=1/GPa)
#
#
# Indices 1 2 3 4 5 6 
#
# 1 0.007586 -0.000515 -0.003571 0.000000 0.000000 0.000000
# 2 -0.000515 0.017609 -0.002956 0.000000 0.000000 0.000000
# 3 -0.003571 -0.002956 0.009006 0.000000 0.000000 0.000000
# 4 0.000000 0.000000 0.000000 0.039081 0.000000 0.000000
# 5 0.000000 0.000000 0.000000 0.000000 0.015981 0.000000
# 6 0.000000 0.000000 0.000000 0.000000 0.000000 0.032385
#
#
# Mechanical properties :
#
#
# Convention : Reuss Voigt Hill
#
# Bulk Modulus (GPa) = 49.70544 67.53483 58.62013
# Shear Modulus (GPa) = 35.10317 41.22674 38.16495
#
# Velocity S-wave (km/s) = 3.96776 4.29994 4.13719
# Velocity P-wave (km/s) = 6.57897 7.41221 7.00798
#
# Compressibility (1/GPa) = 0.02011852
#
# Stress axis : x y z
#
# Youngs Moduli (GPa) = 131.82677 56.78837 111.03198
#
# Poissons Ratio (x) = 0.02922 0.39644
# Poissons Ratio (y) = 0.06783 0.32825
# Poissons Ratio (z) = 0.47069 0.16789
#
# Static dielectric constant tensor:
#      x y z
#    x 4.920540 0.000000 0.000000 
#    y 0.000000 4.027940 0.000000 
#    z 0.000000 0.000000 3.863700 
# 
# 
# High freq. dielectric constant tensor:
#      x y z
#    x 1.899390 0.000000 0.000000 
#    y 0.000000 1.890950 0.000000 
#    z 0.000000 0.000000 1.856480 
# 
# From -- ./inp_files/54683.got.cif
#   From: 2010.03.12/outbox.cif.g09.slc.cpg/sg66_28_cif.got.tgz:54683.got - 2010.04.10 21:57:39.
