data_PCOD8277548
_publ_section_title
;
Structure prediction by ZEFSAII (Michael W. Deem and Ramdas Pophale) SiO2 
 PCOD8277548
Probable space group: C C C M
;
_chemical_formula_sum "Si O2"
_cell_formula_units_Z 56
_cell_length_a 11.162383
_cell_length_b 10.480194
_cell_length_c 18.950391
_cell_angle_alpha 90.000000
_cell_angle_beta 90.000000
_cell_angle_gamma 90.000000
_cell_volume 2216.891391
_symmetry_space_group_name_H-M "C C C M"
_symmetry_group_IT_number 66
_symmetry_cell_setting 'orthorhombic'
loop_
_space_group_symop_operation_xyz
x,y,z
-x,-y,z
x,-y,1/2-z
-x,y,1/2-z
-x,-y,-z
x,y,-z
-x,y,1/2+z
x,-y,1/2+z
1/2+x,1/2+y,z
1/2-x,1/2-y,z
1/2+x,1/2-y,1/2-z
1/2-x,1/2+y,1/2-z
1/2-x,1/2-y,-z
1/2+x,1/2+y,-z
1/2-x,1/2+y,1/2+z
1/2+x,1/2-y,1/2+z
loop_
_atom_site_type_symbol
_atom_site_label
_atom_site_fract_x
_atom_site_fract_y
_atom_site_fract_z
Si Si1 0.891834 0.412168 0.652554
Si Si2 0.874138 0.929279 0.500000
Si Si3 0.312793 0.620747 0.849295
Si Si4 0.500000 0.706728 0.750000
Si Si5 0.831446 0.629455 0.000000
O O1 0.767618 0.492392 0.660897
O O2 0.911632 0.369673 0.570891
O O3 0.000000 0.500000 0.676043
O O4 0.903359 0.290508 0.704027
O O5 0.862442 0.850218 0.571885
O O6 0.755680 0.012089 0.500000
O O7 0.000000 0.000000 0.500000
O O8 0.250000 0.750000 0.824819
O O9 0.428385 0.609758 0.800016
O O10 0.750000 0.750000 0.000000
#
# Coordination Sequence:
#
# PCOD8277548 Si02
#       5
#    16   8  16   8   8
#     4  11  24  48  72 108 141 187 255 301 363 454
#     4  10  25  48  68 107 139 185 257 314 353 450
#     4  11  25  47  75 103 145 195 246 304 379 433
#     4  12  27  48  77 106 160 199 230 313 374 456
#     4  10  25  44  76 101 137 191 243 314 367 428
#
# _framework density 25.260597000000001
#
# number of rings (size 3 to 8) (size 9 to 14) (size 15 to 20)
#    0.000    1.143    2.857    1.286    4.000    1.143 
#   10.286    0.000    0.000    0.000    0.000    0.000 
#    0.000    0.000    0.000    0.000    0.000    0.000 
#
# Total GULP energy -347007.367055 kJ/mol
# GULP energy per Si atom -12393.120252 kJ/mol
# Density = 2.520310 g / cm^3
# Si number density = 25.260597 Si / 1000 Ang^3
#
#
#
# Elastic Constant Matrix: (Units=GPa)
#
#
# Indices 1 2 3 4 5 6 
#
# 1 118.5782 29.6212 69.9432 0.0000 0.0000 0.0000
# 2 29.6212 54.4377 34.0206 0.0000 0.0000 0.0000
# 3 69.9432 34.0206 194.9647 0.0000 0.0000 0.0000
# 4 0.0000 0.0000 0.0000 369.6063 0.0000 0.0000
# 5 0.0000 0.0000 0.0000 0.0000 52.4061 0.0000
# 6 0.0000 0.0000 0.0000 0.0000 0.0000 34.2073
#
#
#
# Elastic Compliance Matrix: (Units=1/GPa)
#
#
# Indices 1 2 3 4 5 6 
#
# 1 0.011464 -0.004116 -0.003394 0.000000 0.000000 0.000000
# 2 -0.004116 0.022096 -0.002379 0.000000 0.000000 0.000000
# 3 -0.003394 -0.002379 0.006762 0.000000 0.000000 0.000000
# 4 0.000000 0.000000 0.000000 0.002706 0.000000 0.000000
# 5 0.000000 0.000000 0.000000 0.000000 0.019082 0.000000
# 6 0.000000 0.000000 0.000000 0.000000 0.000000 0.029233
#
#
# Mechanical properties :
#
#
# Convention : Reuss Voigt Hill
#
# Bulk Modulus (GPa) = 48.67965 70.57228 59.62597
# Shear Modulus (GPa) = 42.38386 106.87033 74.62709
#
# Velocity S-wave (km/s) = 4.10062 6.51145 5.44123
# Velocity P-wave (km/s) = 6.46010 9.19404 7.94554
#
# Compressibility (1/GPa) = 0.02054246
#
# Stress axis : x y z
#
# Youngs Moduli (GPa) = 87.23214 45.25666 147.88678
#
# Poissons Ratio (x) = 0.18630 0.50197
# Poissons Ratio (y) = 0.35909 0.35181
# Poissons Ratio (z) = 0.29609 0.10766
#
# Static dielectric constant tensor:
#      x y z
#    x 4.052450 0.000000 0.000000 
#    y 0.000000 4.266650 0.000000 
#    z 0.000000 0.000000 5.451870 
# 
# 
# High freq. dielectric constant tensor:
#      x y z
#    x 2.004730 0.000000 0.000000 
#    y 0.000000 1.993690 0.000000 
#    z 0.000000 0.000000 2.040330 
# 
# From -- ./inp_files/47939.got.cif
#   From: 2010.03.12/outbox.cif.g09.slc.cpg/sg66_24_cif.got.tgz:47939.got - 2010.04.10 21:57:39.
