data_PCOD8277726
_publ_section_title
;
Structure prediction by ZEFSAII (Michael W. Deem and Ramdas Pophale) SiO2 
 PCOD8277726
Probable space group: C C C M
;
_chemical_formula_sum "Si O2"
_cell_formula_units_Z 88
_cell_length_a 24.072425
_cell_length_b 11.875811
_cell_length_c 14.833047
_cell_angle_alpha 90.000000
_cell_angle_beta 90.000000
_cell_angle_gamma 90.000000
_cell_volume 4240.465092
_symmetry_space_group_name_H-M "C C C M"
_symmetry_group_IT_number 66
_symmetry_cell_setting 'orthorhombic'
loop_
_space_group_symop_operation_xyz
x,y,z
-x,-y,z
x,-y,1/2-z
-x,y,1/2-z
-x,-y,-z
x,y,-z
-x,y,1/2+z
x,-y,1/2+z
1/2+x,1/2+y,z
1/2-x,1/2-y,z
1/2+x,1/2-y,1/2-z
1/2-x,1/2+y,1/2-z
1/2-x,1/2-y,-z
1/2+x,1/2+y,-z
1/2-x,1/2+y,1/2+z
1/2+x,1/2-y,1/2+z
loop_
_atom_site_type_symbol
_atom_site_label
_atom_site_fract_x
_atom_site_fract_y
_atom_site_fract_z
Si Si1 0.500000 0.286241 0.250000
Si Si2 0.813518 0.264692 0.602720
Si Si3 0.641632 0.990761 0.647575
Si Si4 0.529098 0.891154 0.600622
Si Si5 0.187131 0.270517 0.604775
Si Si6 0.878590 0.869754 0.751219
O O1 0.487729 0.212862 0.338107
O O2 0.445228 0.361789 0.237598
O O3 0.817485 0.224055 0.500000
O O4 0.750000 0.250000 0.636826
O O5 0.837241 0.391417 0.608789
O O6 0.852088 0.184240 0.660404
O O7 0.593329 0.925745 0.593295
O O8 0.689937 0.900539 0.636237
O O9 0.621491 0.000000 0.750000
O O10 0.507402 0.862821 0.500000
O O11 0.500000 0.000000 0.642622
O O12 0.172445 0.250537 0.500000
O O13 0.250000 0.250000 0.628686
O O14 0.144151 0.194418 0.662415
O O15 0.861371 0.000000 0.750000
#
# Coordination Sequence:
#
# PCOD8277726 Si02
#       6
#     8  16  16  16  16  16
#     4  12  24  44  64  94 130 177 227 282 340 398
#     4  11  25  43  67 101 139 177 219 275 342 409
#     4  12  22  40  69 101 136 173 219 278 338 405
#     4  11  22  37  64  98 133 171 217 273 334 397
#     4  11  25  44  70 101 133 173 223 279 336 403
#     4  12  27  45  68  94 133 180 231 276 336 407
#
# _framework density 20.752441999999999
#
# number of rings (size 3 to 8) (size 9 to 14) (size 15 to 20)
#    0.000    0.545    3.636    4.909    2.545    2.909 
#    0.000    0.000    0.000    3.273    0.000    0.000 
#    0.000    0.000    0.000    0.000    0.000    0.000 
#
# Total GULP energy -545390.563777 kJ/mol
# GULP energy per Si atom -12395.240086 kJ/mol
# Density = 2.070521 g / cm^3
# Si number density = 20.752442 Si / 1000 Ang^3
#
#
#
# Elastic Constant Matrix: (Units=GPa)
#
#
# Indices 1 2 3 4 5 6 
#
# 1 118.2742 44.6527 45.6719 0.0000 0.0000 0.0000
# 2 44.6527 148.6046 37.9587 0.0000 0.0000 0.0000
# 3 45.6719 37.9587 104.6463 0.0000 0.0000 0.0000
# 4 0.0000 0.0000 0.0000 15.5242 0.0000 0.0000
# 5 0.0000 0.0000 0.0000 0.0000 29.0616 0.0000
# 6 0.0000 0.0000 0.0000 0.0000 0.0000 -214.1801
#
#
#
# Elastic Compliance Matrix: (Units=1/GPa)
#
#
# Indices 1 2 3 4 5 6 
#
# 1 0.010812 -0.002252 -0.003902 0.000000 0.000000 0.000000
# 2 -0.002252 0.007886 -0.001877 0.000000 0.000000 0.000000
# 3 -0.003902 -0.001877 0.011940 0.000000 0.000000 0.000000
# 4 0.000000 0.000000 0.000000 0.064416 0.000000 0.000000
# 5 0.000000 0.000000 0.000000 0.000000 0.034410 0.000000
# 6 0.000000 0.000000 0.000000 0.000000 0.000000 -0.004669
#
#
# Mechanical properties :
#
#
# Convention : Reuss Voigt Hill
#
# Bulk Modulus (GPa) = 68.61249 69.78797 69.20023
# Shear Modulus (GPa) = 34.31364 -17.70275 8.30544
#
# Velocity S-wave (km/s) = 4.07071 -2.92386 2.00271
# Velocity P-wave (km/s) = 7.43158 4.72263 6.22622
#
# Compressibility (1/GPa) = 0.01457461
#
# Stress axis : x y z
#
# Youngs Moduli (GPa) = 92.49085 126.81444 83.75257
#
# Poissons Ratio (x) = 0.28560 0.32679
# Poissons Ratio (y) = 0.20830 0.15724
# Poissons Ratio (z) = 0.36088 0.23809
#
# Static dielectric constant tensor:
#      x y z
#    x 4.018980 0.000000 0.000000 
#    y 0.000000 3.823270 0.000000 
#    z 0.000000 0.000000 3.836410 
# 
# 
# High freq. dielectric constant tensor:
#      x y z
#    x 1.826880 0.000000 0.000000 
#    y 0.000000 1.807200 0.000000 
#    z 0.000000 0.000000 1.825870 
# 
# From -- ./inp_files/32198.got.cif
#   From: 2010.03.12/outbox.cif.g09.slc.cpg/sg66_17_cif.got.tgz:32198.got - 2010.04.10 21:57:39.
