data_PCOD8277567
_publ_section_title
;
Structure prediction by ZEFSAII (Michael W. Deem and Ramdas Pophale) SiO2 
 PCOD8277567
Probable space group: C C C M
;
_chemical_formula_sum "Si O2"
_cell_formula_units_Z 80
_cell_length_a 18.369850
_cell_length_b 11.613833
_cell_length_c 19.991773
_cell_angle_alpha 90.000000
_cell_angle_beta 90.000000
_cell_angle_gamma 90.000000
_cell_volume 4265.132219
_symmetry_space_group_name_H-M "C C C M"
_symmetry_group_IT_number 66
_symmetry_cell_setting 'orthorhombic'
loop_
_space_group_symop_operation_xyz
x,y,z
-x,-y,z
x,-y,1/2-z
-x,y,1/2-z
-x,-y,-z
x,y,-z
-x,y,1/2+z
x,-y,1/2+z
1/2+x,1/2+y,z
1/2-x,1/2-y,z
1/2+x,1/2-y,1/2-z
1/2-x,1/2+y,1/2-z
1/2-x,1/2-y,-z
1/2+x,1/2+y,-z
1/2-x,1/2+y,1/2+z
1/2+x,1/2-y,1/2+z
loop_
_atom_site_type_symbol
_atom_site_label
_atom_site_fract_x
_atom_site_fract_y
_atom_site_fract_z
Si Si1 0.189330 0.153827 0.872490
Si Si2 0.259546 0.929965 0.077351
Si Si3 0.415653 0.637080 0.250058
Si Si4 0.438209 0.649238 0.000000
Si Si5 0.639493 0.744732 0.385441
Si Si6 0.395262 0.398946 0.000000
O O1 0.250000 0.250000 0.868778
O O2 0.132119 0.173824 0.813108
O O3 0.140048 0.164656 0.937673
O O4 0.232396 0.032877 0.874606
O O5 0.333801 0.877999 0.111189
O O6 0.200982 0.829723 0.078688
O O7 0.273285 0.970150 0.000000
O O8 0.413032 0.500000 0.250000
O O9 0.500000 0.678404 0.250000
O O10 0.376894 0.699113 0.188198
O O11 0.429842 0.726472 0.933406
O O12 0.382516 0.537853 0.000000
O O13 0.519616 0.609421 0.000000
#
# Coordination Sequence:
#
# PCOD8277567 Si02
#       6
#    16  16  16   8  16   8
#     4  12  24  38  59  87 126 160 198 248 309 363
#     4  11  20  36  60  90 119 152 203 248 299 352
#     4  11  23  39  59  89 124 156 196 252 310 367
#     4  11  18  34  62  85 113 152 196 257 306 339
#     4  11  19  35  59  86 119 147 197 253 293 359
#     4  11  21  35  55  86 118 153 198 245 304 366
#
# _framework density 18.756746
#
# number of rings (size 3 to 8) (size 9 to 14) (size 15 to 20)
#    0.000    0.800    7.000    2.100    2.800    3.200 
#    0.000    0.000    0.000    7.200    0.000    0.000 
#    0.000    0.000    0.000    0.000    0.000    0.000 
#
# Total GULP energy -495658.450238 kJ/mol
# GULP energy per Si atom -12391.461256 kJ/mol
# Density = 1.871405 g / cm^3
# Si number density = 18.756746 Si / 1000 Ang^3
#
#
#
# Elastic Constant Matrix: (Units=GPa)
#
#
# Indices 1 2 3 4 5 6 
#
# 1 106.7628 47.7319 65.6861 0.0000 0.0000 0.0000
# 2 47.7319 64.4468 36.5339 0.0000 0.0000 0.0000
# 3 65.6861 36.5339 167.3027 0.0000 0.0000 0.0000
# 4 0.0000 0.0000 0.0000 20.1271 0.0000 0.0000
# 5 0.0000 0.0000 0.0000 0.0000 29.3878 0.0000
# 6 0.0000 0.0000 0.0000 0.0000 0.0000 23.1568
#
#
#
# Elastic Compliance Matrix: (Units=1/GPa)
#
#
# Indices 1 2 3 4 5 6 
#
# 1 0.016331 -0.009656 -0.004303 0.000000 0.000000 0.000000
# 2 -0.009656 0.023418 -0.001323 0.000000 0.000000 0.000000
# 3 -0.004303 -0.001323 0.007956 0.000000 0.000000 0.000000
# 4 0.000000 0.000000 0.000000 0.049684 0.000000 0.000000
# 5 0.000000 0.000000 0.000000 0.000000 0.034028 0.000000
# 6 0.000000 0.000000 0.000000 0.000000 0.000000 0.043184
#
#
# Mechanical properties :
#
#
# Convention : Reuss Voigt Hill
#
# Bulk Modulus (GPa) = 58.34031 70.93512 64.63771
# Shear Modulus (GPa) = 23.71029 27.10503 25.40766
#
# Velocity S-wave (km/s) = 3.55927 3.80555 3.68447
# Velocity P-wave (km/s) = 6.93270 7.56374 7.25508
#
# Compressibility (1/GPa) = 0.01714081
#
# Stress axis : x y z
#
# Youngs Moduli (GPa) = 61.23214 42.70183 125.69771
#
# Poissons Ratio (x) = 0.41233 0.54092
# Poissons Ratio (y) = 0.59126 0.16626
# Poissons Ratio (z) = 0.26350 0.05648
#
# Static dielectric constant tensor:
#      x y z
#    x 3.655030 0.000000 0.000000 
#    y 0.000000 3.528690 0.000000 
#    z 0.000000 0.000000 3.460660 
# 
# 
# High freq. dielectric constant tensor:
#      x y z
#    x 1.732300 0.000000 0.000000 
#    y 0.000000 1.699260 0.000000 
#    z 0.000000 0.000000 1.735790 
# 
# From -- ./inp_files/38586.got.cif
#   From: 2010.03.12/outbox.cif.g09.slc.cpg/sg66_20_cif.got.tgz:38586.got - 2010.04.10 21:57:39.
