data_PCOD8277707
_publ_section_title
;
Structure prediction by ZEFSAII (Michael W. Deem and Ramdas Pophale) SiO2 
 PCOD8277707
Probable space group: C C C M
;
_chemical_formula_sum "Si O2"
_cell_formula_units_Z 48
_cell_length_a 16.753251
_cell_length_b 28.494263
_cell_length_c 5.217373
_cell_angle_alpha 90.000000
_cell_angle_beta 90.000000
_cell_angle_gamma 90.000000
_cell_volume 2490.625384
_symmetry_space_group_name_H-M "C C C M"
_symmetry_group_IT_number 66
_symmetry_cell_setting 'orthorhombic'
loop_
_space_group_symop_operation_xyz
x,y,z
-x,-y,z
x,-y,1/2-z
-x,y,1/2-z
-x,-y,-z
x,y,-z
-x,y,1/2+z
x,-y,1/2+z
1/2+x,1/2+y,z
1/2-x,1/2-y,z
1/2+x,1/2-y,1/2-z
1/2-x,1/2+y,1/2-z
1/2-x,1/2-y,-z
1/2+x,1/2+y,-z
1/2-x,1/2+y,1/2+z
1/2+x,1/2-y,1/2+z
loop_
_atom_site_type_symbol
_atom_site_label
_atom_site_fract_x
_atom_site_fract_y
_atom_site_fract_z
Si Si1 0.282795 0.131652 0.000000
Si Si2 0.726211 0.529721 0.000000
Si Si3 0.546671 0.434785 0.500000
Si Si4 0.602714 0.332810 0.500000
Si Si5 0.868601 0.782528 0.500000
Si Si6 0.188161 0.681738 0.000000
O O1 0.329049 0.150249 0.250281
O O2 0.282151 0.075392 0.000000
O O3 0.193864 0.151227 0.000000
O O4 0.747128 0.500000 0.750000
O O5 0.634010 0.543748 0.000000
O O6 0.500000 0.452984 0.750000
O O7 0.547010 0.378368 0.500000
O O8 0.584953 0.301700 0.248804
O O9 0.871030 0.726139 0.500000
O O10 0.778557 0.800619 0.500000
#
# Coordination Sequence:
#
# PCOD8277707 Si02
#       6
#     8   8   8   8   8   8
#     4   9  17  28  40  56  77  97 120 154 198 244
#     4  11  22  34  46  58  74 100 136 180 226 259
#     4  11  22  34  46  58  74 100 136 180 226 259
#     4   9  17  28  40  56  77  97 120 154 198 244
#     4   9  15  24  40  60  79  97 115 139 182 242
#     4   9  15  24  40  60  79  97 115 139 182 242
#
# _framework density 19.272269999999999
#
# number of rings (size 3 to 8) (size 9 to 14) (size 15 to 20)
#    0.000    2.333    0.000    4.000    0.000   11.333 
#    0.000    0.000    0.000    0.000    0.000    0.000 
#    0.000    0.000    0.000    0.000    0.000    0.000 
#
# Total GULP energy -297634.189040 kJ/mol
# GULP energy per Si atom -12401.424543 kJ/mol
# Density = 1.922841 g / cm^3
# Si number density = 19.272270 Si / 1000 Ang^3
#
#
#
# Elastic Constant Matrix: (Units=GPa)
#
#
# Indices 1 2 3 4 5 6 
#
# 1 4.8094 9.3232 1.8863 0.0000 0.0000 0.0000
# 2 9.3232 154.8610 77.9696 0.0000 0.0000 0.0000
# 3 1.8863 77.9696 200.8477 0.0000 0.0000 0.0000
# 4 0.0000 0.0000 0.0000 76.3521 0.0000 0.0000
# 5 0.0000 0.0000 0.0000 0.0000 11.1822 0.0000
# 6 0.0000 0.0000 0.0000 0.0000 0.0000 28.1087
#
#
#
# Elastic Compliance Matrix: (Units=1/GPa)
#
#
# Indices 1 2 3 4 5 6 
#
# 1 0.238132 -0.016420 0.004138 0.000000 0.000000 0.000000
# 2 -0.016420 0.009158 -0.003401 0.000000 0.000000 0.000000
# 3 0.004138 -0.003401 0.006260 0.000000 0.000000 0.000000
# 4 0.000000 0.000000 0.000000 0.013097 0.000000 0.000000
# 5 0.000000 0.000000 0.000000 0.000000 0.089428 0.000000
# 6 0.000000 0.000000 0.000000 0.000000 0.000000 0.035576
#
#
# Mechanical properties :
#
#
# Convention : Reuss Voigt Hill
#
# Bulk Modulus (GPa) = 4.50077 59.87517 32.18797
# Shear Modulus (GPa) = 10.05875 41.21785 25.63830
#
# Velocity S-wave (km/s) = 2.28705 4.62964 3.65131
# Velocity P-wave (km/s) = 3.05198 7.72746 5.87487
#
# Compressibility (1/GPa) = 0.22218433
#
# Stress axis : x y z
#
# Youngs Moduli (GPa) = 4.19936 109.19061 159.73575
#
# Poissons Ratio (x) = 1.79287 -0.66093
# Poissons Ratio (y) = 0.06895 0.54327
# Poissons Ratio (z) = -0.01738 0.37136
#
# Static dielectric constant tensor:
#      x y z
#    x 2.767270 0.000000 0.000000 
#    y 0.000000 3.687940 0.000000 
#    z 0.000000 0.000000 3.818560 
# 
# 
# High freq. dielectric constant tensor:
#      x y z
#    x 1.668040 0.000000 0.000000 
#    y 0.000000 1.757200 0.000000 
#    z 0.000000 0.000000 1.773960 
# 
# From -- ./inp_files/892.got.cif
#   From: 2010.03.12/outbox.cif.g09.slc.cpg/sg66_1_cif.got.tgz:892.got - 2010.04.10 21:57:39.
