data_PCOD8277315
_publ_section_title
;
Structure prediction by ZEFSAII (Michael W. Deem and Ramdas Pophale) SiO2 
 PCOD8277315
Probable space group: C C C M
;
_chemical_formula_sum "Si O2"
_cell_formula_units_Z 84
_cell_length_a 15.272486
_cell_length_b 15.271281
_cell_length_c 18.209738
_cell_angle_alpha 90.000000
_cell_angle_beta 90.000000
_cell_angle_gamma 90.000000
_cell_volume 4247.064938
_symmetry_space_group_name_H-M "C C C M"
_symmetry_group_IT_number 66
_symmetry_cell_setting 'orthorhombic'
loop_
_space_group_symop_operation_xyz
x,y,z
-x,-y,z
x,-y,1/2-z
-x,y,1/2-z
-x,-y,-z
x,y,-z
-x,y,1/2+z
x,-y,1/2+z
1/2+x,1/2+y,z
1/2-x,1/2-y,z
1/2+x,1/2-y,1/2-z
1/2-x,1/2+y,1/2-z
1/2-x,1/2-y,-z
1/2+x,1/2+y,-z
1/2-x,1/2+y,1/2+z
1/2+x,1/2-y,1/2+z
loop_
_atom_site_type_symbol
_atom_site_label
_atom_site_fract_x
_atom_site_fract_y
_atom_site_fract_z
Si Si1 0.077409 0.434788 0.079924
Si Si2 0.740823 0.998950 0.663587
Si Si3 0.502733 0.247712 0.412968
Si Si4 0.500000 0.500000 0.750000
Si Si5 0.876521 0.133457 0.674549
Si Si6 0.171853 0.185206 0.667125
O O1 0.146655 0.489463 0.127509
O O2 0.035022 0.347418 0.116063
O O3 0.000000 0.500000 0.067090
O O4 0.118603 0.410857 0.000000
O O5 0.794916 0.911218 0.641446
O O6 0.726831 0.000000 0.750000
O O7 0.793087 0.085747 0.639137
O O8 0.488845 0.248544 0.500000
O O9 0.582194 0.309828 0.389713
O O10 0.413273 0.281677 0.376388
O O11 0.442476 0.557706 0.696972
O O12 0.851205 0.189787 0.746485
O O13 0.250000 0.250000 0.648539
#
# Coordination Sequence:
#
# PCOD8277315 Si02
#       6
#    16  16  16   4  16  16
#     4  10  23  43  61  85 130 171 200 249 314 372
#     4  10  22  39  61  91 120 157 210 259 308 364
#     4  11  24  40  62  93 126 163 204 253 313 376
#     4  12  16  44  66  84 128 164 190 264 316 356
#     4  11  21  39  64  88 123 158 205 254 313 363
#     4  11  22  38  63  90 118 161 209 258 303 361
#
# _framework density 19.778365000000001
#
# number of rings (size 3 to 8) (size 9 to 14) (size 15 to 20)
#    0.000    1.333    4.762    1.143    5.333    2.286 
#    3.429    5.238    0.000    0.000    0.000    0.000 
#    0.000    0.000    0.000    0.000    0.000    0.000 
#
# Total GULP energy -520551.925278 kJ/mol
# GULP energy per Si atom -12394.093459 kJ/mol
# Density = 1.973335 g / cm^3
# Si number density = 19.778365 Si / 1000 Ang^3
#
#
#
# Elastic Constant Matrix: (Units=GPa)
#
#
# Indices 1 2 3 4 5 6 
#
# 1 109.4763 42.3704 34.2943 0.0000 0.0000 0.0000
# 2 42.3704 105.5373 34.7482 0.0000 0.0000 0.0000
# 3 34.2943 34.7482 37.8360 0.0000 0.0000 0.0000
# 4 0.0000 0.0000 0.0000 18.7920 0.0000 0.0000
# 5 0.0000 0.0000 0.0000 0.0000 36.4284 0.0000
# 6 0.0000 0.0000 0.0000 0.0000 0.0000 49.1812
#
#
#
# Elastic Compliance Matrix: (Units=1/GPa)
#
#
# Indices 1 2 3 4 5 6 
#
# 1 0.013023 -0.001924 -0.010038 0.000000 0.000000 0.000000
# 2 -0.001924 0.013866 -0.010991 0.000000 0.000000 0.000000
# 3 -0.010038 -0.010991 0.045622 0.000000 0.000000 0.000000
# 4 0.000000 0.000000 0.000000 0.053214 0.000000 0.000000
# 5 0.000000 0.000000 0.000000 0.000000 0.027451 0.000000
# 6 0.000000 0.000000 0.000000 0.000000 0.000000 0.020333
#
#
# Mechanical properties :
#
#
# Convention : Reuss Voigt Hill
#
# Bulk Modulus (GPa) = 37.58421 52.85281 45.21851
# Shear Modulus (GPa) = 21.90257 30.30943 26.10600
#
# Velocity S-wave (km/s) = 3.33137 3.91890 3.63702
# Velocity P-wave (km/s) = 5.81733 6.87442 6.36785
#
# Compressibility (1/GPa) = 0.02660692
#
# Stress axis : x y z
#
# Youngs Moduli (GPa) = 76.78594 72.11631 21.91924
#
# Poissons Ratio (x) = 0.13872 0.22001
# Poissons Ratio (y) = 0.14771 0.24092
# Poissons Ratio (z) = 0.77074 0.79265
#
# Static dielectric constant tensor:
#      x y z
#    x 3.346570 0.000000 0.000000 
#    y 0.000000 3.731210 0.000000 
#    z 0.000000 0.000000 3.419350 
# 
# 
# High freq. dielectric constant tensor:
#      x y z
#    x 1.786740 0.000000 0.000000 
#    y 0.000000 1.787430 0.000000 
#    z 0.000000 0.000000 1.749290 
# 
# From -- ./inp_files/49839.got.cif
#   From: 2010.03.12/outbox.cif.g09.slc.cpg/sg66_25_cif.got.tgz:49839.got - 2010.04.10 21:57:39.
