data_PCOD8277208
_publ_section_title
;
Structure prediction by ZEFSAII (Michael W. Deem and Ramdas Pophale) SiO2 
 PCOD8277208
Probable space group: C C C M
;
_chemical_formula_sum "Si O2"
_cell_formula_units_Z 112
_cell_length_a 14.904670
_cell_length_b 14.888905
_cell_length_c 23.787856
_cell_angle_alpha 90.000000
_cell_angle_beta 90.000000
_cell_angle_gamma 90.000000
_cell_volume 5278.863407
_symmetry_space_group_name_H-M "C C C M"
_symmetry_group_IT_number 66
_symmetry_cell_setting 'orthorhombic'
loop_
_space_group_symop_operation_xyz
x,y,z
-x,-y,z
x,-y,1/2-z
-x,y,1/2-z
-x,-y,-z
x,y,-z
-x,y,1/2+z
x,-y,1/2+z
1/2+x,1/2+y,z
1/2-x,1/2-y,z
1/2+x,1/2-y,1/2-z
1/2-x,1/2+y,1/2-z
1/2-x,1/2-y,-z
1/2+x,1/2+y,-z
1/2-x,1/2+y,1/2+z
1/2+x,1/2-y,1/2+z
loop_
_atom_site_type_symbol
_atom_site_label
_atom_site_fract_x
_atom_site_fract_y
_atom_site_fract_z
Si Si1 0.359229 0.494579 0.637825
Si Si2 0.556157 0.801583 0.065592
Si Si3 0.929248 0.571069 0.366926
Si Si4 0.696595 0.054159 0.434920
Si Si5 0.500000 0.738712 0.250000
Si Si6 0.675090 0.170962 0.768763
Si Si7 0.234888 0.000000 0.250000
Si Si8 0.999525 0.141278 0.363733
O O1 0.291083 0.540247 0.594990
O O2 0.317384 0.462019 0.696425
O O3 0.411271 0.408198 0.611127
O O4 0.428832 0.569060 0.656757
O O5 0.480565 0.852910 0.099665
O O6 0.654577 0.846081 0.075288
O O7 0.549984 0.700786 0.089215
O O8 0.532322 0.801499 0.000000
O O9 0.873285 0.518731 0.413449
O O10 0.860873 0.621894 0.325370
O O11 0.000000 0.500000 0.338003
O O12 0.713602 0.037266 0.500000
O O13 0.411029 0.794777 0.266191
O O14 0.529677 0.688188 0.306095
O O15 0.750000 0.250000 0.778972
O O16 0.711048 0.088972 0.729835
#
# Coordination Sequence:
#
# PCOD8277208 Si02
#       8
#    16  16  16  16   8  16   8  16
#     4  11  24  42  64  90 125 172 219 264 320 386
#     4  10  22  41  65  94 127 166 210 263 325 388
#     4  10  21  40  66  96 128 165 207 263 324 390
#     4  10  22  41  65  94 127 166 210 263 325 388
#     4  12  26  42  66  96 136 170 216 269 333 394
#     4  12  26  41  67 101 135 173 222 274 333 404
#     4  12  26  42  66  96 136 170 216 269 333 394
#     4  11  24  42  64  90 125 172 219 264 320 386
#
# _framework density 21.216688999999999
#
# number of rings (size 3 to 8) (size 9 to 14) (size 15 to 20)
#    0.000    1.143    2.857    3.000    4.000    4.571 
#    0.000    2.857    0.000    2.571    0.000    0.000 
#    0.000    0.000    0.000    0.000    0.000    0.000 
#
# Total GULP energy -693960.176475 kJ/mol
# GULP energy per Si atom -12392.146008 kJ/mol
# Density = 2.116840 g / cm^3
# Si number density = 21.216689 Si / 1000 Ang^3
#
#
#
# Elastic Constant Matrix: (Units=GPa)
#
#
# Indices 1 2 3 4 5 6 
#
# 1 127.1447 57.1268 30.8715 0.0000 0.0000 0.0000
# 2 57.1268 122.9160 26.9841 0.0000 0.0000 0.0000
# 3 30.8715 26.9841 70.7013 0.0000 0.0000 0.0000
# 4 0.0000 0.0000 0.0000 16.0875 0.0000 0.0000
# 5 0.0000 0.0000 0.0000 0.0000 11.0130 0.0000
# 6 0.0000 0.0000 0.0000 0.0000 0.0000 37.5429
#
#
#
# Elastic Compliance Matrix: (Units=1/GPa)
#
#
# Indices 1 2 3 4 5 6 
#
# 1 0.010481 -0.004220 -0.002966 0.000000 0.000000 0.000000
# 2 -0.004220 0.010579 -0.002195 0.000000 0.000000 0.000000
# 3 -0.002966 -0.002195 0.016277 0.000000 0.000000 0.000000
# 4 0.000000 0.000000 0.000000 0.062160 0.000000 0.000000
# 5 0.000000 0.000000 0.000000 0.000000 0.090802 0.000000
# 6 0.000000 0.000000 0.000000 0.000000 0.000000 0.026636
#
#
# Mechanical properties :
#
#
# Convention : Reuss Voigt Hill
#
# Bulk Modulus (GPa) = 53.83575 61.19187 57.51381
# Shear Modulus (GPa) = 20.67068 26.64731 23.65900
#
# Velocity S-wave (km/s) = 3.12471 3.54780 3.34295
# Velocity P-wave (km/s) = 6.20062 6.75918 6.48592
#
# Compressibility (1/GPa) = 0.01857502
#
# Stress axis : x y z
#
# Youngs Moduli (GPa) = 95.40727 94.52794 61.43723
#
# Poissons Ratio (x) = 0.39893 0.18222
# Poissons Ratio (y) = 0.40264 0.13484
# Poissons Ratio (z) = 0.28297 0.20747
#
# Static dielectric constant tensor:
#      x y z
#    x 4.174810 0.000000 0.000000 
#    y 0.000000 4.231800 0.000000 
#    z 0.000000 0.000000 3.670310 
# 
# 
# High freq. dielectric constant tensor:
#      x y z
#    x 1.845530 0.000000 0.000000 
#    y 0.000000 1.846340 0.000000 
#    z 0.000000 0.000000 1.813260 
# 
# From -- ./inp_files/64713.got.cif
#   From: 2010.03.12/outbox.cif.g09.slc.cpg/sg66_33_cif.got.tgz:64713.got - 2010.04.10 21:57:39.
