data_PCOD8277703
_publ_section_title
;
Structure prediction by ZEFSAII (Michael W. Deem and Ramdas Pophale) SiO2 
 PCOD8277703
Probable space group: C C C M
;
_chemical_formula_sum "Si O2"
_cell_formula_units_Z 80
_cell_length_a 4.859884
_cell_length_b 27.322951
_cell_length_c 26.003882
_cell_angle_alpha 90.000000
_cell_angle_beta 90.000000
_cell_angle_gamma 90.000000
_cell_volume 3452.961159
_symmetry_space_group_name_H-M "C C C M"
_symmetry_group_IT_number 66
_symmetry_cell_setting 'orthorhombic'
loop_
_space_group_symop_operation_xyz
x,y,z
-x,-y,z
x,-y,1/2-z
-x,y,1/2-z
-x,-y,-z
x,y,-z
-x,y,1/2+z
x,-y,1/2+z
1/2+x,1/2+y,z
1/2-x,1/2-y,z
1/2+x,1/2-y,1/2-z
1/2-x,1/2+y,1/2-z
1/2-x,1/2-y,-z
1/2+x,1/2+y,-z
1/2-x,1/2+y,1/2+z
1/2+x,1/2-y,1/2+z
loop_
_atom_site_type_symbol
_atom_site_label
_atom_site_fract_x
_atom_site_fract_y
_atom_site_fract_z
Si Si1 0.644810 0.134993 0.803285
Si Si2 0.208972 0.089975 0.558006
Si Si3 0.258537 0.033779 0.342821
Si Si4 0.992868 0.217645 0.350583
Si Si5 0.188184 0.357445 0.903692
O O1 0.500000 0.146981 0.750000
O O2 0.783546 0.081256 0.806226
O O3 0.883814 0.175207 0.813802
O O4 0.399587 0.134308 0.844707
O O5 0.204429 0.069638 0.500000
O O6 0.322092 0.049591 0.597798
O O7 0.412132 0.137854 0.561577
O O8 0.901439 0.102310 0.575912
O O9 0.500000 0.000000 0.321647
O O10 0.000000 0.000000 0.339455
O O11 0.250000 0.250000 0.369242
O O12 0.750000 0.250000 0.322547
O O13 0.845053 0.194938 0.401950
#
# Coordination Sequence:
#
# PCOD8277703 Si02
#       5
#    16  16  16  16  16
#     4  11  26  48  72 104 148 192 232 290 354 417
#     4  11  23  42  73 101 138 187 233 293 366 414
#     4  11  24  44  70 103 142 183 238 289 341 421
#     4  12  23  45  73 104 139 186 231 291 356 416
#     4  11  21  45  65 102 141 182 227 290 345 424
#
# _framework density 23.168519
#
# number of rings (size 3 to 8) (size 9 to 14) (size 15 to 20)
#    0.000    0.800    6.000    3.000    0.000    2.000 
#    3.600    3.000    0.000   12.000    0.000    0.000 
#    0.000    0.000    0.000    0.000    0.000    0.000 
#
# Total GULP energy -495556.809627 kJ/mol
# GULP energy per Si atom -12388.920241 kJ/mol
# Density = 2.311579 g / cm^3
# Si number density = 23.168519 Si / 1000 Ang^3
#
#
#
# Elastic Constant Matrix: (Units=GPa)
#
#
# Indices 1 2 3 4 5 6 
#
# 1 162.1499 56.1644 17.8993 0.0000 0.0000 0.0000
# 2 56.1644 133.7647 -1.7872 0.0000 0.0000 0.0000
# 3 17.8993 -1.7872 35.8388 0.0000 0.0000 0.0000
# 4 0.0000 0.0000 0.0000 8.5464 0.0000 0.0000
# 5 0.0000 0.0000 0.0000 0.0000 30.1541 0.0000
# 6 0.0000 0.0000 0.0000 0.0000 0.0000 51.5356
#
#
#
# Elastic Compliance Matrix: (Units=1/GPa)
#
#
# Indices 1 2 3 4 5 6 
#
# 1 0.007761 -0.003312 -0.004041 0.000000 0.000000 0.000000
# 2 -0.003312 0.008895 0.002098 0.000000 0.000000 0.000000
# 3 -0.004041 0.002098 0.030026 0.000000 0.000000 0.000000
# 4 0.000000 0.000000 0.000000 0.117009 0.000000 0.000000
# 5 0.000000 0.000000 0.000000 0.000000 0.033163 0.000000
# 6 0.000000 0.000000 0.000000 0.000000 0.000000 0.019404
#
#
# Mechanical properties :
#
#
# Convention : Reuss Voigt Hill
#
# Bulk Modulus (GPa) = 27.64754 52.92295 40.28525
# Shear Modulus (GPa) = 20.93588 35.34565 28.14077
#
# Velocity S-wave (km/s) = 3.00931 3.91012 3.48891
# Velocity P-wave (km/s) = 4.90242 6.57857 5.80135
#
# Compressibility (1/GPa) = 0.03616958
#
# Stress axis : x y z
#
# Youngs Moduli (GPa) = 128.85653 112.42699 33.30484
#
# Poissons Ratio (x) = 0.37241 0.13459
# Poissons Ratio (y) = 0.42683 -0.06987
# Poissons Ratio (z) = 0.52072 -0.23586
#
# Static dielectric constant tensor:
#      x y z
#    x 4.583840 0.000000 0.000000 
#    y 0.000000 4.557850 0.000000 
#    z 0.000000 0.000000 3.871500 
# 
# 
# High freq. dielectric constant tensor:
#      x y z
#    x 1.951040 0.000000 0.000000 
#    y 0.000000 1.913870 0.000000 
#    z 0.000000 0.000000 1.866260 
# 
# From -- ./inp_files/61550.got.cif
#   From: 2010.03.12/outbox.cif.g09.slc.cpg/sg66_31_cif.got.tgz:61550.got - 2010.04.10 21:57:39.
