data_PCOD8277918
_publ_section_title
;
Structure prediction by ZEFSAII (Michael W. Deem and Ramdas Pophale) SiO2 
 PCOD8277918
Probable space group: C C C M
;
_chemical_formula_sum "Si O2"
_cell_formula_units_Z 64
_cell_length_a 8.477727
_cell_length_b 11.437454
_cell_length_c 28.380756
_cell_angle_alpha 90.000000
_cell_angle_beta 90.000000
_cell_angle_gamma 90.000000
_cell_volume 2751.900630
_symmetry_space_group_name_H-M "C C C M"
_symmetry_group_IT_number 66
_symmetry_cell_setting 'orthorhombic'
loop_
_space_group_symop_operation_xyz
x,y,z
-x,-y,z
x,-y,1/2-z
-x,y,1/2-z
-x,-y,-z
x,y,-z
-x,y,1/2+z
x,-y,1/2+z
1/2+x,1/2+y,z
1/2-x,1/2-y,z
1/2+x,1/2-y,1/2-z
1/2-x,1/2+y,1/2-z
1/2-x,1/2-y,-z
1/2+x,1/2+y,-z
1/2-x,1/2+y,1/2+z
1/2+x,1/2-y,1/2+z
loop_
_atom_site_type_symbol
_atom_site_label
_atom_site_fract_x
_atom_site_fract_y
_atom_site_fract_z
Si Si1 0.753225 0.980553 0.371748
Si Si2 0.455730 0.185975 0.125902
Si Si3 0.399254 0.331466 0.705218
Si Si4 0.399819 0.665234 0.052626
O O1 0.595204 0.907053 0.376513
O O2 0.840615 0.946714 0.322996
O O3 0.860406 0.951812 0.417403
O O4 0.712594 0.118994 0.371242
O O5 0.479494 0.261980 0.172356
O O6 0.459500 0.266031 0.079080
O O7 0.500000 0.372007 0.750000
O O8 0.250000 0.250000 0.719127
O O9 0.250000 0.750000 0.051287
O O10 0.452593 0.629612 0.000000
#
# Coordination Sequence:
#
# PCOD8277918 Si02
#       4
#    16  16  16  16
#     4   8  14  25  40  61  92 130 174 223 273 328
#     4   8  14  25  40  60  91 131 173 219 273 331
#     4   9  17  30  48  68  93 130 176 225 278 334
#     4   8  13  20  33  58  93 134 178 221 268 324
#
# _framework density 23.256654000000001
#
# number of rings (size 3 to 8) (size 9 to 14) (size 15 to 20)
#    0.000    3.750    0.000    3.000    0.000    1.000 
#    0.000   15.000    0.000    3.000    0.000    0.000 
#    0.000   16.000    0.000   18.000    0.000   82.000 
#
# Total GULP energy -396643.122418 kJ/mol
# GULP energy per Si atom -12395.097576 kJ/mol
# Density = 2.320372 g / cm^3
# Si number density = 23.256654 Si / 1000 Ang^3
#
#
#
# Elastic Constant Matrix: (Units=GPa)
#
#
# Indices 1 2 3 4 5 6 
#
# 1 93.5868 52.5774 74.4528 0.0000 0.0000 0.0000
# 2 52.5774 106.3654 65.8696 0.0000 0.0000 0.0000
# 3 74.4528 65.8696 211.3597 0.0000 0.0000 0.0000
# 4 0.0000 0.0000 0.0000 12.7163 0.0000 0.0000
# 5 0.0000 0.0000 0.0000 0.0000 29.3469 0.0000
# 6 0.0000 0.0000 0.0000 0.0000 0.0000 42.7849
#
#
#
# Elastic Compliance Matrix: (Units=1/GPa)
#
#
# Indices 1 2 3 4 5 6 
#
# 1 0.017450 -0.005971 -0.004286 0.000000 0.000000 0.000000
# 2 -0.005971 0.013693 -0.002164 0.000000 0.000000 0.000000
# 3 -0.004286 -0.002164 0.006915 0.000000 0.000000 0.000000
# 4 0.000000 0.000000 0.000000 0.078639 0.000000 0.000000
# 5 0.000000 0.000000 0.000000 0.000000 0.034075 0.000000
# 6 0.000000 0.000000 0.000000 0.000000 0.000000 0.023373
#
#
# Mechanical properties :
#
#
# Convention : Reuss Voigt Hill
#
# Bulk Modulus (GPa) = 75.66623 88.56797 82.11710
# Shear Modulus (GPa) = 24.58290 31.53041 28.05666
#
# Velocity S-wave (km/s) = 3.25472 3.68606 3.47708
# Velocity P-wave (km/s) = 6.83595 7.50210 7.17676
#
# Compressibility (1/GPa) = 0.01321593
#
# Stress axis : x y z
#
# Youngs Moduli (GPa) = 57.30812 73.02783 144.60542
#
# Poissons Ratio (x) = 0.43608 0.61974
# Poissons Ratio (y) = 0.34221 0.31293
# Poissons Ratio (z) = 0.24561 0.15804
#
# Static dielectric constant tensor:
#      x y z
#    x 3.771690 0.000000 0.000000 
#    y 0.000000 4.183800 0.000000 
#    z 0.000000 0.000000 4.178510 
# 
# 
# High freq. dielectric constant tensor:
#      x y z
#    x 1.918010 0.000000 0.000000 
#    y 0.000000 1.920280 0.000000 
#    z 0.000000 0.000000 1.906630 
# 
# From -- ./inp_files/67875.got.cif
#   From: 2010.03.12/outbox.cif.g09.slc.cpg/sg66_34_cif.got.tgz:67875.got - 2010.04.10 21:57:39.
