data_PCOD8277456
_publ_section_title
;
Structure prediction by ZEFSAII (Michael W. Deem and Ramdas Pophale) SiO2 
 PCOD8277456
Probable space group: C C C M
;
_chemical_formula_sum "Si O2"
_cell_formula_units_Z 88
_cell_length_a 11.677869
_cell_length_b 25.177174
_cell_length_c 15.257431
_cell_angle_alpha 90.000000
_cell_angle_beta 90.000000
_cell_angle_gamma 90.000000
_cell_volume 4485.924862
_symmetry_space_group_name_H-M "C C C M"
_symmetry_group_IT_number 66
_symmetry_cell_setting 'orthorhombic'
loop_
_space_group_symop_operation_xyz
x,y,z
-x,-y,z
x,-y,1/2-z
-x,y,1/2-z
-x,-y,-z
x,y,-z
-x,y,1/2+z
x,-y,1/2+z
1/2+x,1/2+y,z
1/2-x,1/2-y,z
1/2+x,1/2-y,1/2-z
1/2-x,1/2+y,1/2-z
1/2-x,1/2-y,-z
1/2+x,1/2+y,-z
1/2-x,1/2+y,1/2+z
1/2+x,1/2-y,1/2+z
loop_
_atom_site_type_symbol
_atom_site_label
_atom_site_fract_x
_atom_site_fract_y
_atom_site_fract_z
Si Si1 0.359764 0.326689 0.000000
Si Si2 0.975749 0.206424 0.150123
Si Si3 0.867696 0.012391 0.152169
Si Si4 0.449792 0.829412 0.842611
Si Si5 0.286550 0.559449 0.500000
Si Si6 0.112520 0.356188 0.000000
Si Si7 0.784808 0.126081 0.100177
O O1 0.412860 0.301435 0.088481
O O2 0.222203 0.315584 0.000000
O O3 0.378276 0.391277 0.000000
O O4 0.932571 0.266597 0.148649
O O5 0.874111 0.173399 0.108305
O O6 0.000000 0.187931 0.250000
O O7 0.843891 0.073932 0.137706
O O8 0.827855 0.000000 0.250000
O O9 0.000000 0.000000 0.136249
O O10 0.796743 0.976121 0.086144
O O11 0.500000 0.845871 0.750000
O O12 0.329391 0.859322 0.847853
O O13 0.537838 0.848545 0.914759
O O14 0.158505 0.583332 0.500000
O O15 0.750412 0.117544 0.000000
#
# Coordination Sequence:
#
# PCOD8277456 Si02
#       7
#     8  16  16  16   8   8  16
#     4  10  23  40  69  91 136 170 216 274 327 387
#     4  11  25  41  67 101 133 173 223 273 335 394
#     4  11  25  42  70  98 131 165 214 275 337 390
#     4  11  26  46  65  95 136 181 224 269 321 399
#     4  10  23  43  61  98 127 168 216 266 317 389
#     4  10  25  43  69  90 139 178 222 270 322 398
#     4  12  25  43  70  98 133 174 220 279 336 387
#
# _framework density 19.616913
#
# number of rings (size 3 to 8) (size 9 to 14) (size 15 to 20)
#    0.545    0.545    2.727    2.455   10.182    2.182 
#    0.000    1.818    0.000    0.000    0.000    0.000 
#    0.000    0.000    0.000    0.000    0.000    0.000 
#
# Total GULP energy -545698.339566 kJ/mol
# GULP energy per Si atom -12402.234990 kJ/mol
# Density = 1.957226 g / cm^3
# Si number density = 19.616913 Si / 1000 Ang^3
#
#
#
# Elastic Constant Matrix: (Units=GPa)
#
#
# Indices 1 2 3 4 5 6 
#
# 1 106.0662 47.1134 28.4806 0.0000 0.0000 0.0000
# 2 47.1134 95.3538 48.0090 0.0000 0.0000 0.0000
# 3 28.4806 48.0090 132.6517 0.0000 0.0000 0.0000
# 4 0.0000 0.0000 0.0000 33.8807 0.0000 0.0000
# 5 0.0000 0.0000 0.0000 0.0000 5.2961 0.0000
# 6 0.0000 0.0000 0.0000 0.0000 0.0000 4.5109
#
#
#
# Elastic Compliance Matrix: (Units=1/GPa)
#
#
# Indices 1 2 3 4 5 6 
#
# 1 0.012110 -0.005716 -0.000531 0.000000 0.000000 0.000000
# 2 -0.005716 0.015522 -0.004390 0.000000 0.000000 0.000000
# 3 -0.000531 -0.004390 0.009242 0.000000 0.000000 0.000000
# 4 0.000000 0.000000 0.000000 0.029515 0.000000 0.000000
# 5 0.000000 0.000000 0.000000 0.000000 0.188818 0.000000
# 6 0.000000 0.000000 0.000000 0.000000 0.000000 0.221685
#
#
# Mechanical properties :
#
#
# Convention : Reuss Voigt Hill
#
# Bulk Modulus (GPa) = 64.11064 64.58641 64.34852
# Shear Modulus (GPa) = 9.93314 22.76879 16.35097
#
# Velocity S-wave (km/s) = 2.25268 3.41056 2.89020
# Velocity P-wave (km/s) = 6.28636 6.96452 6.63411
#
# Compressibility (1/GPa) = 0.01559804
#
# Stress axis : x y z
#
# Youngs Moduli (GPa) = 82.57906 64.42525 108.20637
#
# Poissons Ratio (x) = 0.36824 0.05749
# Poissons Ratio (y) = 0.47200 0.47508
# Poissons Ratio (z) = 0.04388 0.28286
#
# Static dielectric constant tensor:
#      x y z
#    x 3.508760 0.000000 0.000000 
#    y 0.000000 3.622470 0.000000 
#    z 0.000000 0.000000 3.780290 
# 
# 
# High freq. dielectric constant tensor:
#      x y z
#    x 1.760130 0.000000 0.000000 
#    y 0.000000 1.769200 0.000000 
#    z 0.000000 0.000000 1.782660 
# 
# From -- ./inp_files/26582.got.cif
#   From: 2010.03.12/outbox.cif.g09.slc.cpg/sg66_14_cif.got.tgz:26582.got - 2010.04.10 21:57:39.
