data_PCOD8277754
_publ_section_title
;
Structure prediction by ZEFSAII (Michael W. Deem and Ramdas Pophale) SiO2 
 PCOD8277754
Probable space group: C C C M
;
_chemical_formula_sum "Si O2"
_cell_formula_units_Z 96
_cell_length_a 25.137251
_cell_length_b 23.255670
_cell_length_c 8.326954
_cell_angle_alpha 90.000000
_cell_angle_beta 90.000000
_cell_angle_gamma 90.000000
_cell_volume 4867.800863
_symmetry_space_group_name_H-M "C C C M"
_symmetry_group_IT_number 66
_symmetry_cell_setting 'orthorhombic'
loop_
_space_group_symop_operation_xyz
x,y,z
-x,-y,z
x,-y,1/2-z
-x,y,1/2-z
-x,-y,-z
x,y,-z
-x,y,1/2+z
x,-y,1/2+z
1/2+x,1/2+y,z
1/2-x,1/2-y,z
1/2+x,1/2-y,1/2-z
1/2-x,1/2+y,1/2-z
1/2-x,1/2-y,-z
1/2+x,1/2+y,-z
1/2-x,1/2+y,1/2+z
1/2+x,1/2-y,1/2+z
loop_
_atom_site_type_symbol
_atom_site_label
_atom_site_fract_x
_atom_site_fract_y
_atom_site_fract_z
Si Si1 0.689474 0.247917 0.314238
Si Si2 0.251425 0.437463 0.185990
Si Si3 0.058795 0.437342 0.190271
Si Si4 0.941145 0.062437 0.309499
Si Si5 0.155182 0.367680 0.314835
Si Si6 0.653646 0.634031 0.685277
O O1 0.687661 0.230418 0.500000
O O2 0.750000 0.250000 0.251093
O O3 0.657049 0.200686 0.213231
O O4 0.663048 0.309711 0.291342
O O5 0.236287 0.500000 0.250000
O O6 0.200534 0.397043 0.207910
O O7 0.301713 0.413708 0.282377
O O8 0.266839 0.439766 0.000000
O O9 0.077104 0.500000 0.250000
O O10 0.097521 0.389653 0.262595
O O11 0.000000 0.422382 0.250000
O O12 0.060701 0.435999 0.000000
O O13 0.938122 0.064665 0.500000
O O14 0.903614 0.109925 0.231841
O O15 0.000000 0.076501 0.250000
O O16 0.922432 0.000000 0.250000
O O17 0.165516 0.382367 0.500000
O O18 0.654920 0.651553 0.500000
#
# Coordination Sequence:
#
# PCOD8277754 Si02
#       6
#    16  16  16  16  16  16
#     4  11  23  41  64  89 121 162 206 251 303 361
#     4  12  24  39  58  87 122 158 198 250 306 362
#     4  11  22  40  64  92 125 162 204 251 305 363
#     4  11  22  40  64  92 125 162 204 251 305 363
#     4  12  24  40  62  90 122 160 204 250 303 363
#     4  12  24  40  62  90 122 160 204 250 303 363
#
# _framework density 19.721432
#
# number of rings (size 3 to 8) (size 9 to 14) (size 15 to 20)
#    0.000    0.500    1.667   10.000    0.000    0.667 
#    0.000    0.833    0.000    0.000    0.000    0.000 
#    0.000    0.000    0.000    0.000    0.000    0.000 
#
# Total GULP energy -595650.301116 kJ/mol
# GULP energy per Si atom -12409.381273 kJ/mol
# Density = 1.967654 g / cm^3
# Si number density = 19.721432 Si / 1000 Ang^3
#
#
#
# Elastic Constant Matrix: (Units=GPa)
#
#
# Indices 1 2 3 4 5 6 
#
# 1 104.2913 57.0552 21.1780 0.0000 0.0000 0.0000
# 2 57.0552 109.9990 20.1729 0.0000 0.0000 0.0000
# 3 21.1780 20.1729 113.5874 0.0000 0.0000 0.0000
# 4 0.0000 0.0000 0.0000 34.8083 0.0000 0.0000
# 5 0.0000 0.0000 0.0000 0.0000 30.9514 0.0000
# 6 0.0000 0.0000 0.0000 0.0000 0.0000 47.1658
#
#
#
# Elastic Compliance Matrix: (Units=1/GPa)
#
#
# Indices 1 2 3 4 5 6 
#
# 1 0.013577 -0.006800 -0.001324 0.000000 0.000000 0.000000
# 2 -0.006800 0.012802 -0.001006 0.000000 0.000000 0.000000
# 3 -0.001324 -0.001006 0.009229 0.000000 0.000000 0.000000
# 4 0.000000 0.000000 0.000000 0.028729 0.000000 0.000000
# 5 0.000000 0.000000 0.000000 0.000000 0.032309 0.000000
# 6 0.000000 0.000000 0.000000 0.000000 0.000000 0.021202
#
#
# Mechanical properties :
#
#
# Convention : Reuss Voigt Hill
#
# Bulk Modulus (GPa) = 57.63628 58.29887 57.96757
# Shear Modulus (GPa) = 35.23851 37.88319 36.56085
#
# Velocity S-wave (km/s) = 4.23166 4.38758 4.31032
# Velocity P-wave (km/s) = 7.29140 7.43594 7.36402
#
# Compressibility (1/GPa) = 0.01735018
#
# Stress axis : x y z
#
# Youngs Moduli (GPa) = 73.65274 78.11082 108.35092
#
# Poissons Ratio (x) = 0.53112 0.14344
# Poissons Ratio (y) = 0.50081 0.10899
# Poissons Ratio (z) = 0.09750 0.07857
#
# Static dielectric constant tensor:
#      x y z
#    x 3.521970 0.000000 0.000000 
#    y 0.000000 3.578750 0.000000 
#    z 0.000000 0.000000 3.823470 
# 
# 
# High freq. dielectric constant tensor:
#      x y z
#    x 1.768730 0.000000 0.000000 
#    y 0.000000 1.769250 0.000000 
#    z 0.000000 0.000000 1.790880 
# 
# From -- ./inp_files/10249.got.cif
#   From: 2010.03.12/outbox.cif.g09.slc.cpg/sg66_6_cif.got.tgz:10249.got - 2010.04.10 21:57:39.
