data_PCOD8277061
_publ_section_title
;
Structure prediction by ZEFSAII (Michael W. Deem and Ramdas Pophale) SiO2 
 PCOD8277061
Probable space group: C C C M
;
_chemical_formula_sum "Si O2"
_cell_formula_units_Z 48
_cell_length_a 9.029623
_cell_length_b 25.195571
_cell_length_c 8.981392
_cell_angle_alpha 90.000000
_cell_angle_beta 90.000000
_cell_angle_gamma 90.000000
_cell_volume 2043.325126
_symmetry_space_group_name_H-M "C C C M"
_symmetry_group_IT_number 66
_symmetry_cell_setting 'orthorhombic'
loop_
_space_group_symop_operation_xyz
x,y,z
-x,-y,z
x,-y,1/2-z
-x,y,1/2-z
-x,-y,-z
x,y,-z
-x,y,1/2+z
x,-y,1/2+z
1/2+x,1/2+y,z
1/2-x,1/2-y,z
1/2+x,1/2-y,1/2-z
1/2-x,1/2+y,1/2-z
1/2-x,1/2-y,-z
1/2+x,1/2+y,-z
1/2-x,1/2+y,1/2+z
1/2+x,1/2-y,1/2+z
loop_
_atom_site_type_symbol
_atom_site_label
_atom_site_fract_x
_atom_site_fract_y
_atom_site_fract_z
Si Si1 0.295135 0.000000 0.750000
Si Si2 0.071784 0.569739 0.000000
Si Si3 0.750000 0.750000 0.243047
Si Si4 0.272583 0.821172 0.000000
Si Si5 0.270017 0.573616 0.500000
Si Si6 0.921677 0.186920 0.500000
O O1 0.400708 0.034834 0.645157
O O2 0.193068 0.961528 0.647376
O O3 0.183005 0.618416 0.000000
O O4 0.903339 0.589644 0.000000
O O5 0.665149 0.792052 0.351627
O O6 0.868447 0.781708 0.145382
O O7 0.096302 0.816025 0.000000
O O8 0.363307 0.626860 0.500000
#
# Coordination Sequence:
#
# PCOD8277061 Si02
#       6
#     8   8   8   8   8   8
#     4  10  21  38  59  86 121 162 205 250 299 362
#     4  11  21  37  61  87 119 160 206 252 303 361
#     4  10  24  42  62  86 124 166 198 248 314 376
#     4  11  24  42  64  92 125 160 206 260 311 368
#     4  11  21  37  61  87 119 160 206 252 303 361
#     4  11  24  42  64  92 125 160 206 260 311 368
#
# _framework density 23.491119999999999
#
# number of rings (size 3 to 8) (size 9 to 14) (size 15 to 20)
#    0.000    1.333    0.000    7.000    0.000    8.000 
#    0.000    5.000    0.000    0.000    0.000    0.000 
#    0.000    0.000    0.000    0.000    0.000    0.000 
#
# Total GULP energy -297581.070473 kJ/mol
# GULP energy per Si atom -12399.211270 kJ/mol
# Density = 2.343765 g / cm^3
# Si number density = 23.491120 Si / 1000 Ang^3
#
#
#
# Elastic Constant Matrix: (Units=GPa)
#
#
# Indices 1 2 3 4 5 6 
#
# 1 58.2372 64.0011 31.9538 0.0000 0.0000 0.0000
# 2 64.0011 189.2490 88.2254 0.0000 0.0000 0.0000
# 3 31.9538 88.2254 196.0014 0.0000 0.0000 0.0000
# 4 0.0000 0.0000 0.0000 33.2142 0.0000 0.0000
# 5 0.0000 0.0000 0.0000 0.0000 14.6053 0.0000
# 6 0.0000 0.0000 0.0000 0.0000 0.0000 30.8137
#
#
#
# Elastic Compliance Matrix: (Units=1/GPa)
#
#
# Indices 1 2 3 4 5 6 
#
# 1 0.027349 -0.009075 -0.000374 0.000000 0.000000 0.000000
# 2 -0.009075 0.009698 -0.002886 0.000000 0.000000 0.000000
# 3 -0.000374 -0.002886 0.006462 0.000000 0.000000 0.000000
# 4 0.000000 0.000000 0.000000 0.030108 0.000000 0.000000
# 5 0.000000 0.000000 0.000000 0.000000 0.068468 0.000000
# 6 0.000000 0.000000 0.000000 0.000000 0.000000 0.032453
#
#
# Mechanical properties :
#
#
# Convention : Reuss Voigt Hill
#
# Bulk Modulus (GPa) = 53.07794 90.20534 71.64164
# Shear Modulus (GPa) = 24.33228 33.01379 28.67303
#
# Velocity S-wave (km/s) = 3.22189 3.75290 3.49748
# Velocity P-wave (km/s) = 6.04026 7.56717 6.84642
#
# Compressibility (1/GPa) = 0.01884022
#
# Stress axis : x y z
#
# Youngs Moduli (GPa) = 36.56410 103.10934 154.74937
#
# Poissons Ratio (x) = 0.93569 0.05786
# Poissons Ratio (y) = 0.33181 0.44662
# Poissons Ratio (z) = 0.01367 0.29758
#
# Static dielectric constant tensor:
#      x y z
#    x 3.643030 0.000000 0.000000 
#    y 0.000000 4.526970 0.000000 
#    z 0.000000 0.000000 4.955200 
# 
# 
# High freq. dielectric constant tensor:
#      x y z
#    x 1.893660 0.000000 0.000000 
#    y 0.000000 1.947300 0.000000 
#    z 0.000000 0.000000 1.962060 
# 
# From -- ./inp_files/2823.got.cif
#   From: 2010.03.12/outbox.cif.g09.slc.cpg/sg66_2_cif.got.tgz:2823.got - 2010.04.10 21:57:39.
