data_PCOD8277597
_publ_section_title
;
Structure prediction by ZEFSAII (Michael W. Deem and Ramdas Pophale) SiO2 
 PCOD8277597
Probable space group: C C C M
;
_chemical_formula_sum "Si O2"
_cell_formula_units_Z 112
_cell_length_a 13.987319
_cell_length_b 28.462965
_cell_length_c 13.957997
_cell_angle_alpha 90.000000
_cell_angle_beta 90.000000
_cell_angle_gamma 90.000000
_cell_volume 5556.965738
_symmetry_space_group_name_H-M "C C C M"
_symmetry_group_IT_number 66
_symmetry_cell_setting 'orthorhombic'
loop_
_space_group_symop_operation_xyz
x,y,z
-x,-y,z
x,-y,1/2-z
-x,y,1/2-z
-x,-y,-z
x,y,-z
-x,y,1/2+z
x,-y,1/2+z
1/2+x,1/2+y,z
1/2-x,1/2-y,z
1/2+x,1/2-y,1/2-z
1/2-x,1/2+y,1/2-z
1/2-x,1/2-y,-z
1/2+x,1/2+y,-z
1/2-x,1/2+y,1/2+z
1/2+x,1/2-y,1/2+z
loop_
_atom_site_type_symbol
_atom_site_label
_atom_site_fract_x
_atom_site_fract_y
_atom_site_fract_z
Si Si1 0.038022 0.664433 0.145125
Si Si2 0.388814 0.312808 0.226570
Si Si3 0.244722 0.868394 0.612141
Si Si4 0.473152 0.064583 0.395816
Si Si5 0.346280 0.049326 0.221985
Si Si6 0.750222 0.694470 0.392888
Si Si7 0.371783 0.222183 0.894308
O O1 0.003033 0.619368 0.084451
O O2 0.149897 0.674212 0.144315
O O3 0.000000 0.654120 0.250000
O O4 0.984528 0.710132 0.102590
O O5 0.500000 0.313798 0.250000
O O6 0.360694 0.353135 0.149331
O O7 0.333219 0.324117 0.324329
O O8 0.353969 0.262706 0.183293
O O9 0.242021 0.880901 0.500000
O O10 0.275264 0.914590 0.671254
O O11 0.314340 0.824627 0.635928
O O12 0.448965 0.041849 0.500000
O O13 0.384016 0.068821 0.323312
O O14 0.564174 0.037478 0.349447
O O15 0.294852 0.000000 0.250000
O O16 0.730861 0.675282 0.500000
O O17 0.750000 0.750000 0.392791
O O18 0.340451 0.240175 0.000000
#
# Coordination Sequence:
#
# PCOD8277597 Si02
#       7
#    16  16  16  16  16  16  16
#     4  12  20  34  57  82 121 165 202 244 302 367
#     4  12  25  39  59  87 122 166 215 269 316 359
#     4  11  23  42  65  91 125 165 214 263 317 377
#     4  11  20  34  56  86 124 164 200 238 296 373
#     4  11  23  38  58  87 121 158 203 257 312 376
#     4  11  23  36  51  77 117 164 211 257 304 357
#     4  11  21  35  59  92 126 164 211 251 298 371
#
# _framework density 20.154883999999999
#
# number of rings (size 3 to 8) (size 9 to 14) (size 15 to 20)
#    0.000    0.714    2.857    8.143    0.000    5.143 
#    0.000    0.000    0.000    0.429    0.000    1.000 
#    0.000    0.000    0.000    0.000    0.000    0.000 
#
# Total GULP energy -694194.056911 kJ/mol
# GULP energy per Si atom -12396.322445 kJ/mol
# Density = 2.010901 g / cm^3
# Si number density = 20.154884 Si / 1000 Ang^3
#
#
#
# Elastic Constant Matrix: (Units=GPa)
#
#
# Indices 1 2 3 4 5 6 
#
# 1 92.9136 43.1682 45.6556 0.0000 0.0000 0.0000
# 2 43.1682 100.7969 46.1203 0.0000 0.0000 0.0000
# 3 45.6556 46.1203 161.0781 0.0000 0.0000 0.0000
# 4 0.0000 0.0000 0.0000 41.0727 0.0000 0.0000
# 5 0.0000 0.0000 0.0000 0.0000 15.7446 0.0000
# 6 0.0000 0.0000 0.0000 0.0000 0.0000 22.3183
#
#
#
# Elastic Compliance Matrix: (Units=1/GPa)
#
#
# Indices 1 2 3 4 5 6 
#
# 1 0.014361 -0.004934 -0.002658 0.000000 0.000000 0.000000
# 2 -0.004934 0.013112 -0.002356 0.000000 0.000000 0.000000
# 3 -0.002658 -0.002356 0.007636 0.000000 0.000000 0.000000
# 4 0.000000 0.000000 0.000000 0.024347 0.000000 0.000000
# 5 0.000000 0.000000 0.000000 0.000000 0.063514 0.000000
# 6 0.000000 0.000000 0.000000 0.000000 0.000000 0.044806
#
#
# Mechanical properties :
#
#
# Convention : Reuss Voigt Hill
#
# Bulk Modulus (GPa) = 65.73047 69.40854 67.56951
# Shear Modulus (GPa) = 25.94129 30.48342 28.21235
#
# Velocity S-wave (km/s) = 3.59151 3.89325 3.74542
# Velocity P-wave (km/s) = 7.06272 7.39745 7.23202
#
# Compressibility (1/GPa) = 0.01521364
#
# Stress axis : x y z
#
# Youngs Moduli (GPa) = 69.63224 76.26567 130.95984
#
# Poissons Ratio (x) = 0.37633 0.34805
# Poissons Ratio (y) = 0.34359 0.30850
# Poissons Ratio (z) = 0.18506 0.17966
#
# Static dielectric constant tensor:
#      x y z
#    x 3.492650 0.000000 0.000000 
#    y 0.000000 3.676380 0.000000 
#    z 0.000000 0.000000 4.096580 
# 
# 
# High freq. dielectric constant tensor:
#      x y z
#    x 1.747350 0.000000 0.000000 
#    y 0.000000 1.769190 0.000000 
#    z 0.000000 0.000000 1.816410 
# 
# From -- ./inp_files/29021.got.cif
#   From: 2010.03.12/outbox.cif.g09.slc.cpg/sg66_15_cif.got.tgz:29021.got - 2010.04.10 21:57:39.
