data_PCOD8277136
_publ_section_title
;
Structure prediction by ZEFSAII (Michael W. Deem and Ramdas Pophale) SiO2 
 PCOD8277136
Probable space group: C C C M
;
_chemical_formula_sum "Si O2"
_cell_formula_units_Z 56
_cell_length_a 17.463201
_cell_length_b 16.797318
_cell_length_c 9.310689
_cell_angle_alpha 90.000000
_cell_angle_beta 90.000000
_cell_angle_gamma 90.000000
_cell_volume 2731.150404
_symmetry_space_group_name_H-M "C C C M"
_symmetry_group_IT_number 66
_symmetry_cell_setting 'orthorhombic'
loop_
_space_group_symop_operation_xyz
x,y,z
-x,-y,z
x,-y,1/2-z
-x,y,1/2-z
-x,-y,-z
x,y,-z
-x,y,1/2+z
x,-y,1/2+z
1/2+x,1/2+y,z
1/2-x,1/2-y,z
1/2+x,1/2-y,1/2-z
1/2-x,1/2+y,1/2-z
1/2-x,1/2-y,-z
1/2+x,1/2+y,-z
1/2-x,1/2+y,1/2+z
1/2+x,1/2-y,1/2+z
loop_
_atom_site_type_symbol
_atom_site_label
_atom_site_fract_x
_atom_site_fract_y
_atom_site_fract_z
Si Si1 0.657845 0.927387 0.838346
Si Si2 0.077698 0.702452 0.828817
Si Si3 0.304286 0.500000 0.750000
Si Si4 0.929559 0.882718 0.341129
O O1 0.645600 0.847616 0.745210
O O2 0.617296 0.000000 0.750000
O O3 0.749189 0.945996 0.850812
O O4 0.624459 0.919671 0.000000
O O5 0.094868 0.794391 0.790725
O O6 0.000000 0.674711 0.750000
O O7 0.074388 0.686440 0.000000
O O8 0.357113 0.440712 0.659229
O O9 0.962943 0.876988 0.500000
O O10 0.000000 0.917264 0.250000
#
# Coordination Sequence:
#
# PCOD8277136 Si02
#       4
#    16  16   8  16
#     4  10  22  39  60  87 120 156 197 240 293 350
#     4  10  21  39  63  88 119 154 197 244 293 348
#     4  10  23  38  61  86 120 156 198 238 289 350
#     4  10  22  40  62  89 119 156 196 243 295 347
#
# _framework density 20.504180000000002
#
# number of rings (size 3 to 8) (size 9 to 14) (size 15 to 20)
#    0.857    1.143    0.000    3.000    0.000    6.286 
#    0.000    7.143    0.000    0.000    0.000    0.000 
#    0.000    0.000    0.000    0.000    0.000    0.000 
#
# Total GULP energy -346991.575057 kJ/mol
# GULP energy per Si atom -12392.556252 kJ/mol
# Density = 2.045751 g / cm^3
# Si number density = 20.504180 Si / 1000 Ang^3
#
#
#
# Elastic Constant Matrix: (Units=GPa)
#
#
# Indices 1 2 3 4 5 6 
#
# 1 93.7246 60.9598 38.3493 0.0000 0.0000 0.0000
# 2 60.9598 107.6966 50.4837 0.0000 0.0000 0.0000
# 3 38.3493 50.4837 136.6482 0.0000 0.0000 0.0000
# 4 0.0000 0.0000 0.0000 27.3306 0.0000 0.0000
# 5 0.0000 0.0000 0.0000 0.0000 26.1270 0.0000
# 6 0.0000 0.0000 0.0000 0.0000 0.0000 37.4212
#
#
#
# Elastic Compliance Matrix: (Units=1/GPa)
#
#
# Indices 1 2 3 4 5 6 
#
# 1 0.017131 -0.009002 -0.001482 0.000000 0.000000 0.000000
# 2 -0.009002 0.015961 -0.003370 0.000000 0.000000 0.000000
# 3 -0.001482 -0.003370 0.008979 0.000000 0.000000 0.000000
# 4 0.000000 0.000000 0.000000 0.036589 0.000000 0.000000
# 5 0.000000 0.000000 0.000000 0.000000 0.038275 0.000000
# 6 0.000000 0.000000 0.000000 0.000000 0.000000 0.026723
#
#
# Mechanical properties :
#
#
# Convention : Reuss Voigt Hill
#
# Bulk Modulus (GPa) = 69.62662 70.85054 70.23858
# Shear Modulus (GPa) = 28.38447 30.72753 29.55600
#
# Velocity S-wave (km/s) = 3.72469 3.87537 3.80078
# Velocity P-wave (km/s) = 7.24767 7.39283 7.32061
#
# Compressibility (1/GPa) = 0.01436232
#
# Stress axis : x y z
#
# Youngs Moduli (GPa) = 58.37390 62.65440 111.37043
#
# Poissons Ratio (x) = 0.56401 0.16504
# Poissons Ratio (y) = 0.52548 0.37534
# Poissons Ratio (z) = 0.08651 0.21116
#
# Static dielectric constant tensor:
#      x y z
#    x 3.422050 0.000000 0.000000 
#    y 0.000000 3.757640 0.000000 
#    z 0.000000 0.000000 3.587390 
# 
# 
# High freq. dielectric constant tensor:
#      x y z
#    x 1.776930 0.000000 0.000000 
#    y 0.000000 1.808660 0.000000 
#    z 0.000000 0.000000 1.805730 
# 
# From -- ./inp_files/6012.got.cif
#   From: 2010.03.12/outbox.cif.g09.slc.cpg/sg66_4_cif.got.tgz:6012.got - 2010.04.10 21:57:39.
