data_PCOD8277827
_publ_section_title
;
Structure prediction by ZEFSAII (Michael W. Deem and Ramdas Pophale) SiO2 
 PCOD8277827
Probable space group: C C C M
;
_chemical_formula_sum "Si O2"
_cell_formula_units_Z 68
_cell_length_a 20.022720
_cell_length_b 9.476066
_cell_length_c 16.350713
_cell_angle_alpha 90.000000
_cell_angle_beta 90.000000
_cell_angle_gamma 90.000000
_cell_volume 3102.328957
_symmetry_space_group_name_H-M "C C C M"
_symmetry_group_IT_number 66
_symmetry_cell_setting 'orthorhombic'
loop_
_space_group_symop_operation_xyz
x,y,z
-x,-y,z
x,-y,1/2-z
-x,y,1/2-z
-x,-y,-z
x,y,-z
-x,y,1/2+z
x,-y,1/2+z
1/2+x,1/2+y,z
1/2-x,1/2-y,z
1/2+x,1/2-y,1/2-z
1/2-x,1/2+y,1/2-z
1/2-x,1/2-y,-z
1/2+x,1/2+y,-z
1/2-x,1/2+y,1/2+z
1/2+x,1/2-y,1/2+z
loop_
_atom_site_type_symbol
_atom_site_label
_atom_site_fract_x
_atom_site_fract_y
_atom_site_fract_z
Si Si1 0.423642 0.037453 0.410225
Si Si2 0.834961 0.322528 0.668308
Si Si3 0.500000 0.500000 0.250000
Si Si4 0.885402 0.181987 0.170149
Si Si5 0.796575 0.941736 0.093914
O O1 0.393025 0.006995 0.500000
O O2 0.411156 0.200801 0.391982
O O3 0.500000 0.000000 0.408861
O O4 0.391791 0.937938 0.342120
O O5 0.843147 0.254221 0.757506
O O6 0.765065 0.405236 0.654656
O O7 0.844288 0.195737 0.602213
O O8 0.451677 0.598330 0.196548
O O9 0.833924 0.080821 0.123577
O O10 0.773501 0.961241 0.000000
#
# Coordination Sequence:
#
# PCOD8277827 Si02
#       5
#    16  16   4  16  16
#     4  11  25  44  67 101 138 183 233 287 348 410
#     4  11  23  44  68  99 139 182 226 282 350 414
#     4  12  24  48  64 100 136 176 238 280 344 404
#     4  12  25  44  71 101 137 184 235 285 343 417
#     4  11  24  45  71 103 137 180 228 288 350 409
#
# _framework density 21.919015999999999
#
# number of rings (size 3 to 8) (size 9 to 14) (size 15 to 20)
#    0.000    0.706    2.353    5.647    0.000    9.412 
#    0.000    3.529    0.000    0.000    0.000    0.000 
#    0.000    0.000    0.000    0.000    0.000    0.000 
#
# Total GULP energy -421504.645943 kJ/mol
# GULP energy per Si atom -12397.195469 kJ/mol
# Density = 2.186913 g / cm^3
# Si number density = 21.919016 Si / 1000 Ang^3
#
#
#
# Elastic Constant Matrix: (Units=GPa)
#
#
# Indices 1 2 3 4 5 6 
#
# 1 96.2536 64.4874 55.0701 0.0000 0.0000 0.0000
# 2 64.4874 160.2606 52.1095 0.0000 0.0000 0.0000
# 3 55.0701 52.1095 94.2185 0.0000 0.0000 0.0000
# 4 0.0000 0.0000 0.0000 185.5821 0.0000 0.0000
# 5 0.0000 0.0000 0.0000 0.0000 12.8909 0.0000
# 6 0.0000 0.0000 0.0000 0.0000 0.0000 52.8608
#
#
#
# Elastic Compliance Matrix: (Units=1/GPa)
#
#
# Indices 1 2 3 4 5 6 
#
# 1 0.018098 -0.004686 -0.007987 0.000000 0.000000 0.000000
# 2 -0.004686 0.008821 -0.002140 0.000000 0.000000 0.000000
# 3 -0.007987 -0.002140 0.016465 0.000000 0.000000 0.000000
# 4 0.000000 0.000000 0.000000 0.005388 0.000000 0.000000
# 5 0.000000 0.000000 0.000000 0.000000 0.077574 0.000000
# 6 0.000000 0.000000 0.000000 0.000000 0.000000 0.018918
#
#
# Mechanical properties :
#
#
# Convention : Reuss Voigt Hill
#
# Bulk Modulus (GPa) = 72.67497 77.11853 74.89675
# Shear Modulus (GPa) = 27.85899 62.20448 45.03173
#
# Velocity S-wave (km/s) = 3.56897 5.33300 4.53753
# Velocity P-wave (km/s) = 7.08601 8.55458 7.85469
#
# Compressibility (1/GPa) = 0.01375990
#
# Stress axis : x y z
#
# Youngs Moduli (GPa) = 55.25521 113.36475 60.73353
#
# Poissons Ratio (x) = 0.53117 0.48506
# Poissons Ratio (y) = 0.25890 0.12997
# Poissons Ratio (z) = 0.44130 0.24260
#
# Static dielectric constant tensor:
#      x y z
#    x 3.991050 0.000000 0.000000 
#    y 0.000000 4.481540 0.000000 
#    z 0.000000 0.000000 4.255620 
# 
# 
# High freq. dielectric constant tensor:
#      x y z
#    x 1.861470 0.000000 0.000000 
#    y 0.000000 1.887670 0.000000 
#    z 0.000000 0.000000 1.861160 
# 
# From -- ./inp_files/42488.got.cif
#   From: 2010.03.12/outbox.cif.g09.slc.cpg/sg66_22_cif.got.tgz:42488.got - 2010.04.10 21:57:39.
