data_PCOD8277135
_publ_section_title
;
Structure prediction by ZEFSAII (Michael W. Deem and Ramdas Pophale) SiO2 
 PCOD8277135
Probable space group: C C C M
;
_chemical_formula_sum "Si O2"
_cell_formula_units_Z 72
_cell_length_a 16.573496
_cell_length_b 14.402936
_cell_length_c 14.782048
_cell_angle_alpha 90.000000
_cell_angle_beta 90.000000
_cell_angle_gamma 90.000000
_cell_volume 3528.578364
_symmetry_space_group_name_H-M "C C C M"
_symmetry_group_IT_number 66
_symmetry_cell_setting 'orthorhombic'
loop_
_space_group_symop_operation_xyz
x,y,z
-x,-y,z
x,-y,1/2-z
-x,y,1/2-z
-x,-y,-z
x,y,-z
-x,y,1/2+z
x,-y,1/2+z
1/2+x,1/2+y,z
1/2-x,1/2-y,z
1/2+x,1/2-y,1/2-z
1/2-x,1/2+y,1/2-z
1/2-x,1/2-y,-z
1/2+x,1/2+y,-z
1/2-x,1/2+y,1/2+z
1/2+x,1/2-y,1/2+z
loop_
_atom_site_type_symbol
_atom_site_label
_atom_site_fract_x
_atom_site_fract_y
_atom_site_fract_z
Si Si1 0.795665 0.500000 0.250000
Si Si2 0.417704 0.044101 0.396644
Si Si3 0.810701 0.827302 0.777424
Si Si4 0.527329 0.602272 0.148414
Si Si5 0.899999 0.242143 0.900105
O O1 0.847793 0.495235 0.340453
O O2 0.740963 0.588617 0.257134
O O3 0.399893 0.018708 0.500000
O O4 0.425789 0.153249 0.379943
O O5 0.500000 0.000000 0.361845
O O6 0.750000 0.750000 0.821537
O O7 0.877357 0.867442 0.849478
O O8 0.845236 0.788277 0.683166
O O9 0.500000 0.500000 0.109926
O O10 0.500000 0.606330 0.250000
O O11 0.480606 0.679877 0.091942
O O12 0.857267 0.235188 0.000000
#
# Coordination Sequence:
#
# PCOD8277135 Si02
#       5
#     8  16  16  16  16
#     4  12  23  38  63  88 122 164 192 250 323 362
#     4  10  23  40  60  89 120 157 209 252 292 363
#     4  11  22  36  58  92 120 154 200 250 306 372
#     4   9  19  37  58  81 118 157 203 245 283 361
#     4  10  21  39  63  88 117 156 201 251 298 356
#
# _framework density 20.404817999999999
#
# number of rings (size 3 to 8) (size 9 to 14) (size 15 to 20)
#    0.000    1.778    2.222    3.000    3.111    3.556 
#    0.000    1.111    0.000    1.333    0.000    0.000 
#    0.000    0.000    0.000    0.000    0.000    0.000 
#
# Total GULP energy -446050.797373 kJ/mol
# GULP energy per Si atom -12390.299927 kJ/mol
# Density = 2.035838 g / cm^3
# Si number density = 20.404818 Si / 1000 Ang^3
#
#
#
# Elastic Constant Matrix: (Units=GPa)
#
#
# Indices 1 2 3 4 5 6 
#
# 1 126.3527 55.4494 25.8795 0.0000 0.0000 0.0000
# 2 55.4494 117.9478 33.9416 0.0000 0.0000 0.0000
# 3 25.8795 33.9416 44.5077 0.0000 0.0000 0.0000
# 4 0.0000 0.0000 0.0000 12.5958 0.0000 0.0000
# 5 0.0000 0.0000 0.0000 0.0000 28.9002 0.0000
# 6 0.0000 0.0000 0.0000 0.0000 0.0000 48.7758
#
#
#
# Elastic Compliance Matrix: (Units=1/GPa)
#
#
# Indices 1 2 3 4 5 6 
#
# 1 0.010262 -0.003981 -0.002931 0.000000 0.000000 0.000000
# 2 -0.003981 0.012406 -0.007146 0.000000 0.000000 0.000000
# 3 -0.002931 -0.007146 0.029622 0.000000 0.000000 0.000000
# 4 0.000000 0.000000 0.000000 0.079392 0.000000 0.000000
# 5 0.000000 0.000000 0.000000 0.000000 0.034602 0.000000
# 6 0.000000 0.000000 0.000000 0.000000 0.000000 0.020502
#
#
# Mechanical properties :
#
#
# Convention : Reuss Voigt Hill
#
# Bulk Modulus (GPa) = 41.36720 57.70548 49.53634
# Shear Modulus (GPa) = 22.42559 29.62354 26.02456
#
# Velocity S-wave (km/s) = 3.31876 3.81437 3.57517
# Velocity P-wave (km/s) = 5.91632 6.90948 6.43210
#
# Compressibility (1/GPa) = 0.02417374
#
# Stress axis : x y z
#
# Youngs Moduli (GPa) = 97.45064 80.60470 33.75854
#
# Poissons Ratio (x) = 0.32086 0.09895
# Poissons Ratio (y) = 0.38792 0.24125
# Poissons Ratio (z) = 0.28563 0.57603
#
# Static dielectric constant tensor:
#      x y z
#    x 4.135350 0.000000 0.000000 
#    y 0.000000 4.020240 0.000000 
#    z 0.000000 0.000000 3.652890 
# 
# 
# High freq. dielectric constant tensor:
#      x y z
#    x 1.797440 0.000000 0.000000 
#    y 0.000000 1.816630 0.000000 
#    z 0.000000 0.000000 1.778740 
# 
# From -- ./inp_files/40049.got.cif
#   From: 2010.03.12/outbox.cif.g09.slc.cpg/sg66_21_cif.got.tgz:40049.got - 2010.04.10 21:57:39.
