data_PCOD8277300
_publ_section_title
;
Structure prediction by ZEFSAII (Michael W. Deem and Ramdas Pophale) SiO2 
 PCOD8277300
Probable space group: C C C M
;
_chemical_formula_sum "Si O2"
_cell_formula_units_Z 96
_cell_length_a 14.741231
_cell_length_b 22.665613
_cell_length_c 14.015379
_cell_angle_alpha 90.000000
_cell_angle_beta 90.000000
_cell_angle_gamma 90.000000
_cell_volume 4682.804935
_symmetry_space_group_name_H-M "C C C M"
_symmetry_group_IT_number 66
_symmetry_cell_setting 'orthorhombic'
loop_
_space_group_symop_operation_xyz
x,y,z
-x,-y,z
x,-y,1/2-z
-x,y,1/2-z
-x,-y,-z
x,y,-z
-x,y,1/2+z
x,-y,1/2+z
1/2+x,1/2+y,z
1/2-x,1/2-y,z
1/2+x,1/2-y,1/2-z
1/2-x,1/2+y,1/2-z
1/2-x,1/2-y,-z
1/2+x,1/2+y,-z
1/2-x,1/2+y,1/2+z
1/2+x,1/2-y,1/2+z
loop_
_atom_site_type_symbol
_atom_site_label
_atom_site_fract_x
_atom_site_fract_y
_atom_site_fract_z
Si Si1 0.841917 0.498603 0.112865
Si Si2 0.148729 0.275512 0.757944
Si Si3 0.898959 0.597218 0.246454
Si Si4 0.862014 0.004713 0.387240
Si Si5 0.007472 0.905384 0.887318
Si Si6 0.507118 0.728541 0.385962
O O1 0.895623 0.554195 0.154887
O O2 0.877552 0.437539 0.156072
O O3 0.739684 0.507629 0.149921
O O4 0.853895 0.496497 0.000000
O O5 0.250000 0.250000 0.759809
O O6 0.165035 0.345970 0.764149
O O7 0.094867 0.260307 0.660043
O O8 0.088568 0.254351 0.848358
O O9 0.000000 0.623061 0.250000
O O10 0.864282 0.003684 0.500000
O O11 0.907865 0.944233 0.349157
O O12 0.915924 0.062406 0.350250
O O13 0.012343 0.839051 0.849412
O O14 0.007993 0.903931 0.000000
O O15 0.511176 0.735779 0.500000
#
# Coordination Sequence:
#
# PCOD8277300 Si02
#       6
#    16  16  16  16  16  16
#     4  10  22  38  66  92 116 158 206 258 316 367
#     4  11  26  45  64  94 135 169 212 271 321 377
#     4  11  24  45  59  86 125 154 206 264 311 377
#     4   8  15  30  53  91 125 151 188 246 305 361
#     4   8  15  30  56  87 126 155 190 244 300 371
#     4  10  22  43  68  94 124 171 220 260 318 388
#
# _framework density 20.500533999999998
#
# number of rings (size 3 to 8) (size 9 to 14) (size 15 to 20)
#    0.000    2.333    1.667    2.000    4.667    3.333 
#    0.000    0.000    0.000    8.000    0.000    0.000 
#    0.000    0.000    0.000    0.000    0.000    0.000 
#
# Total GULP energy -594951.982148 kJ/mol
# GULP energy per Si atom -12394.832961 kJ/mol
# Density = 2.045387 g / cm^3
# Si number density = 20.500534 Si / 1000 Ang^3
#
#
#
# Elastic Constant Matrix: (Units=GPa)
#
#
# Indices 1 2 3 4 5 6 
#
# 1 83.6279 -5.2920 -7.9543 0.0000 0.0000 0.0000
# 2 -5.2920 120.2795 0.5152 0.0000 0.0000 0.0000
# 3 -7.9543 0.5152 100.4356 0.0000 0.0000 0.0000
# 4 0.0000 0.0000 0.0000 -3.2629 0.0000 0.0000
# 5 0.0000 0.0000 0.0000 0.0000 -116.3379 0.0000
# 6 0.0000 0.0000 0.0000 0.0000 0.0000 30.4527
#
#
#
# Elastic Compliance Matrix: (Units=1/GPa)
#
#
# Indices 1 2 3 4 5 6 
#
# 1 0.012082 0.000527 0.000954 0.000000 0.000000 0.000000
# 2 0.000527 0.008337 -0.000001 0.000000 0.000000 0.000000
# 3 0.000954 -0.000001 0.010032 0.000000 0.000000 0.000000
# 4 0.000000 0.000000 0.000000 -0.306477 0.000000 0.000000
# 5 0.000000 0.000000 0.000000 0.000000 -0.008596 0.000000
# 6 0.000000 0.000000 0.000000 0.000000 0.000000 0.032838
#
#
# Mechanical properties :
#
#
# Convention : Reuss Voigt Hill
#
# Bulk Modulus (GPa) = 29.92886 30.98673 30.45780
# Shear Modulus (GPa) = -20.52487 3.30865 -8.60811
#
# Velocity S-wave (km/s) = -3.16759 1.27179 -2.05136
# Velocity P-wave (km/s) = 1.11920 4.15987 3.04607
#
# Compressibility (1/GPa) = 0.03341257
#
# Stress axis : x y z
#
# Youngs Moduli (GPa) = 82.76869 119.94460 99.67899
#
# Poissons Ratio (x) = -0.06327 -0.09511
# Poissons Ratio (y) = -0.04366 0.00010
# Poissons Ratio (z) = -0.07897 0.00012
#
# Static dielectric constant tensor:
#      x y z
#    x 3.908150 0.000000 0.000000 
#    y 0.000000 3.900600 0.000000 
#    z 0.000000 0.000000 3.530290 
# 
# 
# High freq. dielectric constant tensor:
#      x y z
#    x 1.800320 0.000000 0.000000 
#    y 0.000000 1.807850 0.000000 
#    z 0.000000 0.000000 1.803250 
# 
# From -- ./inp_files/28350.got.cif
#   From: 2010.03.12/outbox.cif.g09.slc.cpg/sg66_15_cif.got.tgz:28350.got - 2010.04.10 21:57:39.
