data_PCOD8277088
_publ_section_title
;
Structure prediction by ZEFSAII (Michael W. Deem and Ramdas Pophale) SiO2 
 PCOD8277088
Probable space group: C C C M
;
_chemical_formula_sum "Si O2"
_cell_formula_units_Z 96
_cell_length_a 23.311866
_cell_length_b 13.122382
_cell_length_c 15.098405
_cell_angle_alpha 90.000000
_cell_angle_beta 90.000000
_cell_angle_gamma 90.000000
_cell_volume 4618.710961
_symmetry_space_group_name_H-M "C C C M"
_symmetry_group_IT_number 66
_symmetry_cell_setting 'orthorhombic'
loop_
_space_group_symop_operation_xyz
x,y,z
-x,-y,z
x,-y,1/2-z
-x,y,1/2-z
-x,-y,-z
x,y,-z
-x,y,1/2+z
x,-y,1/2+z
1/2+x,1/2+y,z
1/2-x,1/2-y,z
1/2+x,1/2-y,1/2-z
1/2-x,1/2+y,1/2-z
1/2-x,1/2-y,-z
1/2+x,1/2+y,-z
1/2-x,1/2+y,1/2+z
1/2+x,1/2-y,1/2+z
loop_
_atom_site_type_symbol
_atom_site_label
_atom_site_fract_x
_atom_site_fract_y
_atom_site_fract_z
Si Si1 0.091051 0.526072 0.500000
Si Si2 0.508831 0.167442 0.000000
Si Si3 0.649156 0.941089 0.337812
Si Si4 0.134435 0.116173 0.737299
Si Si5 0.294324 0.659695 0.600364
Si Si6 0.768986 0.073326 0.100944
Si Si7 0.450387 0.778418 0.182555
O O1 0.048347 0.431509 0.500000
O O2 0.130107 0.521986 0.412614
O O3 0.057389 0.632690 0.500000
O O4 0.521588 0.234665 0.913931
O O5 0.706332 0.883121 0.372343
O O6 0.599169 0.862346 0.316158
O O7 0.666286 0.000000 0.250000
O O8 0.154222 0.168570 0.829247
O O9 0.183748 0.125848 0.662911
O O10 0.076280 0.170187 0.707245
O O11 0.116923 0.000000 0.750000
O O12 0.318447 0.669682 0.500000
O O13 0.250000 0.750000 0.620249
O O14 0.265358 0.549044 0.614299
O O15 0.783761 0.102792 0.000000
O O16 0.500000 0.812990 0.250000
#
# Coordination Sequence:
#
# PCOD8277088 Si02
#       7
#     8   8  16  16  16  16  16
#     4   9  18  36  57  85 129 170 196 246 303 375
#     4   9  20  40  59  84 122 161 212 257 306 358
#     4  11  21  35  61  93 129 166 199 247 313 378
#     4  10  23  41  64  88 124 162 204 270 314 362
#     4   9  19  37  59  87 123 159 200 247 302 378
#     4  10  21  38  61  95 127 161 202 247 321 390
#     4  11  25  42  61  90 118 165 221 259 306 372
#
# _framework density 20.785019999999999
#
# number of rings (size 3 to 8) (size 9 to 14) (size 15 to 20)
#    0.000    2.000    0.833    2.500    5.833    2.000 
#    1.500    0.833    0.000    1.000    0.000    0.000 
#    0.000    0.000    0.000    0.000    0.000    0.000 
#
# Total GULP energy -595306.029404 kJ/mol
# GULP energy per Si atom -12402.208946 kJ/mol
# Density = 2.073771 g / cm^3
# Si number density = 20.785020 Si / 1000 Ang^3
#
#
#
# Elastic Constant Matrix: (Units=GPa)
#
#
# Indices 1 2 3 4 5 6 
#
# 1 95.3011 24.2490 44.8529 0.0000 0.0000 0.0000
# 2 24.2490 54.9872 35.5937 0.0000 0.0000 0.0000
# 3 44.8529 35.5937 160.5948 0.0000 0.0000 0.0000
# 4 0.0000 0.0000 0.0000 17.0747 0.0000 0.0000
# 5 0.0000 0.0000 0.0000 0.0000 28.5066 0.0000
# 6 0.0000 0.0000 0.0000 0.0000 0.0000 33.5871
#
#
#
# Elastic Compliance Matrix: (Units=1/GPa)
#
#
# Indices 1 2 3 4 5 6 
#
# 1 0.012751 -0.003873 -0.002703 0.000000 0.000000 0.000000
# 2 -0.003873 0.022409 -0.003885 0.000000 0.000000 0.000000
# 3 -0.002703 -0.003885 0.007843 0.000000 0.000000 0.000000
# 4 0.000000 0.000000 0.000000 0.058566 0.000000 0.000000
# 5 0.000000 0.000000 0.000000 0.000000 0.035080 0.000000
# 6 0.000000 0.000000 0.000000 0.000000 0.000000 0.029773
#
#
# Mechanical properties :
#
#
# Convention : Reuss Voigt Hill
#
# Bulk Modulus (GPa) = 45.28916 57.80828 51.54872
# Shear Modulus (GPa) = 25.68011 29.57952 27.62981
#
# Velocity S-wave (km/s) = 3.51880 3.77652 3.64993
# Velocity P-wave (km/s) = 6.19240 6.84755 6.52820
#
# Compressibility (1/GPa) = 0.02208034
#
# Stress axis : x y z
#
# Youngs Moduli (GPa) = 78.42748 44.62516 127.50717
#
# Poissons Ratio (x) = 0.17286 0.34461
# Poissons Ratio (y) = 0.30379 0.49534
# Poissons Ratio (z) = 0.21196 0.17336
#
# Static dielectric constant tensor:
#      x y z
#    x 3.628700 0.000000 0.000000 
#    y 0.000000 3.494380 0.000000 
#    z 0.000000 0.000000 4.102220 
# 
# 
# High freq. dielectric constant tensor:
#      x y z
#    x 1.802610 0.000000 0.000000 
#    y 0.000000 1.788680 0.000000 
#    z 0.000000 0.000000 1.836710 
# 
# From -- ./inp_files/32395.got.cif
#   From: 2010.03.12/outbox.cif.g09.slc.cpg/sg66_17_cif.got.tgz:32395.got - 2010.04.10 21:57:39.
