data_PCOD8277445
_publ_section_title
;
Structure prediction by ZEFSAII (Michael W. Deem and Ramdas Pophale) SiO2 
 PCOD8277445
Probable space group: C C C M
;
_chemical_formula_sum "Si O2"
_cell_formula_units_Z 96
_cell_length_a 20.869227
_cell_length_b 14.946708
_cell_length_c 14.950743
_cell_angle_alpha 90.000000
_cell_angle_beta 90.000000
_cell_angle_gamma 90.000000
_cell_volume 4663.529081
_symmetry_space_group_name_H-M "C C C M"
_symmetry_group_IT_number 66
_symmetry_cell_setting 'orthorhombic'
loop_
_space_group_symop_operation_xyz
x,y,z
-x,-y,z
x,-y,1/2-z
-x,y,1/2-z
-x,-y,-z
x,y,-z
-x,y,1/2+z
x,-y,1/2+z
1/2+x,1/2+y,z
1/2-x,1/2-y,z
1/2+x,1/2-y,1/2-z
1/2-x,1/2+y,1/2-z
1/2-x,1/2-y,-z
1/2+x,1/2+y,-z
1/2-x,1/2+y,1/2+z
1/2+x,1/2-y,1/2+z
loop_
_atom_site_type_symbol
_atom_site_label
_atom_site_fract_x
_atom_site_fract_y
_atom_site_fract_z
Si Si1 0.177800 0.257234 0.724712
Si Si2 0.446888 0.265130 0.828708
Si Si3 0.402314 0.021491 0.500000
Si Si4 0.821634 0.910637 0.400590
Si Si5 0.932938 0.969374 0.148418
Si Si6 0.312614 0.949498 0.159288
Si Si7 0.487936 0.847944 0.500000
O O1 0.250000 0.250000 0.767550
O O2 0.122061 0.273304 0.797481
O O3 0.160690 0.170369 0.665773
O O4 0.177249 0.343132 0.661351
O O5 0.500000 0.265034 0.750000
O O6 0.430078 0.363555 0.862368
O O7 0.474397 0.208628 0.910931
O O8 0.359291 0.009835 0.413226
O O9 0.438605 0.117549 0.500000
O O10 0.448125 0.937650 0.500000
O O11 0.809193 0.871567 0.500000
O O12 0.760887 0.967083 0.366576
O O13 0.877779 0.983043 0.407567
O O14 0.925626 0.000000 0.250000
O O15 0.000000 0.000000 0.107021
O O16 0.329533 0.000000 0.250000
#
# Coordination Sequence:
#
# PCOD8277445 Si02
#       7
#    16  16   8  16  16  16   8
#     4  10  23  39  65  97 131 178 222 276 338 398
#     4  12  23  46  67  97 136 176 223 274 342 407
#     4  11  24  48  66  98 130 168 233 290 339 402
#     4  11  23  39  64  98 136 173 223 275 332 403
#     4  11  21  41  62  93 131 179 214 267 330 410
#     4  11  23  41  68  95 132 174 224 278 344 396
#     4  11  28  44  71  97 130 173 228 288 342 406
#
# _framework density 20.585269
#
# number of rings (size 3 to 8) (size 9 to 14) (size 15 to 20)
#    0.000    1.000    4.167    2.500    4.667    1.333 
#    4.500    2.083    0.000    0.000    0.000    0.000 
#    0.000    0.000    0.000    0.000    0.000    0.000 
#
# Total GULP energy -595191.097082 kJ/mol
# GULP energy per Si atom -12399.814523 kJ/mol
# Density = 2.053842 g / cm^3
# Si number density = 20.585269 Si / 1000 Ang^3
#
#
#
# Elastic Constant Matrix: (Units=GPa)
#
#
# Indices 1 2 3 4 5 6 
#
# 1 130.6146 42.5299 52.4505 0.0000 0.0000 0.0000
# 2 42.5299 104.6002 37.0063 0.0000 0.0000 0.0000
# 3 52.4505 37.0063 122.4940 0.0000 0.0000 0.0000
# 4 0.0000 0.0000 0.0000 21.7595 0.0000 0.0000
# 5 0.0000 0.0000 0.0000 0.0000 33.8665 0.0000
# 6 0.0000 0.0000 0.0000 0.0000 0.0000 31.1044
#
#
#
# Elastic Compliance Matrix: (Units=1/GPa)
#
#
# Indices 1 2 3 4 5 6 
#
# 1 0.009947 -0.002841 -0.003401 0.000000 0.000000 0.000000
# 2 -0.002841 0.011516 -0.002262 0.000000 0.000000 0.000000
# 3 -0.003401 -0.002262 0.010303 0.000000 0.000000 0.000000
# 4 0.000000 0.000000 0.000000 0.045957 0.000000 0.000000
# 5 0.000000 0.000000 0.000000 0.000000 0.029528 0.000000
# 6 0.000000 0.000000 0.000000 0.000000 0.000000 0.032150
#
#
# Mechanical properties :
#
#
# Convention : Reuss Voigt Hill
#
# Bulk Modulus (GPa) = 67.76352 69.07582 68.41967
# Shear Modulus (GPa) = 30.99267 32.39423 31.69345
#
# Velocity S-wave (km/s) = 3.88438 3.97124 3.92805
# Velocity P-wave (km/s) = 7.28751 7.39300 7.34045
#
# Compressibility (1/GPa) = 0.01475720
#
# Stress axis : x y z
#
# Youngs Moduli (GPa) = 100.53389 86.83684 97.05582
#
# Poissons Ratio (x) = 0.24672 0.33007
# Poissons Ratio (y) = 0.28564 0.21958
# Poissons Ratio (z) = 0.34190 0.19646
#
# Static dielectric constant tensor:
#      x y z
#    x 4.203540 0.000000 0.000000 
#    y 0.000000 3.951570 0.000000 
#    z 0.000000 0.000000 3.531620 
# 
# 
# High freq. dielectric constant tensor:
#      x y z
#    x 1.825350 0.000000 0.000000 
#    y 0.000000 1.809730 0.000000 
#    z 0.000000 0.000000 1.794140 
# 
# From -- ./inp_files/31223.got.cif
#   From: 2010.03.12/outbox.cif.g09.slc.cpg/sg66_16_cif.got.tgz:31223.got - 2010.04.10 21:57:39.
