data_PCOD8277130
_publ_section_title
;
Structure prediction by ZEFSAII (Michael W. Deem and Ramdas Pophale) SiO2 
 PCOD8277130
Probable space group: C C C M
;
_chemical_formula_sum "Si O2"
_cell_formula_units_Z 96
_cell_length_a 15.535659
_cell_length_b 18.195371
_cell_length_c 16.184618
_cell_angle_alpha 90.000000
_cell_angle_beta 90.000000
_cell_angle_gamma 90.000000
_cell_volume 4575.020545
_symmetry_space_group_name_H-M "C C C M"
_symmetry_group_IT_number 66
_symmetry_cell_setting 'orthorhombic'
loop_
_space_group_symop_operation_xyz
x,y,z
-x,-y,z
x,-y,1/2-z
-x,y,1/2-z
-x,-y,-z
x,y,-z
-x,y,1/2+z
x,-y,1/2+z
1/2+x,1/2+y,z
1/2-x,1/2-y,z
1/2+x,1/2-y,1/2-z
1/2-x,1/2+y,1/2-z
1/2-x,1/2-y,-z
1/2+x,1/2+y,-z
1/2-x,1/2+y,1/2+z
1/2+x,1/2-y,1/2+z
loop_
_atom_site_type_symbol
_atom_site_label
_atom_site_fract_x
_atom_site_fract_y
_atom_site_fract_z
Si Si1 0.427463 0.055689 0.905300
Si Si2 0.319236 0.692816 0.727341
Si Si3 0.031971 0.288732 0.163446
Si Si4 0.115166 0.197999 0.407732
Si Si5 0.415390 0.533790 0.092327
Si Si6 0.251495 0.536483 0.330867
O O1 0.426005 0.139725 0.875560
O O2 0.328231 0.031493 0.893814
O O3 0.500000 0.000000 0.864402
O O4 0.450774 0.056754 0.000000
O O5 0.250000 0.750000 0.695976
O O6 0.407156 0.718660 0.683429
O O7 0.321086 0.695615 0.828366
O O8 0.291354 0.615540 0.689449
O O9 0.000000 0.319784 0.250000
O O10 0.955259 0.261567 0.104413
O O11 0.158811 0.210302 0.500000
O O12 0.067802 0.120227 0.408672
O O13 0.500000 0.500000 0.136477
O O14 0.328603 0.515271 0.139769
O O15 0.406824 0.501085 0.000000
O O16 0.211366 0.500000 0.250000
#
# Coordination Sequence:
#
# PCOD8277130 Si02
#       6
#    16  16  16  16  16  16
#     4  11  26  45  67  96 131 176 228 278 331 391
#     4  11  22  41  62  95 125 165 218 269 324 390
#     4  10  22  40  67  93 130 171 219 273 325 397
#     4  10  21  39  62  90 126 167 209 260 326 393
#     4  10  21  39  63  93 130 166 207 264 329 394
#     4  12  24  40  67  97 131 175 218 275 328 396
#
# _framework density 20.983512000000001
#
# number of rings (size 3 to 8) (size 9 to 14) (size 15 to 20)
#    0.000    1.333    3.333    2.000    2.333    0.667 
#    0.000    3.333    0.000    0.000    0.000    0.000 
#    0.000    0.000    0.000    0.000    0.000    0.000 
#
# Total GULP energy -594699.460742 kJ/mol
# GULP energy per Si atom -12389.572099 kJ/mol
# Density = 2.093575 g / cm^3
# Si number density = 20.983512 Si / 1000 Ang^3
#
#
#
# Elastic Constant Matrix: (Units=GPa)
#
#
# Indices 1 2 3 4 5 6 
#
# 1 95.3202 21.2670 17.9696 0.0000 0.0000 0.0000
# 2 21.2670 92.0454 20.2427 0.0000 0.0000 0.0000
# 3 17.9696 20.2427 74.9411 0.0000 0.0000 0.0000
# 4 0.0000 0.0000 0.0000 -3.3337 0.0000 0.0000
# 5 0.0000 0.0000 0.0000 0.0000 27.8927 0.0000
# 6 0.0000 0.0000 0.0000 0.0000 0.0000 33.7886
#
#
#
# Elastic Compliance Matrix: (Units=1/GPa)
#
#
# Indices 1 2 3 4 5 6 
#
# 1 0.011377 -0.002157 -0.002145 0.000000 0.000000 0.000000
# 2 -0.002157 0.011959 -0.002713 0.000000 0.000000 0.000000
# 3 -0.002145 -0.002713 0.014591 0.000000 0.000000 0.000000
# 4 0.000000 0.000000 0.000000 -0.299964 0.000000 0.000000
# 5 0.000000 0.000000 0.000000 0.000000 0.035852 0.000000
# 6 0.000000 0.000000 0.000000 0.000000 0.000000 0.029596
#
#
# Mechanical properties :
#
#
# Convention : Reuss Voigt Hill
#
# Bulk Modulus (GPa) = 41.84744 42.36279 42.10512
# Shear Modulus (GPa) = -28.63788 25.19134 -1.72327
#
# Velocity S-wave (km/s) = -3.69830 3.46863 -0.90721
# Velocity P-wave (km/s) = 1.32278 6.02281 4.36027
#
# Compressibility (1/GPa) = 0.02389632
#
# Stress axis : x y z
#
# Youngs Moduli (GPa) = 87.89987 83.61757 68.53489
#
# Poissons Ratio (x) = 0.18034 0.14703
# Poissons Ratio (y) = 0.18958 0.18595
# Poissons Ratio (z) = 0.18858 0.22687
#
# Static dielectric constant tensor:
#      x y z
#    x 3.715400 0.000000 0.000000 
#    y 0.000000 4.165270 0.000000 
#    z 0.000000 0.000000 3.941170 
# 
# 
# High freq. dielectric constant tensor:
#      x y z
#    x 1.816350 0.000000 0.000000 
#    y 0.000000 1.832110 0.000000 
#    z 0.000000 0.000000 1.821320 
# 
# From -- ./inp_files/28324.got.cif
#   From: 2010.03.12/outbox.cif.g09.slc.cpg/sg66_15_cif.got.tgz:28324.got - 2010.04.10 21:57:39.
