data_PCOD8277372
_publ_section_title
;
Structure prediction by ZEFSAII (Michael W. Deem and Ramdas Pophale) SiO2 
 PCOD8277372
Probable space group: C C C M
;
_chemical_formula_sum "Si O2"
_cell_formula_units_Z 56
_cell_length_a 7.604834
_cell_length_b 16.278280
_cell_length_c 18.163115
_cell_angle_alpha 90.000000
_cell_angle_beta 90.000000
_cell_angle_gamma 90.000000
_cell_volume 2248.477706
_symmetry_space_group_name_H-M "C C C M"
_symmetry_group_IT_number 66
_symmetry_cell_setting 'orthorhombic'
loop_
_space_group_symop_operation_xyz
x,y,z
-x,-y,z
x,-y,1/2-z
-x,y,1/2-z
-x,-y,-z
x,y,-z
-x,y,1/2+z
x,-y,1/2+z
1/2+x,1/2+y,z
1/2-x,1/2-y,z
1/2+x,1/2-y,1/2-z
1/2-x,1/2+y,1/2-z
1/2-x,1/2-y,-z
1/2+x,1/2+y,-z
1/2-x,1/2+y,1/2+z
1/2+x,1/2-y,1/2+z
loop_
_atom_site_type_symbol
_atom_site_label
_atom_site_fract_x
_atom_site_fract_y
_atom_site_fract_z
Si Si1 0.300650 0.588059 0.226160
Si Si2 0.372692 0.930425 0.919065
Si Si3 0.047526 0.744659 0.918708
Si Si4 0.750000 0.250000 0.692138
O O1 0.216881 0.500000 0.250000
O O2 0.500000 0.592721 0.250000
O O3 0.287207 0.588527 0.137049
O O4 0.200884 0.669014 0.259150
O O5 0.498357 0.851345 0.925847
O O6 0.500000 0.000000 0.887461
O O7 0.294941 0.953221 0.000000
O O8 0.250000 0.750000 0.892659
O O9 0.915492 0.780424 0.857460
O O10 0.023398 0.786809 0.000000
#
# Coordination Sequence:
#
# PCOD8277372 Si02
#       4
#    16  16  16   8
#     4  11  26  45  66 104 145 180 235 296 357 422
#     4  10  22  43  70  98 134 185 235 289 356 424
#     4  10  22  41  66 101 139 179 233 289 345 426
#     4  12  25  40  73  98 138 194 234 282 369 424
#
# _framework density 24.905737999999999
#
# number of rings (size 3 to 8) (size 9 to 14) (size 15 to 20)
#    0.000    1.429    0.000    3.857    6.000    2.857 
#    0.000    5.714    0.000    0.000    0.000    0.000 
#    0.000    0.000    0.000    0.000    0.000    0.000 
#
# Total GULP energy -346921.383111 kJ/mol
# GULP energy per Si atom -12390.049397 kJ/mol
# Density = 2.484905 g / cm^3
# Si number density = 24.905738 Si / 1000 Ang^3
#
#
#
# Elastic Constant Matrix: (Units=GPa)
#
#
# Indices 1 2 3 4 5 6 
#
# 1 113.3805 10.9046 80.8808 0.0000 0.0000 0.0000
# 2 10.9046 142.2099 35.7703 0.0000 0.0000 0.0000
# 3 80.8808 35.7703 198.8885 0.0000 0.0000 0.0000
# 4 0.0000 0.0000 0.0000 31.0768 0.0000 0.0000
# 5 0.0000 0.0000 0.0000 0.0000 32.1699 0.0000
# 6 0.0000 0.0000 0.0000 0.0000 0.0000 22.1126
#
#
#
# Elastic Compliance Matrix: (Units=1/GPa)
#
#
# Indices 1 2 3 4 5 6 
#
# 1 0.012439 0.000334 -0.005119 0.000000 0.000000 0.000000
# 2 0.000334 0.007374 -0.001462 0.000000 0.000000 0.000000
# 3 -0.005119 -0.001462 0.007372 0.000000 0.000000 0.000000
# 4 0.000000 0.000000 0.000000 0.032178 0.000000 0.000000
# 5 0.000000 0.000000 0.000000 0.000000 0.031085 0.000000
# 6 0.000000 0.000000 0.000000 0.000000 0.000000 0.045223
#
#
# Mechanical properties :
#
#
# Convention : Reuss Voigt Hill
#
# Bulk Modulus (GPa) = 68.06469 78.84336 73.45403
# Shear Modulus (GPa) = 32.66633 38.86674 35.76653
#
# Velocity S-wave (km/s) = 3.62553 3.95467 3.79367
# Velocity P-wave (km/s) = 6.70181 7.25107 6.98184
#
# Compressibility (1/GPa) = 0.01469191
#
# Stress axis : x y z
#
# Youngs Moduli (GPa) = 80.39145 135.61180 135.64101
#
# Poissons Ratio (x) = -0.04525 0.69429
# Poissons Ratio (y) = -0.02682 0.19829
# Poissons Ratio (z) = 0.41149 0.19825
#
# Static dielectric constant tensor:
#      x y z
#    x 4.177400 0.000000 0.000000 
#    y 0.000000 5.251260 0.000000 
#    z 0.000000 0.000000 4.784840 
# 
# 
# High freq. dielectric constant tensor:
#      x y z
#    x 1.947780 0.000000 0.000000 
#    y 0.000000 2.005930 0.000000 
#    z 0.000000 0.000000 2.012590 
# 
# From -- ./inp_files/36068.got.cif
#   From: 2010.03.12/outbox.cif.g09.slc.cpg/sg66_19_cif.got.tgz:36068.got - 2010.04.10 21:57:39.
