data_PCOD8277217
_publ_section_title
;
Structure prediction by ZEFSAII (Michael W. Deem and Ramdas Pophale) SiO2 
 PCOD8277217
Probable space group: C C C M
;
_chemical_formula_sum "Si O2"
_cell_formula_units_Z 48
_cell_length_a 8.233454
_cell_length_b 15.306214
_cell_length_c 16.207263
_cell_angle_alpha 90.000000
_cell_angle_beta 90.000000
_cell_angle_gamma 90.000000
_cell_volume 2042.488049
_symmetry_space_group_name_H-M "C C C M"
_symmetry_group_IT_number 66
_symmetry_cell_setting 'orthorhombic'
loop_
_space_group_symop_operation_xyz
x,y,z
-x,-y,z
x,-y,1/2-z
-x,y,1/2-z
-x,-y,-z
x,y,-z
-x,y,1/2+z
x,-y,1/2+z
1/2+x,1/2+y,z
1/2-x,1/2-y,z
1/2+x,1/2-y,1/2-z
1/2-x,1/2+y,1/2-z
1/2-x,1/2-y,-z
1/2+x,1/2+y,-z
1/2-x,1/2+y,1/2+z
1/2+x,1/2-y,1/2+z
loop_
_atom_site_type_symbol
_atom_site_label
_atom_site_fract_x
_atom_site_fract_y
_atom_site_fract_z
Si Si1 0.190945 0.011300 0.904018
Si Si2 0.361742 0.167478 0.179458
Si Si3 0.835141 0.667709 0.406996
O O1 0.245630 0.086280 0.840601
O O2 0.277684 0.924106 0.868261
O O3 0.240304 0.030330 0.000000
O O4 0.000000 0.000000 0.896521
O O5 0.500000 0.150742 0.250000
O O6 0.250000 0.250000 0.200184
O O7 0.470838 0.181475 0.097556
O O8 0.772579 0.665979 0.500000
O O9 0.750000 0.750000 0.360911
#
# Coordination Sequence:
#
# PCOD8277217 Si02
#       3
#    16  16  16
#     4  10  22  42  70 103 133 167 219 278 334 393
#     4  12  26  43  62  91 132 176 224 271 328 395
#     4  10  21  40  67  99 132 167 213 268 325 389
#
# _framework density 23.500748999999999
#
# number of rings (size 3 to 8) (size 9 to 14) (size 15 to 20)
#    0.000    1.333    0.000    5.000    0.000   10.667 
#    0.000    1.667    0.000    0.000    0.000    0.000 
#    0.000    0.000    0.000    0.000    0.000    0.000 
#
# Total GULP energy -297380.272874 kJ/mol
# GULP energy per Si atom -12390.844703 kJ/mol
# Density = 2.344726 g / cm^3
# Si number density = 23.500749 Si / 1000 Ang^3
#
#
#
# Elastic Constant Matrix: (Units=GPa)
#
#
# Indices 1 2 3 4 5 6 
#
# 1 144.4724 69.1036 45.5072 0.0000 0.0000 0.0000
# 2 69.1036 194.5055 69.3967 0.0000 0.0000 0.0000
# 3 45.5072 69.3967 76.9539 0.0000 0.0000 0.0000
# 4 0.0000 0.0000 0.0000 -6.6042 0.0000 0.0000
# 5 0.0000 0.0000 0.0000 0.0000 42.8547 0.0000
# 6 0.0000 0.0000 0.0000 0.0000 0.0000 49.6651
#
#
#
# Elastic Compliance Matrix: (Units=1/GPa)
#
#
# Indices 1 2 3 4 5 6 
#
# 1 0.008961 -0.001906 -0.003580 0.000000 0.000000 0.000000
# 2 -0.001906 0.007986 -0.006074 0.000000 0.000000 0.000000
# 3 -0.003580 -0.006074 0.020590 0.000000 0.000000 0.000000
# 4 0.000000 0.000000 0.000000 -0.151418 0.000000 0.000000
# 5 0.000000 0.000000 0.000000 0.000000 0.023335 0.000000
# 6 0.000000 0.000000 0.000000 0.000000 0.000000 0.020135
#
#
# Mechanical properties :
#
#
# Convention : Reuss Voigt Hill
#
# Bulk Modulus (GPa) = 69.37101 87.10519 78.23810
# Shear Modulus (GPa) = -117.68644 32.64473 -42.52086
#
# Velocity S-wave (km/s) = -7.08424 3.73110 -4.25825
# Velocity P-wave (km/s) = 6.11004 7.46370 3.03102
#
# Compressibility (1/GPa) = 0.01441524
#
# Stress axis : x y z
#
# Youngs Moduli (GPa) = 111.59078 125.22384 48.56837
#
# Poissons Ratio (x) = 0.23873 0.17388
# Poissons Ratio (y) = 0.21274 0.29501
# Poissons Ratio (z) = 0.39951 0.76062
#
# Static dielectric constant tensor:
#      x y z
#    x 4.981990 0.000000 0.000000 
#    y 0.000000 4.519260 0.000000 
#    z 0.000000 0.000000 4.337730 
# 
# 
# High freq. dielectric constant tensor:
#      x y z
#    x 1.940770 0.000000 0.000000 
#    y 0.000000 1.940090 0.000000 
#    z 0.000000 0.000000 1.927970 
# 
# From -- ./inp_files/35616.got.cif
#   From: 2010.03.12/outbox.cif.g09.slc.cpg/sg66_18_cif.got.tgz:35616.got - 2010.04.10 21:57:39.
