data_PCOD8277905
_publ_section_title
;
Structure prediction by ZEFSAII (Michael W. Deem and Ramdas Pophale) SiO2 
 PCOD8277905
Probable space group: C C C M
;
_chemical_formula_sum "Si O2"
_cell_formula_units_Z 88
_cell_length_a 13.155233
_cell_length_b 14.734917
_cell_length_c 22.315930
_cell_angle_alpha 90.000000
_cell_angle_beta 90.000000
_cell_angle_gamma 90.000000
_cell_volume 4325.748131
_symmetry_space_group_name_H-M "C C C M"
_symmetry_group_IT_number 66
_symmetry_cell_setting 'orthorhombic'
loop_
_space_group_symop_operation_xyz
x,y,z
-x,-y,z
x,-y,1/2-z
-x,y,1/2-z
-x,-y,-z
x,y,-z
-x,y,1/2+z
x,-y,1/2+z
1/2+x,1/2+y,z
1/2-x,1/2-y,z
1/2+x,1/2-y,1/2-z
1/2-x,1/2+y,1/2-z
1/2-x,1/2-y,-z
1/2+x,1/2+y,-z
1/2-x,1/2+y,1/2+z
1/2+x,1/2-y,1/2+z
loop_
_atom_site_type_symbol
_atom_site_label
_atom_site_fract_x
_atom_site_fract_y
_atom_site_fract_z
Si Si1 0.293479 0.446829 0.691511
Si Si2 0.158456 0.822409 0.000000
Si Si3 0.750000 0.250000 0.303361
Si Si4 0.363381 0.393566 0.121955
Si Si5 0.881335 0.973181 0.000000
Si Si6 0.575232 0.693969 0.367435
Si Si7 0.400648 0.149841 0.717021
O O1 0.335459 0.500000 0.750000
O O2 0.333579 0.503397 0.636151
O O3 0.339132 0.347737 0.677153
O O4 0.171782 0.433726 0.697237
O O5 0.250000 0.750000 0.000000
O O6 0.097879 0.802495 0.938457
O O7 0.184023 0.931643 0.000000
O O8 0.719763 0.331036 0.347227
O O9 0.657311 0.215589 0.263352
O O10 0.474351 0.364335 0.143911
O O11 0.355877 0.400402 0.051148
O O12 0.000000 0.000000 0.000000
O O13 0.563903 0.796210 0.342808
O O14 0.500000 0.110181 0.750000
#
# Coordination Sequence:
#
# PCOD8277905 Si02
#       7
#    16   8   8  16   8  16  16
#     4  12  23  38  63  97 129 167 221 271 337 387
#     4  12  24  40  64 102 136 168 207 273 343 395
#     4  12  24  43  60  95 130 176 226 266 332 400
#     4  12  24  42  65  95 131 173 219 277 324 391
#     4  12  22  43  66  97 129 162 222 271 322 391
#     4  12  23  40  68  96 134 170 220 274 334 396
#     4  12  24  42  63  94 136 178 219 271 336 406
#
# _framework density 20.343302999999999
#
# number of rings (size 3 to 8) (size 9 to 14) (size 15 to 20)
#    0.000    0.000    9.091    1.636    0.000    1.455 
#    0.000    0.000    0.000    0.000    0.000    2.545 
#    0.000    0.000    0.000    0.000    0.000    0.000 
#
# Total GULP energy -545157.251471 kJ/mol
# GULP energy per Si atom -12389.937533 kJ/mol
# Density = 2.029700 g / cm^3
# Si number density = 20.343303 Si / 1000 Ang^3
#
#
#
# Elastic Constant Matrix: (Units=GPa)
#
#
# Indices 1 2 3 4 5 6 
#
# 1 94.0133 31.9925 38.4052 0.0000 0.0000 0.0000
# 2 31.9925 58.5893 21.9973 0.0000 0.0000 0.0000
# 3 38.4052 21.9973 122.5914 0.0000 0.0000 0.0000
# 4 0.0000 0.0000 0.0000 37.1345 0.0000 0.0000
# 5 0.0000 0.0000 0.0000 0.0000 14.2525 0.0000
# 6 0.0000 0.0000 0.0000 0.0000 0.0000 42.6800
#
#
#
# Elastic Compliance Matrix: (Units=1/GPa)
#
#
# Indices 1 2 3 4 5 6 
#
# 1 0.014194 -0.006520 -0.003277 0.000000 0.000000 0.000000
# 2 -0.006520 0.021296 -0.001779 0.000000 0.000000 0.000000
# 3 -0.003277 -0.001779 0.009503 0.000000 0.000000 0.000000
# 4 0.000000 0.000000 0.000000 0.026929 0.000000 0.000000
# 5 0.000000 0.000000 0.000000 0.000000 0.070163 0.000000
# 6 0.000000 0.000000 0.000000 0.000000 0.000000 0.023430
#
#
# Mechanical properties :
#
#
# Convention : Reuss Voigt Hill
#
# Bulk Modulus (GPa) = 45.78396 51.10935 48.44666
# Shear Modulus (GPa) = 25.51700 31.00001 28.25851
#
# Velocity S-wave (km/s) = 3.54548 3.90788 3.73108
# Velocity P-wave (km/s) = 6.27017 6.74833 6.51364
#
# Compressibility (1/GPa) = 0.02184171
#
# Stress axis : x y z
#
# Youngs Moduli (GPa) = 70.45092 46.95670 105.23157
#
# Poissons Ratio (x) = 0.30618 0.34482
# Poissons Ratio (y) = 0.45938 0.18716
# Poissons Ratio (z) = 0.23085 0.08352
#
# Static dielectric constant tensor:
#      x y z
#    x 3.676810 0.000000 0.000000 
#    y 0.000000 4.111450 0.000000 
#    z 0.000000 0.000000 4.063350 
# 
# 
# High freq. dielectric constant tensor:
#      x y z
#    x 1.779680 0.000000 0.000000 
#    y 0.000000 1.795370 0.000000 
#    z 0.000000 0.000000 1.808930 
# 
# From -- ./inp_files/56770.got.cif
#   From: 2010.03.12/outbox.cif.g09.slc.cpg/sg66_29_cif.got.tgz:56770.got - 2010.04.10 21:57:39.
