data_PCOD8277376
_publ_section_title
;
Structure prediction by ZEFSAII (Michael W. Deem and Ramdas Pophale) SiO2 
 PCOD8277376
Probable space group: C C C M
;
_chemical_formula_sum "Si O2"
_cell_formula_units_Z 96
_cell_length_a 25.931274
_cell_length_b 9.337136
_cell_length_c 19.236533
_cell_angle_alpha 90.000000
_cell_angle_beta 90.000000
_cell_angle_gamma 90.000000
_cell_volume 4657.623084
_symmetry_space_group_name_H-M "C C C M"
_symmetry_group_IT_number 66
_symmetry_cell_setting 'orthorhombic'
loop_
_space_group_symop_operation_xyz
x,y,z
-x,-y,z
x,-y,1/2-z
-x,y,1/2-z
-x,-y,-z
x,y,-z
-x,y,1/2+z
x,-y,1/2+z
1/2+x,1/2+y,z
1/2-x,1/2-y,z
1/2+x,1/2-y,1/2-z
1/2-x,1/2+y,1/2-z
1/2-x,1/2-y,-z
1/2+x,1/2+y,-z
1/2-x,1/2+y,1/2+z
1/2+x,1/2-y,1/2+z
loop_
_atom_site_type_symbol
_atom_site_label
_atom_site_fract_x
_atom_site_fract_y
_atom_site_fract_z
Si Si1 0.309926 0.771644 0.577762
Si Si2 0.983825 0.337261 0.322595
Si Si3 0.867656 0.358630 0.296981
Si Si4 0.963581 0.124704 0.081150
Si Si5 0.200621 0.848853 0.786255
Si Si6 0.152818 0.953265 0.920902
O O1 0.318755 0.834029 0.500000
O O2 0.250000 0.750000 0.592099
O O3 0.330580 0.882483 0.635830
O O4 0.340303 0.623084 0.587038
O O5 0.922631 0.320471 0.330378
O O6 0.000000 0.500000 0.322299
O O7 0.000000 0.263681 0.250000
O O8 0.016911 0.269797 0.384287
O O9 0.869563 0.500000 0.250000
O O10 0.848158 0.226045 0.250533
O O11 0.905140 0.087127 0.100103
O O12 0.971068 0.146249 0.000000
O O13 0.000000 0.000000 0.110228
O O14 0.250000 0.750000 0.776190
O O15 0.190236 0.869850 0.868245
O O16 0.211727 0.000000 0.750000
O O17 0.165956 0.905869 0.000000
#
# Coordination Sequence:
#
# PCOD8277376 Si02
#       6
#    16  16  16  16  16  16
#     4  10  22  42  67  96 133 178 225 275 336 402
#     4  11  23  43  61  92 135 173 213 269 330 386
#     4  12  24  41  68  95 133 174 224 276 328 396
#     4  10  22  41  67  97 130 171 220 276 327 389
#     4  12  26  43  67 100 133 176 222 275 337 395
#     4  10  22  42  66  97 135 174 225 277 330 399
#
# _framework density 20.611370000000001
#
# number of rings (size 3 to 8) (size 9 to 14) (size 15 to 20)
#    0.000    1.167    3.333    3.000    2.333    3.000 
#    0.000    0.833    0.000    0.000    0.000    0.000 
#    0.000    0.000    0.000    0.000    0.000    0.000 
#
# Total GULP energy -595274.148727 kJ/mol
# GULP energy per Si atom -12401.544765 kJ/mol
# Density = 2.056446 g / cm^3
# Si number density = 20.611370 Si / 1000 Ang^3
#
#
#
# Elastic Constant Matrix: (Units=GPa)
#
#
# Indices 1 2 3 4 5 6 
#
# 1 130.0397 50.5813 59.9158 0.0000 0.0000 0.0000
# 2 50.5813 89.4568 38.6248 0.0000 0.0000 0.0000
# 3 59.9158 38.6248 119.5343 0.0000 0.0000 0.0000
# 4 0.0000 0.0000 0.0000 65.5682 0.0000 0.0000
# 5 0.0000 0.0000 0.0000 0.0000 29.5218 0.0000
# 6 0.0000 0.0000 0.0000 0.0000 0.0000 34.6418
#
#
#
# Elastic Compliance Matrix: (Units=1/GPa)
#
#
# Indices 1 2 3 4 5 6 
#
# 1 0.011449 -0.004644 -0.004238 0.000000 0.000000 0.000000
# 2 -0.004644 0.014874 -0.002479 0.000000 0.000000 0.000000
# 3 -0.004238 -0.002479 0.011291 0.000000 0.000000 0.000000
# 4 0.000000 0.000000 0.000000 0.015251 0.000000 0.000000
# 5 0.000000 0.000000 0.000000 0.000000 0.033873 0.000000
# 6 0.000000 0.000000 0.000000 0.000000 0.000000 0.028867
#
#
# Mechanical properties :
#
#
# Convention : Reuss Voigt Hill
#
# Bulk Modulus (GPa) = 67.14411 70.80828 68.97620
# Shear Modulus (GPa) = 34.89390 38.60697 36.75044
#
# Velocity S-wave (km/s) = 4.11900 4.33262 4.22716
# Velocity P-wave (km/s) = 7.43428 7.71086 7.57383
#
# Compressibility (1/GPa) = 0.01489334
#
# Stress axis : x y z
#
# Youngs Moduli (GPa) = 87.34436 67.22936 88.56506
#
# Poissons Ratio (x) = 0.31219 0.37536
# Poissons Ratio (y) = 0.40559 0.21953
# Poissons Ratio (z) = 0.37019 0.16665
#
# Static dielectric constant tensor:
#      x y z
#    x 3.922630 0.000000 0.000000 
#    y 0.000000 3.678100 0.000000 
#    z 0.000000 0.000000 4.089460 
# 
# 
# High freq. dielectric constant tensor:
#      x y z
#    x 1.820200 0.000000 0.000000 
#    y 0.000000 1.788220 0.000000 
#    z 0.000000 0.000000 1.822760 
# 
# From -- ./inp_files/52994.got.cif
#   From: 2010.03.12/outbox.cif.g09.slc.cpg/sg66_27_cif.got.tgz:52994.got - 2010.04.10 21:57:39.
