data_PCOD8277214
_publ_section_title
;
Structure prediction by ZEFSAII (Michael W. Deem and Ramdas Pophale) SiO2 
 PCOD8277214
Probable space group: C C C M
;
_chemical_formula_sum "Si O2"
_cell_formula_units_Z 112
_cell_length_a 14.533446
_cell_length_b 12.667762
_cell_length_c 29.365681
_cell_angle_alpha 90.000000
_cell_angle_beta 90.000000
_cell_angle_gamma 90.000000
_cell_volume 5406.404966
_symmetry_space_group_name_H-M "C C C M"
_symmetry_group_IT_number 66
_symmetry_cell_setting 'orthorhombic'
loop_
_space_group_symop_operation_xyz
x,y,z
-x,-y,z
x,-y,1/2-z
-x,y,1/2-z
-x,-y,-z
x,y,-z
-x,y,1/2+z
x,-y,1/2+z
1/2+x,1/2+y,z
1/2-x,1/2-y,z
1/2+x,1/2-y,1/2-z
1/2-x,1/2+y,1/2-z
1/2-x,1/2-y,-z
1/2+x,1/2+y,-z
1/2-x,1/2+y,1/2+z
1/2+x,1/2-y,1/2+z
loop_
_atom_site_type_symbol
_atom_site_label
_atom_site_fract_x
_atom_site_fract_y
_atom_site_fract_z
Si Si1 0.759599 0.869750 0.948225
Si Si2 0.085454 0.943517 0.383246
Si Si3 0.553756 0.893484 0.949799
Si Si4 0.691867 0.143620 0.297816
Si Si5 0.910457 0.256045 0.779107
Si Si6 0.841707 0.036846 0.795798
Si Si7 0.963985 0.286810 0.641374
O O1 0.750000 0.750000 0.930031
O O2 0.830526 0.935134 0.917970
O O3 0.660599 0.923603 0.943632
O O4 0.796392 0.869345 0.000000
O O5 0.065101 0.834515 0.358176
O O6 0.104036 0.024511 0.342322
O O7 0.000000 0.000000 0.409260
O O8 0.515953 0.815421 0.911174
O O9 0.500000 0.000000 0.945399
O O10 0.539079 0.841014 0.000000
O O11 0.750000 0.250000 0.306421
O O12 0.640113 0.151447 0.249064
O O13 0.617400 0.139635 0.338717
O O14 0.748290 0.034121 0.298794
O O15 0.834207 0.163437 0.787795
O O16 0.000000 0.216469 0.750000
O O17 0.944836 0.301488 0.827753
O O18 0.895115 0.000000 0.750000
#
# Coordination Sequence:
#
# PCOD8277214 Si02
#       7
#    16  16  16  16  16  16  16
#     4  10  21  40  67  96 125 157 208 271 321 381
#     4  12  23  34  61  99 129 164 208 267 327 383
#     4  10  22  42  68  95 125 170 216 259 324 397
#     4  11  21  37  58  89 122 163 205 267 303 369
#     4  10  22  40  59  84 122 164 208 249 312 378
#     4  12  22  34  59  87 120 163 211 252 304 370
#     4  11  21  39  62  88 127 160 207 260 319 378
#
# _framework density 20.716170000000002
#
# number of rings (size 3 to 8) (size 9 to 14) (size 15 to 20)
#    0.000    1.143    5.714    1.714    0.000    0.286 
#    5.143    0.000    0.000    0.000    0.000    3.000 
#    0.000    0.000    0.000    0.000    0.000    0.000 
#
# Total GULP energy -693953.544481 kJ/mol
# GULP energy per Si atom -12392.027580 kJ/mol
# Density = 2.066902 g / cm^3
# Si number density = 20.716170 Si / 1000 Ang^3
#
#
#
# Elastic Constant Matrix: (Units=GPa)
#
#
# Indices 1 2 3 4 5 6 
#
# 1 98.5887 51.0946 34.4191 0.0000 0.0000 0.0000
# 2 51.0946 65.4973 35.2895 0.0000 0.0000 0.0000
# 3 34.4191 35.2895 137.0010 0.0000 0.0000 0.0000
# 4 0.0000 0.0000 0.0000 27.7752 0.0000 0.0000
# 5 0.0000 0.0000 0.0000 0.0000 29.7852 0.0000
# 6 0.0000 0.0000 0.0000 0.0000 0.0000 39.1946
#
#
#
# Elastic Compliance Matrix: (Units=1/GPa)
#
#
# Indices 1 2 3 4 5 6 
#
# 1 0.017145 -0.012835 -0.001001 0.000000 0.000000 0.000000
# 2 -0.012835 0.027337 -0.003817 0.000000 0.000000 0.000000
# 3 -0.001001 -0.003817 0.008534 0.000000 0.000000 0.000000
# 4 0.000000 0.000000 0.000000 0.036003 0.000000 0.000000
# 5 0.000000 0.000000 0.000000 0.000000 0.033574 0.000000
# 6 0.000000 0.000000 0.000000 0.000000 0.000000 0.025514
#
#
# Mechanical properties :
#
#
# Convention : Reuss Voigt Hill
#
# Bulk Modulus (GPa) = 56.46833 60.29927 58.38380
# Shear Modulus (GPa) = 26.41087 31.36993 28.89040
#
# Velocity S-wave (km/s) = 3.57444 3.89559 3.73846
# Velocity P-wave (km/s) = 6.65978 7.02885 6.84680
#
# Compressibility (1/GPa) = 0.01770904
#
# Stress axis : x y z
#
# Youngs Moduli (GPa) = 58.32743 36.58033 117.17904
#
# Poissons Ratio (x) = 0.46951 0.11731
# Poissons Ratio (y) = 0.74864 0.44728
# Poissons Ratio (z) = 0.05839 0.13963
#
# Static dielectric constant tensor:
#      x y z
#    x 2.916800 0.000000 0.000000 
#    y 0.000000 3.306820 0.000000 
#    z 0.000000 0.000000 4.053540 
# 
# 
# High freq. dielectric constant tensor:
#      x y z
#    x 1.805220 0.000000 0.000000 
#    y 0.000000 1.783800 0.000000 
#    z 0.000000 0.000000 1.821590 
# 
# From -- ./inp_files/69554.got.cif
#   From: 2010.03.12/outbox.cif.g09.slc.cpg/sg66_35_cif.got.tgz:69554.got - 2010.04.10 21:57:39.
