data_PCOD8277288
_publ_section_title
;
Structure prediction by ZEFSAII (Michael W. Deem and Ramdas Pophale) SiO2 
 PCOD8277288
Probable space group: C C C M
;
_chemical_formula_sum "Si O2"
_cell_formula_units_Z 80
_cell_length_a 11.271670
_cell_length_b 14.529818
_cell_length_c 25.457115
_cell_angle_alpha 90.000000
_cell_angle_beta 90.000000
_cell_angle_gamma 90.000000
_cell_volume 4169.246994
_symmetry_space_group_name_H-M "C C C M"
_symmetry_group_IT_number 66
_symmetry_cell_setting 'orthorhombic'
loop_
_space_group_symop_operation_xyz
x,y,z
-x,-y,z
x,-y,1/2-z
-x,y,1/2-z
-x,-y,-z
x,y,-z
-x,y,1/2+z
x,-y,1/2+z
1/2+x,1/2+y,z
1/2-x,1/2-y,z
1/2+x,1/2-y,1/2-z
1/2-x,1/2+y,1/2-z
1/2-x,1/2-y,-z
1/2+x,1/2+y,-z
1/2-x,1/2+y,1/2+z
1/2+x,1/2-y,1/2+z
loop_
_atom_site_type_symbol
_atom_site_label
_atom_site_fract_x
_atom_site_fract_y
_atom_site_fract_z
Si Si1 0.251324 0.643896 0.789160
Si Si2 0.724522 0.149067 0.668329
Si Si3 0.533344 0.100774 0.146259
Si Si4 0.794507 0.647021 0.558661
Si Si5 0.363486 0.522909 0.129137
O O1 0.250000 0.750000 0.808080
O O2 0.272520 0.635981 0.727436
O O3 0.127023 0.597597 0.805836
O O4 0.355170 0.586753 0.818510
O O5 0.750000 0.250000 0.645712
O O6 0.582830 0.149941 0.667388
O O7 0.787609 0.071227 0.633663
O O8 0.588915 0.148805 0.095114
O O9 0.500000 0.000000 0.127771
O O10 0.827207 0.613420 0.500000
O O11 0.750000 0.750000 0.557058
O O12 0.692793 0.579404 0.581009
O O13 0.500000 0.500000 0.117522
#
# Coordination Sequence:
#
# PCOD8277288 Si02
#       5
#    16  16  16  16  16
#     4  10  22  38  57  84 121 168 207 231 276 350
#     4  11  24  36  55  89 124 163 197 237 291 337
#     4  11  20  38  62  87 116 154 195 254 293 341
#     4  10  23  44  69  88 109 150 199 246 305 367
#     4  11  23  39  60  86 123 157 195 248 292 348
#
# _framework density 19.188116000000001
#
# number of rings (size 3 to 8) (size 9 to 14) (size 15 to 20)
#    0.000    1.400    4.000    3.600    5.600    3.200 
#    0.000    0.000    0.000    1.200    0.000    0.000 
#    0.000    0.000    0.000    0.000    0.000    0.000 
#
# Total GULP energy -495949.773263 kJ/mol
# GULP energy per Si atom -12398.744332 kJ/mol
# Density = 1.914444 g / cm^3
# Si number density = 19.188116 Si / 1000 Ang^3
#
#
#
# Elastic Constant Matrix: (Units=GPa)
#
#
# Indices 1 2 3 4 5 6 
#
# 1 70.0317 16.5622 8.2727 0.0000 0.0000 0.0000
# 2 16.5622 111.8779 32.2946 0.0000 0.0000 0.0000
# 3 8.2727 32.2946 67.5577 0.0000 0.0000 0.0000
# 4 0.0000 0.0000 0.0000 -18.2927 0.0000 0.0000
# 5 0.0000 0.0000 0.0000 0.0000 0.6664 0.0000
# 6 0.0000 0.0000 0.0000 0.0000 0.0000 30.2715
#
#
#
# Elastic Compliance Matrix: (Units=1/GPa)
#
#
# Indices 1 2 3 4 5 6 
#
# 1 0.014843 -0.001940 -0.000890 0.000000 0.000000 0.000000
# 2 -0.001940 0.010623 -0.004840 0.000000 0.000000 0.000000
# 3 -0.000890 -0.004840 0.017225 0.000000 0.000000 0.000000
# 4 0.000000 0.000000 0.000000 -0.054667 0.000000 0.000000
# 5 0.000000 0.000000 0.000000 0.000000 1.500489 0.000000
# 6 0.000000 0.000000 0.000000 0.000000 0.000000 0.033034
#
#
# Mechanical properties :
#
#
# Convention : Reuss Voigt Hill
#
# Bulk Modulus (GPa) = 36.56395 40.41403 38.48899
# Shear Modulus (GPa) = 3.23414 15.35158 9.29286
#
# Velocity S-wave (km/s) = 1.29967 2.83160 2.20308
# Velocity P-wave (km/s) = 4.62051 5.63900 5.15497
#
# Compressibility (1/GPa) = 0.02734934
#
# Stress axis : x y z
#
# Youngs Moduli (GPa) = 67.37053 94.13714 58.05511
#
# Poissons Ratio (x) = 0.18267 0.05167
# Poissons Ratio (y) = 0.13073 0.28101
# Poissons Ratio (z) = 0.05996 0.45566
#
# Static dielectric constant tensor:
#      x y z
#    x 3.680420 0.000000 0.000000 
#    y 0.000000 3.812820 0.000000 
#    z 0.000000 0.000000 3.443190 
# 
# 
# High freq. dielectric constant tensor:
#      x y z
#    x 1.742560 0.000000 0.000000 
#    y 0.000000 1.766140 0.000000 
#    z 0.000000 0.000000 1.726490 
# 
# From -- ./inp_files/63512.got.cif
#   From: 2010.03.12/outbox.cif.g09.slc.cpg/sg66_32_cif.got.tgz:63512.got - 2010.04.10 21:57:39.
