data_PCOD8277020
_publ_section_title
;
Structure prediction by ZEFSAII (Michael W. Deem and Ramdas Pophale) SiO2 
 PCOD8277020
Probable space group: C C C M
;
_chemical_formula_sum "Si O2"
_cell_formula_units_Z 88
_cell_length_a 33.619143
_cell_length_b 6.692757
_cell_length_c 20.293980
_cell_angle_alpha 90.000000
_cell_angle_beta 90.000000
_cell_angle_gamma 90.000000
_cell_volume 4566.241991
_symmetry_space_group_name_H-M "C C C M"
_symmetry_group_IT_number 66
_symmetry_cell_setting 'orthorhombic'
loop_
_space_group_symop_operation_xyz
x,y,z
-x,-y,z
x,-y,1/2-z
-x,y,1/2-z
-x,-y,-z
x,y,-z
-x,y,1/2+z
x,-y,1/2+z
1/2+x,1/2+y,z
1/2-x,1/2-y,z
1/2+x,1/2-y,1/2-z
1/2-x,1/2+y,1/2-z
1/2-x,1/2-y,-z
1/2+x,1/2+y,-z
1/2-x,1/2+y,1/2+z
1/2+x,1/2-y,1/2+z
loop_
_atom_site_type_symbol
_atom_site_label
_atom_site_fract_x
_atom_site_fract_y
_atom_site_fract_z
Si Si1 0.455102 0.472903 0.575756
Si Si2 0.389154 0.210957 0.639624
Si Si3 0.793875 0.828495 0.802561
Si Si4 0.830036 0.002373 0.074331
Si Si5 0.398724 0.817535 0.429367
Si Si6 0.849726 0.500000 0.250000
O O1 0.500000 0.500000 0.600687
O O2 0.452428 0.389084 0.500000
O O3 0.429600 0.335083 0.626284
O O4 0.439269 0.696697 0.578739
O O5 0.351866 0.295134 0.597976
O O6 0.397440 0.981601 0.625335
O O7 0.375888 0.177475 0.715339
O O8 0.750000 0.750000 0.789213
O O9 0.795809 0.933496 0.874926
O O10 0.822388 0.633407 0.799048
O O11 0.805523 0.000000 0.750000
O O12 0.862583 0.832476 0.076194
O O13 0.812839 0.032863 0.000000
O O14 0.397934 0.926633 0.500000
#
# Coordination Sequence:
#
# PCOD8277020 Si02
#       6
#    16  16  16  16  16   8
#     4   9  19  35  56  88 124 156 197 255 313 360
#     4  11  20  35  60  87 119 157 210 249 302 361
#     4  12  24  42  65  89 124 161 208 251 306 375
#     4  10  21  37  60  92 125 154 197 258 309 362
#     4   9  17  31  55  84 115 153 194 243 300 356
#     4  12  24  38  62  91 112 172 212 252 295 372
#
# _framework density 19.271864999999998
#
# number of rings (size 3 to 8) (size 9 to 14) (size 15 to 20)
#    0.000    1.636    4.545    2.727    0.000    1.091 
#    0.000    2.727    0.000    4.909    0.000    0.000 
#    0.000    0.000    0.000    0.000    0.000    0.000 
#
# Total GULP energy -545118.246459 kJ/mol
# GULP energy per Si atom -12389.051056 kJ/mol
# Density = 1.922800 g / cm^3
# Si number density = 19.271865 Si / 1000 Ang^3
#
#
#
# Elastic Constant Matrix: (Units=GPa)
#
#
# Indices 1 2 3 4 5 6 
#
# 1 76.6264 28.2477 31.6617 0.0000 0.0000 0.0000
# 2 28.2477 78.1271 31.0388 0.0000 0.0000 0.0000
# 3 31.6617 31.0388 105.3528 0.0000 0.0000 0.0000
# 4 0.0000 0.0000 0.0000 35.2606 0.0000 0.0000
# 5 0.0000 0.0000 0.0000 0.0000 19.5800 0.0000
# 6 0.0000 0.0000 0.0000 0.0000 0.0000 22.8503
#
#
#
# Elastic Compliance Matrix: (Units=1/GPa)
#
#
# Indices 1 2 3 4 5 6 
#
# 1 0.016149 -0.004429 -0.003548 0.000000 0.000000 0.000000
# 2 -0.004429 0.015711 -0.003298 0.000000 0.000000 0.000000
# 3 -0.003548 -0.003298 0.011530 0.000000 0.000000 0.000000
# 4 0.000000 0.000000 0.000000 0.028360 0.000000 0.000000
# 5 0.000000 0.000000 0.000000 0.000000 0.051073 0.000000
# 6 0.000000 0.000000 0.000000 0.000000 0.000000 0.043763
#
#
# Mechanical properties :
#
#
# Convention : Reuss Voigt Hill
#
# Bulk Modulus (GPa) = 47.98524 49.11141 48.54833
# Shear Modulus (GPa) = 25.49934 26.81540 26.15737
#
# Velocity S-wave (km/s) = 3.64144 3.73423 3.68813
# Velocity P-wave (km/s) = 6.52942 6.64315 6.58653
#
# Compressibility (1/GPa) = 0.02083974
#
# Stress axis : x y z
#
# Youngs Moduli (GPa) = 61.92214 63.64881 86.73118
#
# Poissons Ratio (x) = 0.28191 0.30776
# Poissons Ratio (y) = 0.27427 0.28601
# Poissons Ratio (z) = 0.21973 0.20989
#
# Static dielectric constant tensor:
#      x y z
#    x 3.393910 0.000000 0.000000 
#    y 0.000000 3.666360 0.000000 
#    z 0.000000 0.000000 3.713920 
# 
# 
# High freq. dielectric constant tensor:
#      x y z
#    x 1.730290 0.000000 0.000000 
#    y 0.000000 1.757160 0.000000 
#    z 0.000000 0.000000 1.740480 
# 
# From -- ./inp_files/60425.got.cif
#   From: 2010.03.12/outbox.cif.g09.slc.cpg/sg66_31_cif.got.tgz:60425.got - 2010.04.10 21:57:39.
