data_PCOD8277460
_publ_section_title
;
Structure prediction by ZEFSAII (Michael W. Deem and Ramdas Pophale) SiO2 
 PCOD8277460
Probable space group: C C C M
;
_chemical_formula_sum "Si O2"
_cell_formula_units_Z 88
_cell_length_a 22.740771
_cell_length_b 12.489279
_cell_length_c 14.763133
_cell_angle_alpha 90.000000
_cell_angle_beta 90.000000
_cell_angle_gamma 90.000000
_cell_volume 4192.963527
_symmetry_space_group_name_H-M "C C C M"
_symmetry_group_IT_number 66
_symmetry_cell_setting 'orthorhombic'
loop_
_space_group_symop_operation_xyz
x,y,z
-x,-y,z
x,-y,1/2-z
-x,y,1/2-z
-x,-y,-z
x,y,-z
-x,y,1/2+z
x,-y,1/2+z
1/2+x,1/2+y,z
1/2-x,1/2-y,z
1/2+x,1/2-y,1/2-z
1/2-x,1/2+y,1/2-z
1/2-x,1/2-y,-z
1/2+x,1/2+y,-z
1/2-x,1/2+y,1/2+z
1/2+x,1/2-y,1/2+z
loop_
_atom_site_type_symbol
_atom_site_label
_atom_site_fract_x
_atom_site_fract_y
_atom_site_fract_z
Si Si1 0.000452 0.328272 0.854762
Si Si2 0.906348 0.492849 0.645320
Si Si3 0.318159 0.430715 0.833694
Si Si4 0.978211 0.155470 0.000000
Si Si5 0.401329 0.463876 0.000000
Si Si6 0.250000 0.750000 0.761864
Si Si7 0.785557 0.576224 0.400406
O O1 0.952958 0.416989 0.879836
O O2 0.000000 0.296405 0.750000
O O3 0.064913 0.377271 0.879634
O O4 0.982823 0.224347 0.909560
O O5 0.890287 0.500000 0.750000
O O6 0.846836 0.513031 0.591196
O O7 0.343750 0.500000 0.750000
O O8 0.297411 0.313103 0.799921
O O9 0.262183 0.488841 0.874990
O O10 0.367755 0.423149 0.910453
O O11 0.033902 0.080345 0.000000
O O12 0.915090 0.092379 0.000000
O O13 0.212749 0.670067 0.825885
O O14 0.771080 0.623817 0.500000
#
# Coordination Sequence:
#
# PCOD8277460 Si02
#       7
#    16  16  16   8   8   8  16
#     4   9  21  40  62  92 127 167 206 258 316 384
#     4   9  19  37  61  94 133 161 199 252 326 388
#     4  10  23  45  67  90 132 168 211 270 324 379
#     4  11  26  41  65  87 123 159 224 268 307 380
#     4  11  26  47  59  91 121 169 220 267 317 366
#     4  10  23  41  64  96 130 174 220 256 320 400
#     4  11  22  38  64  99 132 167 211 270 326 384
#
# _framework density 20.987542999999999
#
# number of rings (size 3 to 8) (size 9 to 14) (size 15 to 20)
#    0.000    2.000    0.909    3.000    2.545    9.818 
#    0.000    1.818    0.000    0.000    0.000    0.000 
#    0.000    0.000    0.000    0.000    0.000    0.000 
#
# Total GULP energy -545452.801336 kJ/mol
# GULP energy per Si atom -12396.654576 kJ/mol
# Density = 2.093977 g / cm^3
# Si number density = 20.987543 Si / 1000 Ang^3
#
#
#
# Elastic Constant Matrix: (Units=GPa)
#
#
# Indices 1 2 3 4 5 6 
#
# 1 90.8559 33.9414 51.0686 0.0000 0.0000 0.0000
# 2 33.9414 105.8827 54.2590 0.0000 0.0000 0.0000
# 3 51.0686 54.2590 132.7686 0.0000 0.0000 0.0000
# 4 0.0000 0.0000 0.0000 34.7778 0.0000 0.0000
# 5 0.0000 0.0000 0.0000 0.0000 23.4321 0.0000
# 6 0.0000 0.0000 0.0000 0.0000 0.0000 27.9807
#
#
#
# Elastic Compliance Matrix: (Units=1/GPa)
#
#
# Indices 1 2 3 4 5 6 
#
# 1 0.014457 -0.002257 -0.004638 0.000000 0.000000 0.000000
# 2 -0.002257 0.012299 -0.004158 0.000000 0.000000 0.000000
# 3 -0.004638 -0.004158 0.011015 0.000000 0.000000 0.000000
# 4 0.000000 0.000000 0.000000 0.028754 0.000000 0.000000
# 5 0.000000 0.000000 0.000000 0.000000 0.042676 0.000000
# 6 0.000000 0.000000 0.000000 0.000000 0.000000 0.035739
#
#
# Mechanical properties :
#
#
# Convention : Reuss Voigt Hill
#
# Bulk Modulus (GPa) = 63.84156 67.56057 65.70107
# Shear Modulus (GPa) = 29.02454 29.92069 29.47262
#
# Velocity S-wave (km/s) = 3.72283 3.77986 3.75145
# Velocity P-wave (km/s) = 6.99743 7.16313 7.08077
#
# Compressibility (1/GPa) = 0.01566378
#
# Stress axis : x y z
#
# Youngs Moduli (GPa) = 69.17170 81.30930 90.78411
#
# Poissons Ratio (x) = 0.18355 0.42107
# Poissons Ratio (y) = 0.15615 0.37747
# Poissons Ratio (z) = 0.32083 0.33807
#
# Static dielectric constant tensor:
#      x y z
#    x 3.742930 0.000000 0.000000 
#    y 0.000000 3.924040 0.000000 
#    z 0.000000 0.000000 4.151830 
# 
# 
# High freq. dielectric constant tensor:
#      x y z
#    x 1.819020 0.000000 0.000000 
#    y 0.000000 1.813230 0.000000 
#    z 0.000000 0.000000 1.833490 
# 
# From -- ./inp_files/32244.got.cif
#   From: 2010.03.12/outbox.cif.g09.slc.cpg/sg66_17_cif.got.tgz:32244.got - 2010.04.10 21:57:39.
