data_PCOD8277935
_publ_section_title
;
Structure prediction by ZEFSAII (Michael W. Deem and Ramdas Pophale) SiO2 
 PCOD8277935
Probable space group: C M M A
;
_chemical_formula_sum "Si O2"
_cell_formula_units_Z 80
_cell_length_a 8.702197
_cell_length_b 18.675056
_cell_length_c 26.543265
_cell_angle_alpha 90.000000
_cell_angle_beta 90.000000
_cell_angle_gamma 90.000000
_cell_volume 4313.652601
_symmetry_space_group_name_H-M "C M M A"
_symmetry_group_IT_number 67
_symmetry_cell_setting 'orthorhombic'
loop_
_space_group_symop_operation_xyz
x,y,z
-x,1/2-y,z
x,-y,-z
-x,1/2+y,-z
-x,-y,-z
x,1/2+y,-z
-x,y,z
x,1/2-y,z
1/2+x,1/2+y,z
1/2-x,-y,z
1/2+x,1/2-y,-z
1/2-x,y,-z
1/2-x,1/2-y,-z
1/2+x,y,-z
1/2-x,1/2+y,z
1/2+x,-y,z
loop_
_atom_site_type_symbol
_atom_site_label
_atom_site_fract_x
_atom_site_fract_y
_atom_site_fract_z
Si Si1 0.681818 0.920245 0.550066
Si Si2 0.820417 0.421699 0.351269
Si Si3 0.676958 0.665714 0.052429
Si Si4 0.180931 0.078891 0.857753
Si Si5 0.320503 0.578093 0.242121
O O1 0.500000 0.921263 0.546909
O O2 0.750000 0.881407 0.500000
O O3 0.737921 0.880663 0.601762
O O4 0.750000 0.000000 0.551855
O O5 0.750000 0.500000 0.347058
O O6 0.792676 0.383028 0.296692
O O7 0.000000 0.427745 0.363276
O O8 0.500000 0.642074 0.053714
O O9 0.696368 0.750000 0.059399
O O10 0.768821 0.628318 0.096692
O O11 0.750000 0.640025 0.000000
O O12 0.239659 0.116552 0.805519
O O13 0.000000 0.072831 0.856595
O O14 0.250000 0.000000 0.864241
O O15 0.500000 0.572320 0.230591
O O16 0.250000 0.500000 0.245549
#
# Coordination Sequence:
#
# PCOD8277935 Si02
#       5
#    16  16  16  16  16
#     4  10  16  21  28  38  56  83 120 166 212 258
#     4   9  15  22  32  46  65  92 127 168 214 263
#     4  10  21  38  58  78 101 128 159 194 234 282
#     4  11  21  33  51  74 101 129 161 199 238 281
#     4   9  16  26  40  58  82 110 142 181 226 273
#
# _framework density 18.545767999999999
#
# number of rings (size 3 to 8) (size 9 to 14) (size 15 to 20)
#    0.000    2.200    0.000    8.400    0.000    4.000 
#    0.000    2.000    0.000    0.000    0.000    0.000 
#    0.000    0.000    0.000    0.000    0.000    1.000 
#
# Total GULP energy -495544.029560 kJ/mol
# GULP energy per Si atom -12388.600739 kJ/mol
# Density = 1.850356 g / cm^3
# Si number density = 18.545768 Si / 1000 Ang^3
#
#
#
# Elastic Constant Matrix: (Units=GPa)
#
#
# Indices 1 2 3 4 5 6 
#
# 1 177.6249 16.8681 91.3492 0.0000 0.0000 0.0000
# 2 16.8681 9.4665 23.2448 0.0000 0.0000 0.0000
# 3 91.3492 23.2448 216.7485 0.0000 0.0000 0.0000
# 4 0.0000 0.0000 0.0000 -4.1792 0.0000 0.0000
# 5 0.0000 0.0000 0.0000 0.0000 53.8531 0.0000
# 6 0.0000 0.0000 0.0000 0.0000 0.0000 13.2429
#
#
#
# Elastic Compliance Matrix: (Units=1/GPa)
#
#
# Indices 1 2 3 4 5 6 
#
# 1 0.007578 -0.007685 -0.002370 0.000000 0.000000 0.000000
# 2 -0.007685 0.151190 -0.012975 0.000000 0.000000 0.000000
# 3 -0.002370 -0.012975 0.007004 0.000000 0.000000 0.000000
# 4 0.000000 0.000000 0.000000 -0.239282 0.000000 0.000000
# 5 0.000000 0.000000 0.000000 0.000000 0.018569 0.000000
# 6 0.000000 0.000000 0.000000 0.000000 0.000000 0.075512
#
#
# Mechanical properties :
#
#
# Convention : Reuss Voigt Hill
#
# Bulk Modulus (GPa) = 8.35335 74.08492 41.21914
# Shear Modulus (GPa) = 46.93300 30.74188 38.83744
#
# Velocity S-wave (km/s) = 5.03602 4.07581 4.58114
# Velocity P-wave (km/s) = 6.19107 7.88565 7.08917
#
# Compressibility (1/GPa) = 0.11971241
#
# Stress axis : x y z
#
# Youngs Moduli (GPa) = 131.95466 6.61420 142.77740
#
# Poissons Ratio (x) = 0.05083 0.33835
# Poissons Ratio (y) = 1.01404 1.85258
# Poissons Ratio (z) = 0.31270 0.08582
#
# Static dielectric constant tensor:
#      x y z
#    x 3.703620 0.000000 0.000000 
#    y 0.000000 2.613030 0.000000 
#    z 0.000000 0.000000 5.186400 
# 
# 
# High freq. dielectric constant tensor:
#      x y z
#    x 1.743440 0.000000 0.000000 
#    y 0.000000 1.615940 0.000000 
#    z 0.000000 0.000000 1.764390 
# 
# From -- ./inp_files/43233.got.cif
#   From: 2010.03.12/outbox.cif.g09.slc.cpg/sg67_22_cif.got.tgz:43233.got - 2010.04.10 22:41:39.
