data_PCOD8277366
_publ_section_title
;
Structure prediction by ZEFSAII (Michael W. Deem and Ramdas Pophale) SiO2 
 PCOD8277366
Probable space group: C C C M
;
_chemical_formula_sum "Si O2"
_cell_formula_units_Z 96
_cell_length_a 20.655725
_cell_length_b 16.799389
_cell_length_c 14.074359
_cell_angle_alpha 90.000000
_cell_angle_beta 90.000000
_cell_angle_gamma 90.000000
_cell_volume 4883.852669
_symmetry_space_group_name_H-M "C C C M"
_symmetry_group_IT_number 66
_symmetry_cell_setting 'orthorhombic'
loop_
_space_group_symop_operation_xyz
x,y,z
-x,-y,z
x,-y,1/2-z
-x,y,1/2-z
-x,-y,-z
x,y,-z
-x,y,1/2+z
x,-y,1/2+z
1/2+x,1/2+y,z
1/2-x,1/2-y,z
1/2+x,1/2-y,1/2-z
1/2-x,1/2+y,1/2-z
1/2-x,1/2-y,-z
1/2+x,1/2+y,-z
1/2-x,1/2+y,1/2+z
1/2+x,1/2-y,1/2+z
loop_
_atom_site_type_symbol
_atom_site_label
_atom_site_fract_x
_atom_site_fract_y
_atom_site_fract_z
Si Si1 0.718966 0.833550 0.107420
Si Si2 0.020369 0.590825 0.109765
Si Si3 0.675481 0.544459 0.838507
Si Si4 0.592830 0.837709 0.223263
Si Si5 0.482527 0.370640 0.000000
Si Si6 0.437668 0.337218 0.802842
Si Si7 0.898030 0.971652 0.500000
O O1 0.750000 0.750000 0.139562
O O2 0.772934 0.901606 0.107206
O O3 0.663085 0.857752 0.181101
O O4 0.691389 0.826152 0.000000
O O5 0.081014 0.612549 0.179069
O O6 0.000000 0.500000 0.123818
O O7 0.959915 0.643145 0.142801
O O8 0.038738 0.608930 0.000000
O O9 0.708996 0.500000 0.750000
O O10 0.618076 0.598046 0.796582
O O11 0.647757 0.476394 0.907934
O O12 0.586812 0.744008 0.245837
O O13 0.460251 0.318844 0.910388
O O14 0.444943 0.453267 0.000000
O O15 0.559798 0.390277 0.000000
O O16 0.500000 0.373405 0.750000
#
# Coordination Sequence:
#
# PCOD8277366 Si02
#       7
#    16  16  16  16   8  16   8
#     4  11  23  39  63  87 117 159 204 253 296 349
#     4  10  22  41  64  91 121 151 190 253 317 368
#     4  11  22  37  60  83 122 155 199 245 291 351
#     4  11  21  36  63  91 121 148 203 247 300 357
#     4   9  20  30  55  78 123 154 193 236 280 348
#     4  11  21  34  55  91 118 157 195 238 298 349
#     4   9  18  38  50  83 114 158 197 233 286 336
#
# _framework density 19.656613
#
# number of rings (size 3 to 8) (size 9 to 14) (size 15 to 20)
#    0.000    1.500    4.167    2.500    2.333    3.000 
#    0.000    0.000    1.833    0.500    0.000    0.000 
#    0.000    0.000    0.000    0.000    0.000    0.000 
#
# Total GULP energy -595158.847011 kJ/mol
# GULP energy per Si atom -12399.142646 kJ/mol
# Density = 1.961187 g / cm^3
# Si number density = 19.656613 Si / 1000 Ang^3
#
#
#
# Elastic Constant Matrix: (Units=GPa)
#
#
# Indices 1 2 3 4 5 6 
#
# 1 90.2631 5.8652 35.9509 0.0000 0.0000 0.0000
# 2 5.8652 54.7442 26.9783 0.0000 0.0000 0.0000
# 3 35.9509 26.9783 136.9578 0.0000 0.0000 0.0000
# 4 0.0000 0.0000 0.0000 14.5533 0.0000 0.0000
# 5 0.0000 0.0000 0.0000 0.0000 31.8274 0.0000
# 6 0.0000 0.0000 0.0000 0.0000 0.0000 22.1944
#
#
#
# Elastic Compliance Matrix: (Units=1/GPa)
#
#
# Indices 1 2 3 4 5 6 
#
# 1 0.012377 0.000305 -0.003309 0.000000 0.000000 0.000000
# 2 0.000305 0.020238 -0.004067 0.000000 0.000000 0.000000
# 3 -0.003309 -0.004067 0.008971 0.000000 0.000000 0.000000
# 4 0.000000 0.000000 0.000000 0.068713 0.000000 0.000000
# 5 0.000000 0.000000 0.000000 0.000000 0.031420 0.000000
# 6 0.000000 0.000000 0.000000 0.000000 0.000000 0.045056
#
#
# Mechanical properties :
#
#
# Convention : Reuss Voigt Hill
#
# Bulk Modulus (GPa) = 36.43718 46.61712 41.52715
# Shear Modulus (GPa) = 23.80220 27.92639 25.86429
#
# Velocity S-wave (km/s) = 3.48357 3.77332 3.63134
# Velocity P-wave (km/s) = 5.89555 6.53844 6.22530
#
# Compressibility (1/GPa) = 0.02744449
#
# Stress axis : x y z
#
# Youngs Moduli (GPa) = 80.79618 49.41163 111.46879
#
# Poissons Ratio (x) = -0.01505 0.36884
# Poissons Ratio (y) = -0.02461 0.45329
# Poissons Ratio (z) = 0.26734 0.20093
#
# Static dielectric constant tensor:
#      x y z
#    x 3.497730 0.000000 0.000000 
#    y 0.000000 3.552280 0.000000 
#    z 0.000000 0.000000 3.688750 
# 
# 
# High freq. dielectric constant tensor:
#      x y z
#    x 1.748500 0.000000 0.000000 
#    y 0.000000 1.757390 0.000000 
#    z 0.000000 0.000000 1.770400 
# 
# From -- ./inp_files/31242.got.cif
#   From: 2010.03.12/outbox.cif.g09.slc.cpg/sg66_16_cif.got.tgz:31242.got - 2010.04.10 21:57:39.
