data_PCOD8277899
_publ_section_title
;
Structure prediction by ZEFSAII (Michael W. Deem and Ramdas Pophale) SiO2 
 PCOD8277899
Probable space group: C C C M
;
_chemical_formula_sum "Si O2"
_cell_formula_units_Z 64
_cell_length_a 13.570877
_cell_length_b 21.917142
_cell_length_c 9.774713
_cell_angle_alpha 90.000000
_cell_angle_beta 90.000000
_cell_angle_gamma 90.000000
_cell_volume 2907.340180
_symmetry_space_group_name_H-M "C C C M"
_symmetry_group_IT_number 66
_symmetry_cell_setting 'orthorhombic'
loop_
_space_group_symop_operation_xyz
x,y,z
-x,-y,z
x,-y,1/2-z
-x,y,1/2-z
-x,-y,-z
x,y,-z
-x,y,1/2+z
x,-y,1/2+z
1/2+x,1/2+y,z
1/2-x,1/2-y,z
1/2+x,1/2-y,1/2-z
1/2-x,1/2+y,1/2-z
1/2-x,1/2-y,-z
1/2+x,1/2+y,-z
1/2-x,1/2+y,1/2+z
1/2+x,1/2-y,1/2+z
loop_
_atom_site_type_symbol
_atom_site_label
_atom_site_fract_x
_atom_site_fract_y
_atom_site_fract_z
Si Si1 0.830073 0.500000 0.750000
Si Si2 0.185509 0.010231 0.500000
Si Si3 0.583688 0.880193 0.658409
Si Si4 0.131791 0.121982 0.000000
Si Si5 0.592850 0.643756 0.500000
Si Si6 0.277756 0.317712 0.261039
O O1 0.757973 0.506522 0.624733
O O2 0.901234 0.557965 0.745344
O O3 0.114632 0.951121 0.500000
O O4 0.122218 0.072218 0.500000
O O5 0.500000 0.845759 0.750000
O O6 0.551169 0.890221 0.500000
O O7 0.684250 0.842844 0.657385
O O8 0.195461 0.141559 0.130739
O O9 0.024616 0.152335 0.000000
O O10 0.631245 0.679165 0.366239
O O11 0.250000 0.250000 0.212503
#
# Coordination Sequence:
#
# PCOD8277899 Si02
#       6
#     8   8  16   8   8  16
#     4  12  21  42  69  94 142 182 221 282 359 408
#     4  12  21  42  73 102 140 180 225 292 363 420
#     4  12  27  44  70 102 135 183 234 287 355 414
#     4  12  26  43  77 106 139 178 238 292 346 432
#     4  12  24  47  73 106 137 186 232 286 366 412
#     4  12  26  49  69  98 145 186 229 290 347 414
#
# _framework density 22.013247
#
# number of rings (size 3 to 8) (size 9 to 14) (size 15 to 20)
#    0.000    0.000    7.500    2.250    3.500    3.000 
#    0.000    3.750    0.000    0.000    0.000    0.000 
#    0.000    0.000    0.000    0.000    0.000    0.000 
#
# Total GULP energy -396790.462144 kJ/mol
# GULP energy per Si atom -12399.701942 kJ/mol
# Density = 2.196314 g / cm^3
# Si number density = 22.013247 Si / 1000 Ang^3
#
#
#
# Elastic Constant Matrix: (Units=GPa)
#
#
# Indices 1 2 3 4 5 6 
#
# 1 100.3879 5.8864 22.3520 0.0000 0.0000 0.0000
# 2 5.8864 97.0685 3.4367 0.0000 0.0000 0.0000
# 3 22.3520 3.4367 118.2627 0.0000 0.0000 0.0000
# 4 0.0000 0.0000 0.0000 1.6809 0.0000 0.0000
# 5 0.0000 0.0000 0.0000 0.0000 35.2092 0.0000
# 6 0.0000 0.0000 0.0000 0.0000 0.0000 15.1110
#
#
#
# Elastic Compliance Matrix: (Units=1/GPa)
#
#
# Indices 1 2 3 4 5 6 
#
# 1 0.010430 -0.000563 -0.001955 0.000000 0.000000 0.000000
# 2 -0.000563 0.010343 -0.000194 0.000000 0.000000 0.000000
# 3 -0.001955 -0.000194 0.008831 0.000000 0.000000 0.000000
# 4 0.000000 0.000000 0.000000 0.594904 0.000000 0.000000
# 5 0.000000 0.000000 0.000000 0.000000 0.028402 0.000000
# 6 0.000000 0.000000 0.000000 0.000000 0.000000 0.066177
#
#
# Mechanical properties :
#
#
# Convention : Reuss Voigt Hill
#
# Bulk Modulus (GPa) = 41.35807 42.11882 41.73845
# Shear Modulus (GPa) = 6.82528 29.33650 18.08089
#
# Velocity S-wave (km/s) = 1.76274 3.65454 2.86905
# Velocity P-wave (km/s) = 4.79287 6.08132 5.47513
#
# Compressibility (1/GPa) = 0.02417908
#
# Stress axis : x y z
#
# Youngs Moduli (GPa) = 95.88050 96.68340 113.23917
#
# Poissons Ratio (x) = 0.05446 0.22137
# Poissons Ratio (y) = 0.05401 0.02198
# Poissons Ratio (z) = 0.18743 0.01877
#
# Static dielectric constant tensor:
#      x y z
#    x 3.995370 0.000000 0.000000 
#    y 0.000000 4.178380 0.000000 
#    z 0.000000 0.000000 3.990560 
# 
# 
# High freq. dielectric constant tensor:
#      x y z
#    x 1.874720 0.000000 0.000000 
#    y 0.000000 1.859580 0.000000 
#    z 0.000000 0.000000 1.880210 
# 
# From -- ./inp_files/5143.got.cif
#   From: 2010.03.12/outbox.cif.g09.slc.cpg/sg66_3_cif.got.tgz:5143.got - 2010.04.10 21:57:39.
