data_PCOD8277951
_publ_section_title
;
Structure prediction by ZEFSAII (Michael W. Deem and Ramdas Pophale) SiO2 
 PCOD8277951
Probable space group: C M M A
;
_chemical_formula_sum "Si O2"
_cell_formula_units_Z 56
_cell_length_a 15.010675
_cell_length_b 8.693313
_cell_length_c 20.223891
_cell_angle_alpha 90.000000
_cell_angle_beta 90.000000
_cell_angle_gamma 90.000000
_cell_volume 2639.066018
_symmetry_space_group_name_H-M "C M M A"
_symmetry_group_IT_number 67
_symmetry_cell_setting 'orthorhombic'
loop_
_space_group_symop_operation_xyz
x,y,z
-x,1/2-y,z
x,-y,-z
-x,1/2+y,-z
-x,-y,-z
x,1/2+y,-z
-x,y,z
x,1/2-y,z
1/2+x,1/2+y,z
1/2-x,-y,z
1/2+x,1/2-y,-z
1/2-x,y,-z
1/2-x,1/2-y,-z
1/2+x,y,-z
1/2-x,1/2+y,z
1/2+x,-y,z
loop_
_atom_site_type_symbol
_atom_site_label
_atom_site_fract_x
_atom_site_fract_y
_atom_site_fract_z
Si Si1 0.000000 0.931515 0.427635
Si Si2 0.846188 0.927769 0.805684
Si Si3 0.849290 0.931809 0.065664
Si Si4 0.652198 0.570797 0.340392
O O1 0.000000 0.750000 0.431703
O O2 0.000000 0.000000 0.500000
O O3 0.088567 0.986009 0.391037
O O4 0.838519 0.750000 0.824996
O O5 0.890473 0.949962 0.733513
O O6 0.750000 0.000000 0.798372
O O7 0.898193 0.013465 0.866215
O O8 0.848805 0.750000 0.060956
O O9 0.750000 0.000000 0.068520
O O10 0.897469 0.000000 0.000000
O O11 0.657841 0.750000 0.358431
O O12 0.750000 0.500000 0.346444
#
# Coordination Sequence:
#
# PCOD8277951 Si02
#       4
#     8  16  16  16
#     4  12  26  44  66  92 123 156 195 240 290 350
#     4   9  16  27  45  70 102 140 183 231 281 336
#     4  10  16  22  34  56  92 135 181 231 282 334
#     4  10  21  39  63  91 123 158 198 243 294 350
#
# _framework density 21.219626999999999
#
# number of rings (size 3 to 8) (size 9 to 14) (size 15 to 20)
#    0.000    2.000    0.000    8.143    0.000    4.000 
#    0.000    2.857    0.000    0.000    0.000    1.000 
#    0.000    0.000    0.000    0.857    0.000    0.000 
#
# Total GULP energy -346941.137562 kJ/mol
# GULP energy per Si atom -12390.754913 kJ/mol
# Density = 2.117133 g / cm^3
# Si number density = 21.219627 Si / 1000 Ang^3
#
#
#
# Elastic Constant Matrix: (Units=GPa)
#
#
# Indices 1 2 3 4 5 6 
#
# 1 64.8970 38.1788 51.1047 0.0000 0.0000 0.0000
# 2 38.1788 218.7085 105.0625 0.0000 0.0000 0.0000
# 3 51.1047 105.0625 206.1634 0.0000 0.0000 0.0000
# 4 0.0000 0.0000 0.0000 40.8943 0.0000 0.0000
# 5 0.0000 0.0000 0.0000 0.0000 -152.9261 0.0000
# 6 0.0000 0.0000 0.0000 0.0000 0.0000 20.1020
#
#
#
# Elastic Compliance Matrix: (Units=1/GPa)
#
#
# Indices 1 2 3 4 5 6 
#
# 1 0.019479 -0.001431 -0.004099 0.000000 0.000000 0.000000
# 2 -0.001431 0.006160 -0.002784 0.000000 0.000000 0.000000
# 3 -0.004099 -0.002784 0.007286 0.000000 0.000000 0.000000
# 4 0.000000 0.000000 0.000000 0.024453 0.000000 0.000000
# 5 0.000000 0.000000 0.000000 0.000000 -0.006539 0.000000
# 6 0.000000 0.000000 0.000000 0.000000 0.000000 0.049746
#
#
# Mechanical properties :
#
#
# Convention : Reuss Voigt Hill
#
# Bulk Modulus (GPa) = 61.36882 97.60677 79.48779
# Shear Modulus (GPa) = 40.76794 1.30890 21.03842
#
# Velocity S-wave (km/s) = 4.38795 0.78624 3.15216
# Velocity P-wave (km/s) = 7.39295 6.85000 7.12664
#
# Compressibility (1/GPa) = 0.01629492
#
# Stress axis : x y z
#
# Youngs Moduli (GPa) = 51.33728 162.34817 137.25878
#
# Poissons Ratio (x) = 0.23235 0.56265
# Poissons Ratio (y) = 0.07347 0.38216
# Poissons Ratio (z) = 0.21044 0.45201
#
# Static dielectric constant tensor:
#      x y z
#    x 3.285470 0.000000 0.000000 
#    y 0.000000 3.960050 0.000000 
#    z 0.000000 0.000000 5.235090 
# 
# 
# High freq. dielectric constant tensor:
#      x y z
#    x 1.780020 0.000000 0.000000 
#    y 0.000000 1.849960 0.000000 
#    z 0.000000 0.000000 1.860670 
# 
# From -- ./inp_files/36512.got.cif
#   From: 2010.03.12/outbox.cif.g09.slc.cpg/sg67_19_cif.got.tgz:36512.got - 2010.04.10 22:41:39.
