data_PCOD8277296
_publ_section_title
;
Structure prediction by ZEFSAII (Michael W. Deem and Ramdas Pophale) SiO2 
 PCOD8277296
Probable space group: C C C M
;
_chemical_formula_sum "Si O2"
_cell_formula_units_Z 96
_cell_length_a 21.341621
_cell_length_b 11.930394
_cell_length_c 18.933717
_cell_angle_alpha 90.000000
_cell_angle_beta 90.000000
_cell_angle_gamma 90.000000
_cell_volume 4820.788419
_symmetry_space_group_name_H-M "C C C M"
_symmetry_group_IT_number 66
_symmetry_cell_setting 'orthorhombic'
loop_
_space_group_symop_operation_xyz
x,y,z
-x,-y,z
x,-y,1/2-z
-x,y,1/2-z
-x,-y,-z
x,y,-z
-x,y,1/2+z
x,-y,1/2+z
1/2+x,1/2+y,z
1/2-x,1/2-y,z
1/2+x,1/2-y,1/2-z
1/2-x,1/2+y,1/2-z
1/2-x,1/2-y,-z
1/2+x,1/2+y,-z
1/2-x,1/2+y,1/2+z
1/2+x,1/2-y,1/2+z
loop_
_atom_site_type_symbol
_atom_site_label
_atom_site_fract_x
_atom_site_fract_y
_atom_site_fract_z
Si Si1 0.115640 0.121965 0.419148
Si Si2 0.997602 0.869627 0.166753
Si Si3 0.820321 0.265335 0.818302
Si Si4 0.306095 0.411192 0.081752
Si Si5 0.626716 0.758889 0.829450
Si Si6 0.310225 0.010983 0.830117
O O1 0.104604 0.153671 0.500000
O O2 0.058366 0.174250 0.374207
O O3 0.174902 0.186168 0.386520
O O4 0.131934 0.990300 0.410372
O O5 0.000000 0.858448 0.250000
O O6 0.939289 0.791582 0.142686
O O7 0.000000 0.000000 0.143382
O O8 0.750000 0.250000 0.789485
O O9 0.864138 0.226187 0.752773
O O10 0.839473 0.389345 0.845611
O O11 0.319633 0.295419 0.121645
O O12 0.246035 0.468298 0.116360
O O13 0.291422 0.387742 0.000000
O O14 0.635530 0.893633 0.837061
O O15 0.283640 0.000000 0.750000
#
# Coordination Sequence:
#
# PCOD8277296 Si02
#       6
#    16  16  16  16  16  16
#     4  11  24  39  61  94 126 162 210 258 311 382
#     4  11  22  39  64  88 117 160 208 258 312 373
#     4  11  21  39  64  90 126 166 210 259 314 387
#     4  11  23  38  60  94 133 164 203 265 324 383
#     4  11  22  38  63  92 123 160 211 264 317 374
#     4  10  22  38  61  92 124 165 208 258 317 378
#
# _framework density 19.913754999999998
#
# number of rings (size 3 to 8) (size 9 to 14) (size 15 to 20)
#    0.000    1.167    5.000    2.500    0.000    3.333 
#    0.000    0.833    0.000    1.000    0.000    0.000 
#    0.000    0.000    0.000    0.000    0.000    0.000 
#
# Total GULP energy -594824.734325 kJ/mol
# GULP energy per Si atom -12392.181965 kJ/mol
# Density = 1.986843 g / cm^3
# Si number density = 19.913755 Si / 1000 Ang^3
#
#
#
# Elastic Constant Matrix: (Units=GPa)
#
#
# Indices 1 2 3 4 5 6 
#
# 1 75.0731 21.9306 22.8752 0.0000 0.0000 0.0000
# 2 21.9306 109.5363 43.3892 0.0000 0.0000 0.0000
# 3 22.8752 43.3892 99.9793 0.0000 0.0000 0.0000
# 4 0.0000 0.0000 0.0000 15.6336 0.0000 0.0000
# 5 0.0000 0.0000 0.0000 0.0000 27.3101 0.0000
# 6 0.0000 0.0000 0.0000 0.0000 0.0000 30.5825
#
#
#
# Elastic Compliance Matrix: (Units=1/GPa)
#
#
# Indices 1 2 3 4 5 6 
#
# 1 0.014652 -0.001939 -0.002511 0.000000 0.000000 0.000000
# 2 -0.001939 0.011281 -0.004452 0.000000 0.000000 0.000000
# 3 -0.002511 -0.004452 0.012509 0.000000 0.000000 0.000000
# 4 0.000000 0.000000 0.000000 0.063965 0.000000 0.000000
# 5 0.000000 0.000000 0.000000 0.000000 0.036616 0.000000
# 6 0.000000 0.000000 0.000000 0.000000 0.000000 0.032698
#
#
# Mechanical properties :
#
#
# Convention : Reuss Voigt Hill
#
# Bulk Modulus (GPa) = 48.45483 51.21986 49.83735
# Shear Modulus (GPa) = 25.45765 27.79816 26.62790
#
# Velocity S-wave (km/s) = 3.57934 3.74026 3.66069
# Velocity P-wave (km/s) = 6.43952 6.66554 6.55351
#
# Compressibility (1/GPa) = 0.02063778
#
# Stress axis : x y z
#
# Youngs Moduli (GPa) = 68.25092 88.64318 79.94412
#
# Poissons Ratio (x) = 0.17187 0.20073
# Poissons Ratio (y) = 0.13233 0.35593
# Poissons Ratio (z) = 0.17137 0.39466
#
# Static dielectric constant tensor:
#      x y z
#    x 3.454540 0.000000 0.000000 
#    y 0.000000 3.812820 0.000000 
#    z 0.000000 0.000000 3.495220 
# 
# 
# High freq. dielectric constant tensor:
#      x y z
#    x 1.759640 0.000000 0.000000 
#    y 0.000000 1.777400 0.000000 
#    z 0.000000 0.000000 1.772760 
# 
# From -- ./inp_files/38816.got.cif
#   From: 2010.03.12/outbox.cif.g09.slc.cpg/sg66_20_cif.got.tgz:38816.got - 2010.04.10 21:57:39.
