data_PCOD8277821
_publ_section_title
;
Structure prediction by ZEFSAII (Michael W. Deem and Ramdas Pophale) SiO2 
 PCOD8277821
Probable space group: C C C M
;
_chemical_formula_sum "Si O2"
_cell_formula_units_Z 80
_cell_length_a 14.667233
_cell_length_b 14.978051
_cell_length_c 17.093336
_cell_angle_alpha 90.000000
_cell_angle_beta 90.000000
_cell_angle_gamma 90.000000
_cell_volume 3755.176251
_symmetry_space_group_name_H-M "C C C M"
_symmetry_group_IT_number 66
_symmetry_cell_setting 'orthorhombic'
loop_
_space_group_symop_operation_xyz
x,y,z
-x,-y,z
x,-y,1/2-z
-x,y,1/2-z
-x,-y,-z
x,y,-z
-x,y,1/2+z
x,-y,1/2+z
1/2+x,1/2+y,z
1/2-x,1/2-y,z
1/2+x,1/2-y,1/2-z
1/2-x,1/2+y,1/2-z
1/2-x,1/2-y,-z
1/2+x,1/2+y,-z
1/2-x,1/2+y,1/2+z
1/2+x,1/2-y,1/2+z
loop_
_atom_site_type_symbol
_atom_site_label
_atom_site_fract_x
_atom_site_fract_y
_atom_site_fract_z
Si Si1 0.581059 0.068889 0.089943
Si Si2 0.942460 0.087510 0.908805
Si Si3 0.987706 0.269604 0.341161
Si Si4 0.735670 0.506599 0.659148
Si Si5 0.693081 0.835552 0.084947
O O1 0.556120 0.170332 0.108640
O O2 0.500000 0.000000 0.110390
O O3 0.665065 0.047535 0.146040
O O4 0.610680 0.060971 0.000000
O O5 0.992751 0.167539 0.863657
O O6 0.839387 0.070458 0.880576
O O7 0.941909 0.110739 0.000000
O O8 0.000000 0.000000 0.889497
O O9 0.887158 0.306309 0.358051
O O10 0.000000 0.283388 0.250000
O O11 0.712258 0.500000 0.750000
O O12 0.738255 0.407614 0.622379
O O13 0.750000 0.750000 0.065748
O O14 0.655149 0.871333 0.000000
#
# Coordination Sequence:
#
# PCOD8277821 Si02
#       5
#    16  16  16  16  16
#     4  11  23  43  71  99 135 178 229 287 346 411
#     4  11  26  47  71  99 138 186 231 277 341 415
#     4  12  26  42  69 102 141 177 228 283 351 406
#     4  12  26  42  69 102 141 177 228 283 351 406
#     4  11  23  43  71  97 128 178 237 281 327 404
#
# _framework density 21.303926000000001
#
# number of rings (size 3 to 8) (size 9 to 14) (size 15 to 20)
#    0.000    0.600    2.000    6.000    5.600    4.000 
#    0.000    2.000    0.000    0.000    0.000    0.000 
#    0.000    0.000    0.000    0.000    0.000    0.000 
#
# Total GULP energy -496070.383461 kJ/mol
# GULP energy per Si atom -12401.759587 kJ/mol
# Density = 2.125544 g / cm^3
# Si number density = 21.303926 Si / 1000 Ang^3
#
#
#
# Elastic Constant Matrix: (Units=GPa)
#
#
# Indices 1 2 3 4 5 6 
#
# 1 61.8335 5.3634 26.5425 0.0000 0.0000 0.0000
# 2 5.3634 109.3548 31.4693 0.0000 0.0000 0.0000
# 3 26.5425 31.4693 116.9134 0.0000 0.0000 0.0000
# 4 0.0000 0.0000 0.0000 21.6513 0.0000 0.0000
# 5 0.0000 0.0000 0.0000 0.0000 29.8213 0.0000
# 6 0.0000 0.0000 0.0000 0.0000 0.0000 38.2891
#
#
#
# Elastic Compliance Matrix: (Units=1/GPa)
#
#
# Indices 1 2 3 4 5 6 
#
# 1 0.017929 0.000317 -0.004156 0.000000 0.000000 0.000000
# 2 0.000317 0.009918 -0.002741 0.000000 0.000000 0.000000
# 3 -0.004156 -0.002741 0.010235 0.000000 0.000000 0.000000
# 4 0.000000 0.000000 0.000000 0.046187 0.000000 0.000000
# 5 0.000000 0.000000 0.000000 0.000000 0.033533 0.000000
# 6 0.000000 0.000000 0.000000 0.000000 0.000000 0.026117
#
#
# Mechanical properties :
#
#
# Convention : Reuss Voigt Hill
#
# Bulk Modulus (GPa) = 40.12763 46.09469 43.11116
# Shear Modulus (GPa) = 30.23232 32.93411 31.58321
#
# Velocity S-wave (km/s) = 3.77118 3.93608 3.85451
# Velocity P-wave (km/s) = 6.15134 6.50697 6.33165
#
# Compressibility (1/GPa) = 0.02492049
#
# Stress axis : x y z
#
# Youngs Moduli (GPa) = 55.77622 100.82745 97.70719
#
# Poissons Ratio (x) = -0.03191 0.40602
# Poissons Ratio (y) = -0.01765 0.26786
# Poissons Ratio (z) = 0.23178 0.27641
#
# Static dielectric constant tensor:
#      x y z
#    x 3.900790 0.000000 0.000000 
#    y 0.000000 4.164960 0.000000 
#    z 0.000000 0.000000 3.859580 
# 
# 
# High freq. dielectric constant tensor:
#      x y z
#    x 1.838050 0.000000 0.000000 
#    y 0.000000 1.849810 0.000000 
#    z 0.000000 0.000000 1.848690 
# 
# From -- ./inp_files/40201.got.cif
#   From: 2010.03.12/outbox.cif.g09.slc.cpg/sg66_21_cif.got.tgz:40201.got - 2010.04.10 21:57:39.
