data_PCOD8277971
_publ_section_title
;
Structure prediction by ZEFSAII (Michael W. Deem and Ramdas Pophale) SiO2 
 PCOD8277971
Probable space group: C M M A
;
_chemical_formula_sum "Si O2"
_cell_formula_units_Z 72
_cell_length_a 20.360543
_cell_length_b 18.812283
_cell_length_c 11.300583
_cell_angle_alpha 90.000000
_cell_angle_beta 90.000000
_cell_angle_gamma 90.000000
_cell_volume 4328.443061
_symmetry_space_group_name_H-M "C M M A"
_symmetry_group_IT_number 67
_symmetry_cell_setting 'orthorhombic'
loop_
_space_group_symop_operation_xyz
x,y,z
-x,1/2-y,z
x,-y,-z
-x,1/2+y,-z
-x,-y,-z
x,1/2+y,-z
-x,y,z
x,1/2-y,z
1/2+x,1/2+y,z
1/2-x,-y,z
1/2+x,1/2-y,-z
1/2-x,y,-z
1/2-x,1/2-y,-z
1/2+x,y,-z
1/2-x,1/2+y,z
1/2+x,-y,z
loop_
_atom_site_type_symbol
_atom_site_label
_atom_site_fract_x
_atom_site_fract_y
_atom_site_fract_z
Si Si1 0.750000 0.373994 0.500000
Si Si2 0.752166 0.168262 0.863967
Si Si3 0.307591 0.052544 0.285007
Si Si4 0.925821 0.470589 0.367802
Si Si5 0.645776 0.671691 0.322813
O O1 0.705212 0.424998 0.419990
O O2 0.703685 0.325329 0.580174
O O3 0.773855 0.250000 0.849859
O O4 0.808097 0.120639 0.801157
O O5 0.680806 0.155035 0.803258
O O6 0.750000 0.145397 0.000000
O O7 0.250000 0.000000 0.241443
O O8 0.378091 0.014197 0.280368
O O9 0.918995 0.500000 0.500000
O O10 0.907622 0.387122 0.358258
O O11 0.000000 0.480069 0.322028
O O12 0.612324 0.750000 0.320006
#
# Coordination Sequence:
#
# PCOD8277971 Si02
#       5
#     8  16  16  16  16
#     4  10  16  28  50  76 100 124 162 210 254 302
#     4   9  19  33  52  79 104 128 164 212 259 296
#     4  11  17  31  53  75 101 131 166 207 252 300
#     4  11  21  34  49  72 108 141 167 204 252 303
#     4  10  19  31  50  74 101 132 167 208 255 308
#
# _framework density 16.634156000000001
#
# number of rings (size 3 to 8) (size 9 to 14) (size 15 to 20)
#    0.000    1.778    6.667    0.667    0.000    1.778 
#    0.000    0.000    0.000    3.333    0.000    3.111 
#    0.000    0.000    0.000    0.000    0.000    0.000 
#
# Total GULP energy -446256.006263 kJ/mol
# GULP energy per Si atom -12396.000174 kJ/mol
# Density = 1.659630 g / cm^3
# Si number density = 16.634156 Si / 1000 Ang^3
#
#
#
# Elastic Constant Matrix: (Units=GPa)
#
#
# Indices 1 2 3 4 5 6 
#
# 1 114.3579 55.3948 32.1313 0.0000 0.0000 0.0000
# 2 55.3948 118.4203 42.7977 0.0000 0.0000 0.0000
# 3 32.1313 42.7977 92.6135 0.0000 0.0000 0.0000
# 4 0.0000 0.0000 0.0000 19.3735 0.0000 0.0000
# 5 0.0000 0.0000 0.0000 0.0000 8.5395 0.0000
# 6 0.0000 0.0000 0.0000 0.0000 0.0000 12.2110
#
#
#
# Elastic Compliance Matrix: (Units=1/GPa)
#
#
# Indices 1 2 3 4 5 6 
#
# 1 0.011555 -0.004750 -0.001814 0.000000 0.000000 0.000000
# 2 -0.004750 0.012090 -0.003939 0.000000 0.000000 0.000000
# 3 -0.001814 -0.003939 0.013247 0.000000 0.000000 0.000000
# 4 0.000000 0.000000 0.000000 0.051617 0.000000 0.000000
# 5 0.000000 0.000000 0.000000 0.000000 0.117103 0.000000
# 6 0.000000 0.000000 0.000000 0.000000 0.000000 0.081894
#
#
# Mechanical properties :
#
#
# Convention : Reuss Voigt Hill
#
# Bulk Modulus (GPa) = 62.94587 65.11547 64.03067
# Shear Modulus (GPa) = 15.93343 21.02933 18.48138
#
# Velocity S-wave (km/s) = 3.09831 3.55945 3.33686
# Velocity P-wave (km/s) = 7.12200 7.49157 7.30912
#
# Compressibility (1/GPa) = 0.01588667
#
# Stress axis : x y z
#
# Youngs Moduli (GPa) = 86.54383 82.71415 75.48777
#
# Poissons Ratio (x) = 0.39285 0.13694
# Poissons Ratio (y) = 0.41104 0.29735
# Poissons Ratio (z) = 0.15699 0.32581
#
# Static dielectric constant tensor:
#      x y z
#    x 2.890630 0.000000 0.000000 
#    y 0.000000 3.299510 0.000000 
#    z 0.000000 0.000000 3.046180 
# 
# 
# High freq. dielectric constant tensor:
#      x y z
#    x 1.602720 0.000000 0.000000 
#    y 0.000000 1.659160 0.000000 
#    z 0.000000 0.000000 1.623510 
# 
# From -- ./inp_files/20749.got.cif
#   From: 2010.03.12/outbox.cif.g09.slc.cpg/sg67_11_cif.got.tgz:20749.got - 2010.04.10 22:41:39.
