data_PCOD8277402
_publ_section_title
;
Structure prediction by ZEFSAII (Michael W. Deem and Ramdas Pophale) SiO2 
 PCOD8277402
Probable space group: C C C M
;
_chemical_formula_sum "Si O2"
_cell_formula_units_Z 96
_cell_length_a 11.519343
_cell_length_b 22.444611
_cell_length_c 18.579391
_cell_angle_alpha 90.000000
_cell_angle_beta 90.000000
_cell_angle_gamma 90.000000
_cell_volume 4803.649012
_symmetry_space_group_name_H-M "C C C M"
_symmetry_group_IT_number 66
_symmetry_cell_setting 'orthorhombic'
loop_
_space_group_symop_operation_xyz
x,y,z
-x,-y,z
x,-y,1/2-z
-x,y,1/2-z
-x,-y,-z
x,y,-z
-x,y,1/2+z
x,-y,1/2+z
1/2+x,1/2+y,z
1/2-x,1/2-y,z
1/2+x,1/2-y,1/2-z
1/2-x,1/2+y,1/2-z
1/2-x,1/2-y,-z
1/2+x,1/2+y,-z
1/2-x,1/2+y,1/2+z
1/2+x,1/2-y,1/2+z
loop_
_atom_site_type_symbol
_atom_site_label
_atom_site_fract_x
_atom_site_fract_y
_atom_site_fract_z
Si Si1 0.693261 0.926734 0.183494
Si Si2 0.415155 0.553772 0.916276
Si Si3 0.435187 0.629156 0.674020
Si Si4 0.167636 0.440324 0.344222
Si Si5 0.384722 0.735397 0.420900
Si Si6 0.028317 0.363224 0.082044
O O1 0.832086 0.919979 0.176239
O O2 0.662700 0.910566 0.265652
O O3 0.638034 0.879815 0.130014
O O4 0.634188 0.989996 0.162669
O O5 0.500000 0.500000 0.894131
O O6 0.478604 0.613027 0.890686
O O7 0.295568 0.553718 0.874595
O O8 0.387696 0.554326 0.000000
O O9 0.500000 0.631101 0.750000
O O10 0.396611 0.694414 0.649576
O O11 0.087517 0.398422 0.393567
O O12 0.414381 0.706854 0.500000
O O13 0.250000 0.750000 0.422872
O O14 0.473478 0.791562 0.411088
O O15 0.051954 0.382427 0.000000
#
# Coordination Sequence:
#
# PCOD8277402 Si02
#       6
#    16  16  16  16  16  16
#     4  11  23  39  65  92 131 169 214 265 328 394
#     4  11  23  38  62  93 129 170 213 263 322 391
#     4  12  23  40  65  97 126 168 221 274 319 391
#     4  11  23  41  62  95 134 170 208 265 333 399
#     4  10  22  43  67  91 126 171 220 274 330 391
#     4  11  24  42  65  93 129 170 218 272 327 392
#
# _framework density 19.984807
#
# number of rings (size 3 to 8) (size 9 to 14) (size 15 to 20)
#    0.000    1.000    5.000    2.000    0.000    5.667 
#    0.000    0.833    0.000    3.000    0.000    0.000 
#    0.000    0.000    0.000    0.000    0.000    0.000 
#
# Total GULP energy -594707.503113 kJ/mol
# GULP energy per Si atom -12389.739648 kJ/mol
# Density = 1.993932 g / cm^3
# Si number density = 19.984807 Si / 1000 Ang^3
#
#
#
# Elastic Constant Matrix: (Units=GPa)
#
#
# Indices 1 2 3 4 5 6 
#
# 1 77.4345 32.2813 43.9864 0.0000 0.0000 0.0000
# 2 32.2813 76.0839 54.2452 0.0000 0.0000 0.0000
# 3 43.9864 54.2452 99.7244 0.0000 0.0000 0.0000
# 4 0.0000 0.0000 0.0000 37.7789 0.0000 0.0000
# 5 0.0000 0.0000 0.0000 0.0000 57.5972 0.0000
# 6 0.0000 0.0000 0.0000 0.0000 0.0000 27.9760
#
#
#
# Elastic Compliance Matrix: (Units=1/GPa)
#
#
# Indices 1 2 3 4 5 6 
#
# 1 0.017688 -0.003173 -0.006076 0.000000 0.000000 0.000000
# 2 -0.003173 0.022039 -0.010589 0.000000 0.000000 0.000000
# 3 -0.006076 -0.010589 0.018467 0.000000 0.000000 0.000000
# 4 0.000000 0.000000 0.000000 0.026470 0.000000 0.000000
# 5 0.000000 0.000000 0.000000 0.000000 0.017362 0.000000
# 6 0.000000 0.000000 0.000000 0.000000 0.000000 0.035745
#
#
# Mechanical properties :
#
#
# Convention : Reuss Voigt Hill
#
# Bulk Modulus (GPa) = 53.99713 57.14094 55.56904
# Shear Modulus (GPa) = 27.23021 32.85242 30.04132
#
# Velocity S-wave (km/s) = 3.69527 4.05886 3.88133
# Velocity P-wave (km/s) = 6.72937 7.11478 6.92476
#
# Compressibility (1/GPa) = 0.01851950
#
# Stress axis : x y z
#
# Youngs Moduli (GPa) = 56.53431 45.37434 54.14962
#
# Poissons Ratio (x) = 0.14397 0.32902
# Poissons Ratio (y) = 0.17938 0.57337
# Poissons Ratio (z) = 0.34351 0.48045
#
# Static dielectric constant tensor:
#      x y z
#    x 3.578750 0.000000 0.000000 
#    y 0.000000 3.767170 0.000000 
#    z 0.000000 0.000000 3.756450 
# 
# 
# High freq. dielectric constant tensor:
#      x y z
#    x 1.781760 0.000000 0.000000 
#    y 0.000000 1.768740 0.000000 
#    z 0.000000 0.000000 1.797080 
# 
# From -- ./inp_files/38821.got.cif
#   From: 2010.03.12/outbox.cif.g09.slc.cpg/sg66_20_cif.got.tgz:38821.got - 2010.04.10 21:57:39.
