data_PCOD8277596
_publ_section_title
;
Structure prediction by ZEFSAII (Michael W. Deem and Ramdas Pophale) SiO2 
 PCOD8277596
Probable space group: C C C M
;
_chemical_formula_sum "Si O2"
_cell_formula_units_Z 80
_cell_length_a 25.294519
_cell_length_b 22.009597
_cell_length_c 9.658208
_cell_angle_alpha 90.000000
_cell_angle_beta 90.000000
_cell_angle_gamma 90.000000
_cell_volume 5376.938511
_symmetry_space_group_name_H-M "C C C M"
_symmetry_group_IT_number 66
_symmetry_cell_setting 'orthorhombic'
loop_
_space_group_symop_operation_xyz
x,y,z
-x,-y,z
x,-y,1/2-z
-x,y,1/2-z
-x,-y,-z
x,y,-z
-x,y,1/2+z
x,-y,1/2+z
1/2+x,1/2+y,z
1/2-x,1/2-y,z
1/2+x,1/2-y,1/2-z
1/2-x,1/2+y,1/2-z
1/2-x,1/2-y,-z
1/2+x,1/2+y,-z
1/2-x,1/2+y,1/2+z
1/2+x,1/2-y,1/2+z
loop_
_atom_site_type_symbol
_atom_site_label
_atom_site_fract_x
_atom_site_fract_y
_atom_site_fract_z
Si Si1 0.618085 0.619217 0.269471
Si Si2 0.046003 0.080302 0.500000
Si Si3 0.225982 0.940183 0.840882
Si Si4 0.425342 0.439916 0.000000
Si Si5 0.775135 0.655125 0.156316
Si Si6 0.832736 0.771175 0.846292
O O1 0.566700 0.613486 0.363754
O O2 0.669683 0.593286 0.345200
O O3 0.624698 0.691773 0.244215
O O4 0.608824 0.581047 0.130307
O O5 0.983401 0.088852 0.500000
O O6 0.067688 0.011908 0.500000
O O7 0.271336 0.899280 0.767091
O O8 0.220657 0.000000 0.750000
O O9 0.242627 0.954078 0.000000
O O10 0.819231 0.703612 0.210702
O O11 0.719447 0.688330 0.148021
O O12 0.789099 0.631887 0.000000
O O13 0.856079 0.764140 0.000000
#
# Coordination Sequence:
#
# PCOD8277596 Si02
#       6
#    16   8  16   8  16  16
#     4  11  20  32  46  63  79 109 147 186 219 259
#     4  11  22  34  42  65  80 108 143 190 231 259
#     4  11  21  30  43  64  88 113 142 176 213 251
#     4  11  22  34  48  53  84 112 145 182 231 271
#     4   8  15  28  45  62  82 107 137 170 207 250
#     4   8  14  28  46  62  79 106 138 171 211 256
#
# _framework density 14.878355000000001
#
# number of rings (size 3 to 8) (size 9 to 14) (size 15 to 20)
#    0.000    2.200    2.000    4.200    2.800    1.600 
#    1.800    2.000    0.000    0.000    0.000    0.000 
#    0.000    0.000    0.000    0.000    0.000    6.000 
#
# Total GULP energy -495736.673014 kJ/mol
# GULP energy per Si atom -12393.416825 kJ/mol
# Density = 1.484449 g / cm^3
# Si number density = 14.878355 Si / 1000 Ang^3
#
#
#
# Elastic Constant Matrix: (Units=GPa)
#
#
# Indices 1 2 3 4 5 6 
#
# 1 36.4731 28.3794 18.1639 0.0000 0.0000 0.0000
# 2 28.3794 55.6380 27.2067 0.0000 0.0000 0.0000
# 3 18.1639 27.2067 92.8186 0.0000 0.0000 0.0000
# 4 0.0000 0.0000 0.0000 39.9030 0.0000 0.0000
# 5 0.0000 0.0000 0.0000 0.0000 13.9492 0.0000
# 6 0.0000 0.0000 0.0000 0.0000 0.0000 25.0140
#
#
#
# Elastic Compliance Matrix: (Units=1/GPa)
#
#
# Indices 1 2 3 4 5 6 
#
# 1 0.045942 -0.022223 -0.002477 0.000000 0.000000 0.000000
# 2 -0.022223 0.031730 -0.004952 0.000000 0.000000 0.000000
# 3 -0.002477 -0.004952 0.012710 0.000000 0.000000 0.000000
# 4 0.000000 0.000000 0.000000 0.025061 0.000000 0.000000
# 5 0.000000 0.000000 0.000000 0.000000 0.071689 0.000000
# 6 0.000000 0.000000 0.000000 0.000000 0.000000 0.039978
#
#
# Mechanical properties :
#
#
# Convention : Reuss Voigt Hill
#
# Bulk Modulus (GPa) = 32.17549 36.93663 34.55606
# Shear Modulus (GPa) = 16.84801 23.18522 20.01662
#
# Velocity S-wave (km/s) = 3.36874 3.95184 3.67188
# Velocity P-wave (km/s) = 6.06662 6.76035 6.42286
#
# Compressibility (1/GPa) = 0.03107956
#
# Stress axis : x y z
#
# Youngs Moduli (GPa) = 21.76654 31.51604 78.67935
#
# Poissons Ratio (x) = 0.70037 0.19486
# Poissons Ratio (y) = 0.48371 0.38960
# Poissons Ratio (z) = 0.05391 0.15606
#
# Static dielectric constant tensor:
#      x y z
#    x 2.660440 0.000000 0.000000 
#    y 0.000000 3.030200 0.000000 
#    z 0.000000 0.000000 2.925160 
# 
# 
# High freq. dielectric constant tensor:
#      x y z
#    x 1.518490 0.000000 0.000000 
#    y 0.000000 1.555040 0.000000 
#    z 0.000000 0.000000 1.578320 
# 
# From -- ./inp_files/7712.got.cif
#   From: 2010.03.12/outbox.cif.g09.slc.cpg/sg66_4_cif.got.tgz:7712.got - 2010.04.10 21:57:39.
