data_PCOD8277949
_publ_section_title
;
Structure prediction by ZEFSAII (Michael W. Deem and Ramdas Pophale) SiO2 
 PCOD8277949
Probable space group: C M M A
;
_chemical_formula_sum "Si O2"
_cell_formula_units_Z 80
_cell_length_a 8.702643
_cell_length_b 15.359748
_cell_length_c 29.880093
_cell_angle_alpha 90.000000
_cell_angle_beta 90.000000
_cell_angle_gamma 90.000000
_cell_volume 3994.084085
_symmetry_space_group_name_H-M "C M M A"
_symmetry_group_IT_number 67
_symmetry_cell_setting 'orthorhombic'
loop_
_space_group_symop_operation_xyz
x,y,z
-x,1/2-y,z
x,-y,-z
-x,1/2+y,-z
-x,-y,-z
x,1/2+y,-z
-x,y,z
x,1/2-y,z
1/2+x,1/2+y,z
1/2-x,-y,z
1/2+x,1/2-y,-z
1/2-x,y,-z
1/2-x,1/2-y,-z
1/2+x,y,-z
1/2-x,1/2+y,z
1/2+x,-y,z
loop_
_atom_site_type_symbol
_atom_site_label
_atom_site_fract_x
_atom_site_fract_y
_atom_site_fract_z
Si Si1 0.679109 0.905462 0.269536
Si Si2 0.179049 0.094518 0.368226
Si Si3 0.817886 0.250000 0.108725
Si Si4 0.816170 0.250000 0.209308
Si Si5 0.182915 0.908382 0.951823
Si Si6 0.318181 0.597037 0.544448
O O1 0.500000 0.918491 0.262075
O O2 0.709089 0.864221 0.319241
O O3 0.747061 0.836393 0.234116
O O4 0.750000 0.000000 0.261614
O O5 0.262833 0.145113 0.409568
O O6 0.000000 0.089483 0.379738
O O7 0.250000 0.000000 0.364558
O O8 0.750786 0.250000 0.158906
O O9 0.760039 0.335841 0.083090
O O10 0.000000 0.250000 0.110405
O O11 0.000000 0.250000 0.210702
O O12 0.000000 0.913922 0.955247
O O13 0.250000 0.000000 0.934919
O O14 0.250000 0.883318 0.000000
O O15 0.500000 0.596196 0.541483
O O16 0.250000 0.500000 0.546194
O O17 0.250000 0.644174 0.500000
#
# Coordination Sequence:
#
# PCOD8277949 Si02
#       6
#    16  16   8   8  16  16
#     4   9  18  32  53  74  98 130 168 210 255 302
#     4   9  15  24  38  60  85 115 153 194 237 289
#     4   9  19  33  52  76 106 139 175 214 259 307
#     4   9  18  35  54  76 103 137 174 210 256 315
#     4  10  19  33  53  79 107 141 178 217 257 303
#     4  10  16  22  33  53  83 118 150 189 236 288
#
# _framework density 20.029623000000001
#
# number of rings (size 3 to 8) (size 9 to 14) (size 15 to 20)
#    0.000    2.600    0.000    5.700    0.000    1.600 
#    0.000    2.000    0.000    3.600    0.000    0.700 
#    0.000    0.000    0.000    0.600    0.000    0.000 
#
# Total GULP energy -495639.482178 kJ/mol
# GULP energy per Si atom -12390.987054 kJ/mol
# Density = 1.998403 g / cm^3
# Si number density = 20.029623 Si / 1000 Ang^3
#
#
#
# Elastic Constant Matrix: (Units=GPa)
#
#
# Indices 1 2 3 4 5 6 
#
# 1 99.3459 30.9787 54.0773 0.0000 0.0000 0.0000
# 2 30.9787 105.6431 89.8328 0.0000 0.0000 0.0000
# 3 54.0773 89.8328 195.3878 0.0000 0.0000 0.0000
# 4 0.0000 0.0000 0.0000 -17.7115 0.0000 0.0000
# 5 0.0000 0.0000 0.0000 0.0000 11.7251 0.0000
# 6 0.0000 0.0000 0.0000 0.0000 0.0000 11.3335
#
#
#
# Elastic Compliance Matrix: (Units=1/GPa)
#
#
# Indices 1 2 3 4 5 6 
#
# 1 0.011934 -0.001134 -0.002781 0.000000 0.000000 0.000000
# 2 -0.001134 0.015650 -0.006881 0.000000 0.000000 0.000000
# 3 -0.002781 -0.006881 0.009052 0.000000 0.000000 0.000000
# 4 0.000000 0.000000 0.000000 -0.056460 0.000000 0.000000
# 5 0.000000 0.000000 0.000000 0.000000 0.085287 0.000000
# 6 0.000000 0.000000 0.000000 0.000000 0.000000 0.088234
#
#
# Mechanical properties :
#
#
# Convention : Reuss Voigt Hill
#
# Bulk Modulus (GPa) = 66.48441 83.35047 74.91744
# Shear Modulus (GPa) = 27.73101 16.10196 21.91648
#
# Velocity S-wave (km/s) = 3.72492 2.83840 3.31146
# Velocity P-wave (km/s) = 7.19480 7.24196 7.21842
#
# Compressibility (1/GPa) = 0.01504112
#
# Stress axis : x y z
#
# Youngs Moduli (GPa) = 83.79769 63.89766 110.47706
#
# Poissons Ratio (x) = 0.07248 0.30727
# Poissons Ratio (y) = 0.09505 0.76024
# Poissons Ratio (z) = 0.23307 0.43971
#
# Static dielectric constant tensor:
#      x y z
#    x 3.463190 0.000000 0.000000 
#    y 0.000000 3.408410 0.000000 
#    z 0.000000 0.000000 4.731320 
# 
# 
# High freq. dielectric constant tensor:
#      x y z
#    x 1.766950 0.000000 0.000000 
#    y 0.000000 1.748940 0.000000 
#    z 0.000000 0.000000 1.798860 
# 
# From -- ./inp_files/43375.got.cif
#   From: 2010.03.12/outbox.cif.g09.slc.cpg/sg67_22_cif.got.tgz:43375.got - 2010.04.10 22:41:39.
