data_PCOD8277079
_publ_section_title
;
Structure prediction by ZEFSAII (Michael W. Deem and Ramdas Pophale) SiO2 
 PCOD8277079
Probable space group: C C C M
;
_chemical_formula_sum "Si O2"
_cell_formula_units_Z 84
_cell_length_a 15.079063
_cell_length_b 14.977465
_cell_length_c 18.759583
_cell_angle_alpha 90.000000
_cell_angle_beta 90.000000
_cell_angle_gamma 90.000000
_cell_volume 4236.779377
_symmetry_space_group_name_H-M "C C C M"
_symmetry_group_IT_number 66
_symmetry_cell_setting 'orthorhombic'
loop_
_space_group_symop_operation_xyz
x,y,z
-x,-y,z
x,-y,1/2-z
-x,y,1/2-z
-x,-y,-z
x,y,-z
-x,y,1/2+z
x,-y,1/2+z
1/2+x,1/2+y,z
1/2-x,1/2-y,z
1/2+x,1/2-y,1/2-z
1/2-x,1/2+y,1/2-z
1/2-x,1/2-y,-z
1/2+x,1/2+y,-z
1/2-x,1/2+y,1/2+z
1/2+x,1/2-y,1/2+z
loop_
_atom_site_type_symbol
_atom_site_label
_atom_site_fract_x
_atom_site_fract_y
_atom_site_fract_z
Si Si1 0.072161 0.568707 0.083702
Si Si2 0.734142 0.997881 0.671768
Si Si3 0.488081 0.263106 0.415265
Si Si4 0.500000 0.500000 0.750000
Si Si5 0.875802 0.139770 0.678045
Si Si6 0.171280 0.182880 0.673398
O O1 0.164645 0.533880 0.113569
O O2 0.000000 0.500000 0.110237
O O3 0.036042 0.663386 0.111170
O O4 0.085071 0.571614 0.000000
O O5 0.806671 0.920856 0.676127
O O6 0.688247 0.000000 0.750000
O O7 0.783288 0.092070 0.652286
O O8 0.493770 0.271624 0.500000
O O9 0.581765 0.297938 0.383606
O O10 0.406363 0.318845 0.384675
O O11 0.442599 0.561358 0.698139
O O12 0.860121 0.205999 0.745905
O O13 0.250000 0.250000 0.649661
#
# Coordination Sequence:
#
# PCOD8277079 Si02
#       6
#    16  16  16   4  16  16
#     4  10  23  43  61  83 124 165 203 258 316 366
#     4  10  21  38  61  90 119 157 207 257 306 368
#     4  11  23  38  61  92 125 163 204 250 311 382
#     4  12  16  36  62  80 120 164 186 252 312 364
#     4  11  21  38  62  88 125 162 203 255 317 373
#     4  11  20  36  61  89 120 155 203 259 308 358
#
# _framework density 19.826378999999999
#
# number of rings (size 3 to 8) (size 9 to 14) (size 15 to 20)
#    0.000    1.333    6.667    0.000    0.000    5.333 
#    3.429    3.333    0.000    4.000    0.000    0.000 
#    0.000    0.000    0.000    0.000    0.000    0.000 
#
# Total GULP energy -520536.618197 kJ/mol
# GULP energy per Si atom -12393.729005 kJ/mol
# Density = 1.978125 g / cm^3
# Si number density = 19.826379 Si / 1000 Ang^3
#
#
#
# Elastic Constant Matrix: (Units=GPa)
#
#
# Indices 1 2 3 4 5 6 
#
# 1 72.8055 35.1103 44.0929 0.0000 0.0000 0.0000
# 2 35.1103 65.5111 24.6768 0.0000 0.0000 0.0000
# 3 44.0929 24.6768 64.2934 0.0000 0.0000 0.0000
# 4 0.0000 0.0000 0.0000 28.9245 0.0000 0.0000
# 5 0.0000 0.0000 0.0000 0.0000 47.8438 0.0000
# 6 0.0000 0.0000 0.0000 0.0000 0.0000 36.7062
#
#
#
# Elastic Compliance Matrix: (Units=1/GPa)
#
#
# Indices 1 2 3 4 5 6 
#
# 1 0.027275 -0.008852 -0.015308 0.000000 0.000000 0.000000
# 2 -0.008852 0.020717 -0.001881 0.000000 0.000000 0.000000
# 3 -0.015308 -0.001881 0.026774 0.000000 0.000000 0.000000
# 4 0.000000 0.000000 0.000000 0.034573 0.000000 0.000000
# 5 0.000000 0.000000 0.000000 0.000000 0.020901 0.000000
# 6 0.000000 0.000000 0.000000 0.000000 0.000000 0.027243
#
#
# Mechanical properties :
#
#
# Convention : Reuss Voigt Hill
#
# Bulk Modulus (GPa) = 44.08241 45.59667 44.83954
# Shear Modulus (GPa) = 23.02811 29.27689 26.15250
#
# Velocity S-wave (km/s) = 3.41176 3.84691 3.63585
# Velocity P-wave (km/s) = 6.14838 6.54060 6.34752
#
# Compressibility (1/GPa) = 0.02268478
#
# Stress axis : x y z
#
# Youngs Moduli (GPa) = 36.66393 48.26925 37.34976
#
# Poissons Ratio (x) = 0.42726 0.57175
# Poissons Ratio (y) = 0.32453 0.07026
# Poissons Ratio (z) = 0.56125 0.09080
#
# Static dielectric constant tensor:
#      x y z
#    x 2.239910 0.000000 0.000000 
#    y 0.000000 3.839150 0.000000 
#    z 0.000000 0.000000 3.487720 
# 
# 
# High freq. dielectric constant tensor:
#      x y z
#    x 1.774910 0.000000 0.000000 
#    y 0.000000 1.780480 0.000000 
#    z 0.000000 0.000000 1.757260 
# 
# From -- ./inp_files/49838.got.cif
#   From: 2010.03.12/outbox.cif.g09.slc.cpg/sg66_25_cif.got.tgz:49838.got - 2010.04.10 21:57:39.
