data_PCOD8277774
_publ_section_title
;
Structure prediction by ZEFSAII (Michael W. Deem and Ramdas Pophale) SiO2 
 PCOD8277774
Probable space group: C C C M
;
_chemical_formula_sum "Si O2"
_cell_formula_units_Z 96
_cell_length_a 9.631588
_cell_length_b 22.118558
_cell_length_c 21.988118
_cell_angle_alpha 90.000000
_cell_angle_beta 90.000000
_cell_angle_gamma 90.000000
_cell_volume 4684.279128
_symmetry_space_group_name_H-M "C C C M"
_symmetry_group_IT_number 66
_symmetry_cell_setting 'orthorhombic'
loop_
_space_group_symop_operation_xyz
x,y,z
-x,-y,z
x,-y,1/2-z
-x,y,1/2-z
-x,-y,-z
x,y,-z
-x,y,1/2+z
x,-y,1/2+z
1/2+x,1/2+y,z
1/2-x,1/2-y,z
1/2+x,1/2-y,1/2-z
1/2-x,1/2+y,1/2-z
1/2-x,1/2-y,-z
1/2+x,1/2+y,-z
1/2-x,1/2+y,1/2+z
1/2+x,1/2-y,1/2+z
loop_
_atom_site_type_symbol
_atom_site_label
_atom_site_fract_x
_atom_site_fract_y
_atom_site_fract_z
Si Si1 0.727277 0.134906 0.863384
Si Si2 0.751322 0.381344 0.630075
Si Si3 0.502302 0.326026 0.071703
Si Si4 0.336181 0.193735 0.241701
Si Si5 0.165180 0.496072 0.320764
Si Si6 0.977238 0.687002 0.931416
O O1 0.841096 0.155763 0.912097
O O2 0.741827 0.174810 0.803049
O O3 0.731651 0.064563 0.847646
O O4 0.577972 0.147918 0.890664
O O5 0.590996 0.367672 0.615847
O O6 0.816085 0.359242 0.693572
O O7 0.769138 0.453180 0.635064
O O8 0.829601 0.346440 0.575177
O O9 0.471406 0.256617 0.089878
O O10 0.476576 0.337637 0.000000
O O11 0.500000 0.207179 0.250000
O O12 0.250000 0.250000 0.215474
O O13 0.209954 0.500000 0.250000
O O14 0.000000 0.500000 0.326487
O O15 0.029363 0.684894 0.000000
#
# Coordination Sequence:
#
# PCOD8277774 Si02
#       6
#    16  16  16  16  16  16
#     4  12  24  42  68  99 131 176 224 269 331 397
#     4  12  24  42  68  99 131 176 224 269 331 397
#     4  11  26  46  67  96 140 178 214 277 338 393
#     4  12  24  39  65 102 138 169 217 284 341 399
#     4  11  22  45  68  93 133 177 217 272 331 398
#     4  11  22  42  69  98 130 176 226 271 328 389
#
# _framework density 20.494083
#
# number of rings (size 3 to 8) (size 9 to 14) (size 15 to 20)
#    0.000    0.500    5.000    4.000    2.333    3.333 
#    0.000    5.833    0.000    0.000    0.000    0.000 
#    0.000    0.000    0.000    0.000    0.000    0.000 
#
# Total GULP energy -595283.567852 kJ/mol
# GULP energy per Si atom -12401.740997 kJ/mol
# Density = 2.044744 g / cm^3
# Si number density = 20.494083 Si / 1000 Ang^3
#
#
#
# Elastic Constant Matrix: (Units=GPa)
#
#
# Indices 1 2 3 4 5 6 
#
# 1 71.4374 21.6102 24.6207 0.0000 0.0000 0.0000
# 2 21.6102 135.9879 37.2469 0.0000 0.0000 0.0000
# 3 24.6207 37.2469 80.0901 0.0000 0.0000 0.0000
# 4 0.0000 0.0000 0.0000 12.1676 0.0000 0.0000
# 5 0.0000 0.0000 0.0000 0.0000 36.0086 0.0000
# 6 0.0000 0.0000 0.0000 0.0000 0.0000 28.0547
#
#
#
# Elastic Compliance Matrix: (Units=1/GPa)
#
#
# Indices 1 2 3 4 5 6 
#
# 1 0.015873 -0.001359 -0.004248 0.000000 0.000000 0.000000
# 2 -0.001359 0.008543 -0.003555 0.000000 0.000000 0.000000
# 3 -0.004248 -0.003555 0.015445 0.000000 0.000000 0.000000
# 4 0.000000 0.000000 0.000000 0.082185 0.000000 0.000000
# 5 0.000000 0.000000 0.000000 0.000000 0.027771 0.000000
# 6 0.000000 0.000000 0.000000 0.000000 0.000000 0.035645
#
#
# Mechanical properties :
#
#
# Convention : Reuss Voigt Hill
#
# Bulk Modulus (GPa) = 46.43012 50.49677 48.46344
# Shear Modulus (GPa) = 23.70045 28.84871 26.27458
#
# Velocity S-wave (km/s) = 3.40436 3.75595 3.58447
# Velocity P-wave (km/s) = 6.17717 6.59566 6.38984
#
# Compressibility (1/GPa) = 0.02153774
#
# Stress axis : x y z
#
# Youngs Moduli (GPa) = 62.99884 117.04955 64.74507
#
# Poissons Ratio (x) = 0.15908 0.27501
# Poissons Ratio (y) = 0.08562 0.23020
# Poissons Ratio (z) = 0.26759 0.41616
#
# Static dielectric constant tensor:
#      x y z
#    x 3.588270 0.000000 0.000000 
#    y 0.000000 3.717070 0.000000 
#    z 0.000000 0.000000 3.709010 
# 
# 
# High freq. dielectric constant tensor:
#      x y z
#    x 1.800270 0.000000 0.000000 
#    y 0.000000 1.804450 0.000000 
#    z 0.000000 0.000000 1.806680 
# 
# From -- ./inp_files/55649.got.cif
#   From: 2010.03.12/outbox.cif.g09.slc.cpg/sg66_28_cif.got.tgz:55649.got - 2010.04.10 21:57:39.
