data_PCOD8277361
_publ_section_title
;
Structure prediction by ZEFSAII (Michael W. Deem and Ramdas Pophale) SiO2 
 PCOD8277361
Probable space group: C C C M
;
_chemical_formula_sum "Si O2"
_cell_formula_units_Z 56
_cell_length_a 14.148920
_cell_length_b 5.719188
_cell_length_c 28.886928
_cell_angle_alpha 90.000000
_cell_angle_beta 90.000000
_cell_angle_gamma 90.000000
_cell_volume 2337.539847
_symmetry_space_group_name_H-M "C C C M"
_symmetry_group_IT_number 66
_symmetry_cell_setting 'orthorhombic'
loop_
_space_group_symop_operation_xyz
x,y,z
-x,-y,z
x,-y,1/2-z
-x,y,1/2-z
-x,-y,-z
x,y,-z
-x,y,1/2+z
x,-y,1/2+z
1/2+x,1/2+y,z
1/2-x,1/2-y,z
1/2+x,1/2-y,1/2-z
1/2-x,1/2+y,1/2-z
1/2-x,1/2-y,-z
1/2+x,1/2+y,-z
1/2-x,1/2+y,1/2+z
1/2+x,1/2-y,1/2+z
loop_
_atom_site_type_symbol
_atom_site_label
_atom_site_fract_x
_atom_site_fract_y
_atom_site_fract_z
Si Si1 0.750000 0.750000 0.601972
Si Si2 0.392968 0.076425 0.052851
Si Si3 0.105601 0.091189 0.865517
Si Si4 0.607015 0.753011 0.766985
O O1 0.821064 0.623776 0.567006
O O2 0.685898 0.605075 0.637942
O O3 0.372306 0.295986 0.085078
O O4 0.500000 0.000000 0.061423
O O5 0.376158 0.152377 0.000000
O O6 0.117249 0.267726 0.822576
O O7 0.000000 0.000000 0.863408
O O8 0.651134 0.500000 0.750000
O O9 0.500000 0.754713 0.750000
O O10 0.655038 0.000000 0.750000
#
# Coordination Sequence:
#
# PCOD8277361 Si02
#       4
#     8  16  16  16
#     4  12  27  46  78 112 150 200 266 320 395 468
#     4  11  26  47  76 111 154 205 258 321 399 473
#     4  12  25  46  78 112 152 204 260 326 392 475
#     4  10  22  40  76 114 146 206 257 312 398 461
#
# _framework density 23.956811999999999
#
# number of rings (size 3 to 8) (size 9 to 14) (size 15 to 20)
#    0.000    0.857    5.714    1.286    8.000    4.000 
#    0.000    0.000    6.286    0.000    0.000    0.000 
#    0.000    0.000    0.000    0.000    0.000    0.000 
#
# Total GULP energy -346975.591544 kJ/mol
# GULP energy per Si atom -12391.985412 kJ/mol
# Density = 2.390228 g / cm^3
# Si number density = 23.956812 Si / 1000 Ang^3
#
#
#
# Elastic Constant Matrix: (Units=GPa)
#
#
# Indices 1 2 3 4 5 6 
#
# 1 153.1134 46.7614 44.4092 0.0000 0.0000 0.0000
# 2 46.7614 177.0781 77.1755 0.0000 0.0000 0.0000
# 3 44.4092 77.1755 186.7401 0.0000 0.0000 0.0000
# 4 0.0000 0.0000 0.0000 -49.4125 0.0000 0.0000
# 5 0.0000 0.0000 0.0000 0.0000 -13.4016 0.0000
# 6 0.0000 0.0000 0.0000 0.0000 0.0000 -2.2184
#
#
#
# Elastic Compliance Matrix: (Units=1/GPa)
#
#
# Indices 1 2 3 4 5 6 
#
# 1 0.007300 -0.001428 -0.001146 0.000000 0.000000 0.000000
# 2 -0.001428 0.007167 -0.002622 0.000000 0.000000 0.000000
# 3 -0.001146 -0.002622 0.006711 0.000000 0.000000 0.000000
# 4 0.000000 0.000000 0.000000 -0.020238 0.000000 0.000000
# 5 0.000000 0.000000 0.000000 0.000000 -0.074618 0.000000
# 6 0.000000 0.000000 0.000000 0.000000 0.000000 -0.450778
#
#
# Mechanical properties :
#
#
# Convention : Reuss Voigt Hill
#
# Bulk Modulus (GPa) = 92.71767 94.84708 93.78238
# Shear Modulus (GPa) = -9.79494 10.23254 0.21880
#
# Velocity S-wave (km/s) = -2.02422 2.06894 0.30254
# Velocity P-wave (km/s) = 5.77259 6.73678 6.27323
#
# Compressibility (1/GPa) = 0.01078543
#
# Stress axis : x y z
#
# Youngs Moduli (GPa) = 136.99375 139.52201 149.00300
#
# Poissons Ratio (x) = 0.19928 0.17070
# Poissons Ratio (y) = 0.19567 0.39075
# Poissons Ratio (z) = 0.15695 0.36589
#
# Static dielectric constant tensor:
#      x y z
#    x 4.598460 0.000000 0.000000 
#    y 0.000000 4.953110 0.000000 
#    z 0.000000 0.000000 4.444870 
# 
# 
# High freq. dielectric constant tensor:
#      x y z
#    x 1.959780 0.000000 0.000000 
#    y 0.000000 1.950910 0.000000 
#    z 0.000000 0.000000 1.958470 
# 
# From -- ./inp_files/69312.got.cif
#   From: 2010.03.12/outbox.cif.g09.slc.cpg/sg66_35_cif.got.tgz:69312.got - 2010.04.10 21:57:39.
