data_PCOD8277330
_publ_section_title
;
Structure prediction by ZEFSAII (Michael W. Deem and Ramdas Pophale) SiO2 
 PCOD8277330
Probable space group: C C C M
;
_chemical_formula_sum "Si O2"
_cell_formula_units_Z 112
_cell_length_a 18.464812
_cell_length_b 10.799073
_cell_length_c 27.534336
_cell_angle_alpha 90.000000
_cell_angle_beta 90.000000
_cell_angle_gamma 90.000000
_cell_volume 5490.425146
_symmetry_space_group_name_H-M "C C C M"
_symmetry_group_IT_number 66
_symmetry_cell_setting 'orthorhombic'
loop_
_space_group_symop_operation_xyz
x,y,z
-x,-y,z
x,-y,1/2-z
-x,y,1/2-z
-x,-y,-z
x,y,-z
-x,y,1/2+z
x,-y,1/2+z
1/2+x,1/2+y,z
1/2-x,1/2-y,z
1/2+x,1/2-y,1/2-z
1/2-x,1/2+y,1/2-z
1/2-x,1/2-y,-z
1/2+x,1/2+y,-z
1/2-x,1/2+y,1/2+z
1/2+x,1/2-y,1/2+z
loop_
_atom_site_type_symbol
_atom_site_label
_atom_site_fract_x
_atom_site_fract_y
_atom_site_fract_z
Si Si1 0.108035 0.415330 0.945128
Si Si2 0.458418 0.620523 0.132225
Si Si3 0.555568 0.751616 0.210964
Si Si4 0.196961 0.425741 0.294595
Si Si5 0.446888 0.820171 0.054534
Si Si6 0.645905 0.340369 0.209670
Si Si7 0.815116 0.347183 0.352145
O O1 0.098616 0.558832 0.929125
O O2 0.160746 0.342359 0.908359
O O3 0.031414 0.348542 0.942927
O O4 0.139458 0.406674 0.000000
O O5 0.500000 0.500000 0.112002
O O6 0.511535 0.697019 0.166474
O O7 0.429677 0.702600 0.087787
O O8 0.388192 0.583806 0.164400
O O9 0.500000 0.819161 0.250000
O O10 0.595603 0.644329 0.242483
O O11 0.618396 0.832694 0.185926
O O12 0.160467 0.500000 0.250000
O O13 0.275696 0.385473 0.275756
O O14 0.148130 0.305886 0.306033
O O15 0.209482 0.512020 0.341714
O O16 0.424360 0.784142 0.000000
O O17 0.750000 0.250000 0.343197
#
# Coordination Sequence:
#
# PCOD8277330 Si02
#       7
#    16  16  16  16  16  16  16
#     4   9  19  37  63  89 118 156 197 254 317 368
#     4  11  23  36  59  84 117 152 196 243 304 355
#     4  10  22  40  54  83 118 157 198 247 294 347
#     4  11  22  37  58  79 115 156 202 240 287 361
#     4   9  18  37  62  86 116 151 195 251 309 366
#     4  10  23  39  54  81 115 158 200 236 292 355
#     4  12  23  37  62  89 123 159 201 255 309 364
#
# _framework density 20.399148
#
# number of rings (size 3 to 8) (size 9 to 14) (size 15 to 20)
#    0.000    1.714    2.857    2.571    4.000    2.571 
#    0.000    3.571    0.000    0.857    0.000    4.000 
#    0.000    0.000    0.000    0.000    0.000    0.000 
#
# Total GULP energy -693926.141672 kJ/mol
# GULP energy per Si atom -12391.538244 kJ/mol
# Density = 2.035272 g / cm^3
# Si number density = 20.399148 Si / 1000 Ang^3
#
#
#
# Elastic Constant Matrix: (Units=GPa)
#
#
# Indices 1 2 3 4 5 6 
#
# 1 74.8612 7.6520 25.1129 0.0000 0.0000 0.0000
# 2 7.6520 60.0481 26.7602 0.0000 0.0000 0.0000
# 3 25.1129 26.7602 104.0409 0.0000 0.0000 0.0000
# 4 0.0000 0.0000 0.0000 26.7394 0.0000 0.0000
# 5 0.0000 0.0000 0.0000 0.0000 20.1378 0.0000
# 6 0.0000 0.0000 0.0000 0.0000 0.0000 18.1285
#
#
#
# Elastic Compliance Matrix: (Units=1/GPa)
#
#
# Indices 1 2 3 4 5 6 
#
# 1 0.014541 -0.000326 -0.003426 0.000000 0.000000 0.000000
# 2 -0.000326 0.018817 -0.004761 0.000000 0.000000 0.000000
# 3 -0.003426 -0.004761 0.011663 0.000000 0.000000 0.000000
# 4 0.000000 0.000000 0.000000 0.037398 0.000000 0.000000
# 5 0.000000 0.000000 0.000000 0.000000 0.049658 0.000000
# 6 0.000000 0.000000 0.000000 0.000000 0.000000 0.055162
#
#
# Mechanical properties :
#
#
# Convention : Reuss Voigt Hill
#
# Bulk Modulus (GPa) = 35.72177 39.77783 37.74980
# Shear Modulus (GPa) = 23.40872 24.96282 24.18577
#
# Velocity S-wave (km/s) = 3.39120 3.50196 3.44703
# Velocity P-wave (km/s) = 5.73438 5.99114 5.86416
#
# Compressibility (1/GPa) = 0.02799413
#
# Stress axis : x y z
#
# Youngs Moduli (GPa) = 68.77284 53.14446 85.74056
#
# Poissons Ratio (x) = 0.01734 0.29373
# Poissons Ratio (y) = 0.02244 0.40822
# Poissons Ratio (z) = 0.23560 0.25302
#
# Static dielectric constant tensor:
#      x y z
#    x 3.676700 0.000000 0.000000 
#    y 0.000000 3.655600 0.000000 
#    z 0.000000 0.000000 3.778210 
# 
# 
# High freq. dielectric constant tensor:
#      x y z
#    x 1.787630 0.000000 0.000000 
#    y 0.000000 1.781800 0.000000 
#    z 0.000000 0.000000 1.793060 
# 
# From -- ./inp_files/59557.got.cif
#   From: 2010.03.12/outbox.cif.g09.slc.cpg/sg66_30_cif.got.tgz:59557.got - 2010.04.10 21:57:39.
