data_PCOD8277611
_publ_section_title
;
Structure prediction by ZEFSAII (Michael W. Deem and Ramdas Pophale) SiO2 
 PCOD8277611
Probable space group: C C C M
;
_chemical_formula_sum "Si O2"
_cell_formula_units_Z 88
_cell_length_a 11.010923
_cell_length_b 13.283040
_cell_length_c 28.358023
_cell_angle_alpha 90.000000
_cell_angle_beta 90.000000
_cell_angle_gamma 90.000000
_cell_volume 4147.602776
_symmetry_space_group_name_H-M "C C C M"
_symmetry_group_IT_number 66
_symmetry_cell_setting 'orthorhombic'
loop_
_space_group_symop_operation_xyz
x,y,z
-x,-y,z
x,-y,1/2-z
-x,y,1/2-z
-x,-y,-z
x,y,-z
-x,y,1/2+z
x,-y,1/2+z
1/2+x,1/2+y,z
1/2-x,1/2-y,z
1/2+x,1/2-y,1/2-z
1/2-x,1/2+y,1/2-z
1/2-x,1/2-y,-z
1/2+x,1/2+y,-z
1/2-x,1/2+y,1/2+z
1/2+x,1/2-y,1/2+z
loop_
_atom_site_type_symbol
_atom_site_label
_atom_site_fract_x
_atom_site_fract_y
_atom_site_fract_z
Si Si1 0.187636 0.965986 0.796878
Si Si2 0.320634 0.854951 0.552927
Si Si3 0.572606 0.912124 0.202122
Si Si4 0.891142 0.943789 0.107024
Si Si5 0.492226 0.226651 0.124724
Si Si6 0.250000 0.250000 0.333236
O O1 0.225766 0.847214 0.799514
O O2 0.109400 0.000000 0.750000
O O3 0.294750 0.046943 0.788802
O O4 0.122396 0.990173 0.845709
O O5 0.349945 0.891268 0.500000
O O6 0.250000 0.750000 0.552243
O O7 0.234409 0.938789 0.577803
O O8 0.448929 0.842379 0.580432
O O9 0.500000 0.888379 0.250000
O O10 0.575610 0.812224 0.171389
O O11 0.500000 0.000000 0.173821
O O12 0.938205 0.835302 0.119506
O O13 0.000000 0.000000 0.077969
O O14 0.637323 0.226143 0.131769
#
# Coordination Sequence:
#
# PCOD8277611 Si02
#       6
#    16  16  16  16  16   8
#     4  12  24  40  60  92 129 170 216 263 315 385
#     4   9  20  40  67  95 123 165 215 266 325 393
#     4  11  20  37  61  86 119 169 222 250 303 383
#     4  11  23  40  62  95 129 163 209 268 331 377
#     4  11  22  39  64  90 124 168 211 269 318 383
#     4  12  24  40  63  90 128 176 207 268 330 370
#
# _framework density 21.217075999999999
#
# number of rings (size 3 to 8) (size 9 to 14) (size 15 to 20)
#    0.000    1.091    7.273    0.000    0.000    3.636 
#    0.000    0.455    0.000    4.909    0.000    0.000 
#    0.000    0.000    0.000    0.000    0.000    0.000 
#
# Total GULP energy -545080.632577 kJ/mol
# GULP energy per Si atom -12388.196195 kJ/mol
# Density = 2.116878 g / cm^3
# Si number density = 21.217076 Si / 1000 Ang^3
#
#
#
# Elastic Constant Matrix: (Units=GPa)
#
#
# Indices 1 2 3 4 5 6 
#
# 1 105.1354 40.5859 50.6261 0.0000 0.0000 0.0000
# 2 40.5859 103.4862 51.7534 0.0000 0.0000 0.0000
# 3 50.6261 51.7534 131.0411 0.0000 0.0000 0.0000
# 4 0.0000 0.0000 0.0000 13.8287 0.0000 0.0000
# 5 0.0000 0.0000 0.0000 0.0000 -6.1537 0.0000
# 6 0.0000 0.0000 0.0000 0.0000 0.0000 25.1844
#
#
#
# Elastic Compliance Matrix: (Units=1/GPa)
#
#
# Indices 1 2 3 4 5 6 
#
# 1 0.012427 -0.003081 -0.003584 0.000000 0.000000 0.000000
# 2 -0.003081 0.012805 -0.003867 0.000000 0.000000 0.000000
# 3 -0.003584 -0.003867 0.010543 0.000000 0.000000 0.000000
# 4 0.000000 0.000000 0.000000 0.072313 0.000000 0.000000
# 5 0.000000 0.000000 0.000000 0.000000 -0.162503 0.000000
# 6 0.000000 0.000000 0.000000 0.000000 0.000000 0.039707
#
#
# Mechanical properties :
#
#
# Convention : Reuss Voigt Hill
#
# Bulk Modulus (GPa) = 67.97733 69.51040 68.74387
# Shear Modulus (GPa) = 444.01378 19.68504 231.84941
#
# Velocity S-wave (km/s) = 14.48193 3.04927 10.46480
# Velocity P-wave (km/s) = 17.65626 6.72533 13.35989
#
# Compressibility (1/GPa) = 0.01471079
#
# Stress axis : x y z
#
# Youngs Moduli (GPa) = 80.47092 78.09199 94.84911
#
# Poissons Ratio (x) = 0.24062 0.33994
# Poissons Ratio (y) = 0.24795 0.36678
# Poissons Ratio (z) = 0.28841 0.30198
#
# Static dielectric constant tensor:
#      x y z
#    x 4.265710 0.000000 0.000000 
#    y 0.000000 3.917010 0.000000 
#    z 0.000000 0.000000 4.138010 
# 
# 
# High freq. dielectric constant tensor:
#      x y z
#    x 1.836950 0.000000 0.000000 
#    y 0.000000 1.831280 0.000000 
#    z 0.000000 0.000000 1.809330 
# 
# From -- ./inp_files/68853.got.cif
#   From: 2010.03.12/outbox.cif.g09.slc.cpg/sg66_35_cif.got.tgz:68853.got - 2010.04.10 21:57:39.
