data_PCOD8277159
_publ_section_title
;
Structure prediction by ZEFSAII (Michael W. Deem and Ramdas Pophale) SiO2 
 PCOD8277159
Probable space group: C C C M
;
_chemical_formula_sum "Si O2"
_cell_formula_units_Z 72
_cell_length_a 8.906824
_cell_length_b 15.564012
_cell_length_c 24.709404
_cell_angle_alpha 90.000000
_cell_angle_beta 90.000000
_cell_angle_gamma 90.000000
_cell_volume 3425.363754
_symmetry_space_group_name_H-M "C C C M"
_symmetry_group_IT_number 66
_symmetry_cell_setting 'orthorhombic'
loop_
_space_group_symop_operation_xyz
x,y,z
-x,-y,z
x,-y,1/2-z
-x,y,1/2-z
-x,-y,-z
x,y,-z
-x,y,1/2+z
x,-y,1/2+z
1/2+x,1/2+y,z
1/2-x,1/2-y,z
1/2+x,1/2-y,1/2-z
1/2-x,1/2+y,1/2-z
1/2-x,1/2-y,-z
1/2+x,1/2+y,-z
1/2-x,1/2+y,1/2+z
1/2+x,1/2-y,1/2+z
loop_
_atom_site_type_symbol
_atom_site_label
_atom_site_fract_x
_atom_site_fract_y
_atom_site_fract_z
Si Si1 0.750000 0.750000 0.825137
Si Si2 0.646790 0.401921 0.846204
Si Si3 0.750000 0.750000 0.411202
Si Si4 0.318624 0.419372 0.115981
Si Si5 0.249190 0.614468 0.500000
Si Si6 0.000000 0.815516 0.250000
Si Si7 0.998230 0.741669 0.500000
O O1 0.768415 0.665125 0.862278
O O2 0.600108 0.744173 0.788820
O O3 0.758755 0.333128 0.872623
O O4 0.721775 0.496747 0.847838
O O5 0.495720 0.402023 0.881847
O O6 0.610138 0.377019 0.784343
O O7 0.899381 0.750887 0.446581
O O8 0.271495 0.441317 0.054314
O O9 0.373488 0.687957 0.500000
O O10 0.079450 0.649672 0.500000
#
# Coordination Sequence:
#
# PCOD8277159 Si02
#       7
#     8  16   8  16   8   8   8
#     4  10  21  39  65  92 119 159 213 266 316 372
#     4  10  22  39  63  93 124 163 212 266 305 378
#     4  11  21  40  59  96 129 168 203 263 316 372
#     4  10  22  38  65  92 124 164 216 250 308 385
#     4  11  20  39  62  96 125 177 203 254 311 396
#     4  10  22  41  66  89 120 166 212 267 324 363
#     4  10  22  34  65  91 131 167 209 251 317 379
#
# _framework density 21.019665
#
# number of rings (size 3 to 8) (size 9 to 14) (size 15 to 20)
#    0.000    1.778    2.222    2.000    3.111   10.667 
#    0.000    2.222    0.000    8.000    0.000    0.000 
#    0.000    0.000    0.000    0.000    0.000    0.000 
#
# Total GULP energy -446390.706191 kJ/mol
# GULP energy per Si atom -12399.741839 kJ/mol
# Density = 2.097182 g / cm^3
# Si number density = 21.019665 Si / 1000 Ang^3
#
#
#
# Elastic Constant Matrix: (Units=GPa)
#
#
# Indices 1 2 3 4 5 6 
#
# 1 47.6824 25.4486 21.6405 0.0000 0.0000 0.0000
# 2 25.4486 157.7488 56.4952 0.0000 0.0000 0.0000
# 3 21.6405 56.4952 135.5101 0.0000 0.0000 0.0000
# 4 0.0000 0.0000 0.0000 25.3318 0.0000 0.0000
# 5 0.0000 0.0000 0.0000 0.0000 8.7536 0.0000
# 6 0.0000 0.0000 0.0000 0.0000 0.0000 27.4186
#
#
#
# Elastic Compliance Matrix: (Units=1/GPa)
#
#
# Indices 1 2 3 4 5 6 
#
# 1 0.023688 -0.002900 -0.002574 0.000000 0.000000 0.000000
# 2 -0.002900 0.007807 -0.002792 0.000000 0.000000 0.000000
# 3 -0.002574 -0.002792 0.008954 0.000000 0.000000 0.000000
# 4 0.000000 0.000000 0.000000 0.039476 0.000000 0.000000
# 5 0.000000 0.000000 0.000000 0.000000 0.114238 0.000000
# 6 0.000000 0.000000 0.000000 0.000000 0.000000 0.036472
#
#
# Mechanical properties :
#
#
# Convention : Reuss Voigt Hill
#
# Bulk Modulus (GPa) = 41.80851 60.90110 51.35480
# Shear Modulus (GPa) = 19.59723 28.12462 23.86092
#
# Velocity S-wave (km/s) = 3.05672 3.66186 3.37289
# Velocity P-wave (km/s) = 5.69134 6.84947 6.29709
#
# Compressibility (1/GPa) = 0.02391857
#
# Stress axis : x y z
#
# Youngs Moduli (GPa) = 42.21579 128.09440 111.67641
#
# Poissons Ratio (x) = 0.37142 0.28746
# Poissons Ratio (y) = 0.12241 0.31176
# Poissons Ratio (z) = 0.10866 0.35759
#
# Static dielectric constant tensor:
#      x y z
#    x 3.592750 0.000000 0.000000 
#    y 0.000000 3.876600 0.000000 
#    z 0.000000 0.000000 3.933410 
# 
# 
# High freq. dielectric constant tensor:
#      x y z
#    x 1.798870 0.000000 0.000000 
#    y 0.000000 1.816480 0.000000 
#    z 0.000000 0.000000 1.835620 
# 
# From -- ./inp_files/62273.got.cif
#   From: 2010.03.12/outbox.cif.g09.slc.cpg/sg66_32_cif.got.tgz:62273.got - 2010.04.10 21:57:39.
