data_PCOD8277647
_publ_section_title
;
Structure prediction by ZEFSAII (Michael W. Deem and Ramdas Pophale) SiO2 
 PCOD8277647
Probable space group: C C C M
;
_chemical_formula_sum "Si O2"
_cell_formula_units_Z 80
_cell_length_a 11.844857
_cell_length_b 14.363081
_cell_length_c 23.312841
_cell_angle_alpha 90.000000
_cell_angle_beta 90.000000
_cell_angle_gamma 90.000000
_cell_volume 3966.181946
_symmetry_space_group_name_H-M "C C C M"
_symmetry_group_IT_number 66
_symmetry_cell_setting 'orthorhombic'
loop_
_space_group_symop_operation_xyz
x,y,z
-x,-y,z
x,-y,1/2-z
-x,y,1/2-z
-x,-y,-z
x,y,-z
-x,y,1/2+z
x,-y,1/2+z
1/2+x,1/2+y,z
1/2-x,1/2-y,z
1/2+x,1/2-y,1/2-z
1/2-x,1/2+y,1/2-z
1/2-x,1/2-y,-z
1/2+x,1/2+y,-z
1/2-x,1/2+y,1/2+z
1/2+x,1/2-y,1/2+z
loop_
_atom_site_type_symbol
_atom_site_label
_atom_site_fract_x
_atom_site_fract_y
_atom_site_fract_z
Si Si1 0.131030 0.896097 0.743870
Si Si2 0.127835 0.773714 0.633319
Si Si3 0.262116 0.651074 0.856002
Si Si4 0.516235 0.893322 0.682876
Si Si5 0.452959 0.602431 0.064311
O O1 0.160064 0.843206 0.685482
O O2 0.171191 0.832775 0.796394
O O3 0.000000 0.909879 0.750000
O O4 0.187982 0.000000 0.750000
O O5 0.250000 0.750000 0.604632
O O6 0.068474 0.677276 0.651492
O O7 0.044030 0.825901 0.590156
O O8 0.250000 0.750000 0.886973
O O9 0.141041 0.612671 0.841717
O O10 0.337983 0.590619 0.899068
O O11 0.500000 0.871919 0.750000
O O12 0.500000 0.000000 0.667839
O O13 0.500000 0.500000 0.063919
O O14 0.425103 0.636363 0.000000
#
# Coordination Sequence:
#
# PCOD8277647 Si02
#       5
#    16  16  16  16  16
#     4  11  21  34  62 100 131 166 216 267 325 400
#     4  12  24  42  66  97 136 174 214 273 338 402
#     4  12  22  41  66  93 130 170 216 272 327 392
#     4  11  25  41  60 100 143 177 207 256 331 404
#     4  11  26  47  70  95 124 172 235 288 331 383
#
# _framework density 20.170532000000001
#
# number of rings (size 3 to 8) (size 9 to 14) (size 15 to 20)
#    0.000    0.600    4.000    4.800    8.400    0.800 
#    0.000    0.000    0.000    1.200    0.000    0.000 
#    0.000    0.000    0.000    0.000    0.000    0.000 
#
# Total GULP energy -495720.867920 kJ/mol
# GULP energy per Si atom -12393.021698 kJ/mol
# Density = 2.012462 g / cm^3
# Si number density = 20.170532 Si / 1000 Ang^3
#
#
#
# Elastic Constant Matrix: (Units=GPa)
#
#
# Indices 1 2 3 4 5 6 
#
# 1 161.1128 39.6346 59.3760 0.0000 0.0000 0.0000
# 2 39.6346 104.6580 28.3552 0.0000 0.0000 0.0000
# 3 59.3760 28.3552 106.6074 0.0000 0.0000 0.0000
# 4 0.0000 0.0000 0.0000 43.3962 0.0000 0.0000
# 5 0.0000 0.0000 0.0000 0.0000 -7.2552 0.0000
# 6 0.0000 0.0000 0.0000 0.0000 0.0000 34.5558
#
#
#
# Elastic Compliance Matrix: (Units=1/GPa)
#
#
# Indices 1 2 3 4 5 6 
#
# 1 0.008184 -0.002009 -0.004024 0.000000 0.000000 0.000000
# 2 -0.002009 0.010790 -0.001751 0.000000 0.000000 0.000000
# 3 -0.004024 -0.001751 0.012087 0.000000 0.000000 0.000000
# 4 0.000000 0.000000 0.000000 0.023043 0.000000 0.000000
# 5 0.000000 0.000000 0.000000 0.000000 -0.137832 0.000000
# 6 0.000000 0.000000 0.000000 0.000000 0.000000 0.028939
#
#
# Mechanical properties :
#
#
# Convention : Reuss Voigt Hill
#
# Bulk Modulus (GPa) = 64.54329 69.67887 67.11108
# Shear Modulus (GPa) = -146.81577 30.47352 -58.17112
#
# Velocity S-wave (km/s) = -8.54080 3.89111 -5.37608
# Velocity P-wave (km/s) = 8.07416 7.40321 2.27866
#
# Compressibility (1/GPa) = 0.01549348
#
# Stress axis : x y z
#
# Youngs Moduli (GPa) = 122.18962 92.67668 82.73349
#
# Poissons Ratio (x) = 0.18620 0.33290
# Poissons Ratio (y) = 0.24550 0.14486
# Poissons Ratio (z) = 0.49166 0.16227
#
# Static dielectric constant tensor:
#      x y z
#    x 3.937420 0.000000 0.000000 
#    y 0.000000 4.064350 0.000000 
#    z 0.000000 0.000000 3.568980 
# 
# 
# High freq. dielectric constant tensor:
#      x y z
#    x 1.804570 0.000000 0.000000 
#    y 0.000000 1.807670 0.000000 
#    z 0.000000 0.000000 1.754880 
# 
# From -- ./inp_files/56630.got.cif
#   From: 2010.03.12/outbox.cif.g09.slc.cpg/sg66_29_cif.got.tgz:56630.got - 2010.04.10 21:57:39.
