data_PCOD8277535
_publ_section_title
;
Structure prediction by ZEFSAII (Michael W. Deem and Ramdas Pophale) SiO2 
 PCOD8277535
Probable space group: C C C M
;
_chemical_formula_sum "Si O2"
_cell_formula_units_Z 64
_cell_length_a 10.873654
_cell_length_b 8.899141
_cell_length_c 30.047865
_cell_angle_alpha 90.000000
_cell_angle_beta 90.000000
_cell_angle_gamma 90.000000
_cell_volume 2907.617117
_symmetry_space_group_name_H-M "C C C M"
_symmetry_group_IT_number 66
_symmetry_cell_setting 'orthorhombic'
loop_
_space_group_symop_operation_xyz
x,y,z
-x,-y,z
x,-y,1/2-z
-x,y,1/2-z
-x,-y,-z
x,y,-z
-x,y,1/2+z
x,-y,1/2+z
1/2+x,1/2+y,z
1/2-x,1/2-y,z
1/2+x,1/2-y,1/2-z
1/2-x,1/2+y,1/2-z
1/2-x,1/2-y,-z
1/2+x,1/2+y,-z
1/2-x,1/2+y,1/2+z
1/2+x,1/2-y,1/2+z
loop_
_atom_site_type_symbol
_atom_site_label
_atom_site_fract_x
_atom_site_fract_y
_atom_site_fract_z
Si Si1 0.991100 0.732594 0.500000
Si Si2 0.151232 0.119959 0.572415
Si Si3 0.705814 0.966596 0.000000
Si Si4 0.615142 0.409378 0.826828
Si Si5 0.121375 0.567192 0.799133
O O1 0.966874 0.828237 0.544282
O O2 0.898409 0.593698 0.500000
O O3 0.135845 0.692793 0.500000
O O4 0.250000 0.250000 0.578871
O O5 0.097913 0.083009 0.620370
O O6 0.213803 0.983085 0.544996
O O7 0.500000 0.500000 0.805704
O O8 0.747715 0.488381 0.818460
O O9 0.613479 0.246999 0.803417
O O10 0.115741 0.500000 0.750000
O O11 0.000000 0.500000 0.824675
#
# Coordination Sequence:
#
# PCOD8277535 Si02
#       5
#     8  16   8  16  16
#     4   8  15  27  52  84 120 170 213 249 300 357
#     4   9  16  33  54  86 128 161 209 258 305 363
#     4   8  15  27  52  84 120 172 211 251 298 359
#     4  11  24  42  68  98 129 166 210 265 324 384
#     4  10  24  45  67  93 124 161 206 262 322 391
#
# _framework density 22.011149
#
# number of rings (size 3 to 8) (size 9 to 14) (size 15 to 20)
#    0.000    2.500    2.500    1.500    0.000   11.500 
#    0.000    2.500    0.000    1.500    0.000    0.000 
#    0.000    0.000    0.000    0.000    0.000    0.000 
#
# Total GULP energy -396443.477946 kJ/mol
# GULP energy per Si atom -12388.858686 kJ/mol
# Density = 2.196105 g / cm^3
# Si number density = 22.011149 Si / 1000 Ang^3
#
#
#
# Elastic Constant Matrix: (Units=GPa)
#
#
# Indices 1 2 3 4 5 6 
#
# 1 205.3866 70.7401 33.8363 0.0000 0.0000 0.0000
# 2 70.7401 68.3329 45.4761 0.0000 0.0000 0.0000
# 3 33.8363 45.4761 118.8982 0.0000 0.0000 0.0000
# 4 0.0000 0.0000 0.0000 4.3846 0.0000 0.0000
# 5 0.0000 0.0000 0.0000 0.0000 -57.8352 0.0000
# 6 0.0000 0.0000 0.0000 0.0000 0.0000 44.2759
#
#
#
# Elastic Compliance Matrix: (Units=1/GPa)
#
#
# Indices 1 2 3 4 5 6 
#
# 1 0.007682 -0.008716 0.001148 0.000000 0.000000 0.000000
# 2 -0.008716 0.029521 -0.008811 0.000000 0.000000 0.000000
# 3 0.001148 -0.008811 0.011454 0.000000 0.000000 0.000000
# 4 0.000000 0.000000 0.000000 0.228073 0.000000 0.000000
# 5 0.000000 0.000000 0.000000 0.000000 -0.017290 0.000000
# 6 0.000000 0.000000 0.000000 0.000000 0.000000 0.022586
#
#
# Mechanical properties :
#
#
# Convention : Reuss Voigt Hill
#
# Bulk Modulus (GPa) = 62.90006 76.96921 69.93464
# Shear Modulus (GPa) = 15.62092 14.33606 14.97849
#
# Velocity S-wave (km/s) = 2.66688 2.55484 2.61146
# Velocity P-wave (km/s) = 6.17426 6.61416 6.39799
#
# Compressibility (1/GPa) = 0.01589824
#
# Stress axis : x y z
#
# Youngs Moduli (GPa) = 130.17617 33.87398 87.30674
#
# Poissons Ratio (x) = 0.29526 -0.10020
# Poissons Ratio (y) = 1.13465 0.76924
# Poissons Ratio (z) = -0.14940 0.29845
#
# Static dielectric constant tensor:
#      x y z
#    x 4.912530 0.000000 0.000000 
#    y 0.000000 3.933400 0.000000 
#    z 0.000000 0.000000 3.887270 
# 
# 
# High freq. dielectric constant tensor:
#      x y z
#    x 1.899140 0.000000 0.000000 
#    y 0.000000 1.845680 0.000000 
#    z 0.000000 0.000000 1.849150 
# 
# From -- ./inp_files/68616.got.cif
#   From: 2010.03.12/outbox.cif.g09.slc.cpg/sg66_35_cif.got.tgz:68616.got - 2010.04.10 21:57:39.
