data_PCOD8277381
_publ_section_title
;
Structure prediction by ZEFSAII (Michael W. Deem and Ramdas Pophale) SiO2 
 PCOD8277381
Probable space group: C C C M
;
_chemical_formula_sum "Si O2"
_cell_formula_units_Z 60
_cell_length_a 24.393924
_cell_length_b 6.918315
_cell_length_c 15.830033
_cell_angle_alpha 90.000000
_cell_angle_beta 90.000000
_cell_angle_gamma 90.000000
_cell_volume 2671.553150
_symmetry_space_group_name_H-M "C C C M"
_symmetry_group_IT_number 66
_symmetry_cell_setting 'orthorhombic'
loop_
_space_group_symop_operation_xyz
x,y,z
-x,-y,z
x,-y,1/2-z
-x,y,1/2-z
-x,-y,-z
x,y,-z
-x,y,1/2+z
x,-y,1/2+z
1/2+x,1/2+y,z
1/2-x,1/2-y,z
1/2+x,1/2-y,1/2-z
1/2-x,1/2+y,1/2-z
1/2-x,1/2-y,-z
1/2+x,1/2+y,-z
1/2-x,1/2+y,1/2+z
1/2+x,1/2-y,1/2+z
loop_
_atom_site_type_symbol
_atom_site_label
_atom_site_fract_x
_atom_site_fract_y
_atom_site_fract_z
Si Si1 0.500000 0.000000 0.250000
Si Si2 0.707335 0.431126 0.500000
Si Si3 0.914572 0.005666 0.000000
Si Si4 0.697185 0.644920 0.677307
Si Si5 0.411192 0.829061 0.864736
Si Si6 0.058194 0.599748 0.500000
O O1 0.538776 0.147873 0.199636
O O2 0.750000 0.250000 0.500000
O O3 0.642611 0.380793 0.500000
O O4 0.714703 0.556090 0.585889
O O5 0.922434 0.135157 0.082086
O O6 0.956826 0.827252 0.000000
O O7 0.677468 0.500000 0.750000
O O8 0.750000 0.750000 0.714570
O O9 0.648750 0.803536 0.674353
O O10 0.408308 0.026931 0.918540
O O11 0.000000 0.500000 0.500000
#
# Coordination Sequence:
#
# PCOD8277381 Si02
#       6
#     4   8   8  16  16   8
#     4  12  24  46  70  96 142 190 228 296 348 422
#     4  10  22  41  71 104 134 187 231 284 363 422
#     4   9  23  44  70  98 138 174 232 294 348 422
#     4  11  25  45  69 106 143 185 234 297 362 431
#     4  10  25  45  66 104 134 181 238 283 358 423
#     4  11  22  47  70  97 130 183 234 292 357 417
#
# _framework density 22.458846999999999
#
# number of rings (size 3 to 8) (size 9 to 14) (size 15 to 20)
#    0.000    1.600    1.333    2.000    5.600    6.400 
#    4.800    1.333    0.000    0.000    0.000    0.000 
#    0.000    0.000    0.000    0.000    0.000    0.000 
#
# Total GULP energy -371743.785757 kJ/mol
# GULP energy per Si atom -12391.459525 kJ/mol
# Density = 2.240773 g / cm^3
# Si number density = 22.458847 Si / 1000 Ang^3
#
#
#
# Elastic Constant Matrix: (Units=GPa)
#
#
# Indices 1 2 3 4 5 6 
#
# 1 156.0283 54.8823 49.1030 0.0000 0.0000 0.0000
# 2 54.8823 135.3205 43.9647 0.0000 0.0000 0.0000
# 3 49.1030 43.9647 121.4036 0.0000 0.0000 0.0000
# 4 0.0000 0.0000 0.0000 22.0027 0.0000 0.0000
# 5 0.0000 0.0000 0.0000 0.0000 32.2645 0.0000
# 6 0.0000 0.0000 0.0000 0.0000 0.0000 48.9595
#
#
#
# Elastic Compliance Matrix: (Units=1/GPa)
#
#
# Indices 1 2 3 4 5 6 
#
# 1 0.008023 -0.002493 -0.002342 0.000000 0.000000 0.000000
# 2 -0.002493 0.009150 -0.002305 0.000000 0.000000 0.000000
# 3 -0.002342 -0.002305 0.010019 0.000000 0.000000 0.000000
# 4 0.000000 0.000000 0.000000 0.045449 0.000000 0.000000
# 5 0.000000 0.000000 0.000000 0.000000 0.030994 0.000000
# 6 0.000000 0.000000 0.000000 0.000000 0.000000 0.020425
#
#
# Mechanical properties :
#
#
# Convention : Reuss Voigt Hill
#
# Bulk Modulus (GPa) = 77.45151 78.73914 78.09532
# Shear Modulus (GPa) = 35.05215 38.29882 36.67548
#
# Velocity S-wave (km/s) = 3.95489 4.13399 4.04543
# Velocity P-wave (km/s) = 7.44417 7.61065 7.52787
#
# Compressibility (1/GPa) = 0.01291130
#
# Stress axis : x y z
#
# Youngs Moduli (GPa) = 124.64007 109.29097 99.80907
#
# Poissons Ratio (x) = 0.27246 0.23378
# Poissons Ratio (y) = 0.31072 0.23008
# Poissons Ratio (z) = 0.29194 0.25194
#
# Static dielectric constant tensor:
#      x y z
#    x 4.294030 0.000000 0.000000 
#    y 0.000000 5.387720 0.000000 
#    z 0.000000 0.000000 4.303270 
# 
# 
# High freq. dielectric constant tensor:
#      x y z
#    x 1.901400 0.000000 0.000000 
#    y 0.000000 1.877610 0.000000 
#    z 0.000000 0.000000 1.888020 
# 
# From -- ./inp_files/34917.got.cif
#   From: 2010.03.12/outbox.cif.g09.slc.cpg/sg66_18_cif.got.tgz:34917.got - 2010.04.10 21:57:39.
