data_PCOD8277032
_publ_section_title
;
Structure prediction by ZEFSAII (Michael W. Deem and Ramdas Pophale) SiO2 
 PCOD8277032
Probable space group: C C C M
;
_chemical_formula_sum "Si O2"
_cell_formula_units_Z 96
_cell_length_a 22.860288
_cell_length_b 14.552985
_cell_length_c 13.917981
_cell_angle_alpha 90.000000
_cell_angle_beta 90.000000
_cell_angle_gamma 90.000000
_cell_volume 4630.309471
_symmetry_space_group_name_H-M "C C C M"
_symmetry_group_IT_number 66
_symmetry_cell_setting 'orthorhombic'
loop_
_space_group_symop_operation_xyz
x,y,z
-x,-y,z
x,-y,1/2-z
-x,y,1/2-z
-x,-y,-z
x,y,-z
-x,y,1/2+z
x,-y,1/2+z
1/2+x,1/2+y,z
1/2-x,1/2-y,z
1/2+x,1/2-y,1/2-z
1/2-x,1/2+y,1/2-z
1/2-x,1/2-y,-z
1/2+x,1/2+y,-z
1/2-x,1/2+y,1/2+z
1/2+x,1/2-y,1/2+z
loop_
_atom_site_type_symbol
_atom_site_label
_atom_site_fract_x
_atom_site_fract_y
_atom_site_fract_z
Si Si1 0.934286 0.966116 0.109700
Si Si2 0.875148 0.423233 0.889227
Si Si3 0.392942 0.131719 0.113008
Si Si4 0.910470 0.143557 0.791440
Si Si5 0.016760 0.708175 0.111890
Si Si6 0.315378 0.784874 0.237514
O O1 0.921815 0.879386 0.178709
O O2 0.896625 0.052690 0.146161
O O3 0.918918 0.938755 0.000000
O O4 0.000000 0.000000 0.122472
O O5 0.885312 0.526783 0.853167
O O6 0.935690 0.370769 0.870486
O O7 0.822612 0.374457 0.830604
O O8 0.856662 0.421393 0.000000
O O9 0.454807 0.170940 0.152669
O O10 0.340300 0.190808 0.157289
O O11 0.390091 0.140732 0.000000
O O12 0.966411 0.198560 0.833010
O O13 0.852324 0.202119 0.807216
O O14 0.011335 0.733123 0.000000
O O15 0.250000 0.750000 0.246869
#
# Coordination Sequence:
#
# PCOD8277032 Si02
#       6
#    16  16  16  16  16  16
#     4  10  22  38  60  89 123 155 194 249 309 367
#     4   9  19  39  63  92 124 153 192 242 300 366
#     4  10  21  37  62  93 125 157 189 238 303 368
#     4  10  21  38  61  87 120 159 202 248 302 364
#     4   9  18  33  63  98 127 153 186 235 303 377
#     4  11  25  41  60  83 118 164 211 256 294 342
#
# _framework density 20.732956000000001
#
# number of rings (size 3 to 8) (size 9 to 14) (size 15 to 20)
#    0.000    2.167    0.000    2.500    4.667    6.000 
#    6.000    3.333    0.000    0.000    0.000    0.000 
#    0.000    1.333    0.000    0.000    0.000    0.000 
#
# Total GULP energy -595238.574744 kJ/mol
# GULP energy per Si atom -12400.803641 kJ/mol
# Density = 2.068577 g / cm^3
# Si number density = 20.732956 Si / 1000 Ang^3
#
#
#
# Elastic Constant Matrix: (Units=GPa)
#
#
# Indices 1 2 3 4 5 6 
#
# 1 131.8564 59.8656 40.9725 0.0000 0.0000 0.0000
# 2 59.8656 126.2014 39.1309 0.0000 0.0000 0.0000
# 3 40.9725 39.1309 77.6870 0.0000 0.0000 0.0000
# 4 0.0000 0.0000 0.0000 37.4439 0.0000 0.0000
# 5 0.0000 0.0000 0.0000 0.0000 23.6847 0.0000
# 6 0.0000 0.0000 0.0000 0.0000 0.0000 21.2141
#
#
#
# Elastic Compliance Matrix: (Units=1/GPa)
#
#
# Indices 1 2 3 4 5 6 
#
# 1 0.010439 -0.003845 -0.003569 0.000000 0.000000 0.000000
# 2 -0.003845 0.010807 -0.003415 0.000000 0.000000 0.000000
# 3 -0.003569 -0.003415 0.016475 0.000000 0.000000 0.000000
# 4 0.000000 0.000000 0.000000 0.026707 0.000000 0.000000
# 5 0.000000 0.000000 0.000000 0.000000 0.042221 0.000000
# 6 0.000000 0.000000 0.000000 0.000000 0.000000 0.047138
#
#
# Mechanical properties :
#
#
# Convention : Reuss Voigt Hill
#
# Bulk Modulus (GPa) = 62.25990 68.40919 65.33455
# Shear Modulus (GPa) = 27.65503 29.52028 28.58766
#
# Velocity S-wave (km/s) = 3.65618 3.77747 3.71732
# Velocity P-wave (km/s) = 6.92229 7.21753 7.07145
#
# Compressibility (1/GPa) = 0.01606170
#
# Stress axis : x y z
#
# Youngs Moduli (GPa) = 95.79709 92.53334 60.69957
#
# Poissons Ratio (x) = 0.35582 0.21661
# Poissons Ratio (y) = 0.36837 0.20731
# Poissons Ratio (z) = 0.34186 0.31604
#
# Static dielectric constant tensor:
#      x y z
#    x 3.327530 0.000000 0.000000 
#    y 0.000000 4.061170 0.000000 
#    z 0.000000 0.000000 3.879580 
# 
# 
# High freq. dielectric constant tensor:
#      x y z
#    x 1.763220 0.000000 0.000000 
#    y 0.000000 1.831770 0.000000 
#    z 0.000000 0.000000 1.827010 
# 
# From -- ./inp_files/31212.got.cif
#   From: 2010.03.12/outbox.cif.g09.slc.cpg/sg66_16_cif.got.tgz:31212.got - 2010.04.10 21:57:39.
