data_PCOD8277660
_publ_section_title
;
Structure prediction by ZEFSAII (Michael W. Deem and Ramdas Pophale) SiO2 
 PCOD8277660
Probable space group: C C C M
;
_chemical_formula_sum "Si O2"
_cell_formula_units_Z 80
_cell_length_a 15.591018
_cell_length_b 28.717302
_cell_length_c 8.486322
_cell_angle_alpha 90.000000
_cell_angle_beta 90.000000
_cell_angle_gamma 90.000000
_cell_volume 3799.597687
_symmetry_space_group_name_H-M "C C C M"
_symmetry_group_IT_number 66
_symmetry_cell_setting 'orthorhombic'
loop_
_space_group_symop_operation_xyz
x,y,z
-x,-y,z
x,-y,1/2-z
-x,y,1/2-z
-x,-y,-z
x,y,-z
-x,y,1/2+z
x,-y,1/2+z
1/2+x,1/2+y,z
1/2-x,1/2-y,z
1/2+x,1/2-y,1/2-z
1/2-x,1/2+y,1/2-z
1/2-x,1/2-y,-z
1/2+x,1/2+y,-z
1/2-x,1/2+y,1/2+z
1/2+x,1/2-y,1/2+z
loop_
_atom_site_type_symbol
_atom_site_label
_atom_site_fract_x
_atom_site_fract_y
_atom_site_fract_z
Si Si1 0.661936 0.299606 0.183458
Si Si2 0.411297 0.891381 0.185778
Si Si3 0.412027 0.610710 0.685708
Si Si4 0.252888 0.948478 0.313925
Si Si5 0.347216 0.797305 0.316157
O O1 0.594762 0.339100 0.230859
O O2 0.622779 0.249073 0.224237
O O3 0.747871 0.308459 0.283220
O O4 0.684845 0.302161 0.000000
O O5 0.500000 0.913401 0.250000
O O6 0.334098 0.924413 0.235475
O O7 0.403935 0.840237 0.259994
O O8 0.413314 0.887289 0.000000
O O9 0.500000 0.587674 0.750000
O O10 0.415758 0.617222 0.500000
O O11 0.333040 0.578412 0.737153
O O12 0.265740 0.948258 0.500000
O O13 0.244009 0.000000 0.250000
O O14 0.360880 0.789170 0.500000
#
# Coordination Sequence:
#
# PCOD8277660 Si02
#       5
#    16  16  16  16  16
#     4  11  21  36  61  93 129 173 220 263 317 377
#     4  12  25  43  68  98 132 170 216 266 322 385
#     4  11  24  42  66  96 132 171 216 267 322 382
#     4  11  25  46  71  97 129 167 212 267 328 387
#     4  11  21  37  61  92 131 173 217 263 317 377
#
# _framework density 21.054860000000001
#
# number of rings (size 3 to 8) (size 9 to 14) (size 15 to 20)
#    0.000    0.800    2.000    7.800    0.000    4.000 
#    0.000    8.000    0.000    0.000    0.000    0.000 
#    0.000    0.000    0.000    0.000    0.000    0.000 
#
# Total GULP energy -496262.785207 kJ/mol
# GULP energy per Si atom -12406.569630 kJ/mol
# Density = 2.100694 g / cm^3
# Si number density = 21.054860 Si / 1000 Ang^3
#
#
#
# Elastic Constant Matrix: (Units=GPa)
#
#
# Indices 1 2 3 4 5 6 
#
# 1 132.3483 54.0795 38.0820 0.0000 0.0000 0.0000
# 2 54.0795 117.0632 32.2656 0.0000 0.0000 0.0000
# 3 38.0820 32.2656 120.2555 0.0000 0.0000 0.0000
# 4 0.0000 0.0000 0.0000 25.1913 0.0000 0.0000
# 5 0.0000 0.0000 0.0000 0.0000 36.3346 0.0000
# 6 0.0000 0.0000 0.0000 0.0000 0.0000 46.3609
#
#
#
# Elastic Compliance Matrix: (Units=1/GPa)
#
#
# Indices 1 2 3 4 5 6 
#
# 1 0.009752 -0.003946 -0.002030 0.000000 0.000000 0.000000
# 2 -0.003946 0.010821 -0.001654 0.000000 0.000000 0.000000
# 3 -0.002030 -0.001654 0.009402 0.000000 0.000000 0.000000
# 4 0.000000 0.000000 0.000000 0.039696 0.000000 0.000000
# 5 0.000000 0.000000 0.000000 0.000000 0.027522 0.000000
# 6 0.000000 0.000000 0.000000 0.000000 0.000000 0.021570
#
#
# Mechanical properties :
#
#
# Convention : Reuss Voigt Hill
#
# Bulk Modulus (GPa) = 67.94924 68.72458 68.33691
# Shear Modulus (GPa) = 35.99003 37.92670 36.95837
#
# Velocity S-wave (km/s) = 4.13891 4.24881 4.19422
# Velocity P-wave (km/s) = 7.42855 7.53534 7.48214
#
# Compressibility (1/GPa) = 0.01471687
#
# Stress axis : x y z
#
# Youngs Moduli (GPa) = 102.54189 92.41238 106.35935
#
# Poissons Ratio (x) = 0.36464 0.21586
# Poissons Ratio (y) = 0.40461 0.17590
# Poissons Ratio (z) = 0.20812 0.15284
#
# Static dielectric constant tensor:
#      x y z
#    x 3.747740 0.000000 0.000000 
#    y 0.000000 3.890770 0.000000 
#    z 0.000000 0.000000 3.894920 
# 
# 
# High freq. dielectric constant tensor:
#      x y z
#    x 1.828140 0.000000 0.000000 
#    y 0.000000 1.823200 0.000000 
#    z 0.000000 0.000000 1.842840 
# 
# From -- ./inp_files/6691.got.cif
#   From: 2010.03.12/outbox.cif.g09.slc.cpg/sg66_4_cif.got.tgz:6691.got - 2010.04.10 21:57:39.
