data_PCOD8277227
_publ_section_title
;
Structure prediction by ZEFSAII (Michael W. Deem and Ramdas Pophale) SiO2 
 PCOD8277227
Probable space group: C C C M
;
_chemical_formula_sum "Si O2"
_cell_formula_units_Z 72
_cell_length_a 9.492363
_cell_length_b 27.184284
_cell_length_c 14.299584
_cell_angle_alpha 90.000000
_cell_angle_beta 90.000000
_cell_angle_gamma 90.000000
_cell_volume 3689.908864
_symmetry_space_group_name_H-M "C C C M"
_symmetry_group_IT_number 66
_symmetry_cell_setting 'orthorhombic'
loop_
_space_group_symop_operation_xyz
x,y,z
-x,-y,z
x,-y,1/2-z
-x,y,1/2-z
-x,-y,-z
x,y,-z
-x,y,1/2+z
x,-y,1/2+z
1/2+x,1/2+y,z
1/2-x,1/2-y,z
1/2+x,1/2-y,1/2-z
1/2-x,1/2+y,1/2-z
1/2-x,1/2-y,-z
1/2+x,1/2+y,-z
1/2-x,1/2+y,1/2+z
1/2+x,1/2-y,1/2+z
loop_
_atom_site_type_symbol
_atom_site_label
_atom_site_fract_x
_atom_site_fract_y
_atom_site_fract_z
Si Si1 0.287714 0.950039 0.000000
Si Si2 0.913912 0.196568 0.155851
Si Si3 0.765922 0.436853 0.500000
Si Si4 0.410477 0.196084 0.657728
Si Si5 0.477548 0.620868 0.000000
Si Si6 0.500992 0.907212 0.137427
O O1 0.381128 0.941909 0.093215
O O2 0.233890 0.005485 0.000000
O O3 0.154971 0.914710 0.000000
O O4 0.752200 0.185507 0.180979
O O5 0.926447 0.250887 0.106437
O O6 0.000000 0.194108 0.250000
O O7 0.976377 0.155279 0.089872
O O8 0.618154 0.410154 0.500000
O O9 0.849111 0.422341 0.405452
O O10 0.500000 0.200836 0.750000
O O11 0.469587 0.148823 0.602147
O O12 0.500000 0.912348 0.250000
#
# Coordination Sequence:
#
# PCOD8277227 Si02
#       6
#     8  16   8  16   8  16
#     4  11  23  44  61  87 117 158 200 257 298 347
#     4  10  22  39  61  90 127 159 195 238 294 357
#     4  11  27  40  60  87 124 149 206 258 297 343
#     4   9  19  37  65  90 121 156 196 240 293 349
#     4  12  25  39  60  90 119 167 197 237 303 362
#     4  10  21  41  67  91 115 155 198 246 301 355
#
# _framework density 19.512678000000001
#
# number of rings (size 3 to 8) (size 9 to 14) (size 15 to 20)
#    0.000    1.778    2.222    1.667    6.222    5.333 
#    0.000    1.111    0.000    4.000    0.000    0.000 
#    0.000    0.000    0.000    0.000    0.000    0.000 
#
# Total GULP energy -446158.491843 kJ/mol
# GULP energy per Si atom -12393.291440 kJ/mol
# Density = 1.946827 g / cm^3
# Si number density = 19.512678 Si / 1000 Ang^3
#
#
#
# Elastic Constant Matrix: (Units=GPa)
#
#
# Indices 1 2 3 4 5 6 
#
# 1 103.4596 46.4892 43.9555 0.0000 0.0000 0.0000
# 2 46.4892 150.0390 45.2346 0.0000 0.0000 0.0000
# 3 43.9555 45.2346 113.4203 0.0000 0.0000 0.0000
# 4 0.0000 0.0000 0.0000 268.7782 0.0000 0.0000
# 5 0.0000 0.0000 0.0000 0.0000 13.4527 0.0000
# 6 0.0000 0.0000 0.0000 0.0000 0.0000 43.7059
#
#
#
# Elastic Compliance Matrix: (Units=1/GPa)
#
#
# Indices 1 2 3 4 5 6 
#
# 1 0.012489 -0.002740 -0.003747 0.000000 0.000000 0.000000
# 2 -0.002740 0.008177 -0.002199 0.000000 0.000000 0.000000
# 3 -0.003747 -0.002199 0.011146 0.000000 0.000000 0.000000
# 4 0.000000 0.000000 0.000000 0.003721 0.000000 0.000000
# 5 0.000000 0.000000 0.000000 0.000000 0.074335 0.000000
# 6 0.000000 0.000000 0.000000 0.000000 0.000000 0.022880
#
#
# Mechanical properties :
#
#
# Convention : Reuss Voigt Hill
#
# Bulk Modulus (GPa) = 69.25701 70.91973 70.08837
# Shear Modulus (GPa) = 32.27197 80.60333 56.43765
#
# Velocity S-wave (km/s) = 4.07123 6.43412 5.38390
# Velocity P-wave (km/s) = 7.59409 9.57191 8.63978
#
# Compressibility (1/GPa) = 0.01443897
#
# Stress axis : x y z
#
# Youngs Moduli (GPa) = 80.07163 122.29505 89.71717
#
# Poissons Ratio (x) = 0.33507 0.33619
# Poissons Ratio (y) = 0.21939 0.19732
# Poissons Ratio (z) = 0.30005 0.26897
#
# Static dielectric constant tensor:
#      x y z
#    x 3.641400 0.000000 0.000000 
#    y 0.000000 4.175650 0.000000 
#    z 0.000000 0.000000 3.490010 
# 
# 
# High freq. dielectric constant tensor:
#      x y z
#    x 1.764450 0.000000 0.000000 
#    y 0.000000 1.782930 0.000000 
#    z 0.000000 0.000000 1.744160 
# 
# From -- ./inp_files/24524.got.cif
#   From: 2010.03.12/outbox.cif.g09.slc.cpg/sg66_13_cif.got.tgz:24524.got - 2010.04.10 21:57:39.
