data_PCOD8277518
_publ_section_title
;
Structure prediction by ZEFSAII (Michael W. Deem and Ramdas Pophale) SiO2 
 PCOD8277518
Probable space group: C C C M
;
_chemical_formula_sum "Si O2"
_cell_formula_units_Z 52
_cell_length_a 9.099274
_cell_length_b 19.579657
_cell_length_c 14.709169
_cell_angle_alpha 90.000000
_cell_angle_beta 90.000000
_cell_angle_gamma 90.000000
_cell_volume 2620.595314
_symmetry_space_group_name_H-M "C C C M"
_symmetry_group_IT_number 66
_symmetry_cell_setting 'orthorhombic'
loop_
_space_group_symop_operation_xyz
x,y,z
-x,-y,z
x,-y,1/2-z
-x,y,1/2-z
-x,-y,-z
x,y,-z
-x,y,1/2+z
x,-y,1/2+z
1/2+x,1/2+y,z
1/2-x,1/2-y,z
1/2+x,1/2-y,1/2-z
1/2-x,1/2+y,1/2-z
1/2-x,1/2-y,-z
1/2+x,1/2+y,-z
1/2-x,1/2+y,1/2+z
1/2+x,1/2-y,1/2+z
loop_
_atom_site_type_symbol
_atom_site_label
_atom_site_fract_x
_atom_site_fract_y
_atom_site_fract_z
Si Si1 0.028568 0.191670 0.000000
Si Si2 0.476797 0.919971 0.852813
Si Si3 0.350564 0.410577 0.401121
Si Si4 0.500000 0.500000 0.250000
Si Si5 0.370157 0.160823 0.000000
O O1 0.947212 0.159464 0.089761
O O2 0.199109 0.174755 0.000000
O O3 0.021386 0.273418 0.000000
O O4 0.500000 0.897648 0.750000
O O5 0.319413 0.893478 0.886710
O O6 0.601200 0.882606 0.910108
O O7 0.500000 0.000000 0.867228
O O8 0.367007 0.449265 0.500000
O O9 0.398482 0.454999 0.315060
#
# Coordination Sequence:
#
# PCOD8277518 Si02
#       5
#     8  16  16   4   8
#     4   9  25  43  63  91 128 170 217 262 331 385
#     4  11  24  39  65  98 127 167 216 269 325 386
#     4  10  24  41  63  96 130 175 207 270 328 382
#     4  12  22  36  70  98 136 164 218 272 320 390
#     4  11  22  46  63  89 128 170 213 275 318 389
#
# _framework density 19.84282
#
# number of rings (size 3 to 8) (size 9 to 14) (size 15 to 20)
#    0.923    0.615    1.538    2.769    8.615    2.462 
#    2.769    0.000    0.000    0.000    0.000    0.000 
#    0.000    0.000    0.000    0.000    0.000    0.000 
#
# Total GULP energy -322212.757860 kJ/mol
# GULP energy per Si atom -12392.798379 kJ/mol
# Density = 1.979766 g / cm^3
# Si number density = 19.842820 Si / 1000 Ang^3
#
#
#
# Elastic Constant Matrix: (Units=GPa)
#
#
# Indices 1 2 3 4 5 6 
#
# 1 95.9760 24.4861 30.5425 0.0000 0.0000 0.0000
# 2 24.4861 78.8642 55.7996 0.0000 0.0000 0.0000
# 3 30.5425 55.7996 156.3094 0.0000 0.0000 0.0000
# 4 0.0000 0.0000 0.0000 -3.3692 0.0000 0.0000
# 5 0.0000 0.0000 0.0000 0.0000 34.3287 0.0000
# 6 0.0000 0.0000 0.0000 0.0000 0.0000 24.8714
#
#
#
# Elastic Compliance Matrix: (Units=1/GPa)
#
#
# Indices 1 2 3 4 5 6 
#
# 1 0.011510 -0.002652 -0.001302 0.000000 0.000000 0.000000
# 2 -0.002652 0.017576 -0.005756 0.000000 0.000000 0.000000
# 3 -0.001302 -0.005756 0.008707 0.000000 0.000000 0.000000
# 4 0.000000 0.000000 0.000000 -0.296803 0.000000 0.000000
# 5 0.000000 0.000000 0.000000 0.000000 0.029130 0.000000
# 6 0.000000 0.000000 0.000000 0.000000 0.000000 0.040207
#
#
# Mechanical properties :
#
#
# Convention : Reuss Voigt Hill
#
# Bulk Modulus (GPa) = 54.43082 61.42287 57.92685
# Shear Modulus (GPa) = -30.46424 25.85428 -2.30498
#
# Velocity S-wave (km/s) = -3.92251 3.61356 -1.07895
# Velocity P-wave (km/s) = 2.64116 6.95933 5.26346
#
# Compressibility (1/GPa) = 0.01837194
#
# Stress axis : x y z
#
# Youngs Moduli (GPa) = 86.87804 56.89505 114.85206
#
# Poissons Ratio (x) = 0.15091 0.14957
# Poissons Ratio (y) = 0.23044 0.66110
# Poissons Ratio (z) = 0.11314 0.32749
#
# Static dielectric constant tensor:
#      x y z
#    x 3.664810 0.000000 0.000000 
#    y 0.000000 3.518860 0.000000 
#    z 0.000000 0.000000 3.921980 
# 
# 
# High freq. dielectric constant tensor:
#      x y z
#    x 1.792210 0.000000 0.000000 
#    y 0.000000 1.752590 0.000000 
#    z 0.000000 0.000000 1.779610 
# 
# From -- ./inp_files/23773.got.cif
#   From: 2010.03.12/outbox.cif.g09.slc.cpg/sg66_12_cif.got.tgz:23773.got - 2010.04.10 21:57:39.
