data_PCOD8277607
_publ_section_title
;
Structure prediction by ZEFSAII (Michael W. Deem and Ramdas Pophale) SiO2 
 PCOD8277607
Probable space group: C C C M
;
_chemical_formula_sum "Si O2"
_cell_formula_units_Z 64
_cell_length_a 10.099730
_cell_length_b 16.110109
_cell_length_c 19.748659
_cell_angle_alpha 90.000000
_cell_angle_beta 90.000000
_cell_angle_gamma 90.000000
_cell_volume 3213.259895
_symmetry_space_group_name_H-M "C C C M"
_symmetry_group_IT_number 66
_symmetry_cell_setting 'orthorhombic'
loop_
_space_group_symop_operation_xyz
x,y,z
-x,-y,z
x,-y,1/2-z
-x,y,1/2-z
-x,-y,-z
x,y,-z
-x,y,1/2+z
x,-y,1/2+z
1/2+x,1/2+y,z
1/2-x,1/2-y,z
1/2+x,1/2-y,1/2-z
1/2-x,1/2+y,1/2-z
1/2-x,1/2-y,-z
1/2+x,1/2+y,-z
1/2-x,1/2+y,1/2+z
1/2+x,1/2-y,1/2+z
loop_
_atom_site_type_symbol
_atom_site_label
_atom_site_fract_x
_atom_site_fract_y
_atom_site_fract_z
Si Si1 0.038307 0.757677 0.923072
Si Si2 0.239143 0.611779 0.923520
Si Si3 0.879685 0.707314 0.196397
Si Si4 0.349373 0.022187 0.175108
O O1 0.123700 0.676245 0.903975
O O2 0.121870 0.841580 0.915646
O O3 0.921506 0.762907 0.868177
O O4 0.984243 0.750334 0.000000
O O5 0.240139 0.530504 0.876553
O O6 0.219237 0.580743 0.000000
O O7 0.750000 0.750000 0.230697
O O8 0.832330 0.619940 0.165900
O O9 0.000000 0.697937 0.250000
O O10 0.500000 0.000000 0.161043
O O11 0.302166 0.000000 0.250000
#
# Coordination Sequence:
#
# PCOD8277607 Si02
#       4
#    16  16  16  16
#     4   9  19  37  61  91 124 161 201 243 301 367
#     4   9  18  34  63  93 121 158 199 248 300 356
#     4  12  26  40  62  90 122 164 202 254 310 360
#     4  11  20  36  58  88 120 155 203 259 294 345
#
# _framework density 19.917466999999998
#
# number of rings (size 3 to 8) (size 9 to 14) (size 15 to 20)
#    0.000    1.750    5.000    1.500    7.000    2.000 
#    0.000    1.250    0.000    3.000    0.000    0.000 
#    0.000    0.000    0.000    0.000    0.000    0.000 
#
# Total GULP energy -396734.785535 kJ/mol
# GULP energy per Si atom -12397.962048 kJ/mol
# Density = 1.987213 g / cm^3
# Si number density = 19.917467 Si / 1000 Ang^3
#
#
#
# Elastic Constant Matrix: (Units=GPa)
#
#
# Indices 1 2 3 4 5 6 
#
# 1 62.7768 43.5591 38.9991 0.0000 0.0000 0.0000
# 2 43.5591 118.4083 51.3666 0.0000 0.0000 0.0000
# 3 38.9991 51.3666 116.6019 0.0000 0.0000 0.0000
# 4 0.0000 0.0000 0.0000 30.9778 0.0000 0.0000
# 5 0.0000 0.0000 0.0000 0.0000 21.1818 0.0000
# 6 0.0000 0.0000 0.0000 0.0000 0.0000 19.2045
#
#
#
# Elastic Compliance Matrix: (Units=1/GPa)
#
#
# Indices 1 2 3 4 5 6 
#
# 1 0.023547 -0.006485 -0.005019 0.000000 0.000000 0.000000
# 2 -0.006485 0.012227 -0.003217 0.000000 0.000000 0.000000
# 3 -0.005019 -0.003217 0.011672 0.000000 0.000000 0.000000
# 4 0.000000 0.000000 0.000000 0.032281 0.000000 0.000000
# 5 0.000000 0.000000 0.000000 0.000000 0.047210 0.000000
# 6 0.000000 0.000000 0.000000 0.000000 0.000000 0.052071
#
#
# Mechanical properties :
#
#
# Convention : Reuss Voigt Hill
#
# Bulk Modulus (GPa) = 55.54413 62.84851 59.19632
# Shear Modulus (GPa) = 23.31523 25.19696 24.25609
#
# Velocity S-wave (km/s) = 3.42510 3.56064 3.49353
# Velocity P-wave (km/s) = 6.60223 6.96614 6.78663
#
# Compressibility (1/GPa) = 0.01800370
#
# Stress axis : x y z
#
# Youngs Moduli (GPa) = 42.46800 81.78820 85.67478
#
# Poissons Ratio (x) = 0.53041 0.42998
# Poissons Ratio (y) = 0.27541 0.27563
# Poissons Ratio (z) = 0.21314 0.26313
#
# Static dielectric constant tensor:
#      x y z
#    x 3.351250 0.000000 0.000000 
#    y 0.000000 3.731540 0.000000 
#    z 0.000000 0.000000 3.662010 
# 
# 
# High freq. dielectric constant tensor:
#      x y z
#    x 1.741780 0.000000 0.000000 
#    y 0.000000 1.771480 0.000000 
#    z 0.000000 0.000000 1.786070 
# 
# From -- ./inp_files/39793.got.cif
#   From: 2010.03.12/outbox.cif.g09.slc.cpg/sg66_20_cif.got.tgz:39793.got - 2010.04.10 21:57:39.
