data_PCOD8277778
_publ_section_title
;
Structure prediction by ZEFSAII (Michael W. Deem and Ramdas Pophale) SiO2 
 PCOD8277778
Probable space group: C C C M
;
_chemical_formula_sum "Si O2"
_cell_formula_units_Z 88
_cell_length_a 14.912908
_cell_length_b 21.749533
_cell_length_c 13.468397
_cell_angle_alpha 90.000000
_cell_angle_beta 90.000000
_cell_angle_gamma 90.000000
_cell_volume 4368.458198
_symmetry_space_group_name_H-M "C C C M"
_symmetry_group_IT_number 66
_symmetry_cell_setting 'orthorhombic'
loop_
_space_group_symop_operation_xyz
x,y,z
-x,-y,z
x,-y,1/2-z
-x,y,1/2-z
-x,-y,-z
x,y,-z
-x,y,1/2+z
x,-y,1/2+z
1/2+x,1/2+y,z
1/2-x,1/2-y,z
1/2+x,1/2-y,1/2-z
1/2-x,1/2+y,1/2-z
1/2-x,1/2-y,-z
1/2+x,1/2+y,-z
1/2-x,1/2+y,1/2+z
1/2+x,1/2-y,1/2+z
loop_
_atom_site_type_symbol
_atom_site_label
_atom_site_fract_x
_atom_site_fract_y
_atom_site_fract_z
Si Si1 0.589700 0.584262 0.500000
Si Si2 0.076175 0.550350 0.615185
Si Si3 0.891913 0.059925 0.500000
Si Si4 0.794779 0.153641 0.156809
Si Si5 0.500000 0.849944 0.250000
Si Si6 0.729601 0.444567 0.316174
Si Si7 0.874268 0.276585 0.888382
O O1 0.483521 0.600452 0.500000
O O2 0.592028 0.511856 0.500000
O O3 0.640372 0.608705 0.403517
O O4 0.066328 0.568837 0.500000
O O5 0.177146 0.527739 0.638462
O O6 0.000000 0.500000 0.642364
O O7 0.067226 0.608789 0.686067
O O8 0.836643 0.076625 0.402356
O O9 0.760903 0.118380 0.254310
O O10 0.848290 0.217008 0.177535
O O11 0.705985 0.174257 0.097786
O O12 0.454494 0.807958 0.168298
O O13 0.688711 0.500000 0.250000
O O14 0.902884 0.255910 0.000000
#
# Coordination Sequence:
#
# PCOD8277778 Si02
#       7
#     8  16   8  16   8  16  16
#     4  11  22  43  66  91 126 166 223 279 321 379
#     4  11  24  41  65  97 136 175 213 264 330 403
#     4  11  26  40  61  98 131 166 214 274 334 396
#     4  11  22  43  70  91 127 171 221 275 324 385
#     4  12  23  40  64 100 135 168 222 272 328 394
#     4  12  23  41  67  95 131 172 211 265 337 396
#     4  11  23  41  69  98 125 172 228 272 320 387
#
# _framework density 20.144407999999999
#
# number of rings (size 3 to 8) (size 9 to 14) (size 15 to 20)
#    0.000    0.727    6.364    2.455    0.000    2.182 
#    0.000    0.000    2.000    2.182    0.000    0.000 
#    0.000    0.000    0.000    0.000    0.000    0.000 
#
# Total GULP energy -545421.112047 kJ/mol
# GULP energy per Si atom -12395.934365 kJ/mol
# Density = 2.009856 g / cm^3
# Si number density = 20.144408 Si / 1000 Ang^3
#
#
#
# Elastic Constant Matrix: (Units=GPa)
#
#
# Indices 1 2 3 4 5 6 
#
# 1 112.6882 23.9341 35.2416 0.0000 0.0000 0.0000
# 2 23.9341 80.8462 38.0189 0.0000 0.0000 0.0000
# 3 35.2416 38.0189 109.0307 0.0000 0.0000 0.0000
# 4 0.0000 0.0000 0.0000 42.3518 0.0000 0.0000
# 5 0.0000 0.0000 0.0000 0.0000 31.6679 0.0000
# 6 0.0000 0.0000 0.0000 0.0000 0.0000 31.1781
#
#
#
# Elastic Compliance Matrix: (Units=1/GPa)
#
#
# Indices 1 2 3 4 5 6 
#
# 1 0.010071 -0.001735 -0.002650 0.000000 0.000000 0.000000
# 2 -0.001735 0.015094 -0.004702 0.000000 0.000000 0.000000
# 3 -0.002650 -0.004702 0.011668 0.000000 0.000000 0.000000
# 4 0.000000 0.000000 0.000000 0.023612 0.000000 0.000000
# 5 0.000000 0.000000 0.000000 0.000000 0.031578 0.000000
# 6 0.000000 0.000000 0.000000 0.000000 0.000000 0.032074
#
#
# Mechanical properties :
#
#
# Convention : Reuss Voigt Hill
#
# Bulk Modulus (GPa) = 53.59690 55.21715 54.40702
# Shear Modulus (GPa) = 33.67176 34.73092 34.20134
#
# Velocity S-wave (km/s) = 4.09286 4.15673 4.12492
# Velocity P-wave (km/s) = 6.99996 7.10690 7.05363
#
# Compressibility (1/GPa) = 0.01865780
#
# Stress axis : x y z
#
# Youngs Moduli (GPa) = 99.29068 66.25026 85.70369
#
# Poissons Ratio (x) = 0.11496 0.22714
# Poissons Ratio (y) = 0.17230 0.40302
# Poissons Ratio (z) = 0.26315 0.31154
#
# Static dielectric constant tensor:
#      x y z
#    x 3.796520 0.000000 0.000000 
#    y 0.000000 3.634580 0.000000 
#    z 0.000000 0.000000 3.457260 
# 
# 
# High freq. dielectric constant tensor:
#      x y z
#    x 1.785550 0.000000 0.000000 
#    y 0.000000 1.781450 0.000000 
#    z 0.000000 0.000000 1.790530 
# 
# From -- ./inp_files/28265.got.cif
#   From: 2010.03.12/outbox.cif.g09.slc.cpg/sg66_15_cif.got.tgz:28265.got - 2010.04.10 21:57:39.
