data_PCOD8277643
_publ_section_title
;
Structure prediction by ZEFSAII (Michael W. Deem and Ramdas Pophale) SiO2 
 PCOD8277643
Probable space group: C C C M
;
_chemical_formula_sum "Si O2"
_cell_formula_units_Z 80
_cell_length_a 25.715908
_cell_length_b 18.388646
_cell_length_c 8.883785
_cell_angle_alpha 90.000000
_cell_angle_beta 90.000000
_cell_angle_gamma 90.000000
_cell_volume 4200.970725
_symmetry_space_group_name_H-M "C C C M"
_symmetry_group_IT_number 66
_symmetry_cell_setting 'orthorhombic'
loop_
_space_group_symop_operation_xyz
x,y,z
-x,-y,z
x,-y,1/2-z
-x,y,1/2-z
-x,-y,-z
x,y,-z
-x,y,1/2+z
x,-y,1/2+z
1/2+x,1/2+y,z
1/2-x,1/2-y,z
1/2+x,1/2-y,1/2-z
1/2-x,1/2+y,1/2-z
1/2-x,1/2-y,-z
1/2+x,1/2+y,-z
1/2-x,1/2+y,1/2+z
1/2+x,1/2-y,1/2+z
loop_
_atom_site_type_symbol
_atom_site_label
_atom_site_fract_x
_atom_site_fract_y
_atom_site_fract_z
Si Si1 0.949479 0.351422 0.668232
Si Si2 0.341843 0.153481 0.320990
Si Si3 0.549102 0.320653 0.664264
Si Si4 0.161924 0.807190 0.678237
Si Si5 0.248104 0.925275 0.678051
O O1 0.944164 0.384280 0.500000
O O2 0.898736 0.370243 0.765237
O O3 0.956907 0.265547 0.656618
O O4 0.000000 0.385758 0.750000
O O5 0.340543 0.153124 0.500000
O O6 0.324573 0.232404 0.261265
O O7 0.302348 0.094509 0.255332
O O8 0.500000 0.355684 0.750000
O O9 0.546839 0.355986 0.500000
O O10 0.605840 0.337867 0.736230
O O11 0.158741 0.790384 0.500000
O O12 0.205657 0.864754 0.719367
O O13 0.255452 0.932874 0.500000
O O14 0.227839 0.000000 0.750000
#
# Coordination Sequence:
#
# PCOD8277643 Si02
#       5
#    16  16  16  16  16
#     4   9  16  28  47  74 107 139 171 210 257 305
#     4  11  21  33  53  81 109 138 175 216 258 310
#     4   8  14  25  43  70 101 131 163 201 249 301
#     4   9  19  35  54  76 105 139 173 215 266 313
#     4  11  23  39  56  74 101 137 176 220 270 319
#
# _framework density 19.043218
#
# number of rings (size 3 to 8) (size 9 to 14) (size 15 to 20)
#    0.000    2.400    0.000    4.800    0.000    8.800 
#    0.000    0.000    0.000    1.200    0.000    8.400 
#    0.000    0.000    0.000    0.000    0.000    0.000 
#
# Total GULP energy -495884.236456 kJ/mol
# GULP energy per Si atom -12397.105911 kJ/mol
# Density = 1.899987 g / cm^3
# Si number density = 19.043218 Si / 1000 Ang^3
#
#
#
# Elastic Constant Matrix: (Units=GPa)
#
#
# Indices 1 2 3 4 5 6 
#
# 1 104.4913 18.3521 35.7426 0.0000 0.0000 0.0000
# 2 18.3521 33.1713 21.6729 0.0000 0.0000 0.0000
# 3 35.7426 21.6729 104.0436 0.0000 0.0000 0.0000
# 4 0.0000 0.0000 0.0000 19.7128 0.0000 0.0000
# 5 0.0000 0.0000 0.0000 0.0000 33.0691 0.0000
# 6 0.0000 0.0000 0.0000 0.0000 0.0000 2.3933
#
#
#
# Elastic Compliance Matrix: (Units=1/GPa)
#
#
# Indices 1 2 3 4 5 6 
#
# 1 0.011356 -0.004322 -0.003001 0.000000 0.000000 0.000000
# 2 -0.004322 0.036541 -0.006127 0.000000 0.000000 0.000000
# 3 -0.003001 -0.006127 0.011918 0.000000 0.000000 0.000000
# 4 0.000000 0.000000 0.000000 0.050728 0.000000 0.000000
# 5 0.000000 0.000000 0.000000 0.000000 0.030240 0.000000
# 6 0.000000 0.000000 0.000000 0.000000 0.000000 0.417829
#
#
# Mechanical properties :
#
#
# Convention : Reuss Voigt Hill
#
# Bulk Modulus (GPa) = 30.38067 43.69349 37.03708
# Shear Modulus (GPa) = 8.38246 22.09762 15.24004
#
# Velocity S-wave (km/s) = 2.10032 3.41015 2.83200
# Velocity P-wave (km/s) = 4.67654 6.20481 5.49407
#
# Compressibility (1/GPa) = 0.03291566
#
# Stress axis : x y z
#
# Youngs Moduli (GPa) = 88.06139 27.36665 83.90321
#
# Poissons Ratio (x) = 0.11828 0.25178
# Poissons Ratio (y) = 0.38060 0.51407
# Poissons Ratio (z) = 0.26425 0.16767
#
# Static dielectric constant tensor:
#      x y z
#    x 3.815560 0.000000 0.000000 
#    y 0.000000 2.986330 0.000000 
#    z 0.000000 0.000000 3.629370 
# 
# 
# High freq. dielectric constant tensor:
#      x y z
#    x 1.761710 0.000000 0.000000 
#    y 0.000000 1.683500 0.000000 
#    z 0.000000 0.000000 1.744840 
# 
# From -- ./inp_files/6693.got.cif
#   From: 2010.03.12/outbox.cif.g09.slc.cpg/sg66_4_cif.got.tgz:6693.got - 2010.04.10 21:57:39.
