data_PCOD8277057
_publ_section_title
;
Structure prediction by ZEFSAII (Michael W. Deem and Ramdas Pophale) SiO2 
 PCOD8277057
Probable space group: C C C M
;
_chemical_formula_sum "Si O2"
_cell_formula_units_Z 64
_cell_length_a 15.794439
_cell_length_b 8.277927
_cell_length_c 23.885828
_cell_angle_alpha 90.000000
_cell_angle_beta 90.000000
_cell_angle_gamma 90.000000
_cell_volume 3122.957671
_symmetry_space_group_name_H-M "C C C M"
_symmetry_group_IT_number 66
_symmetry_cell_setting 'orthorhombic'
loop_
_space_group_symop_operation_xyz
x,y,z
-x,-y,z
x,-y,1/2-z
-x,y,1/2-z
-x,-y,-z
x,y,-z
-x,y,1/2+z
x,-y,1/2+z
1/2+x,1/2+y,z
1/2-x,1/2-y,z
1/2+x,1/2-y,1/2-z
1/2-x,1/2+y,1/2-z
1/2-x,1/2-y,-z
1/2+x,1/2+y,-z
1/2-x,1/2+y,1/2+z
1/2+x,1/2-y,1/2+z
loop_
_atom_site_type_symbol
_atom_site_label
_atom_site_fract_x
_atom_site_fract_y
_atom_site_fract_z
Si Si1 0.904826 0.552159 0.500000
Si Si2 0.667972 0.369857 0.000000
Si Si3 0.596676 0.456966 0.395249
Si Si4 0.272477 0.563349 0.187596
Si Si5 0.825306 0.636161 0.900866
O O1 0.910671 0.745844 0.500000
O O2 0.852896 0.493389 0.553601
O O3 0.000000 0.500000 0.500000
O O4 0.750000 0.250000 0.000000
O O5 0.659149 0.482199 0.945306
O O6 0.500000 0.500000 0.405979
O O7 0.634344 0.537691 0.339185
O O8 0.598244 0.261845 0.389029
O O9 0.274914 0.500000 0.250000
O O10 0.250000 0.750000 0.185380
O O11 0.201761 0.458865 0.154955
O O12 0.750000 0.750000 0.923325
#
# Coordination Sequence:
#
# PCOD8277057 Si02
#       5
#     8   8  16  16  16
#     4  12  22  34  56  88 122 151 190 243 294 347
#     4  12  22  36  58  88 121 163 202 241 296 363
#     4  11  22  38  60  88 122 156 196 248 303 357
#     4  11  23  42  64  86 113 153 202 248 296 362
#     4  10  21  38  59  84 114 156 196 235 288 354
#
# _framework density 20.493393000000001
#
# number of rings (size 3 to 8) (size 9 to 14) (size 15 to 20)
#    0.000    1.000    0.000   10.500    0.000    0.500 
#    0.000    0.000    0.000    5.250    0.000    0.000 
#    0.000    0.000    0.000    0.000    0.000    0.000 
#
# Total GULP energy -396709.989529 kJ/mol
# GULP energy per Si atom -12397.187173 kJ/mol
# Density = 2.044675 g / cm^3
# Si number density = 20.493393 Si / 1000 Ang^3
#
#
#
# Elastic Constant Matrix: (Units=GPa)
#
#
# Indices 1 2 3 4 5 6 
#
# 1 88.7491 22.0134 40.0944 0.0000 0.0000 0.0000
# 2 22.0134 139.3104 47.5038 0.0000 0.0000 0.0000
# 3 40.0944 47.5038 158.9104 0.0000 0.0000 0.0000
# 4 0.0000 0.0000 0.0000 3.2849 0.0000 0.0000
# 5 0.0000 0.0000 0.0000 0.0000 65.8299 0.0000
# 6 0.0000 0.0000 0.0000 0.0000 0.0000 28.9847
#
#
#
# Elastic Compliance Matrix: (Units=1/GPa)
#
#
# Indices 1 2 3 4 5 6 
#
# 1 0.012849 -0.001030 -0.002934 0.000000 0.000000 0.000000
# 2 -0.001030 0.008076 -0.002154 0.000000 0.000000 0.000000
# 3 -0.002934 -0.002154 0.007677 0.000000 0.000000 0.000000
# 4 0.000000 0.000000 0.000000 0.304421 0.000000 0.000000
# 5 0.000000 0.000000 0.000000 0.000000 0.015191 0.000000
# 6 0.000000 0.000000 0.000000 0.000000 0.000000 0.034501
#
#
# Mechanical properties :
#
#
# Convention : Reuss Voigt Hill
#
# Bulk Modulus (GPa) = 61.10522 67.35479 64.23001
# Shear Modulus (GPa) = 12.48735 38.11045 25.29890
#
# Velocity S-wave (km/s) = 2.47115 4.31704 3.51734
# Velocity P-wave (km/s) = 6.16635 7.60178 6.92138
#
# Compressibility (1/GPa) = 0.01636521
#
# Stress axis : x y z
#
# Youngs Moduli (GPa) = 77.82916 123.83104 130.25772
#
# Poissons Ratio (x) = 0.12753 0.38217
# Poissons Ratio (y) = 0.08015 0.28060
# Poissons Ratio (z) = 0.22835 0.26676
#
# Static dielectric constant tensor:
#      x y z
#    x 3.729010 0.000000 0.000000 
#    y 0.000000 5.026970 0.000000 
#    z 0.000000 0.000000 3.540220 
# 
# 
# High freq. dielectric constant tensor:
#      x y z
#    x 1.794110 0.000000 0.000000 
#    y 0.000000 1.832750 0.000000 
#    z 0.000000 0.000000 1.792740 
# 
# From -- ./inp_files/46650.got.cif
#   From: 2010.03.12/outbox.cif.g09.slc.cpg/sg66_24_cif.got.tgz:46650.got - 2010.04.10 21:57:39.
