data_PCOD8277883
_publ_section_title
;
Structure prediction by ZEFSAII (Michael W. Deem and Ramdas Pophale) SiO2 
 PCOD8277883
Probable space group: C C C M
;
_chemical_formula_sum "Si O2"
_cell_formula_units_Z 64
_cell_length_a 10.391869
_cell_length_b 14.873486
_cell_length_c 16.615284
_cell_angle_alpha 90.000000
_cell_angle_beta 90.000000
_cell_angle_gamma 90.000000
_cell_volume 2568.113426
_symmetry_space_group_name_H-M "C C C M"
_symmetry_group_IT_number 66
_symmetry_cell_setting 'orthorhombic'
loop_
_space_group_symop_operation_xyz
x,y,z
-x,-y,z
x,-y,1/2-z
-x,y,1/2-z
-x,-y,-z
x,y,-z
-x,y,1/2+z
x,-y,1/2+z
1/2+x,1/2+y,z
1/2-x,1/2-y,z
1/2+x,1/2-y,1/2-z
1/2-x,1/2+y,1/2-z
1/2-x,1/2-y,-z
1/2+x,1/2+y,-z
1/2-x,1/2+y,1/2+z
1/2+x,1/2-y,1/2+z
loop_
_atom_site_type_symbol
_atom_site_label
_atom_site_fract_x
_atom_site_fract_y
_atom_site_fract_z
Si Si1 0.713674 0.344871 0.154275
Si Si2 0.876798 0.323470 0.304842
Si Si3 0.435899 0.342674 0.907202
Si Si4 0.702179 0.027864 0.590431
O O1 0.750000 0.250000 0.111039
O O2 0.747949 0.334212 0.249378
O O3 0.563704 0.365232 0.143278
O O4 0.797626 0.424401 0.116860
O O5 0.862420 0.242852 0.369287
O O6 0.896019 0.416329 0.353636
O O7 0.000000 0.305210 0.250000
O O8 0.344281 0.429291 0.901985
O O9 0.471436 0.322009 0.000000
O O10 0.650369 0.033262 0.500000
#
# Coordination Sequence:
#
# PCOD8277883 Si02
#       4
#    16  16  16  16
#     4  12  25  46  74 107 147 187 243 307 361 419
#     4  12  26  47  71 107 146 192 238 301 358 439
#     4  11  25  48  77 107 143 188 245 304 367 433
#     4  11  26  47  75 104 143 194 245 296 365 437
#
# _framework density 24.921019000000001
#
# number of rings (size 3 to 8) (size 9 to 14) (size 15 to 20)
#    0.000    0.500    2.500    5.250    0.000    8.000 
#    0.000    3.750    0.000    0.000    0.000    0.000 
#    0.000    0.000    0.000    0.000    0.000    0.000 
#
# Total GULP energy -396856.825443 kJ/mol
# GULP energy per Si atom -12401.775795 kJ/mol
# Density = 2.486430 g / cm^3
# Si number density = 24.921019 Si / 1000 Ang^3
#
#
#
# Elastic Constant Matrix: (Units=GPa)
#
#
# Indices 1 2 3 4 5 6 
#
# 1 56.8458 -6.1375 21.4749 0.0000 0.0000 0.0000
# 2 -6.1375 183.0180 55.6254 0.0000 0.0000 0.0000
# 3 21.4749 55.6254 153.2804 0.0000 0.0000 0.0000
# 4 0.0000 0.0000 0.0000 39.1790 0.0000 0.0000
# 5 0.0000 0.0000 0.0000 0.0000 32.3303 0.0000
# 6 0.0000 0.0000 0.0000 0.0000 0.0000 30.6636
#
#
#
# Elastic Compliance Matrix: (Units=1/GPa)
#
#
# Indices 1 2 3 4 5 6 
#
# 1 0.018995 0.001625 -0.003251 0.000000 0.000000 0.000000
# 2 0.001625 0.006280 -0.002507 0.000000 0.000000 0.000000
# 3 -0.003251 -0.002507 0.007889 0.000000 0.000000 0.000000
# 4 0.000000 0.000000 0.000000 0.025524 0.000000 0.000000
# 5 0.000000 0.000000 0.000000 0.000000 0.030931 0.000000
# 6 0.000000 0.000000 0.000000 0.000000 0.000000 0.032612
#
#
# Mechanical properties :
#
#
# Convention : Reuss Voigt Hill
#
# Bulk Modulus (GPa) = 40.16205 59.45220 49.80712
# Shear Modulus (GPa) = 36.02401 41.91334 38.96867
#
# Velocity S-wave (km/s) = 3.80613 4.10548 3.95864
# Velocity P-wave (km/s) = 5.95536 6.81038 6.39717
#
# Compressibility (1/GPa) = 0.02489913
#
# Stress axis : x y z
#
# Youngs Moduli (GPa) = 52.64534 159.22691 126.75588
#
# Poissons Ratio (x) = -0.25876 0.41208
# Poissons Ratio (y) = -0.08555 0.31775
# Poissons Ratio (z) = 0.17115 0.39915
#
# Static dielectric constant tensor:
#      x y z
#    x 4.300400 0.000000 0.000000 
#    y 0.000000 4.770490 0.000000 
#    z 0.000000 0.000000 4.649130 
# 
# 
# High freq. dielectric constant tensor:
#      x y z
#    x 1.992180 0.000000 0.000000 
#    y 0.000000 2.005280 0.000000 
#    z 0.000000 0.000000 1.999010 
# 
# From -- ./inp_files/38002.got.cif
#   From: 2010.03.12/outbox.cif.g09.slc.cpg/sg66_20_cif.got.tgz:38002.got - 2010.04.10 21:57:39.
