data_PCOD8277886
_publ_section_title
;
Structure prediction by ZEFSAII (Michael W. Deem and Ramdas Pophale) SiO2 
 PCOD8277886
Probable space group: C C C M
;
_chemical_formula_sum "Si O2"
_cell_formula_units_Z 64
_cell_length_a 16.509855
_cell_length_b 10.507572
_cell_length_c 17.306058
_cell_angle_alpha 90.000000
_cell_angle_beta 90.000000
_cell_angle_gamma 90.000000
_cell_volume 3002.228812
_symmetry_space_group_name_H-M "C C C M"
_symmetry_group_IT_number 66
_symmetry_cell_setting 'orthorhombic'
loop_
_space_group_symop_operation_xyz
x,y,z
-x,-y,z
x,-y,1/2-z
-x,y,1/2-z
-x,-y,-z
x,y,-z
-x,y,1/2+z
x,-y,1/2+z
1/2+x,1/2+y,z
1/2-x,1/2-y,z
1/2+x,1/2-y,1/2-z
1/2-x,1/2+y,1/2-z
1/2-x,1/2-y,-z
1/2+x,1/2+y,-z
1/2-x,1/2+y,1/2+z
1/2+x,1/2-y,1/2+z
loop_
_atom_site_type_symbol
_atom_site_label
_atom_site_fract_x
_atom_site_fract_y
_atom_site_fract_z
Si Si1 0.312159 0.362168 0.230209
Si Si2 0.095731 0.487657 0.583992
Si Si3 0.554464 0.232390 0.180414
Si Si4 0.599363 0.728234 0.910138
O O1 0.274041 0.500000 0.250000
O O2 0.250000 0.250000 0.247526
O O3 0.389706 0.344378 0.286364
O O4 0.342076 0.360449 0.140914
O O5 0.131569 0.448341 0.500000
O O6 0.113668 0.378689 0.647078
O O7 0.129594 0.626594 0.607554
O O8 0.000000 0.500000 0.576626
O O9 0.500000 0.174330 0.250000
O O10 0.495079 0.288125 0.114035
O O11 0.608577 0.692340 0.000000
#
# Coordination Sequence:
#
# PCOD8277886 Si02
#       4
#    16  16  16  16
#     4  11  26  42  60  86 123 163 205 244 298 366
#     4   8  14  27  52  89 122 147 183 234 292 353
#     4   9  18  32  58  90 120 151 202 251 301 341
#     4   9  19  37  65  92 119 157 199 249 303 355
#
# _framework density 21.317496999999999
#
# number of rings (size 3 to 8) (size 9 to 14) (size 15 to 20)
#    0.000    2.750    0.000    2.250    3.500   15.500 
#    0.000    3.750    0.000    3.750    0.000    0.000 
#    0.000    0.000    0.000    0.000    0.000    0.000 
#
# Total GULP energy -396576.450163 kJ/mol
# GULP energy per Si atom -12393.014068 kJ/mol
# Density = 2.126898 g / cm^3
# Si number density = 21.317497 Si / 1000 Ang^3
#
#
#
# Elastic Constant Matrix: (Units=GPa)
#
#
# Indices 1 2 3 4 5 6 
#
# 1 46.6133 34.6255 25.6625 0.0000 0.0000 0.0000
# 2 34.6255 115.9659 60.3403 0.0000 0.0000 0.0000
# 3 25.6625 60.3403 122.4501 0.0000 0.0000 0.0000
# 4 0.0000 0.0000 0.0000 19.4596 0.0000 0.0000
# 5 0.0000 0.0000 0.0000 0.0000 12.4097 0.0000
# 6 0.0000 0.0000 0.0000 0.0000 0.0000 27.8970
#
#
#
# Elastic Compliance Matrix: (Units=1/GPa)
#
#
# Indices 1 2 3 4 5 6 
#
# 1 0.028064 -0.007153 -0.002357 0.000000 0.000000 0.000000
# 2 -0.007153 0.013420 -0.005114 0.000000 0.000000 0.000000
# 3 -0.002357 -0.005114 0.011180 0.000000 0.000000 0.000000
# 4 0.000000 0.000000 0.000000 0.051388 0.000000 0.000000
# 5 0.000000 0.000000 0.000000 0.000000 0.080582 0.000000
# 6 0.000000 0.000000 0.000000 0.000000 0.000000 0.035846
#
#
# Mechanical properties :
#
#
# Convention : Reuss Voigt Hill
#
# Bulk Modulus (GPa) = 42.70387 58.47621 50.59004
# Shear Modulus (GPa) = 19.41486 22.91332 21.16409
#
# Velocity S-wave (km/s) = 3.02113 3.28206 3.15430
# Velocity P-wave (km/s) = 5.67851 6.46941 6.08682
#
# Compressibility (1/GPa) = 0.02341708
#
# Stress axis : x y z
#
# Youngs Moduli (GPa) = 35.63262 74.51575 89.44175
#
# Poissons Ratio (x) = 0.53303 0.21078
# Poissons Ratio (y) = 0.25489 0.45739
# Poissons Ratio (z) = 0.08397 0.38106
#
# Static dielectric constant tensor:
#      x y z
#    x 3.484560 0.000000 0.000000 
#    y 0.000000 3.722400 0.000000 
#    z 0.000000 0.000000 4.130380 
# 
# 
# High freq. dielectric constant tensor:
#      x y z
#    x 1.797790 0.000000 0.000000 
#    y 0.000000 1.806930 0.000000 
#    z 0.000000 0.000000 1.847410 
# 
# From -- ./inp_files/29586.got.cif
#   From: 2010.03.12/outbox.cif.g09.slc.cpg/sg66_15_cif.got.tgz:29586.got - 2010.04.10 21:57:39.
