data_PCOD8277944
_publ_section_title
;
Structure prediction by ZEFSAII (Michael W. Deem and Ramdas Pophale) SiO2 
 PCOD8277944
Probable space group: C M M A
;
_chemical_formula_sum "Si O2"
_cell_formula_units_Z 80
_cell_length_a 19.137810
_cell_length_b 8.834058
_cell_length_c 26.215899
_cell_angle_alpha 90.000000
_cell_angle_beta 90.000000
_cell_angle_gamma 90.000000
_cell_volume 4432.178473
_symmetry_space_group_name_H-M "C M M A"
_symmetry_group_IT_number 67
_symmetry_cell_setting 'orthorhombic'
loop_
_space_group_symop_operation_xyz
x,y,z
-x,1/2-y,z
x,-y,-z
-x,1/2+y,-z
-x,-y,-z
x,1/2+y,-z
-x,y,z
x,1/2-y,z
1/2+x,1/2+y,z
1/2-x,-y,z
1/2+x,1/2-y,-z
1/2-x,y,-z
1/2-x,1/2-y,-z
1/2+x,y,-z
1/2-x,1/2+y,z
1/2+x,-y,z
loop_
_atom_site_type_symbol
_atom_site_label
_atom_site_fract_x
_atom_site_fract_y
_atom_site_fract_z
Si Si1 0.827605 0.930242 0.050375
Si Si2 0.175186 0.425322 0.148687
Si Si3 0.916777 0.420553 0.449419
Si Si4 0.174526 0.074703 0.261449
Si Si5 0.918719 0.926662 0.346387
O O1 0.826562 0.750000 0.047149
O O2 0.750000 0.000000 0.052496
O O3 0.865973 0.987321 0.102632
O O4 0.865337 0.000000 0.000000
O O5 0.182371 0.250000 0.133479
O O6 0.250000 0.500000 0.154365
O O7 0.140823 0.445370 0.204567
O O8 0.886142 0.500000 0.500000
O O9 0.888490 0.250000 0.447716
O O10 0.889258 0.506963 0.399404
O O11 0.000000 0.424977 0.451056
O O12 0.183685 0.250000 0.274731
O O13 0.250000 0.000000 0.267101
O O14 0.120179 0.000554 0.299320
O O15 0.904056 0.750000 0.346684
O O16 0.000000 0.965348 0.340227
#
# Coordination Sequence:
#
# PCOD8277944 Si02
#       5
#    16  16  16  16  16
#     4  10  16  22  33  50  75 107 142 181 225 271
#     4   9  16  26  39  57  81 111 148 186 226 273
#     4   9  16  27  45  69  96 124 155 192 235 281
#     4  10  20  33  50  70  95 128 163 199 238 284
#     4  10  20  33  50  73 100 128 160 199 239 279
#
# _framework density 18.049813
#
# number of rings (size 3 to 8) (size 9 to 14) (size 15 to 20)
#    0.000    2.400    0.000    6.000    0.000    6.000 
#    0.000    0.000    0.000    0.600    0.000    4.200 
#    0.000    0.800    0.000    2.600    0.000   10.400 
#
# Total GULP energy -495689.091339 kJ/mol
# GULP energy per Si atom -12392.227283 kJ/mol
# Density = 1.800873 g / cm^3
# Si number density = 18.049813 Si / 1000 Ang^3
#
#
#
# Elastic Constant Matrix: (Units=GPa)
#
#
# Indices 1 2 3 4 5 6 
#
# 1 18.0418 35.2327 35.9522 0.0000 0.0000 0.0000
# 2 35.2327 164.6070 98.0492 0.0000 0.0000 0.0000
# 3 35.9522 98.0492 192.9489 0.0000 0.0000 0.0000
# 4 0.0000 0.0000 0.0000 40.5477 0.0000 0.0000
# 5 0.0000 0.0000 0.0000 0.0000 87.7179 0.0000
# 6 0.0000 0.0000 0.0000 0.0000 0.0000 17.0976
#
#
#
# Elastic Compliance Matrix: (Units=1/GPa)
#
#
# Indices 1 2 3 4 5 6 
#
# 1 0.113175 -0.016726 -0.012589 0.000000 0.000000 0.000000
# 2 -0.016726 0.011184 -0.002567 0.000000 0.000000 0.000000
# 3 -0.012589 -0.002567 0.008833 0.000000 0.000000 0.000000
# 4 0.000000 0.000000 0.000000 0.024662 0.000000 0.000000
# 5 0.000000 0.000000 0.000000 0.000000 0.011400 0.000000
# 6 0.000000 0.000000 0.000000 0.000000 0.000000 0.058488
#
#
# Mechanical properties :
#
#
# Convention : Reuss Voigt Hill
#
# Bulk Modulus (GPa) = 14.40312 79.34066 46.87189
# Shear Modulus (GPa) = 15.89084 42.83019 29.36052
#
# Velocity S-wave (km/s) = 2.97035 4.87651 4.03754
# Velocity P-wave (km/s) = 4.44533 8.70397 6.91086
#
# Compressibility (1/GPa) = 0.06942942
#
# Stress axis : x y z
#
# Youngs Moduli (GPa) = 8.83590 89.41379 113.21585
#
# Poissons Ratio (x) = 1.49550 1.42522
# Poissons Ratio (y) = 0.14779 0.29060
# Poissons Ratio (z) = 0.11123 0.22950
#
# Static dielectric constant tensor:
#      x y z
#    x 2.544050 0.000000 0.000000 
#    y 0.000000 3.532370 0.000000 
#    z 0.000000 0.000000 4.499110 
# 
# 
# High freq. dielectric constant tensor:
#      x y z
#    x 1.605370 0.000000 0.000000 
#    y 0.000000 1.722810 0.000000 
#    z 0.000000 0.000000 1.734220 
# 
# From -- ./inp_files/43303.got.cif
#   From: 2010.03.12/outbox.cif.g09.slc.cpg/sg67_22_cif.got.tgz:43303.got - 2010.04.10 22:41:39.
