data_PCOD8277714
_publ_section_title
;
Structure prediction by ZEFSAII (Michael W. Deem and Ramdas Pophale) SiO2 
 PCOD8277714
Probable space group: C C C M
;
_chemical_formula_sum "Si O2"
_cell_formula_units_Z 96
_cell_length_a 28.926666
_cell_length_b 19.990710
_cell_length_c 8.707365
_cell_angle_alpha 90.000000
_cell_angle_beta 90.000000
_cell_angle_gamma 90.000000
_cell_volume 5035.160863
_symmetry_space_group_name_H-M "C C C M"
_symmetry_group_IT_number 66
_symmetry_cell_setting 'orthorhombic'
loop_
_space_group_symop_operation_xyz
x,y,z
-x,-y,z
x,-y,1/2-z
-x,y,1/2-z
-x,-y,-z
x,y,-z
-x,y,1/2+z
x,-y,1/2+z
1/2+x,1/2+y,z
1/2-x,1/2-y,z
1/2+x,1/2-y,1/2-z
1/2-x,1/2+y,1/2-z
1/2-x,1/2-y,-z
1/2+x,1/2+y,-z
1/2-x,1/2+y,1/2+z
1/2+x,1/2-y,1/2+z
loop_
_atom_site_type_symbol
_atom_site_label
_atom_site_fract_x
_atom_site_fract_y
_atom_site_fract_z
Si Si1 0.691654 0.188435 0.676267
Si Si2 0.097330 0.685158 0.176068
Si Si3 0.049832 0.564356 0.322108
Si Si4 0.376505 0.574040 0.315966
Si Si5 0.790166 0.155762 0.673063
Si Si6 0.448797 0.674145 0.818835
O O1 0.680783 0.166378 0.500000
O O2 0.651335 0.172784 0.795148
O O3 0.737822 0.150496 0.740525
O O4 0.696309 0.267594 0.679824
O O5 0.073286 0.634370 0.289956
O O6 0.080035 0.759021 0.220525
O O7 0.085529 0.668786 0.000000
O O8 0.076719 0.500000 0.250000
O O9 0.045957 0.552246 0.500000
O O10 0.000000 0.568081 0.250000
O O11 0.377777 0.500000 0.250000
O O12 0.377297 0.573655 0.500000
O O13 0.329886 0.610127 0.247934
O O14 0.421926 0.612392 0.257240
O O15 0.787074 0.130377 0.500000
O O16 0.500000 0.679652 0.750000
O O17 0.452430 0.662384 0.000000
#
# Coordination Sequence:
#
# PCOD8277714 Si02
#       6
#    16  16  16  16  16  16
#     4   9  16  32  58  85 111 146 190 232 282 337
#     4  11  22  36  56  88 122 153 192 238 290 344
#     4  11  22  38  59  82 112 151 192 234 283 342
#     4  11  22  39  61  85 116 154 195 242 297 355
#     4   8  16  32  57  84 110 145 190 233 279 341
#     4  11  24  40  59  85 116 151 196 248 296 348
#
# _framework density 19.065926000000001
#
# number of rings (size 3 to 8) (size 9 to 14) (size 15 to 20)
#    0.000    1.833    1.667    5.000    0.000    3.667 
#    0.000    5.833    0.000    2.000    0.000    0.000 
#    0.000    0.000    0.000    0.000    0.000    0.000 
#
# Total GULP energy -594859.091693 kJ/mol
# GULP energy per Si atom -12392.897744 kJ/mol
# Density = 1.902253 g / cm^3
# Si number density = 19.065926 Si / 1000 Ang^3
#
#
#
# Elastic Constant Matrix: (Units=GPa)
#
#
# Indices 1 2 3 4 5 6 
#
# 1 123.0228 39.5345 45.4712 0.0000 0.0000 0.0000
# 2 39.5345 84.1497 41.2437 0.0000 0.0000 0.0000
# 3 45.4712 41.2437 96.8477 0.0000 0.0000 0.0000
# 4 0.0000 0.0000 0.0000 27.4470 0.0000 0.0000
# 5 0.0000 0.0000 0.0000 0.0000 32.2187 0.0000
# 6 0.0000 0.0000 0.0000 0.0000 0.0000 -5.3966
#
#
#
# Elastic Compliance Matrix: (Units=1/GPa)
#
#
# Indices 1 2 3 4 5 6 
#
# 1 0.010464 -0.003170 -0.003563 0.000000 0.000000 0.000000
# 2 -0.003170 0.015978 -0.005316 0.000000 0.000000 0.000000
# 3 -0.003563 -0.005316 0.014262 0.000000 0.000000 0.000000
# 4 0.000000 0.000000 0.000000 0.036434 0.000000 0.000000
# 5 0.000000 0.000000 0.000000 0.000000 0.031038 0.000000
# 6 0.000000 0.000000 0.000000 0.000000 0.000000 -0.185303
#
#
# Mechanical properties :
#
#
# Convention : Reuss Voigt Hill
#
# Bulk Modulus (GPa) = 60.21745 61.83545 61.02645
# Shear Modulus (GPa) = -105.28142 22.70521 -41.28811
#
# Velocity S-wave (km/s) = -7.43906 3.45465 -4.65859
# Velocity P-wave (km/s) = 6.49105 6.95814 1.77229
#
# Compressibility (1/GPa) = 0.01660648
#
# Stress axis : x y z
#
# Youngs Moduli (GPa) = 95.56361 62.58418 70.11397
#
# Poissons Ratio (x) = 0.19838 0.24983
# Poissons Ratio (y) = 0.30292 0.37275
# Poissons Ratio (z) = 0.34051 0.33272
#
# Static dielectric constant tensor:
#      x y z
#    x 3.594130 0.000000 0.000000 
#    y 0.000000 2.463920 0.000000 
#    z 0.000000 0.000000 3.470810 
# 
# 
# High freq. dielectric constant tensor:
#      x y z
#    x 1.750730 0.000000 0.000000 
#    y 0.000000 1.732260 0.000000 
#    z 0.000000 0.000000 1.732770 
# 
# From -- ./inp_files/8021.got.cif
#   From: 2010.03.12/outbox.cif.g09.slc.cpg/sg66_5_cif.got.tgz:8021.got - 2010.04.10 21:57:39.
