data_PCOD8277765
_publ_section_title
;
Structure prediction by ZEFSAII (Michael W. Deem and Ramdas Pophale) SiO2 
 PCOD8277765
Probable space group: C C C M
;
_chemical_formula_sum "Si O2"
_cell_formula_units_Z 112
_cell_length_a 11.894108
_cell_length_b 27.498536
_cell_length_c 15.326205
_cell_angle_alpha 90.000000
_cell_angle_beta 90.000000
_cell_angle_gamma 90.000000
_cell_volume 5012.750406
_symmetry_space_group_name_H-M "C C C M"
_symmetry_group_IT_number 66
_symmetry_cell_setting 'orthorhombic'
loop_
_space_group_symop_operation_xyz
x,y,z
-x,-y,z
x,-y,1/2-z
-x,y,1/2-z
-x,-y,-z
x,y,-z
-x,y,1/2+z
x,-y,1/2+z
1/2+x,1/2+y,z
1/2-x,1/2-y,z
1/2+x,1/2-y,1/2-z
1/2-x,1/2+y,1/2-z
1/2-x,1/2-y,-z
1/2+x,1/2+y,-z
1/2-x,1/2+y,1/2+z
1/2+x,1/2-y,1/2+z
loop_
_atom_site_type_symbol
_atom_site_label
_atom_site_fract_x
_atom_site_fract_y
_atom_site_fract_z
Si Si1 0.545702 0.050758 0.154540
Si Si2 0.080333 0.883192 0.098393
Si Si3 0.014697 0.656402 0.098298
Si Si4 0.791164 0.698381 0.851238
Si Si5 0.821597 0.892930 0.904367
Si Si6 0.247773 0.195077 0.653325
Si Si7 0.788295 0.947097 0.728764
O O1 0.500000 0.055701 0.250000
O O2 0.500092 0.097644 0.102226
O O3 0.679835 0.050186 0.166056
O O4 0.500000 0.000000 0.111462
O O5 0.140949 0.831292 0.110663
O O6 0.119004 0.920771 0.171413
O O7 0.948877 0.877774 0.115233
O O8 0.104870 0.902115 0.000000
O O9 0.139643 0.666819 0.129984
O O10 0.926266 0.688749 0.154570
O O11 0.998604 0.673786 0.000000
O O12 0.750000 0.750000 0.890140
O O13 0.745957 0.656987 0.915006
O O14 0.733703 0.693292 0.756946
O O15 0.767380 0.922448 0.823575
O O16 0.811417 0.919628 0.000000
O O17 0.250000 0.250000 0.617508
O O18 0.835555 0.000000 0.750000
#
# Coordination Sequence:
#
# PCOD8277765 Si02
#       7
#    16  16  16  16  16  16  16
#     4  11  22  41  68  96 133 175 229 282 340 397
#     4  11  25  45  70 101 137 176 230 288 338 405
#     4  12  25  42  67 100 140 179 226 284 348 415
#     4  11  25  44  68  98 136 184 232 282 341 411
#     4  11  25  45  69 100 139 180 228 283 339 410
#     4  11  24  43  71 100 134 181 231 284 342 410
#     4  12  24  44  73 100 132 178 226 282 347 412
#
# _framework density 22.343024
#
# number of rings (size 3 to 8) (size 9 to 14) (size 15 to 20)
#    0.000    0.714    4.286    3.429    2.000    4.286 
#    0.000    1.429    0.000    0.429    0.000    0.000 
#    0.000    0.000    0.000    0.000    0.000    0.000 
#
# Total GULP energy -694237.939216 kJ/mol
# GULP energy per Si atom -12397.106057 kJ/mol
# Density = 2.229217 g / cm^3
# Si number density = 22.343024 Si / 1000 Ang^3
#
#
#
# Elastic Constant Matrix: (Units=GPa)
#
#
# Indices 1 2 3 4 5 6 
#
# 1 77.4077 20.6983 -3.0063 0.0000 0.0000 0.0000
# 2 20.6983 149.9789 22.3238 0.0000 0.0000 0.0000
# 3 -3.0063 22.3238 84.8954 0.0000 0.0000 0.0000
# 4 0.0000 0.0000 0.0000 8.2115 0.0000 0.0000
# 5 0.0000 0.0000 0.0000 0.0000 4.6260 0.0000
# 6 0.0000 0.0000 0.0000 0.0000 0.0000 28.3394
#
#
#
# Elastic Compliance Matrix: (Units=1/GPa)
#
#
# Indices 1 2 3 4 5 6 
#
# 1 0.013496 -0.002012 0.001007 0.000000 0.000000 0.000000
# 2 -0.002012 0.007239 -0.001975 0.000000 0.000000 0.000000
# 3 0.001007 -0.001975 0.012334 0.000000 0.000000 0.000000
# 4 0.000000 0.000000 0.000000 0.121781 0.000000 0.000000
# 5 0.000000 0.000000 0.000000 0.000000 0.216168 0.000000
# 6 0.000000 0.000000 0.000000 0.000000 0.000000 0.035287
#
#
# Mechanical properties :
#
#
# Convention : Reuss Voigt Hill
#
# Bulk Modulus (GPa) = 36.88831 43.59039 40.23935
# Shear Modulus (GPa) = 11.86797 26.38646 19.12722
#
# Velocity S-wave (km/s) = 2.30722 3.44025 2.92904
# Velocity P-wave (km/s) = 4.86246 5.94411 5.43028
#
# Compressibility (1/GPa) = 0.02710886
#
# Stress axis : x y z
#
# Youngs Moduli (GPa) = 74.09694 138.13511 81.07554
#
# Poissons Ratio (x) = 0.27799 -0.08165
# Poissons Ratio (y) = 0.14912 0.16011
# Poissons Ratio (z) = -0.07462 0.27280
#
# Static dielectric constant tensor:
#      x y z
#    x 2.347950 0.000000 0.000000 
#    y 0.000000 4.551070 0.000000 
#    z 0.000000 0.000000 3.900730 
# 
# 
# High freq. dielectric constant tensor:
#      x y z
#    x 1.887320 0.000000 0.000000 
#    y 0.000000 1.876500 0.000000 
#    z 0.000000 0.000000 1.881770 
# 
# From -- ./inp_files/26982.got.cif
#   From: 2010.03.12/outbox.cif.g09.slc.cpg/sg66_14_cif.got.tgz:26982.got - 2010.04.10 21:57:39.
