data_PCOD8277972
_publ_section_title
;
Structure prediction by ZEFSAII (Michael W. Deem and Ramdas Pophale) SiO2 
 PCOD8277972
Probable space group: C M M A
;
_chemical_formula_sum "Si O2"
_cell_formula_units_Z 96
_cell_length_a 14.594666
_cell_length_b 24.162581
_cell_length_c 16.459643
_cell_angle_alpha 90.000000
_cell_angle_beta 90.000000
_cell_angle_gamma 90.000000
_cell_volume 5804.407504
_symmetry_space_group_name_H-M "C M M A"
_symmetry_group_IT_number 67
_symmetry_cell_setting 'orthorhombic'
loop_
_space_group_symop_operation_xyz
x,y,z
-x,1/2-y,z
x,-y,-z
-x,1/2+y,-z
-x,-y,-z
x,1/2+y,-z
-x,y,z
x,1/2-y,z
1/2+x,1/2+y,z
1/2-x,-y,z
1/2+x,1/2-y,-z
1/2-x,y,-z
1/2-x,1/2-y,-z
1/2+x,y,-z
1/2-x,1/2+y,z
1/2+x,-y,z
loop_
_atom_site_type_symbol
_atom_site_label
_atom_site_fract_x
_atom_site_fract_y
_atom_site_fract_z
Si Si1 0.097941 0.250000 0.386915
Si Si2 0.107435 0.131143 0.398965
Si Si3 0.657071 0.750000 0.552959
Si Si4 0.102778 0.565850 0.997917
Si Si5 0.748019 0.565690 0.873596
Si Si6 0.746833 0.065634 0.309609
Si Si7 0.393275 0.866278 0.588085
O O1 0.148535 0.191510 0.368866
O O2 0.077208 0.250000 0.484699
O O3 0.000000 0.250000 0.342118
O O4 0.157728 0.084424 0.348544
O O5 0.126970 0.121119 0.493723
O O6 0.000000 0.128337 0.380243
O O7 0.750000 0.750000 0.500000
O O8 0.645116 0.695288 0.608573
O O9 0.158180 0.586633 0.077508
O O10 0.000000 0.591325 0.996975
O O11 0.097006 0.500000 0.000000
O O12 0.158667 0.586174 0.918082
O O13 0.750000 0.500000 0.873204
O O14 0.742475 0.588654 0.782311
O O15 0.659953 0.088699 0.358497
O O16 0.750000 0.000000 0.312663
O O17 0.500000 0.871385 0.609645
#
# Coordination Sequence:
#
# PCOD8277972 Si02
#       7
#     8  16   8  16  16  16  16
#     4   8  14  28  48  66  80  98 140 203 253 273
#     4   9  18  32  49  66  85 115 158 204 241 268
#     4  10  16  28  52  72  84 106 149 207 259 288
#     4   8  13  25  46  64  78 103 141 185 229 265
#     4   8  16  28  40  60  87 113 146 183 216 263
#     4  11  22  32  42  62  97 134 160 181 215 273
#     4  10  20  33  48  67  91 122 161 203 243 276
#
# _framework density 16.539155999999998
#
# number of rings (size 3 to 8) (size 9 to 14) (size 15 to 20)
#    0.000    2.833    0.000    5.250    0.000    3.333 
#    0.000    5.000    0.000    0.000    0.000    0.000 
#    0.000   10.667    0.000   21.333    0.000    6.000 
#
# Total GULP energy -594630.510495 kJ/mol
# GULP energy per Si atom -12388.135635 kJ/mol
# Density = 1.650151 g / cm^3
# Si number density = 16.539156 Si / 1000 Ang^3
#
#
#
# Elastic Constant Matrix: (Units=GPa)
#
#
# Indices 1 2 3 4 5 6 
#
# 1 134.7872 33.9343 62.9934 0.0000 0.0000 0.0000
# 2 33.9343 67.2808 40.8835 0.0000 0.0000 0.0000
# 3 62.9934 40.8835 107.9341 0.0000 0.0000 0.0000
# 4 0.0000 0.0000 0.0000 1.0992 0.0000 0.0000
# 5 0.0000 0.0000 0.0000 0.0000 13.6436 0.0000
# 6 0.0000 0.0000 0.0000 0.0000 0.0000 19.7408
#
#
#
# Elastic Compliance Matrix: (Units=1/GPa)
#
#
# Indices 1 2 3 4 5 6 
#
# 1 0.010410 -0.002025 -0.005309 0.000000 0.000000 0.000000
# 2 -0.002025 0.019701 -0.006281 0.000000 0.000000 0.000000
# 3 -0.005309 -0.006281 0.014742 0.000000 0.000000 0.000000
# 4 0.000000 0.000000 0.000000 0.909724 0.000000 0.000000
# 5 0.000000 0.000000 0.000000 0.000000 0.073295 0.000000
# 6 0.000000 0.000000 0.000000 0.000000 0.000000 0.050656
#
#
# Mechanical properties :
#
#
# Convention : Reuss Voigt Hill
#
# Bulk Modulus (GPa) = 56.73763 65.06937 60.90350
# Shear Modulus (GPa) = 4.49790 18.37613 11.43701
#
# Velocity S-wave (km/s) = 1.65089 3.33688 2.63251
# Velocity P-wave (km/s) = 6.16550 7.36712 6.79293
#
# Compressibility (1/GPa) = 0.01762499
#
# Stress axis : x y z
#
# Youngs Moduli (GPa) = 96.06337 50.75967 67.83271
#
# Poissons Ratio (x) = 0.10277 0.36009
# Poissons Ratio (y) = 0.19449 0.42603
# Poissons Ratio (z) = 0.50996 0.31880
#
# Static dielectric constant tensor:
#      x y z
#    x 3.331520 0.000000 0.000000 
#    y 0.000000 2.923110 0.000000 
#    z 0.000000 0.000000 3.107680 
# 
# 
# High freq. dielectric constant tensor:
#      x y z
#    x 1.654230 0.000000 0.000000 
#    y 0.000000 1.600690 0.000000 
#    z 0.000000 0.000000 1.606350 
# 
# From -- ./inp_files/27649.got.cif
#   From: 2010.03.12/outbox.cif.g09.slc.cpg/sg67_14_cif.got.tgz:27649.got - 2010.04.10 22:41:39.
