data_PCOD8277631
_publ_section_title
;
Structure prediction by ZEFSAII (Michael W. Deem and Ramdas Pophale) SiO2 
 PCOD8277631
Probable space group: C C C M
;
_chemical_formula_sum "Si O2"
_cell_formula_units_Z 60
_cell_length_a 16.471755
_cell_length_b 10.868780
_cell_length_c 16.424020
_cell_angle_alpha 90.000000
_cell_angle_beta 90.000000
_cell_angle_gamma 90.000000
_cell_volume 2940.357503
_symmetry_space_group_name_H-M "C C C M"
_symmetry_group_IT_number 66
_symmetry_cell_setting 'orthorhombic'
loop_
_space_group_symop_operation_xyz
x,y,z
-x,-y,z
x,-y,1/2-z
-x,y,1/2-z
-x,-y,-z
x,y,-z
-x,y,1/2+z
x,-y,1/2+z
1/2+x,1/2+y,z
1/2-x,1/2-y,z
1/2+x,1/2-y,1/2-z
1/2-x,1/2+y,1/2-z
1/2-x,1/2-y,-z
1/2+x,1/2+y,-z
1/2-x,1/2+y,1/2+z
1/2+x,1/2-y,1/2+z
loop_
_atom_site_type_symbol
_atom_site_label
_atom_site_fract_x
_atom_site_fract_y
_atom_site_fract_z
Si Si1 0.942446 0.197961 0.000000
Si Si2 0.921762 0.181729 0.370133
Si Si3 0.837481 0.035742 0.500000
Si Si4 0.591773 0.953646 0.834394
Si Si5 0.000000 0.000000 0.250000
Si Si6 0.339075 0.062932 0.500000
O O1 0.997838 0.215939 0.921113
O O2 0.868233 0.295395 0.000000
O O3 0.912095 0.058571 0.000000
O O4 0.847395 0.125576 0.422470
O O5 0.895380 0.307790 0.328360
O O6 0.940223 0.083094 0.301859
O O7 0.757545 0.952806 0.500000
O O8 0.500000 0.000000 0.835739
O O9 0.633597 0.000000 0.750000
O O10 0.631340 0.998340 0.918009
#
# Coordination Sequence:
#
# PCOD8277631 Si02
#       6
#     8  16   8  16   4   8
#     4  11  20  43  63  93 125 172 217 262 322 394
#     4  11  22  39  69  92 128 167 217 278 315 390
#     4  11  24  42  61  96 130 170 219 258 343 394
#     4  11  23  41  66  98 125 164 225 271 319 391
#     4  12  20  38  66 100 120 162 214 274 332 354
#     4  12  24  42  68  92 135 179 204 271 336 388
#
# _framework density 20.40568
#
# number of rings (size 3 to 8) (size 9 to 14) (size 15 to 20)
#    0.000    0.800    5.333    4.800    0.000    2.133 
#    2.400    0.000    0.000    0.000    0.000    0.000 
#    0.000    0.000    0.000    0.000    0.000    0.000 
#
# Total GULP energy -371932.909072 kJ/mol
# GULP energy per Si atom -12397.763636 kJ/mol
# Density = 2.035924 g / cm^3
# Si number density = 20.405680 Si / 1000 Ang^3
#
#
#
# Elastic Constant Matrix: (Units=GPa)
#
#
# Indices 1 2 3 4 5 6 
#
# 1 73.7283 19.9430 26.9816 0.0000 0.0000 0.0000
# 2 19.9430 152.5387 58.6360 0.0000 0.0000 0.0000
# 3 26.9816 58.6360 167.2581 0.0000 0.0000 0.0000
# 4 0.0000 0.0000 0.0000 39.7145 0.0000 0.0000
# 5 0.0000 0.0000 0.0000 0.0000 7.3341 0.0000
# 6 0.0000 0.0000 0.0000 0.0000 0.0000 34.6118
#
#
#
# Elastic Compliance Matrix: (Units=1/GPa)
#
#
# Indices 1 2 3 4 5 6 
#
# 1 0.014589 -0.001159 -0.001947 0.000000 0.000000 0.000000
# 2 -0.001159 0.007669 -0.002502 0.000000 0.000000 0.000000
# 3 -0.001947 -0.002502 0.007170 0.000000 0.000000 0.000000
# 4 0.000000 0.000000 0.000000 0.025180 0.000000 0.000000
# 5 0.000000 0.000000 0.000000 0.000000 0.136350 0.000000
# 6 0.000000 0.000000 0.000000 0.000000 0.000000 0.028892
#
#
# Mechanical properties :
#
#
# Convention : Reuss Voigt Hill
#
# Bulk Modulus (GPa) = 54.90658 67.18292 61.04475
# Shear Modulus (GPa) = 21.08494 35.52972 28.30733
#
# Velocity S-wave (km/s) = 3.21797 4.17726 3.72859
# Velocity P-wave (km/s) = 6.38537 7.50074 6.96542
#
# Compressibility (1/GPa) = 0.01821275
#
# Stress axis : x y z
#
# Youngs Moduli (GPa) = 68.54290 130.39824 139.47254
#
# Poissons Ratio (x) = 0.15112 0.27159
# Poissons Ratio (y) = 0.07944 0.34889
# Poissons Ratio (z) = 0.13347 0.32619
#
# Static dielectric constant tensor:
#      x y z
#    x 3.375850 0.000000 0.000000 
#    y 0.000000 3.925790 0.000000 
#    z 0.000000 0.000000 4.161440 
# 
# 
# High freq. dielectric constant tensor:
#      x y z
#    x 1.760880 0.000000 0.000000 
#    y 0.000000 1.821770 0.000000 
#    z 0.000000 0.000000 1.812260 
# 
# From -- ./inp_files/25705.got.cif
#   From: 2010.03.12/outbox.cif.g09.slc.cpg/sg66_13_cif.got.tgz:25705.got - 2010.04.10 21:57:39.
