data_PCOD8277270
_publ_section_title
;
Structure prediction by ZEFSAII (Michael W. Deem and Ramdas Pophale) SiO2 
 PCOD8277270
Probable space group: C C C M
;
_chemical_formula_sum "Si O2"
_cell_formula_units_Z 116
_cell_length_a 27.175106
_cell_length_b 17.262846
_cell_length_c 14.535940
_cell_angle_alpha 90.000000
_cell_angle_beta 90.000000
_cell_angle_gamma 90.000000
_cell_volume 6819.095375
_symmetry_space_group_name_H-M "C C C M"
_symmetry_group_IT_number 66
_symmetry_cell_setting 'orthorhombic'
loop_
_space_group_symop_operation_xyz
x,y,z
-x,-y,z
x,-y,1/2-z
-x,y,1/2-z
-x,-y,-z
x,y,-z
-x,y,1/2+z
x,-y,1/2+z
1/2+x,1/2+y,z
1/2-x,1/2-y,z
1/2+x,1/2-y,1/2-z
1/2-x,1/2+y,1/2-z
1/2-x,1/2-y,-z
1/2+x,1/2+y,-z
1/2-x,1/2+y,1/2+z
1/2+x,1/2-y,1/2+z
loop_
_atom_site_type_symbol
_atom_site_label
_atom_site_fract_x
_atom_site_fract_y
_atom_site_fract_z
Si Si1 0.116348 0.323516 0.101111
Si Si2 0.853474 0.505716 0.857427
Si Si3 0.743571 0.485019 0.396662
Si Si4 0.906778 0.349064 0.896665
Si Si5 0.483153 0.880260 0.606272
Si Si6 0.671178 0.774280 0.270649
Si Si7 0.733774 0.375556 0.230820
Si Si8 0.500000 0.000000 0.750000
O O1 0.120616 0.415244 0.115252
O O2 0.057376 0.311341 0.114584
O O3 0.150373 0.274187 0.167607
O O4 0.133537 0.298288 0.000000
O O5 0.841827 0.500000 0.750000
O O6 0.801547 0.502845 0.908718
O O7 0.888255 0.436723 0.889843
O O8 0.721105 0.475751 0.500000
O O9 0.730883 0.409724 0.334450
O O10 0.721668 0.560459 0.345943
O O11 0.874400 0.289804 0.837574
O O12 0.963533 0.347229 0.863553
O O13 0.902658 0.318587 0.000000
O O14 0.484904 0.911167 0.500000
O O15 0.467497 0.947510 0.679897
O O16 0.693310 0.689959 0.286242
O O17 0.711612 0.841273 0.284307
#
# Coordination Sequence:
#
# PCOD8277270 Si02
#       8
#    16  16  16  16  16  16  16   4
#     4  11  21  34  49  69  99 134 172 210 246 287
#     4  12  19  31  47  68  99 135 177 212 240 273
#     4  11  19  35  55  71  95 133 169 203 249 291
#     4  11  21  34  49  69  99 134 172 210 246 287
#     4  10  23  33  43  68  97 129 173 214 239 280
#     4  11  21  35  51  72 100 130 164 208 252 292
#     4  10  22  36  50  74 101 123 166 215 245 289
#     4  12  18  28  48  58  92 136 174 206 248 266
#
# _framework density 17.011053
#
# number of rings (size 3 to 8) (size 9 to 14) (size 15 to 20)
#    0.000    1.103    5.517    3.103    1.931    3.310 
#    0.000    2.759    0.000    0.000    0.000    0.000 
#    0.000    8.828    0.000   24.828    0.000    0.000 
#
# Total GULP energy -719013.720027 kJ/mol
# GULP energy per Si atom -12396.788276 kJ/mol
# Density = 1.697234 g / cm^3
# Si number density = 17.011053 Si / 1000 Ang^3
#
#
#
# Elastic Constant Matrix: (Units=GPa)
#
#
# Indices 1 2 3 4 5 6 
#
# 1 71.0467 25.7461 19.3749 0.0000 0.0000 0.0000
# 2 25.7461 59.3409 16.8790 0.0000 0.0000 0.0000
# 3 19.3749 16.8790 100.8863 0.0000 0.0000 0.0000
# 4 0.0000 0.0000 0.0000 9.8466 0.0000 0.0000
# 5 0.0000 0.0000 0.0000 0.0000 11.0987 0.0000
# 6 0.0000 0.0000 0.0000 0.0000 0.0000 13.2572
#
#
#
# Elastic Compliance Matrix: (Units=1/GPa)
#
#
# Indices 1 2 3 4 5 6 
#
# 1 0.017134 -0.006822 -0.002149 0.000000 0.000000 0.000000
# 2 -0.006822 0.020410 -0.002105 0.000000 0.000000 0.000000
# 3 -0.002149 -0.002105 0.010677 0.000000 0.000000 0.000000
# 4 0.000000 0.000000 0.000000 0.101558 0.000000 0.000000
# 5 0.000000 0.000000 0.000000 0.000000 0.090101 0.000000
# 6 0.000000 0.000000 0.000000 0.000000 0.000000 0.075431
#
#
# Mechanical properties :
#
#
# Convention : Reuss Voigt Hill
#
# Bulk Modulus (GPa) = 38.35982 39.47489 38.91736
# Shear Modulus (GPa) = 14.44449 18.12541 16.28495
#
# Velocity S-wave (km/s) = 2.91713 3.26775 3.09741
# Velocity P-wave (km/s) = 5.82624 6.12319 5.97656
#
# Compressibility (1/GPa) = 0.02606894
#
# Stress axis : x y z
#
# Youngs Moduli (GPa) = 58.36468 48.99448 93.65950
#
# Poissons Ratio (x) = 0.33426 0.20128
# Poissons Ratio (y) = 0.39819 0.19711
# Poissons Ratio (z) = 0.12543 0.10311
#
# Static dielectric constant tensor:
#      x y z
#    x 3.120520 0.000000 0.000000 
#    y 0.000000 2.981700 0.000000 
#    z 0.000000 0.000000 3.351200 
# 
# 
# High freq. dielectric constant tensor:
#      x y z
#    x 1.645800 0.000000 0.000000 
#    y 0.000000 1.601770 0.000000 
#    z 0.000000 0.000000 1.678800 
# 
# From -- ./inp_files/30453.got.cif
#   From: 2010.03.12/outbox.cif.g09.slc.cpg/sg66_16_cif.got.tgz:30453.got - 2010.04.10 21:57:39.
