data_PCOD8277730
_publ_section_title
;
Structure prediction by ZEFSAII (Michael W. Deem and Ramdas Pophale) SiO2 
 PCOD8277730
Probable space group: C C C M
;
_chemical_formula_sum "Si O2"
_cell_formula_units_Z 80
_cell_length_a 15.638672
_cell_length_b 8.810332
_cell_length_c 28.733450
_cell_angle_alpha 90.000000
_cell_angle_beta 90.000000
_cell_angle_gamma 90.000000
_cell_volume 3958.949115
_symmetry_space_group_name_H-M "C C C M"
_symmetry_group_IT_number 66
_symmetry_cell_setting 'orthorhombic'
loop_
_space_group_symop_operation_xyz
x,y,z
-x,-y,z
x,-y,1/2-z
-x,y,1/2-z
-x,-y,-z
x,y,-z
-x,y,1/2+z
x,-y,1/2+z
1/2+x,1/2+y,z
1/2-x,1/2-y,z
1/2+x,1/2-y,1/2-z
1/2-x,1/2+y,1/2-z
1/2-x,1/2-y,-z
1/2+x,1/2+y,-z
1/2-x,1/2+y,1/2+z
1/2+x,1/2-y,1/2+z
loop_
_atom_site_type_symbol
_atom_site_label
_atom_site_fract_x
_atom_site_fract_y
_atom_site_fract_z
Si Si1 0.749872 0.429385 0.885433
Si Si2 0.663435 0.655452 0.947740
Si Si3 0.495785 0.748527 0.302306
Si Si4 0.427292 0.098495 0.108587
Si Si5 0.638337 0.480070 0.801306
O O1 0.750000 0.250000 0.890683
O O2 0.684327 0.493852 0.924295
O O3 0.844119 0.494673 0.889962
O O4 0.717874 0.489885 0.835749
O O5 0.750000 0.750000 0.947993
O O6 0.590719 0.744971 0.918765
O O7 0.629476 0.628184 0.000000
O O8 0.500000 0.818338 0.250000
O O9 0.467454 0.871720 0.340179
O O10 0.427967 0.614850 0.306913
O O11 0.590280 0.679530 0.311647
O O12 0.500000 0.000000 0.081805
O O13 0.678017 0.500000 0.750000
#
# Coordination Sequence:
#
# PCOD8277730 Si02
#       5
#    16  16  16  16  16
#     4  11  22  39  60  89 123 160 201 251 301 364
#     4   9  20  40  65  88 117 159 203 255 311 364
#     4   9  18  35  60  84 115 157 201 244 299 355
#     4  11  22  38  60  88 123 158 201 252 306 360
#     4   9  18  36  58  84 116 158 199 244 297 354
#
# _framework density 20.207384000000001
#
# number of rings (size 3 to 8) (size 9 to 14) (size 15 to 20)
#    0.000    2.200    2.000    2.400    0.000    1.200 
#   10.800    0.000    0.000    8.400    0.000    0.000 
#    0.000    0.000    0.000    0.000    0.000    0.000 
#
# Total GULP energy -495796.453507 kJ/mol
# GULP energy per Si atom -12394.911338 kJ/mol
# Density = 2.016139 g / cm^3
# Si number density = 20.207384 Si / 1000 Ang^3
#
#
#
# Elastic Constant Matrix: (Units=GPa)
#
#
# Indices 1 2 3 4 5 6 
#
# 1 97.7424 33.8917 51.8478 0.0000 0.0000 0.0000
# 2 33.8917 97.4769 61.5544 0.0000 0.0000 0.0000
# 3 51.8478 61.5544 139.8156 0.0000 0.0000 0.0000
# 4 0.0000 0.0000 0.0000 19.5362 0.0000 0.0000
# 5 0.0000 0.0000 0.0000 0.0000 22.0889 0.0000
# 6 0.0000 0.0000 0.0000 0.0000 0.0000 21.8593
#
#
#
# Elastic Compliance Matrix: (Units=1/GPa)
#
#
# Indices 1 2 3 4 5 6 
#
# 1 0.013025 -0.002048 -0.003928 0.000000 0.000000 0.000000
# 2 -0.002048 0.014531 -0.005638 0.000000 0.000000 0.000000
# 3 -0.003928 -0.005638 0.011091 0.000000 0.000000 0.000000
# 4 0.000000 0.000000 0.000000 0.051187 0.000000 0.000000
# 5 0.000000 0.000000 0.000000 0.000000 0.045272 0.000000
# 6 0.000000 0.000000 0.000000 0.000000 0.000000 0.045747
#
#
# Mechanical properties :
#
#
# Convention : Reuss Voigt Hill
#
# Bulk Modulus (GPa) = 64.85661 69.95808 67.40735
# Shear Modulus (GPa) = 23.89818 25.21296 24.55557
#
# Velocity S-wave (km/s) = 3.44269 3.53613 3.48972
# Velocity P-wave (km/s) = 6.92590 7.16711 7.04753
#
# Compressibility (1/GPa) = 0.01541863
#
# Stress axis : x y z
#
# Youngs Moduli (GPa) = 76.77584 68.81776 90.16157
#
# Poissons Ratio (x) = 0.14093 0.35419
# Poissons Ratio (y) = 0.15723 0.50833
# Poissons Ratio (z) = 0.30161 0.38799
#
# Static dielectric constant tensor:
#      x y z
#    x 3.616010 0.000000 0.000000 
#    y 0.000000 3.721350 0.000000 
#    z 0.000000 0.000000 3.932330 
# 
# 
# High freq. dielectric constant tensor:
#      x y z
#    x 1.780860 0.000000 0.000000 
#    y 0.000000 1.786870 0.000000 
#    z 0.000000 0.000000 1.782100 
# 
# From -- ./inp_files/65039.got.cif
#   From: 2010.03.12/outbox.cif.g09.slc.cpg/sg66_33_cif.got.tgz:65039.got - 2010.04.10 21:57:39.
