data_PCOD8277211
_publ_section_title
;
Structure prediction by ZEFSAII (Michael W. Deem and Ramdas Pophale) SiO2 
 PCOD8277211
Probable space group: C C C M
;
_chemical_formula_sum "Si O2"
_cell_formula_units_Z 112
_cell_length_a 14.567186
_cell_length_b 22.140999
_cell_length_c 14.835119
_cell_angle_alpha 90.000000
_cell_angle_beta 90.000000
_cell_angle_gamma 90.000000
_cell_volume 4784.801353
_symmetry_space_group_name_H-M "C C C M"
_symmetry_group_IT_number 66
_symmetry_cell_setting 'orthorhombic'
loop_
_space_group_symop_operation_xyz
x,y,z
-x,-y,z
x,-y,1/2-z
-x,y,1/2-z
-x,-y,-z
x,y,-z
-x,y,1/2+z
x,-y,1/2+z
1/2+x,1/2+y,z
1/2-x,1/2-y,z
1/2+x,1/2-y,1/2-z
1/2-x,1/2+y,1/2-z
1/2-x,1/2-y,-z
1/2+x,1/2+y,-z
1/2-x,1/2+y,1/2+z
1/2+x,1/2-y,1/2+z
loop_
_atom_site_type_symbol
_atom_site_label
_atom_site_fract_x
_atom_site_fract_y
_atom_site_fract_z
Si Si1 0.737914 0.429157 0.655564
Si Si2 0.213170 0.440361 0.360317
Si Si3 0.358939 0.176868 0.899027
Si Si4 0.036363 0.935550 0.605215
Si Si5 0.631421 0.350600 0.899852
Si Si6 0.604435 0.753003 0.731447
Si Si7 0.938465 0.643906 0.601089
O O1 0.766100 0.491634 0.605876
O O2 0.778322 0.432792 0.754358
O O3 0.778139 0.371756 0.603725
O O4 0.628437 0.420419 0.660148
O O5 0.285202 0.396857 0.409071
O O6 0.109454 0.421694 0.388649
O O7 0.345742 0.231586 0.826945
O O8 0.453527 0.141372 0.875155
O O9 0.361215 0.205084 0.000000
O O10 0.060743 0.938088 0.500000
O O11 0.961749 0.884843 0.627867
O O12 0.000000 0.000000 0.639304
O O13 0.653746 0.301376 0.822297
O O14 0.618758 0.321255 0.000000
O O15 0.500000 0.734448 0.750000
O O16 0.613472 0.811446 0.668564
O O17 0.926161 0.668553 0.500000
#
# Coordination Sequence:
#
# PCOD8277211 Si02
#       7
#    16  16  16  16  16  16  16
#     4  11  23  41  66 100 141 183 225 273 343 412
#     4  11  24  39  64 101 139 178 222 279 341 412
#     4  10  22  43  71  97 134 182 228 281 341 406
#     4  10  21  40  66  97 137 180 222 278 339 409
#     4  11  24  42  67 100 135 179 228 282 348 408
#     4  10  22  42  67  95 133 176 226 284 339 403
#     4  10  21  41  67  97 132 175 224 278 338 400
#
# _framework density 23.407450000000001
#
# number of rings (size 3 to 8) (size 9 to 14) (size 15 to 20)
#    0.000    1.571    2.857    1.286    2.000    3.429 
#    0.000    4.286    0.000    0.857    0.000    0.000 
#    0.000    0.571    0.000    0.000    0.000    0.000 
#
# Total GULP energy -694477.401144 kJ/mol
# GULP energy per Si atom -12401.382163 kJ/mol
# Density = 2.335417 g / cm^3
# Si number density = 23.407450 Si / 1000 Ang^3
#
#
#
# Elastic Constant Matrix: (Units=GPa)
#
#
# Indices 1 2 3 4 5 6 
#
# 1 96.9341 38.9359 24.7442 0.0000 0.0000 0.0000
# 2 38.9359 114.1819 53.7123 0.0000 0.0000 0.0000
# 3 24.7442 53.7123 133.2657 0.0000 0.0000 0.0000
# 4 0.0000 0.0000 0.0000 24.0549 0.0000 0.0000
# 5 0.0000 0.0000 0.0000 0.0000 27.3877 0.0000
# 6 0.0000 0.0000 0.0000 0.0000 0.0000 32.2241
#
#
#
# Elastic Compliance Matrix: (Units=1/GPa)
#
#
# Indices 1 2 3 4 5 6 
#
# 1 0.012008 -0.003759 -0.000715 0.000000 0.000000 0.000000
# 2 -0.003759 0.011983 -0.004132 0.000000 0.000000 0.000000
# 3 -0.000715 -0.004132 0.009302 0.000000 0.000000 0.000000
# 4 0.000000 0.000000 0.000000 0.041572 0.000000 0.000000
# 5 0.000000 0.000000 0.000000 0.000000 0.036513 0.000000
# 6 0.000000 0.000000 0.000000 0.000000 0.000000 0.031033
#
#
# Mechanical properties :
#
#
# Convention : Reuss Voigt Hill
#
# Bulk Modulus (GPa) = 62.17754 64.35185 63.26470
# Shear Modulus (GPa) = 30.30624 31.86596 31.08610
#
# Velocity S-wave (km/s) = 3.60213 3.69366 3.64819
# Velocity P-wave (km/s) = 6.62731 6.76333 6.69567
#
# Compressibility (1/GPa) = 0.01608298
#
# Stress axis : x y z
#
# Youngs Moduli (GPa) = 83.27440 83.44900 107.50493
#
# Poissons Ratio (x) = 0.31366 0.07684
# Poissons Ratio (y) = 0.31300 0.44421
# Poissons Ratio (z) = 0.05952 0.34481
#
# Static dielectric constant tensor:
#      x y z
#    x 4.091120 0.000000 0.000000 
#    y 0.000000 4.129000 0.000000 
#    z 0.000000 0.000000 4.300420 
# 
# 
# High freq. dielectric constant tensor:
#      x y z
#    x 1.922540 0.000000 0.000000 
#    y 0.000000 1.906750 0.000000 
#    z 0.000000 0.000000 1.939530 
# 
# From -- ./inp_files/28684.got.cif
#   From: 2010.03.12/outbox.cif.g09.slc.cpg/sg66_15_cif.got.tgz:28684.got - 2010.04.10 21:57:39.
