data_PCOD8277069
_publ_section_title
;
Structure prediction by ZEFSAII (Michael W. Deem and Ramdas Pophale) SiO2 
 PCOD8277069
Probable space group: C C C M
;
_chemical_formula_sum "Si O2"
_cell_formula_units_Z 108
_cell_length_a 14.718456
_cell_length_b 24.082944
_cell_length_c 13.957768
_cell_angle_alpha 90.000000
_cell_angle_beta 90.000000
_cell_angle_gamma 90.000000
_cell_volume 4947.522809
_symmetry_space_group_name_H-M "C C C M"
_symmetry_group_IT_number 66
_symmetry_cell_setting 'orthorhombic'
loop_
_space_group_symop_operation_xyz
x,y,z
-x,-y,z
x,-y,1/2-z
-x,y,1/2-z
-x,-y,-z
x,y,-z
-x,y,1/2+z
x,-y,1/2+z
1/2+x,1/2+y,z
1/2-x,1/2-y,z
1/2+x,1/2-y,1/2-z
1/2-x,1/2+y,1/2-z
1/2-x,1/2-y,-z
1/2+x,1/2+y,-z
1/2-x,1/2+y,1/2+z
1/2+x,1/2-y,1/2+z
loop_
_atom_site_type_symbol
_atom_site_label
_atom_site_fract_x
_atom_site_fract_y
_atom_site_fract_z
Si Si1 0.291900 0.097169 0.106866
Si Si2 0.853890 0.521610 0.391492
Si Si3 0.983206 0.197896 0.390524
Si Si4 0.192021 0.198862 0.610105
Si Si5 0.692759 0.416748 0.791955
Si Si6 0.000000 0.896310 0.250000
Si Si7 0.000000 0.500000 0.250000
Si Si8 0.162538 0.281942 0.886764
O O1 0.212138 0.081564 0.179321
O O2 0.341458 0.153322 0.143624
O O3 0.361106 0.045419 0.105679
O O4 0.250762 0.106007 0.000000
O O5 0.867921 0.545134 0.500000
O O6 0.755001 0.539953 0.350941
O O7 0.935191 0.538908 0.318443
O O8 0.958272 0.184729 0.500000
O O9 0.087361 0.214735 0.377910
O O10 0.956696 0.142964 0.331741
O O11 0.926165 0.249682 0.348587
O O12 0.217988 0.187639 0.500000
O O13 0.250000 0.250000 0.651890
O O14 0.215914 0.143716 0.667663
O O15 0.583961 0.431430 0.797053
O O16 0.250000 0.250000 0.843839
O O17 0.164244 0.278253 0.000000
#
# Coordination Sequence:
#
# PCOD8277069 Si02
#       8
#    16  16  16  16  16   8   4  16
#     4  10  21  38  60  87 124 160 200 258 314 374
#     4  11  24  45  70  96 128 166 213 266 324 384
#     4   9  18  34  52  79 121 161 205 257 313 378
#     4   9  19  36  56  83 120 165 214 264 320 385
#     4  11  21  40  62  90 124 168 214 267 323 385
#     4  10  22  34  62  92 122 169 217 262 318 378
#     4  12  22  48  74 100 120 166 210 272 320 390
#     4   9  17  31  54  83 115 153 194 244 311 376
#
# _framework density 21.829104999999998
#
# number of rings (size 3 to 8) (size 9 to 14) (size 15 to 20)
#    0.000    2.074    1.481    1.556    0.000    5.333 
#    2.667    2.222    0.000    1.778    0.000    0.000 
#    0.000    0.000    0.000    0.000    0.000    0.000 
#
# Total GULP energy -669182.255533 kJ/mol
# GULP energy per Si atom -12392.263991 kJ/mol
# Density = 2.177942 g / cm^3
# Si number density = 21.829105 Si / 1000 Ang^3
#
#
#
# Elastic Constant Matrix: (Units=GPa)
#
#
# Indices 1 2 3 4 5 6 
#
# 1 116.2758 44.9718 41.6332 0.0000 0.0000 0.0000
# 2 44.9718 95.4317 21.1795 0.0000 0.0000 0.0000
# 3 41.6332 21.1795 120.3354 0.0000 0.0000 0.0000
# 4 0.0000 0.0000 0.0000 26.1263 0.0000 0.0000
# 5 0.0000 0.0000 0.0000 0.0000 23.8564 0.0000
# 6 0.0000 0.0000 0.0000 0.0000 0.0000 34.4014
#
#
#
# Elastic Compliance Matrix: (Units=1/GPa)
#
#
# Indices 1 2 3 4 5 6 
#
# 1 0.011572 -0.004750 -0.003167 0.000000 0.000000 0.000000
# 2 -0.004750 0.012855 -0.000619 0.000000 0.000000 0.000000
# 3 -0.003167 -0.000619 0.009515 0.000000 0.000000 0.000000
# 4 0.000000 0.000000 0.000000 0.038276 0.000000 0.000000
# 5 0.000000 0.000000 0.000000 0.000000 0.041918 0.000000
# 6 0.000000 0.000000 0.000000 0.000000 0.000000 0.029069
#
#
# Mechanical properties :
#
#
# Convention : Reuss Voigt Hill
#
# Bulk Modulus (GPa) = 59.28427 60.84576 60.06502
# Shear Modulus (GPa) = 30.13890 31.82736 30.98313
#
# Velocity S-wave (km/s) = 3.71977 3.82255 3.77151
# Velocity P-wave (km/s) = 6.75768 6.88598 6.82213
#
# Compressibility (1/GPa) = 0.01686788
#
# Stress axis : x y z
#
# Youngs Moduli (GPa) = 86.41888 77.79352 105.09812
#
# Poissons Ratio (x) = 0.36953 0.33289
# Poissons Ratio (y) = 0.41050 0.06506
# Poissons Ratio (z) = 0.27373 0.04816
#
# Static dielectric constant tensor:
#      x y z
#    x 3.884820 0.000000 0.000000 
#    y 0.000000 3.918830 0.000000 
#    z 0.000000 0.000000 4.179260 
# 
# 
# High freq. dielectric constant tensor:
#      x y z
#    x 1.846430 0.000000 0.000000 
#    y 0.000000 1.834260 0.000000 
#    z 0.000000 0.000000 1.871890 
# 
# From -- ./inp_files/28758.got.cif
#   From: 2010.03.12/outbox.cif.g09.slc.cpg/sg66_15_cif.got.tgz:28758.got - 2010.04.10 21:57:39.
