data_PCOD8277443
_publ_section_title
;
Structure prediction by ZEFSAII (Michael W. Deem and Ramdas Pophale) SiO2 
 PCOD8277443
Probable space group: C C C M
;
_chemical_formula_sum "Si O2"
_cell_formula_units_Z 64
_cell_length_a 5.045535
_cell_length_b 20.941518
_cell_length_c 29.070830
_cell_angle_alpha 90.000000
_cell_angle_beta 90.000000
_cell_angle_gamma 90.000000
_cell_volume 3071.657679
_symmetry_space_group_name_H-M "C C C M"
_symmetry_group_IT_number 66
_symmetry_cell_setting 'orthorhombic'
loop_
_space_group_symop_operation_xyz
x,y,z
-x,-y,z
x,-y,1/2-z
-x,y,1/2-z
-x,-y,-z
x,y,-z
-x,y,1/2+z
x,-y,1/2+z
1/2+x,1/2+y,z
1/2-x,1/2-y,z
1/2+x,1/2-y,1/2-z
1/2-x,1/2+y,1/2-z
1/2-x,1/2-y,-z
1/2+x,1/2+y,-z
1/2-x,1/2+y,1/2+z
1/2+x,1/2-y,1/2+z
loop_
_atom_site_type_symbol
_atom_site_label
_atom_site_fract_x
_atom_site_fract_y
_atom_site_fract_z
Si Si1 0.315356 0.822809 0.128775
Si Si2 0.253846 0.606297 0.218723
Si Si3 0.250010 0.545088 0.500000
Si Si4 0.000000 0.000000 0.840939
Si Si5 0.818349 0.892967 0.904097
O O1 0.250000 0.750000 0.118259
O O2 0.287873 0.835953 0.183102
O O3 0.613208 0.840053 0.113907
O O4 0.114744 0.865467 0.098788
O O5 0.500000 0.626234 0.250000
O O6 0.307507 0.541149 0.191206
O O7 0.000000 0.595078 0.250000
O O8 0.500000 0.500000 0.500000
O O9 0.247672 0.590785 0.543879
O O10 0.000000 0.500000 0.500000
O O11 0.807645 0.956374 0.872411
#
# Coordination Sequence:
#
# PCOD8277443 Si02
#       5
#    16  16   8   8  16
#     4  11  25  45  65  89 130 177 221 264 311 377
#     4  11  24  39  61  92 125 168 215 269 323 374
#     4  12  24  42  69 104 137 158 204 261 321 398
#     4  10  23  39  64  94 136 162 208 267 339 394
#     4  11  24  42  67  98 129 169 210 261 330 384
#
# _framework density 20.835656
#
# number of rings (size 3 to 8) (size 9 to 14) (size 15 to 20)
#    0.000    1.000    1.250    5.625    3.500    9.000 
#    0.000    3.750    0.000    0.000    0.000    0.000 
#    0.000    0.000    0.000    0.000    0.000    0.000 
#
# Total GULP energy -397013.504249 kJ/mol
# GULP energy per Si atom -12406.672008 kJ/mol
# Density = 2.078823 g / cm^3
# Si number density = 20.835656 Si / 1000 Ang^3
#
#
#
# Elastic Constant Matrix: (Units=GPa)
#
#
# Indices 1 2 3 4 5 6 
#
# 1 113.4450 18.1943 40.5078 0.0000 0.0000 0.0000
# 2 18.1943 92.4771 37.4063 0.0000 0.0000 0.0000
# 3 40.5078 37.4063 151.4112 0.0000 0.0000 0.0000
# 4 0.0000 0.0000 0.0000 17.6674 0.0000 0.0000
# 5 0.0000 0.0000 0.0000 0.0000 33.7053 0.0000
# 6 0.0000 0.0000 0.0000 0.0000 0.0000 39.1856
#
#
#
# Elastic Compliance Matrix: (Units=1/GPa)
#
#
# Indices 1 2 3 4 5 6 
#
# 1 0.009823 -0.000966 -0.002389 0.000000 0.000000 0.000000
# 2 -0.000966 0.012109 -0.002733 0.000000 0.000000 0.000000
# 3 -0.002389 -0.002733 0.007919 0.000000 0.000000 0.000000
# 4 0.000000 0.000000 0.000000 0.056601 0.000000 0.000000
# 5 0.000000 0.000000 0.000000 0.000000 0.029669 0.000000
# 6 0.000000 0.000000 0.000000 0.000000 0.000000 0.025520
#
#
# Mechanical properties :
#
#
# Convention : Reuss Voigt Hill
#
# Bulk Modulus (GPa) = 56.58050 61.06112 58.82081
# Shear Modulus (GPa) = 31.30689 35.52666 33.41677
#
# Velocity S-wave (km/s) = 3.88050 4.13375 4.00912
# Velocity P-wave (km/s) = 6.87693 7.22174 7.05145
#
# Compressibility (1/GPa) = 0.01767393
#
# Stress axis : x y z
#
# Youngs Moduli (GPa) = 101.80249 82.58259 126.27914
#
# Poissons Ratio (x) = 0.07979 0.30172
# Poissons Ratio (y) = 0.09836 0.34513
# Poissons Ratio (z) = 0.24324 0.22570
#
# Static dielectric constant tensor:
#      x y z
#    x 3.833150 0.000000 0.000000 
#    y 0.000000 3.675720 0.000000 
#    z 0.000000 0.000000 3.805790 
# 
# 
# High freq. dielectric constant tensor:
#      x y z
#    x 1.831950 0.000000 0.000000 
#    y 0.000000 1.805210 0.000000 
#    z 0.000000 0.000000 1.823730 
# 
# From -- ./inp_files/61243.got.cif
#   From: 2010.03.12/outbox.cif.g09.slc.cpg/sg66_31_cif.got.tgz:61243.got - 2010.04.10 21:57:39.
