data_PCOD8277954
_publ_section_title
;
Structure prediction by ZEFSAII (Michael W. Deem and Ramdas Pophale) SiO2 
 PCOD8277954
Probable space group: C M M A
;
_chemical_formula_sum "Si O2"
_cell_formula_units_Z 72
_cell_length_a 8.565680
_cell_length_b 25.395996
_cell_length_c 20.735629
_cell_angle_alpha 90.000000
_cell_angle_beta 90.000000
_cell_angle_gamma 90.000000
_cell_volume 4510.703801
_symmetry_space_group_name_H-M "C M M A"
_symmetry_group_IT_number 67
_symmetry_cell_setting 'orthorhombic'
loop_
_space_group_symop_operation_xyz
x,y,z
-x,1/2-y,z
x,-y,-z
-x,1/2+y,-z
-x,-y,-z
x,1/2+y,-z
-x,y,z
x,1/2-y,z
1/2+x,1/2+y,z
1/2-x,-y,z
1/2+x,1/2-y,-z
1/2-x,y,-z
1/2-x,1/2-y,-z
1/2+x,y,-z
1/2-x,1/2+y,z
1/2+x,-y,z
loop_
_atom_site_type_symbol
_atom_site_label
_atom_site_fract_x
_atom_site_fract_y
_atom_site_fract_z
Si Si1 0.819047 0.750000 0.430434
Si Si2 0.815375 0.058731 0.805757
Si Si3 0.814940 0.136000 0.572109
Si Si4 0.315414 0.941055 0.064815
Si Si5 0.183740 0.442038 0.325232
O O1 0.750000 0.750000 0.500000
O O2 0.773339 0.805815 0.397087
O O3 0.000000 0.750000 0.442003
O O4 0.745645 0.087601 0.869738
O O5 0.757964 0.085202 0.739081
O O6 0.000000 0.059173 0.810171
O O7 0.750000 0.000000 0.803364
O O8 0.750000 0.131367 0.500000
O O9 0.726169 0.093204 0.613998
O O10 0.000000 0.125245 0.572709
O O11 0.500000 0.941347 0.063232
O O12 0.250000 0.000000 0.065863
O O13 0.250000 0.912507 0.000000
O O14 0.250000 0.500000 0.337768
O O15 0.000000 0.445947 0.316035
#
# Coordination Sequence:
#
# PCOD8277954 Si02
#       5
#     8  16  16  16  16
#     4   8  16  30  50  70  90 110 135 170 215 262
#     4  10  17  27  40  55  76 106 140 176 213 255
#     4  10  19  33  50  70  90 113 142 178 218 261
#     4  10  16  23  34  51  73 100 135 175 212 249
#     4  11  21  33  46  63  86 117 150 183 218 260
#
# _framework density 15.962033
#
# number of rings (size 3 to 8) (size 9 to 14) (size 15 to 20)
#    0.000    2.000    0.000   10.000    0.000    1.333 
#    0.000    2.222    0.000    0.000    0.000    0.000 
#    0.000    0.000    0.000    1.000    0.000   13.111 
#
# Total GULP energy -445971.571135 kJ/mol
# GULP energy per Si atom -12388.099198 kJ/mol
# Density = 1.592570 g / cm^3
# Si number density = 15.962033 Si / 1000 Ang^3
#
#
#
# Elastic Constant Matrix: (Units=GPa)
#
#
# Indices 1 2 3 4 5 6 
#
# 1 138.1690 26.4669 44.6662 0.0000 0.0000 0.0000
# 2 26.4669 55.0356 38.5425 0.0000 0.0000 0.0000
# 3 44.6662 38.5425 116.6023 0.0000 0.0000 0.0000
# 4 0.0000 0.0000 0.0000 -97.2792 0.0000 0.0000
# 5 0.0000 0.0000 0.0000 0.0000 32.1724 0.0000
# 6 0.0000 0.0000 0.0000 0.0000 0.0000 11.9677
#
#
#
# Elastic Compliance Matrix: (Units=1/GPa)
#
#
# Indices 1 2 3 4 5 6 
#
# 1 0.008487 -0.002348 -0.002475 0.000000 0.000000 0.000000
# 2 -0.002348 0.024293 -0.007130 0.000000 0.000000 0.000000
# 3 -0.002475 -0.007130 0.011881 0.000000 0.000000 0.000000
# 4 0.000000 0.000000 0.000000 -0.010280 0.000000 0.000000
# 5 0.000000 0.000000 0.000000 0.000000 0.031083 0.000000
# 6 0.000000 0.000000 0.000000 0.000000 0.000000 0.083559
#
#
# Mechanical properties :
#
#
# Convention : Reuss Voigt Hill
#
# Bulk Modulus (GPa) = 48.18327 58.79532 53.48930
# Shear Modulus (GPa) = 27.80120 2.71427 15.25773
#
# Velocity S-wave (km/s) = 4.17791 1.30543 3.09508
# Velocity P-wave (km/s) = 7.31607 6.25992 6.80851
#
# Compressibility (1/GPa) = 0.02075409
#
# Stress axis : x y z
#
# Youngs Moduli (GPa) = 117.82107 41.16422 84.16694
#
# Poissons Ratio (x) = 0.09667 0.20831
# Poissons Ratio (y) = 0.27669 0.60014
# Poissons Ratio (z) = 0.29161 0.29352
#
# Static dielectric constant tensor:
#      x y z
#    x 3.171430 0.000000 0.000000 
#    y 0.000000 2.898200 0.000000 
#    z 0.000000 0.000000 4.197770 
# 
# 
# High freq. dielectric constant tensor:
#      x y z
#    x 1.639080 0.000000 0.000000 
#    y 0.000000 1.544130 0.000000 
#    z 0.000000 0.000000 1.624460 
# 
# From -- ./inp_files/36842.got.cif
#   From: 2010.03.12/outbox.cif.g09.slc.cpg/sg67_19_cif.got.tgz:36842.got - 2010.04.10 22:41:39.
