data_PCOD8277435
_publ_section_title
;
Structure prediction by ZEFSAII (Michael W. Deem and Ramdas Pophale) SiO2 
 PCOD8277435
Probable space group: C C C M
;
_chemical_formula_sum "Si O2"
_cell_formula_units_Z 96
_cell_length_a 25.801400
_cell_length_b 20.552028
_cell_length_c 8.801263
_cell_angle_alpha 90.000000
_cell_angle_beta 90.000000
_cell_angle_gamma 90.000000
_cell_volume 4667.055370
_symmetry_space_group_name_H-M "C C C M"
_symmetry_group_IT_number 66
_symmetry_cell_setting 'orthorhombic'
loop_
_space_group_symop_operation_xyz
x,y,z
-x,-y,z
x,-y,1/2-z
-x,y,1/2-z
-x,-y,-z
x,y,-z
-x,y,1/2+z
x,-y,1/2+z
1/2+x,1/2+y,z
1/2-x,1/2-y,z
1/2+x,1/2-y,1/2-z
1/2-x,1/2+y,1/2-z
1/2-x,1/2-y,-z
1/2+x,1/2+y,-z
1/2-x,1/2+y,1/2+z
1/2+x,1/2-y,1/2+z
loop_
_atom_site_type_symbol
_atom_site_label
_atom_site_fract_x
_atom_site_fract_y
_atom_site_fract_z
Si Si1 0.553576 0.186247 0.179388
Si Si2 0.274146 0.908524 0.323334
Si Si3 0.656970 0.565997 0.821498
Si Si4 0.885790 0.202667 0.320239
Si Si5 0.800632 0.716012 0.663891
Si Si6 0.621872 0.937276 0.324219
O O1 0.500000 0.161084 0.250000
O O2 0.565647 0.257862 0.249900
O O3 0.597750 0.132947 0.226377
O O4 0.547710 0.192977 0.000000
O O5 0.280803 0.925771 0.500000
O O6 0.216237 0.924203 0.262025
O O7 0.286234 0.833464 0.296278
O O8 0.317757 0.944202 0.222961
O O9 0.633795 0.500000 0.750000
O O10 0.617694 0.625440 0.780093
O O11 0.659637 0.557938 0.000000
O O12 0.884790 0.213340 0.500000
O O13 0.836083 0.230857 0.239664
O O14 0.824673 0.687783 0.500000
O O15 0.750000 0.750000 0.606179
O O16 0.614426 0.946927 0.500000
O O17 0.592847 0.000000 0.250000
#
# Coordination Sequence:
#
# PCOD8277435 Si02
#       6
#    16  16  16  16  16  16
#     4  11  25  44  66  92 117 149 196 249 307 364
#     4  11  21  35  56  84 121 165 207 246 287 340
#     4  10  23  38  56  87 123 163 204 242 291 352
#     4  11  22  39  62  87 118 156 199 248 302 359
#     4  11  21  32  52  84 118 157 201 245 292 347
#     4  11  24  40  59  87 122 161 206 247 296 351
#
# _framework density 20.569716
#
# number of rings (size 3 to 8) (size 9 to 14) (size 15 to 20)
#    0.000    1.167    3.333    3.000    0.000    7.000 
#    0.000    1.667    0.000    0.500    0.000    3.500 
#    0.000    0.000    0.000    0.000    0.000    0.000 
#
# Total GULP energy -594634.698475 kJ/mol
# GULP energy per Si atom -12388.222885 kJ/mol
# Density = 2.052290 g / cm^3
# Si number density = 20.569716 Si / 1000 Ang^3
#
#
#
# Elastic Constant Matrix: (Units=GPa)
#
#
# Indices 1 2 3 4 5 6 
#
# 1 61.3692 22.7216 25.3847 0.0000 0.0000 0.0000
# 2 22.7216 130.0239 47.4590 0.0000 0.0000 0.0000
# 3 25.3847 47.4590 84.5511 0.0000 0.0000 0.0000
# 4 0.0000 0.0000 0.0000 38.7124 0.0000 0.0000
# 5 0.0000 0.0000 0.0000 0.0000 29.1327 0.0000
# 6 0.0000 0.0000 0.0000 0.0000 0.0000 18.1146
#
#
#
# Elastic Compliance Matrix: (Units=1/GPa)
#
#
# Indices 1 2 3 4 5 6 
#
# 1 0.018849 -0.001545 -0.004792 0.000000 0.000000 0.000000
# 2 -0.001545 0.009799 -0.005037 0.000000 0.000000 0.000000
# 3 -0.004792 -0.005037 0.016093 0.000000 0.000000 0.000000
# 4 0.000000 0.000000 0.000000 0.025832 0.000000 0.000000
# 5 0.000000 0.000000 0.000000 0.000000 0.034326 0.000000
# 6 0.000000 0.000000 0.000000 0.000000 0.000000 0.055204
#
#
# Mechanical properties :
#
#
# Convention : Reuss Voigt Hill
#
# Bulk Modulus (GPa) = 45.46591 51.89722 48.68157
# Shear Modulus (GPa) = 26.29082 29.21717 27.75400
#
# Velocity S-wave (km/s) = 3.57898 3.77290 3.67722
# Velocity P-wave (km/s) = 6.26339 6.65315 6.46121
#
# Compressibility (1/GPa) = 0.02199450
#
# Stress axis : x y z
#
# Youngs Moduli (GPa) = 53.05351 102.04918 62.13923
#
# Poissons Ratio (x) = 0.15764 0.29777
# Poissons Ratio (y) = 0.08196 0.31297
# Poissons Ratio (z) = 0.25423 0.51398
#
# Static dielectric constant tensor:
#      x y z
#    x 3.645260 0.000000 0.000000 
#    y 0.000000 4.128580 0.000000 
#    z 0.000000 0.000000 3.693770 
# 
# 
# High freq. dielectric constant tensor:
#      x y z
#    x 1.769710 0.000000 0.000000 
#    y 0.000000 1.815080 0.000000 
#    z 0.000000 0.000000 1.814750 
# 
# From -- ./inp_files/7972.got.cif
#   From: 2010.03.12/outbox.cif.g09.slc.cpg/sg66_4_cif.got.tgz:7972.got - 2010.04.10 21:57:39.
