data_PCOD8277880
_publ_section_title
;
Structure prediction by ZEFSAII (Michael W. Deem and Ramdas Pophale) SiO2 
 PCOD8277880
Probable space group: C C C M
;
_chemical_formula_sum "Si O2"
_cell_formula_units_Z 40
_cell_length_a 11.933770
_cell_length_b 7.400440
_cell_length_c 19.753769
_cell_angle_alpha 90.000000
_cell_angle_beta 90.000000
_cell_angle_gamma 90.000000
_cell_volume 1744.557050
_symmetry_space_group_name_H-M "C C C M"
_symmetry_group_IT_number 66
_symmetry_cell_setting 'orthorhombic'
loop_
_space_group_symop_operation_xyz
x,y,z
-x,-y,z
x,-y,1/2-z
-x,y,1/2-z
-x,-y,-z
x,y,-z
-x,y,1/2+z
x,-y,1/2+z
1/2+x,1/2+y,z
1/2-x,1/2-y,z
1/2+x,1/2-y,1/2-z
1/2-x,1/2+y,1/2-z
1/2-x,1/2-y,-z
1/2+x,1/2+y,-z
1/2-x,1/2+y,1/2+z
1/2+x,1/2-y,1/2+z
loop_
_atom_site_type_symbol
_atom_site_label
_atom_site_fract_x
_atom_site_fract_y
_atom_site_fract_z
Si Si1 0.594380 0.862245 0.077031
Si Si2 0.238010 0.956261 0.824500
Si Si3 0.500000 0.500000 0.128864
O O1 0.535245 0.667828 0.081758
O O2 0.500000 0.000000 0.101259
O O3 0.703260 0.903594 0.123448
O O4 0.633543 0.894539 0.000000
O O5 0.250000 0.750000 0.847620
O O6 0.287168 0.000000 0.750000
O O7 0.104975 0.977437 0.821962
#
# Coordination Sequence:
#
# PCOD8277880 Si02
#       3
#    16  16   8
#     4  11  25  46  73 106 143 187 236 290 353 420
#     4  12  26  46  71 105 143 186 239 295 351 423
#     4  12  24  46  72 106 139 189 232 294 356 414
#
# _framework density 22.928457000000002
#
# number of rings (size 3 to 8) (size 9 to 14) (size 15 to 20)
#    0.000    0.400    4.000    4.800    0.000    6.400 
#    0.000    0.000    0.000    0.000    0.000    0.000 
#    0.000    0.000    0.000    0.000    0.000    0.000 
#
# Total GULP energy -247900.886185 kJ/mol
# GULP energy per Si atom -12395.044309 kJ/mol
# Density = 2.287627 g / cm^3
# Si number density = 22.928457 Si / 1000 Ang^3
#
#
#
# Elastic Constant Matrix: (Units=GPa)
#
#
# Indices 1 2 3 4 5 6 
#
# 1 150.7349 56.3524 54.0816 0.0000 0.0000 0.0000
# 2 56.3524 164.7538 32.3976 0.0000 0.0000 0.0000
# 3 54.0816 32.3976 139.4541 0.0000 0.0000 0.0000
# 4 0.0000 0.0000 0.0000 5.1814 0.0000 0.0000
# 5 0.0000 0.0000 0.0000 0.0000 31.0834 0.0000
# 6 0.0000 0.0000 0.0000 0.0000 0.0000 41.5346
#
#
#
# Elastic Compliance Matrix: (Units=1/GPa)
#
#
# Indices 1 2 3 4 5 6 
#
# 1 0.008506 -0.002369 -0.002748 0.000000 0.000000 0.000000
# 2 -0.002369 0.007020 -0.000712 0.000000 0.000000 0.000000
# 3 -0.002748 -0.000712 0.008402 0.000000 0.000000 0.000000
# 4 0.000000 0.000000 0.000000 0.192998 0.000000 0.000000
# 5 0.000000 0.000000 0.000000 0.000000 0.032171 0.000000
# 6 0.000000 0.000000 0.000000 0.000000 0.000000 0.024076
#
#
# Mechanical properties :
#
#
# Convention : Reuss Voigt Hill
#
# Bulk Modulus (GPa) = 81.50545 82.28956 81.89750
# Shear Modulus (GPa) = 17.30572 36.36731 26.83651
#
# Velocity S-wave (km/s) = 2.75029 3.98693 3.42489
# Velocity P-wave (km/s) = 6.76094 7.56054 7.17190
#
# Compressibility (1/GPa) = 0.01226912
#
# Stress axis : x y z
#
# Youngs Moduli (GPa) = 117.56637 142.45082 119.01807
#
# Poissons Ratio (x) = 0.33745 0.32710
# Poissons Ratio (y) = 0.27850 0.08476
# Poissons Ratio (z) = 0.32311 0.10145
#
# Static dielectric constant tensor:
#      x y z
#    x 4.223730 0.000000 0.000000 
#    y 0.000000 4.478400 0.000000 
#    z 0.000000 0.000000 3.728610 
# 
# 
# High freq. dielectric constant tensor:
#      x y z
#    x 1.916160 0.000000 0.000000 
#    y 0.000000 1.928840 0.000000 
#    z 0.000000 0.000000 1.893290 
# 
# From -- ./inp_files/35337.got.cif
#   From: 2010.03.12/outbox.cif.g09.slc.cpg/sg66_18_cif.got.tgz:35337.got - 2010.04.10 21:57:39.
