data_PCOD8277321
_publ_section_title
;
Structure prediction by ZEFSAII (Michael W. Deem and Ramdas Pophale) SiO2 
 PCOD8277321
Probable space group: C C C M
;
_chemical_formula_sum "Si O2"
_cell_formula_units_Z 64
_cell_length_a 8.446430
_cell_length_b 24.295440
_cell_length_c 15.717441
_cell_angle_alpha 90.000000
_cell_angle_beta 90.000000
_cell_angle_gamma 90.000000
_cell_volume 3225.371875
_symmetry_space_group_name_H-M "C C C M"
_symmetry_group_IT_number 66
_symmetry_cell_setting 'orthorhombic'
loop_
_space_group_symop_operation_xyz
x,y,z
-x,-y,z
x,-y,1/2-z
-x,y,1/2-z
-x,-y,-z
x,y,-z
-x,y,1/2+z
x,-y,1/2+z
1/2+x,1/2+y,z
1/2-x,1/2-y,z
1/2+x,1/2-y,1/2-z
1/2-x,1/2+y,1/2-z
1/2-x,1/2-y,-z
1/2+x,1/2+y,-z
1/2-x,1/2+y,1/2+z
1/2+x,1/2-y,1/2+z
loop_
_atom_site_type_symbol
_atom_site_label
_atom_site_fract_x
_atom_site_fract_y
_atom_site_fract_z
Si Si1 0.940106 0.633139 0.844663
Si Si2 0.887816 0.145990 0.591480
Si Si3 0.562763 0.250554 0.156636
Si Si4 0.067693 0.060864 0.500000
Si Si5 0.057767 0.561675 0.000000
O O1 0.747894 0.636603 0.838065
O O2 0.000000 0.617873 0.750000
O O3 0.002690 0.691952 0.877166
O O4 0.993662 0.588475 0.913201
O O5 0.799360 0.152466 0.500000
O O6 0.994126 0.199967 0.601842
O O7 0.004650 0.092900 0.584868
O O8 0.500000 0.261087 0.250000
O O9 0.750000 0.250000 0.152617
O O10 0.254636 0.062151 0.500000
O O11 0.000000 0.000000 0.500000
O O12 0.000000 0.500000 0.000000
#
# Coordination Sequence:
#
# PCOD8277321 Si02
#       5
#    16  16  16   8   8
#     4  11  23  41  66  94 128 168 211 264 321 378
#     4  10  22  39  63  93 126 169 210 263 318 379
#     4  11  22  37  59  93 131 169 214 262 316 382
#     4  10  22  41  62  91 124 168 212 260 320 372
#     4  12  24  43  68  93 126 166 214 268 310 382
#
# _framework density 19.842672
#
# number of rings (size 3 to 8) (size 9 to 14) (size 15 to 20)
#    0.750    0.500    1.250    6.750    1.750    2.000 
#    0.000    0.000    0.000    5.250    0.000    0.000 
#    0.000    0.000    0.000    0.000    0.000    0.000 
#
# Total GULP energy -396624.362059 kJ/mol
# GULP energy per Si atom -12394.511314 kJ/mol
# Density = 1.979751 g / cm^3
# Si number density = 19.842672 Si / 1000 Ang^3
#
#
#
# Elastic Constant Matrix: (Units=GPa)
#
#
# Indices 1 2 3 4 5 6 
#
# 1 184.6181 62.1104 45.4821 0.0000 0.0000 0.0000
# 2 62.1104 177.4919 58.8346 0.0000 0.0000 0.0000
# 3 45.4821 58.8346 99.5034 0.0000 0.0000 0.0000
# 4 0.0000 0.0000 0.0000 6.4582 0.0000 0.0000
# 5 0.0000 0.0000 0.0000 0.0000 32.8303 0.0000
# 6 0.0000 0.0000 0.0000 0.0000 0.0000 37.5824
#
#
#
# Elastic Compliance Matrix: (Units=1/GPa)
#
#
# Indices 1 2 3 4 5 6 
#
# 1 0.006446 -0.001591 -0.002006 0.000000 0.000000 0.000000
# 2 -0.001591 0.007400 -0.003648 0.000000 0.000000 0.000000
# 3 -0.002006 -0.003648 0.013124 0.000000 0.000000 0.000000
# 4 0.000000 0.000000 0.000000 0.154842 0.000000 0.000000
# 5 0.000000 0.000000 0.000000 0.000000 0.030460 0.000000
# 6 0.000000 0.000000 0.000000 0.000000 0.000000 0.026608
#
#
# Mechanical properties :
#
#
# Convention : Reuss Voigt Hill
#
# Bulk Modulus (GPa) = 80.12786 88.27416 84.20101
# Shear Modulus (GPa) = 19.41520 35.05327 27.23423
#
# Velocity S-wave (km/s) = 3.13142 4.20761 3.70876
# Velocity P-wave (km/s) = 7.31735 8.25766 7.80168
#
# Compressibility (1/GPa) = 0.01248005
#
# Stress axis : x y z
#
# Youngs Moduli (GPa) = 155.13734 135.13345 76.19651
#
# Poissons Ratio (x) = 0.21497 0.15283
# Poissons Ratio (y) = 0.24679 0.27800
# Poissons Ratio (z) = 0.31117 0.49302
#
# Static dielectric constant tensor:
#      x y z
#    x 3.674680 0.000000 0.000000 
#    y 0.000000 3.715970 0.000000 
#    z 0.000000 0.000000 3.483470 
# 
# 
# High freq. dielectric constant tensor:
#      x y z
#    x 1.793280 0.000000 0.000000 
#    y 0.000000 1.778730 0.000000 
#    z 0.000000 0.000000 1.760410 
# 
# From -- ./inp_files/36413.got.cif
#   From: 2010.03.12/outbox.cif.g09.slc.cpg/sg66_19_cif.got.tgz:36413.got - 2010.04.10 21:57:39.
