data_PCOD8277329
_publ_section_title
;
Structure prediction by ZEFSAII (Michael W. Deem and Ramdas Pophale) SiO2 
 PCOD8277329
Probable space group: C C C M
;
_chemical_formula_sum "Si O2"
_cell_formula_units_Z 80
_cell_length_a 11.646014
_cell_length_b 14.581571
_cell_length_c 22.926206
_cell_angle_alpha 90.000000
_cell_angle_beta 90.000000
_cell_angle_gamma 90.000000
_cell_volume 3893.263651
_symmetry_space_group_name_H-M "C C C M"
_symmetry_group_IT_number 66
_symmetry_cell_setting 'orthorhombic'
loop_
_space_group_symop_operation_xyz
x,y,z
-x,-y,z
x,-y,1/2-z
-x,y,1/2-z
-x,-y,-z
x,y,-z
-x,y,1/2+z
x,-y,1/2+z
1/2+x,1/2+y,z
1/2-x,1/2-y,z
1/2+x,1/2-y,1/2-z
1/2-x,1/2+y,1/2-z
1/2-x,1/2-y,-z
1/2+x,1/2+y,-z
1/2-x,1/2+y,1/2+z
1/2+x,1/2-y,1/2+z
loop_
_atom_site_type_symbol
_atom_site_label
_atom_site_fract_x
_atom_site_fract_y
_atom_site_fract_z
Si Si1 0.330174 0.160244 0.000000
Si Si2 0.571325 0.905016 0.500000
Si Si3 0.723953 0.146120 0.378008
Si Si4 0.135790 0.997731 0.818238
Si Si5 0.000126 0.397756 0.318075
Si Si6 0.290564 0.147882 0.386233
O O1 0.250000 0.250000 0.000000
O O2 0.300312 0.101273 0.058150
O O3 0.470888 0.174749 0.000000
O O4 0.654934 0.897393 0.444020
O O5 0.500000 0.000000 0.500000
O O6 0.750000 0.250000 0.390618
O O7 0.612920 0.152223 0.338232
O O8 0.824387 0.093202 0.345673
O O9 0.191016 0.914316 0.855723
O O10 0.173672 0.000000 0.750000
O O11 0.000000 0.000000 0.824382
O O12 0.000000 0.500000 0.345212
O O13 0.000000 0.402445 0.250000
O O14 0.110475 0.341430 0.338260
O O15 0.250000 0.250000 0.401855
#
# Coordination Sequence:
#
# PCOD8277329 Si02
#       6
#     8   8  16  16  16  16
#     4  10  22  39  67  96 129 167 212 270 324 393
#     4  12  23  45  73 100 136 180 227 288 347 400
#     4  11  23  42  67  97 127 171 228 271 331 405
#     4  11  26  46  65  93 138 181 219 277 345 406
#     4  11  22  40  66  95 131 173 226 283 332 397
#     4  12  26  43  66 103 137 175 227 286 343 404
#
# _framework density 20.548313
#
# number of rings (size 3 to 8) (size 9 to 14) (size 15 to 20)
#    0.000    0.800    4.000    3.300    2.800    3.200 
#    0.000    2.000    0.000    0.000    0.000    0.000 
#    0.000    0.000    0.000    0.000    0.000    0.000 
#
# Total GULP energy -495635.935759 kJ/mol
# GULP energy per Si atom -12390.898394 kJ/mol
# Density = 2.050154 g / cm^3
# Si number density = 20.548313 Si / 1000 Ang^3
#
#
#
# Elastic Constant Matrix: (Units=GPa)
#
#
# Indices 1 2 3 4 5 6 
#
# 1 131.8616 42.3274 65.6613 0.0000 0.0000 0.0000
# 2 42.3274 104.2014 51.5702 0.0000 0.0000 0.0000
# 3 65.6613 51.5702 155.6450 0.0000 0.0000 0.0000
# 4 0.0000 0.0000 0.0000 42.8018 0.0000 0.0000
# 5 0.0000 0.0000 0.0000 0.0000 29.2844 0.0000
# 6 0.0000 0.0000 0.0000 0.0000 0.0000 2062.5717
#
#
#
# Elastic Compliance Matrix: (Units=1/GPa)
#
#
# Indices 1 2 3 4 5 6 
#
# 1 0.010070 -0.002378 -0.003460 0.000000 0.000000 0.000000
# 2 -0.002378 0.012041 -0.002986 0.000000 0.000000 0.000000
# 3 -0.003460 -0.002986 0.008874 0.000000 0.000000 0.000000
# 4 0.000000 0.000000 0.000000 0.023363 0.000000 0.000000
# 5 0.000000 0.000000 0.000000 0.000000 0.034148 0.000000
# 6 0.000000 0.000000 0.000000 0.000000 0.000000 0.000485
#
#
# Mechanical properties :
#
#
# Convention : Reuss Voigt Hill
#
# Bulk Modulus (GPa) = 74.98657 78.98065 76.98361
# Shear Modulus (GPa) = 45.01435 442.40817 243.71126
#
# Velocity S-wave (km/s) = 4.68553 14.68907 10.90236
# Velocity P-wave (km/s) = 8.11445 18.06133 14.00100
#
# Compressibility (1/GPa) = 0.01333572
#
# Stress axis : x y z
#
# Youngs Moduli (GPa) = 99.30340 83.05168 112.68721
#
# Poissons Ratio (x) = 0.19750 0.38994
# Poissons Ratio (y) = 0.23615 0.33651
# Poissons Ratio (z) = 0.34362 0.24801
#
# Static dielectric constant tensor:
#      x y z
#    x 3.863900 0.000000 0.000000 
#    y 0.000000 3.531050 0.000000 
#    z 0.000000 0.000000 4.129710 
# 
# 
# High freq. dielectric constant tensor:
#      x y z
#    x 1.813000 0.000000 0.000000 
#    y 0.000000 1.789880 0.000000 
#    z 0.000000 0.000000 1.833240 
# 
# From -- ./inp_files/56673.got.cif
#   From: 2010.03.12/outbox.cif.g09.slc.cpg/sg66_29_cif.got.tgz:56673.got - 2010.04.10 21:57:39.
