data_PCOD8277798
_publ_section_title
;
Structure prediction by ZEFSAII (Michael W. Deem and Ramdas Pophale) SiO2 
 PCOD8277798
Probable space group: C C C M
;
_chemical_formula_sum "Si O2"
_cell_formula_units_Z 48
_cell_length_a 4.968764
_cell_length_b 26.435444
_cell_length_c 15.966088
_cell_angle_alpha 90.000000
_cell_angle_beta 90.000000
_cell_angle_gamma 90.000000
_cell_volume 2097.169328
_symmetry_space_group_name_H-M "C C C M"
_symmetry_group_IT_number 66
_symmetry_cell_setting 'orthorhombic'
loop_
_space_group_symop_operation_xyz
x,y,z
-x,-y,z
x,-y,1/2-z
-x,y,1/2-z
-x,-y,-z
x,y,-z
-x,y,1/2+z
x,-y,1/2+z
1/2+x,1/2+y,z
1/2-x,1/2-y,z
1/2+x,1/2-y,1/2-z
1/2-x,1/2+y,1/2-z
1/2-x,1/2-y,-z
1/2+x,1/2+y,-z
1/2-x,1/2+y,1/2+z
1/2+x,1/2-y,1/2+z
loop_
_atom_site_type_symbol
_atom_site_label
_atom_site_fract_x
_atom_site_fract_y
_atom_site_fract_z
Si Si1 0.251557 0.969236 0.599701
Si Si2 0.626205 0.803487 0.658197
Si Si3 0.630425 0.642189 0.095748
O O1 0.267088 0.969056 0.500000
O O2 0.239158 0.911344 0.631030
O O3 0.500000 0.000000 0.638512
O O4 0.000000 0.000000 0.633773
O O5 0.500000 0.801226 0.750000
O O6 0.750000 0.750000 0.629993
O O7 0.377547 0.818227 0.598576
O O8 0.873428 0.842765 0.652190
O O9 0.529148 0.637986 0.000000
#
# Coordination Sequence:
#
# PCOD8277798 Si02
#       3
#    16  16  16
#     4   9  17  32  56  88 125 159 193 239 298 361
#     4  12  25  43  63  86 123 170 210 248 312 384
#     4  11  23  39  65  98 125 157 208 264 306 351
#
# _framework density 22.887996999999999
#
# number of rings (size 3 to 8) (size 9 to 14) (size 15 to 20)
#    0.000    1.333    0.000    7.000    0.000    9.333 
#    0.000    0.000    0.000   15.000    0.000    0.000 
#    0.000    0.000    0.000    0.000    0.000    0.333 
#
# Total GULP energy -297583.221382 kJ/mol
# GULP energy per Si atom -12399.300891 kJ/mol
# Density = 2.283590 g / cm^3
# Si number density = 22.887997 Si / 1000 Ang^3
#
#
#
# Elastic Constant Matrix: (Units=GPa)
#
#
# Indices 1 2 3 4 5 6 
#
# 1 186.4867 65.5933 12.8040 0.0000 0.0000 0.0000
# 2 65.5933 136.5266 26.5925 0.0000 0.0000 0.0000
# 3 12.8040 26.5925 23.8199 0.0000 0.0000 0.0000
# 4 0.0000 0.0000 0.0000 4.7081 0.0000 0.0000
# 5 0.0000 0.0000 0.0000 0.0000 27.3529 0.0000
# 6 0.0000 0.0000 0.0000 0.0000 0.0000 53.8238
#
#
#
# Elastic Compliance Matrix: (Units=1/GPa)
#
#
# Indices 1 2 3 4 5 6 
#
# 1 0.006453 -0.003098 -0.000010 0.000000 0.000000 0.000000
# 2 -0.003098 0.010848 -0.010445 0.000000 0.000000 0.000000
# 3 -0.000010 -0.010445 0.053647 0.000000 0.000000 0.000000
# 4 0.000000 0.000000 0.000000 0.212402 0.000000 0.000000
# 5 0.000000 0.000000 0.000000 0.000000 0.036559 0.000000
# 6 0.000000 0.000000 0.000000 0.000000 0.000000 0.018579
#
#
# Mechanical properties :
#
#
# Convention : Reuss Voigt Hill
#
# Bulk Modulus (GPa) = 22.80902 61.86808 42.33855
# Shear Modulus (GPa) = 13.15071 33.29984 23.22528
#
# Velocity S-wave (km/s) = 2.39962 3.81846 3.18895
# Velocity P-wave (km/s) = 4.20294 6.82131 5.66546
#
# Compressibility (1/GPa) = 0.04384231
#
# Stress axis : x y z
#
# Youngs Moduli (GPa) = 154.97288 92.18661 18.64024
#
# Poissons Ratio (x) = 0.28562 0.00018
# Poissons Ratio (y) = 0.48015 0.19469
# Poissons Ratio (z) = 0.00149 0.96287
#
# Static dielectric constant tensor:
#      x y z
#    x 4.433160 0.000000 0.000000 
#    y 0.000000 4.373060 0.000000 
#    z 0.000000 0.000000 3.590600 
# 
# 
# High freq. dielectric constant tensor:
#      x y z
#    x 1.925300 0.000000 0.000000 
#    y 0.000000 1.915330 0.000000 
#    z 0.000000 0.000000 1.862320 
# 
# From -- ./inp_files/32791.got.cif
#   From: 2010.03.12/outbox.cif.g09.slc.cpg/sg66_17_cif.got.tgz:32791.got - 2010.04.10 21:57:39.
