data_PCOD8277522
_publ_section_title
;
Structure prediction by ZEFSAII (Michael W. Deem and Ramdas Pophale) SiO2 
 PCOD8277522
Probable space group: C C C M
;
_chemical_formula_sum "Si O2"
_cell_formula_units_Z 104
_cell_length_a 9.598656
_cell_length_b 19.241939
_cell_length_c 25.802525
_cell_angle_alpha 90.000000
_cell_angle_beta 90.000000
_cell_angle_gamma 90.000000
_cell_volume 4765.642593
_symmetry_space_group_name_H-M "C C C M"
_symmetry_group_IT_number 66
_symmetry_cell_setting 'orthorhombic'
loop_
_space_group_symop_operation_xyz
x,y,z
-x,-y,z
x,-y,1/2-z
-x,y,1/2-z
-x,-y,-z
x,y,-z
-x,y,1/2+z
x,-y,1/2+z
1/2+x,1/2+y,z
1/2-x,1/2-y,z
1/2+x,1/2-y,1/2-z
1/2-x,1/2+y,1/2-z
1/2-x,1/2-y,-z
1/2+x,1/2+y,-z
1/2-x,1/2+y,1/2+z
1/2+x,1/2-y,1/2+z
loop_
_atom_site_type_symbol
_atom_site_label
_atom_site_fract_x
_atom_site_fract_y
_atom_site_fract_z
Si Si1 0.083781 0.334999 0.798457
Si Si2 0.351600 0.535095 0.557612
Si Si3 0.234330 0.000000 0.250000
Si Si4 0.849985 0.849258 0.738402
Si Si5 0.859135 0.470700 0.354729
Si Si6 0.104494 0.774479 0.140582
Si Si7 0.626282 0.698846 0.941487
O O1 0.230514 0.309851 0.772186
O O2 0.124664 0.388699 0.843761
O O3 0.000000 0.370181 0.750000
O O4 0.986195 0.277184 0.823730
O O5 0.500000 0.500000 0.569249
O O6 0.303539 0.511158 0.500000
O O7 0.253972 0.507608 0.602874
O O8 0.336907 0.618129 0.560138
O O9 0.142945 0.069594 0.245453
O O10 0.327754 0.990111 0.199021
O O11 0.836667 0.837426 0.676728
O O12 0.000000 0.814956 0.750000
O O13 0.000000 0.500000 0.378628
O O14 0.250000 0.750000 0.115629
O O15 0.010802 0.796756 0.092961
O O16 0.750000 0.750000 0.920329
O O17 0.590570 0.722578 0.000000
#
# Coordination Sequence:
#
# PCOD8277522 Si02
#       7
#    16  16   8  16  16  16  16
#     4  11  23  44  58  92 140 175 212 267 327 397
#     4  10  24  45  68  96 129 167 218 284 340 391
#     4  10  24  42  60  96 136 172 216 262 328 396
#     4  11  25  39  62  92 130 175 218 265 313 390
#     4  11  23  39  67  92 130 177 216 264 326 396
#     4  12  26  39  66  96 129 173 219 273 327 392
#     4  10  24  47  71  95 127 170 221 279 347 408
#
# _framework density 21.822869000000001
#
# number of rings (size 3 to 8) (size 9 to 14) (size 15 to 20)
#    0.000    1.231    1.538    3.692    8.615    0.615 
#    0.000    0.000    0.000    5.538    0.000    0.000 
#    0.000    0.000    0.000    0.000    0.000    0.000 
#
# Total GULP energy -644186.439069 kJ/mol
# GULP energy per Si atom -12388.200751 kJ/mol
# Density = 2.177320 g / cm^3
# Si number density = 21.822869 Si / 1000 Ang^3
#
#
#
# Elastic Constant Matrix: (Units=GPa)
#
#
# Indices 1 2 3 4 5 6 
#
# 1 152.4021 16.8646 71.0162 0.0000 0.0000 0.0000
# 2 16.8646 54.0535 21.4664 0.0000 0.0000 0.0000
# 3 71.0162 21.4664 130.5557 0.0000 0.0000 0.0000
# 4 0.0000 0.0000 0.0000 20.2060 0.0000 0.0000
# 5 0.0000 0.0000 0.0000 0.0000 10.3182 0.0000
# 6 0.0000 0.0000 0.0000 0.0000 0.0000 22.9448
#
#
#
# Elastic Compliance Matrix: (Units=1/GPa)
#
#
# Indices 1 2 3 4 5 6 
#
# 1 0.008831 -0.000907 -0.004654 0.000000 0.000000 0.000000
# 2 -0.000907 0.019886 -0.002776 0.000000 0.000000 0.000000
# 3 -0.004654 -0.002776 0.010648 0.000000 0.000000 0.000000
# 4 0.000000 0.000000 0.000000 0.049490 0.000000 0.000000
# 5 0.000000 0.000000 0.000000 0.000000 0.096916 0.000000
# 6 0.000000 0.000000 0.000000 0.000000 0.000000 0.043583
#
#
# Mechanical properties :
#
#
# Convention : Reuss Voigt Hill
#
# Bulk Modulus (GPa) = 44.07402 61.74507 52.90955
# Shear Modulus (GPa) = 19.71669 25.87140 22.79405
#
# Velocity S-wave (km/s) = 3.00907 3.44687 3.23538
# Velocity P-wave (km/s) = 5.68443 6.64804 6.18503
#
# Compressibility (1/GPa) = 0.02268910
#
# Stress axis : x y z
#
# Youngs Moduli (GPa) = 113.23995 50.28733 93.91538
#
# Poissons Ratio (x) = 0.04560 0.43712
# Poissons Ratio (y) = 0.10268 0.26075
# Poissons Ratio (z) = 0.52707 0.13962
#
# Static dielectric constant tensor:
#      x y z
#    x 4.058550 0.000000 0.000000 
#    y 0.000000 3.919700 0.000000 
#    z 0.000000 0.000000 4.032930 
# 
# 
# High freq. dielectric constant tensor:
#      x y z
#    x 1.866340 0.000000 0.000000 
#    y 0.000000 1.854540 0.000000 
#    z 0.000000 0.000000 1.851960 
# 
# From -- ./inp_files/62684.got.cif
#   From: 2010.03.12/outbox.cif.g09.slc.cpg/sg66_32_cif.got.tgz:62684.got - 2010.04.10 21:57:39.
