data_PCOD8277759
_publ_section_title
;
Structure prediction by ZEFSAII (Michael W. Deem and Ramdas Pophale) SiO2 
 PCOD8277759
Probable space group: C C C M
;
_chemical_formula_sum "Si O2"
_cell_formula_units_Z 52
_cell_length_a 9.116816
_cell_length_b 12.544195
_cell_length_c 22.023203
_cell_angle_alpha 90.000000
_cell_angle_beta 90.000000
_cell_angle_gamma 90.000000
_cell_volume 2518.642156
_symmetry_space_group_name_H-M "C C C M"
_symmetry_group_IT_number 66
_symmetry_cell_setting 'orthorhombic'
loop_
_space_group_symop_operation_xyz
x,y,z
-x,-y,z
x,-y,1/2-z
-x,y,1/2-z
-x,-y,-z
x,y,-z
-x,y,1/2+z
x,-y,1/2+z
1/2+x,1/2+y,z
1/2-x,1/2-y,z
1/2+x,1/2-y,1/2-z
1/2-x,1/2+y,1/2-z
1/2-x,1/2-y,-z
1/2+x,1/2+y,-z
1/2-x,1/2+y,1/2+z
1/2+x,1/2-y,1/2+z
loop_
_atom_site_type_symbol
_atom_site_label
_atom_site_fract_x
_atom_site_fract_y
_atom_site_fract_z
Si Si1 0.430952 0.618452 0.566837
Si Si2 0.156427 0.846885 0.841905
Si Si3 0.500000 0.500000 0.750000
Si Si4 0.666320 0.010503 0.929870
O O1 0.500000 0.500000 0.568908
O O2 0.454550 0.670415 0.500000
O O3 0.510515 0.688299 0.619252
O O4 0.256669 0.601230 0.579785
O O5 0.250000 0.750000 0.812677
O O6 0.267770 0.897196 0.889364
O O7 0.108227 0.927032 0.789271
O O8 0.500000 0.000000 0.908693
O O9 0.677951 0.045716 0.000000
#
# Coordination Sequence:
#
# PCOD8277759 Si02
#       4
#    16  16   4  16
#     4   8  14  30  58  88 121 154 191 248 314 377
#     4  11  22  40  65  87 115 170 214 258 319 376
#     4  12  24  48  60  86 132 164 226 286 296 370
#     4   9  17  34  62  96 129 157 192 256 330 382
#
# _framework density 20.646045999999998
#
# number of rings (size 3 to 8) (size 9 to 14) (size 15 to 20)
#    0.000    2.462    4.615    2.769    0.000    2.462 
#    5.538    1.538    0.000    5.538    0.000    0.000 
#    0.000    0.000    0.000    0.000    0.000    0.000 
#
# Total GULP energy -322101.710493 kJ/mol
# GULP energy per Si atom -12388.527327 kJ/mol
# Density = 2.059905 g / cm^3
# Si number density = 20.646046 Si / 1000 Ang^3
#
#
#
# Elastic Constant Matrix: (Units=GPa)
#
#
# Indices 1 2 3 4 5 6 
#
# 1 168.3910 41.0847 56.5213 0.0000 0.0000 0.0000
# 2 41.0847 62.9437 40.6431 0.0000 0.0000 0.0000
# 3 56.5213 40.6431 94.9403 0.0000 0.0000 0.0000
# 4 0.0000 0.0000 0.0000 3.1982 0.0000 0.0000
# 5 0.0000 0.0000 0.0000 0.0000 8.2132 0.0000
# 6 0.0000 0.0000 0.0000 0.0000 0.0000 34.1324
#
#
#
# Elastic Compliance Matrix: (Units=1/GPa)
#
#
# Indices 1 2 3 4 5 6 
#
# 1 0.007783 -0.002886 -0.003398 0.000000 0.000000 0.000000
# 2 -0.002886 0.023027 -0.008139 0.000000 0.000000 0.000000
# 3 -0.003398 -0.008139 0.016040 0.000000 0.000000 0.000000
# 4 0.000000 0.000000 0.000000 0.312679 0.000000 0.000000
# 5 0.000000 0.000000 0.000000 0.000000 0.121756 0.000000
# 6 0.000000 0.000000 0.000000 0.000000 0.000000 0.029298
#
#
# Mechanical properties :
#
#
# Convention : Reuss Voigt Hill
#
# Bulk Modulus (GPa) = 55.54589 66.97483 61.26036
# Shear Modulus (GPa) = 9.16706 21.64380 15.40543
#
# Velocity S-wave (km/s) = 2.10944 3.24130 2.73457
# Velocity P-wave (km/s) = 5.73544 6.82041 6.30132
#
# Compressibility (1/GPa) = 0.01800313
#
# Stress axis : x y z
#
# Youngs Moduli (GPa) = 128.47947 43.42798 62.34283
#
# Poissons Ratio (x) = 0.12534 0.21185
# Poissons Ratio (y) = 0.37081 0.50743
# Poissons Ratio (z) = 0.43659 0.35347
#
# Static dielectric constant tensor:
#      x y z
#    x 4.611290 0.000000 0.000000 
#    y 0.000000 3.253240 0.000000 
#    z 0.000000 0.000000 3.725600 
# 
# 
# High freq. dielectric constant tensor:
#      x y z
#    x 1.827320 0.000000 0.000000 
#    y 0.000000 1.754280 0.000000 
#    z 0.000000 0.000000 1.793140 
# 
# From -- ./inp_files/46289.got.cif
#   From: 2010.03.12/outbox.cif.g09.slc.cpg/sg66_24_cif.got.tgz:46289.got - 2010.04.10 21:57:39.
