data_PCOD8277993
_publ_section_title
;
Structure prediction by ZEFSAII (Michael W. Deem and Ramdas Pophale) SiO2 
 PCOD8277993
Probable space group: C M M A
;
_chemical_formula_sum "Si O2"
_cell_formula_units_Z 68
_cell_length_a 8.955257
_cell_length_b 19.373977
_cell_length_c 20.236575
_cell_angle_alpha 90.000000
_cell_angle_beta 90.000000
_cell_angle_gamma 90.000000
_cell_volume 3511.024375
_symmetry_space_group_name_H-M "C M M A"
_symmetry_group_IT_number 67
_symmetry_cell_setting 'orthorhombic'
loop_
_space_group_symop_operation_xyz
x,y,z
-x,1/2-y,z
x,-y,-z
-x,1/2+y,-z
-x,-y,-z
x,1/2+y,-z
-x,y,z
x,1/2-y,z
1/2+x,1/2+y,z
1/2-x,-y,z
1/2+x,1/2-y,-z
1/2-x,y,-z
1/2-x,1/2-y,-z
1/2+x,y,-z
1/2-x,1/2+y,z
1/2+x,-y,z
loop_
_atom_site_type_symbol
_atom_site_label
_atom_site_fract_x
_atom_site_fract_y
_atom_site_fract_z
Si Si1 0.664166 0.130492 0.562091
Si Si2 0.173314 0.169129 0.067422
Si Si3 0.750000 0.500000 0.500000
Si Si4 0.673609 0.072788 0.171022
Si Si5 0.326999 0.073044 0.322234
O O1 0.500000 0.163840 0.571473
O O2 0.750000 0.167620 0.500000
O O3 0.645681 0.049075 0.544839
O O4 0.756616 0.133104 0.630830
O O5 0.198639 0.250000 0.077888
O O6 0.250406 0.131832 0.128385
O O7 0.000000 0.149484 0.064326
O O8 0.250000 0.143661 0.000000
O O9 0.500000 0.066262 0.153120
O O10 0.697224 0.095700 0.246747
O O11 0.750000 0.000000 0.155601
O O12 0.500000 0.065915 0.340359
O O13 0.250000 0.000000 0.334773
#
# Coordination Sequence:
#
# PCOD8277993 Si02
#       5
#    16  16   4  16  16
#     4  10  17  23  35  52  77 115 160 204 246 293
#     4  10  21  38  60  83 106 134 169 210 254 303
#     4   8  18  20  30  48  74 108 158 200 242 284
#     4  10  21  35  52  77 108 141 174 212 257 307
#     4  10  18  27  40  59  88 124 162 202 247 296
#
# _framework density 19.367567999999999
#
# number of rings (size 3 to 8) (size 9 to 14) (size 15 to 20)
#    0.706    1.412    1.176    3.176    0.000    4.706 
#    0.000    2.353    0.000    0.000    0.000    0.000 
#    0.000    0.941    0.000    3.059    0.000   12.000 
#
# Total GULP energy -421339.761340 kJ/mol
# GULP energy per Si atom -12392.345922 kJ/mol
# Density = 1.932349 g / cm^3
# Si number density = 19.367568 Si / 1000 Ang^3
#
#
#
# Elastic Constant Matrix: (Units=GPa)
#
#
# Indices 1 2 3 4 5 6 
#
# 1 178.7960 31.7293 83.2951 0.0000 0.0000 0.0000
# 2 31.7293 29.4166 34.5499 0.0000 0.0000 0.0000
# 3 83.2951 34.5499 141.8140 0.0000 0.0000 0.0000
# 4 0.0000 0.0000 0.0000 -14.7004 0.0000 0.0000
# 5 0.0000 0.0000 0.0000 0.0000 38.5697 0.0000
# 6 0.0000 0.0000 0.0000 0.0000 0.0000 17.5175
#
#
#
# Elastic Compliance Matrix: (Units=1/GPa)
#
#
# Indices 1 2 3 4 5 6 
#
# 1 0.008088 -0.004405 -0.003677 0.000000 0.000000 0.000000
# 2 -0.004405 0.050020 -0.009599 0.000000 0.000000 0.000000
# 3 -0.003677 -0.009599 0.011550 0.000000 0.000000 0.000000
# 4 0.000000 0.000000 0.000000 -0.068026 0.000000 0.000000
# 5 0.000000 0.000000 0.000000 0.000000 0.025927 0.000000
# 6 0.000000 0.000000 0.000000 0.000000 0.000000 0.057086
#
#
# Mechanical properties :
#
#
# Convention : Reuss Voigt Hill
#
# Bulk Modulus (GPa) = 29.15854 72.13055 50.64455
# Shear Modulus (GPa) = 38.04066 21.64086 29.84076
#
# Velocity S-wave (km/s) = 4.43667 3.34634 3.92951
# Velocity P-wave (km/s) = 6.42911 7.22873 6.84061
#
# Compressibility (1/GPa) = 0.03429527
#
# Stress axis : x y z
#
# Youngs Moduli (GPa) = 123.64407 19.99218 86.58034
#
# Poissons Ratio (x) = 0.08806 0.31838
# Poissons Ratio (y) = 0.54460 0.83109
# Poissons Ratio (z) = 0.45467 0.19191
#
# Static dielectric constant tensor:
#      x y z
#    x 3.620150 0.000000 0.000000 
#    y 0.000000 2.956190 0.000000 
#    z 0.000000 0.000000 3.733160 
# 
# 
# High freq. dielectric constant tensor:
#      x y z
#    x 1.768940 0.000000 0.000000 
#    y 0.000000 1.698380 0.000000 
#    z 0.000000 0.000000 1.767770 
# 
# From -- ./inp_files/36638.got.cif
#   From: 2010.03.12/outbox.cif.g09.slc.cpg/sg67_19_cif.got.tgz:36638.got - 2010.04.10 22:41:39.
