data_PCOD8277878
_publ_section_title
;
Structure prediction by ZEFSAII (Michael W. Deem and Ramdas Pophale) SiO2 
 PCOD8277878
Probable space group: C C C M
;
_chemical_formula_sum "Si O2"
_cell_formula_units_Z 64
_cell_length_a 10.319125
_cell_length_b 16.079950
_cell_length_c 16.418324
_cell_angle_alpha 90.000000
_cell_angle_beta 90.000000
_cell_angle_gamma 90.000000
_cell_volume 2724.309150
_symmetry_space_group_name_H-M "C C C M"
_symmetry_group_IT_number 66
_symmetry_cell_setting 'orthorhombic'
loop_
_space_group_symop_operation_xyz
x,y,z
-x,-y,z
x,-y,1/2-z
-x,y,1/2-z
-x,-y,-z
x,y,-z
-x,y,1/2+z
x,-y,1/2+z
1/2+x,1/2+y,z
1/2-x,1/2-y,z
1/2+x,1/2-y,1/2-z
1/2-x,1/2+y,1/2-z
1/2-x,1/2-y,-z
1/2+x,1/2+y,-z
1/2-x,1/2+y,1/2+z
1/2+x,1/2-y,1/2+z
loop_
_atom_site_type_symbol
_atom_site_label
_atom_site_fract_x
_atom_site_fract_y
_atom_site_fract_z
Si Si1 0.779406 0.039921 0.591444
Si Si2 0.878160 0.885908 0.690720
Si Si3 0.869504 0.357962 0.299052
Si Si4 0.556371 0.291735 0.591190
O O1 0.749639 0.008572 0.500000
O O2 0.647124 0.063999 0.638870
O O3 0.865782 0.122421 0.590233
O O4 0.854058 0.970131 0.641518
O O5 0.752283 0.855212 0.738393
O O6 0.000000 0.900272 0.750000
O O7 0.914084 0.811975 0.627473
O O8 0.872108 0.273585 0.351092
O O9 0.000000 0.372546 0.250000
O O10 0.544939 0.254750 0.500000
#
# Coordination Sequence:
#
# PCOD8277878 Si02
#       4
#    16  16  16  16
#     4  11  25  46  74 109 144 189 244 308 364 425
#     4  12  26  45  75 111 141 191 252 308 350 419
#     4  12  28  45  71 107 153 197 238 294 369 441
#     4  11  25  45  73 109 144 190 243 306 364 426
#
# _framework density 23.492194999999999
#
# number of rings (size 3 to 8) (size 9 to 14) (size 15 to 20)
#    0.000    0.500    2.500    4.500    7.000    6.000 
#    0.000    7.500    0.000    0.000    0.000    0.000 
#    0.000    0.000    0.000    0.000    0.000    0.000 
#
# Total GULP energy -396728.963901 kJ/mol
# GULP energy per Si atom -12397.780122 kJ/mol
# Density = 2.343873 g / cm^3
# Si number density = 23.492195 Si / 1000 Ang^3
#
#
#
# Elastic Constant Matrix: (Units=GPa)
#
#
# Indices 1 2 3 4 5 6 
#
# 1 168.2899 57.9989 111.9165 0.0000 0.0000 0.0000
# 2 57.9989 79.9880 58.8357 0.0000 0.0000 0.0000
# 3 111.9165 58.8357 207.9557 0.0000 0.0000 0.0000
# 4 0.0000 0.0000 0.0000 38.5817 0.0000 0.0000
# 5 0.0000 0.0000 0.0000 0.0000 1.7246 0.0000
# 6 0.0000 0.0000 0.0000 0.0000 0.0000 40.0965
#
#
#
# Elastic Compliance Matrix: (Units=1/GPa)
#
#
# Indices 1 2 3 4 5 6 
#
# 1 0.010298 -0.004281 -0.004331 0.000000 0.000000 0.000000
# 2 -0.004281 0.017567 -0.002666 0.000000 0.000000 0.000000
# 3 -0.004331 -0.002666 0.007894 0.000000 0.000000 0.000000
# 4 0.000000 0.000000 0.000000 0.025919 0.000000 0.000000
# 5 0.000000 0.000000 0.000000 0.000000 0.579860 0.000000
# 6 0.000000 0.000000 0.000000 0.000000 0.000000 0.024940
#
#
# Mechanical properties :
#
#
# Convention : Reuss Voigt Hill
#
# Bulk Modulus (GPa) = 75.74353 101.52622 88.63487
# Shear Modulus (GPa) = 7.21048 31.24605 19.22827
#
# Velocity S-wave (km/s) = 1.75385 3.65096 2.86404
# Velocity P-wave (km/s) = 6.03434 7.81559 6.98200
#
# Compressibility (1/GPa) = 0.01320245
#
# Stress axis : x y z
#
# Youngs Moduli (GPa) = 97.11024 56.92391 126.68407
#
# Poissons Ratio (x) = 0.24371 0.54862
# Poissons Ratio (y) = 0.41576 0.33776
# Poissons Ratio (z) = 0.42055 0.15177
#
# Static dielectric constant tensor:
#      x y z
#    x 4.114580 0.000000 0.000000 
#    y 0.000000 4.335920 0.000000 
#    z 0.000000 0.000000 5.307710 
# 
# 
# High freq. dielectric constant tensor:
#      x y z
#    x 1.917790 0.000000 0.000000 
#    y 0.000000 1.926920 0.000000 
#    z 0.000000 0.000000 1.955290 
# 
# From -- ./inp_files/37999.got.cif
#   From: 2010.03.12/outbox.cif.g09.slc.cpg/sg66_19_cif.got.tgz:37999.got - 2010.04.10 21:57:39.
