data_PCOD8277967
_publ_section_title
;
Structure prediction by ZEFSAII (Michael W. Deem and Ramdas Pophale) SiO2 
 PCOD8277967
Probable space group: C M M A
;
_chemical_formula_sum "Si O2"
_cell_formula_units_Z 96
_cell_length_a 18.741103
_cell_length_b 23.133602
_cell_length_c 11.261550
_cell_angle_alpha 90.000000
_cell_angle_beta 90.000000
_cell_angle_gamma 90.000000
_cell_volume 4882.436194
_symmetry_space_group_name_H-M "C M M A"
_symmetry_group_IT_number 67
_symmetry_cell_setting 'orthorhombic'
loop_
_space_group_symop_operation_xyz
x,y,z
-x,1/2-y,z
x,-y,-z
-x,1/2+y,-z
-x,-y,-z
x,1/2+y,-z
-x,y,z
x,1/2-y,z
1/2+x,1/2+y,z
1/2-x,-y,z
1/2+x,1/2-y,-z
1/2-x,y,-z
1/2-x,1/2-y,-z
1/2+x,y,-z
1/2-x,1/2+y,z
1/2+x,-y,z
loop_
_atom_site_type_symbol
_atom_site_label
_atom_site_fract_x
_atom_site_fract_y
_atom_site_fract_z
Si Si1 0.420152 0.413458 0.418429
Si Si2 0.419317 0.968511 0.322948
Si Si3 0.287477 0.685901 0.874309
Si Si4 0.156467 0.364749 0.234925
Si Si5 0.333361 0.315769 0.511594
Si Si6 0.079488 0.318559 0.006721
O O1 0.500000 0.393127 0.387441
O O2 0.417617 0.441609 0.547197
O O3 0.395596 0.463952 0.326666
O O4 0.369758 0.357087 0.412573
O O5 0.500000 0.963421 0.271872
O O6 0.363207 0.932811 0.242538
O O7 0.290135 0.750000 0.813639
O O8 0.240936 0.642729 0.792989
O O9 0.250000 0.692945 0.000000
O O10 0.367088 0.660581 0.900480
O O11 0.138759 0.331906 0.357390
O O12 0.106329 0.337681 0.135283
O O13 0.354832 0.250000 0.483171
O O14 0.250000 0.326152 0.500000
O O15 0.079574 0.250000 0.006713
O O16 0.000000 0.343211 0.982713
#
# Coordination Sequence:
#
# PCOD8277967 Si02
#       6
#    16  16  16  16  16  16
#     4   8  15  29  45  61  88 125 162 204 254 297
#     4   8  14  25  42  65  91 121 161 208 249 281
#     4   8  14  24  38  59  92 132 168 207 260 312
#     4  10  16  26  43  64  94 136 176 209 249 295
#     4  10  20  31  44  67  99 134 171 211 256 305
#     4   9  16  25  40  66  97 130 173 219 259 305
#
# _framework density 19.662313999999999
#
# number of rings (size 3 to 8) (size 9 to 14) (size 15 to 20)
#    0.000    3.167    0.000    4.000    0.000    1.000 
#    0.000    6.667    0.000    1.000    0.000    2.333 
#    0.000   25.333    0.000   47.500    0.000   16.333 
#
# Total GULP energy -594744.143018 kJ/mol
# GULP energy per Si atom -12390.502980 kJ/mol
# Density = 1.961756 g / cm^3
# Si number density = 19.662314 Si / 1000 Ang^3
#
#
#
# Elastic Constant Matrix: (Units=GPa)
#
#
# Indices 1 2 3 4 5 6 
#
# 1 143.2835 78.7840 30.3955 0.0000 0.0000 0.0000
# 2 78.7840 132.4976 26.1806 0.0000 0.0000 0.0000
# 3 30.3955 26.1806 30.9580 0.0000 0.0000 0.0000
# 4 0.0000 0.0000 0.0000 25.2227 0.0000 0.0000
# 5 0.0000 0.0000 0.0000 0.0000 27.4391 0.0000
# 6 0.0000 0.0000 0.0000 0.0000 0.0000 32.0682
#
#
#
# Elastic Compliance Matrix: (Units=1/GPa)
#
#
# Indices 1 2 3 4 5 6 
#
# 1 0.011375 -0.005471 -0.006542 0.000000 0.000000 0.000000
# 2 -0.005471 0.011693 -0.004517 0.000000 0.000000 0.000000
# 3 -0.006542 -0.004517 0.042544 0.000000 0.000000 0.000000
# 4 0.000000 0.000000 0.000000 0.039647 0.000000 0.000000
# 5 0.000000 0.000000 0.000000 0.000000 0.036444 0.000000
# 6 0.000000 0.000000 0.000000 0.000000 0.000000 0.031184
#
#
# Mechanical properties :
#
#
# Convention : Reuss Voigt Hill
#
# Bulk Modulus (GPa) = 30.71880 64.16216 47.44048
# Shear Modulus (GPa) = 23.06298 28.37125 25.71711
#
# Velocity S-wave (km/s) = 3.42856 3.80271 3.62047
# Velocity P-wave (km/s) = 5.59736 7.20997 6.45423
#
# Compressibility (1/GPa) = 0.03255336
#
# Stress axis : x y z
#
# Youngs Moduli (GPa) = 87.91047 85.52120 23.50488
#
# Poissons Ratio (x) = 0.46790 0.15376
# Poissons Ratio (y) = 0.48098 0.10617
# Poissons Ratio (z) = 0.57508 0.38628
#
# Static dielectric constant tensor:
#      x y z
#    x 4.171880 0.000000 0.000000 
#    y 0.000000 3.760710 0.000000 
#    z 0.000000 0.000000 3.369880 
# 
# 
# High freq. dielectric constant tensor:
#      x y z
#    x 1.766290 0.000000 0.000000 
#    y 0.000000 1.747540 0.000000 
#    z 0.000000 0.000000 1.732610 
# 
# From -- ./inp_files/19685.got.cif
#   From: 2010.03.12/outbox.cif.g09.slc.cpg/sg67_10_cif.got.tgz:19685.got - 2010.04.10 22:41:39.
