data_PCOD8277433
_publ_section_title
;
Structure prediction by ZEFSAII (Michael W. Deem and Ramdas Pophale) SiO2 
 PCOD8277433
Probable space group: C C C M
;
_chemical_formula_sum "Si O2"
_cell_formula_units_Z 88
_cell_length_a 5.116566
_cell_length_b 27.739836
_cell_length_c 29.156662
_cell_angle_alpha 90.000000
_cell_angle_beta 90.000000
_cell_angle_gamma 90.000000
_cell_volume 4138.283811
_symmetry_space_group_name_H-M "C C C M"
_symmetry_group_IT_number 66
_symmetry_cell_setting 'orthorhombic'
loop_
_space_group_symop_operation_xyz
x,y,z
-x,-y,z
x,-y,1/2-z
-x,y,1/2-z
-x,-y,-z
x,y,-z
-x,y,1/2+z
x,-y,1/2+z
1/2+x,1/2+y,z
1/2-x,1/2-y,z
1/2+x,1/2-y,1/2-z
1/2-x,1/2+y,1/2-z
1/2-x,1/2-y,-z
1/2+x,1/2+y,-z
1/2-x,1/2+y,1/2+z
1/2+x,1/2-y,1/2+z
loop_
_atom_site_type_symbol
_atom_site_label
_atom_site_fract_x
_atom_site_fract_y
_atom_site_fract_z
Si Si1 0.159245 0.956641 0.917539
Si Si2 0.000000 0.500000 0.160243
Si Si3 0.371629 0.093688 0.500000
Si Si4 0.007391 0.780994 0.411058
Si Si5 0.488815 0.099681 0.197408
Si Si6 0.626299 0.659580 0.000000
Si Si7 0.998376 0.125784 0.856748
O O1 0.983541 0.911141 0.900285
O O2 0.272671 0.980327 0.871866
O O3 0.380022 0.938767 0.953676
O O4 0.000000 0.000000 0.942136
O O5 0.095055 0.456501 0.192801
O O6 0.595724 0.132966 0.500000
O O7 0.091132 0.118817 0.500000
O O8 0.750000 0.750000 0.421619
O O9 0.250000 0.750000 0.391687
O O10 0.111021 0.806041 0.456706
O O11 0.928746 0.821009 0.374007
O O12 0.500000 0.115583 0.250000
O O13 0.273690 0.129722 0.169432
O O14 0.773761 0.109289 0.177553
#
# Coordination Sequence:
#
# PCOD8277433 Si02
#       7
#    16   8   8  16  16   8  16
#     4  11  23  42  62  95 139 188 226 267 324 388
#     4  10  23  37  64  94 134 176 234 263 319 394
#     4  12  27  38  68  92 146 184 228 271 325 392
#     4  12  25  45  73  98 132 173 223 279 340 394
#     4  11  23  42  67  98 134 172 216 277 335 394
#     4  12  26  45  66 102 130 178 229 283 331 381
#     4  11  24  42  69  97 134 170 220 271 336 404
#
# _framework density 21.264852999999999
#
# number of rings (size 3 to 8) (size 9 to 14) (size 15 to 20)
#    0.000    0.727    3.636    3.818    7.636    0.364 
#    0.000    1.818    0.000   10.909    0.000    0.000 
#    0.000    0.000    0.000    0.000    0.000    0.000 
#
# Total GULP energy -545662.078420 kJ/mol
# GULP energy per Si atom -12401.410873 kJ/mol
# Density = 2.121645 g / cm^3
# Si number density = 21.264853 Si / 1000 Ang^3
#
#
#
# Elastic Constant Matrix: (Units=GPa)
#
#
# Indices 1 2 3 4 5 6 
#
# 1 76.5938 21.9683 23.5802 0.0000 0.0000 0.0000
# 2 21.9683 112.8510 38.9242 0.0000 0.0000 0.0000
# 3 23.5802 38.9242 94.3252 0.0000 0.0000 0.0000
# 4 0.0000 0.0000 0.0000 2.1469 0.0000 0.0000
# 5 0.0000 0.0000 0.0000 0.0000 23.5528 0.0000
# 6 0.0000 0.0000 0.0000 0.0000 0.0000 43.9947
#
#
#
# Elastic Compliance Matrix: (Units=1/GPa)
#
#
# Indices 1 2 3 4 5 6 
#
# 1 0.014461 -0.001828 -0.002861 0.000000 0.000000 0.000000
# 2 -0.001828 0.010563 -0.003902 0.000000 0.000000 0.000000
# 3 -0.002861 -0.003902 0.012927 0.000000 0.000000 0.000000
# 4 0.000000 0.000000 0.000000 0.465790 0.000000 0.000000
# 5 0.000000 0.000000 0.000000 0.000000 0.042458 0.000000
# 6 0.000000 0.000000 0.000000 0.000000 0.000000 0.022730
#
#
# Mechanical properties :
#
#
# Convention : Reuss Voigt Hill
#
# Bulk Modulus (GPa) = 48.14824 50.30171 49.22497
# Shear Modulus (GPa) = 8.43122 27.22535 17.82829
#
# Velocity S-wave (km/s) = 1.99336 3.58201 2.89864
# Velocity P-wave (km/s) = 5.29049 6.38858 5.86529
#
# Compressibility (1/GPa) = 0.02076919
#
# Stress axis : x y z
#
# Youngs Moduli (GPa) = 69.15168 94.67025 77.35833
#
# Poissons Ratio (x) = 0.17310 0.22129
# Poissons Ratio (y) = 0.12644 0.30184
# Poissons Ratio (z) = 0.19781 0.36939
#
# Static dielectric constant tensor:
#      x y z
#    x 3.693610 0.000000 0.000000 
#    y 0.000000 4.202620 0.000000 
#    z 0.000000 0.000000 3.761780 
# 
# 
# High freq. dielectric constant tensor:
#      x y z
#    x 1.835680 0.000000 0.000000 
#    y 0.000000 1.840430 0.000000 
#    z 0.000000 0.000000 1.824390 
# 
# From -- ./inp_files/67302.got.cif
#   From: 2010.03.12/outbox.cif.g09.slc.cpg/sg66_34_cif.got.tgz:67302.got - 2010.04.10 21:57:39.
