data_PCOD8277388
_publ_section_title
;
Structure prediction by ZEFSAII (Michael W. Deem and Ramdas Pophale) SiO2 
 PCOD8277388
Probable space group: C C C M
;
_chemical_formula_sum "Si O2"
_cell_formula_units_Z 48
_cell_length_a 13.687319
_cell_length_b 4.943449
_cell_length_c 32.353161
_cell_angle_alpha 90.000000
_cell_angle_beta 90.000000
_cell_angle_gamma 90.000000
_cell_volume 2189.097808
_symmetry_space_group_name_H-M "C C C M"
_symmetry_group_IT_number 66
_symmetry_cell_setting 'orthorhombic'
loop_
_space_group_symop_operation_xyz
x,y,z
-x,-y,z
x,-y,1/2-z
-x,y,1/2-z
-x,-y,-z
x,y,-z
-x,y,1/2+z
x,-y,1/2+z
1/2+x,1/2+y,z
1/2-x,1/2-y,z
1/2+x,1/2-y,1/2-z
1/2-x,1/2+y,1/2-z
1/2-x,1/2-y,-z
1/2+x,1/2+y,-z
1/2-x,1/2+y,1/2+z
1/2+x,1/2-y,1/2+z
loop_
_atom_site_type_symbol
_atom_site_label
_atom_site_fract_x
_atom_site_fract_y
_atom_site_fract_z
Si Si1 0.500000 0.500000 0.100998
Si Si2 0.000000 0.500000 0.154682
Si Si3 0.184347 0.009333 0.453898
Si Si4 0.363367 0.243710 0.778220
O O1 0.458020 0.758497 0.126633
O O2 0.591832 0.578859 0.073194
O O3 0.078438 0.318987 0.180071
O O4 0.149091 0.096711 0.500000
O O5 0.250000 0.250000 0.434244
O O6 0.250000 0.750000 0.456737
O O7 0.394958 0.500000 0.750000
O O8 0.250000 0.250000 0.790427
O O9 0.392026 0.000000 0.750000
#
# Coordination Sequence:
#
# PCOD8277388 Si02
#       4
#     8   8  16  16
#     4  12  25  40  61  96 134 166 202 258 325 376
#     4  12  25  38  63  96 128 164 200 258 327 376
#     4  10  22  42  67  92 124 171 219 258 301 366
#     4  10  22  42  65  87 116 160 210 255 302 367
#
# _framework density 21.926839999999999
#
# number of rings (size 3 to 8) (size 9 to 14) (size 15 to 20)
#    0.000    1.333    0.000    5.000    0.000    5.333 
#    0.000    6.667    0.000    0.000    0.000    0.000 
#    0.000    0.000    0.000    0.000    0.000    0.000 
#
# Total GULP energy -297327.829755 kJ/mol
# GULP energy per Si atom -12388.659573 kJ/mol
# Density = 2.187693 g / cm^3
# Si number density = 21.926840 Si / 1000 Ang^3
#
#
#
# Elastic Constant Matrix: (Units=GPa)
#
#
# Indices 1 2 3 4 5 6 
#
# 1 102.6967 32.4348 61.0541 0.0000 0.0000 0.0000
# 2 32.4348 161.5304 45.5295 0.0000 0.0000 0.0000
# 3 61.0541 45.5295 105.4130 0.0000 0.0000 0.0000
# 4 0.0000 0.0000 0.0000 41.9510 0.0000 0.0000
# 5 0.0000 0.0000 0.0000 0.0000 11.8436 0.0000
# 6 0.0000 0.0000 0.0000 0.0000 0.0000 37.1719
#
#
#
# Elastic Compliance Matrix: (Units=1/GPa)
#
#
# Indices 1 2 3 4 5 6 
#
# 1 0.014909 -0.000637 -0.008360 0.000000 0.000000 0.000000
# 2 -0.000637 0.007076 -0.002687 0.000000 0.000000 0.000000
# 3 -0.008360 -0.002687 0.015489 0.000000 0.000000 0.000000
# 4 0.000000 0.000000 0.000000 0.023837 0.000000 0.000000
# 5 0.000000 0.000000 0.000000 0.000000 0.084434 0.000000
# 6 0.000000 0.000000 0.000000 0.000000 0.000000 0.026902
#
#
# Mechanical properties :
#
#
# Convention : Reuss Voigt Hill
#
# Bulk Modulus (GPa) = 70.89464 71.96409 71.42937
# Shear Modulus (GPa) = 24.91073 33.56809 29.23941
#
# Velocity S-wave (km/s) = 3.37424 3.91693 3.65567
# Velocity P-wave (km/s) = 6.89806 7.30396 7.10391
#
# Compressibility (1/GPa) = 0.01410544
#
# Stress axis : x y z
#
# Youngs Moduli (GPa) = 67.07554 141.31929 64.56223
#
# Poissons Ratio (x) = 0.09007 0.53972
# Poissons Ratio (y) = 0.04275 0.17349
# Poissons Ratio (z) = 0.56073 0.37975
#
# Static dielectric constant tensor:
#      x y z
#    x 3.705120 0.000000 0.000000 
#    y 0.000000 3.975290 0.000000 
#    z 0.000000 0.000000 4.073690 
# 
# 
# High freq. dielectric constant tensor:
#      x y z
#    x 1.857530 0.000000 0.000000 
#    y 0.000000 1.883910 0.000000 
#    z 0.000000 0.000000 1.865440 
# 
# From -- ./inp_files/64127.got.cif
#   From: 2010.03.12/outbox.cif.g09.slc.cpg/sg66_33_cif.got.tgz:64127.got - 2010.04.10 21:57:39.
