data_PCOD8277896
_publ_section_title
;
Structure prediction by ZEFSAII (Michael W. Deem and Ramdas Pophale) SiO2 
 PCOD8277896
Probable space group: C C C M
;
_chemical_formula_sum "Si O2"
_cell_formula_units_Z 32
_cell_length_a 7.228974
_cell_length_b 7.503197
_cell_length_c 22.495222
_cell_angle_alpha 90.000000
_cell_angle_beta 90.000000
_cell_angle_gamma 90.000000
_cell_volume 1220.150200
_symmetry_space_group_name_H-M "C C C M"
_symmetry_group_IT_number 66
_symmetry_cell_setting 'orthorhombic'
loop_
_space_group_symop_operation_xyz
x,y,z
-x,-y,z
x,-y,1/2-z
-x,y,1/2-z
-x,-y,-z
x,y,-z
-x,y,1/2+z
x,-y,1/2+z
1/2+x,1/2+y,z
1/2-x,1/2-y,z
1/2+x,1/2-y,1/2-z
1/2-x,1/2+y,1/2-z
1/2-x,1/2-y,-z
1/2+x,1/2+y,-z
1/2-x,1/2+y,1/2+z
1/2+x,1/2-y,1/2+z
loop_
_atom_site_type_symbol
_atom_site_label
_atom_site_fract_x
_atom_site_fract_y
_atom_site_fract_z
Si Si1 0.500000 0.000000 0.097197
Si Si2 0.218027 0.960199 0.500000
Si Si3 0.541773 0.702930 0.681885
O O1 0.320333 0.952681 0.057087
O O2 0.430291 0.164790 0.138511
O O3 0.250000 0.750000 0.500000
O O4 0.000000 0.000000 0.500000
O O5 0.500000 0.500000 0.665504
O O6 0.500000 0.748218 0.750000
O O7 0.750000 0.750000 0.668198
#
# Coordination Sequence:
#
# PCOD8277896 Si02
#       3
#     8   8  16
#     4  11  29  50  84 118 167 217 282 338 424 493
#     4  11  30  53  81 120 164 218 286 350 414 488
#     4  11  29  50  81 122 166 212 272 338 419 502
#
# _framework density 26.226281
#
# number of rings (size 3 to 8) (size 9 to 14) (size 15 to 20)
#    0.000    1.000    0.000    0.750   28.000    2.000 
#    0.000    3.750    0.000    0.000    0.000    0.000 
#    0.000    0.000    0.000    0.000    0.000    0.000 
#
# Total GULP energy -198431.573951 kJ/mol
# GULP energy per Si atom -12401.973372 kJ/mol
# Density = 2.616659 g / cm^3
# Si number density = 26.226281 Si / 1000 Ang^3
#
#
#
# Elastic Constant Matrix: (Units=GPa)
#
#
# Indices 1 2 3 4 5 6 
#
# 1 161.0947 61.0346 50.3175 0.0000 0.0000 0.0000
# 2 61.0346 202.6923 116.0101 0.0000 0.0000 0.0000
# 3 50.3175 116.0101 202.4335 0.0000 0.0000 0.0000
# 4 0.0000 0.0000 0.0000 4.9783 0.0000 0.0000
# 5 0.0000 0.0000 0.0000 0.0000 25.9129 0.0000
# 6 0.0000 0.0000 0.0000 0.0000 0.0000 46.8377
#
#
#
# Elastic Compliance Matrix: (Units=1/GPa)
#
#
# Indices 1 2 3 4 5 6 
#
# 1 0.007093 -0.001677 -0.000802 0.000000 0.000000 0.000000
# 2 -0.001677 0.007738 -0.004018 0.000000 0.000000 0.000000
# 3 -0.000802 -0.004018 0.007442 0.000000 0.000000 0.000000
# 4 0.000000 0.000000 0.000000 0.200871 0.000000 0.000000
# 5 0.000000 0.000000 0.000000 0.000000 0.038591 0.000000
# 6 0.000000 0.000000 0.000000 0.000000 0.000000 0.021350
#
#
# Mechanical properties :
#
#
# Convention : Reuss Voigt Hill
#
# Bulk Modulus (GPa) = 107.76184 113.43833 110.60008
# Shear Modulus (GPa) = 16.71279 38.13631 27.42455
#
# Velocity S-wave (km/s) = 2.52713 3.81744 3.23722
# Velocity P-wave (km/s) = 7.04937 7.92326 7.49905
#
# Compressibility (1/GPa) = 0.00927972
#
# Stress axis : x y z
#
# Youngs Moduli (GPa) = 140.97606 129.23200 134.37711
#
# Poissons Ratio (x) = 0.21670 0.10780
# Poissons Ratio (y) = 0.23639 0.53989
# Poissons Ratio (z) = 0.11309 0.51921
#
# Static dielectric constant tensor:
#      x y z
#    x 4.991740 0.000000 0.000000 
#    y 0.000000 4.598080 0.000000 
#    z 0.000000 0.000000 5.493200 
# 
# 
# High freq. dielectric constant tensor:
#      x y z
#    x 2.054930 0.000000 0.000000 
#    y 0.000000 2.053930 0.000000 
#    z 0.000000 0.000000 2.076190 
# 
# From -- ./inp_files/54541.got.cif
#   From: 2010.03.12/outbox.cif.g09.slc.cpg/sg66_28_cif.got.tgz:54541.got - 2010.04.10 21:57:39.
