data_PCOD8277529
_publ_section_title
;
Structure prediction by ZEFSAII (Michael W. Deem and Ramdas Pophale) SiO2 
 PCOD8277529
Probable space group: C C C M
;
_chemical_formula_sum "Si O2"
_cell_formula_units_Z 96
_cell_length_a 12.633080
_cell_length_b 20.833310
_cell_length_c 16.634400
_cell_angle_alpha 90.000000
_cell_angle_beta 90.000000
_cell_angle_gamma 90.000000
_cell_volume 4377.988971
_symmetry_space_group_name_H-M "C C C M"
_symmetry_group_IT_number 66
_symmetry_cell_setting 'orthorhombic'
loop_
_space_group_symop_operation_xyz
x,y,z
-x,-y,z
x,-y,1/2-z
-x,y,1/2-z
-x,-y,-z
x,y,-z
-x,y,1/2+z
x,-y,1/2+z
1/2+x,1/2+y,z
1/2-x,1/2-y,z
1/2+x,1/2-y,1/2-z
1/2-x,1/2+y,1/2-z
1/2-x,1/2-y,-z
1/2+x,1/2+y,-z
1/2-x,1/2+y,1/2+z
1/2+x,1/2-y,1/2+z
loop_
_atom_site_type_symbol
_atom_site_label
_atom_site_fract_x
_atom_site_fract_y
_atom_site_fract_z
Si Si1 0.299605 0.180353 0.133933
Si Si2 0.515488 0.232310 0.088759
Si Si3 0.024465 0.866421 0.840832
Si Si4 0.108839 0.358427 0.706434
Si Si5 0.737052 0.572322 0.403365
Si Si6 0.158666 0.935283 0.410844
O O1 0.250000 0.250000 0.127241
O O2 0.414031 0.185745 0.093108
O O3 0.304480 0.157326 0.226244
O O4 0.233426 0.126869 0.087545
O O5 0.487861 0.306315 0.105151
O O6 0.595551 0.207944 0.157039
O O7 0.565646 0.225902 0.000000
O O8 0.144093 0.884969 0.863544
O O9 0.000000 0.845857 0.750000
O O10 0.946713 0.925862 0.858463
O O11 0.153644 0.410061 0.642321
O O12 0.000000 0.382150 0.750000
O O13 0.745389 0.583965 0.500000
O O14 0.720524 0.498021 0.380397
O O15 0.117595 0.948940 0.500000
#
# Coordination Sequence:
#
# PCOD8277529 Si02
#       6
#    16  16  16  16  16  16
#     4  11  22  39  66  94 125 165 218 274 328 386
#     4  11  23  40  64  96 129 172 221 276 335 388
#     4  12  24  39  64  98 139 176 221 270 328 395
#     4  10  24  43  66  96 129 170 220 278 333 399
#     4  11  25  44  67  97 135 181 224 269 333 403
#     4  11  24  42  65  97 133 174 222 271 323 392
#
# _framework density 21.927876000000001
#
# number of rings (size 3 to 8) (size 9 to 14) (size 15 to 20)
#    0.000    1.000    1.667    5.500    2.333    5.333 
#    0.000    7.500    0.000    9.000    0.000    0.000 
#    0.000    0.000    0.000    0.000    0.000    0.000 
#
# Total GULP energy -595141.762218 kJ/mol
# GULP energy per Si atom -12398.786713 kJ/mol
# Density = 2.187797 g / cm^3
# Si number density = 21.927876 Si / 1000 Ang^3
#
#
#
# Elastic Constant Matrix: (Units=GPa)
#
#
# Indices 1 2 3 4 5 6 
#
# 1 70.7729 41.7162 42.5365 0.0000 0.0000 0.0000
# 2 41.7162 98.3800 28.8825 0.0000 0.0000 0.0000
# 3 42.5365 28.8825 126.4686 0.0000 0.0000 0.0000
# 4 0.0000 0.0000 0.0000 23.0419 0.0000 0.0000
# 5 0.0000 0.0000 0.0000 0.0000 33.1077 0.0000
# 6 0.0000 0.0000 0.0000 0.0000 0.0000 35.4981
#
#
#
# Elastic Compliance Matrix: (Units=1/GPa)
#
#
# Indices 1 2 3 4 5 6 
#
# 1 0.022071 -0.007695 -0.005666 0.000000 0.000000 0.000000
# 2 -0.007695 0.013578 -0.000513 0.000000 0.000000 0.000000
# 3 -0.005666 -0.000513 0.009930 0.000000 0.000000 0.000000
# 4 0.000000 0.000000 0.000000 0.043399 0.000000 0.000000
# 5 0.000000 0.000000 0.000000 0.000000 0.030204 0.000000
# 6 0.000000 0.000000 0.000000 0.000000 0.000000 0.028171
#
#
# Mechanical properties :
#
#
# Convention : Reuss Voigt Hill
#
# Bulk Modulus (GPa) = 56.08166 57.98799 57.03482
# Shear Modulus (GPa) = 27.61743 30.49529 29.05636
#
# Velocity S-wave (km/s) = 3.55275 3.73327 3.64412
# Velocity P-wave (km/s) = 6.51616 6.71456 6.61611
#
# Compressibility (1/GPa) = 0.01783114
#
# Stress axis : x y z
#
# Youngs Moduli (GPa) = 45.30829 73.64708 100.70634
#
# Poissons Ratio (x) = 0.56674 0.57059
# Poissons Ratio (y) = 0.34866 0.05163
# Poissons Ratio (z) = 0.25671 0.03776
#
# Static dielectric constant tensor:
#      x y z
#    x 3.899320 0.000000 0.000000 
#    y 0.000000 3.900120 0.000000 
#    z 0.000000 0.000000 4.076200 
# 
# 
# High freq. dielectric constant tensor:
#      x y z
#    x 1.854170 0.000000 0.000000 
#    y 0.000000 1.857200 0.000000 
#    z 0.000000 0.000000 1.879000 
# 
# From -- ./inp_files/28416.got.cif
#   From: 2010.03.12/outbox.cif.g09.slc.cpg/sg66_15_cif.got.tgz:28416.got - 2010.04.10 21:57:39.
