data_PCOD8277028
_publ_section_title
;
Structure prediction by ZEFSAII (Michael W. Deem and Ramdas Pophale) SiO2 
 PCOD8277028
Probable space group: C C C M
;
_chemical_formula_sum "Si O2"
_cell_formula_units_Z 72
_cell_length_a 19.773753
_cell_length_b 8.045632
_cell_length_c 21.046458
_cell_angle_alpha 90.000000
_cell_angle_beta 90.000000
_cell_angle_gamma 90.000000
_cell_volume 3348.330250
_symmetry_space_group_name_H-M "C C C M"
_symmetry_group_IT_number 66
_symmetry_cell_setting 'orthorhombic'
loop_
_space_group_symop_operation_xyz
x,y,z
-x,-y,z
x,-y,1/2-z
-x,y,1/2-z
-x,-y,-z
x,y,-z
-x,y,1/2+z
x,-y,1/2+z
1/2+x,1/2+y,z
1/2-x,1/2-y,z
1/2+x,1/2-y,1/2-z
1/2-x,1/2+y,1/2-z
1/2-x,1/2-y,-z
1/2+x,1/2+y,-z
1/2-x,1/2+y,1/2+z
1/2+x,1/2-y,1/2+z
loop_
_atom_site_type_symbol
_atom_site_label
_atom_site_fract_x
_atom_site_fract_y
_atom_site_fract_z
Si Si1 0.101514 0.671940 0.573213
Si Si2 0.250000 0.250000 0.345995
Si Si3 0.882597 0.412096 0.185473
Si Si4 0.468557 0.669356 0.117834
Si Si5 0.836763 0.981964 0.570791
O O1 0.114432 0.615605 0.500000
O O2 0.119492 0.526670 0.622499
O O3 0.022937 0.724266 0.578408
O O4 0.148493 0.828706 0.592072
O O5 0.190024 0.324935 0.303299
O O6 0.221704 0.097041 0.386949
O O7 0.903335 0.500000 0.250000
O O8 0.940994 0.275123 0.177013
O O9 0.500000 0.500000 0.145809
O O10 0.405540 0.626315 0.072190
O O11 0.808246 0.981250 0.500000
#
# Coordination Sequence:
#
# PCOD8277028 Si02
#       5
#    16   8  16  16  16
#     4  10  21  37  61  92 123 155 195 248 305 357
#     4  10  23  40  58  80 115 166 208 248 298 352
#     4  11  25  42  61  86 118 158 203 249 296 353
#     4   9  19  38  62  89 122 156 189 237 303 368
#     4   9  18  35  60  91 123 157 199 247 299 357
#
# _framework density 21.503253999999998
#
# number of rings (size 3 to 8) (size 9 to 14) (size 15 to 20)
#    0.000    2.222    0.000    1.667    0.000   13.333 
#    0.000   14.444    0.000    0.000    0.000    0.000 
#    0.000    0.000    0.000    0.000    0.000    0.000 
#
# Total GULP energy -446322.871163 kJ/mol
# GULP energy per Si atom -12397.857532 kJ/mol
# Density = 2.145431 g / cm^3
# Si number density = 21.503254 Si / 1000 Ang^3
#
#
#
# Elastic Constant Matrix: (Units=GPa)
#
#
# Indices 1 2 3 4 5 6 
#
# 1 73.7349 32.1117 25.9165 0.0000 0.0000 0.0000
# 2 32.1117 106.5663 54.5051 0.0000 0.0000 0.0000
# 3 25.9165 54.5051 108.1957 0.0000 0.0000 0.0000
# 4 0.0000 0.0000 0.0000 33.9109 0.0000 0.0000
# 5 0.0000 0.0000 0.0000 0.0000 7.4543 0.0000
# 6 0.0000 0.0000 0.0000 0.0000 0.0000 34.8587
#
#
#
# Elastic Compliance Matrix: (Units=1/GPa)
#
#
# Indices 1 2 3 4 5 6 
#
# 1 0.015889 -0.003827 -0.001878 0.000000 0.000000 0.000000
# 2 -0.003827 0.013563 -0.005916 0.000000 0.000000 0.000000
# 3 -0.001878 -0.005916 0.012672 0.000000 0.000000 0.000000
# 4 0.000000 0.000000 0.000000 0.029489 0.000000 0.000000
# 5 0.000000 0.000000 0.000000 0.000000 0.134151 0.000000
# 6 0.000000 0.000000 0.000000 0.000000 0.000000 0.028687
#
#
# Mechanical properties :
#
#
# Convention : Reuss Voigt Hill
#
# Bulk Modulus (GPa) = 52.95934 57.06259 55.01097
# Shear Modulus (GPa) = 18.94032 26.97569 22.95801
#
# Velocity S-wave (km/s) = 2.97107 3.54573 3.27104
# Velocity P-wave (km/s) = 6.03752 6.58462 6.31700
#
# Compressibility (1/GPa) = 0.01888241
#
# Stress axis : x y z
#
# Youngs Moduli (GPa) = 62.93676 73.73117 78.91152
#
# Poissons Ratio (x) = 0.28220 0.14818
# Poissons Ratio (y) = 0.24088 0.46681
# Poissons Ratio (z) = 0.11819 0.43617
#
# Static dielectric constant tensor:
#      x y z
#    x 3.971410 0.000000 0.000000 
#    y 0.000000 4.132590 0.000000 
#    z 0.000000 0.000000 3.423580 
# 
# 
# High freq. dielectric constant tensor:
#      x y z
#    x 1.852640 0.000000 0.000000 
#    y 0.000000 1.857150 0.000000 
#    z 0.000000 0.000000 1.811550 
# 
# From -- ./inp_files/51628.got.cif
#   From: 2010.03.12/outbox.cif.g09.slc.cpg/sg66_26_cif.got.tgz:51628.got - 2010.04.10 21:57:39.
