data_PCOD8277572
_publ_section_title
;
Structure prediction by ZEFSAII (Michael W. Deem and Ramdas Pophale) SiO2 
 PCOD8277572
Probable space group: C C C M
;
_chemical_formula_sum "Si O2"
_cell_formula_units_Z 128
_cell_length_a 20.158767
_cell_length_b 18.313184
_cell_length_c 22.332927
_cell_angle_alpha 90.000000
_cell_angle_beta 90.000000
_cell_angle_gamma 90.000000
_cell_volume 8244.673667
_symmetry_space_group_name_H-M "C C C M"
_symmetry_group_IT_number 66
_symmetry_cell_setting 'orthorhombic'
loop_
_space_group_symop_operation_xyz
x,y,z
-x,-y,z
x,-y,1/2-z
-x,y,1/2-z
-x,-y,-z
x,y,-z
-x,y,1/2+z
x,-y,1/2+z
1/2+x,1/2+y,z
1/2-x,1/2-y,z
1/2+x,1/2-y,1/2-z
1/2-x,1/2+y,1/2-z
1/2-x,1/2-y,-z
1/2+x,1/2+y,-z
1/2-x,1/2+y,1/2+z
1/2+x,1/2-y,1/2+z
loop_
_atom_site_type_symbol
_atom_site_label
_atom_site_fract_x
_atom_site_fract_y
_atom_site_fract_z
Si Si1 0.823803 0.279138 0.933739
Si Si2 0.625971 0.353659 0.131508
Si Si3 0.324203 0.779314 0.566270
Si Si4 0.421390 0.585766 0.747294
Si Si5 0.746658 0.082408 0.069807
Si Si6 0.997726 0.080662 0.931563
Si Si7 0.375203 0.642256 0.379028
Si Si8 0.742972 0.918634 0.069874
O O1 0.750000 0.250000 0.939697
O O2 0.862944 0.232366 0.883730
O O3 0.814749 0.363709 0.913105
O O4 0.857984 0.273415 0.000000
O O5 0.617866 0.369497 0.201652
O O6 0.686517 0.401659 0.106584
O O7 0.556849 0.373158 0.101870
O O8 0.356959 0.774607 0.500000
O O9 0.250000 0.750000 0.562573
O O10 0.365889 0.729923 0.612686
O O11 0.317875 0.864105 0.587726
O O12 0.402994 0.500000 0.750000
O O13 0.500000 0.596932 0.750000
O O14 0.396490 0.623620 0.687439
O O15 0.721043 0.001139 0.084208
O O16 0.765081 0.092107 0.000000
O O17 0.069069 0.117524 0.925817
O O18 0.976235 0.074386 0.000000
O O19 0.000000 0.000000 0.901862
O O20 0.308369 0.598749 0.392633
O O21 0.760138 0.907466 0.000000
#
# Coordination Sequence:
#
# PCOD8277572 Si02
#       8
#    16  16  16  16  16  16  16  16
#     4   8  15  28  45  66  91 115 142 182 226 265
#     4  11  19  30  44  61  89 122 154 181 216 260
#     4   8  15  28  45  66  91 115 142 182 226 265
#     4  11  22  34  43  56  87 129 160 184 213 251
#     4   9  16  28  48  71  93 117 144 179 225 271
#     4  11  20  27  41  65  88 111 143 182 219 262
#     4  11  19  30  44  61  89 122 154 181 216 260
#     4   9  16  28  48  71  93 117 144 179 225 271
#
# _framework density 15.525175000000001
#
# number of rings (size 3 to 8) (size 9 to 14) (size 15 to 20)
#    0.000    2.250    1.250    6.000    0.000    2.000 
#    0.000    5.625    0.000    0.000    0.000    0.875 
#    0.000    6.000    0.000    0.000    0.000    0.000 
#
# Total GULP energy -793179.748193 kJ/mol
# GULP energy per Si atom -12393.433566 kJ/mol
# Density = 1.548984 g / cm^3
# Si number density = 15.525175 Si / 1000 Ang^3
#
#
#
# Elastic Constant Matrix: (Units=GPa)
#
#
# Indices 1 2 3 4 5 6 
#
# 1 46.5413 45.7270 27.9530 0.0000 0.0000 0.0000
# 2 45.7270 147.6371 45.2621 0.0000 0.0000 0.0000
# 3 27.9530 45.2621 80.3233 0.0000 0.0000 0.0000
# 4 0.0000 0.0000 0.0000 14.2383 0.0000 0.0000
# 5 0.0000 0.0000 0.0000 0.0000 12.8483 0.0000
# 6 0.0000 0.0000 0.0000 0.0000 0.0000 23.8261
#
#
#
# Elastic Compliance Matrix: (Units=1/GPa)
#
#
# Indices 1 2 3 4 5 6 
#
# 1 0.033948 -0.008332 -0.007119 0.000000 0.000000 0.000000
# 2 -0.008332 0.010233 -0.002867 0.000000 0.000000 0.000000
# 3 -0.007119 -0.002867 0.016542 0.000000 0.000000 0.000000
# 4 0.000000 0.000000 0.000000 0.070233 0.000000 0.000000
# 5 0.000000 0.000000 0.000000 0.000000 0.077832 0.000000
# 6 0.000000 0.000000 0.000000 0.000000 0.000000 0.041971
#
#
# Mechanical properties :
#
#
# Convention : Reuss Voigt Hill
#
# Bulk Modulus (GPa) = 41.51421 56.93176 49.22299
# Shear Modulus (GPa) = 16.92482 20.55318 18.73900
#
# Velocity S-wave (km/s) = 3.30533 3.64244 3.47797
# Velocity P-wave (km/s) = 6.43156 7.37835 6.92116
#
# Compressibility (1/GPa) = 0.02408814
#
# Stress axis : x y z
#
# Youngs Moduli (GPa) = 29.45648 97.72438 60.45047
#
# Poissons Ratio (x) = 0.81425 0.43035
# Poissons Ratio (y) = 0.24544 0.17329
# Poissons Ratio (z) = 0.20970 0.28013
#
# Static dielectric constant tensor:
#      x y z
#    x 2.780790 0.000000 0.000000 
#    y 0.000000 3.719330 0.000000 
#    z 0.000000 0.000000 2.898050 
# 
# 
# High freq. dielectric constant tensor:
#      x y z
#    x 1.560270 0.000000 0.000000 
#    y 0.000000 1.601600 0.000000 
#    z 0.000000 0.000000 1.581520 
# 
# From -- ./inp_files/52064.got.cif
#   From: 2010.03.12/outbox.cif.g09.slc.cpg/sg66_27_cif.got.tgz:52064.got - 2010.04.10 21:57:39.
