data_PCOD8277520
_publ_section_title
;
Structure prediction by ZEFSAII (Michael W. Deem and Ramdas Pophale) SiO2 
 PCOD8277520
Probable space group: C C C M
;
_chemical_formula_sum "Si O2"
_cell_formula_units_Z 64
_cell_length_a 11.553934
_cell_length_b 15.231012
_cell_length_c 15.255654
_cell_angle_alpha 90.000000
_cell_angle_beta 90.000000
_cell_angle_gamma 90.000000
_cell_volume 2684.661118
_symmetry_space_group_name_H-M "C C C M"
_symmetry_group_IT_number 66
_symmetry_cell_setting 'orthorhombic'
loop_
_space_group_symop_operation_xyz
x,y,z
-x,-y,z
x,-y,1/2-z
-x,y,1/2-z
-x,-y,-z
x,y,-z
-x,y,1/2+z
x,-y,1/2+z
1/2+x,1/2+y,z
1/2-x,1/2-y,z
1/2+x,1/2-y,1/2-z
1/2-x,1/2+y,1/2-z
1/2-x,1/2-y,-z
1/2+x,1/2+y,-z
1/2-x,1/2+y,1/2+z
1/2+x,1/2-y,1/2+z
loop_
_atom_site_type_symbol
_atom_site_label
_atom_site_fract_x
_atom_site_fract_y
_atom_site_fract_z
Si Si1 0.709288 0.836801 0.138718
Si Si2 0.452750 0.829177 0.898772
Si Si3 0.722425 0.974835 0.349545
Si Si4 0.879774 0.163935 0.201452
O O1 0.750000 0.750000 0.082374
O O2 0.571763 0.832748 0.156477
O O3 0.775040 0.826152 0.230690
O O4 0.737595 0.932567 0.096749
O O5 0.382097 0.919270 0.890632
O O6 0.379977 0.747640 0.862059
O O7 0.484369 0.813223 0.000000
O O8 0.843882 0.921777 0.356000
O O9 0.689112 0.000000 0.250000
O O10 0.000000 0.145494 0.250000
#
# Coordination Sequence:
#
# PCOD8277520 Si02
#       4
#    16  16  16  16
#     4  11  23  43  70 104 137 189 241 291 353 436
#     4  12  27  46  73 109 148 185 238 314 371 410
#     4  10  24  41  72 105 141 184 244 291 356 433
#     4  11  23  43  71 105 141 189 240 291 352 445
#
# _framework density 23.839134999999999
#
# number of rings (size 3 to 8) (size 9 to 14) (size 15 to 20)
#    0.000    1.000    2.500    4.500    0.000   12.000 
#    0.000    0.000    0.000    1.500    0.000    0.000 
#    0.000    0.000    0.000    0.000    0.000    0.000 
#
# Total GULP energy -396492.821254 kJ/mol
# GULP energy per Si atom -12390.400664 kJ/mol
# Density = 2.378488 g / cm^3
# Si number density = 23.839135 Si / 1000 Ang^3
#
#
#
# Elastic Constant Matrix: (Units=GPa)
#
#
# Indices 1 2 3 4 5 6 
#
# 1 134.7186 102.4599 43.3429 0.0000 0.0000 0.0000
# 2 102.4599 274.0948 23.5553 0.0000 0.0000 0.0000
# 3 43.3429 23.5553 64.9175 0.0000 0.0000 0.0000
# 4 0.0000 0.0000 0.0000 5.5512 0.0000 0.0000
# 5 0.0000 0.0000 0.0000 0.0000 -2.7098 0.0000
# 6 0.0000 0.0000 0.0000 0.0000 0.0000 37.9134
#
#
#
# Elastic Compliance Matrix: (Units=1/GPa)
#
#
# Indices 1 2 3 4 5 6 
#
# 1 0.012911 -0.004217 -0.007090 0.000000 0.000000 0.000000
# 2 -0.004217 0.005143 0.000949 0.000000 0.000000 0.000000
# 3 -0.007090 0.000949 0.019794 0.000000 0.000000 0.000000
# 4 0.000000 0.000000 0.000000 0.180143 0.000000 0.000000
# 5 0.000000 0.000000 0.000000 0.000000 -0.369032 0.000000
# 6 0.000000 0.000000 0.000000 0.000000 0.000000 0.026376
#
#
# Mechanical properties :
#
#
# Convention : Reuss Voigt Hill
#
# Bulk Modulus (GPa) = 58.36957 90.27190 74.32074
# Shear Modulus (GPa) = -50.89611 28.44246 -11.22682
#
# Velocity S-wave (km/s) = -4.62560 3.45787 -2.17247
# Velocity P-wave (km/s) = 1.99757 7.34111 4.99507
#
# Compressibility (1/GPa) = 0.01713221
#
# Stress axis : x y z
#
# Youngs Moduli (GPa) = 77.45155 194.43228 50.52149
#
# Poissons Ratio (x) = 0.81994 0.35821
# Poissons Ratio (y) = 0.32662 -0.04796
# Poissons Ratio (z) = 0.54915 -0.18459
#
# Static dielectric constant tensor:
#      x y z
#    x 4.372060 0.000000 0.000000 
#    y 0.000000 6.301660 0.000000 
#    z 0.000000 0.000000 3.800180 
# 
# 
# High freq. dielectric constant tensor:
#      x y z
#    x 1.946650 0.000000 0.000000 
#    y 0.000000 1.986560 0.000000 
#    z 0.000000 0.000000 1.896410 
# 
# From -- ./inp_files/37983.got.cif
#   From: 2010.03.12/outbox.cif.g09.slc.cpg/sg66_19_cif.got.tgz:37983.got - 2010.04.10 21:57:39.
