data_PCOD8277183
_publ_section_title
;
Structure prediction by ZEFSAII (Michael W. Deem and Ramdas Pophale) SiO2 
 PCOD8277183
Probable space group: C C C M
;
_chemical_formula_sum "Si O2"
_cell_formula_units_Z 112
_cell_length_a 14.669915
_cell_length_b 21.668418
_cell_length_c 17.066137
_cell_angle_alpha 90.000000
_cell_angle_beta 90.000000
_cell_angle_gamma 90.000000
_cell_volume 5424.878677
_symmetry_space_group_name_H-M "C C C M"
_symmetry_group_IT_number 66
_symmetry_cell_setting 'orthorhombic'
loop_
_space_group_symop_operation_xyz
x,y,z
-x,-y,z
x,-y,1/2-z
-x,y,1/2-z
-x,-y,-z
x,y,-z
-x,y,1/2+z
x,-y,1/2+z
1/2+x,1/2+y,z
1/2-x,1/2-y,z
1/2+x,1/2-y,1/2-z
1/2-x,1/2+y,1/2-z
1/2-x,1/2-y,-z
1/2+x,1/2+y,-z
1/2-x,1/2+y,1/2+z
1/2+x,1/2-y,1/2+z
loop_
_atom_site_type_symbol
_atom_site_label
_atom_site_fract_x
_atom_site_fract_y
_atom_site_fract_z
Si Si1 0.604445 0.882633 0.743693
Si Si2 0.152008 0.246360 0.207485
Si Si3 0.482651 0.689394 0.585236
Si Si4 0.200219 0.586632 0.089262
Si Si5 0.820496 0.801922 0.626645
Si Si6 0.565131 0.554156 0.090131
Si Si7 0.247457 0.033575 0.827810
O O1 0.500000 0.904418 0.750000
O O2 0.616111 0.811100 0.761124
O O3 0.625720 0.891794 0.652075
O O4 0.669066 0.920984 0.803780
O O5 0.250000 0.250000 0.163619
O O6 0.076743 0.221818 0.149989
O O7 0.168019 0.198909 0.279214
O O8 0.439511 0.703473 0.500000
O O9 0.584441 0.715708 0.586949
O O10 0.491462 0.616610 0.599752
O O11 0.288958 0.630014 0.100187
O O12 0.222589 0.515301 0.106194
O O13 0.163518 0.591819 0.000000
O O14 0.750000 0.750000 0.597758
O O15 0.500000 0.500000 0.124310
O O16 0.658625 0.567040 0.137566
O O17 0.589812 0.539124 0.000000
O O18 0.213660 0.000000 0.750000
#
# Coordination Sequence:
#
# PCOD8277183 Si02
#       7
#    16  16  16  16  16  16  16
#     4  11  23  45  66  93 130 179 214 269 331 393
#     4  11  22  43  67  92 128 170 221 265 324 396
#     4  11  24  38  62  96 130 169 213 267 325 391
#     4  11  23  41  67  98 126 160 220 275 323 378
#     4  11  22  41  65  91 127 170 213 269 326 381
#     4  10  21  40  62  90 133 171 210 269 334 390
#     4  10  23  40  65  92 125 171 216 261 324 395
#
# _framework density 20.645623000000001
#
# number of rings (size 3 to 8) (size 9 to 14) (size 15 to 20)
#    0.000    1.286    2.857    3.857    2.000    5.429 
#    2.571    3.571    0.000    0.000    0.000    0.000 
#    0.000    0.000    0.000    0.000    0.000    0.000 
#
# Total GULP energy -694296.102508 kJ/mol
# GULP energy per Si atom -12398.144688 kJ/mol
# Density = 2.059863 g / cm^3
# Si number density = 20.645623 Si / 1000 Ang^3
#
#
#
# Elastic Constant Matrix: (Units=GPa)
#
#
# Indices 1 2 3 4 5 6 
#
# 1 145.6251 38.5667 55.8719 0.0000 0.0000 0.0000
# 2 38.5667 87.1400 56.0826 0.0000 0.0000 0.0000
# 3 55.8719 56.0826 119.8347 0.0000 0.0000 0.0000
# 4 0.0000 0.0000 0.0000 7.6581 0.0000 0.0000
# 5 0.0000 0.0000 0.0000 0.0000 13.1585 0.0000
# 6 0.0000 0.0000 0.0000 0.0000 0.0000 31.3793
#
#
#
# Elastic Compliance Matrix: (Units=1/GPa)
#
#
# Indices 1 2 3 4 5 6 
#
# 1 0.008544 -0.001742 -0.003168 0.000000 0.000000 0.000000
# 2 -0.001742 0.016778 -0.007039 0.000000 0.000000 0.000000
# 3 -0.003168 -0.007039 0.013116 0.000000 0.000000 0.000000
# 4 0.000000 0.000000 0.000000 0.130580 0.000000 0.000000
# 5 0.000000 0.000000 0.000000 0.000000 0.075996 0.000000
# 6 0.000000 0.000000 0.000000 0.000000 0.000000 0.031868
#
#
# Mechanical properties :
#
#
# Convention : Reuss Voigt Hill
#
# Bulk Modulus (GPa) = 68.78600 72.62691 70.70646
# Shear Modulus (GPa) = 16.35975 23.91110 20.13543
#
# Velocity S-wave (km/s) = 2.81803 3.40688 3.12635
# Velocity P-wave (km/s) = 6.63160 7.12250 6.88143
#
# Compressibility (1/GPa) = 0.01453784
#
# Stress axis : x y z
#
# Youngs Moduli (GPa) = 117.04268 59.60352 76.24050
#
# Poissons Ratio (x) = 0.10386 0.24153
# Poissons Ratio (y) = 0.20394 0.53669
# Poissons Ratio (z) = 0.37080 0.41958
#
# Static dielectric constant tensor:
#      x y z
#    x 3.918410 0.000000 0.000000 
#    y 0.000000 3.932170 0.000000 
#    z 0.000000 0.000000 3.769280 
# 
# 
# High freq. dielectric constant tensor:
#      x y z
#    x 1.808090 0.000000 0.000000 
#    y 0.000000 1.811670 0.000000 
#    z 0.000000 0.000000 1.804600 
# 
# From -- ./inp_files/28703.got.cif
#   From: 2010.03.12/outbox.cif.g09.slc.cpg/sg66_15_cif.got.tgz:28703.got - 2010.04.10 21:57:39.
