data_PCOD8277897
_publ_section_title
;
Structure prediction by ZEFSAII (Michael W. Deem and Ramdas Pophale) SiO2 
 PCOD8277897
Probable space group: C C C M
;
_chemical_formula_sum "Si O2"
_cell_formula_units_Z 84
_cell_length_a 27.203859
_cell_length_b 18.295438
_cell_length_c 9.674939
_cell_angle_alpha 90.000000
_cell_angle_beta 90.000000
_cell_angle_gamma 90.000000
_cell_volume 4815.280179
_symmetry_space_group_name_H-M "C C C M"
_symmetry_group_IT_number 66
_symmetry_cell_setting 'orthorhombic'
loop_
_space_group_symop_operation_xyz
x,y,z
-x,-y,z
x,-y,1/2-z
-x,y,1/2-z
-x,-y,-z
x,y,-z
-x,y,1/2+z
x,-y,1/2+z
1/2+x,1/2+y,z
1/2-x,1/2-y,z
1/2+x,1/2-y,1/2-z
1/2-x,1/2+y,1/2-z
1/2-x,1/2-y,-z
1/2+x,1/2+y,-z
1/2-x,1/2+y,1/2+z
1/2+x,1/2-y,1/2+z
loop_
_atom_site_type_symbol
_atom_site_label
_atom_site_fract_x
_atom_site_fract_y
_atom_site_fract_z
Si Si1 0.847757 0.807835 0.346711
Si Si2 0.456010 0.274113 0.338409
Si Si3 0.500000 0.000000 0.750000
Si Si4 0.427667 0.881769 0.843697
Si Si5 0.237173 0.164798 0.156435
Si Si6 0.176819 0.637589 0.844575
O O1 0.836770 0.839739 0.500000
O O2 0.905455 0.818101 0.311151
O O3 0.814772 0.849518 0.233181
O O4 0.833999 0.723257 0.346656
O O5 0.500000 0.310937 0.250000
O O6 0.470220 0.274998 0.500000
O O7 0.450244 0.191316 0.276237
O O8 0.535087 0.050425 0.841906
O O9 0.373147 0.901585 0.785164
O O10 0.416731 0.858541 0.000000
O O11 0.250000 0.250000 0.156143
O O12 0.278999 0.119820 0.239276
O O13 0.233784 0.134811 0.000000
O O14 0.191008 0.611078 0.000000
#
# Coordination Sequence:
#
# PCOD8277897 Si02
#       6
#    16  16   4  16  16  16
#     4   8  14  23  36  50  67  91 115 135 167 217
#     4   9  16  27  38  51  70  94 123 152 183 221
#     4  12  18  28  44  54  72  88 126 172 204 224
#     4   9  18  29  39  52  67  89 120 154 194 235
#     4   9  15  22  34  54  73  83 102 136 175 214
#     4   8  14  26  39  48  65  89 112 136 174 226
#
# _framework density 17.444468000000001
#
# number of rings (size 3 to 8) (size 9 to 14) (size 15 to 20)
#    0.000    3.238    0.952    3.143    0.000    3.048 
#    0.000    4.762    0.000    0.000    0.000    0.000 
#    0.000    0.000    0.000    0.000    0.000    0.000 
#
# Total GULP energy -520312.367634 kJ/mol
# GULP energy per Si atom -12388.389706 kJ/mol
# Density = 1.740476 g / cm^3
# Si number density = 17.444468 Si / 1000 Ang^3
#
#
#
# Elastic Constant Matrix: (Units=GPa)
#
#
# Indices 1 2 3 4 5 6 
#
# 1 165.3457 16.3192 86.1122 0.0000 0.0000 0.0000
# 2 16.3192 9.3693 6.4028 0.0000 0.0000 0.0000
# 3 86.1122 6.4028 111.8336 0.0000 0.0000 0.0000
# 4 0.0000 0.0000 0.0000 2.9528 0.0000 0.0000
# 5 0.0000 0.0000 0.0000 0.0000 33.2265 0.0000
# 6 0.0000 0.0000 0.0000 0.0000 0.0000 19.4117
#
#
#
# Elastic Compliance Matrix: (Units=1/GPa)
#
#
# Indices 1 2 3 4 5 6 
#
# 1 0.011816 -0.014948 -0.008243 0.000000 0.000000 0.000000
# 2 -0.014948 0.129989 0.004068 0.000000 0.000000 0.000000
# 3 -0.008243 0.004068 0.015056 0.000000 0.000000 0.000000
# 4 0.000000 0.000000 0.000000 0.338657 0.000000 0.000000
# 5 0.000000 0.000000 0.000000 0.000000 0.030096 0.000000
# 6 0.000000 0.000000 0.000000 0.000000 0.000000 0.051515
#
#
# Mechanical properties :
#
#
# Convention : Reuss Voigt Hill
#
# Bulk Modulus (GPa) = 8.43066 56.02412 32.22739
# Shear Modulus (GPa) = 7.63460 22.96582 15.30021
#
# Velocity S-wave (km/s) = 2.09428 3.63231 2.96477
# Velocity P-wave (km/s) = 3.26977 7.05528 5.49856
#
# Compressibility (1/GPa) = 0.11861465
#
# Stress axis : x y z
#
# Youngs Moduli (GPa) = 84.63108 7.69299 66.41990
#
# Poissons Ratio (x) = 0.11500 0.54747
# Poissons Ratio (y) = 1.26507 -0.27018
# Poissons Ratio (z) = 0.69757 -0.03129
#
# Static dielectric constant tensor:
#      x y z
#    x 3.600970 0.000000 0.000000 
#    y 0.000000 2.467160 0.000000 
#    z 0.000000 0.000000 3.238710 
# 
# 
# High freq. dielectric constant tensor:
#      x y z
#    x 1.693770 0.000000 0.000000 
#    y 0.000000 1.578900 0.000000 
#    z 0.000000 0.000000 1.664600 
# 
# From -- ./inp_files/18990.got.cif
#   From: 2010.03.12/outbox.cif.g09.slc.cpg/sg66_10_cif.got.tgz:18990.got - 2010.04.10 21:57:39.
