data_PCOD8277605
_publ_section_title
;
Structure prediction by ZEFSAII (Michael W. Deem and Ramdas Pophale) SiO2 
 PCOD8277605
Probable space group: C C C M
;
_chemical_formula_sum "Si O2"
_cell_formula_units_Z 80
_cell_length_a 10.879431
_cell_length_b 16.753380
_cell_length_c 20.718146
_cell_angle_alpha 90.000000
_cell_angle_beta 90.000000
_cell_angle_gamma 90.000000
_cell_volume 3776.239325
_symmetry_space_group_name_H-M "C C C M"
_symmetry_group_IT_number 66
_symmetry_cell_setting 'orthorhombic'
loop_
_space_group_symop_operation_xyz
x,y,z
-x,-y,z
x,-y,1/2-z
-x,y,1/2-z
-x,-y,-z
x,y,-z
-x,y,1/2+z
x,-y,1/2+z
1/2+x,1/2+y,z
1/2-x,1/2-y,z
1/2+x,1/2-y,1/2-z
1/2-x,1/2+y,1/2-z
1/2-x,1/2-y,-z
1/2+x,1/2+y,-z
1/2-x,1/2+y,1/2+z
1/2+x,1/2-y,1/2+z
loop_
_atom_site_type_symbol
_atom_site_label
_atom_site_fract_x
_atom_site_fract_y
_atom_site_fract_z
Si Si1 0.425200 0.135733 0.689155
Si Si2 0.221951 0.500000 0.750000
Si Si3 0.329322 0.551979 0.624260
Si Si4 0.423609 0.385519 0.424632
Si Si5 0.250000 0.250000 0.373449
Si Si6 0.068417 0.583732 0.428683
O O1 0.500000 0.168241 0.750000
O O2 0.369221 0.048965 0.703684
O O3 0.314502 0.193782 0.677212
O O4 0.509604 0.139266 0.625617
O O5 0.304564 0.553925 0.701876
O O6 0.441992 0.612535 0.609555
O O7 0.350907 0.460433 0.604119
O O8 0.213167 0.580032 0.583337
O O9 0.444368 0.398849 0.500000
O O10 0.346537 0.303338 0.415089
O O11 0.047541 0.621339 0.500000
O O12 0.000000 0.500000 0.425314
#
# Coordination Sequence:
#
# PCOD8277605 Si02
#       6
#    16   8  16  16   8  16
#     4  12  24  44  67  96 136 177 228 283 346 416
#     4  12  21  41  70 100 130 175 225 286 344 408
#     4  11  22  40  69 101 133 175 230 293 346 417
#     4  11  24  43  66  98 138 178 226 289 352 421
#     4  12  27  46  66  98 131 194 228 284 362 426
#     4  11  20  35  65 101 131 170 225 284 343 405
#
# _framework density 21.185099000000001
#
# number of rings (size 3 to 8) (size 9 to 14) (size 15 to 20)
#    0.000    0.600    6.000    3.000    0.000    6.400 
#    0.000    0.000    0.000    2.400    0.000    0.000 
#    0.000    0.000    0.000    0.000    0.000    0.000 
#
# Total GULP energy -495882.885897 kJ/mol
# GULP energy per Si atom -12397.072147 kJ/mol
# Density = 2.113688 g / cm^3
# Si number density = 21.185099 Si / 1000 Ang^3
#
#
#
# Elastic Constant Matrix: (Units=GPa)
#
#
# Indices 1 2 3 4 5 6 
#
# 1 151.3822 44.8124 61.1914 0.0000 0.0000 0.0000
# 2 44.8124 67.5773 16.6770 0.0000 0.0000 0.0000
# 3 61.1914 16.6770 171.8709 0.0000 0.0000 0.0000
# 4 0.0000 0.0000 0.0000 -18.4451 0.0000 0.0000
# 5 0.0000 0.0000 0.0000 0.0000 24.3955 0.0000
# 6 0.0000 0.0000 0.0000 0.0000 0.0000 34.8444
#
#
#
# Elastic Compliance Matrix: (Units=1/GPa)
#
#
# Indices 1 2 3 4 5 6 
#
# 1 0.009373 -0.005525 -0.002801 0.000000 0.000000 0.000000
# 2 -0.005525 0.018417 0.000180 0.000000 0.000000 0.000000
# 3 -0.002801 0.000180 0.006798 0.000000 0.000000 0.000000
# 4 0.000000 0.000000 0.000000 -0.054215 0.000000 0.000000
# 5 0.000000 0.000000 0.000000 0.000000 0.040991 0.000000
# 6 0.000000 0.000000 0.000000 0.000000 0.000000 0.028699
#
#
# Mechanical properties :
#
#
# Convention : Reuss Voigt Hill
#
# Bulk Modulus (GPa) = 54.65406 70.68801 62.67104
# Shear Modulus (GPa) = 69.00891 26.03560 47.52226
#
# Velocity S-wave (km/s) = 5.71358 3.50945 4.74137
# Velocity P-wave (km/s) = 8.32953 7.06123 7.72146
#
# Compressibility (1/GPa) = 0.01829690
#
# Stress axis : x y z
#
# Youngs Moduli (GPa) = 106.68414 54.29783 147.09821
#
# Poissons Ratio (x) = 0.29997 0.41205
# Poissons Ratio (y) = 0.58938 -0.02646
# Poissons Ratio (z) = 0.29884 -0.00977
#
# Static dielectric constant tensor:
#      x y z
#    x 4.125200 0.000000 0.000000 
#    y 0.000000 3.823660 0.000000 
#    z 0.000000 0.000000 4.184400 
# 
# 
# High freq. dielectric constant tensor:
#      x y z
#    x 1.849560 0.000000 0.000000 
#    y 0.000000 1.790980 0.000000 
#    z 0.000000 0.000000 1.849950 
# 
# From -- ./inp_files/48474.got.cif
#   From: 2010.03.12/outbox.cif.g09.slc.cpg/sg66_25_cif.got.tgz:48474.got - 2010.04.10 21:57:39.
