data_PCOD8277311
_publ_section_title
;
Structure prediction by ZEFSAII (Michael W. Deem and Ramdas Pophale) SiO2 
 PCOD8277311
Probable space group: C C C M
;
_chemical_formula_sum "Si O2"
_cell_formula_units_Z 112
_cell_length_a 10.631228
_cell_length_b 16.509200
_cell_length_c 29.577442
_cell_angle_alpha 90.000000
_cell_angle_beta 90.000000
_cell_angle_gamma 90.000000
_cell_volume 5191.227627
_symmetry_space_group_name_H-M "C C C M"
_symmetry_group_IT_number 66
_symmetry_cell_setting 'orthorhombic'
loop_
_space_group_symop_operation_xyz
x,y,z
-x,-y,z
x,-y,1/2-z
-x,y,1/2-z
-x,-y,-z
x,y,-z
-x,y,1/2+z
x,-y,1/2+z
1/2+x,1/2+y,z
1/2-x,1/2-y,z
1/2+x,1/2-y,1/2-z
1/2-x,1/2+y,1/2-z
1/2-x,1/2-y,-z
1/2+x,1/2+y,-z
1/2-x,1/2+y,1/2+z
1/2+x,1/2-y,1/2+z
loop_
_atom_site_type_symbol
_atom_site_label
_atom_site_fract_x
_atom_site_fract_y
_atom_site_fract_z
Si Si1 0.115460 0.449489 0.184575
Si Si2 0.301989 0.662585 0.728452
Si Si3 0.030555 0.675637 0.125775
Si Si4 0.869672 0.043781 0.550057
Si Si5 0.737042 0.566184 0.624222
Si Si6 0.555178 0.665417 0.320738
Si Si7 0.607746 0.276377 0.448837
O O1 0.186395 0.399864 0.223728
O O2 0.215795 0.512012 0.165263
O O3 0.000000 0.500000 0.206084
O O4 0.066223 0.391283 0.144401
O O5 0.250000 0.750000 0.714634
O O6 0.415243 0.638791 0.694262
O O7 0.347378 0.659500 0.779620
O O8 0.162778 0.635680 0.111918
O O9 0.054498 0.741228 0.164717
O O10 0.976200 0.717286 0.081143
O O11 0.807455 0.053290 0.500000
O O12 0.895797 0.132543 0.571082
O O13 0.777835 0.990620 0.580712
O O14 0.000000 0.000000 0.545200
O O15 0.604608 0.607032 0.639234
O O16 0.554376 0.273542 0.500000
O O17 0.750000 0.250000 0.446894
#
# Coordination Sequence:
#
# PCOD8277311 Si02
#       7
#    16  16  16  16  16  16  16
#     4  10  24  42  65  96 128 172 211 256 335 391
#     4  11  23  44  69  92 125 170 216 269 326 381
#     4  11  22  42  66  94 129 171 218 264 328 395
#     4  10  22  39  60  90 126 170 212 254 322 389
#     4  11  24  40  62  95 133 164 209 272 324 387
#     4  11  25  41  66  97 124 164 223 268 317 389
#     4  10  22  39  66  99 128 168 226 274 319 394
#
# _framework density 21.574859
#
# number of rings (size 3 to 8) (size 9 to 14) (size 15 to 20)
#    0.000    1.429    1.429    3.000    6.000    1.143 
#    0.000    5.000    0.000    9.429    0.000    0.000 
#    0.000    0.000    0.000    0.000    0.000    0.000 
#
# Total GULP energy -694602.469640 kJ/mol
# GULP energy per Si atom -12403.615529 kJ/mol
# Density = 2.152575 g / cm^3
# Si number density = 21.574859 Si / 1000 Ang^3
#
#
#
# Elastic Constant Matrix: (Units=GPa)
#
#
# Indices 1 2 3 4 5 6 
#
# 1 102.3971 51.2441 45.2837 0.0000 0.0000 0.0000
# 2 51.2441 131.0138 40.2355 0.0000 0.0000 0.0000
# 3 45.2837 40.2355 89.3080 0.0000 0.0000 0.0000
# 4 0.0000 0.0000 0.0000 15.9361 0.0000 0.0000
# 5 0.0000 0.0000 0.0000 0.0000 26.2933 0.0000
# 6 0.0000 0.0000 0.0000 0.0000 0.0000 41.5753
#
#
#
# Elastic Compliance Matrix: (Units=1/GPa)
#
#
# Indices 1 2 3 4 5 6 
#
# 1 0.014083 -0.003848 -0.005407 0.000000 0.000000 0.000000
# 2 -0.003848 0.009910 -0.002514 0.000000 0.000000 0.000000
# 3 -0.005407 -0.002514 0.015071 0.000000 0.000000 0.000000
# 4 0.000000 0.000000 0.000000 0.062751 0.000000 0.000000
# 5 0.000000 0.000000 0.000000 0.000000 0.038032 0.000000
# 6 0.000000 0.000000 0.000000 0.000000 0.000000 0.024053
#
#
# Mechanical properties :
#
#
# Convention : Reuss Voigt Hill
#
# Bulk Modulus (GPa) = 64.40448 66.24951 65.32700
# Shear Modulus (GPa) = 25.95893 29.15800 27.55846
#
# Velocity S-wave (km/s) = 3.47248 3.68024 3.57787
# Velocity P-wave (km/s) = 6.78189 6.98801 6.88572
#
# Compressibility (1/GPa) = 0.01552687
#
# Stress axis : x y z
#
# Youngs Moduli (GPa) = 71.00915 100.91141 66.35097
#
# Poissons Ratio (x) = 0.38827 0.35877
# Poissons Ratio (y) = 0.27322 0.16678
# Poissons Ratio (z) = 0.38396 0.25365
#
# Static dielectric constant tensor:
#      x y z
#    x 3.904440 0.000000 0.000000 
#    y 0.000000 4.078340 0.000000 
#    z 0.000000 0.000000 3.886010 
# 
# 
# High freq. dielectric constant tensor:
#      x y z
#    x 1.848270 0.000000 0.000000 
#    y 0.000000 1.865200 0.000000 
#    z 0.000000 0.000000 1.840010 
# 
# From -- ./inp_files/69101.got.cif
#   From: 2010.03.12/outbox.cif.g09.slc.cpg/sg66_35_cif.got.tgz:69101.got - 2010.04.10 21:57:39.
