data_PCOD8277665
_publ_section_title
;
Structure prediction by ZEFSAII (Michael W. Deem and Ramdas Pophale) SiO2 
 PCOD8277665
Probable space group: C C C M
;
_chemical_formula_sum "Si O2"
_cell_formula_units_Z 112
_cell_length_a 14.909297
_cell_length_b 14.320108
_cell_length_c 27.132927
_cell_angle_alpha 90.000000
_cell_angle_beta 90.000000
_cell_angle_gamma 90.000000
_cell_volume 5792.954347
_symmetry_space_group_name_H-M "C C C M"
_symmetry_group_IT_number 66
_symmetry_cell_setting 'orthorhombic'
loop_
_space_group_symop_operation_xyz
x,y,z
-x,-y,z
x,-y,1/2-z
-x,y,1/2-z
-x,-y,-z
x,y,-z
-x,y,1/2+z
x,-y,1/2+z
1/2+x,1/2+y,z
1/2-x,1/2-y,z
1/2+x,1/2-y,1/2-z
1/2-x,1/2+y,1/2-z
1/2-x,1/2-y,-z
1/2+x,1/2+y,-z
1/2-x,1/2+y,1/2+z
1/2+x,1/2-y,1/2+z
loop_
_atom_site_type_symbol
_atom_site_label
_atom_site_fract_x
_atom_site_fract_y
_atom_site_fract_z
Si Si1 0.826952 0.678465 0.199922
Si Si2 0.840981 0.300037 0.185483
Si Si3 0.393869 0.717377 0.554652
Si Si4 0.094335 0.031704 0.193521
Si Si5 0.973239 0.781500 0.154575
Si Si6 0.783116 0.400112 0.554674
Si Si7 0.275800 0.007159 0.348541
O O1 0.750000 0.750000 0.181788
O O2 0.850214 0.692013 0.256501
O O3 0.916380 0.688805 0.166948
O O4 0.795451 0.573173 0.191427
O O5 0.750000 0.250000 0.169183
O O6 0.837366 0.403009 0.161823
O O7 0.923344 0.235902 0.167400
O O8 0.435146 0.701513 0.500000
O O9 0.468299 0.695956 0.596176
O O10 0.312202 0.647570 0.563815
O O11 0.360641 0.823459 0.559647
O O12 0.083402 0.143715 0.188050
O O13 0.107636 0.000000 0.250000
O O14 0.169035 0.979403 0.160301
O O15 0.000000 0.000000 0.171028
O O16 0.786812 0.445364 0.500000
O O17 0.797323 0.479813 0.595276
#
# Coordination Sequence:
#
# PCOD8277665 Si02
#       7
#    16  16  16  16  16  16  16
#     4  11  21  37  63  90 121 160 202 253 315 370
#     4  11  27  40  56  84 129 170 212 247 299 368
#     4   9  17  34  62  95 120 149 200 258 314 366
#     4  11  24  35  60  87 117 162 218 250 293 360
#     4  12  22  39  62  90 127 162 200 261 311 363
#     4   9  17  33  62  95 121 149 195 260 321 373
#     4  12  21  40  61  88 127 161 199 256 314 373
#
# _framework density 19.333829999999999
#
# number of rings (size 3 to 8) (size 9 to 14) (size 15 to 20)
#    0.000    1.286    4.286    3.429    6.000    0.571 
#    0.000    2.143    0.000    6.857    0.000    0.000 
#    0.000    0.000    0.000    0.000    0.000    0.000 
#
# Total GULP energy -694148.640381 kJ/mol
# GULP energy per Si atom -12395.511435 kJ/mol
# Density = 1.928983 g / cm^3
# Si number density = 19.333830 Si / 1000 Ang^3
#
#
#
# Elastic Constant Matrix: (Units=GPa)
#
#
# Indices 1 2 3 4 5 6 
#
# 1 74.9351 10.2596 41.6597 0.0000 0.0000 0.0000
# 2 10.2596 69.0005 38.3941 0.0000 0.0000 0.0000
# 3 41.6597 38.3941 134.3128 0.0000 0.0000 0.0000
# 4 0.0000 0.0000 0.0000 25.4014 0.0000 0.0000
# 5 0.0000 0.0000 0.0000 0.0000 24.7440 0.0000
# 6 0.0000 0.0000 0.0000 0.0000 0.0000 26.0356
#
#
#
# Elastic Compliance Matrix: (Units=1/GPa)
#
#
# Indices 1 2 3 4 5 6 
#
# 1 0.016138 0.000459 -0.005137 0.000000 0.000000 0.000000
# 2 0.000459 0.017247 -0.005072 0.000000 0.000000 0.000000
# 3 -0.005137 -0.005072 0.010488 0.000000 0.000000 0.000000
# 4 0.000000 0.000000 0.000000 0.039368 0.000000 0.000000
# 5 0.000000 0.000000 0.000000 0.000000 0.040414 0.000000
# 6 0.000000 0.000000 0.000000 0.000000 0.000000 0.038409
#
#
# Mechanical properties :
#
#
# Convention : Reuss Voigt Hill
#
# Bulk Modulus (GPa) = 41.02980 50.98614 46.00797
# Shear Modulus (GPa) = 26.35902 27.76521 27.06212
#
# Velocity S-wave (km/s) = 3.69638 3.79370 3.74535
# Velocity P-wave (km/s) = 6.28375 6.75413 6.52318
#
# Compressibility (1/GPa) = 0.02437253
#
# Stress axis : x y z
#
# Youngs Moduli (GPa) = 61.96663 57.98149 95.34281
#
# Poissons Ratio (x) = -0.02659 0.48973
# Poissons Ratio (y) = -0.02842 0.48361
# Poissons Ratio (z) = 0.31829 0.29410
#
# Static dielectric constant tensor:
#      x y z
#    x 3.513670 0.000000 0.000000 
#    y 0.000000 3.626770 0.000000 
#    z 0.000000 0.000000 3.607850 
# 
# 
# High freq. dielectric constant tensor:
#      x y z
#    x 1.737640 0.000000 0.000000 
#    y 0.000000 1.738540 0.000000 
#    z 0.000000 0.000000 1.752150 
# 
# From -- ./inp_files/64693.got.cif
#   From: 2010.03.12/outbox.cif.g09.slc.cpg/sg66_33_cif.got.tgz:64693.got - 2010.04.10 21:57:39.
