data_PCOD8277117
_publ_section_title
;
Structure prediction by ZEFSAII (Michael W. Deem and Ramdas Pophale) SiO2 
 PCOD8277117
Probable space group: C C C M
;
_chemical_formula_sum "Si O2"
_cell_formula_units_Z 96
_cell_length_a 23.198281
_cell_length_b 25.160098
_cell_length_c 8.635865
_cell_angle_alpha 90.000000
_cell_angle_beta 90.000000
_cell_angle_gamma 90.000000
_cell_volume 5040.504162
_symmetry_space_group_name_H-M "C C C M"
_symmetry_group_IT_number 66
_symmetry_cell_setting 'orthorhombic'
loop_
_space_group_symop_operation_xyz
x,y,z
-x,-y,z
x,-y,1/2-z
-x,y,1/2-z
-x,-y,-z
x,y,-z
-x,y,1/2+z
x,-y,1/2+z
1/2+x,1/2+y,z
1/2-x,1/2-y,z
1/2+x,1/2-y,1/2-z
1/2-x,1/2+y,1/2-z
1/2-x,1/2-y,-z
1/2+x,1/2+y,-z
1/2-x,1/2+y,1/2+z
1/2+x,1/2-y,1/2+z
loop_
_atom_site_type_symbol
_atom_site_label
_atom_site_fract_x
_atom_site_fract_y
_atom_site_fract_z
Si Si1 0.362460 0.146990 0.680111
Si Si2 0.438906 0.057209 0.182479
Si Si3 0.249567 0.310407 0.819681
Si Si4 0.438788 0.443768 0.681851
Si Si5 0.122634 0.152081 0.179869
Si Si6 0.061120 0.747764 0.818001
O O1 0.368020 0.133498 0.500000
O O2 0.389009 0.098473 0.775596
O O3 0.295967 0.154198 0.725995
O O4 0.394817 0.201148 0.724027
O O5 0.500000 0.077177 0.250000
O O6 0.421852 0.000000 0.250000
O O7 0.445031 0.052421 0.000000
O O8 0.250000 0.250000 0.757753
O O9 0.311407 0.335041 0.785489
O O10 0.232935 0.311534 0.000000
O O11 0.418971 0.500000 0.750000
O O12 0.500000 0.425376 0.750000
O O13 0.444927 0.449214 0.500000
O O14 0.390797 0.400958 0.725519
O O15 0.081465 0.198985 0.235415
O O16 0.110898 0.142265 0.000000
O O17 0.000000 0.730278 0.750000
O O18 0.056732 0.757935 0.000000
#
# Coordination Sequence:
#
# PCOD8277117 Si02
#       6
#    16  16  16  16  16  16
#     4  11  23  38  59  87 119 155 198 244 294 350
#     4  11  22  39  63  89 121 156 197 243 296 355
#     4  10  21  39  61  85 115 158 201 243 294 348
#     4  11  22  39  62  88 119 153 194 238 292 348
#     4  11  22  38  60  85 117 153 195 240 291 348
#     4  11  23  36  54  83 117 152 190 238 292 347
#
# _framework density 19.045712999999999
#
# number of rings (size 3 to 8) (size 9 to 14) (size 15 to 20)
#    0.000    1.167    1.667    6.500    0.000    5.000 
#    0.000    0.833    0.000    4.000    0.000    0.000 
#    0.000    0.000    0.000    0.000    0.000    0.000 
#
# Total GULP energy -595558.567449 kJ/mol
# GULP energy per Si atom -12407.470155 kJ/mol
# Density = 1.900236 g / cm^3
# Si number density = 19.045713 Si / 1000 Ang^3
#
#
#
# Elastic Constant Matrix: (Units=GPa)
#
#
# Indices 1 2 3 4 5 6 
#
# 1 89.8920 46.1812 43.1007 0.0000 0.0000 0.0000
# 2 46.1812 111.2687 49.9937 0.0000 0.0000 0.0000
# 3 43.1007 49.9937 123.5684 0.0000 0.0000 0.0000
# 4 0.0000 0.0000 0.0000 28.5408 0.0000 0.0000
# 5 0.0000 0.0000 0.0000 0.0000 32.2900 0.0000
# 6 0.0000 0.0000 0.0000 0.0000 0.0000 25.4277
#
#
#
# Elastic Compliance Matrix: (Units=1/GPa)
#
#
# Indices 1 2 3 4 5 6 
#
# 1 0.015201 -0.004799 -0.003361 0.000000 0.000000 0.000000
# 2 -0.004799 0.012499 -0.003383 0.000000 0.000000 0.000000
# 3 -0.003361 -0.003383 0.010634 0.000000 0.000000 0.000000
# 4 0.000000 0.000000 0.000000 0.035038 0.000000 0.000000
# 5 0.000000 0.000000 0.000000 0.000000 0.030969 0.000000
# 6 0.000000 0.000000 0.000000 0.000000 0.000000 0.039327
#
#
# Mechanical properties :
#
#
# Convention : Reuss Voigt Hill
#
# Bulk Modulus (GPa) = 65.58036 67.03117 66.30577
# Shear Modulus (GPa) = 29.09743 29.61526 29.35635
#
# Velocity S-wave (km/s) = 3.91291 3.94757 3.93028
# Velocity P-wave (km/s) = 7.41096 7.48659 7.44887
#
# Compressibility (1/GPa) = 0.01524847
#
# Stress axis : x y z
#
# Youngs Moduli (GPa) = 65.78374 80.00547 94.04230
#
# Poissons Ratio (x) = 0.38397 0.31603
# Poissons Ratio (y) = 0.31572 0.31814
# Poissons Ratio (z) = 0.22107 0.27065
#
# Static dielectric constant tensor:
#      x y z
#    x 3.444230 0.000000 0.000000 
#    y 0.000000 3.490160 0.000000 
#    z 0.000000 0.000000 3.580040 
# 
# 
# High freq. dielectric constant tensor:
#      x y z
#    x 1.739500 0.000000 0.000000 
#    y 0.000000 1.743630 0.000000 
#    z 0.000000 0.000000 1.755620 
# 
# From -- ./inp_files/9136.got.cif
#   From: 2010.03.12/outbox.cif.g09.slc.cpg/sg66_5_cif.got.tgz:9136.got - 2010.04.10 21:57:39.
