data_PCOD8277523
_publ_section_title
;
Structure prediction by ZEFSAII (Michael W. Deem and Ramdas Pophale) SiO2 
 PCOD8277523
Probable space group: C C C M
;
_chemical_formula_sum "Si O2"
_cell_formula_units_Z 56
_cell_length_a 20.869800
_cell_length_b 5.018860
_cell_length_c 24.055506
_cell_angle_alpha 90.000000
_cell_angle_beta 90.000000
_cell_angle_gamma 90.000000
_cell_volume 2519.636349
_symmetry_space_group_name_H-M "C C C M"
_symmetry_group_IT_number 66
_symmetry_cell_setting 'orthorhombic'
loop_
_space_group_symop_operation_xyz
x,y,z
-x,-y,z
x,-y,1/2-z
-x,y,1/2-z
-x,-y,-z
x,y,-z
-x,y,1/2+z
x,-y,1/2+z
1/2+x,1/2+y,z
1/2-x,1/2-y,z
1/2+x,1/2-y,1/2-z
1/2-x,1/2+y,1/2-z
1/2-x,1/2-y,-z
1/2+x,1/2+y,-z
1/2-x,1/2+y,1/2+z
1/2+x,1/2-y,1/2+z
loop_
_atom_site_type_symbol
_atom_site_label
_atom_site_fract_x
_atom_site_fract_y
_atom_site_fract_z
Si Si1 0.500000 0.000000 0.859865
Si Si2 0.894482 0.319752 0.936848
Si Si3 0.607527 0.246282 0.287857
Si Si4 0.322841 0.682386 0.396977
O O1 0.542718 0.198180 0.897905
O O2 0.457643 0.188380 0.820953
O O3 0.866658 0.616114 0.931777
O O4 0.840227 0.114111 0.916867
O O5 0.915035 0.263194 0.000000
O O6 0.594923 0.500000 0.250000
O O7 0.665105 0.296157 0.330987
O O8 0.628698 0.000000 0.250000
O O9 0.250000 0.750000 0.410582
#
# Coordination Sequence:
#
# PCOD8277523 Si02
#       4
#     8  16  16  16
#     4  10  24  42  64  96 130 162 212 264 316 388
#     4  11  24  42  66  93 126 167 207 260 321 376
#     4  11  24  41  64  91 124 165 205 255 315 372
#     4  11  25  43  63  93 127 163 214 262 308 377
#
# _framework density 22.225428999999998
#
# number of rings (size 3 to 8) (size 9 to 14) (size 15 to 20)
#    0.000    1.143    0.000    6.000    0.000   18.286 
#    0.000    7.143    0.000    0.000    0.000    0.000 
#    0.000    0.000    0.000    0.000    0.000    0.000 
#
# Total GULP energy -347384.929649 kJ/mol
# GULP energy per Si atom -12406.604630 kJ/mol
# Density = 2.217484 g / cm^3
# Si number density = 22.225429 Si / 1000 Ang^3
#
#
#
# Elastic Constant Matrix: (Units=GPa)
#
#
# Indices 1 2 3 4 5 6 
#
# 1 63.8919 9.1298 10.5389 0.0000 0.0000 0.0000
# 2 9.1298 109.4691 44.0399 0.0000 0.0000 0.0000
# 3 10.5389 44.0399 145.1247 0.0000 0.0000 0.0000
# 4 0.0000 0.0000 0.0000 34.1079 0.0000 0.0000
# 5 0.0000 0.0000 0.0000 0.0000 14.2729 0.0000
# 6 0.0000 0.0000 0.0000 0.0000 0.0000 36.1425
#
#
#
# Elastic Compliance Matrix: (Units=1/GPa)
#
#
# Indices 1 2 3 4 5 6 
#
# 1 0.015934 -0.000983 -0.000859 0.000000 0.000000 0.000000
# 2 -0.000983 0.010466 -0.003105 0.000000 0.000000 0.000000
# 3 -0.000859 -0.003105 0.007895 0.000000 0.000000 0.000000
# 4 0.000000 0.000000 0.000000 0.029319 0.000000 0.000000
# 5 0.000000 0.000000 0.000000 0.000000 0.070063 0.000000
# 6 0.000000 0.000000 0.000000 0.000000 0.000000 0.027668
#
#
# Mechanical properties :
#
#
# Convention : Reuss Voigt Hill
#
# Bulk Modulus (GPa) = 40.98142 49.54477 45.26309
# Shear Modulus (GPa) = 27.87507 33.88981 30.88244
#
# Velocity S-wave (km/s) = 3.54531 3.90913 3.73166
# Velocity P-wave (km/s) = 5.93616 6.53570 6.24313
#
# Compressibility (1/GPa) = 0.02440130
#
# Stress axis : x y z
#
# Youngs Moduli (GPa) = 62.76052 95.54729 126.66051
#
# Poissons Ratio (x) = 0.09396 0.10876
# Poissons Ratio (y) = 0.06172 0.39323
# Poissons Ratio (z) = 0.05389 0.29664
#
# Static dielectric constant tensor:
#      x y z
#    x 3.928760 0.000000 0.000000 
#    y 0.000000 3.939050 0.000000 
#    z 0.000000 0.000000 4.297020 
# 
# 
# High freq. dielectric constant tensor:
#      x y z
#    x 1.863500 0.000000 0.000000 
#    y 0.000000 1.884110 0.000000 
#    z 0.000000 0.000000 1.892880 
# 
# From -- ./inp_files/53876.got.cif
#   From: 2010.03.12/outbox.cif.g09.slc.cpg/sg66_27_cif.got.tgz:53876.got - 2010.04.10 21:57:39.
