data_PCOD8277719
_publ_section_title
;
Structure prediction by ZEFSAII (Michael W. Deem and Ramdas Pophale) SiO2 
 PCOD8277719
Probable space group: C C C M
;
_chemical_formula_sum "Si O2"
_cell_formula_units_Z 64
_cell_length_a 4.975490
_cell_length_b 35.307329
_cell_length_c 17.125815
_cell_angle_alpha 90.000000
_cell_angle_beta 90.000000
_cell_angle_gamma 90.000000
_cell_volume 3008.513540
_symmetry_space_group_name_H-M "C C C M"
_symmetry_group_IT_number 66
_symmetry_cell_setting 'orthorhombic'
loop_
_space_group_symop_operation_xyz
x,y,z
-x,-y,z
x,-y,1/2-z
-x,y,1/2-z
-x,-y,-z
x,y,-z
-x,y,1/2+z
x,-y,1/2+z
1/2+x,1/2+y,z
1/2-x,1/2-y,z
1/2+x,1/2-y,1/2-z
1/2-x,1/2+y,1/2-z
1/2-x,1/2-y,-z
1/2+x,1/2+y,-z
1/2-x,1/2+y,1/2+z
1/2+x,1/2-y,1/2+z
loop_
_atom_site_type_symbol
_atom_site_label
_atom_site_fract_x
_atom_site_fract_y
_atom_site_fract_z
Si Si1 0.485352 0.917199 0.407071
Si Si2 0.025172 0.043211 0.658120
Si Si3 0.652573 0.163704 0.087752
Si Si4 0.132323 0.787928 0.412151
O O1 0.495855 0.916416 0.500000
O O2 0.182853 0.927721 0.382101
O O3 0.598955 0.877120 0.372632
O O4 0.674953 0.948461 0.369885
O O5 0.000000 0.047828 0.750000
O O6 0.000000 0.000000 0.631006
O O7 0.362024 0.181501 0.087305
O O8 0.872957 0.191703 0.129534
O O9 0.763510 0.157455 0.000000
O O10 0.044482 0.775641 0.500000
O O11 0.250000 0.750000 0.369266
#
# Coordination Sequence:
#
# PCOD8277719 Si02
#       4
#    16  16  16  16
#     4  11  22  37  59  85 114 148 187 235 288 342
#     4  11  24  41  59  81 112 148 187 235 289 344
#     4   9  17  28  43  69 104 138 175 221 270 316
#     4   9  15  24  40  64 100 144 179 209 259 324
#
# _framework density 21.272964000000002
#
# number of rings (size 3 to 8) (size 9 to 14) (size 15 to 20)
#    0.000    2.000    0.000    4.500    0.000   12.000 
#    0.000    0.000    0.000    0.000    0.000    0.000 
#    0.000   56.000    0.000    0.000    0.000    0.000 
#
# Total GULP energy -396496.134430 kJ/mol
# GULP energy per Si atom -12390.504201 kJ/mol
# Density = 2.122455 g / cm^3
# Si number density = 21.272964 Si / 1000 Ang^3
#
#
#
# Elastic Constant Matrix: (Units=GPa)
#
#
# Indices 1 2 3 4 5 6 
#
# 1 90.2627 13.1661 3.7731 0.0000 0.0000 0.0000
# 2 13.1661 119.8564 13.0642 0.0000 0.0000 0.0000
# 3 3.7731 13.0642 31.1592 0.0000 0.0000 0.0000
# 4 0.0000 0.0000 0.0000 51.0722 0.0000 0.0000
# 5 0.0000 0.0000 0.0000 0.0000 19.3763 0.0000
# 6 0.0000 0.0000 0.0000 0.0000 0.0000 50.8549
#
#
#
# Elastic Compliance Matrix: (Units=1/GPa)
#
#
# Indices 1 2 3 4 5 6 
#
# 1 0.011283 -0.001143 -0.000887 0.000000 0.000000 0.000000
# 2 -0.001143 0.008859 -0.003576 0.000000 0.000000 0.000000
# 3 -0.000887 -0.003576 0.033700 0.000000 0.000000 0.000000
# 4 0.000000 0.000000 0.000000 0.019580 0.000000 0.000000
# 5 0.000000 0.000000 0.000000 0.000000 0.051609 0.000000
# 6 0.000000 0.000000 0.000000 0.000000 0.000000 0.019664
#
#
# Mechanical properties :
#
#
# Convention : Reuss Voigt Hill
#
# Bulk Modulus (GPa) = 23.45776 33.47611 28.46694
# Shear Modulus (GPa) = 29.39181 38.34568 33.86874
#
# Velocity S-wave (km/s) = 3.72109 4.25026 3.99444
# Velocity P-wave (km/s) = 5.43258 6.31323 5.88939
#
# Compressibility (1/GPa) = 0.04262981
#
# Stress axis : x y z
#
# Youngs Moduli (GPa) = 88.63256 112.88474 29.67370
#
# Poissons Ratio (x) = 0.12899 0.02632
# Poissons Ratio (y) = 0.10128 0.10611
# Poissons Ratio (z) = 0.07863 0.40365
#
# Static dielectric constant tensor:
#      x y z
#    x 3.914820 0.000000 0.000000 
#    y 0.000000 4.164780 0.000000 
#    z 0.000000 0.000000 3.237840 
# 
# 
# High freq. dielectric constant tensor:
#      x y z
#    x 1.855420 0.000000 0.000000 
#    y 0.000000 1.858880 0.000000 
#    z 0.000000 0.000000 1.758490 
# 
# From -- ./inp_files/35057.got.cif
#   From: 2010.03.12/outbox.cif.g09.slc.cpg/sg66_18_cif.got.tgz:35057.got - 2010.04.10 21:57:39.
