data_PCOD8277423
_publ_section_title
;
Structure prediction by ZEFSAII (Michael W. Deem and Ramdas Pophale) SiO2 
 PCOD8277423
Probable space group: C C C M
;
_chemical_formula_sum "Si O2"
_cell_formula_units_Z 104
_cell_length_a 8.928930
_cell_length_b 26.938453
_cell_length_c 20.144195
_cell_angle_alpha 90.000000
_cell_angle_beta 90.000000
_cell_angle_gamma 90.000000
_cell_volume 4845.314671
_symmetry_space_group_name_H-M "C C C M"
_symmetry_group_IT_number 66
_symmetry_cell_setting 'orthorhombic'
loop_
_space_group_symop_operation_xyz
x,y,z
-x,-y,z
x,-y,1/2-z
-x,y,1/2-z
-x,-y,-z
x,y,-z
-x,y,1/2+z
x,-y,1/2+z
1/2+x,1/2+y,z
1/2-x,1/2-y,z
1/2+x,1/2-y,1/2-z
1/2-x,1/2+y,1/2-z
1/2-x,1/2-y,-z
1/2+x,1/2+y,-z
1/2-x,1/2+y,1/2+z
1/2+x,1/2-y,1/2+z
loop_
_atom_site_type_symbol
_atom_site_label
_atom_site_fract_x
_atom_site_fract_y
_atom_site_fract_z
Si Si1 0.236964 0.500000 0.250000
Si Si2 0.924397 0.744660 0.180698
Si Si3 0.578863 0.866855 0.819036
Si Si4 0.395882 0.409121 0.190621
Si Si5 0.090837 0.546279 0.873618
Si Si6 0.124457 0.210954 0.576117
Si Si7 0.374688 0.401561 0.425291
O O1 0.339457 0.464455 0.205715
O O2 0.134383 0.532558 0.201699
O O3 0.750000 0.750000 0.190775
O O4 0.964166 0.688507 0.158730
O O5 0.000000 0.759256 0.250000
O O6 0.980290 0.781325 0.122782
O O7 0.500000 0.879234 0.750000
O O8 0.758672 0.870931 0.814609
O O9 0.519279 0.906339 0.872836
O O10 0.500000 0.389010 0.250000
O O11 0.487536 0.413272 0.122667
O O12 0.238508 0.560204 0.914698
O O13 0.000000 0.500000 0.906404
O O14 0.077299 0.220723 0.500000
O O15 0.250000 0.250000 0.599261
O O16 0.183377 0.154824 0.586249
O O17 0.434661 0.408202 0.500000
#
# Coordination Sequence:
#
# PCOD8277423 Si02
#       7
#     8  16  16  16  16  16  16
#     4  12  22  38  66  98 118 164 220 264 302 380
#     4  11  24  39  61  96 133 165 211 268 333 392
#     4  11  21  38  63  97 129 166 212 273 328 384
#     4  12  23  38  68  94 128 168 218 264 324 384
#     4  12  22  40  67  94 130 168 217 268 318 383
#     4  10  22  44  69  90 122 172 222 270 323 392
#     4  11  26  44  63  95 133 171 218 268 330 394
#
# _framework density 21.464034999999999
#
# number of rings (size 3 to 8) (size 9 to 14) (size 15 to 20)
#    0.000    0.769    4.615    2.769    0.000    5.538 
#    0.000    3.077    0.000    0.000    0.000    0.000 
#    0.000    0.000    0.000    0.000    0.000    0.000 
#
# Total GULP energy -644991.283890 kJ/mol
# GULP energy per Si atom -12403.678536 kJ/mol
# Density = 2.141518 g / cm^3
# Si number density = 21.464035 Si / 1000 Ang^3
#
#
#
# Elastic Constant Matrix: (Units=GPa)
#
#
# Indices 1 2 3 4 5 6 
#
# 1 128.1324 18.7167 54.3254 0.0000 0.0000 0.0000
# 2 18.7167 96.9793 34.4550 0.0000 0.0000 0.0000
# 3 54.3254 34.4550 105.9405 0.0000 0.0000 0.0000
# 4 0.0000 0.0000 0.0000 28.8050 0.0000 0.0000
# 5 0.0000 0.0000 0.0000 0.0000 22.6385 0.0000
# 6 0.0000 0.0000 0.0000 0.0000 0.0000 33.8486
#
#
#
# Elastic Compliance Matrix: (Units=1/GPa)
#
#
# Indices 1 2 3 4 5 6 
#
# 1 0.009974 -0.000122 -0.005075 0.000000 0.000000 0.000000
# 2 -0.000122 0.011660 -0.003730 0.000000 0.000000 0.000000
# 3 -0.005075 -0.003730 0.013255 0.000000 0.000000 0.000000
# 4 0.000000 0.000000 0.000000 0.034716 0.000000 0.000000
# 5 0.000000 0.000000 0.000000 0.000000 0.044172 0.000000
# 6 0.000000 0.000000 0.000000 0.000000 0.000000 0.029543
#
#
# Mechanical properties :
#
#
# Convention : Reuss Voigt Hill
#
# Bulk Modulus (GPa) = 58.70048 60.67181 59.68615
# Shear Modulus (GPa) = 29.96667 31.96211 30.96439
#
# Velocity S-wave (km/s) = 3.74054 3.86307 3.80230
# Velocity P-wave (km/s) = 6.78699 6.94449 6.86619
#
# Compressibility (1/GPa) = 0.01703564
#
# Stress axis : x y z
#
# Youngs Moduli (GPa) = 100.26196 85.76257 75.44541
#
# Poissons Ratio (x) = 0.01046 0.38288
# Poissons Ratio (y) = 0.01222 0.28139
# Poissons Ratio (z) = 0.50882 0.31987
#
# Static dielectric constant tensor:
#      x y z
#    x 3.889690 0.000000 0.000000 
#    y 0.000000 4.227770 0.000000 
#    z 0.000000 0.000000 3.596990 
# 
# 
# High freq. dielectric constant tensor:
#      x y z
#    x 1.847130 0.000000 0.000000 
#    y 0.000000 1.861000 0.000000 
#    z 0.000000 0.000000 1.816160 
# 
# From -- ./inp_files/47394.got.cif
#   From: 2010.03.12/outbox.cif.g09.slc.cpg/sg66_24_cif.got.tgz:47394.got - 2010.04.10 21:57:39.
