data_PCOD8277975
_publ_section_title
;
Structure prediction by ZEFSAII (Michael W. Deem and Ramdas Pophale) SiO2 
 PCOD8277975
Probable space group: C M M A
;
_chemical_formula_sum "Si O2"
_cell_formula_units_Z 96
_cell_length_a 23.618390
_cell_length_b 8.861569
_cell_length_c 25.939675
_cell_angle_alpha 90.000000
_cell_angle_beta 90.000000
_cell_angle_gamma 90.000000
_cell_volume 5429.070028
_symmetry_space_group_name_H-M "C M M A"
_symmetry_group_IT_number 67
_symmetry_cell_setting 'orthorhombic'
loop_
_space_group_symop_operation_xyz
x,y,z
-x,1/2-y,z
x,-y,-z
-x,1/2+y,-z
-x,-y,-z
x,1/2+y,-z
-x,y,z
x,1/2-y,z
1/2+x,1/2+y,z
1/2-x,-y,z
1/2+x,1/2-y,-z
1/2-x,y,-z
1/2-x,1/2-y,-z
1/2+x,y,-z
1/2-x,1/2+y,z
1/2+x,-y,z
loop_
_atom_site_type_symbol
_atom_site_label
_atom_site_fract_x
_atom_site_fract_y
_atom_site_fract_z
Si Si1 0.500000 0.426643 0.317118
Si Si2 0.611930 0.572399 0.740065
Si Si3 0.500000 0.573612 0.425159
Si Si4 0.876216 0.069805 0.448272
Si Si5 0.432608 0.419608 0.949225
Si Si6 0.565239 0.428869 0.154983
Si Si7 0.311499 0.069082 0.351603
O O1 0.500000 0.250000 0.330123
O O2 0.554028 0.478426 0.285610
O O3 0.500000 0.521220 0.367630
O O4 0.616228 0.750000 0.742304
O O5 0.607368 0.512400 0.799141
O O6 0.663509 0.513750 0.704085
O O7 0.500000 0.750000 0.425419
O O8 0.442094 0.517618 0.451658
O O9 0.867644 0.250000 0.446464
O O10 0.847511 0.000000 0.500000
O O11 0.849336 0.995431 0.397733
O O12 0.500000 0.425387 0.950882
O O13 0.409656 0.250000 0.948596
O O14 0.410761 0.501892 0.897804
O O15 0.407496 0.500000 0.000000
O O16 0.500000 0.479172 0.165575
O O17 0.567406 0.250000 0.150225
O O18 0.310137 0.250000 0.355719
O O19 0.250000 0.000000 0.357039
#
# Coordination Sequence:
#
# PCOD8277975 Si02
#       7
#     8  16   8  16  16  16  16
#     4  10  16  29  53  78 100 131 168 201 243 305
#     4   9  17  30  52  77 100 128 166 206 248 300
#     4  10  21  35  53  82 114 135 159 199 248 297
#     4  11  23  39  58  82 108 135 166 203 248 300
#     4   9  16  25  36  55  87 129 171 205 239 281
#     4   9  15  25  43  67  94 125 162 202 242 288
#     4  11  23  40  59  78 101 133 171 212 255 302
#
# _framework density 17.682586000000001
#
# number of rings (size 3 to 8) (size 9 to 14) (size 15 to 20)
#    0.000    2.167    2.500    1.750    0.000    3.000 
#    0.000    4.167    0.000    0.000    0.000    0.000 
#    0.000    0.667    0.000    7.667    0.000    2.667 
#
# Total GULP energy -594759.088276 kJ/mol
# GULP energy per Si atom -12390.814339 kJ/mol
# Density = 1.764234 g / cm^3
# Si number density = 17.682586 Si / 1000 Ang^3
#
#
#
# Elastic Constant Matrix: (Units=GPa)
#
#
# Indices 1 2 3 4 5 6 
#
# 1 74.6397 25.4282 39.6112 0.0000 0.0000 0.0000
# 2 25.4282 69.7508 51.9098 0.0000 0.0000 0.0000
# 3 39.6112 51.9098 174.9594 0.0000 0.0000 0.0000
# 4 0.0000 0.0000 0.0000 29.9476 0.0000 0.0000
# 5 0.0000 0.0000 0.0000 0.0000 13.9154 0.0000
# 6 0.0000 0.0000 0.0000 0.0000 0.0000 12.8984
#
#
#
# Elastic Compliance Matrix: (Units=1/GPa)
#
#
# Indices 1 2 3 4 5 6 
#
# 1 0.016069 -0.004043 -0.002438 0.000000 0.000000 0.000000
# 2 -0.004043 0.019417 -0.004845 0.000000 0.000000 0.000000
# 3 -0.002438 -0.004845 0.007705 0.000000 0.000000 0.000000
# 4 0.000000 0.000000 0.000000 0.033392 0.000000 0.000000
# 5 0.000000 0.000000 0.000000 0.000000 0.071863 0.000000
# 6 0.000000 0.000000 0.000000 0.000000 0.000000 0.077529
#
#
# Mechanical properties :
#
#
# Convention : Reuss Voigt Hill
#
# Bulk Modulus (GPa) = 48.69314 61.47203 55.08259
# Shear Modulus (GPa) = 19.57137 24.84568 22.20852
#
# Velocity S-wave (km/s) = 3.33049 3.75252 3.54779
# Velocity P-wave (km/s) = 6.51051 7.32222 6.92826
#
# Compressibility (1/GPa) = 0.02053677
#
# Stress axis : x y z
#
# Youngs Moduli (GPa) = 62.23052 51.50152 129.78046
#
# Poissons Ratio (x) = 0.20824 0.31646
# Poissons Ratio (y) = 0.25163 0.62885
# Poissons Ratio (z) = 0.15175 0.24955
#
# Static dielectric constant tensor:
#      x y z
#    x 2.850920 0.000000 0.000000 
#    y 0.000000 3.288260 0.000000 
#    z 0.000000 0.000000 3.627530 
# 
# 
# High freq. dielectric constant tensor:
#      x y z
#    x 1.635840 0.000000 0.000000 
#    y 0.000000 1.674210 0.000000 
#    z 0.000000 0.000000 1.702550 
# 
# From -- ./inp_files/42589.got.cif
#   From: 2010.03.12/outbox.cif.g09.slc.cpg/sg67_22_cif.got.tgz:42589.got - 2010.04.10 22:41:39.
