data_PCOD8277852
_publ_section_title
;
Structure prediction by ZEFSAII (Michael W. Deem and Ramdas Pophale) SiO2 
 PCOD8277852
Probable space group: C C C M
;
_chemical_formula_sum "Si O2"
_cell_formula_units_Z 36
_cell_length_a 22.820986
_cell_length_b 7.232175
_cell_length_c 9.157942
_cell_angle_alpha 90.000000
_cell_angle_beta 90.000000
_cell_angle_gamma 90.000000
_cell_volume 1511.475875
_symmetry_space_group_name_H-M "C C C M"
_symmetry_group_IT_number 66
_symmetry_cell_setting 'orthorhombic'
loop_
_space_group_symop_operation_xyz
x,y,z
-x,-y,z
x,-y,1/2-z
-x,y,1/2-z
-x,-y,-z
x,y,-z
-x,y,1/2+z
x,-y,1/2+z
1/2+x,1/2+y,z
1/2-x,1/2-y,z
1/2+x,1/2-y,1/2-z
1/2-x,1/2+y,1/2-z
1/2-x,1/2-y,-z
1/2+x,1/2+y,-z
1/2-x,1/2+y,1/2+z
1/2+x,1/2-y,1/2+z
loop_
_atom_site_type_symbol
_atom_site_label
_atom_site_fract_x
_atom_site_fract_y
_atom_site_fract_z
Si Si1 0.922495 0.167062 0.665387
Si Si2 0.315651 0.189417 0.328326
Si Si3 0.000000 0.500000 0.750000
O O1 0.909542 0.107219 0.500000
O O2 0.861757 0.173527 0.755213
O O3 0.958546 0.360726 0.658660
O O4 0.956772 0.000000 0.750000
O O5 0.327510 0.171794 0.500000
O O6 0.250000 0.250000 0.292941
O O7 0.328532 0.000000 0.250000
#
# Coordination Sequence:
#
# PCOD8277852 Si02
#       3
#    16  16   4
#     4  12  27  47  74 107 147 192 245 301 363 433
#     4  11  24  43  70 105 145 189 240 298 363 431
#     4  12  28  48  76 108 146 196 248 302 362 430
#
# _framework density 23.817782000000001
#
# number of rings (size 3 to 8) (size 9 to 14) (size 15 to 20)
#    0.000    0.444    2.222    5.333    0.000   14.222 
#    0.000    0.000    0.000    0.000    0.000    0.000 
#    0.000    0.000    0.000    0.000    0.000    0.000 
#
# Total GULP energy -223069.526248 kJ/mol
# GULP energy per Si atom -12392.751458 kJ/mol
# Density = 2.376357 g / cm^3
# Si number density = 23.817782 Si / 1000 Ang^3
#
#
#
# Elastic Constant Matrix: (Units=GPa)
#
#
# Indices 1 2 3 4 5 6 
#
# 1 139.5549 34.4721 69.2359 0.0000 0.0000 0.0000
# 2 34.4721 154.7879 53.5143 0.0000 0.0000 0.0000
# 3 69.2359 53.5143 186.0155 0.0000 0.0000 0.0000
# 4 0.0000 0.0000 0.0000 36.4446 0.0000 0.0000
# 5 0.0000 0.0000 0.0000 0.0000 -3.6858 0.0000
# 6 0.0000 0.0000 0.0000 0.0000 0.0000 20.7064
#
#
#
# Elastic Compliance Matrix: (Units=1/GPa)
#
#
# Indices 1 2 3 4 5 6 
#
# 1 0.008907 -0.000930 -0.003048 0.000000 0.000000 0.000000
# 2 -0.000930 0.007271 -0.001746 0.000000 0.000000 0.000000
# 3 -0.003048 -0.001746 0.007013 0.000000 0.000000 0.000000
# 4 0.000000 0.000000 0.000000 0.027439 0.000000 0.000000
# 5 0.000000 0.000000 0.000000 0.000000 -0.271311 0.000000
# 6 0.000000 0.000000 0.000000 0.000000 0.000000 0.048294
#
#
# Mechanical properties :
#
#
# Convention : Reuss Voigt Hill
#
# Bulk Modulus (GPa) = 85.14946 88.31142 86.73044
# Shear Modulus (GPa) = -31.84205 32.23544 0.19670
#
# Velocity S-wave (km/s) = -3.66033 3.68288 0.28769
# Velocity P-wave (km/s) = 4.23839 7.43258 6.05009
#
# Compressibility (1/GPa) = 0.01174406
#
# Stress axis : x y z
#
# Youngs Moduli (GPa) = 112.26542 137.53102 142.60205
#
# Poissons Ratio (x) = 0.12791 0.43463
# Poissons Ratio (y) = 0.10441 0.24893
# Poissons Ratio (z) = 0.34217 0.24008
#
# Static dielectric constant tensor:
#      x y z
#    x 4.962040 0.000000 0.000000 
#    y 0.000000 4.356920 0.000000 
#    z 0.000000 0.000000 4.047100 
# 
# 
# High freq. dielectric constant tensor:
#      x y z
#    x 1.965590 0.000000 0.000000 
#    y 0.000000 1.966020 0.000000 
#    z 0.000000 0.000000 1.939150 
# 
# From -- ./inp_files/2440.got.cif
#   From: 2010.03.12/outbox.cif.g09.slc.cpg/sg66_2_cif.got.tgz:2440.got - 2010.04.10 21:57:39.
