data_PCOD8277096
_publ_section_title
;
Structure prediction by ZEFSAII (Michael W. Deem and Ramdas Pophale) SiO2 
 PCOD8277096
Probable space group: C C C M
;
_chemical_formula_sum "Si O2"
_cell_formula_units_Z 88
_cell_length_a 12.201724
_cell_length_b 21.288159
_cell_length_c 16.271194
_cell_angle_alpha 90.000000
_cell_angle_beta 90.000000
_cell_angle_gamma 90.000000
_cell_volume 4226.479099
_symmetry_space_group_name_H-M "C C C M"
_symmetry_group_IT_number 66
_symmetry_cell_setting 'orthorhombic'
loop_
_space_group_symop_operation_xyz
x,y,z
-x,-y,z
x,-y,1/2-z
-x,y,1/2-z
-x,-y,-z
x,y,-z
-x,y,1/2+z
x,-y,1/2+z
1/2+x,1/2+y,z
1/2-x,1/2-y,z
1/2+x,1/2-y,1/2-z
1/2-x,1/2+y,1/2-z
1/2-x,1/2-y,-z
1/2+x,1/2+y,-z
1/2-x,1/2+y,1/2+z
1/2+x,1/2-y,1/2+z
loop_
_atom_site_type_symbol
_atom_site_label
_atom_site_fract_x
_atom_site_fract_y
_atom_site_fract_z
Si Si1 0.536738 0.265445 0.902777
Si Si2 0.835931 0.992181 0.595379
Si Si3 0.901752 0.664372 0.811174
Si Si4 0.750000 0.250000 0.207235
Si Si5 0.485010 0.599322 0.597458
Si Si6 0.612566 0.976472 0.157764
O O1 0.452137 0.210313 0.880230
O O2 0.649697 0.267488 0.852240
O O3 0.475189 0.328948 0.873439
O O4 0.563017 0.262556 0.000000
O O5 0.859291 0.994317 0.500000
O O6 0.708329 0.985942 0.612566
O O7 0.884933 0.057309 0.632905
O O8 0.901155 0.931814 0.630519
O O9 0.795286 0.693991 0.765980
O O10 0.868525 0.598227 0.852259
O O11 0.000000 0.648018 0.750000
O O12 0.484140 0.600045 0.500000
O O13 0.500000 0.000000 0.115587
O O14 0.614605 0.000000 0.250000
#
# Coordination Sequence:
#
# PCOD8277096 Si02
#       6
#    16  16  16   8  16  16
#     4  10  21  38  63  90 119 157 206 258 305 366
#     4   9  19  36  60  86 117 153 194 247 300 357
#     4  10  22  41  57  84 120 161 197 249 307 361
#     4  10  23  38  61  86 122 160 200 248 313 370
#     4   8  17  36  58  88 120 146 185 247 311 352
#     4  11  23  39  59  79 118 161 204 245 295 360
#
# _framework density 20.821113
#
# number of rings (size 3 to 8) (size 9 to 14) (size 15 to 20)
#    0.000    2.364    1.818    1.364    5.091    1.091 
#    0.000    4.091    0.000    0.000    0.000    0.000 
#    0.000    0.000    0.000    0.000    0.000    0.000 
#
# Total GULP energy -545165.921282 kJ/mol
# GULP energy per Si atom -12390.134575 kJ/mol
# Density = 2.077372 g / cm^3
# Si number density = 20.821113 Si / 1000 Ang^3
#
#
#
# Elastic Constant Matrix: (Units=GPa)
#
#
# Indices 1 2 3 4 5 6 
#
# 1 107.6299 31.4164 18.2770 0.0000 0.0000 0.0000
# 2 31.4164 123.7275 22.1093 0.0000 0.0000 0.0000
# 3 18.2770 22.1093 39.0061 0.0000 0.0000 0.0000
# 4 0.0000 0.0000 0.0000 20.6856 0.0000 0.0000
# 5 0.0000 0.0000 0.0000 0.0000 29.9062 0.0000
# 6 0.0000 0.0000 0.0000 0.0000 0.0000 37.1692
#
#
#
# Elastic Compliance Matrix: (Units=1/GPa)
#
#
# Indices 1 2 3 4 5 6 
#
# 1 0.010518 -0.001992 -0.003799 0.000000 0.000000 0.000000
# 2 -0.001992 0.009370 -0.004378 0.000000 0.000000 0.000000
# 3 -0.003799 -0.004378 0.029899 0.000000 0.000000 0.000000
# 4 0.000000 0.000000 0.000000 0.048343 0.000000 0.000000
# 5 0.000000 0.000000 0.000000 0.000000 0.033438 0.000000
# 6 0.000000 0.000000 0.000000 0.000000 0.000000 0.026904
#
#
# Mechanical properties :
#
#
# Convention : Reuss Voigt Hill
#
# Bulk Modulus (GPa) = 33.95734 45.99654 39.97694
# Shear Modulus (GPa) = 26.50751 30.78957 28.64854
#
# Velocity S-wave (km/s) = 3.57193 3.84965 3.71339
# Velocity P-wave (km/s) = 5.77547 6.47294 6.13413
#
# Compressibility (1/GPa) = 0.02944872
#
# Stress axis : x y z
#
# Youngs Moduli (GPa) = 95.07845 106.71991 33.44619
#
# Poissons Ratio (x) = 0.21255 0.12707
# Poissons Ratio (y) = 0.18937 0.14643
# Poissons Ratio (z) = 0.36123 0.46722
#
# Static dielectric constant tensor:
#      x y z
#    x 4.308530 0.000000 0.000000 
#    y 0.000000 4.099750 0.000000 
#    z 0.000000 0.000000 3.449970 
# 
# 
# High freq. dielectric constant tensor:
#      x y z
#    x 1.820520 0.000000 0.000000 
#    y 0.000000 1.824220 0.000000 
#    z 0.000000 0.000000 1.786280 
# 
# From -- ./inp_files/38673.got.cif
#   From: 2010.03.12/outbox.cif.g09.slc.cpg/sg66_20_cif.got.tgz:38673.got - 2010.04.10 21:57:39.
