data_PCOD8277698
_publ_section_title
;
Structure prediction by ZEFSAII (Michael W. Deem and Ramdas Pophale) SiO2 
 PCOD8277698
Probable space group: C C C M
;
_chemical_formula_sum "Si O2"
_cell_formula_units_Z 88
_cell_length_a 13.311051
_cell_length_b 15.511802
_cell_length_c 20.869989
_cell_angle_alpha 90.000000
_cell_angle_beta 90.000000
_cell_angle_gamma 90.000000
_cell_volume 4309.201676
_symmetry_space_group_name_H-M "C C C M"
_symmetry_group_IT_number 66
_symmetry_cell_setting 'orthorhombic'
loop_
_space_group_symop_operation_xyz
x,y,z
-x,-y,z
x,-y,1/2-z
-x,y,1/2-z
-x,-y,-z
x,y,-z
-x,y,1/2+z
x,-y,1/2+z
1/2+x,1/2+y,z
1/2-x,1/2-y,z
1/2+x,1/2-y,1/2-z
1/2-x,1/2+y,1/2-z
1/2-x,1/2-y,-z
1/2+x,1/2+y,-z
1/2-x,1/2+y,1/2+z
1/2+x,1/2-y,1/2+z
loop_
_atom_site_type_symbol
_atom_site_label
_atom_site_fract_x
_atom_site_fract_y
_atom_site_fract_z
Si Si1 0.008181 0.223808 0.500000
Si Si2 0.746442 0.500000 0.750000
Si Si3 0.407408 0.875819 0.297063
Si Si4 0.620533 0.896090 0.500000
Si Si5 0.847921 0.937444 0.500000
Si Si6 0.000000 0.500000 0.602500
Si Si7 0.113900 0.024540 0.133506
Si Si8 0.359066 0.722483 0.616683
O O1 0.940800 0.236481 0.562152
O O2 0.092250 0.296375 0.500000
O O3 0.061594 0.131123 0.500000
O O4 0.813325 0.414538 0.741026
O O5 0.679948 0.477601 0.812429
O O6 0.500000 0.870633 0.250000
O O7 0.383221 0.780647 0.321684
O O8 0.430218 0.937887 0.356380
O O9 0.740280 0.892949 0.500000
O O10 0.577797 0.944036 0.561874
O O11 0.856445 0.997159 0.437926
O O12 0.137263 0.125196 0.140987
O O13 0.000000 0.000000 0.148225
O O14 0.250000 0.750000 0.589383
#
# Coordination Sequence:
#
# PCOD8277698 Si02
#       8
#     8   8  16   8   8   8  16  16
#     4  12  24  47  70 101 145 179 231 310 347 427
#     4  12  24  44  74 102 138 190 240 294 354 444
#     4  12  24  43  71  98 139 180 229 296 362 415
#     4  11  25  38  70 106 138 175 239 299 363 426
#     4  12  26  46  76 101 143 197 238 287 377 434
#     4  11  21  42  68 100 137 183 232 298 360 424
#     4  12  26  48  73 101 146 192 240 291 357 431
#     4  12  26  45  70 105 136 180 243 288 349 428
#
# _framework density 20.421417000000002
#
# number of rings (size 3 to 8) (size 9 to 14) (size 15 to 20)
#    0.000    0.182    7.273    2.727    0.000    1.455 
#    0.000    0.000    4.000    0.000    0.000    0.000 
#    0.000    0.000    0.000    0.000    0.000    0.000 
#
# Total GULP energy -545883.198981 kJ/mol
# GULP energy per Si atom -12406.436340 kJ/mol
# Density = 2.037494 g / cm^3
# Si number density = 20.421417 Si / 1000 Ang^3
#
#
#
# Elastic Constant Matrix: (Units=GPa)
#
#
# Indices 1 2 3 4 5 6 
#
# 1 154.6247 51.1306 66.8558 0.0000 0.0000 0.0000
# 2 51.1306 140.1527 63.0773 0.0000 0.0000 0.0000
# 3 66.8558 63.0773 148.8211 0.0000 0.0000 0.0000
# 4 0.0000 0.0000 0.0000 21.5816 0.0000 0.0000
# 5 0.0000 0.0000 0.0000 0.0000 -11.2212 0.0000
# 6 0.0000 0.0000 0.0000 0.0000 0.0000 31.2817
#
#
#
# Elastic Compliance Matrix: (Units=1/GPa)
#
#
# Indices 1 2 3 4 5 6 
#
# 1 0.008333 -0.001675 -0.003034 0.000000 0.000000 0.000000
# 2 -0.001675 0.009154 -0.003127 0.000000 0.000000 0.000000
# 3 -0.003034 -0.003127 0.009408 0.000000 0.000000 0.000000
# 4 0.000000 0.000000 0.000000 0.046336 0.000000 0.000000
# 5 0.000000 0.000000 0.000000 0.000000 -0.089117 0.000000
# 6 0.000000 0.000000 0.000000 0.000000 0.000000 0.031968
#
#
# Mechanical properties :
#
#
# Convention : Reuss Voigt Hill
#
# Bulk Modulus (GPa) = 89.10400 89.52511 89.31456
# Shear Modulus (GPa) = 140.87609 25.83075 83.35342
#
# Velocity S-wave (km/s) = 8.31470 3.56038 6.39572
# Velocity P-wave (km/s) = 11.65789 7.79973 9.91822
#
# Compressibility (1/GPa) = 0.01122284
#
# Stress axis : x y z
#
# Youngs Moduli (GPa) = 120.00970 109.24746 106.29492
#
# Poissons Ratio (x) = 0.18295 0.32245
# Poissons Ratio (y) = 0.20097 0.33242
# Poissons Ratio (z) = 0.36405 0.34166
#
# Static dielectric constant tensor:
#      x y z
#    x 3.884390 0.000000 0.000000 
#    y 0.000000 3.771790 0.000000 
#    z 0.000000 0.000000 3.780390 
# 
# 
# High freq. dielectric constant tensor:
#      x y z
#    x 1.818810 0.000000 0.000000 
#    y 0.000000 1.801780 0.000000 
#    z 0.000000 0.000000 1.807050 
# 
# From -- ./inp_files/56827.got.cif
#   From: 2010.03.12/outbox.cif.g09.slc.cpg/sg66_29_cif.got.tgz:56827.got - 2010.04.10 21:57:39.
