data_PCOD8277581
_publ_section_title
;
Structure prediction by ZEFSAII (Michael W. Deem and Ramdas Pophale) SiO2 
 PCOD8277581
Probable space group: C C C M
;
_chemical_formula_sum "Si O2"
_cell_formula_units_Z 64
_cell_length_a 11.549490
_cell_length_b 19.892800
_cell_length_c 14.740463
_cell_angle_alpha 90.000000
_cell_angle_beta 90.000000
_cell_angle_gamma 90.000000
_cell_volume 3386.646354
_symmetry_space_group_name_H-M "C C C M"
_symmetry_group_IT_number 66
_symmetry_cell_setting 'orthorhombic'
loop_
_space_group_symop_operation_xyz
x,y,z
-x,-y,z
x,-y,1/2-z
-x,y,1/2-z
-x,-y,-z
x,y,-z
-x,y,1/2+z
x,-y,1/2+z
1/2+x,1/2+y,z
1/2-x,1/2-y,z
1/2+x,1/2-y,1/2-z
1/2-x,1/2+y,1/2-z
1/2-x,1/2-y,-z
1/2+x,1/2+y,-z
1/2-x,1/2+y,1/2+z
1/2+x,1/2-y,1/2+z
loop_
_atom_site_type_symbol
_atom_site_label
_atom_site_fract_x
_atom_site_fract_y
_atom_site_fract_z
Si Si1 0.064450 0.739244 0.899440
Si Si2 0.157549 0.193077 0.159757
Si Si3 0.841500 0.941748 0.500000
Si Si4 0.109548 0.093796 0.000000
Si Si5 0.736574 0.347689 0.145925
O O1 0.127571 0.674211 0.854728
O O2 0.161746 0.795802 0.912533
O O3 0.963419 0.766554 0.834170
O O4 0.014741 0.722378 0.000000
O O5 0.250000 0.250000 0.135076
O O6 0.152312 0.134580 0.086593
O O7 0.187515 0.153622 0.252096
O O8 0.777658 0.918274 0.406895
O O9 0.972098 0.914509 0.500000
O O10 0.830403 0.021658 0.500000
#
# Coordination Sequence:
#
# PCOD8277581 Si02
#       5
#    16  16   8   8  16
#     4  11  19  35  58  88 116 153 195 242 300 345
#     4  12  23  36  59  91 126 147 192 253 306 349
#     4  11  22  40  58  81 119 162 202 235 286 374
#     4  11  25  37  53  84 126 163 190 235 305 360
#     4  11  20  34  62  85 115 151 197 249 286 348
#
# _framework density 18.897751
#
# number of rings (size 3 to 8) (size 9 to 14) (size 15 to 20)
#    0.000    0.750    8.750    1.875    0.000    1.000 
#    0.000    2.500    0.000    3.000    0.000    3.500 
#    0.000    0.000    0.000    0.000    0.000    0.000 
#
# Total GULP energy -396556.105946 kJ/mol
# GULP energy per Si atom -12392.378311 kJ/mol
# Density = 1.885474 g / cm^3
# Si number density = 18.897751 Si / 1000 Ang^3
#
#
#
# Elastic Constant Matrix: (Units=GPa)
#
#
# Indices 1 2 3 4 5 6 
#
# 1 77.9400 57.1672 48.1262 0.0000 0.0000 0.0000
# 2 57.1672 135.9642 70.5845 0.0000 0.0000 0.0000
# 3 48.1262 70.5845 168.3645 0.0000 0.0000 0.0000
# 4 0.0000 0.0000 0.0000 17.1137 0.0000 0.0000
# 5 0.0000 0.0000 0.0000 0.0000 27.8447 0.0000
# 6 0.0000 0.0000 0.0000 0.0000 0.0000 29.1348
#
#
#
# Elastic Compliance Matrix: (Units=1/GPa)
#
#
# Indices 1 2 3 4 5 6 
#
# 1 0.019486 -0.006776 -0.002729 0.000000 0.000000 0.000000
# 2 -0.006776 0.011757 -0.002992 0.000000 0.000000 0.000000
# 3 -0.002729 -0.002992 0.007974 0.000000 0.000000 0.000000
# 4 0.000000 0.000000 0.000000 0.058433 0.000000 0.000000
# 5 0.000000 0.000000 0.000000 0.000000 0.035913 0.000000
# 6 0.000000 0.000000 0.000000 0.000000 0.000000 0.034323
#
#
# Mechanical properties :
#
#
# Convention : Reuss Voigt Hill
#
# Bulk Modulus (GPa) = 70.31242 81.55825 75.93534
# Shear Modulus (GPa) = 25.30085 28.57803 26.93944
#
# Velocity S-wave (km/s) = 3.66297 3.89298 3.77972
# Velocity P-wave (km/s) = 7.42815 7.96608 7.70181
#
# Compressibility (1/GPa) = 0.01422224
#
# Stress axis : x y z
#
# Youngs Moduli (GPa) = 51.31977 85.05356 125.40728
#
# Poissons Ratio (x) = 0.57633 0.34225
# Poissons Ratio (y) = 0.34775 0.37524
# Poissons Ratio (z) = 0.14006 0.25449
#
# Static dielectric constant tensor:
#      x y z
#    x 3.626840 0.000000 0.000000 
#    y 0.000000 3.328380 0.000000 
#    z 0.000000 0.000000 3.451730 
# 
# 
# High freq. dielectric constant tensor:
#      x y z
#    x 1.725600 0.000000 0.000000 
#    y 0.000000 1.697510 0.000000 
#    z 0.000000 0.000000 1.752680 
# 
# From -- ./inp_files/25873.got.cif
#   From: 2010.03.12/outbox.cif.g09.slc.cpg/sg66_13_cif.got.tgz:25873.got - 2010.04.10 21:57:39.
