data_PCOD8277107
_publ_section_title
;
Structure prediction by ZEFSAII (Michael W. Deem and Ramdas Pophale) SiO2 
 PCOD8277107
Probable space group: C C C M
;
_chemical_formula_sum "Si O2"
_cell_formula_units_Z 68
_cell_length_a 5.347391
_cell_length_b 25.880755
_cell_length_c 27.208941
_cell_angle_alpha 90.000000
_cell_angle_beta 90.000000
_cell_angle_gamma 90.000000
_cell_volume 3765.568230
_symmetry_space_group_name_H-M "C C C M"
_symmetry_group_IT_number 66
_symmetry_cell_setting 'orthorhombic'
loop_
_space_group_symop_operation_xyz
x,y,z
-x,-y,z
x,-y,1/2-z
-x,y,1/2-z
-x,-y,-z
x,y,-z
-x,y,1/2+z
x,-y,1/2+z
1/2+x,1/2+y,z
1/2-x,1/2-y,z
1/2+x,1/2-y,1/2-z
1/2-x,1/2+y,1/2-z
1/2-x,1/2-y,-z
1/2+x,1/2+y,-z
1/2-x,1/2+y,1/2+z
1/2+x,1/2-y,1/2+z
loop_
_atom_site_type_symbol
_atom_site_label
_atom_site_fract_x
_atom_site_fract_y
_atom_site_fract_z
Si Si1 0.500000 0.500000 0.250000
Si Si2 0.998881 0.281852 0.556750
Si Si3 0.892589 0.555325 0.301509
Si Si4 0.032272 0.941118 0.442617
Si Si5 0.534238 0.107853 0.900878
O O1 0.613134 0.540626 0.288338
O O2 0.988526 0.299575 0.500000
O O3 0.750000 0.250000 0.570217
O O4 0.250000 0.250000 0.567363
O O5 0.003145 0.331440 0.591441
O O6 0.918065 0.598254 0.343243
O O7 0.000000 0.500000 0.318501
O O8 0.000000 0.576472 0.250000
O O9 0.085234 0.935999 0.500000
O O10 0.276622 0.919450 0.415858
O O11 0.775979 0.911311 0.430808
O O12 0.000000 0.000000 0.425853
#
# Coordination Sequence:
#
# PCOD8277107 Si02
#       5
#     4  16  16  16  16
#     4   8  18  36  56  78 122 152 190 236 278 332
#     4  10  21  39  59  81 111 148 197 251 291 335
#     4   9  20  35  56  85 117 151 192 236 282 345
#     4  11  23  36  52  84 124 155 186 227 281 358
#     4  12  23  36  62  84 113 158 198 235 294 346
#
# _framework density 18.058363
#
# number of rings (size 3 to 8) (size 9 to 14) (size 15 to 20)
#    0.000    1.882    0.000    5.647    8.235    3.765 
#    0.000    0.000    0.000    1.412    0.000    0.000 
#    0.000    0.000    0.000    0.000    0.000    0.000 
#
# Total GULP energy -421208.083564 kJ/mol
# GULP energy per Si atom -12388.473046 kJ/mol
# Density = 1.801726 g / cm^3
# Si number density = 18.058363 Si / 1000 Ang^3
#
#
#
# Elastic Constant Matrix: (Units=GPa)
#
#
# Indices 1 2 3 4 5 6 
#
# 1 151.4480 63.7369 38.8493 0.0000 0.0000 0.0000
# 2 63.7369 133.6657 78.9333 0.0000 0.0000 0.0000
# 3 38.8493 78.9333 106.1124 0.0000 0.0000 0.0000
# 4 0.0000 0.0000 0.0000 33.5123 0.0000 0.0000
# 5 0.0000 0.0000 0.0000 0.0000 -62.0712 0.0000
# 6 0.0000 0.0000 0.0000 0.0000 0.0000 31.7387
#
#
#
# Elastic Compliance Matrix: (Units=1/GPa)
#
#
# Indices 1 2 3 4 5 6 
#
# 1 0.008262 -0.003840 -0.000168 0.000000 0.000000 0.000000
# 2 -0.003840 0.015127 -0.009847 0.000000 0.000000 0.000000
# 3 -0.000168 -0.009847 0.016810 0.000000 0.000000 0.000000
# 4 0.000000 0.000000 0.000000 0.029840 0.000000 0.000000
# 5 0.000000 0.000000 0.000000 0.000000 -0.016111 0.000000
# 6 0.000000 0.000000 0.000000 0.000000 0.000000 0.031507
#
#
# Mechanical properties :
#
#
# Convention : Reuss Voigt Hill
#
# Bulk Modulus (GPa) = 80.06912 83.80723 81.93818
# Shear Modulus (GPa) = 42.62208 14.61640 28.61924
#
# Velocity S-wave (km/s) = 4.86350 2.84808 3.98530
# Velocity P-wave (km/s) = 8.71628 7.57134 8.16391
#
# Compressibility (1/GPa) = 0.01248921
#
# Stress axis : x y z
#
# Youngs Moduli (GPa) = 121.03121 66.10530 59.48796
#
# Poissons Ratio (x) = 0.25388 0.01000
# Poissons Ratio (y) = 0.46482 0.58576
# Poissons Ratio (z) = 0.02035 0.65092
#
# Static dielectric constant tensor:
#      x y z
#    x 3.666150 0.000000 0.000000 
#    y 0.000000 3.135870 0.000000 
#    z 0.000000 0.000000 1.082940 
# 
# 
# High freq. dielectric constant tensor:
#      x y z
#    x 1.727410 0.000000 0.000000 
#    y 0.000000 1.677600 0.000000 
#    z 0.000000 0.000000 1.691480 
# 
# From -- ./inp_files/61325.got.cif
#   From: 2010.03.12/outbox.cif.g09.slc.cpg/sg66_31_cif.got.tgz:61325.got - 2010.04.10 21:57:39.
