data_PCOD8277849
_publ_section_title
;
Structure prediction by ZEFSAII (Michael W. Deem and Ramdas Pophale) SiO2 
 PCOD8277849
Probable space group: C C C M
;
_chemical_formula_sum "Si O2"
_cell_formula_units_Z 88
_cell_length_a 11.063994
_cell_length_b 21.521367
_cell_length_c 16.858815
_cell_angle_alpha 90.000000
_cell_angle_beta 90.000000
_cell_angle_gamma 90.000000
_cell_volume 4014.290800
_symmetry_space_group_name_H-M "C C C M"
_symmetry_group_IT_number 66
_symmetry_cell_setting 'orthorhombic'
loop_
_space_group_symop_operation_xyz
x,y,z
-x,-y,z
x,-y,1/2-z
-x,y,1/2-z
-x,-y,-z
x,y,-z
-x,y,1/2+z
x,-y,1/2+z
1/2+x,1/2+y,z
1/2-x,1/2-y,z
1/2+x,1/2-y,1/2-z
1/2-x,1/2+y,1/2-z
1/2-x,1/2-y,-z
1/2+x,1/2+y,-z
1/2-x,1/2+y,1/2+z
1/2+x,1/2-y,1/2+z
loop_
_atom_site_type_symbol
_atom_site_label
_atom_site_fract_x
_atom_site_fract_y
_atom_site_fract_z
Si Si1 0.243246 0.845108 0.000000
Si Si2 0.451109 0.252422 0.500000
Si Si3 0.387676 0.758515 0.651297
Si Si4 0.000000 0.634066 0.250000
Si Si5 0.137166 0.023595 0.091937
Si Si6 0.384839 0.374135 0.210309
Si Si7 0.788017 0.583170 0.340110
O O1 0.332987 0.788608 0.000000
O O2 0.102332 0.822776 0.000000
O O3 0.266011 0.885850 0.923808
O O4 0.528068 0.236508 0.575920
O O5 0.250000 0.750000 0.623478
O O6 0.406839 0.820726 0.703089
O O7 0.421370 0.697372 0.700043
O O8 0.071409 0.588519 0.187961
O O9 0.144918 0.093475 0.125962
O O10 0.232889 0.985859 0.147780
O O11 0.178616 0.023229 0.000000
O O12 0.000000 0.000000 0.099616
O O13 0.500000 0.408395 0.250000
O O14 0.276223 0.378551 0.271324
#
# Coordination Sequence:
#
# PCOD8277849 Si02
#       7
#     8   8  16   8  16  16  16
#     4  11  24  42  70 104 141 195 234 299 359 444
#     4  11  25  40  65 103 147 188 240 287 378 433
#     4  12  25  43  67 100 144 191 239 303 357 439
#     4  12  26  44  73 106 141 200 246 292 370 434
#     4  11  25  43  71 107 142 184 237 301 368 431
#     4  12  24  40  69 106 145 182 238 305 371 427
#     4  12  24  46  71 103 146 188 245 296 357 431
#
# _framework density 21.921679000000001
#
# number of rings (size 3 to 8) (size 9 to 14) (size 15 to 20)
#    0.000    0.364    7.273    1.909    1.273    0.000 
#    0.000    1.818    2.000    1.091    0.000    0.000 
#    0.000    0.000    0.000    0.000    0.000    0.000 
#
# Total GULP energy -545403.888685 kJ/mol
# GULP energy per Si atom -12395.542925 kJ/mol
# Density = 2.187178 g / cm^3
# Si number density = 21.921679 Si / 1000 Ang^3
#
#
#
# Elastic Constant Matrix: (Units=GPa)
#
#
# Indices 1 2 3 4 5 6 
#
# 1 99.2973 33.3242 32.3313 0.0000 0.0000 0.0000
# 2 33.3242 79.4959 33.2955 0.0000 0.0000 0.0000
# 3 32.3313 33.2955 122.2517 0.0000 0.0000 0.0000
# 4 0.0000 0.0000 0.0000 80.2999 0.0000 0.0000
# 5 0.0000 0.0000 0.0000 0.0000 41.0754 0.0000
# 6 0.0000 0.0000 0.0000 0.0000 0.0000 31.9230
#
#
#
# Elastic Compliance Matrix: (Units=1/GPa)
#
#
# Indices 1 2 3 4 5 6 
#
# 1 0.012164 -0.004235 -0.002064 0.000000 0.000000 0.000000
# 2 -0.004235 0.015673 -0.003149 0.000000 0.000000 0.000000
# 3 -0.002064 -0.003149 0.009583 0.000000 0.000000 0.000000
# 4 0.000000 0.000000 0.000000 0.012453 0.000000 0.000000
# 5 0.000000 0.000000 0.000000 0.000000 0.024346 0.000000
# 6 0.000000 0.000000 0.000000 0.000000 0.000000 0.031325
#
#
# Mechanical properties :
#
#
# Convention : Reuss Voigt Hill
#
# Bulk Modulus (GPa) = 53.97756 55.43854 54.70805
# Shear Modulus (GPa) = 38.28079 44.13257 41.20668
#
# Velocity S-wave (km/s) = 4.18335 4.49173 4.34028
# Velocity P-wave (km/s) = 6.92895 7.22808 7.08009
#
# Compressibility (1/GPa) = 0.01852622
#
# Stress axis : x y z
#
# Youngs Moduli (GPa) = 82.21081 63.80312 104.34986
#
# Poissons Ratio (x) = 0.27019 0.21533
# Poissons Ratio (y) = 0.34814 0.32857
# Poissons Ratio (z) = 0.16965 0.20090
#
# Static dielectric constant tensor:
#      x y z
#    x 4.230670 0.000000 0.000000 
#    y 0.000000 4.067200 0.000000 
#    z 0.000000 0.000000 3.750370 
# 
# 
# High freq. dielectric constant tensor:
#      x y z
#    x 1.866800 0.000000 0.000000 
#    y 0.000000 1.853720 0.000000 
#    z 0.000000 0.000000 1.871850 
# 
# From -- ./inp_files/26584.got.cif
#   From: 2010.03.12/outbox.cif.g09.slc.cpg/sg66_14_cif.got.tgz:26584.got - 2010.04.10 21:57:39.
