data_PCOD8277131
_publ_section_title
;
Structure prediction by ZEFSAII (Michael W. Deem and Ramdas Pophale) SiO2 
 PCOD8277131
Probable space group: C C C M
;
_chemical_formula_sum "Si O2"
_cell_formula_units_Z 96
_cell_length_a 21.870371
_cell_length_b 21.903665
_cell_length_c 9.257717
_cell_angle_alpha 90.000000
_cell_angle_beta 90.000000
_cell_angle_gamma 90.000000
_cell_volume 4434.828600
_symmetry_space_group_name_H-M "C C C M"
_symmetry_group_IT_number 66
_symmetry_cell_setting 'orthorhombic'
loop_
_space_group_symop_operation_xyz
x,y,z
-x,-y,z
x,-y,1/2-z
-x,y,1/2-z
-x,-y,-z
x,y,-z
-x,y,1/2+z
x,-y,1/2+z
1/2+x,1/2+y,z
1/2-x,1/2-y,z
1/2+x,1/2-y,1/2-z
1/2-x,1/2+y,1/2-z
1/2-x,1/2-y,-z
1/2+x,1/2+y,-z
1/2-x,1/2+y,1/2+z
1/2+x,1/2-y,1/2+z
loop_
_atom_site_type_symbol
_atom_site_label
_atom_site_fract_x
_atom_site_fract_y
_atom_site_fract_z
Si Si1 0.555849 0.583116 0.500000
Si Si2 0.123015 0.435735 0.173280
Si Si3 0.827771 0.250587 0.161459
Si Si4 0.915712 0.059404 0.500000
Si Si5 0.444533 0.836223 0.835174
Si Si6 0.772441 0.626726 0.662221
Si Si7 0.358569 0.376059 0.737305
O O1 0.482817 0.589565 0.500000
O O2 0.577670 0.513120 0.500000
O O3 0.582297 0.618516 0.636465
O O4 0.119409 0.500000 0.250000
O O5 0.067838 0.396929 0.240735
O O6 0.187793 0.405495 0.215674
O O7 0.118232 0.440594 0.000000
O O8 0.885007 0.295340 0.167936
O O9 0.770575 0.298342 0.193165
O O10 0.843591 0.195420 0.272655
O O11 0.821585 0.221594 0.000000
O O12 0.874595 0.081807 0.629985
O O13 0.500000 0.802747 0.750000
O O14 0.462957 0.851965 0.000000
O O15 0.799688 0.616035 0.500000
O O16 0.704366 0.598678 0.668012
#
# Coordination Sequence:
#
# PCOD8277131 Si02
#       7
#     8  16  16   8  16  16  16
#     4  11  24  48  65  82 124 174 213 264 326 379
#     4  11  23  40  62  90 128 168 211 260 315 366
#     4   9  19  39  64  93 126 164 207 255 313 382
#     4  11  28  42  61  94 128 158 213 278 324 375
#     4  10  21  39  62  91 128 167 213 260 314 369
#     4  10  21  40  65  94 128 164 208 259 317 383
#     4  12  22  42  68  94 118 169 210 254 318 398
#
# _framework density 21.646833999999998
#
# number of rings (size 3 to 8) (size 9 to 14) (size 15 to 20)
#    0.000    1.500    1.667    4.500    1.167    5.667 
#    7.500    2.500    0.000    0.000    0.000    0.000 
#    0.000    0.000    0.000    0.000    0.000    0.000 
#
# Total GULP energy -594900.641648 kJ/mol
# GULP energy per Si atom -12393.763368 kJ/mol
# Density = 2.159756 g / cm^3
# Si number density = 21.646834 Si / 1000 Ang^3
#
#
#
# Elastic Constant Matrix: (Units=GPa)
#
#
# Indices 1 2 3 4 5 6 
#
# 1 86.6556 14.4036 22.9239 0.0000 0.0000 0.0000
# 2 14.4036 77.9654 27.2892 0.0000 0.0000 0.0000
# 3 22.9239 27.2892 128.1770 0.0000 0.0000 0.0000
# 4 0.0000 0.0000 0.0000 4.6612 0.0000 0.0000
# 5 0.0000 0.0000 0.0000 0.0000 37.6352 0.0000
# 6 0.0000 0.0000 0.0000 0.0000 0.0000 12.4529
#
#
#
# Elastic Compliance Matrix: (Units=1/GPa)
#
#
# Indices 1 2 3 4 5 6 
#
# 1 0.012300 -0.001623 -0.001854 0.000000 0.000000 0.000000
# 2 -0.001623 0.014073 -0.002706 0.000000 0.000000 0.000000
# 3 -0.001854 -0.002706 0.008709 0.000000 0.000000 0.000000
# 4 0.000000 0.000000 0.000000 0.214539 0.000000 0.000000
# 5 0.000000 0.000000 0.000000 0.000000 0.026571 0.000000
# 6 0.000000 0.000000 0.000000 0.000000 0.000000 0.080302
#
#
# Mechanical properties :
#
#
# Convention : Reuss Voigt Hill
#
# Bulk Modulus (GPa) = 44.02198 46.89237 45.45717
# Shear Modulus (GPa) = 13.28255 26.16195 19.72225
#
# Velocity S-wave (km/s) = 2.47979 3.48024 3.02170
# Velocity P-wave (km/s) = 5.34600 6.15296 5.76362
#
# Compressibility (1/GPa) = 0.02271593
#
# Stress axis : x y z
#
# Youngs Moduli (GPa) = 81.29889 71.05699 114.81814
#
# Poissons Ratio (x) = 0.11535 0.21290
# Poissons Ratio (y) = 0.13198 0.31068
# Poissons Ratio (z) = 0.15075 0.19227
#
# Static dielectric constant tensor:
#      x y z
#    x 4.357680 0.000000 0.000000 
#    y 0.000000 3.955640 0.000000 
#    z 0.000000 0.000000 3.653440 
# 
# 
# High freq. dielectric constant tensor:
#      x y z
#    x 1.876020 0.000000 0.000000 
#    y 0.000000 1.849720 0.000000 
#    z 0.000000 0.000000 1.831950 
# 
# From -- ./inp_files/9157.got.cif
#   From: 2010.03.12/outbox.cif.g09.slc.cpg/sg66_5_cif.got.tgz:9157.got - 2010.04.10 21:57:39.
