data_PCOD8277837
_publ_section_title
;
Structure prediction by ZEFSAII (Michael W. Deem and Ramdas Pophale) SiO2 
 PCOD8277837
Probable space group: C C C M
;
_chemical_formula_sum "Si O2"
_cell_formula_units_Z 88
_cell_length_a 17.973529
_cell_length_b 15.478460
_cell_length_c 14.631460
_cell_angle_alpha 90.000000
_cell_angle_beta 90.000000
_cell_angle_gamma 90.000000
_cell_volume 4070.509478
_symmetry_space_group_name_H-M "C C C M"
_symmetry_group_IT_number 66
_symmetry_cell_setting 'orthorhombic'
loop_
_space_group_symop_operation_xyz
x,y,z
-x,-y,z
x,-y,1/2-z
-x,y,1/2-z
-x,-y,-z
x,y,-z
-x,y,1/2+z
x,-y,1/2+z
1/2+x,1/2+y,z
1/2-x,1/2-y,z
1/2+x,1/2-y,1/2-z
1/2-x,1/2+y,1/2-z
1/2-x,1/2-y,-z
1/2+x,1/2+y,-z
1/2-x,1/2+y,1/2+z
1/2+x,1/2-y,1/2+z
loop_
_atom_site_type_symbol
_atom_site_label
_atom_site_fract_x
_atom_site_fract_y
_atom_site_fract_z
Si Si1 0.566592 0.646578 0.000000
Si Si2 0.831780 0.286816 0.156995
Si Si3 0.800419 0.485002 0.852505
Si Si4 0.449295 0.075402 0.894603
Si Si5 0.399036 0.317794 0.500000
Si Si6 0.679923 0.506598 0.500000
Si Si7 0.064120 0.753564 0.314121
O O1 0.607869 0.554713 0.000000
O O2 0.588120 0.695226 0.094338
O O3 0.478308 0.634945 0.000000
O O4 0.750000 0.250000 0.141949
O O5 0.831138 0.388258 0.133906
O O6 0.859713 0.263159 0.258437
O O7 0.889773 0.242107 0.088358
O O8 0.774388 0.500000 0.750000
O O9 0.863363 0.552340 0.881397
O O10 0.728361 0.509493 0.910322
O O11 0.471258 0.162119 0.842389
O O12 0.500000 0.000000 0.852066
O O13 0.468418 0.090127 0.000000
O O14 0.339284 0.393080 0.500000
O O15 0.000000 0.798831 0.250000
#
# Coordination Sequence:
#
# PCOD8277837 Si02
#       7
#     8  16  16  16   8   8  16
#     4  12  29  46  74 102 142 190 231 306 361 420
#     4  12  25  43  76 106 137 182 239 297 351 417
#     4  12  25  43  69 105 144 183 230 284 354 430
#     4  11  24  40  66 102 143 183 221 278 354 431
#     4  12  25  50  74 101 135 182 253 302 345 410
#     4  12  28  49  69  97 139 187 242 297 352 409
#     4  12  25  45  68 105 143 182 233 285 357 436
#
# _framework density 21.618915000000001
#
# number of rings (size 3 to 8) (size 9 to 14) (size 15 to 20)
#    0.000    0.182    7.273    2.182    2.545    0.000 
#    0.000    1.364    0.000    0.000    0.000    0.000 
#    0.000    0.000    0.000    0.000    0.000    0.000 
#
# Total GULP energy -545766.786016 kJ/mol
# GULP energy per Si atom -12403.790591 kJ/mol
# Density = 2.156971 g / cm^3
# Si number density = 21.618915 Si / 1000 Ang^3
#
#
#
# Elastic Constant Matrix: (Units=GPa)
#
#
# Indices 1 2 3 4 5 6 
#
# 1 91.9982 15.8991 34.1302 0.0000 0.0000 0.0000
# 2 15.8991 91.9319 39.7781 0.0000 0.0000 0.0000
# 3 34.1302 39.7781 140.8381 0.0000 0.0000 0.0000
# 4 0.0000 0.0000 0.0000 14.5464 0.0000 0.0000
# 5 0.0000 0.0000 0.0000 0.0000 46.9123 0.0000
# 6 0.0000 0.0000 0.0000 0.0000 0.0000 38.5622
#
#
#
# Elastic Compliance Matrix: (Units=1/GPa)
#
#
# Indices 1 2 3 4 5 6 
#
# 1 0.012013 -0.000932 -0.002648 0.000000 0.000000 0.000000
# 2 -0.000932 0.012464 -0.003295 0.000000 0.000000 0.000000
# 3 -0.002648 -0.003295 0.008673 0.000000 0.000000 0.000000
# 4 0.000000 0.000000 0.000000 0.068746 0.000000 0.000000
# 5 0.000000 0.000000 0.000000 0.000000 0.021316 0.000000
# 6 0.000000 0.000000 0.000000 0.000000 0.000000 0.025932
#
#
# Mechanical properties :
#
#
# Convention : Reuss Voigt Hill
#
# Bulk Modulus (GPa) = 51.54330 56.04258 53.79294
# Shear Modulus (GPa) = 29.52285 35.66822 32.59553
#
# Velocity S-wave (km/s) = 3.69942 4.06626 3.88717
# Velocity P-wave (km/s) = 6.49162 6.93002 6.71440
#
# Compressibility (1/GPa) = 0.01940116
#
# Stress axis : x y z
#
# Youngs Moduli (GPa) = 83.24173 80.22913 115.30589
#
# Poissons Ratio (x) = 0.07476 0.30534
# Poissons Ratio (y) = 0.07757 0.37988
# Poissons Ratio (z) = 0.22043 0.26432
#
# Static dielectric constant tensor:
#      x y z
#    x 3.774690 0.000000 0.000000 
#    y 0.000000 3.819540 0.000000 
#    z 0.000000 0.000000 4.195920 
# 
# 
# High freq. dielectric constant tensor:
#      x y z
#    x 1.852310 0.000000 0.000000 
#    y 0.000000 1.838110 0.000000 
#    z 0.000000 0.000000 1.868890 
# 
# From -- ./inp_files/30076.got.cif
#   From: 2010.03.12/outbox.cif.g09.slc.cpg/sg66_16_cif.got.tgz:30076.got - 2010.04.10 21:57:39.
