data_PCOD8277153
_publ_section_title
;
Structure prediction by ZEFSAII (Michael W. Deem and Ramdas Pophale) SiO2 
 PCOD8277153
Probable space group: C C C M
;
_chemical_formula_sum "Si O2"
_cell_formula_units_Z 64
_cell_length_a 10.873525
_cell_length_b 14.222344
_cell_length_c 18.795089
_cell_angle_alpha 90.000000
_cell_angle_beta 90.000000
_cell_angle_gamma 90.000000
_cell_volume 2906.604374
_symmetry_space_group_name_H-M "C C C M"
_symmetry_group_IT_number 66
_symmetry_cell_setting 'orthorhombic'
loop_
_space_group_symop_operation_xyz
x,y,z
-x,-y,z
x,-y,1/2-z
-x,y,1/2-z
-x,-y,-z
x,y,-z
-x,y,1/2+z
x,-y,1/2+z
1/2+x,1/2+y,z
1/2-x,1/2-y,z
1/2+x,1/2-y,1/2-z
1/2-x,1/2+y,1/2-z
1/2-x,1/2-y,-z
1/2+x,1/2+y,-z
1/2-x,1/2+y,1/2+z
1/2+x,1/2-y,1/2+z
loop_
_atom_site_type_symbol
_atom_site_label
_atom_site_fract_x
_atom_site_fract_y
_atom_site_fract_z
Si Si1 0.639688 0.525183 0.000000
Si Si2 0.654104 0.325688 0.619813
Si Si3 0.962956 0.677095 0.359219
Si Si4 0.677540 0.892482 0.768963
Si Si5 0.180622 0.650283 0.000000
O O1 0.500000 0.500000 0.000000
O O2 0.663431 0.583780 0.929086
O O3 0.720517 0.432081 0.000000
O O4 0.750000 0.250000 0.587684
O O5 0.516258 0.282361 0.625874
O O6 0.694510 0.353460 0.699994
O O7 0.858532 0.673352 0.298070
O O8 0.906114 0.638020 0.431715
O O9 0.075185 0.612291 0.331682
O O10 0.694007 0.000000 0.750000
O O11 0.250000 0.750000 0.000000
#
# Coordination Sequence:
#
# PCOD8277153 Si02
#       5
#     8  16  16  16   8
#     4  12  25  44  66  97 132 171 217 270 332 401
#     4  10  22  42  66  94 134 176 212 269 331 390
#     4  10  21  39  64  94 125 169 220 271 324 391
#     4  10  21  40  65  95 131 173 224 274 327 392
#     4  12  26  42  67  95 130 171 220 278 337 401
#
# _framework density 22.018820999999999
#
# number of rings (size 3 to 8) (size 9 to 14) (size 15 to 20)
#    0.000    1.500    0.000    5.625    0.000   10.000 
#    0.000   20.000    0.000    1.500    0.000    0.000 
#    0.000    0.000    0.000    0.000    0.000    0.000 
#
# Total GULP energy -396712.101690 kJ/mol
# GULP energy per Si atom -12397.253178 kJ/mol
# Density = 2.196871 g / cm^3
# Si number density = 22.018821 Si / 1000 Ang^3
#
#
#
# Elastic Constant Matrix: (Units=GPa)
#
#
# Indices 1 2 3 4 5 6 
#
# 1 102.6300 58.6783 75.7945 0.0000 0.0000 0.0000
# 2 58.6783 147.6301 63.6331 0.0000 0.0000 0.0000
# 3 75.7945 63.6331 167.3703 0.0000 0.0000 0.0000
# 4 0.0000 0.0000 0.0000 42.4008 0.0000 0.0000
# 5 0.0000 0.0000 0.0000 0.0000 -765.4147 0.0000
# 6 0.0000 0.0000 0.0000 0.0000 0.0000 41.7212
#
#
#
# Elastic Compliance Matrix: (Units=1/GPa)
#
#
# Indices 1 2 3 4 5 6 
#
# 1 0.016371 -0.003961 -0.005908 0.000000 0.000000 0.000000
# 2 -0.003961 0.009059 -0.001651 0.000000 0.000000 0.000000
# 3 -0.005908 -0.001651 0.009278 0.000000 0.000000 0.000000
# 4 0.000000 0.000000 0.000000 0.023584 0.000000 0.000000
# 5 0.000000 0.000000 0.000000 0.000000 -0.001306 0.000000
# 6 0.000000 0.000000 0.000000 0.000000 0.000000 0.023969
#
#
# Mechanical properties :
#
#
# Convention : Reuss Voigt Hill
#
# Bulk Modulus (GPa) = 85.69066 90.42692 88.05879
# Shear Modulus (GPa) = 46.34596 -121.62358 -37.63881
#
# Velocity S-wave (km/s) = 4.59282 -7.44017 -4.13897
# Velocity P-wave (km/s) = 8.19310 5.71410 4.15186
#
# Compressibility (1/GPa) = 0.01166988
#
# Stress axis : x y z
#
# Youngs Moduli (GPa) = 61.08194 110.38238 107.78279
#
# Poissons Ratio (x) = 0.43718 0.63679
# Poissons Ratio (y) = 0.24192 0.17793
# Poissons Ratio (z) = 0.36088 0.18222
#
# Static dielectric constant tensor:
#      x y z
#    x 3.983710 0.000000 0.000000 
#    y 0.000000 4.846790 0.000000 
#    z 0.000000 0.000000 4.153620 
# 
# 
# High freq. dielectric constant tensor:
#      x y z
#    x 1.862170 0.000000 0.000000 
#    y 0.000000 1.866700 0.000000 
#    z 0.000000 0.000000 1.874420 
# 
# From -- ./inp_files/38050.got.cif
#   From: 2010.03.12/outbox.cif.g09.slc.cpg/sg66_20_cif.got.tgz:38050.got - 2010.04.10 21:57:39.
