data_PCOD8277701
_publ_section_title
;
Structure prediction by ZEFSAII (Michael W. Deem and Ramdas Pophale) SiO2 
 PCOD8277701
Probable space group: C C C M
;
_chemical_formula_sum "Si O2"
_cell_formula_units_Z 68
_cell_length_a 8.348238
_cell_length_b 14.371652
_cell_length_c 27.445498
_cell_angle_alpha 90.000000
_cell_angle_beta 90.000000
_cell_angle_gamma 90.000000
_cell_volume 3292.855173
_symmetry_space_group_name_H-M "C C C M"
_symmetry_group_IT_number 66
_symmetry_cell_setting 'orthorhombic'
loop_
_space_group_symop_operation_xyz
x,y,z
-x,-y,z
x,-y,1/2-z
-x,y,1/2-z
-x,-y,-z
x,y,-z
-x,y,1/2+z
x,-y,1/2+z
1/2+x,1/2+y,z
1/2-x,1/2-y,z
1/2+x,1/2-y,1/2-z
1/2-x,1/2+y,1/2-z
1/2-x,1/2-y,-z
1/2+x,1/2+y,-z
1/2-x,1/2+y,1/2+z
1/2+x,1/2-y,1/2+z
loop_
_atom_site_type_symbol
_atom_site_label
_atom_site_fract_x
_atom_site_fract_y
_atom_site_fract_z
Si Si1 0.548544 0.099834 0.328005
Si Si2 0.372678 0.833474 0.000000
Si Si3 0.500000 0.500000 0.750000
Si Si4 0.735678 0.858361 0.734235
Si Si5 0.344155 0.841077 0.570990
Si Si6 0.186375 0.021245 0.000000
O O1 0.383845 0.148794 0.311517
O O2 0.664531 0.088894 0.281496
O O3 0.638571 0.154050 0.370803
O O4 0.500000 0.000000 0.348967
O O5 0.250000 0.750000 0.000000
O O6 0.479894 0.833233 0.048352
O O7 0.271474 0.924679 0.000000
O O8 0.390345 0.423516 0.720057
O O9 0.750000 0.750000 0.749776
O O10 0.250000 0.750000 0.556172
O O11 0.241385 0.925645 0.548908
O O12 0.000000 0.000000 0.000000
#
# Coordination Sequence:
#
# PCOD8277701 Si02
#       6
#    16   8   4  16  16   8
#     4  11  21  43  60  87 130 170 206 265 331 389
#     4  11  22  41  66  92 130 169 214 267 322 392
#     4  12  20  42  64  98 120 172 228 272 328 396
#     4  11  23  40  66  91 130 170 220 273 333 398
#     4  11  23  40  66  95 128 169 215 266 333 397
#     4  11  22  43  66  96 128 171 214 271 330 394
#
# _framework density 20.650770999999999
#
# number of rings (size 3 to 8) (size 9 to 14) (size 15 to 20)
#    0.000    0.941    2.353    8.471    0.000    0.941 
#    2.118    2.353    0.000    0.000    0.000    0.000 
#    0.000    0.000    0.000    0.000    0.000    0.000 
#
# Total GULP energy -421342.067173 kJ/mol
# GULP energy per Si atom -12392.413740 kJ/mol
# Density = 2.060377 g / cm^3
# Si number density = 20.650771 Si / 1000 Ang^3
#
#
#
# Elastic Constant Matrix: (Units=GPa)
#
#
# Indices 1 2 3 4 5 6 
#
# 1 152.8756 69.3176 49.7154 0.0000 0.0000 0.0000
# 2 69.3176 155.2717 24.7427 0.0000 0.0000 0.0000
# 3 49.7154 24.7427 114.6885 0.0000 0.0000 0.0000
# 4 0.0000 0.0000 0.0000 22.2671 0.0000 0.0000
# 5 0.0000 0.0000 0.0000 0.0000 20.2198 0.0000
# 6 0.0000 0.0000 0.0000 0.0000 0.0000 48.5931
#
#
#
# Elastic Compliance Matrix: (Units=1/GPa)
#
#
# Indices 1 2 3 4 5 6 
#
# 1 0.009223 -0.003604 -0.003220 0.000000 0.000000 0.000000
# 2 -0.003604 0.008078 -0.000180 0.000000 0.000000 0.000000
# 3 -0.003220 -0.000180 0.010154 0.000000 0.000000 0.000000
# 4 0.000000 0.000000 0.000000 0.044909 0.000000 0.000000
# 5 0.000000 0.000000 0.000000 0.000000 0.049456 0.000000
# 6 0.000000 0.000000 0.000000 0.000000 0.000000 0.020579
#
#
# Mechanical properties :
#
#
# Convention : Reuss Voigt Hill
#
# Bulk Modulus (GPa) = 74.37617 78.93192 76.65405
# Shear Modulus (GPa) = 31.07690 36.82001 33.94845
#
# Velocity S-wave (km/s) = 3.88348 4.22712 4.05894
# Velocity P-wave (km/s) = 7.49686 7.88226 7.69197
#
# Compressibility (1/GPa) = 0.01344517
#
# Stress axis : x y z
#
# Youngs Moduli (GPa) = 108.42789 123.79218 98.48190
#
# Poissons Ratio (x) = 0.44616 0.31714
# Poissons Ratio (y) = 0.39079 0.01777
# Poissons Ratio (z) = 0.34917 0.02234
#
# Static dielectric constant tensor:
#      x y z
#    x 4.010260 0.000000 0.000000 
#    y 0.000000 3.944910 0.000000 
#    z 0.000000 0.000000 3.343910 
# 
# 
# High freq. dielectric constant tensor:
#      x y z
#    x 1.819430 0.000000 0.000000 
#    y 0.000000 1.830560 0.000000 
#    z 0.000000 0.000000 1.783020 
# 
# From -- ./inp_files/62133.got.cif
#   From: 2010.03.12/outbox.cif.g09.slc.cpg/sg66_32_cif.got.tgz:62133.got - 2010.04.10 21:57:39.
