data_PCOD8277257
_publ_section_title
;
Structure prediction by ZEFSAII (Michael W. Deem and Ramdas Pophale) SiO2 
 PCOD8277257
Probable space group: C C C M
;
_chemical_formula_sum "Si O2"
_cell_formula_units_Z 88
_cell_length_a 8.382525
_cell_length_b 22.550194
_cell_length_c 19.581384
_cell_angle_alpha 90.000000
_cell_angle_beta 90.000000
_cell_angle_gamma 90.000000
_cell_volume 3701.421336
_symmetry_space_group_name_H-M "C C C M"
_symmetry_group_IT_number 66
_symmetry_cell_setting 'orthorhombic'
loop_
_space_group_symop_operation_xyz
x,y,z
-x,-y,z
x,-y,1/2-z
-x,y,1/2-z
-x,-y,-z
x,y,-z
-x,y,1/2+z
x,-y,1/2+z
1/2+x,1/2+y,z
1/2-x,1/2-y,z
1/2+x,1/2-y,1/2-z
1/2-x,1/2+y,1/2-z
1/2-x,1/2-y,-z
1/2+x,1/2+y,-z
1/2-x,1/2+y,1/2+z
1/2+x,1/2-y,1/2+z
loop_
_atom_site_type_symbol
_atom_site_label
_atom_site_fract_x
_atom_site_fract_y
_atom_site_fract_z
Si Si1 0.893182 0.053536 0.647379
Si Si2 0.326668 0.124879 0.765244
Si Si3 0.889890 0.168166 0.856818
Si Si4 0.475435 0.146301 0.000000
Si Si5 0.906989 0.721366 0.125681
Si Si6 0.683488 0.634160 0.500000
Si Si7 0.844324 0.070488 0.500000
O O1 0.757444 0.066684 0.702894
O O2 0.825681 0.034695 0.571599
O O3 0.983298 0.115524 0.642699
O O4 0.000000 0.000000 0.675711
O O5 0.500000 0.099431 0.750000
O O6 0.245406 0.151359 0.697415
O O7 0.338562 0.179174 0.816373
O O8 0.820954 0.175157 0.932865
O O9 0.975059 0.230386 0.839237
O O10 0.497322 0.185812 0.067194
O O11 0.300566 0.117114 0.000000
O O12 0.636209 0.103880 0.000000
O O13 0.750000 0.750000 0.091247
O O14 0.529703 0.591473 0.500000
#
# Coordination Sequence:
#
# PCOD8277257 Si02
#       7
#    16  16  16   8  16   8   8
#     4  11  24  47  75 100 136 191 242 306 371 435
#     4  12  27  42  68 108 147 189 242 300 374 456
#     4  11  25  44  67  99 145 187 244 294 366 449
#     4  12  22  42  72 102 148 186 243 304 356 456
#     4  12  24  40  68 105 144 191 236 291 374 448
#     4  10  23  44  66 100 140 191 234 301 363 426
#     4  10  21  46  75 107 139 182 250 297 381 444
#
# _framework density 23.774650000000001
#
# number of rings (size 3 to 8) (size 9 to 14) (size 15 to 20)
#    0.000    0.727    3.636    3.818    2.545    4.364 
#    0.000    1.818    0.000    2.182    0.000    0.000 
#    0.000    0.000    0.000    0.000    0.000    0.000 
#
# Total GULP energy -545166.052881 kJ/mol
# GULP energy per Si atom -12390.137565 kJ/mol
# Density = 2.372054 g / cm^3
# Si number density = 23.774650 Si / 1000 Ang^3
#
#
#
# Elastic Constant Matrix: (Units=GPa)
#
#
# Indices 1 2 3 4 5 6 
#
# 1 170.8667 35.8192 51.1203 0.0000 0.0000 0.0000
# 2 35.8192 78.2270 35.5973 0.0000 0.0000 0.0000
# 3 51.1203 35.5973 159.7935 0.0000 0.0000 0.0000
# 4 0.0000 0.0000 0.0000 16.8976 0.0000 0.0000
# 5 0.0000 0.0000 0.0000 0.0000 195.3155 0.0000
# 6 0.0000 0.0000 0.0000 0.0000 0.0000 34.5105
#
#
#
# Elastic Compliance Matrix: (Units=1/GPa)
#
#
# Indices 1 2 3 4 5 6 
#
# 1 0.006848 -0.002380 -0.001661 0.000000 0.000000 0.000000
# 2 -0.002380 0.015053 -0.002592 0.000000 0.000000 0.000000
# 3 -0.001661 -0.002592 0.007367 0.000000 0.000000 0.000000
# 4 0.000000 0.000000 0.000000 0.059180 0.000000 0.000000
# 5 0.000000 0.000000 0.000000 0.000000 0.005120 0.000000
# 6 0.000000 0.000000 0.000000 0.000000 0.000000 0.028977
#
#
# Mechanical properties :
#
#
# Convention : Reuss Voigt Hill
#
# Bulk Modulus (GPa) = 62.49056 72.66231 67.57643
# Shear Modulus (GPa) = 35.42495 68.43477 51.92986
#
# Velocity S-wave (km/s) = 3.86428 5.37096 4.67867
# Velocity P-wave (km/s) = 6.80087 8.31218 7.59421
#
# Compressibility (1/GPa) = 0.01600242
#
# Stress axis : x y z
#
# Youngs Moduli (GPa) = 146.02174 66.43402 135.74540
#
# Poissons Ratio (x) = 0.15812 0.22543
# Poissons Ratio (y) = 0.34754 0.35183
# Poissons Ratio (z) = 0.24249 0.17219
#
# Static dielectric constant tensor:
#      x y z
#    x 4.778260 0.000000 0.000000 
#    y 0.000000 3.845290 0.000000 
#    z 0.000000 0.000000 5.055730 
# 
# 
# High freq. dielectric constant tensor:
#      x y z
#    x 1.960120 0.000000 0.000000 
#    y 0.000000 1.903110 0.000000 
#    z 0.000000 0.000000 1.965040 
# 
# From -- ./inp_files/47193.got.cif
#   From: 2010.03.12/outbox.cif.g09.slc.cpg/sg66_24_cif.got.tgz:47193.got - 2010.04.10 21:57:39.
