data_PCOD8277552
_publ_section_title
;
Structure prediction by ZEFSAII (Michael W. Deem and Ramdas Pophale) SiO2 
 PCOD8277552
Probable space group: C C C M
;
_chemical_formula_sum "Si O2"
_cell_formula_units_Z 36
_cell_length_a 5.614493
_cell_length_b 28.634706
_cell_length_c 8.979445
_cell_angle_alpha 90.000000
_cell_angle_beta 90.000000
_cell_angle_gamma 90.000000
_cell_volume 1443.619593
_symmetry_space_group_name_H-M "C C C M"
_symmetry_group_IT_number 66
_symmetry_cell_setting 'orthorhombic'
loop_
_space_group_symop_operation_xyz
x,y,z
-x,-y,z
x,-y,1/2-z
-x,y,1/2-z
-x,-y,-z
x,y,-z
-x,y,1/2+z
x,-y,1/2+z
1/2+x,1/2+y,z
1/2-x,1/2-y,z
1/2+x,1/2-y,1/2-z
1/2-x,1/2+y,1/2-z
1/2-x,1/2-y,-z
1/2+x,1/2+y,-z
1/2-x,1/2+y,1/2+z
1/2+x,1/2-y,1/2+z
loop_
_atom_site_type_symbol
_atom_site_label
_atom_site_fract_x
_atom_site_fract_y
_atom_site_fract_z
Si Si1 0.000000 0.000000 0.750000
Si Si2 0.000000 0.855758 0.250000
Si Si3 0.808821 0.460030 0.000000
Si Si4 0.781949 0.304817 0.000000
Si Si5 0.837982 0.623554 0.000000
O O1 0.153043 0.035059 0.648497
O O2 0.840857 0.822980 0.351701
O O3 0.824636 0.886718 0.145304
O O4 0.000000 0.500000 0.000000
O O5 0.930451 0.409573 0.000000
O O6 0.750000 0.250000 0.000000
O O7 0.057741 0.323311 0.000000
#
# Coordination Sequence:
#
# PCOD8277552 Si02
#       5
#     4   8   8   8   8
#     4  10  26  48  76 112 148 202 250 310 374 440
#     4  10  26  45  74 107 146 190 245 304 375 444
#     4  11  26  47  77 110 153 197 251 311 373 453
#     4  11  26  43  74 105 144 191 245 307 374 441
#     4  11  26  49  73 109 149 197 249 313 372 456
#
# _framework density 24.937317
#
# number of rings (size 3 to 8) (size 9 to 14) (size 15 to 20)
#    0.000    1.333    0.000    2.000    6.222   19.556 
#    0.000    6.667    0.000    0.000    0.000    0.000 
#    0.000    0.000    0.000    0.000    0.000    0.000 
#
# Total GULP energy -223252.697704 kJ/mol
# GULP energy per Si atom -12402.927650 kJ/mol
# Density = 2.488056 g / cm^3
# Si number density = 24.937317 Si / 1000 Ang^3
#
#
#
# Elastic Constant Matrix: (Units=GPa)
#
#
# Indices 1 2 3 4 5 6 
#
# 1 166.1780 63.9394 95.3813 0.0000 0.0000 0.0000
# 2 63.9394 122.9076 57.6613 0.0000 0.0000 0.0000
# 3 95.3813 57.6613 224.3086 0.0000 0.0000 0.0000
# 4 0.0000 0.0000 0.0000 2.1539 0.0000 0.0000
# 5 0.0000 0.0000 0.0000 0.0000 261.2703 0.0000
# 6 0.0000 0.0000 0.0000 0.0000 0.0000 42.7845
#
#
#
# Elastic Compliance Matrix: (Units=1/GPa)
#
#
# Indices 1 2 3 4 5 6 
#
# 1 0.008989 -0.003279 -0.002980 0.000000 0.000000 0.000000
# 2 -0.003279 0.010448 -0.001292 0.000000 0.000000 0.000000
# 3 -0.002980 -0.001292 0.006057 0.000000 0.000000 0.000000
# 4 0.000000 0.000000 0.000000 0.464282 0.000000 0.000000
# 5 0.000000 0.000000 0.000000 0.000000 0.003827 0.000000
# 6 0.000000 0.000000 0.000000 0.000000 0.000000 0.023373
#
#
# Mechanical properties :
#
#
# Convention : Reuss Voigt Hill
#
# Bulk Modulus (GPa) = 96.20400 105.26202 100.73301
# Shear Modulus (GPa) = 9.33634 81.00255 45.16944
#
# Velocity S-wave (km/s) = 1.93702 5.70552 4.26058
# Velocity P-wave (km/s) = 6.60794 9.25777 8.04273
#
# Compressibility (1/GPa) = 0.01039458
#
# Stress axis : x y z
#
# Youngs Moduli (GPa) = 111.24239 95.71464 165.09280
#
# Poissons Ratio (x) = 0.31381 0.49193
# Poissons Ratio (y) = 0.36472 0.21323
# Poissons Ratio (z) = 0.33147 0.12362
#
# Static dielectric constant tensor:
#      x y z
#    x 4.720990 0.000000 0.000000 
#    y 0.000000 4.340880 0.000000 
#    z 0.000000 0.000000 4.890770 
# 
# 
# High freq. dielectric constant tensor:
#      x y z
#    x 2.014090 0.000000 0.000000 
#    y 0.000000 1.979370 0.000000 
#    z 0.000000 0.000000 2.022080 
# 
# From -- ./inp_files/12378.got.cif
#   From: 2010.03.12/outbox.cif.g09.slc.cpg/sg66_7_cif.got.tgz:12378.got - 2010.04.10 21:57:39.
