data_PCOD8277451
_publ_section_title
;
Structure prediction by ZEFSAII (Michael W. Deem and Ramdas Pophale) SiO2 
 PCOD8277451
Probable space group: C C C M
;
_chemical_formula_sum "Si O2"
_cell_formula_units_Z 96
_cell_length_a 9.972467
_cell_length_b 27.599775
_cell_length_c 17.538118
_cell_angle_alpha 90.000000
_cell_angle_beta 90.000000
_cell_angle_gamma 90.000000
_cell_volume 4827.153811
_symmetry_space_group_name_H-M "C C C M"
_symmetry_group_IT_number 66
_symmetry_cell_setting 'orthorhombic'
loop_
_space_group_symop_operation_xyz
x,y,z
-x,-y,z
x,-y,1/2-z
-x,y,1/2-z
-x,-y,-z
x,y,-z
-x,y,1/2+z
x,-y,1/2+z
1/2+x,1/2+y,z
1/2-x,1/2-y,z
1/2+x,1/2-y,1/2-z
1/2-x,1/2+y,1/2-z
1/2-x,1/2-y,-z
1/2+x,1/2+y,-z
1/2-x,1/2+y,1/2+z
1/2+x,1/2-y,1/2+z
loop_
_atom_site_type_symbol
_atom_site_label
_atom_site_fract_x
_atom_site_fract_y
_atom_site_fract_z
Si Si1 0.234929 0.586084 0.590117
Si Si2 0.903640 0.747089 0.820169
Si Si3 0.543927 0.340888 0.588939
Si Si4 0.001819 0.357762 0.839736
Si Si5 0.770161 0.108936 0.909505
Si Si6 0.846009 0.992829 0.339603
O O1 0.234238 0.587957 0.500000
O O2 0.350335 0.621031 0.625215
O O3 0.091136 0.601670 0.620843
O O4 0.257253 0.531591 0.616392
O O5 0.750000 0.750000 0.791993
O O6 0.928808 0.786948 0.883814
O O7 0.937793 0.695242 0.857389
O O8 0.000000 0.758323 0.750000
O O9 0.566835 0.340883 0.500000
O O10 0.395051 0.356953 0.610746
O O11 0.000000 0.367336 0.750000
O O12 0.855305 0.361966 0.876102
O O13 0.790168 0.058853 0.865229
O O14 0.756329 0.099702 0.000000
O O15 0.827445 0.000000 0.250000
O O16 0.000000 0.000000 0.364517
#
# Coordination Sequence:
#
# PCOD8277451 Si02
#       6
#    16  16  16  16  16  16
#     4  11  22  41  66  94 126 168 216 261 316 382
#     4  11  25  42  66  95 129 169 215 265 319 382
#     4  10  23  40  65  94 126 167 213 262 314 379
#     4  11  25  43  63  94 131 168 211 266 325 378
#     4  11  24  43  65  95 131 168 212 268 323 377
#     4  11  23  39  65  98 129 167 213 263 319 384
#
# _framework density 19.887497
#
# number of rings (size 3 to 8) (size 9 to 14) (size 15 to 20)
#    0.000    1.167    3.333    2.000    4.667    4.333 
#    0.000    5.000    0.000    0.000    0.000    0.000 
#    0.000    0.000    0.000    0.000    0.000    0.000 
#
# Total GULP energy -595444.275583 kJ/mol
# GULP energy per Si atom -12405.089075 kJ/mol
# Density = 1.984223 g / cm^3
# Si number density = 19.887497 Si / 1000 Ang^3
#
#
#
# Elastic Constant Matrix: (Units=GPa)
#
#
# Indices 1 2 3 4 5 6 
#
# 1 139.1302 45.7114 39.2788 0.0000 0.0000 0.0000
# 2 45.7114 113.2026 34.9652 0.0000 0.0000 0.0000
# 3 39.2788 34.9652 67.2830 0.0000 0.0000 0.0000
# 4 0.0000 0.0000 0.0000 40.1269 0.0000 0.0000
# 5 0.0000 0.0000 0.0000 0.0000 30.7955 0.0000
# 6 0.0000 0.0000 0.0000 0.0000 0.0000 37.7315
#
#
#
# Elastic Compliance Matrix: (Units=1/GPa)
#
#
# Indices 1 2 3 4 5 6 
#
# 1 0.009135 -0.002432 -0.004069 0.000000 0.000000 0.000000
# 2 -0.002432 0.011170 -0.004385 0.000000 0.000000 0.000000
# 3 -0.004069 -0.004385 0.019517 0.000000 0.000000 0.000000
# 4 0.000000 0.000000 0.000000 0.024921 0.000000 0.000000
# 5 0.000000 0.000000 0.000000 0.000000 0.032472 0.000000
# 6 0.000000 0.000000 0.000000 0.000000 0.000000 0.026503
#
#
# Mechanical properties :
#
#
# Convention : Reuss Voigt Hill
#
# Bulk Modulus (GPa) = 55.40203 62.16960 58.78582
# Shear Modulus (GPa) = 33.00152 35.04147 34.02149
#
# Velocity S-wave (km/s) = 4.07801 4.20215 4.14055
# Velocity P-wave (km/s) = 7.07755 7.40761 7.24446
#
# Compressibility (1/GPa) = 0.01804988
#
# Stress axis : x y z
#
# Youngs Moduli (GPa) = 109.46468 89.52388 51.23742
#
# Poissons Ratio (x) = 0.21772 0.20850
# Poissons Ratio (y) = 0.26622 0.22468
# Poissons Ratio (z) = 0.44544 0.39257
#
# Static dielectric constant tensor:
#      x y z
#    x 3.793230 0.000000 0.000000 
#    y 0.000000 3.693270 0.000000 
#    z 0.000000 0.000000 3.550870 
# 
# 
# High freq. dielectric constant tensor:
#      x y z
#    x 1.789600 0.000000 0.000000 
#    y 0.000000 1.786390 0.000000 
#    z 0.000000 0.000000 1.776710 
# 
# From -- ./inp_files/47342.got.cif
#   From: 2010.03.12/outbox.cif.g09.slc.cpg/sg66_24_cif.got.tgz:47342.got - 2010.04.10 21:57:39.
