data_PCOD8277560
_publ_section_title
;
Structure prediction by ZEFSAII (Michael W. Deem and Ramdas Pophale) SiO2 
 PCOD8277560
Probable space group: C C C M
;
_chemical_formula_sum "Si O2"
_cell_formula_units_Z 96
_cell_length_a 11.089899
_cell_length_b 20.461313
_cell_length_c 24.767365
_cell_angle_alpha 90.000000
_cell_angle_beta 90.000000
_cell_angle_gamma 90.000000
_cell_volume 5620.059251
_symmetry_space_group_name_H-M "C C C M"
_symmetry_group_IT_number 66
_symmetry_cell_setting 'orthorhombic'
loop_
_space_group_symop_operation_xyz
x,y,z
-x,-y,z
x,-y,1/2-z
-x,y,1/2-z
-x,-y,-z
x,y,-z
-x,y,1/2+z
x,-y,1/2+z
1/2+x,1/2+y,z
1/2-x,1/2-y,z
1/2+x,1/2-y,1/2-z
1/2-x,1/2+y,1/2-z
1/2-x,1/2-y,-z
1/2+x,1/2+y,-z
1/2-x,1/2+y,1/2+z
1/2+x,1/2-y,1/2+z
loop_
_atom_site_type_symbol
_atom_site_label
_atom_site_fract_x
_atom_site_fract_y
_atom_site_fract_z
Si Si1 0.926607 0.194826 0.095472
Si Si2 0.369372 0.971978 0.096014
Si Si3 0.003068 0.107183 0.187642
Si Si4 0.306125 0.501821 0.312391
Si Si5 0.155003 0.671853 0.064663
Si Si6 0.501699 0.391090 0.000000
Si Si7 0.198252 0.000488 0.000000
O O1 0.938575 0.272768 0.086029
O O2 0.785842 0.179886 0.090540
O O3 0.981029 0.172988 0.153214
O O4 0.003448 0.154548 0.052111
O O5 0.315536 0.990288 0.154258
O O6 0.393719 0.895973 0.086293
O O7 0.279621 0.003171 0.052737
O O8 0.500000 0.000000 0.089410
O O9 0.000000 0.127965 0.250000
O O10 0.898081 0.056132 0.173349
O O11 0.130134 0.071441 0.174055
O O12 0.269551 0.500000 0.250000
O O13 0.164990 0.675296 0.000000
O O14 0.623861 0.433266 0.000000
O O15 0.385923 0.436746 0.000000
#
# Coordination Sequence:
#
# PCOD8277560 Si02
#       7
#    16  16  16  16  16   8   8
#     4  11  17  31  54  80 112 134 171 225 270 317
#     4  12  22  35  53  74 110 146 179 214 256 327
#     4   9  17  31  57  82 107 131 167 234 282 317
#     4   9  18  34  54  81 104 132 178 225 278 312
#     4  11  20  33  52  80 112 145 179 212 262 327
#     4  11  18  30  56  81 109 130 168 239 282 306
#     4  11  21  31  49  84 108 133 178 223 275 318
#
# _framework density 17.081671
#
# number of rings (size 3 to 8) (size 9 to 14) (size 15 to 20)
#    0.000    1.500    5.833    2.750    0.000    3.000 
#    0.000    0.000    3.667    5.000    0.000    0.000 
#    0.000    0.000    0.000    0.000    0.000    0.000 
#
# Total GULP energy -595119.902330 kJ/mol
# GULP energy per Si atom -12398.331299 kJ/mol
# Density = 1.704279 g / cm^3
# Si number density = 17.081671 Si / 1000 Ang^3
#
#
#
# Elastic Constant Matrix: (Units=GPa)
#
#
# Indices 1 2 3 4 5 6 
#
# 1 83.6432 55.0605 44.3966 0.0000 0.0000 0.0000
# 2 55.0605 106.0372 55.2501 0.0000 0.0000 0.0000
# 3 44.3966 55.2501 104.9629 0.0000 0.0000 0.0000
# 4 0.0000 0.0000 0.0000 22.9004 0.0000 0.0000
# 5 0.0000 0.0000 0.0000 0.0000 35.5160 0.0000
# 6 0.0000 0.0000 0.0000 0.0000 0.0000 49.9097
#
#
#
# Elastic Compliance Matrix: (Units=1/GPa)
#
#
# Indices 1 2 3 4 5 6 
#
# 1 0.019300 -0.007948 -0.003980 0.000000 0.000000 0.000000
# 2 -0.007948 0.016268 -0.005201 0.000000 0.000000 0.000000
# 3 -0.003980 -0.005201 0.013948 0.000000 0.000000 0.000000
# 4 0.000000 0.000000 0.000000 0.043667 0.000000 0.000000
# 5 0.000000 0.000000 0.000000 0.000000 0.028156 0.000000
# 6 0.000000 0.000000 0.000000 0.000000 0.000000 0.020036
#
#
# Mechanical properties :
#
#
# Convention : Reuss Voigt Hill
#
# Bulk Modulus (GPa) = 65.53874 67.11752 66.32813
# Shear Modulus (GPa) = 27.66717 30.99430 29.33073
#
# Velocity S-wave (km/s) = 4.02891 4.26429 4.14827
# Velocity P-wave (km/s) = 7.75203 7.97640 7.86502
#
# Compressibility (1/GPa) = 0.01525815
#
# Stress axis : x y z
#
# Youngs Moduli (GPa) = 51.81370 61.47141 71.69340
#
# Poissons Ratio (x) = 0.48857 0.28532
# Poissons Ratio (y) = 0.41181 0.37289
# Poissons Ratio (z) = 0.20621 0.31972
#
# Static dielectric constant tensor:
#      x y z
#    x 2.939210 0.000000 0.000000 
#    y 0.000000 2.854110 0.000000 
#    z 0.000000 0.000000 3.243450 
# 
# 
# High freq. dielectric constant tensor:
#      x y z
#    x 1.631720 0.000000 0.000000 
#    y 0.000000 1.653840 0.000000 
#    z 0.000000 0.000000 1.664330 
# 
# From -- ./inp_files/55701.got.cif
#   From: 2010.03.12/outbox.cif.g09.slc.cpg/sg66_28_cif.got.tgz:55701.got - 2010.04.10 21:57:39.
