data_PCOD8277251
_publ_section_title
;
Structure prediction by ZEFSAII (Michael W. Deem and Ramdas Pophale) SiO2 
 PCOD8277251
Probable space group: C C C M
;
_chemical_formula_sum "Si O2"
_cell_formula_units_Z 76
_cell_length_a 10.476461
_cell_length_b 23.059349
_cell_length_c 14.727138
_cell_angle_alpha 90.000000
_cell_angle_beta 90.000000
_cell_angle_gamma 90.000000
_cell_volume 3557.787454
_symmetry_space_group_name_H-M "C C C M"
_symmetry_group_IT_number 66
_symmetry_cell_setting 'orthorhombic'
loop_
_space_group_symop_operation_xyz
x,y,z
-x,-y,z
x,-y,1/2-z
-x,y,1/2-z
-x,-y,-z
x,y,-z
-x,y,1/2+z
x,-y,1/2+z
1/2+x,1/2+y,z
1/2-x,1/2-y,z
1/2+x,1/2-y,1/2-z
1/2-x,1/2+y,1/2-z
1/2-x,1/2-y,-z
1/2+x,1/2+y,-z
1/2-x,1/2+y,1/2+z
1/2+x,1/2-y,1/2+z
loop_
_atom_site_type_symbol
_atom_site_label
_atom_site_fract_x
_atom_site_fract_y
_atom_site_fract_z
Si Si1 0.500000 0.500000 0.250000
Si Si2 0.022777 0.649938 0.000000
Si Si3 0.365144 0.294419 0.202194
Si Si4 0.545372 0.936667 0.348058
Si Si5 0.058972 0.772149 0.500000
Si Si6 0.172107 0.095977 0.323274
Si Si7 0.178461 0.838061 0.000000
O O1 0.582039 0.541315 0.313147
O O2 0.988400 0.611796 0.086773
O O3 0.170182 0.671178 0.000000
O O4 0.924128 0.702824 0.000000
O O5 0.500000 0.274640 0.250000
O O6 0.250000 0.250000 0.229762
O O7 0.328917 0.359129 0.238040
O O8 0.377268 0.297288 0.092245
O O9 0.500000 0.919368 0.250000
O O10 0.696060 0.934666 0.346124
O O11 0.500000 0.000000 0.379849
O O12 0.904618 0.779408 0.500000
O O13 0.126164 0.129682 0.411561
#
# Coordination Sequence:
#
# PCOD8277251 Si02
#       7
#     4   8  16  16   8  16   8
#     4  12  20  42  62 100 132 174 232 282 360 436
#     4  10  24  35  68  99 136 178 229 294 353 420
#     4  12  28  47  72 104 146 189 241 296 364 430
#     4  10  22  42  64  95 132 178 232 288 352 415
#     4  12  24  43  66 105 140 186 233 296 354 425
#     4  11  24  42  70  96 136 186 229 297 359 430
#     4  10  21  43  64  98 138 180 241 282 356 431
#
# _framework density 21.36159
#
# number of rings (size 3 to 8) (size 9 to 14) (size 15 to 20)
#    0.000    1.053    3.158    2.211    8.842    0.421 
#    0.000    1.053    0.000    0.000    0.000    0.000 
#    0.000    0.000    0.000    0.000    0.000    0.000 
#
# Total GULP energy -470959.124951 kJ/mol
# GULP energy per Si atom -12393.661183 kJ/mol
# Density = 2.131297 g / cm^3
# Si number density = 21.361590 Si / 1000 Ang^3
#
#
#
# Elastic Constant Matrix: (Units=GPa)
#
#
# Indices 1 2 3 4 5 6 
#
# 1 67.4283 46.8816 13.6038 0.0000 0.0000 0.0000
# 2 46.8816 151.4281 59.2322 0.0000 0.0000 0.0000
# 3 13.6038 59.2322 135.0944 0.0000 0.0000 0.0000
# 4 0.0000 0.0000 0.0000 10.1303 0.0000 0.0000
# 5 0.0000 0.0000 0.0000 0.0000 30.2320 0.0000
# 6 0.0000 0.0000 0.0000 0.0000 0.0000 42.8211
#
#
#
# Elastic Compliance Matrix: (Units=1/GPa)
#
#
# Indices 1 2 3 4 5 6 
#
# 1 0.018970 -0.006187 0.000802 0.000000 0.000000 0.000000
# 2 -0.006187 0.009989 -0.003757 0.000000 0.000000 0.000000
# 3 0.000802 -0.003757 0.008968 0.000000 0.000000 0.000000
# 4 0.000000 0.000000 0.000000 0.098714 0.000000 0.000000
# 5 0.000000 0.000000 0.000000 0.000000 0.033077 0.000000
# 6 0.000000 0.000000 0.000000 0.000000 0.000000 0.023353
#
#
# Mechanical properties :
#
#
# Convention : Reuss Voigt Hill
#
# Bulk Modulus (GPa) = 50.90280 65.93179 58.41729
# Shear Modulus (GPa) = 22.94600 32.25223 27.59911
#
# Velocity S-wave (km/s) = 3.28101 3.88986 3.59834
# Velocity P-wave (km/s) = 6.18338 7.14887 6.68358
#
# Compressibility (1/GPa) = 0.01964528
#
# Stress axis : x y z
#
# Youngs Moduli (GPa) = 52.71366 100.11344 111.50169
#
# Poissons Ratio (x) = 0.61941 -0.08947
# Poissons Ratio (y) = 0.32614 0.41886
# Poissons Ratio (z) = -0.04230 0.37608
#
# Static dielectric constant tensor:
#      x y z
#    x 3.775140 0.000000 0.000000 
#    y 0.000000 3.916620 0.000000 
#    z 0.000000 0.000000 3.297130 
# 
# 
# High freq. dielectric constant tensor:
#      x y z
#    x 1.842260 0.000000 0.000000 
#    y 0.000000 1.841530 0.000000 
#    z 0.000000 0.000000 1.847470 
# 
# From -- ./inp_files/26494.got.cif
#   From: 2010.03.12/outbox.cif.g09.slc.cpg/sg66_14_cif.got.tgz:26494.got - 2010.04.10 21:57:39.
