data_PCOD8277382
_publ_section_title
;
Structure prediction by ZEFSAII (Michael W. Deem and Ramdas Pophale) SiO2 
 PCOD8277382
Probable space group: C C C M
;
_chemical_formula_sum "Si O2"
_cell_formula_units_Z 88
_cell_length_a 14.580312
_cell_length_b 22.950342
_cell_length_c 13.221290
_cell_angle_alpha 90.000000
_cell_angle_beta 90.000000
_cell_angle_gamma 90.000000
_cell_volume 4424.149665
_symmetry_space_group_name_H-M "C C C M"
_symmetry_group_IT_number 66
_symmetry_cell_setting 'orthorhombic'
loop_
_space_group_symop_operation_xyz
x,y,z
-x,-y,z
x,-y,1/2-z
-x,y,1/2-z
-x,-y,-z
x,y,-z
-x,y,1/2+z
x,-y,1/2+z
1/2+x,1/2+y,z
1/2-x,1/2-y,z
1/2+x,1/2-y,1/2-z
1/2-x,1/2+y,1/2-z
1/2-x,1/2-y,-z
1/2+x,1/2+y,-z
1/2-x,1/2+y,1/2+z
1/2+x,1/2-y,1/2+z
loop_
_atom_site_type_symbol
_atom_site_label
_atom_site_fract_x
_atom_site_fract_y
_atom_site_fract_z
Si Si1 0.751786 0.436500 0.706543
Si Si2 0.819009 0.304460 0.500000
Si Si3 0.982446 0.932120 0.500000
Si Si4 0.897370 0.659360 0.212423
Si Si5 0.090615 0.870585 0.184633
Si Si6 0.686644 0.412859 0.500000
Si Si7 0.645276 0.754901 0.609763
O O1 0.765892 0.500000 0.750000
O O2 0.848803 0.403373 0.707735
O O3 0.679660 0.392433 0.756719
O O4 0.714027 0.451152 0.595858
O O5 0.750000 0.250000 0.500000
O O6 0.883203 0.308459 0.397917
O O7 0.744873 0.354709 0.500000
O O8 0.920928 0.915950 0.405177
O O9 0.078719 0.897157 0.500000
O O10 0.000000 0.000000 0.500000
O O11 0.858126 0.698492 0.301529
O O12 0.000000 0.647789 0.250000
O O13 0.100801 0.805054 0.146431
O O14 0.000000 0.873550 0.250000
O O15 0.599039 0.772414 0.500000
O O16 0.750000 0.750000 0.584273
#
# Coordination Sequence:
#
# PCOD8277382 Si02
#       7
#    16   8   8  16  16   8  16
#     4  11  24  44  66  92 130 173 219 277 336 392
#     4  10  24  42  74  95 130 177 225 274 332 394
#     4  12  24  38  60  93 130 173 217 260 324 404
#     4  11  25  44  69  98 131 174 230 280 331 395
#     4  12  24  39  64  92 130 174 214 271 336 400
#     4  10  22  42  61  92 125 161 221 263 310 398
#     4  11  23  42  63  95 134 169 212 268 340 407
#
# _framework density 19.890829
#
# number of rings (size 3 to 8) (size 9 to 14) (size 15 to 20)
#    0.000    0.909    4.545    2.182    3.818    1.818 
#    1.636    0.000    0.000    3.273    0.000    0.000 
#    0.000    0.000    0.000    0.000    0.000    0.000 
#
# Total GULP energy -545211.821959 kJ/mol
# GULP energy per Si atom -12391.177772 kJ/mol
# Density = 1.984556 g / cm^3
# Si number density = 19.890829 Si / 1000 Ang^3
#
#
#
# Elastic Constant Matrix: (Units=GPa)
#
#
# Indices 1 2 3 4 5 6 
#
# 1 96.0055 -0.4788 32.4244 0.0000 0.0000 0.0000
# 2 -0.4788 66.5375 33.8872 0.0000 0.0000 0.0000
# 3 32.4244 33.8872 164.4929 0.0000 0.0000 0.0000
# 4 0.0000 0.0000 0.0000 33.4028 0.0000 0.0000
# 5 0.0000 0.0000 0.0000 0.0000 21.7578 0.0000
# 6 0.0000 0.0000 0.0000 0.0000 0.0000 13.5116
#
#
#
# Elastic Compliance Matrix: (Units=1/GPa)
#
#
# Indices 1 2 3 4 5 6 
#
# 1 0.011267 0.001354 -0.002500 0.000000 0.000000 0.000000
# 2 0.001354 0.016954 -0.003760 0.000000 0.000000 0.000000
# 3 -0.002500 -0.003760 0.007347 0.000000 0.000000 0.000000
# 4 0.000000 0.000000 0.000000 0.029938 0.000000 0.000000
# 5 0.000000 0.000000 0.000000 0.000000 0.045961 0.000000
# 6 0.000000 0.000000 0.000000 0.000000 0.000000 0.074010
#
#
# Mechanical properties :
#
#
# Convention : Reuss Voigt Hill
#
# Bulk Modulus (GPa) = 38.82460 50.96683 44.89572
# Shear Modulus (GPa) = 24.52519 31.14798 27.83659
#
# Velocity S-wave (km/s) = 3.51521 3.96150 3.74501
# Velocity P-wave (km/s) = 6.00306 6.82668 6.42808
#
# Compressibility (1/GPa) = 0.02575686
#
# Stress axis : x y z
#
# Youngs Moduli (GPa) = 88.75364 58.98460 136.11782
#
# Poissons Ratio (x) = -0.07988 0.34029
# Poissons Ratio (y) = -0.12020 0.51174
# Poissons Ratio (z) = 0.22188 0.22176
#
# Static dielectric constant tensor:
#      x y z
#    x 2.470990 0.000000 0.000000 
#    y 0.000000 3.419820 0.000000 
#    z 0.000000 0.000000 4.905350 
# 
# 
# High freq. dielectric constant tensor:
#      x y z
#    x 1.778750 0.000000 0.000000 
#    y 0.000000 1.768370 0.000000 
#    z 0.000000 0.000000 1.805150 
# 
# From -- ./inp_files/16488.got.cif
#   From: 2010.03.12/outbox.cif.g09.slc.cpg/sg66_9_cif.got.tgz:16488.got - 2010.04.10 21:57:39.
