data_PCOD8277622
_publ_section_title
;
Structure prediction by ZEFSAII (Michael W. Deem and Ramdas Pophale) SiO2 
 PCOD8277622
Probable space group: C C C M
;
_chemical_formula_sum "Si O2"
_cell_formula_units_Z 56
_cell_length_a 33.811854
_cell_length_b 5.008978
_cell_length_c 14.611075
_cell_angle_alpha 90.000000
_cell_angle_beta 90.000000
_cell_angle_gamma 90.000000
_cell_volume 2474.573053
_symmetry_space_group_name_H-M "C C C M"
_symmetry_group_IT_number 66
_symmetry_cell_setting 'orthorhombic'
loop_
_space_group_symop_operation_xyz
x,y,z
-x,-y,z
x,-y,1/2-z
-x,y,1/2-z
-x,-y,-z
x,y,-z
-x,y,1/2+z
x,-y,1/2+z
1/2+x,1/2+y,z
1/2-x,1/2-y,z
1/2+x,1/2-y,1/2-z
1/2-x,1/2+y,1/2-z
1/2-x,1/2-y,-z
1/2+x,1/2+y,-z
1/2-x,1/2+y,1/2+z
1/2+x,1/2-y,1/2+z
loop_
_atom_site_type_symbol
_atom_site_label
_atom_site_fract_x
_atom_site_fract_y
_atom_site_fract_z
Si Si1 0.971765 0.758554 0.500000
Si Si2 0.724982 0.011466 0.103821
Si Si3 0.589222 0.595640 0.653414
Si Si4 0.637161 0.928138 0.893731
O O1 0.945338 0.787466 0.590089
O O2 0.000000 0.500000 0.500000
O O3 0.000000 0.000000 0.500000
O O4 0.750000 0.250000 0.154284
O O5 0.750000 0.750000 0.111727
O O6 0.682125 0.933676 0.144146
O O7 0.718053 0.105403 0.000000
O O8 0.570866 0.500000 0.750000
O O9 0.615871 0.358829 0.611725
O O10 0.616926 0.850318 0.670281
O O11 0.634433 0.017195 0.000000
#
# Coordination Sequence:
#
# PCOD8277622 Si02
#       4
#     8  16  16  16
#     4  12  26  48  76 102 136 172 214 270 336 412
#     4   9  17  29  52  90 128 172 231 283 329 384
#     4  12  25  44  70 103 137 175 224 274 336 405
#     4  11  20  39  67  95 136 184 230 281 335 395
#
# _framework density 22.630165999999999
#
# number of rings (size 3 to 8) (size 9 to 14) (size 15 to 20)
#    0.000    1.143    2.857    4.286    0.000    5.143 
#    0.000    1.429    0.000   17.143    0.000    0.000 
#    0.000    0.000    0.000    0.000    0.000    0.000 
#
# Total GULP energy -346953.090186 kJ/mol
# GULP energy per Si atom -12391.181792 kJ/mol
# Density = 2.257866 g / cm^3
# Si number density = 22.630166 Si / 1000 Ang^3
#
#
#
# Elastic Constant Matrix: (Units=GPa)
#
#
# Indices 1 2 3 4 5 6 
#
# 1 184.0834 81.8289 47.2142 0.0000 0.0000 0.0000
# 2 81.8289 155.3929 15.3719 0.0000 0.0000 0.0000
# 3 47.2142 15.3719 92.4085 0.0000 0.0000 0.0000
# 4 0.0000 0.0000 0.0000 -3.2436 0.0000 0.0000
# 5 0.0000 0.0000 0.0000 0.0000 -100.5405 0.0000
# 6 0.0000 0.0000 0.0000 0.0000 0.0000 47.9234
#
#
#
# Elastic Compliance Matrix: (Units=1/GPa)
#
#
# Indices 1 2 3 4 5 6 
#
# 1 0.008054 -0.003898 -0.003467 0.000000 0.000000 0.000000
# 2 -0.003898 0.008430 0.000590 0.000000 0.000000 0.000000
# 3 -0.003467 0.000590 0.012495 0.000000 0.000000 0.000000
# 4 0.000000 0.000000 0.000000 -0.308301 0.000000 0.000000
# 5 0.000000 0.000000 0.000000 0.000000 -0.009946 0.000000
# 6 0.000000 0.000000 0.000000 0.000000 0.000000 0.020867
#
#
# Mechanical properties :
#
#
# Convention : Reuss Voigt Hill
#
# Bulk Modulus (GPa) = 64.81848 80.07943 72.44895
# Shear Modulus (GPa) = -20.02338 7.99253 -6.01543
#
# Velocity S-wave (km/s) = -2.97780 1.88135 -1.63215
# Velocity P-wave (km/s) = 4.10872 6.33895 5.34153
#
# Compressibility (1/GPa) = 0.01542770
#
# Stress axis : x y z
#
# Youngs Moduli (GPa) = 124.15526 118.62545 80.03392
#
# Poissons Ratio (x) = 0.46246 0.27746
# Poissons Ratio (y) = 0.48402 -0.04718
# Poissons Ratio (z) = 0.43041 -0.06994
#
# Static dielectric constant tensor:
#      x y z
#    x 4.267870 0.000000 0.000000 
#    y 0.000000 4.110950 0.000000 
#    z 0.000000 0.000000 3.939010 
# 
# 
# High freq. dielectric constant tensor:
#      x y z
#    x 1.900390 0.000000 0.000000 
#    y 0.000000 1.910370 0.000000 
#    z 0.000000 0.000000 1.875910 
# 
# From -- ./inp_files/33520.got.cif
#   From: 2010.03.12/outbox.cif.g09.slc.cpg/sg66_17_cif.got.tgz:33520.got - 2010.04.10 21:57:39.
