data_PCOD8277219
_publ_section_title
;
Structure prediction by ZEFSAII (Michael W. Deem and Ramdas Pophale) SiO2 
 PCOD8277219
Probable space group: C C C M
;
_chemical_formula_sum "Si O2"
_cell_formula_units_Z 40
_cell_length_a 24.624601
_cell_length_b 4.950332
_cell_length_c 14.053963
_cell_angle_alpha 90.000000
_cell_angle_beta 90.000000
_cell_angle_gamma 90.000000
_cell_volume 1713.177391
_symmetry_space_group_name_H-M "C C C M"
_symmetry_group_IT_number 66
_symmetry_cell_setting 'orthorhombic'
loop_
_space_group_symop_operation_xyz
x,y,z
-x,-y,z
x,-y,1/2-z
-x,y,1/2-z
-x,-y,-z
x,y,-z
-x,y,1/2+z
x,-y,1/2+z
1/2+x,1/2+y,z
1/2-x,1/2-y,z
1/2+x,1/2-y,1/2-z
1/2-x,1/2+y,1/2-z
1/2-x,1/2-y,-z
1/2+x,1/2+y,-z
1/2-x,1/2+y,1/2+z
1/2+x,1/2-y,1/2+z
loop_
_atom_site_type_symbol
_atom_site_label
_atom_site_fract_x
_atom_site_fract_y
_atom_site_fract_z
Si Si1 0.606891 0.773422 0.310661
Si Si2 0.286119 0.008684 0.894850
Si Si3 0.039020 0.245707 0.500000
O O1 0.615134 0.500000 0.250000
O O2 0.663087 0.929935 0.330848
O O3 0.576576 0.715757 0.408081
O O4 0.573500 0.000000 0.250000
O O5 0.250000 0.750000 0.907811
O O6 0.250000 0.250000 0.847104
O O7 0.305817 0.108164 0.000000
O O8 0.000000 0.500000 0.500000
O O9 0.000000 0.000000 0.500000
#
# Coordination Sequence:
#
# PCOD8277219 Si02
#       3
#    16  16   8
#     4  12  26  45  73 108 144 189 242 297 364 438
#     4  10  21  40  68 101 141 185 230 282 346 424
#     4  12  28  50  74 102 143 186 245 314 372 426
#
# _framework density 23.348427000000001
#
# number of rings (size 3 to 8) (size 9 to 14) (size 15 to 20)
#    0.000    0.800    2.000    4.800    0.000    8.000 
#    0.000    0.000    0.000    0.000    0.000    0.000 
#    0.000    0.000    0.000    0.000    0.000    0.000 
#
# Total GULP energy -247880.070211 kJ/mol
# GULP energy per Si atom -12394.003511 kJ/mol
# Density = 2.329528 g / cm^3
# Si number density = 23.348427 Si / 1000 Ang^3
#
#
#
# Elastic Constant Matrix: (Units=GPa)
#
#
# Indices 1 2 3 4 5 6 
#
# 1 123.7495 74.9167 81.3835 0.0000 0.0000 0.0000
# 2 74.9167 212.3029 76.4708 0.0000 0.0000 0.0000
# 3 81.3835 76.4708 181.1260 0.0000 0.0000 0.0000
# 4 0.0000 0.0000 0.0000 46.6012 0.0000 0.0000
# 5 0.0000 0.0000 0.0000 0.0000 -34.3764 0.0000
# 6 0.0000 0.0000 0.0000 0.0000 0.0000 43.3401
#
#
#
# Elastic Compliance Matrix: (Units=1/GPa)
#
#
# Indices 1 2 3 4 5 6 
#
# 1 0.012813 -0.002887 -0.004538 0.000000 0.000000 0.000000
# 2 -0.002887 0.006205 -0.001323 0.000000 0.000000 0.000000
# 3 -0.004538 -0.001323 0.008119 0.000000 0.000000 0.000000
# 4 0.000000 0.000000 0.000000 0.021459 0.000000 0.000000
# 5 0.000000 0.000000 0.000000 0.000000 -0.029090 0.000000
# 6 0.000000 0.000000 0.000000 0.000000 0.000000 0.023073
#
#
# Mechanical properties :
#
#
# Convention : Reuss Voigt Hill
#
# Bulk Modulus (GPa) = 103.72080 109.19115 106.45597
# Shear Modulus (GPa) = 79.00250 30.07349 54.53800
#
# Velocity S-wave (km/s) = 5.82321 3.59281 4.83829
# Velocity P-wave (km/s) = 9.47273 8.00491 8.76958
#
# Compressibility (1/GPa) = 0.00964127
#
# Stress axis : x y z
#
# Youngs Moduli (GPa) = 78.04508 161.15035 123.17220
#
# Poissons Ratio (x) = 0.46520 0.55901
# Poissons Ratio (y) = 0.22529 0.16294
# Poissons Ratio (z) = 0.35420 0.21318
#
# Static dielectric constant tensor:
#      x y z
#    x 3.946800 0.000000 0.000000 
#    y 0.000000 4.576910 0.000000 
#    z 0.000000 0.000000 4.759730 
# 
# 
# High freq. dielectric constant tensor:
#      x y z
#    x 1.906320 0.000000 0.000000 
#    y 0.000000 1.946370 0.000000 
#    z 0.000000 0.000000 1.955390 
# 
# From -- ./inp_files/22129.got.cif
#   From: 2010.03.12/outbox.cif.g09.slc.cpg/sg66_12_cif.got.tgz:22129.got - 2010.04.10 21:57:39.
