data_PCOD8277084
_publ_section_title
;
Structure prediction by ZEFSAII (Michael W. Deem and Ramdas Pophale) SiO2 
 PCOD8277084
Probable space group: C C C M
;
_chemical_formula_sum "Si O2"
_cell_formula_units_Z 64
_cell_length_a 9.667263
_cell_length_b 17.985176
_cell_length_c 20.642451
_cell_angle_alpha 90.000000
_cell_angle_beta 90.000000
_cell_angle_gamma 90.000000
_cell_volume 3589.049832
_symmetry_space_group_name_H-M "C C C M"
_symmetry_group_IT_number 66
_symmetry_cell_setting 'orthorhombic'
loop_
_space_group_symop_operation_xyz
x,y,z
-x,-y,z
x,-y,1/2-z
-x,y,1/2-z
-x,-y,-z
x,y,-z
-x,y,1/2+z
x,-y,1/2+z
1/2+x,1/2+y,z
1/2-x,1/2-y,z
1/2+x,1/2-y,1/2-z
1/2-x,1/2+y,1/2-z
1/2-x,1/2-y,-z
1/2+x,1/2+y,-z
1/2-x,1/2+y,1/2+z
1/2+x,1/2-y,1/2+z
loop_
_atom_site_type_symbol
_atom_site_label
_atom_site_fract_x
_atom_site_fract_y
_atom_site_fract_z
Si Si1 0.852993 0.535041 0.683165
Si Si2 0.604313 0.208780 0.805469
Si Si3 0.097689 0.781631 0.069658
Si Si4 0.363666 0.452786 0.574124
O O1 0.794170 0.500000 0.750000
O O2 0.870263 0.621887 0.694584
O O3 0.752049 0.517315 0.623423
O O4 0.000000 0.500000 0.665201
O O5 0.500000 0.233568 0.750000
O O6 0.750000 0.250000 0.796087
O O7 0.528383 0.234630 0.872437
O O8 0.250000 0.750000 0.061498
O O9 0.102045 0.867583 0.089744
O O10 0.019796 0.771787 0.000000
O O11 0.500000 0.500000 0.586341
O O12 0.310478 0.461628 0.500000
#
# Coordination Sequence:
#
# PCOD8277084 Si02
#       4
#    16  16  16  16
#     4  11  22  39  57  84 127 158 189 243 303 355
#     4  11  21  38  61  88 113 153 200 241 287 351
#     4   9  17  34  61  84 109 149 198 237 281 346
#     4  10  21  38  61  91 120 151 201 253 295 349
#
# _framework density 17.832018000000001
#
# number of rings (size 3 to 8) (size 9 to 14) (size 15 to 20)
#    0.000    1.750    7.500    0.000    0.000    3.000 
#    0.000    0.000    0.000    0.750    0.000    0.000 
#    0.000    0.000    0.000    0.000    0.000    0.000 
#
# Total GULP energy -396595.780819 kJ/mol
# GULP energy per Si atom -12393.618151 kJ/mol
# Density = 1.779143 g / cm^3
# Si number density = 17.832018 Si / 1000 Ang^3
#
#
#
# Elastic Constant Matrix: (Units=GPa)
#
#
# Indices 1 2 3 4 5 6 
#
# 1 67.6830 43.6568 61.1660 0.0000 0.0000 0.0000
# 2 43.6568 140.2512 57.3493 0.0000 0.0000 0.0000
# 3 61.1660 57.3493 188.6874 0.0000 0.0000 0.0000
# 4 0.0000 0.0000 0.0000 34.1786 0.0000 0.0000
# 5 0.0000 0.0000 0.0000 0.0000 38.8915 0.0000
# 6 0.0000 0.0000 0.0000 0.0000 0.0000 24.5405
#
#
#
# Elastic Compliance Matrix: (Units=1/GPa)
#
#
# Indices 1 2 3 4 5 6 
#
# 1 0.023398 -0.004775 -0.006133 0.000000 0.000000 0.000000
# 2 -0.004775 0.009117 -0.001223 0.000000 0.000000 0.000000
# 3 -0.006133 -0.001223 0.007660 0.000000 0.000000 0.000000
# 4 0.000000 0.000000 0.000000 0.029258 0.000000 0.000000
# 5 0.000000 0.000000 0.000000 0.000000 0.025713 0.000000
# 6 0.000000 0.000000 0.000000 0.000000 0.000000 0.040749
#
#
# Mechanical properties :
#
#
# Convention : Reuss Voigt Hill
#
# Bulk Modulus (GPa) = 62.84974 80.10730 71.47852
# Shear Modulus (GPa) = 30.21881 35.15210 32.68546
#
# Velocity S-wave (km/s) = 4.12106 4.44474 4.28596
# Velocity P-wave (km/s) = 7.61355 8.44759 8.04139
#
# Compressibility (1/GPa) = 0.01591097
#
# Stress axis : x y z
#
# Youngs Moduli (GPa) = 42.73936 109.69105 130.55376
#
# Poissons Ratio (x) = 0.52379 0.80073
# Poissons Ratio (y) = 0.20409 0.15966
# Poissons Ratio (z) = 0.26214 0.13414
#
# Static dielectric constant tensor:
#      x y z
#    x 2.776340 0.000000 0.000000 
#    y 0.000000 2.910800 0.000000 
#    z 0.000000 0.000000 4.205770 
# 
# 
# High freq. dielectric constant tensor:
#      x y z
#    x 1.649230 0.000000 0.000000 
#    y 0.000000 1.703800 0.000000 
#    z 0.000000 0.000000 1.714600 
# 
# From -- ./inp_files/46592.got.cif
#   From: 2010.03.12/outbox.cif.g09.slc.cpg/sg66_24_cif.got.tgz:46592.got - 2010.04.10 21:57:39.
