data_PCOD8277663
_publ_section_title
;
Structure prediction by ZEFSAII (Michael W. Deem and Ramdas Pophale) SiO2 
 PCOD8277663
Probable space group: C C C M
;
_chemical_formula_sum "Si O2"
_cell_formula_units_Z 112
_cell_length_a 25.224146
_cell_length_b 15.681564
_cell_length_c 15.831017
_cell_angle_alpha 90.000000
_cell_angle_beta 90.000000
_cell_angle_gamma 90.000000
_cell_volume 6262.023046
_symmetry_space_group_name_H-M "C C C M"
_symmetry_group_IT_number 66
_symmetry_cell_setting 'orthorhombic'
loop_
_space_group_symop_operation_xyz
x,y,z
-x,-y,z
x,-y,1/2-z
-x,y,1/2-z
-x,-y,-z
x,y,-z
-x,y,1/2+z
x,-y,1/2+z
1/2+x,1/2+y,z
1/2-x,1/2-y,z
1/2+x,1/2-y,1/2-z
1/2-x,1/2+y,1/2-z
1/2-x,1/2-y,-z
1/2+x,1/2+y,-z
1/2-x,1/2+y,1/2+z
1/2+x,1/2-y,1/2+z
loop_
_atom_site_type_symbol
_atom_site_label
_atom_site_fract_x
_atom_site_fract_y
_atom_site_fract_z
Si Si1 0.323802 0.207051 0.500000
Si Si2 0.614135 0.175806 0.667329
Si Si3 0.714649 0.490322 0.653313
Si Si4 0.662411 0.008916 0.655494
Si Si5 0.604711 0.849000 0.637228
Si Si6 0.278963 0.607919 0.000000
Si Si7 0.991492 0.402943 0.598141
Si Si8 0.802680 0.798158 0.900704
O O1 0.361832 0.215566 0.581096
O O2 0.293158 0.294445 0.500000
O O3 0.285762 0.121242 0.500000
O O4 0.651061 0.104002 0.623236
O O5 0.617784 0.176550 0.767726
O O6 0.554154 0.153439 0.641887
O O7 0.641009 0.263268 0.635312
O O8 0.692738 0.500000 0.750000
O O9 0.776389 0.510164 0.651348
O O10 0.696224 0.559521 0.582886
O O11 0.699802 0.396674 0.623427
O O12 0.640348 0.000000 0.750000
O O13 0.626539 0.941360 0.605676
O O14 0.542797 0.845960 0.616827
O O15 0.978331 0.409254 0.500000
O O16 0.000000 0.500000 0.634754
O O17 0.750000 0.750000 0.863959
O O18 0.804004 0.787067 0.000000
#
# Coordination Sequence:
#
# PCOD8277663 Si02
#       8
#     8  16  16  16  16   8  16  16
#     4  11  24  38  57  85 117 151 191 242 295 343
#     4  11  22  35  55  83 116 155 199 235 275 343
#     4  11  22  39  59  82 115 159 197 237 291 345
#     4   9  18  32  51  80 115 154 190 231 277 333
#     4  11  21  37  56  79 117 157 191 236 288 339
#     4  11  24  40  59  85 117 153 197 242 289 353
#     4  11  22  35  55  83 117 156 193 232 286 348
#     4  11  23  37  56  84 119 156 193 237 289 343
#
# _framework density 17.885594000000001
#
# number of rings (size 3 to 8) (size 9 to 14) (size 15 to 20)
#    0.000    1.286    5.714    0.857    2.000    0.571 
#    2.571    0.000    0.000    0.000    0.000    2.000 
#    0.000    0.000    0.000    0.000    0.000    0.000 
#
# Total GULP energy -693745.180203 kJ/mol
# GULP energy per Si atom -12388.306789 kJ/mol
# Density = 1.784489 g / cm^3
# Si number density = 17.885594 Si / 1000 Ang^3
#
#
#
# Elastic Constant Matrix: (Units=GPa)
#
#
# Indices 1 2 3 4 5 6 
#
# 1 74.7763 28.7820 31.4548 0.0000 0.0000 0.0000
# 2 28.7820 88.7710 36.4684 0.0000 0.0000 0.0000
# 3 31.4548 36.4684 104.4737 0.0000 0.0000 0.0000
# 4 0.0000 0.0000 0.0000 24.0193 0.0000 0.0000
# 5 0.0000 0.0000 0.0000 0.0000 18.0675 0.0000
# 6 0.0000 0.0000 0.0000 0.0000 0.0000 28.4239
#
#
#
# Elastic Compliance Matrix: (Units=1/GPa)
#
#
# Indices 1 2 3 4 5 6 
#
# 1 0.016356 -0.003829 -0.003588 0.000000 0.000000 0.000000
# 2 -0.003829 0.014047 -0.003751 0.000000 0.000000 0.000000
# 3 -0.003588 -0.003751 0.011961 0.000000 0.000000 0.000000
# 4 0.000000 0.000000 0.000000 0.041633 0.000000 0.000000
# 5 0.000000 0.000000 0.000000 0.000000 0.055348 0.000000
# 6 0.000000 0.000000 0.000000 0.000000 0.000000 0.035182
#
#
# Mechanical properties :
#
#
# Convention : Reuss Voigt Hill
#
# Bulk Modulus (GPa) = 49.92631 51.27014 50.59823
# Shear Modulus (GPa) = 24.56525 25.52320 25.04423
#
# Velocity S-wave (km/s) = 3.71005 3.78170 3.74605
# Velocity P-wave (km/s) = 6.80643 6.91348 6.86016
#
# Compressibility (1/GPa) = 0.02002952
#
# Stress axis : x y z
#
# Youngs Moduli (GPa) = 61.13826 71.18832 83.60356
#
# Poissons Ratio (x) = 0.27260 0.29996
# Poissons Ratio (y) = 0.23411 0.31356
# Poissons Ratio (z) = 0.21936 0.26699
#
# Static dielectric constant tensor:
#      x y z
#    x 3.158040 0.000000 0.000000 
#    y 0.000000 3.166200 0.000000 
#    z 0.000000 0.000000 3.516700 
# 
# 
# High freq. dielectric constant tensor:
#      x y z
#    x 1.674190 0.000000 0.000000 
#    y 0.000000 1.668950 0.000000 
#    z 0.000000 0.000000 1.703750 
# 
# From -- ./inp_files/33376.got.cif
#   From: 2010.03.12/outbox.cif.g09.slc.cpg/sg66_17_cif.got.tgz:33376.got - 2010.04.10 21:57:39.
