data_PCOD8277790
_publ_section_title
;
Structure prediction by ZEFSAII (Michael W. Deem and Ramdas Pophale) SiO2 
 PCOD8277790
Probable space group: C C C M
;
_chemical_formula_sum "Si O2"
_cell_formula_units_Z 88
_cell_length_a 13.363273
_cell_length_b 13.454446
_cell_length_c 23.906994
_cell_angle_alpha 90.000000
_cell_angle_beta 90.000000
_cell_angle_gamma 90.000000
_cell_volume 4298.368385
_symmetry_space_group_name_H-M "C C C M"
_symmetry_group_IT_number 66
_symmetry_cell_setting 'orthorhombic'
loop_
_space_group_symop_operation_xyz
x,y,z
-x,-y,z
x,-y,1/2-z
-x,y,1/2-z
-x,-y,-z
x,y,-z
-x,y,1/2+z
x,-y,1/2+z
1/2+x,1/2+y,z
1/2-x,1/2-y,z
1/2+x,1/2-y,1/2-z
1/2-x,1/2+y,1/2-z
1/2-x,1/2-y,-z
1/2+x,1/2+y,-z
1/2-x,1/2+y,1/2+z
1/2+x,1/2-y,1/2+z
loop_
_atom_site_type_symbol
_atom_site_label
_atom_site_fract_x
_atom_site_fract_y
_atom_site_fract_z
Si Si1 0.748893 0.500000 0.750000
Si Si2 0.150183 0.308763 0.740646
Si Si3 0.019937 0.264577 0.160000
Si Si4 0.101839 0.688407 0.936463
Si Si5 0.809476 0.905502 0.435994
Si Si6 0.399236 0.449187 0.154768
O O1 0.819503 0.581301 0.719773
O O2 0.680999 0.554399 0.795886
O O3 0.250000 0.250000 0.751133
O O4 0.095218 0.324101 0.800232
O O5 0.082980 0.248935 0.695747
O O6 0.071145 0.163062 0.139138
O O7 0.991436 0.330572 0.105396
O O8 0.132872 0.802641 0.925902
O O9 0.192769 0.614063 0.922169
O O10 0.066252 0.672070 0.000000
O O11 0.821621 0.939587 0.500000
O O12 0.855064 0.993314 0.398752
O O13 0.500000 0.500000 0.177207
#
# Coordination Sequence:
#
# PCOD8277790 Si02
#       6
#     8  16  16  16  16  16
#     4  12  25  41  64  82 120 172 196 246 312 360
#     4  11  24  42  59  87 127 157 204 250 302 371
#     4  11  23  36  59  87 120 160 199 256 302 357
#     4   9  18  35  56  83 120 162 205 251 307 364
#     4   9  19  33  54  85 122 160 199 249 310 369
#     4  12  22  33  57  89 120 153 204 250 310 361
#
# _framework density 20.472885000000002
#
# number of rings (size 3 to 8) (size 9 to 14) (size 15 to 20)
#    0.000    1.455    3.636    3.545    5.091    2.545 
#    0.000    0.000    0.000    1.636    0.000    3.818 
#    0.000    0.000    0.000    0.000    0.000    0.000 
#
# Total GULP energy -545429.490840 kJ/mol
# GULP energy per Si atom -12396.124792 kJ/mol
# Density = 2.042629 g / cm^3
# Si number density = 20.472885 Si / 1000 Ang^3
#
#
#
# Elastic Constant Matrix: (Units=GPa)
#
#
# Indices 1 2 3 4 5 6 
#
# 1 105.4065 40.8527 58.3156 0.0000 0.0000 0.0000
# 2 40.8527 78.2390 35.6180 0.0000 0.0000 0.0000
# 3 58.3156 35.6180 114.4174 0.0000 0.0000 0.0000
# 4 0.0000 0.0000 0.0000 21.9957 0.0000 0.0000
# 5 0.0000 0.0000 0.0000 0.0000 24.0481 0.0000
# 6 0.0000 0.0000 0.0000 0.0000 0.0000 34.6175
#
#
#
# Elastic Compliance Matrix: (Units=1/GPa)
#
#
# Indices 1 2 3 4 5 6 
#
# 1 0.014703 -0.004970 -0.005947 0.000000 0.000000 0.000000
# 2 -0.004970 0.016572 -0.002626 0.000000 0.000000 0.000000
# 3 -0.005947 -0.002626 0.012588 0.000000 0.000000 0.000000
# 4 0.000000 0.000000 0.000000 0.045464 0.000000 0.000000
# 5 0.000000 0.000000 0.000000 0.000000 0.041583 0.000000
# 6 0.000000 0.000000 0.000000 0.000000 0.000000 0.028887
#
#
# Mechanical properties :
#
#
# Convention : Reuss Voigt Hill
#
# Bulk Modulus (GPa) = 59.60062 63.07060 61.33561
# Shear Modulus (GPa) = 25.97737 27.01736 26.49737
#
# Velocity S-wave (km/s) = 3.56598 3.63666 3.60149
# Velocity P-wave (km/s) = 6.79192 6.96473 6.87887
#
# Compressibility (1/GPa) = 0.01677835
#
# Stress axis : x y z
#
# Youngs Moduli (GPa) = 68.01150 60.34333 79.43958
#
# Poissons Ratio (x) = 0.29992 0.47241
# Poissons Ratio (y) = 0.33803 0.20858
# Poissons Ratio (z) = 0.40445 0.15844
#
# Static dielectric constant tensor:
#      x y z
#    x 3.919760 0.000000 0.000000 
#    y 0.000000 3.730230 0.000000 
#    z 0.000000 0.000000 3.804200 
# 
# 
# High freq. dielectric constant tensor:
#      x y z
#    x 1.801320 0.000000 0.000000 
#    y 0.000000 1.774830 0.000000 
#    z 0.000000 0.000000 1.801380 
# 
# From -- ./inp_files/63619.got.cif
#   From: 2010.03.12/outbox.cif.g09.slc.cpg/sg66_32_cif.got.tgz:63619.got - 2010.04.10 21:57:39.
