data_PCOD8277346
_publ_section_title
;
Structure prediction by ZEFSAII (Michael W. Deem and Ramdas Pophale) SiO2 
 PCOD8277346
Probable space group: C C C M
;
_chemical_formula_sum "Si O2"
_cell_formula_units_Z 96
_cell_length_a 14.091972
_cell_length_b 20.593915
_cell_length_c 14.753237
_cell_angle_alpha 90.000000
_cell_angle_beta 90.000000
_cell_angle_gamma 90.000000
_cell_volume 4281.520291
_symmetry_space_group_name_H-M "C C C M"
_symmetry_group_IT_number 66
_symmetry_cell_setting 'orthorhombic'
loop_
_space_group_symop_operation_xyz
x,y,z
-x,-y,z
x,-y,1/2-z
-x,y,1/2-z
-x,-y,-z
x,y,-z
-x,y,1/2+z
x,-y,1/2+z
1/2+x,1/2+y,z
1/2-x,1/2-y,z
1/2+x,1/2-y,1/2-z
1/2-x,1/2+y,1/2-z
1/2-x,1/2-y,-z
1/2+x,1/2+y,-z
1/2-x,1/2+y,1/2+z
1/2+x,1/2-y,1/2+z
loop_
_atom_site_type_symbol
_atom_site_label
_atom_site_fract_x
_atom_site_fract_y
_atom_site_fract_z
Si Si1 0.428059 0.337265 0.828053
Si Si2 0.798303 0.521276 0.894360
Si Si3 0.091613 0.027282 0.101069
Si Si4 0.715262 0.147805 0.280805
Si Si5 0.059911 0.701433 0.396880
Si Si6 0.378176 0.115797 0.396449
O O1 0.500000 0.359139 0.750000
O O2 0.414631 0.394947 0.899780
O O3 0.322381 0.328277 0.788405
O O4 0.474957 0.275090 0.878477
O O5 0.692010 0.499904 0.861190
O O6 0.821391 0.581165 0.829045
O O7 0.874194 0.462769 0.882992
O O8 0.796382 0.544484 0.000000
O O9 0.086464 0.000056 0.000000
O O10 0.000000 0.000000 0.156109
O O11 0.648418 0.199738 0.329269
O O12 0.696071 0.146639 0.173159
O O13 0.093759 0.693416 0.500000
O O14 0.981392 0.646231 0.374741
O O15 0.348789 0.133104 0.500000
#
# Coordination Sequence:
#
# PCOD8277346 Si02
#       6
#    16  16  16  16  16  16
#     4  11  24  39  60  93 127 164 211 263 313 380
#     4   9  19  36  60  94 129 162 210 262 315 374
#     4   9  19  36  60  87 121 163 205 258 315 372
#     4  11  22  39  65  93 127 167 213 263 317 377
#     4  11  24  43  66  90 123 167 216 269 321 379
#     4  10  22  40  63  92 130 169 210 261 320 389
#
# _framework density 22.421942000000001
#
# number of rings (size 3 to 8) (size 9 to 14) (size 15 to 20)
#    0.000    1.833    0.000    3.500    2.333    3.667 
#    0.000    5.000    0.000    4.000    0.000    0.000 
#    0.000    0.000    0.000    0.000    0.000    0.000 
#
# Total GULP energy -594630.169652 kJ/mol
# GULP energy per Si atom -12388.128534 kJ/mol
# Density = 2.237091 g / cm^3
# Si number density = 22.421942 Si / 1000 Ang^3
#
#
#
# Elastic Constant Matrix: (Units=GPa)
#
#
# Indices 1 2 3 4 5 6 
#
# 1 107.5604 50.4347 32.7770 0.0000 0.0000 0.0000
# 2 50.4347 91.6105 15.5983 0.0000 0.0000 0.0000
# 3 32.7770 15.5983 102.8366 0.0000 0.0000 0.0000
# 4 0.0000 0.0000 0.0000 24.9292 0.0000 0.0000
# 5 0.0000 0.0000 0.0000 0.0000 15.0710 0.0000
# 6 0.0000 0.0000 0.0000 0.0000 0.0000 36.4869
#
#
#
# Elastic Compliance Matrix: (Units=1/GPa)
#
#
# Indices 1 2 3 4 5 6 
#
# 1 0.013522 -0.006888 -0.003265 0.000000 0.000000 0.000000
# 2 -0.006888 0.014714 -0.000036 0.000000 0.000000 0.000000
# 3 -0.003265 -0.000036 0.010770 0.000000 0.000000 0.000000
# 4 0.000000 0.000000 0.000000 0.040114 0.000000 0.000000
# 5 0.000000 0.000000 0.000000 0.000000 0.066352 0.000000
# 6 0.000000 0.000000 0.000000 0.000000 0.000000 0.027407
#
#
# Mechanical properties :
#
#
# Convention : Reuss Voigt Hill
#
# Bulk Modulus (GPa) = 53.68524 55.51418 54.59971
# Shear Modulus (GPa) = 25.06665 28.84392 26.95529
#
# Velocity S-wave (km/s) = 3.34721 3.59055 3.47101
# Velocity P-wave (km/s) = 6.23967 6.48090 6.36143
#
# Compressibility (1/GPa) = 0.01862709
#
# Stress axis : x y z
#
# Youngs Moduli (GPa) = 73.95358 67.96124 92.84764
#
# Poissons Ratio (x) = 0.46814 0.30315
# Poissons Ratio (y) = 0.50942 0.00337
# Poissons Ratio (z) = 0.24146 0.00247
#
# Static dielectric constant tensor:
#      x y z
#    x 4.146300 0.000000 0.000000 
#    y 0.000000 4.004050 0.000000 
#    z 0.000000 0.000000 3.992330 
# 
# 
# High freq. dielectric constant tensor:
#      x y z
#    x 1.878600 0.000000 0.000000 
#    y 0.000000 1.879430 0.000000 
#    z 0.000000 0.000000 1.882720 
# 
# From -- ./inp_files/28303.got.cif
#   From: 2010.03.12/outbox.cif.g09.slc.cpg/sg66_15_cif.got.tgz:28303.got - 2010.04.10 21:57:39.
