data_PCOD8277128
_publ_section_title
;
Structure prediction by ZEFSAII (Michael W. Deem and Ramdas Pophale) SiO2 
 PCOD8277128
Probable space group: C C C M
;
_chemical_formula_sum "Si O2"
_cell_formula_units_Z 80
_cell_length_a 12.522193
_cell_length_b 11.788607
_cell_length_c 26.374742
_cell_angle_alpha 90.000000
_cell_angle_beta 90.000000
_cell_angle_gamma 90.000000
_cell_volume 3893.418632
_symmetry_space_group_name_H-M "C C C M"
_symmetry_group_IT_number 66
_symmetry_cell_setting 'orthorhombic'
loop_
_space_group_symop_operation_xyz
x,y,z
-x,-y,z
x,-y,1/2-z
-x,y,1/2-z
-x,-y,-z
x,y,-z
-x,y,1/2+z
x,-y,1/2+z
1/2+x,1/2+y,z
1/2-x,1/2-y,z
1/2+x,1/2-y,1/2-z
1/2-x,1/2+y,1/2-z
1/2-x,1/2-y,-z
1/2+x,1/2+y,-z
1/2-x,1/2+y,1/2+z
1/2+x,1/2-y,1/2+z
loop_
_atom_site_type_symbol
_atom_site_label
_atom_site_fract_x
_atom_site_fract_y
_atom_site_fract_z
Si Si1 0.204543 0.511799 0.395431
Si Si2 0.472339 0.751705 0.695417
Si Si3 0.408274 0.685134 0.000000
Si Si4 0.750000 0.750000 0.851618
Si Si5 0.323590 0.920289 0.000000
Si Si6 0.428192 0.605381 0.889978
Si Si7 0.500000 0.000000 0.830362
O O1 0.233041 0.642724 0.387701
O O2 0.163657 0.502077 0.452515
O O3 0.303858 0.427362 0.385279
O O4 0.106240 0.473108 0.361702
O O5 0.500000 0.695918 0.750000
O O6 0.349960 0.722098 0.683956
O O7 0.548163 0.705699 0.650151
O O8 0.482997 0.887166 0.702305
O O9 0.462550 0.641490 0.052465
O O10 0.413225 0.821787 0.000000
O O11 0.289067 0.641151 0.000000
O O12 0.500000 0.500000 0.873497
#
# Coordination Sequence:
#
# PCOD8277128 Si02
#       7
#    16  16   8   8   8  16   8
#     4  10  21  39  62  89 129 162 213 257 313 371
#     4  11  24  42  65  91 125 163 211 255 316 369
#     4   9  19  34  60  90 128 157 209 255 310 368
#     4  10  22  43  58  88 128 163 200 262 316 378
#     4   9  18  34  58  91 120 166 208 260 304 370
#     4  11  21  39  64  94 122 165 208 259 309 372
#     4  10  23  41  62  88 126 169 202 260 317 376
#
# _framework density 20.547495999999999
#
# number of rings (size 3 to 8) (size 9 to 14) (size 15 to 20)
#    0.000    1.800    2.000    1.800    0.000    5.200 
#    0.000    6.000    0.000    0.000    0.000    0.000 
#    0.000    0.000    0.000    0.000    0.000    0.000 
#
# Total GULP energy -495898.686475 kJ/mol
# GULP energy per Si atom -12397.467162 kJ/mol
# Density = 2.050073 g / cm^3
# Si number density = 20.547496 Si / 1000 Ang^3
#
#
#
# Elastic Constant Matrix: (Units=GPa)
#
#
# Indices 1 2 3 4 5 6 
#
# 1 97.5364 23.3226 32.4204 0.0000 0.0000 0.0000
# 2 23.3226 83.9019 38.2181 0.0000 0.0000 0.0000
# 3 32.4204 38.2181 138.0524 0.0000 0.0000 0.0000
# 4 0.0000 0.0000 0.0000 31.0496 0.0000 0.0000
# 5 0.0000 0.0000 0.0000 0.0000 23.7404 0.0000
# 6 0.0000 0.0000 0.0000 0.0000 0.0000 30.7522
#
#
#
# Elastic Compliance Matrix: (Units=1/GPa)
#
#
# Indices 1 2 3 4 5 6 
#
# 1 0.011479 -0.002246 -0.002074 0.000000 0.000000 0.000000
# 2 -0.002246 0.014078 -0.003370 0.000000 0.000000 0.000000
# 3 -0.002074 -0.003370 0.008664 0.000000 0.000000 0.000000
# 4 0.000000 0.000000 0.000000 0.032207 0.000000 0.000000
# 5 0.000000 0.000000 0.000000 0.000000 0.042122 0.000000
# 6 0.000000 0.000000 0.000000 0.000000 0.000000 0.032518
#
#
# Mechanical properties :
#
#
# Convention : Reuss Voigt Hill
#
# Bulk Modulus (GPa) = 53.07642 56.37922 54.72782
# Shear Modulus (GPa) = 30.72618 32.14374 31.43496
#
# Velocity S-wave (km/s) = 3.87120 3.95949 3.91560
# Velocity P-wave (km/s) = 6.77265 6.95712 6.86550
#
# Compressibility (1/GPa) = 0.01884076
#
# Stress axis : x y z
#
# Youngs Moduli (GPa) = 87.11523 71.03255 115.42598
#
# Poissons Ratio (x) = 0.15955 0.23938
# Poissons Ratio (y) = 0.19568 0.38897
# Poissons Ratio (z) = 0.18067 0.23937
#
# Static dielectric constant tensor:
#      x y z
#    x 3.734460 0.000000 0.000000 
#    y 0.000000 3.749130 0.000000 
#    z 0.000000 0.000000 3.744550 
# 
# 
# High freq. dielectric constant tensor:
#      x y z
#    x 1.800310 0.000000 0.000000 
#    y 0.000000 1.808730 0.000000 
#    z 0.000000 0.000000 1.800470 
# 
# From -- ./inp_files/57973.got.cif
#   From: 2010.03.12/outbox.cif.g09.slc.cpg/sg66_29_cif.got.tgz:57973.got - 2010.04.10 21:57:39.
