data_PCOD8277782
_publ_section_title
;
Structure prediction by ZEFSAII (Michael W. Deem and Ramdas Pophale) SiO2 
 PCOD8277782
Probable space group: C C C M
;
_chemical_formula_sum "Si O2"
_cell_formula_units_Z 64
_cell_length_a 14.487080
_cell_length_b 11.164357
_cell_length_c 17.137373
_cell_angle_alpha 90.000000
_cell_angle_beta 90.000000
_cell_angle_gamma 90.000000
_cell_volume 2771.780424
_symmetry_space_group_name_H-M "C C C M"
_symmetry_group_IT_number 66
_symmetry_cell_setting 'orthorhombic'
loop_
_space_group_symop_operation_xyz
x,y,z
-x,-y,z
x,-y,1/2-z
-x,y,1/2-z
-x,-y,-z
x,y,-z
-x,y,1/2+z
x,-y,1/2+z
1/2+x,1/2+y,z
1/2-x,1/2-y,z
1/2+x,1/2-y,1/2-z
1/2-x,1/2+y,1/2-z
1/2-x,1/2-y,-z
1/2+x,1/2+y,-z
1/2-x,1/2+y,1/2+z
1/2+x,1/2-y,1/2+z
loop_
_atom_site_type_symbol
_atom_site_label
_atom_site_fract_x
_atom_site_fract_y
_atom_site_fract_z
Si Si1 0.666167 0.873153 0.287078
Si Si2 0.635245 0.455767 0.168572
Si Si3 0.955551 0.742986 0.411694
Si Si4 0.847213 0.780377 0.133711
O O1 0.771125 0.878067 0.318866
O O2 0.597118 0.853762 0.359100
O O3 0.653251 0.766599 0.223810
O O4 0.639419 0.000000 0.250000
O O5 0.591455 0.500000 0.250000
O O6 0.562494 0.376283 0.121264
O O7 0.653717 0.577073 0.122334
O O8 0.919687 0.730526 0.500000
O O9 0.065657 0.721118 0.409479
O O10 0.750000 0.750000 0.092694
#
# Coordination Sequence:
#
# PCOD8277782 Si02
#       4
#    16  16  16  16
#     4  11  23  44  74 107 135 181 241 292 342 417
#     4  11  22  43  74 107 134 177 240 298 345 407
#     4  12  28  45  70 107 145 187 229 288 363 420
#     4  12  23  44  71 101 140 186 243 289 343 410
#
# _framework density 23.089852
#
# number of rings (size 3 to 8) (size 9 to 14) (size 15 to 20)
#    0.000    0.500    7.500    2.250    0.000    7.500 
#    0.000    2.500    0.000    0.000    0.000    0.000 
#    0.000    0.000    0.000    0.000    0.000    0.000 
#
# Total GULP energy -396708.744542 kJ/mol
# GULP energy per Si atom -12397.148267 kJ/mol
# Density = 2.303730 g / cm^3
# Si number density = 23.089852 Si / 1000 Ang^3
#
#
#
# Elastic Constant Matrix: (Units=GPa)
#
#
# Indices 1 2 3 4 5 6 
#
# 1 147.9929 47.4200 52.4038 0.0000 0.0000 0.0000
# 2 47.4200 79.2949 25.1736 0.0000 0.0000 0.0000
# 3 52.4038 25.1736 109.1545 0.0000 0.0000 0.0000
# 4 0.0000 0.0000 0.0000 21.7533 0.0000 0.0000
# 5 0.0000 0.0000 0.0000 0.0000 -303.2165 0.0000
# 6 0.0000 0.0000 0.0000 0.0000 0.0000 22.1626
#
#
#
# Elastic Compliance Matrix: (Units=1/GPa)
#
#
# Indices 1 2 3 4 5 6 
#
# 1 0.009448 -0.004543 -0.003488 0.000000 0.000000 0.000000
# 2 -0.004543 0.015792 -0.001461 0.000000 0.000000 0.000000
# 3 -0.003488 -0.001461 0.011173 0.000000 0.000000 0.000000
# 4 0.000000 0.000000 0.000000 0.045970 0.000000 0.000000
# 5 0.000000 0.000000 0.000000 0.000000 -0.003298 0.000000
# 6 0.000000 0.000000 0.000000 0.000000 0.000000 0.045121
#
#
# Mechanical properties :
#
#
# Convention : Reuss Voigt Hill
#
# Bulk Modulus (GPa) = 57.37678 65.15966 61.26822
# Shear Modulus (GPa) = 33.55739 -37.76380 -2.10321
#
# Velocity S-wave (km/s) = 3.81640 -4.04854 -0.95543
# Velocity P-wave (km/s) = 6.65757 2.53517 5.03738
#
# Compressibility (1/GPa) = 0.01742865
#
# Stress axis : x y z
#
# Youngs Moduli (GPa) = 105.84525 63.32496 89.50237
#
# Poissons Ratio (x) = 0.28766 0.31220
# Poissons Ratio (y) = 0.48081 0.13077
# Poissons Ratio (z) = 0.36920 0.09252
#
# Static dielectric constant tensor:
#      x y z
#    x 4.307080 0.000000 0.000000 
#    y 0.000000 4.294890 0.000000 
#    z 0.000000 0.000000 3.736860 
# 
# 
# High freq. dielectric constant tensor:
#      x y z
#    x 1.925890 0.000000 0.000000 
#    y 0.000000 1.926630 0.000000 
#    z 0.000000 0.000000 1.871980 
# 
# From -- ./inp_files/37967.got.cif
#   From: 2010.03.12/outbox.cif.g09.slc.cpg/sg66_19_cif.got.tgz:37967.got - 2010.04.10 21:57:39.
