data_PCOD8277613
_publ_section_title
;
Structure prediction by ZEFSAII (Michael W. Deem and Ramdas Pophale) SiO2 
 PCOD8277613
Probable space group: C C C M
;
_chemical_formula_sum "Si O2"
_cell_formula_units_Z 56
_cell_length_a 22.134949
_cell_length_b 7.241362
_cell_length_c 17.624765
_cell_angle_alpha 90.000000
_cell_angle_beta 90.000000
_cell_angle_gamma 90.000000
_cell_volume 2825.023855
_symmetry_space_group_name_H-M "C C C M"
_symmetry_group_IT_number 66
_symmetry_cell_setting 'orthorhombic'
loop_
_space_group_symop_operation_xyz
x,y,z
-x,-y,z
x,-y,1/2-z
-x,y,1/2-z
-x,-y,-z
x,y,-z
-x,y,1/2+z
x,-y,1/2+z
1/2+x,1/2+y,z
1/2-x,1/2-y,z
1/2+x,1/2-y,1/2-z
1/2-x,1/2+y,1/2-z
1/2-x,1/2-y,-z
1/2+x,1/2+y,-z
1/2-x,1/2+y,1/2+z
1/2+x,1/2-y,1/2+z
loop_
_atom_site_type_symbol
_atom_site_label
_atom_site_fract_x
_atom_site_fract_y
_atom_site_fract_z
Si Si1 0.915278 0.413344 0.589186
Si Si2 0.184382 0.325844 0.195251
Si Si3 0.398500 0.500000 0.250000
Si Si4 0.479082 0.248097 0.667219
O O1 0.917008 0.440546 0.500000
O O2 0.846781 0.373573 0.615153
O O3 0.933828 0.601774 0.630397
O O4 0.960883 0.247224 0.614042
O O5 0.190268 0.500000 0.250000
O O6 0.250000 0.250000 0.175735
O O7 0.142911 0.174740 0.235471
O O8 0.443234 0.444003 0.320834
O O9 0.500000 0.177595 0.750000
#
# Coordination Sequence:
#
# PCOD8277613 Si02
#       4
#    16  16   8  16
#     4  11  23  40  63  97 141 174 202 258 340 395
#     4  12  24  43  69  95 124 169 225 276 313 373
#     4  12  23  38  70  98 124 159 226 282 312 361
#     4  11  20  37  66  96 125 166 217 268 314 372
#
# _framework density 19.822841
#
# number of rings (size 3 to 8) (size 9 to 14) (size 15 to 20)
#    0.000    0.571    7.143    3.857    0.000    0.571 
#    0.000    4.286    0.000    2.571    0.000    0.000 
#    0.000    0.000    0.000    0.000    0.000    0.000 
#
# Total GULP energy -346917.572160 kJ/mol
# GULP energy per Si atom -12389.913291 kJ/mol
# Density = 1.977772 g / cm^3
# Si number density = 19.822841 Si / 1000 Ang^3
#
#
#
# Elastic Constant Matrix: (Units=GPa)
#
#
# Indices 1 2 3 4 5 6 
#
# 1 167.5439 54.5953 52.9225 0.0000 0.0000 0.0000
# 2 54.5953 109.2413 45.0162 0.0000 0.0000 0.0000
# 3 52.9225 45.0162 138.3094 0.0000 0.0000 0.0000
# 4 0.0000 0.0000 0.0000 10.9339 0.0000 0.0000
# 5 0.0000 0.0000 0.0000 0.0000 12.7007 0.0000
# 6 0.0000 0.0000 0.0000 0.0000 0.0000 33.8977
#
#
#
# Elastic Compliance Matrix: (Units=1/GPa)
#
#
# Indices 1 2 3 4 5 6 
#
# 1 0.007545 -0.002981 -0.001917 0.000000 0.000000 0.000000
# 2 -0.002981 0.011750 -0.002684 0.000000 0.000000 0.000000
# 3 -0.001917 -0.002684 0.008837 0.000000 0.000000 0.000000
# 4 0.000000 0.000000 0.000000 0.091459 0.000000 0.000000
# 5 0.000000 0.000000 0.000000 0.000000 0.078736 0.000000
# 6 0.000000 0.000000 0.000000 0.000000 0.000000 0.029501
#
#
# Mechanical properties :
#
#
# Convention : Reuss Voigt Hill
#
# Bulk Modulus (GPa) = 77.10586 80.01805 78.56195
# Shear Modulus (GPa) = 20.21727 29.01051 24.61389
#
# Velocity S-wave (km/s) = 3.19705 3.82971 3.52759
# Velocity P-wave (km/s) = 7.25328 7.74660 7.50399
#
# Compressibility (1/GPa) = 0.01296918
#
# Stress axis : x y z
#
# Youngs Moduli (GPa) = 132.52948 85.10836 113.15940
#
# Poissons Ratio (x) = 0.25371 0.21692
# Poissons Ratio (y) = 0.39508 0.30367
# Poissons Ratio (z) = 0.25405 0.22839
#
# Static dielectric constant tensor:
#      x y z
#    x 4.014570 0.000000 0.000000 
#    y 0.000000 3.824230 0.000000 
#    z 0.000000 0.000000 3.354100 
# 
# 
# High freq. dielectric constant tensor:
#      x y z
#    x 1.787510 0.000000 0.000000 
#    y 0.000000 1.787920 0.000000 
#    z 0.000000 0.000000 1.740630 
# 
# From -- ./inp_files/31814.got.cif
#   From: 2010.03.12/outbox.cif.g09.slc.cpg/sg66_16_cif.got.tgz:31814.got - 2010.04.10 21:57:39.
