data_PCOD8277127
_publ_section_title
;
Structure prediction by ZEFSAII (Michael W. Deem and Ramdas Pophale) SiO2 
 PCOD8277127
Probable space group: C C C M
;
_chemical_formula_sum "Si O2"
_cell_formula_units_Z 96
_cell_length_a 20.897346
_cell_length_b 15.665201
_cell_length_c 14.956528
_cell_angle_alpha 90.000000
_cell_angle_beta 90.000000
_cell_angle_gamma 90.000000
_cell_volume 4896.185839
_symmetry_space_group_name_H-M "C C C M"
_symmetry_group_IT_number 66
_symmetry_cell_setting 'orthorhombic'
loop_
_space_group_symop_operation_xyz
x,y,z
-x,-y,z
x,-y,1/2-z
-x,y,1/2-z
-x,-y,-z
x,y,-z
-x,y,1/2+z
x,-y,1/2+z
1/2+x,1/2+y,z
1/2-x,1/2-y,z
1/2+x,1/2-y,1/2-z
1/2-x,1/2+y,1/2-z
1/2-x,1/2-y,-z
1/2+x,1/2+y,-z
1/2-x,1/2+y,1/2+z
1/2+x,1/2-y,1/2+z
loop_
_atom_site_type_symbol
_atom_site_label
_atom_site_fract_x
_atom_site_fract_y
_atom_site_fract_z
Si Si1 0.320223 0.785444 0.250000
Si Si2 0.863284 0.597779 0.900795
Si Si3 0.424948 0.500000 0.398221
Si Si4 0.500000 0.899239 0.650478
Si Si5 0.576269 0.363890 0.250000
Si Si6 0.863284 0.597779 0.599205
O O1 0.250000 0.750000 0.250000
O O2 0.321696 0.844258 0.337008
O O3 0.378594 0.718700 0.250000
O O4 0.321695 0.844258 0.162992
O O5 0.859997 0.500000 0.867356
O O6 0.936685 0.631352 0.900787
O O7 0.835207 0.606661 0.000000
O O8 0.500000 0.500000 0.409714
O O9 0.394475 0.500000 0.500000
O O10 0.405578 0.583231 0.339984
O O11 0.405578 0.416769 0.339984
O O12 0.500000 0.859713 0.750000
O O13 0.563315 0.868648 0.599213
O O14 0.500000 0.000000 0.655442
O O15 0.500000 0.340905 0.250000
O O16 0.835207 0.606661 0.500000
#
# Coordination Sequence:
#
# PCOD8277127 Si02
#       6
#    16  16  16  16  16  16
#     4  12  26  40  57  86 127 158 193 250 300 345
#     4  10  21  39  62  87 119 160 201 239 288 355
#     4   8  15  35  64  89 113 142 187 246 300 350
#     4   9  15  29  59  92 117 145 190 240 285 337
#     4   9  20  37  60  89 115 147 192 240 295 357
#     4  10  21  39  62  87 119 160 201 239 288 355
#
# _framework density 19.607099000000002
#
# number of rings (size 3 to 8) (size 9 to 14) (size 15 to 20)
#    0.000    2.333    1.667    2.000    2.333    4.000 
#    6.000    0.000    0.000    0.000    0.000    0.000 
#    0.000    0.000    0.000    0.000    0.000    0.000 
#
# Total GULP energy -594794.317792 kJ/mol
# GULP energy per Si atom -12391.548287 kJ/mol
# Density = 1.956247 g / cm^3
# Si number density = 19.607099 Si / 1000 Ang^3
#
#
#
# Elastic Constant Matrix: (Units=GPa)
#
#
# Indices 1 2 3 4 5 6 
#
# 1 100.5661 56.8496 41.3715 0.0000 0.0000 0.0000
# 2 56.8496 97.1335 63.9537 0.0000 0.0000 0.0000
# 3 41.3715 63.9537 150.0924 0.0000 0.0000 0.0000
# 4 0.0000 0.0000 0.0000 -2.3447 0.0000 0.0000
# 5 0.0000 0.0000 0.0000 0.0000 8.0419 0.0000
# 6 0.0000 0.0000 0.0000 0.0000 0.0000 27.1127
#
#
#
# Elastic Compliance Matrix: (Units=1/GPa)
#
#
# Indices 1 2 3 4 5 6 
#
# 1 0.014892 -0.008358 -0.000544 0.000000 0.000000 0.000000
# 2 -0.008358 0.019001 -0.005792 0.000000 0.000000 0.000000
# 3 -0.000544 -0.005792 0.009280 0.000000 0.000000 0.000000
# 4 0.000000 0.000000 0.000000 -0.426489 0.000000 0.000000
# 5 0.000000 0.000000 0.000000 0.000000 0.124348 0.000000
# 6 0.000000 0.000000 0.000000 0.000000 0.000000 0.036883
#
#
# Mechanical properties :
#
#
# Convention : Reuss Voigt Hill
#
# Bulk Modulus (GPa) = 72.54052 74.68241 73.61146
# Shear Modulus (GPa) = -26.58134 18.93646 -3.82244
#
# Velocity S-wave (km/s) = -3.68598 3.11110 -1.39777
# Velocity P-wave (km/s) = 4.35455 7.14685 5.91775
#
# Compressibility (1/GPa) = 0.01378540
#
# Stress axis : x y z
#
# Youngs Moduli (GPa) = 67.14969 52.63014 107.75382
#
# Poissons Ratio (x) = 0.43989 0.05857
# Poissons Ratio (y) = 0.56124 0.62413
# Poissons Ratio (z) = 0.03650 0.30484
#
# Static dielectric constant tensor:
#      x y z
#    x 3.359310 0.000000 0.000000 
#    y 0.000000 3.456480 0.000000 
#    z 0.000000 0.000000 3.979510 
# 
# 
# High freq. dielectric constant tensor:
#      x y z
#    x 1.727950 0.000000 0.000000 
#    y 0.000000 1.750520 0.000000 
#    z 0.000000 0.000000 1.776420 
# 
# From -- ./inp_files/31194.got.cif
#   From: 2010.03.12/outbox.cif.g09.slc.cpg/sg66_16_cif.got.tgz:31194.got - 2010.04.10 21:57:39.
