data_PCOD8277845
_publ_section_title
;
Structure prediction by ZEFSAII (Michael W. Deem and Ramdas Pophale) SiO2 
 PCOD8277845
Probable space group: C C C M
;
_chemical_formula_sum "Si O2"
_cell_formula_units_Z 72
_cell_length_a 13.038613
_cell_length_b 15.358951
_cell_length_c 16.665339
_cell_angle_alpha 90.000000
_cell_angle_beta 90.000000
_cell_angle_gamma 90.000000
_cell_volume 3337.391092
_symmetry_space_group_name_H-M "C C C M"
_symmetry_group_IT_number 66
_symmetry_cell_setting 'orthorhombic'
loop_
_space_group_symop_operation_xyz
x,y,z
-x,-y,z
x,-y,1/2-z
-x,y,1/2-z
-x,-y,-z
x,y,-z
-x,y,1/2+z
x,-y,1/2+z
1/2+x,1/2+y,z
1/2-x,1/2-y,z
1/2+x,1/2-y,1/2-z
1/2-x,1/2+y,1/2-z
1/2-x,1/2-y,-z
1/2+x,1/2+y,-z
1/2-x,1/2+y,1/2+z
1/2+x,1/2-y,1/2+z
loop_
_atom_site_type_symbol
_atom_site_label
_atom_site_fract_x
_atom_site_fract_y
_atom_site_fract_z
Si Si1 0.283801 0.049314 0.332562
Si Si2 0.430373 0.816547 0.906176
Si Si3 0.250000 0.750000 0.700415
Si Si4 0.847191 0.384424 0.589285
Si Si5 0.592201 0.656672 0.304851
O O1 0.344807 0.138912 0.348988
O O2 0.163150 0.075258 0.332060
O O3 0.315103 0.000000 0.250000
O O4 0.314887 0.985512 0.404879
O O5 0.534045 0.870067 0.889881
O O6 0.445312 0.714812 0.880977
O O7 0.398544 0.819195 0.000000
O O8 0.227437 0.665750 0.648154
O O9 0.347874 0.726262 0.751740
O O10 0.825455 0.351153 0.500000
O O11 0.500000 0.619417 0.250000
#
# Coordination Sequence:
#
# PCOD8277845 Si02
#       5
#    16  16   8  16  16
#     4  12  24  41  65  98 133 177 217 272 338 394
#     4  11  24  42  69 102 134 172 221 284 341 392
#     4  12  21  44  67  94 122 184 224 268 335 394
#     4  11  24  42  66  97 134 172 220 278 336 397
#     4  12  24  43  69  97 135 176 228 275 328 404
#
# _framework density 21.573739
#
# number of rings (size 3 to 8) (size 9 to 14) (size 15 to 20)
#    0.000    0.444    6.667    1.667    0.000    5.778 
#    0.000    0.000    0.000    1.333    0.000    0.000 
#    0.000    0.000    0.000    0.000    0.000    0.000 
#
# Total GULP energy -446366.050624 kJ/mol
# GULP energy per Si atom -12399.056962 kJ/mol
# Density = 2.152464 g / cm^3
# Si number density = 21.573739 Si / 1000 Ang^3
#
#
#
# Elastic Constant Matrix: (Units=GPa)
#
#
# Indices 1 2 3 4 5 6 
#
# 1 112.3350 37.9732 40.8523 0.0000 0.0000 0.0000
# 2 37.9732 67.4326 22.0579 0.0000 0.0000 0.0000
# 3 40.8523 22.0579 77.9916 0.0000 0.0000 0.0000
# 4 0.0000 0.0000 0.0000 35.9456 0.0000 0.0000
# 5 0.0000 0.0000 0.0000 0.0000 17.8346 0.0000
# 6 0.0000 0.0000 0.0000 0.0000 0.0000 48.6542
#
#
#
# Elastic Compliance Matrix: (Units=1/GPa)
#
#
# Indices 1 2 3 4 5 6 
#
# 1 0.012574 -0.005428 -0.005051 0.000000 0.000000 0.000000
# 2 -0.005428 0.018685 -0.002441 0.000000 0.000000 0.000000
# 3 -0.005051 -0.002441 0.016158 0.000000 0.000000 0.000000
# 4 0.000000 0.000000 0.000000 0.027820 0.000000 0.000000
# 5 0.000000 0.000000 0.000000 0.000000 0.056071 0.000000
# 6 0.000000 0.000000 0.000000 0.000000 0.000000 0.020553
#
#
# Mechanical properties :
#
#
# Convention : Reuss Voigt Hill
#
# Bulk Modulus (GPa) = 46.34814 51.05846 48.70330
# Shear Modulus (GPa) = 27.04261 30.94529 28.99395
#
# Velocity S-wave (km/s) = 3.54432 3.79145 3.66996
# Velocity P-wave (km/s) = 6.18707 6.54867 6.37044
#
# Compressibility (1/GPa) = 0.02157584
#
# Stress axis : x y z
#
# Youngs Moduli (GPa) = 79.53060 53.51872 61.88892
#
# Poissons Ratio (x) = 0.29052 0.31259
# Poissons Ratio (y) = 0.43173 0.15108
# Poissons Ratio (z) = 0.40170 0.13065
#
# Static dielectric constant tensor:
#      x y z
#    x 3.871570 0.000000 0.000000 
#    y 0.000000 4.083260 0.000000 
#    z 0.000000 0.000000 3.901390 
# 
# 
# High freq. dielectric constant tensor:
#      x y z
#    x 1.840300 0.000000 0.000000 
#    y 0.000000 1.849210 0.000000 
#    z 0.000000 0.000000 1.849970 
# 
# From -- ./inp_files/38344.got.cif
#   From: 2010.03.12/outbox.cif.g09.slc.cpg/sg66_20_cif.got.tgz:38344.got - 2010.04.10 21:57:39.
