data_PCOD8277178
_publ_section_title
;
Structure prediction by ZEFSAII (Michael W. Deem and Ramdas Pophale) SiO2 
 PCOD8277178
Probable space group: C C C M
;
_chemical_formula_sum "Si O2"
_cell_formula_units_Z 88
_cell_length_a 24.174344
_cell_length_b 5.880158
_cell_length_c 27.456088
_cell_angle_alpha 90.000000
_cell_angle_beta 90.000000
_cell_angle_gamma 90.000000
_cell_volume 3902.854417
_symmetry_space_group_name_H-M "C C C M"
_symmetry_group_IT_number 66
_symmetry_cell_setting 'orthorhombic'
loop_
_space_group_symop_operation_xyz
x,y,z
-x,-y,z
x,-y,1/2-z
-x,y,1/2-z
-x,-y,-z
x,y,-z
-x,y,1/2+z
x,-y,1/2+z
1/2+x,1/2+y,z
1/2-x,1/2-y,z
1/2+x,1/2-y,1/2-z
1/2-x,1/2+y,1/2-z
1/2-x,1/2-y,-z
1/2+x,1/2+y,-z
1/2-x,1/2+y,1/2+z
1/2+x,1/2-y,1/2+z
loop_
_atom_site_type_symbol
_atom_site_label
_atom_site_fract_x
_atom_site_fract_y
_atom_site_fract_z
Si Si1 0.641902 0.743142 0.613533
Si Si2 0.909086 0.863023 0.054057
Si Si3 0.796855 0.418029 0.554804
Si Si4 0.750000 0.250000 0.724551
Si Si5 0.640202 0.399758 0.302965
Si Si6 0.443417 0.113335 0.142127
O O1 0.608138 0.613204 0.571248
O O2 0.660708 0.583418 0.657560
O O3 0.696061 0.859681 0.588910
O O4 0.601460 0.921043 0.637410
O O5 0.854889 0.709067 0.054557
O O6 0.953369 0.749137 0.091095
O O7 0.935240 0.876385 0.000000
O O8 0.779963 0.492798 0.500000
O O9 0.750000 0.250000 0.576530
O O10 0.742277 0.500000 0.750000
O O11 0.691855 0.221237 0.695972
O O12 0.628351 0.500000 0.250000
O O13 0.581955 0.287428 0.318449
O O14 0.500000 0.000000 0.160840
#
# Coordination Sequence:
#
# PCOD8277178 Si02
#       6
#    16  16  16   8  16  16
#     4  10  21  40  60  91 127 170 223 279 335 412
#     4   9  19  37  58  89 127 172 220 265 332 409
#     4   9  18  35  58  90 132 175 219 273 340 415
#     4  10  24  46  76 102 137 178 229 294 348 426
#     4  10  24  45  68  95 129 173 226 278 349 419
#     4  10  23  43  65  93 132 168 221 288 336 406
#
# _framework density 22.547599999999999
#
# number of rings (size 3 to 8) (size 9 to 14) (size 15 to 20)
#    0.000    2.364    0.000    0.545    5.091    4.727 
#   18.000    6.364    0.000    0.000    0.000    0.000 
#    0.000    0.000    0.000    0.000    0.000    0.000 
#
# Total GULP energy -545239.299429 kJ/mol
# GULP energy per Si atom -12391.802260 kJ/mol
# Density = 2.249628 g / cm^3
# Si number density = 22.547600 Si / 1000 Ang^3
#
#
#
# Elastic Constant Matrix: (Units=GPa)
#
#
# Indices 1 2 3 4 5 6 
#
# 1 107.2105 39.4356 56.2731 0.0000 0.0000 0.0000
# 2 39.4356 116.6692 55.3529 0.0000 0.0000 0.0000
# 3 56.2731 55.3529 137.4270 0.0000 0.0000 0.0000
# 4 0.0000 0.0000 0.0000 23.0528 0.0000 0.0000
# 5 0.0000 0.0000 0.0000 0.0000 21.9332 0.0000
# 6 0.0000 0.0000 0.0000 0.0000 0.0000 36.4424
#
#
#
# Elastic Compliance Matrix: (Units=1/GPa)
#
#
# Indices 1 2 3 4 5 6 
#
# 1 0.012317 -0.002189 -0.004162 0.000000 0.000000 0.000000
# 2 -0.002189 0.010985 -0.003528 0.000000 0.000000 0.000000
# 3 -0.004162 -0.003528 0.010402 0.000000 0.000000 0.000000
# 4 0.000000 0.000000 0.000000 0.043379 0.000000 0.000000
# 5 0.000000 0.000000 0.000000 0.000000 0.045593 0.000000
# 6 0.000000 0.000000 0.000000 0.000000 0.000000 0.027441
#
#
# Mechanical properties :
#
#
# Convention : Reuss Voigt Hill
#
# Bulk Modulus (GPa) = 71.70489 73.71442 72.70965
# Shear Modulus (GPa) = 28.64953 30.30204 29.47578
#
# Velocity S-wave (km/s) = 3.56845 3.66992 3.61954
# Velocity P-wave (km/s) = 6.98921 7.12190 7.05587
#
# Compressibility (1/GPa) = 0.01394605
#
# Stress axis : x y z
#
# Youngs Moduli (GPa) = 81.18805 91.03289 96.13554
#
# Poissons Ratio (x) = 0.19924 0.40012
# Poissons Ratio (y) = 0.17770 0.33920
# Poissons Ratio (z) = 0.33790 0.32120
#
# Static dielectric constant tensor:
#      x y z
#    x 4.083530 0.000000 0.000000 
#    y 0.000000 4.421250 0.000000 
#    z 0.000000 0.000000 4.288440 
# 
# 
# High freq. dielectric constant tensor:
#      x y z
#    x 1.870430 0.000000 0.000000 
#    y 0.000000 1.899090 0.000000 
#    z 0.000000 0.000000 1.885120 
# 
# From -- ./inp_files/70370.got.cif
#   From: 2010.03.12/outbox.cif.g09.slc.cpg/sg66_36_cif.got.tgz:70370.got - 2010.04.10 21:57:39.
