data_PCOD8277683
_publ_section_title
;
Structure prediction by ZEFSAII (Michael W. Deem and Ramdas Pophale) SiO2 
 PCOD8277683
Probable space group: C C C M
;
_chemical_formula_sum "Si O2"
_cell_formula_units_Z 96
_cell_length_a 17.878737
_cell_length_b 11.448190
_cell_length_c 23.735136
_cell_angle_alpha 90.000000
_cell_angle_beta 90.000000
_cell_angle_gamma 90.000000
_cell_volume 4858.088129
_symmetry_space_group_name_H-M "C C C M"
_symmetry_group_IT_number 66
_symmetry_cell_setting 'orthorhombic'
loop_
_space_group_symop_operation_xyz
x,y,z
-x,-y,z
x,-y,1/2-z
-x,y,1/2-z
-x,-y,-z
x,y,-z
-x,y,1/2+z
x,-y,1/2+z
1/2+x,1/2+y,z
1/2-x,1/2-y,z
1/2+x,1/2-y,1/2-z
1/2-x,1/2+y,1/2-z
1/2-x,1/2-y,-z
1/2+x,1/2+y,-z
1/2-x,1/2+y,1/2+z
1/2+x,1/2-y,1/2+z
loop_
_atom_site_type_symbol
_atom_site_label
_atom_site_fract_x
_atom_site_fract_y
_atom_site_fract_z
Si Si1 0.720332 0.433347 0.500000
Si Si2 0.336174 0.994372 0.316240
Si Si3 0.817342 0.971929 0.120367
Si Si4 0.959472 0.681166 0.695764
Si Si5 0.364403 0.807721 0.500000
Si Si6 0.097757 0.273570 0.876126
Si Si7 0.577843 0.568204 0.299440
O O1 0.693974 0.502064 0.444967
O O2 0.685395 0.306358 0.500000
O O3 0.810130 0.420345 0.500000
O O4 0.258096 0.008398 0.347851
O O5 0.366057 0.870615 0.336486
O O6 0.321330 0.000000 0.250000
O O7 0.398628 0.093383 0.331317
O O8 0.848698 0.839956 0.130075
O O9 0.879915 0.061334 0.141326
O O10 0.922791 0.798202 0.720962
O O11 0.000000 0.619568 0.750000
O O12 0.013441 0.735146 0.647154
O O13 0.411618 0.810597 0.558055
O O14 0.500000 0.500000 0.305894
O O15 0.623396 0.500000 0.250000
#
# Coordination Sequence:
#
# PCOD8277683 Si02
#       7
#     8  16  16  16   8  16  16
#     4   9  18  36  63  91 120 156 205 271 314 347
#     4  12  25  36  59  94 129 162 201 259 319 373
#     4  11  22  41  65  94 120 161 216 262 302 372
#     4  12  23  40  60  89 134 168 202 256 326 386
#     4   9  18  36  63  90 117 164 215 256 305 360
#     4  11  21  40  65  89 124 163 212 253 307 378
#     4  11  21  40  65  89 120 172 208 252 318 386
#
# _framework density 19.760860000000001
#
# number of rings (size 3 to 8) (size 9 to 14) (size 15 to 20)
#    0.000    1.000    6.667    1.500    0.000    0.667 
#    3.000    3.750    0.000    1.000    0.000    0.000 
#    0.000    0.000    0.000    0.000    0.000    0.000 
#
# Total GULP energy -594659.332156 kJ/mol
# GULP energy per Si atom -12388.736087 kJ/mol
# Density = 1.971588 g / cm^3
# Si number density = 19.760860 Si / 1000 Ang^3
#
#
#
# Elastic Constant Matrix: (Units=GPa)
#
#
# Indices 1 2 3 4 5 6 
#
# 1 97.2473 34.8851 53.3154 0.0000 0.0000 0.0000
# 2 34.8851 70.6804 24.0879 0.0000 0.0000 0.0000
# 3 53.3154 24.0879 157.8710 0.0000 0.0000 0.0000
# 4 0.0000 0.0000 0.0000 26.1747 0.0000 0.0000
# 5 0.0000 0.0000 0.0000 0.0000 35.7200 0.0000
# 6 0.0000 0.0000 0.0000 0.0000 0.0000 20.4130
#
#
#
# Elastic Compliance Matrix: (Units=1/GPa)
#
#
# Indices 1 2 3 4 5 6 
#
# 1 0.014585 -0.005823 -0.004037 0.000000 0.000000 0.000000
# 2 -0.005823 0.017249 -0.000665 0.000000 0.000000 0.000000
# 3 -0.004037 -0.000665 0.007799 0.000000 0.000000 0.000000
# 4 0.000000 0.000000 0.000000 0.038205 0.000000 0.000000
# 5 0.000000 0.000000 0.000000 0.000000 0.027996 0.000000
# 6 0.000000 0.000000 0.000000 0.000000 0.000000 0.048988
#
#
# Mechanical properties :
#
#
# Convention : Reuss Voigt Hill
#
# Bulk Modulus (GPa) = 53.81398 61.15283 57.48341
# Shear Modulus (GPa) = 27.46241 30.69557 29.07899
#
# Velocity S-wave (km/s) = 3.73196 3.94553 3.84023
# Velocity P-wave (km/s) = 6.77213 7.19513 6.98684
#
# Compressibility (1/GPa) = 0.01858253
#
# Stress axis : x y z
#
# Youngs Moduli (GPa) = 68.56247 57.97481 128.21782
#
# Poissons Ratio (x) = 0.33758 0.51764
# Poissons Ratio (y) = 0.39923 0.08531
# Poissons Ratio (z) = 0.27680 0.03857
#
# Static dielectric constant tensor:
#      x y z
#    x 4.045400 0.000000 0.000000 
#    y 0.000000 3.460240 0.000000 
#    z 0.000000 0.000000 4.107280 
# 
# 
# High freq. dielectric constant tensor:
#      x y z
#    x 1.764490 0.000000 0.000000 
#    y 0.000000 1.751940 0.000000 
#    z 0.000000 0.000000 1.776760 
# 
# From -- ./inp_files/58808.got.cif
#   From: 2010.03.12/outbox.cif.g09.slc.cpg/sg66_30_cif.got.tgz:58808.got - 2010.04.10 21:57:39.
