data_PCOD8277489
_publ_section_title
;
Structure prediction by ZEFSAII (Michael W. Deem and Ramdas Pophale) SiO2 
 PCOD8277489
Probable space group: C C C M
;
_chemical_formula_sum "Si O2"
_cell_formula_units_Z 64
_cell_length_a 4.934532
_cell_length_b 30.887649
_cell_length_c 19.250193
_cell_angle_alpha 90.000000
_cell_angle_beta 90.000000
_cell_angle_gamma 90.000000
_cell_volume 2934.039195
_symmetry_space_group_name_H-M "C C C M"
_symmetry_group_IT_number 66
_symmetry_cell_setting 'orthorhombic'
loop_
_space_group_symop_operation_xyz
x,y,z
-x,-y,z
x,-y,1/2-z
-x,y,1/2-z
-x,-y,-z
x,y,-z
-x,y,1/2+z
x,-y,1/2+z
1/2+x,1/2+y,z
1/2-x,1/2-y,z
1/2+x,1/2-y,1/2-z
1/2-x,1/2+y,1/2-z
1/2-x,1/2-y,-z
1/2+x,1/2+y,-z
1/2-x,1/2+y,1/2+z
1/2+x,1/2-y,1/2+z
loop_
_atom_site_type_symbol
_atom_site_label
_atom_site_fract_x
_atom_site_fract_y
_atom_site_fract_z
Si Si1 0.555321 0.338403 0.364455
Si Si2 0.498070 0.717880 0.500000
Si Si3 0.756529 0.970391 0.422685
Si Si4 0.053775 0.392475 0.329979
Si Si5 0.000000 0.775978 0.250000
O O1 0.506744 0.315408 0.436930
O O2 0.269395 0.354175 0.333949
O O3 0.655606 0.303090 0.309316
O O4 0.776805 0.377149 0.368190
O O5 0.250000 0.750000 0.500000
O O6 0.750000 0.750000 0.500000
O O7 0.833061 0.952099 0.500000
O O8 0.690408 0.932283 0.369787
O O9 0.500000 0.000000 0.430054
O O10 0.000000 0.000000 0.392809
O O11 0.000000 0.405455 0.250000
O O12 0.250000 0.750000 0.215394
#
# Coordination Sequence:
#
# PCOD8277489 Si02
#       5
#    16   8  16  16   8
#     4  12  25  42  66  99 132 177 228 279 337 402
#     4  12  26  46  66  96 134 174 232 292 342 402
#     4  10  23  43  69 101 133 173 220 268 328 398
#     4  12  24  44  67 101 138 177 221 277 333 408
#     4  12  22  40  64  90 127 176 221 272 334 394
#
# _framework density 21.812933999999998
#
# number of rings (size 3 to 8) (size 9 to 14) (size 15 to 20)
#    0.000    0.500    2.500    6.000    3.500    0.500 
#    0.000    1.250    0.000    0.000    0.000    0.000 
#    0.000    0.000    0.000    0.000    0.000    0.000 
#
# Total GULP energy -396800.435693 kJ/mol
# GULP energy per Si atom -12400.013615 kJ/mol
# Density = 2.176329 g / cm^3
# Si number density = 21.812934 Si / 1000 Ang^3
#
#
#
# Elastic Constant Matrix: (Units=GPa)
#
#
# Indices 1 2 3 4 5 6 
#
# 1 144.8302 48.2593 47.9427 0.0000 0.0000 0.0000
# 2 48.2593 114.0993 85.0371 0.0000 0.0000 0.0000
# 3 47.9427 85.0371 167.1565 0.0000 0.0000 0.0000
# 4 0.0000 0.0000 0.0000 9.0966 0.0000 0.0000
# 5 0.0000 0.0000 0.0000 0.0000 27.4673 0.0000
# 6 0.0000 0.0000 0.0000 0.0000 0.0000 49.0589
#
#
#
# Elastic Compliance Matrix: (Units=1/GPa)
#
#
# Indices 1 2 3 4 5 6 
#
# 1 0.008128 -0.002739 -0.000938 0.000000 0.000000 0.000000
# 2 -0.002739 0.015039 -0.006865 0.000000 0.000000 0.000000
# 3 -0.000938 -0.006865 0.009744 0.000000 0.000000 0.000000
# 4 0.000000 0.000000 0.000000 0.109931 0.000000 0.000000
# 5 0.000000 0.000000 0.000000 0.000000 0.036407 0.000000
# 6 0.000000 0.000000 0.000000 0.000000 0.000000 0.020384
#
#
# Mechanical properties :
#
#
# Convention : Reuss Voigt Hill
#
# Bulk Modulus (GPa) = 84.55167 87.61824 86.08496
# Shear Modulus (GPa) = 22.25598 33.44770 27.85184
#
# Velocity S-wave (km/s) = 3.19770 3.92010 3.57718
# Velocity P-wave (km/s) = 7.24431 7.79389 7.52412
#
# Compressibility (1/GPa) = 0.01182709
#
# Stress axis : x y z
#
# Youngs Moduli (GPa) = 123.03660 66.49200 102.62651
#
# Poissons Ratio (x) = 0.18210 0.09625
# Poissons Ratio (y) = 0.33696 0.70458
# Poissons Ratio (z) = 0.11539 0.45650
#
# Static dielectric constant tensor:
#      x y z
#    x 4.122940 0.000000 0.000000 
#    y 0.000000 3.909940 0.000000 
#    z 0.000000 0.000000 4.184560 
# 
# 
# High freq. dielectric constant tensor:
#      x y z
#    x 1.878760 0.000000 0.000000 
#    y 0.000000 1.860660 0.000000 
#    z 0.000000 0.000000 1.859650 
# 
# From -- ./inp_files/35059.got.cif
#   From: 2010.03.12/outbox.cif.g09.slc.cpg/sg66_18_cif.got.tgz:35059.got - 2010.04.10 21:57:39.
