data_PCOD8277721
_publ_section_title
;
Structure prediction by ZEFSAII (Michael W. Deem and Ramdas Pophale) SiO2 
 PCOD8277721
Probable space group: C C C M
;
_chemical_formula_sum "Si O2"
_cell_formula_units_Z 80
_cell_length_a 22.318661
_cell_length_b 11.339587
_cell_length_c 16.219170
_cell_angle_alpha 90.000000
_cell_angle_beta 90.000000
_cell_angle_gamma 90.000000
_cell_volume 4104.818878
_symmetry_space_group_name_H-M "C C C M"
_symmetry_group_IT_number 66
_symmetry_cell_setting 'orthorhombic'
loop_
_space_group_symop_operation_xyz
x,y,z
-x,-y,z
x,-y,1/2-z
-x,y,1/2-z
-x,-y,-z
x,y,-z
-x,y,1/2+z
x,-y,1/2+z
1/2+x,1/2+y,z
1/2-x,1/2-y,z
1/2+x,1/2-y,1/2-z
1/2-x,1/2+y,1/2-z
1/2-x,1/2-y,-z
1/2+x,1/2+y,-z
1/2-x,1/2+y,1/2+z
1/2+x,1/2-y,1/2+z
loop_
_atom_site_type_symbol
_atom_site_label
_atom_site_fract_x
_atom_site_fract_y
_atom_site_fract_z
Si Si1 0.558389 0.641615 0.850937
Si Si2 0.168624 0.734889 0.404088
Si Si3 0.301816 0.328798 0.406741
Si Si4 0.427049 0.377341 0.657049
Si Si5 0.253583 0.441593 0.840349
O O1 0.597915 0.743934 0.893056
O O2 0.567233 0.634944 0.753936
O O3 0.490175 0.672782 0.878067
O O4 0.578321 0.510368 0.879079
O O5 0.187036 0.746762 0.500000
O O6 0.188104 0.605357 0.369993
O O7 0.201490 0.831148 0.346321
O O8 0.308175 0.286866 0.500000
O O9 0.250000 0.250000 0.362178
O O10 0.367423 0.306290 0.367809
O O11 0.279927 0.462961 0.403015
O O12 0.252125 0.500000 0.750000
#
# Coordination Sequence:
#
# PCOD8277721 Si02
#       5
#    16  16  16  16  16
#     4   9  18  33  57  83 113 150 184 244 287 343
#     4  11  22  37  59  88 120 152 194 252 300 344
#     4  11  23  36  54  82 118 150 183 234 288 347
#     4   9  18  34  54  83 118 147 191 231 290 350
#     4  11  23  36  56  81 116 154 194 233 286 352
#
# _framework density 19.489288999999999
#
# number of rings (size 3 to 8) (size 9 to 14) (size 15 to 20)
#    0.000    1.800    2.000    4.800    5.600    0.800 
#    0.000    2.000    0.000    1.200    0.000    4.200 
#    0.000    0.000    0.000    0.000    0.000    0.000 
#
# Total GULP energy -495559.463387 kJ/mol
# GULP energy per Si atom -12388.986585 kJ/mol
# Density = 1.944493 g / cm^3
# Si number density = 19.489289 Si / 1000 Ang^3
#
#
#
# Elastic Constant Matrix: (Units=GPa)
#
#
# Indices 1 2 3 4 5 6 
#
# 1 195.8395 52.3827 42.2101 0.0000 0.0000 0.0000
# 2 52.3827 54.8396 27.5407 0.0000 0.0000 0.0000
# 3 42.2101 27.5407 75.7757 0.0000 0.0000 0.0000
# 4 0.0000 0.0000 0.0000 18.4871 0.0000 0.0000
# 5 0.0000 0.0000 0.0000 0.0000 13.1872 0.0000
# 6 0.0000 0.0000 0.0000 0.0000 0.0000 39.8774
#
#
#
# Elastic Compliance Matrix: (Units=1/GPa)
#
#
# Indices 1 2 3 4 5 6 
#
# 1 0.007056 -0.005830 -0.001812 0.000000 0.000000 0.000000
# 2 -0.005830 0.027124 -0.006611 0.000000 0.000000 0.000000
# 3 -0.001812 -0.006611 0.016609 0.000000 0.000000 0.000000
# 4 0.000000 0.000000 0.000000 0.054092 0.000000 0.000000
# 5 0.000000 0.000000 0.000000 0.000000 0.075831 0.000000
# 6 0.000000 0.000000 0.000000 0.000000 0.000000 0.025077
#
#
# Mechanical properties :
#
#
# Convention : Reuss Voigt Hill
#
# Bulk Modulus (GPa) = 44.87532 63.41354 54.14443
# Shear Modulus (GPa) = 20.68502 27.93176 24.30839
#
# Velocity S-wave (km/s) = 3.26138 3.78985 3.53550
# Velocity P-wave (km/s) = 6.10391 7.19437 6.67145
#
# Compressibility (1/GPa) = 0.02228396
#
# Stress axis : x y z
#
# Youngs Moduli (GPa) = 141.72069 36.86787 60.20999
#
# Poissons Ratio (x) = 0.21495 0.10907
# Poissons Ratio (y) = 0.82627 0.39802
# Poissons Ratio (z) = 0.25673 0.24372
#
# Static dielectric constant tensor:
#      x y z
#    x 4.167510 0.000000 0.000000 
#    y 0.000000 3.490980 0.000000 
#    z 0.000000 0.000000 3.340540 
# 
# 
# High freq. dielectric constant tensor:
#      x y z
#    x 1.771850 0.000000 0.000000 
#    y 0.000000 1.713920 0.000000 
#    z 0.000000 0.000000 1.754050 
# 
# From -- ./inp_files/32106.got.cif
#   From: 2010.03.12/outbox.cif.g09.slc.cpg/sg66_17_cif.got.tgz:32106.got - 2010.04.10 21:57:39.
