data_PCOD8277857
_publ_section_title
;
Structure prediction by ZEFSAII (Michael W. Deem and Ramdas Pophale) SiO2 
 PCOD8277857
Probable space group: C C C M
;
_chemical_formula_sum "Si O2"
_cell_formula_units_Z 48
_cell_length_a 21.720462
_cell_length_b 4.938583
_cell_length_c 21.064390
_cell_angle_alpha 90.000000
_cell_angle_beta 90.000000
_cell_angle_gamma 90.000000
_cell_volume 2259.541398
_symmetry_space_group_name_H-M "C C C M"
_symmetry_group_IT_number 66
_symmetry_cell_setting 'orthorhombic'
loop_
_space_group_symop_operation_xyz
x,y,z
-x,-y,z
x,-y,1/2-z
-x,y,1/2-z
-x,-y,-z
x,y,-z
-x,y,1/2+z
x,-y,1/2+z
1/2+x,1/2+y,z
1/2-x,1/2-y,z
1/2+x,1/2-y,1/2-z
1/2-x,1/2+y,1/2-z
1/2-x,1/2-y,-z
1/2+x,1/2+y,-z
1/2-x,1/2+y,1/2+z
1/2+x,1/2-y,1/2+z
loop_
_atom_site_type_symbol
_atom_site_label
_atom_site_fract_x
_atom_site_fract_y
_atom_site_fract_z
Si Si1 0.704594 0.498524 0.500000
Si Si2 0.639502 0.430295 0.129804
Si Si3 0.250000 0.750000 0.788072
Si Si4 0.570994 0.056908 0.676939
O O1 0.750000 0.750000 0.500000
O O2 0.658741 0.488218 0.440633
O O3 0.750000 0.250000 0.500000
O O4 0.700710 0.416205 0.171571
O O5 0.590350 0.637851 0.159969
O O6 0.608677 0.136127 0.129711
O O7 0.217921 0.500000 0.750000
O O8 0.500000 0.000000 0.663379
O O9 0.587232 0.000000 0.750000
#
# Coordination Sequence:
#
# PCOD8277857 Si02
#       4
#     8  16   8  16
#     4  12  26  46  65  92 135 180 212 263 327 392
#     4  12  24  43  66  96 131 174 221 262 328 389
#     4  12  24  37  64 101 136 162 212 280 336 392
#     4  11  24  44  68  97 133 173 215 270 330 384
#
# _framework density 21.243247
#
# number of rings (size 3 to 8) (size 9 to 14) (size 15 to 20)
#    0.000    0.333    1.667    9.000    2.333    2.667 
#    0.000    5.000    0.000    0.000    0.000    0.000 
#    0.000    0.000    0.000    0.000    0.000    0.000 
#
# Total GULP energy -297664.924409 kJ/mol
# GULP energy per Si atom -12402.705184 kJ/mol
# Density = 2.119490 g / cm^3
# Si number density = 21.243247 Si / 1000 Ang^3
#
#
#
# Elastic Constant Matrix: (Units=GPa)
#
#
# Indices 1 2 3 4 5 6 
#
# 1 118.1328 29.9631 43.8075 0.0000 0.0000 0.0000
# 2 29.9631 112.3100 25.9144 0.0000 0.0000 0.0000
# 3 43.8075 25.9144 127.9401 0.0000 0.0000 0.0000
# 4 0.0000 0.0000 0.0000 30.2946 0.0000 0.0000
# 5 0.0000 0.0000 0.0000 0.0000 89.3567 0.0000
# 6 0.0000 0.0000 0.0000 0.0000 0.0000 54.1936
#
#
#
# Elastic Compliance Matrix: (Units=1/GPa)
#
#
# Indices 1 2 3 4 5 6 
#
# 1 0.010103 -0.001990 -0.003056 0.000000 0.000000 0.000000
# 2 -0.001990 0.009733 -0.001290 0.000000 0.000000 0.000000
# 3 -0.003056 -0.001290 0.009124 0.000000 0.000000 0.000000
# 4 0.000000 0.000000 0.000000 0.033009 0.000000 0.000000
# 5 0.000000 0.000000 0.000000 0.000000 0.011191 0.000000
# 6 0.000000 0.000000 0.000000 0.000000 0.000000 0.018452
#
#
# Mechanical properties :
#
#
# Convention : Reuss Voigt Hill
#
# Bulk Modulus (GPa) = 61.39903 61.97254 61.68579
# Shear Modulus (GPa) = 45.57302 52.01550 48.79426
#
# Velocity S-wave (km/s) = 4.63676 4.95367 4.79783
# Velocity P-wave (km/s) = 7.59155 7.87112 7.73260
#
# Compressibility (1/GPa) = 0.01628690
#
# Stress axis : x y z
#
# Youngs Moduli (GPa) = 98.97834 102.74826 109.60206
#
# Poissons Ratio (x) = 0.20449 0.33498
# Poissons Ratio (y) = 0.19699 0.14137
# Poissons Ratio (z) = 0.30251 0.13253
#
# Static dielectric constant tensor:
#      x y z
#    x 3.863740 0.000000 0.000000 
#    y 0.000000 -13.164070 0.000000 
#    z 0.000000 0.000000 3.830530 
# 
# 
# High freq. dielectric constant tensor:
#      x y z
#    x 1.842820 0.000000 0.000000 
#    y 0.000000 1.855660 0.000000 
#    z 0.000000 0.000000 1.822260 
# 
# From -- ./inp_files/51424.got.cif
#   From: 2010.03.12/outbox.cif.g09.slc.cpg/sg66_26_cif.got.tgz:51424.got - 2010.04.10 21:57:39.
