data_PCOD8277203
_publ_section_title
;
Structure prediction by ZEFSAII (Michael W. Deem and Ramdas Pophale) SiO2 
 PCOD8277203
Probable space group: C C C M
;
_chemical_formula_sum "Si O2"
_cell_formula_units_Z 88
_cell_length_a 8.721967
_cell_length_b 17.775143
_cell_length_c 27.686579
_cell_angle_alpha 90.000000
_cell_angle_beta 90.000000
_cell_angle_gamma 90.000000
_cell_volume 4292.366921
_symmetry_space_group_name_H-M "C C C M"
_symmetry_group_IT_number 66
_symmetry_cell_setting 'orthorhombic'
loop_
_space_group_symop_operation_xyz
x,y,z
-x,-y,z
x,-y,1/2-z
-x,y,1/2-z
-x,-y,-z
x,y,-z
-x,y,1/2+z
x,-y,1/2+z
1/2+x,1/2+y,z
1/2-x,1/2-y,z
1/2+x,1/2-y,1/2-z
1/2-x,1/2+y,1/2-z
1/2-x,1/2-y,-z
1/2+x,1/2+y,-z
1/2-x,1/2+y,1/2+z
1/2+x,1/2-y,1/2+z
loop_
_atom_site_type_symbol
_atom_site_label
_atom_site_fract_x
_atom_site_fract_y
_atom_site_fract_z
Si Si1 0.588230 0.922795 0.446494
Si Si2 0.000000 0.810715 0.250000
Si Si3 0.352158 0.815730 0.398541
Si Si4 0.873641 0.905170 0.166669
Si Si5 0.287823 0.569785 0.146036
Si Si6 0.114387 0.708851 0.830032
O O1 0.656107 0.907805 0.500000
O O2 0.466715 0.856230 0.435547
O O3 0.727068 0.930380 0.408927
O O4 0.500000 0.000000 0.444902
O O5 0.116155 0.863468 0.281423
O O6 0.107558 0.755303 0.219557
O O7 0.250000 0.750000 0.423753
O O8 0.240179 0.873074 0.372813
O O9 0.452982 0.779261 0.355915
O O10 0.042363 0.896297 0.143710
O O11 0.808106 0.989880 0.173048
O O12 0.166715 0.621227 0.176587
O O13 0.250000 0.750000 0.860947
#
# Coordination Sequence:
#
# PCOD8277203 Si02
#       6
#    16   8  16  16  16  16
#     4  10  21  40  66  92 125 165 211 260 321 398
#     4  12  24  39  64  93 128 170 224 262 317 376
#     4  11  21  38  65  91 125 162 207 262 326 373
#     4  11  23  39  62  93 123 170 209 266 312 378
#     4  10  22  42  62  86 130 165 206 258 327 373
#     4  11  23  39  60  87 123 170 209 259 313 382
#
# _framework density 20.50151
#
# number of rings (size 3 to 8) (size 9 to 14) (size 15 to 20)
#    0.000    1.273    5.455    0.000    2.545    1.818 
#    0.000    2.727    4.000   18.545    0.000    0.000 
#    0.000    0.000    0.000    0.000    0.000    0.000 
#
# Total GULP energy -545120.285021 kJ/mol
# GULP energy per Si atom -12389.097387 kJ/mol
# Density = 2.045485 g / cm^3
# Si number density = 20.501510 Si / 1000 Ang^3
#
#
#
# Elastic Constant Matrix: (Units=GPa)
#
#
# Indices 1 2 3 4 5 6 
#
# 1 90.3694 40.1225 32.7655 0.0000 0.0000 0.0000
# 2 40.1225 99.6845 58.3783 0.0000 0.0000 0.0000
# 3 32.7655 58.3783 117.3173 0.0000 0.0000 0.0000
# 4 0.0000 0.0000 0.0000 22.7854 0.0000 0.0000
# 5 0.0000 0.0000 0.0000 0.0000 45.3098 0.0000
# 6 0.0000 0.0000 0.0000 0.0000 0.0000 46.8556
#
#
#
# Elastic Compliance Matrix: (Units=1/GPa)
#
#
# Indices 1 2 3 4 5 6 
#
# 1 0.013664 -0.004607 -0.001523 0.000000 0.000000 0.000000
# 2 -0.004607 0.015711 -0.006531 0.000000 0.000000 0.000000
# 3 -0.001523 -0.006531 0.012199 0.000000 0.000000 0.000000
# 4 0.000000 0.000000 0.000000 0.043888 0.000000 0.000000
# 5 0.000000 0.000000 0.000000 0.000000 0.022070 0.000000
# 6 0.000000 0.000000 0.000000 0.000000 0.000000 0.021342
#
#
# Mechanical properties :
#
#
# Convention : Reuss Voigt Hill
#
# Bulk Modulus (GPa) = 61.53836 63.32263 62.43050
# Shear Modulus (GPa) = 31.32544 34.73049 33.02796
#
# Velocity S-wave (km/s) = 3.91315 4.12034 4.01808
# Velocity P-wave (km/s) = 7.10624 7.32053 7.21418
#
# Compressibility (1/GPa) = 0.01625003
#
# Stress axis : x y z
#
# Youngs Moduli (GPa) = 73.18689 63.65001 81.97170
#
# Poissons Ratio (x) = 0.29326 0.12488
# Poissons Ratio (y) = 0.33720 0.53537
# Poissons Ratio (z) = 0.11150 0.41571
#
# Static dielectric constant tensor:
#      x y z
#    x 3.930410 0.000000 0.000000 
#    y 0.000000 4.105910 0.000000 
#    z 0.000000 0.000000 3.593040 
# 
# 
# High freq. dielectric constant tensor:
#      x y z
#    x 1.814350 0.000000 0.000000 
#    y 0.000000 1.825160 0.000000 
#    z 0.000000 0.000000 1.762670 
# 
# From -- ./inp_files/68183.got.cif
#   From: 2010.03.12/outbox.cif.g09.slc.cpg/sg66_35_cif.got.tgz:68183.got - 2010.04.10 21:57:39.
