data_PCOD8277867
_publ_section_title
;
Structure prediction by ZEFSAII (Michael W. Deem and Ramdas Pophale) SiO2 
 PCOD8277867
Probable space group: C C C M
;
_chemical_formula_sum "Si O2"
_cell_formula_units_Z 68
_cell_length_a 9.461255
_cell_length_b 17.056248
_cell_length_c 18.926375
_cell_angle_alpha 90.000000
_cell_angle_beta 90.000000
_cell_angle_gamma 90.000000
_cell_volume 3054.215597
_symmetry_space_group_name_H-M "C C C M"
_symmetry_group_IT_number 66
_symmetry_cell_setting 'orthorhombic'
loop_
_space_group_symop_operation_xyz
x,y,z
-x,-y,z
x,-y,1/2-z
-x,y,1/2-z
-x,-y,-z
x,y,-z
-x,y,1/2+z
x,-y,1/2+z
1/2+x,1/2+y,z
1/2-x,1/2-y,z
1/2+x,1/2-y,1/2-z
1/2-x,1/2+y,1/2-z
1/2-x,1/2-y,-z
1/2+x,1/2+y,-z
1/2-x,1/2+y,1/2+z
1/2+x,1/2-y,1/2+z
loop_
_atom_site_type_symbol
_atom_site_label
_atom_site_fract_x
_atom_site_fract_y
_atom_site_fract_z
Si Si1 0.197070 0.064318 0.135766
Si Si2 0.245925 0.602378 0.919231
Si Si3 0.520591 0.300818 0.420269
Si Si4 0.000000 0.000000 0.250000
Si Si5 0.477490 0.149555 0.168102
O O1 0.136925 0.131455 0.085231
O O2 0.355599 0.085199 0.158671
O O3 0.098837 0.057562 0.204714
O O4 0.190938 0.983731 0.092448
O O5 0.365395 0.666335 0.901595
O O6 0.117973 0.615096 0.866331
O O7 0.194259 0.610739 0.000000
O O8 0.522013 0.268244 0.500000
O O9 0.563505 0.231454 0.367876
O O10 0.500000 0.166152 0.250000
#
# Coordination Sequence:
#
# PCOD8277867 Si02
#       5
#    16  16  16   4  16
#     4  12  25  43  72  99 136 182 237 290 343 414
#     4  11  24  47  74 102 139 184 231 286 351 421
#     4  11  25  46  71 101 137 182 232 284 344 416
#     4  12  24  44  72 100 140 192 234 300 360 420
#     4  12  28  43  66 105 142 181 228 285 352 417
#
# _framework density 22.264309000000001
#
# number of rings (size 3 to 8) (size 9 to 14) (size 15 to 20)
#    0.000    0.471    2.353    4.941    1.647   12.235 
#    0.000    0.000    0.000    0.000    0.000    0.000 
#    0.000    0.000    0.000    0.000    0.000    0.000 
#
# Total GULP energy -421887.898831 kJ/mol
# GULP energy per Si atom -12408.467613 kJ/mol
# Density = 2.221363 g / cm^3
# Si number density = 22.264309 Si / 1000 Ang^3
#
#
#
# Elastic Constant Matrix: (Units=GPa)
#
#
# Indices 1 2 3 4 5 6 
#
# 1 96.8664 2.3299 45.8990 0.0000 0.0000 0.0000
# 2 2.3299 84.8349 33.6524 0.0000 0.0000 0.0000
# 3 45.8990 33.6524 138.1593 0.0000 0.0000 0.0000
# 4 0.0000 0.0000 0.0000 36.0300 0.0000 0.0000
# 5 0.0000 0.0000 0.0000 0.0000 38.5352 0.0000
# 6 0.0000 0.0000 0.0000 0.0000 0.0000 37.6468
#
#
#
# Elastic Compliance Matrix: (Units=1/GPa)
#
#
# Indices 1 2 3 4 5 6 
#
# 1 0.012408 0.001433 -0.004471 0.000000 0.000000 0.000000
# 2 0.001433 0.013214 -0.003695 0.000000 0.000000 0.000000
# 3 -0.004471 -0.003695 0.009623 0.000000 0.000000 0.000000
# 4 0.000000 0.000000 0.000000 0.027755 0.000000 0.000000
# 5 0.000000 0.000000 0.000000 0.000000 0.025950 0.000000
# 6 0.000000 0.000000 0.000000 0.000000 0.000000 0.026563
#
#
# Mechanical properties :
#
#
# Convention : Reuss Voigt Hill
#
# Bulk Modulus (GPa) = 45.91560 53.73592 49.82576
# Shear Modulus (GPa) = 36.70057 38.30767 37.50412
#
# Velocity S-wave (km/s) = 4.06446 4.15250 4.10871
# Velocity P-wave (km/s) = 6.53408 6.86868 6.70347
#
# Compressibility (1/GPa) = 0.02177909
#
# Stress axis : x y z
#
# Youngs Moduli (GPa) = 80.59594 75.67830 103.91449
#
# Poissons Ratio (x) = -0.10843 0.46460
# Poissons Ratio (y) = -0.11548 0.38392
# Poissons Ratio (z) = 0.36035 0.27960
#
# Static dielectric constant tensor:
#      x y z
#    x 4.107490 0.000000 0.000000 
#    y 0.000000 4.058780 0.000000 
#    z 0.000000 0.000000 4.071390 
# 
# 
# High freq. dielectric constant tensor:
#      x y z
#    x 1.890690 0.000000 0.000000 
#    y 0.000000 1.885940 0.000000 
#    z 0.000000 0.000000 1.882770 
# 
# From -- ./inp_files/42515.got.cif
#   From: 2010.03.12/outbox.cif.g09.slc.cpg/sg66_22_cif.got.tgz:42515.got - 2010.04.10 21:57:39.
