data_PCOD8277285
_publ_section_title
;
Structure prediction by ZEFSAII (Michael W. Deem and Ramdas Pophale) SiO2 
 PCOD8277285
Probable space group: C C C M
;
_chemical_formula_sum "Si O2"
_cell_formula_units_Z 52
_cell_length_a 19.010388
_cell_length_b 7.233489
_cell_length_c 17.513544
_cell_angle_alpha 90.000000
_cell_angle_beta 90.000000
_cell_angle_gamma 90.000000
_cell_volume 2408.312523
_symmetry_space_group_name_H-M "C C C M"
_symmetry_group_IT_number 66
_symmetry_cell_setting 'orthorhombic'
loop_
_space_group_symop_operation_xyz
x,y,z
-x,-y,z
x,-y,1/2-z
-x,y,1/2-z
-x,-y,-z
x,y,-z
-x,y,1/2+z
x,-y,1/2+z
1/2+x,1/2+y,z
1/2-x,1/2-y,z
1/2+x,1/2-y,1/2-z
1/2-x,1/2+y,1/2-z
1/2-x,1/2-y,-z
1/2+x,1/2+y,-z
1/2-x,1/2+y,1/2+z
1/2+x,1/2-y,1/2+z
loop_
_atom_site_type_symbol
_atom_site_label
_atom_site_fract_x
_atom_site_fract_y
_atom_site_fract_z
Si Si1 0.000000 0.500000 0.750000
Si Si2 0.697706 0.016223 0.587548
Si Si3 0.613587 0.741593 0.681382
Si Si4 0.340931 0.364258 0.157074
O O1 0.955969 0.636845 0.695414
O O2 0.720346 0.994032 0.500000
O O3 0.646714 0.197137 0.597097
O O4 0.765274 0.044158 0.641145
O O5 0.658250 0.833453 0.614024
O O6 0.658181 0.730278 0.759454
O O7 0.599988 0.528313 0.653265
#
# Coordination Sequence:
#
# PCOD8277285 Si02
#       4
#     4  16  16  16
#     4  12  24  46  62  92 122 180 242 280 292 376
#     4  11  23  40  66 104 139 161 200 273 348 408
#     4  11  24  39  66  92 130 172 224 266 320 375
#     4  10  22  37  66  99 126 164 209 273 331 400
#
# _framework density 21.591881000000001
#
# number of rings (size 3 to 8) (size 9 to 14) (size 15 to 20)
#    0.000    1.231    3.077    2.769   17.231    6.154 
#    0.000    0.769    0.000    1.846    0.000    0.000 
#    0.000    0.000    0.000    0.000    0.000    0.000 
#
# Total GULP energy -322121.768301 kJ/mol
# GULP energy per Si atom -12389.298781 kJ/mol
# Density = 2.154274 g / cm^3
# Si number density = 21.591881 Si / 1000 Ang^3
#
#
#
# Elastic Constant Matrix: (Units=GPa)
#
#
# Indices 1 2 3 4 5 6 
#
# 1 62.7356 35.9556 39.0824 0.0000 0.0000 0.0000
# 2 35.9556 146.1975 29.6611 0.0000 0.0000 0.0000
# 3 39.0824 29.6611 99.0933 0.0000 0.0000 0.0000
# 4 0.0000 0.0000 0.0000 25.4211 0.0000 0.0000
# 5 0.0000 0.0000 0.0000 0.0000 10.2503 0.0000
# 6 0.0000 0.0000 0.0000 0.0000 0.0000 28.7630
#
#
#
# Elastic Compliance Matrix: (Units=1/GPa)
#
#
# Indices 1 2 3 4 5 6 
#
# 1 0.023236 -0.004105 -0.007936 0.000000 0.000000 0.000000
# 2 -0.004105 0.008007 -0.000778 0.000000 0.000000 0.000000
# 3 -0.007936 -0.000778 0.013454 0.000000 0.000000 0.000000
# 4 0.000000 0.000000 0.000000 0.039337 0.000000 0.000000
# 5 0.000000 0.000000 0.000000 0.000000 0.097558 0.000000
# 6 0.000000 0.000000 0.000000 0.000000 0.000000 0.034767
#
#
# Mechanical properties :
#
#
# Convention : Reuss Voigt Hill
#
# Bulk Modulus (GPa) = 52.46276 57.49162 54.97719
# Shear Modulus (GPa) = 20.13287 26.44203 23.28745
#
# Velocity S-wave (km/s) = 3.05688 3.50327 3.28766
# Velocity P-wave (km/s) = 6.06709 6.56111 6.31893
#
# Compressibility (1/GPa) = 0.01906114
#
# Stress axis : x y z
#
# Youngs Moduli (GPa) = 43.03652 124.88478 74.32633
#
# Poissons Ratio (x) = 0.51260 0.58983
# Poissons Ratio (y) = 0.17665 0.05782
# Poissons Ratio (z) = 0.34152 0.09715
#
# Static dielectric constant tensor:
#      x y z
#    x 3.532350 0.000000 0.000000 
#    y 0.000000 4.817120 0.000000 
#    z 0.000000 0.000000 3.727830 
# 
# 
# High freq. dielectric constant tensor:
#      x y z
#    x 1.792880 0.000000 0.000000 
#    y 0.000000 1.890960 0.000000 
#    z 0.000000 0.000000 1.826220 
# 
# From -- ./inp_files/41009.got.cif
#   From: 2010.03.12/outbox.cif.g09.slc.cpg/sg66_21_cif.got.tgz:41009.got - 2010.04.10 21:57:39.
