data_PCOD8277654
_publ_section_title
;
Structure prediction by ZEFSAII (Michael W. Deem and Ramdas Pophale) SiO2 
 PCOD8277654
Probable space group: C C C M
;
_chemical_formula_sum "Si O2"
_cell_formula_units_Z 80
_cell_length_a 11.774701
_cell_length_b 21.522867
_cell_length_c 16.222515
_cell_angle_alpha 90.000000
_cell_angle_beta 90.000000
_cell_angle_gamma 90.000000
_cell_volume 4111.196113
_symmetry_space_group_name_H-M "C C C M"
_symmetry_group_IT_number 66
_symmetry_cell_setting 'orthorhombic'
loop_
_space_group_symop_operation_xyz
x,y,z
-x,-y,z
x,-y,1/2-z
-x,y,1/2-z
-x,-y,-z
x,y,-z
-x,y,1/2+z
x,-y,1/2+z
1/2+x,1/2+y,z
1/2-x,1/2-y,z
1/2+x,1/2-y,1/2-z
1/2-x,1/2+y,1/2-z
1/2-x,1/2-y,-z
1/2+x,1/2+y,-z
1/2-x,1/2+y,1/2+z
1/2+x,1/2-y,1/2+z
loop_
_atom_site_type_symbol
_atom_site_label
_atom_site_fract_x
_atom_site_fract_y
_atom_site_fract_z
Si Si1 0.657624 0.704278 0.661205
Si Si2 0.356360 0.463137 0.165310
Si Si3 0.070940 0.253957 0.905641
Si Si4 0.581632 0.420121 0.908242
Si Si5 0.239251 0.835149 0.340707
O O1 0.750000 0.750000 0.619982
O O2 0.536835 0.737790 0.650907
O O3 0.658962 0.638257 0.615110
O O4 0.692141 0.692381 0.755267
O O5 0.347097 0.500000 0.250000
O O6 0.343759 0.516223 0.095077
O O7 0.477647 0.427741 0.156196
O O8 0.259986 0.410267 0.158117
O O9 0.154411 0.193997 0.908815
O O10 0.133402 0.312606 0.861966
O O11 0.035929 0.269534 0.000000
O O12 0.533757 0.410904 0.000000
#
# Coordination Sequence:
#
# PCOD8277654 Si02
#       5
#    16  16  16  16  16
#     4  12  24  39  63  91 126 166 208 254 307 372
#     4  11  21  35  60  88 119 159 205 254 307 371
#     4  11  24  39  60  93 125 159 207 255 310 367
#     4  11  23  34  53  88 126 159 197 251 319 369
#     4  11  22  37  63  86 122 164 204 250 304 367
#
# _framework density 19.459057000000001
#
# number of rings (size 3 to 8) (size 9 to 14) (size 15 to 20)
#    0.000    0.800    6.000    4.800    0.000    4.000 
#    0.000    0.000    0.000    1.200    0.000    2.800 
#    0.000    0.000    0.000    0.000    0.000    0.000 
#
# Total GULP energy -495743.763854 kJ/mol
# GULP energy per Si atom -12393.594096 kJ/mol
# Density = 1.941477 g / cm^3
# Si number density = 19.459057 Si / 1000 Ang^3
#
#
#
# Elastic Constant Matrix: (Units=GPa)
#
#
# Indices 1 2 3 4 5 6 
#
# 1 76.5657 59.0481 18.7882 0.0000 0.0000 0.0000
# 2 59.0481 178.0699 31.1283 0.0000 0.0000 0.0000
# 3 18.7882 31.1283 98.1330 0.0000 0.0000 0.0000
# 4 0.0000 0.0000 0.0000 18.7396 0.0000 0.0000
# 5 0.0000 0.0000 0.0000 0.0000 11.9961 0.0000
# 6 0.0000 0.0000 0.0000 0.0000 0.0000 38.0917
#
#
#
# Elastic Compliance Matrix: (Units=1/GPa)
#
#
# Indices 1 2 3 4 5 6 
#
# 1 0.017790 -0.005615 -0.001625 0.000000 0.000000 0.000000
# 2 -0.005615 0.007718 -0.001373 0.000000 0.000000 0.000000
# 3 -0.001625 -0.001373 0.010937 0.000000 0.000000 0.000000
# 4 0.000000 0.000000 0.000000 0.053363 0.000000 0.000000
# 5 0.000000 0.000000 0.000000 0.000000 0.083360 0.000000
# 6 0.000000 0.000000 0.000000 0.000000 0.000000 0.026252
#
#
# Mechanical properties :
#
#
# Convention : Reuss Voigt Hill
#
# Bulk Modulus (GPa) = 52.03332 63.41089 57.72210
# Shear Modulus (GPa) = 22.41627 30.01907 26.21767
#
# Velocity S-wave (km/s) = 3.39775 3.93196 3.67457
# Velocity P-wave (km/s) = 6.49545 7.29872 6.90877
#
# Compressibility (1/GPa) = 0.01921846
#
# Stress axis : x y z
#
# Youngs Moduli (GPa) = 56.21206 129.57127 91.43377
#
# Poissons Ratio (x) = 0.72755 0.14857
# Poissons Ratio (y) = 0.31563 0.12555
# Poissons Ratio (z) = 0.09134 0.17791
#
# Static dielectric constant tensor:
#      x y z
#    x 3.295880 0.000000 0.000000 
#    y 0.000000 4.178580 0.000000 
#    z 0.000000 0.000000 3.598780 
# 
# 
# High freq. dielectric constant tensor:
#      x y z
#    x 1.705570 0.000000 0.000000 
#    y 0.000000 1.768940 0.000000 
#    z 0.000000 0.000000 1.767350 
# 
# From -- ./inp_files/26427.got.cif
#   From: 2010.03.12/outbox.cif.g09.slc.cpg/sg66_14_cif.got.tgz:26427.got - 2010.04.10 21:57:39.
