data_PCOD8277430
_publ_section_title
;
Structure prediction by ZEFSAII (Michael W. Deem and Ramdas Pophale) SiO2 
 PCOD8277430
Probable space group: C C C M
;
_chemical_formula_sum "Si O2"
_cell_formula_units_Z 88
_cell_length_a 10.511476
_cell_length_b 30.544625
_cell_length_c 13.054679
_cell_angle_alpha 90.000000
_cell_angle_beta 90.000000
_cell_angle_gamma 90.000000
_cell_volume 4191.453941
_symmetry_space_group_name_H-M "C C C M"
_symmetry_group_IT_number 66
_symmetry_cell_setting 'orthorhombic'
loop_
_space_group_symop_operation_xyz
x,y,z
-x,-y,z
x,-y,1/2-z
-x,y,1/2-z
-x,-y,-z
x,y,-z
-x,y,1/2+z
x,-y,1/2+z
1/2+x,1/2+y,z
1/2-x,1/2-y,z
1/2+x,1/2-y,1/2-z
1/2-x,1/2+y,1/2-z
1/2-x,1/2-y,-z
1/2+x,1/2+y,-z
1/2-x,1/2+y,1/2+z
1/2+x,1/2-y,1/2+z
loop_
_atom_site_type_symbol
_atom_site_label
_atom_site_fract_x
_atom_site_fract_y
_atom_site_fract_z
Si Si1 0.606267 0.251512 0.119680
Si Si2 0.522571 0.551431 0.000000
Si Si3 0.259226 0.600135 0.000000
Si Si4 0.500000 0.325753 0.750000
Si Si5 0.145600 0.491841 0.500000
Si Si6 0.800727 0.962766 0.175432
Si Si7 0.254518 0.125100 0.725296
Si Si8 0.000000 0.678074 0.750000
O O1 0.750000 0.250000 0.167031
O O2 0.530903 0.294906 0.153417
O O3 0.527954 0.208693 0.152635
O O4 0.614722 0.252335 0.000000
O O5 0.500000 0.500000 0.000000
O O6 0.594992 0.561898 0.894369
O O7 0.399499 0.580513 0.000000
O O8 0.161333 0.560270 0.000000
O O9 0.240809 0.629900 0.101140
O O10 0.375718 0.355210 0.771653
O O11 0.201042 0.513502 0.398051
O O12 0.000000 0.500000 0.500000
O O13 0.734759 0.925923 0.245077
O O14 0.860425 0.000000 0.250000
O O15 0.376469 0.148776 0.774619
#
# Coordination Sequence:
#
# PCOD8277430 Si02
#       8
#    16   8   8   8   8  16  16   8
#     4  10  22  47  78 100 134 177 215 265 342 424
#     4  11  20  40  64  94 120 171 235 280 333 394
#     4  12  25  43  68  94 131 185 234 274 337 402
#     4  11  24  44  71 106 134 170 221 276 338 407
#     4  11  25  44  62  88 128 189 244 269 333 405
#     4  11  23  43  64  94 135 182 223 287 337 382
#     4  12  26  43  68 100 139 176 227 285 332 394
#     4  11  26  44  69 106 134 174 221 274 338 409
#
# _framework density 20.995100999999998
#
# number of rings (size 3 to 8) (size 9 to 14) (size 15 to 20)
#    0.000    0.909    5.455    1.091    5.091    2.182 
#    6.545    0.909    0.000    0.000    0.000    0.000 
#    0.000    0.000    0.000    0.000    0.000    0.000 
#
# Total GULP energy -545652.094026 kJ/mol
# GULP energy per Si atom -12401.183955 kJ/mol
# Density = 2.094732 g / cm^3
# Si number density = 20.995101 Si / 1000 Ang^3
#
#
#
# Elastic Constant Matrix: (Units=GPa)
#
#
# Indices 1 2 3 4 5 6 
#
# 1 150.8509 43.9053 36.5239 0.0000 0.0000 0.0000
# 2 43.9053 105.2989 29.7791 0.0000 0.0000 0.0000
# 3 36.5239 29.7791 107.8346 0.0000 0.0000 0.0000
# 4 0.0000 0.0000 0.0000 22.6874 0.0000 0.0000
# 5 0.0000 0.0000 0.0000 0.0000 13.0016 0.0000
# 6 0.0000 0.0000 0.0000 0.0000 0.0000 39.7314
#
#
#
# Elastic Compliance Matrix: (Units=1/GPa)
#
#
# Indices 1 2 3 4 5 6 
#
# 1 0.007893 -0.002750 -0.001914 0.000000 0.000000 0.000000
# 2 -0.002750 0.011259 -0.002178 0.000000 0.000000 0.000000
# 3 -0.001914 -0.002178 0.010523 0.000000 0.000000 0.000000
# 4 0.000000 0.000000 0.000000 0.044077 0.000000 0.000000
# 5 0.000000 0.000000 0.000000 0.000000 0.076914 0.000000
# 6 0.000000 0.000000 0.000000 0.000000 0.000000 0.025169
#
#
# Mechanical properties :
#
#
# Convention : Reuss Voigt Hill
#
# Bulk Modulus (GPa) = 62.53147 64.93344 63.73246
# Shear Modulus (GPa) = 25.66087 32.00249 28.83168
#
# Velocity S-wave (km/s) = 3.49984 3.90844 3.70977
# Velocity P-wave (km/s) = 6.79561 7.16679 6.98367
#
# Compressibility (1/GPa) = 0.01599195
#
# Stress axis : x y z
#
# Youngs Moduli (GPa) = 126.69833 88.81613 95.02828
#
# Poissons Ratio (x) = 0.24422 0.18188
# Poissons Ratio (y) = 0.34838 0.20697
# Poissons Ratio (z) = 0.24250 0.19344
#
# Static dielectric constant tensor:
#      x y z
#    x 3.882260 0.000000 0.000000 
#    y 0.000000 3.834090 0.000000 
#    z 0.000000 0.000000 3.973230 
# 
# 
# High freq. dielectric constant tensor:
#      x y z
#    x 1.820110 0.000000 0.000000 
#    y 0.000000 1.833310 0.000000 
#    z 0.000000 0.000000 1.821250 
# 
# From -- ./inp_files/15103.got.cif
#   From: 2010.03.12/outbox.cif.g09.slc.cpg/sg66_8_cif.got.tgz:15103.got - 2010.04.10 21:57:39.
