data_PCOD8277174
_publ_section_title
;
Structure prediction by ZEFSAII (Michael W. Deem and Ramdas Pophale) SiO2 
 PCOD8277174
Probable space group: C C C M
;
_chemical_formula_sum "Si O2"
_cell_formula_units_Z 112
_cell_length_a 22.366512
_cell_length_b 14.854809
_cell_length_c 15.262718
_cell_angle_alpha 90.000000
_cell_angle_beta 90.000000
_cell_angle_gamma 90.000000
_cell_volume 5071.042081
_symmetry_space_group_name_H-M "C C C M"
_symmetry_group_IT_number 66
_symmetry_cell_setting 'orthorhombic'
loop_
_space_group_symop_operation_xyz
x,y,z
-x,-y,z
x,-y,1/2-z
-x,y,1/2-z
-x,-y,-z
x,y,-z
-x,y,1/2+z
x,-y,1/2+z
1/2+x,1/2+y,z
1/2-x,1/2-y,z
1/2+x,1/2-y,1/2-z
1/2-x,1/2+y,1/2-z
1/2-x,1/2-y,-z
1/2+x,1/2+y,-z
1/2-x,1/2+y,1/2+z
1/2+x,1/2-y,1/2+z
loop_
_atom_site_type_symbol
_atom_site_label
_atom_site_fract_x
_atom_site_fract_y
_atom_site_fract_z
Si Si1 0.569518 0.277522 0.101871
Si Si2 0.252652 0.351955 0.736217
Si Si3 0.342947 0.568161 0.099172
Si Si4 0.833366 0.136303 0.398934
Si Si5 0.059848 0.746486 0.403719
Si Si6 0.123264 0.391271 0.312533
Si Si7 0.438075 0.949031 0.355979
O O1 0.597136 0.375486 0.120017
O O2 0.502982 0.270904 0.144106
O O3 0.614134 0.204494 0.142793
O O4 0.564498 0.254464 0.000000
O O5 0.250000 0.250000 0.702143
O O6 0.292098 0.409297 0.669035
O O7 0.275785 0.355582 0.836357
O O8 0.187041 0.395278 0.734695
O O9 0.360356 0.463828 0.107475
O O10 0.320241 0.590075 0.000000
O O11 0.815110 0.159232 0.500000
O O12 0.882949 0.205577 0.358228
O O13 0.058652 0.790682 0.500000
O O14 0.067550 0.639172 0.415886
O O15 0.114459 0.477233 0.378059
O O16 0.069970 0.409073 0.242486
O O17 0.500000 0.000000 0.372167
#
# Coordination Sequence:
#
# PCOD8277174 Si02
#       7
#    16  16  16  16  16  16  16
#     4  10  21  39  66  98 129 168 217 273 340 403
#     4  12  24  42  70  95 131 179 227 275 335 400
#     4  10  23  43  66  98 137 174 220 278 335 398
#     4  10  24  46  67  94 138 181 225 282 332 397
#     4  10  22  41  66  96 130 172 222 272 336 402
#     4  11  23  38  60  94 128 172 215 267 330 396
#     4  11  23  39  63  92 134 173 212 269 334 394
#
# _framework density 22.086189999999998
#
# number of rings (size 3 to 8) (size 9 to 14) (size 15 to 20)
#    0.000    1.429    2.857    2.143    4.000    2.571 
#    0.000    3.571    0.000    1.714    0.000    0.000 
#    0.000    0.000    0.000    0.000    0.000    0.000 
#
# Total GULP energy -694097.253203 kJ/mol
# GULP energy per Si atom -12394.593807 kJ/mol
# Density = 2.203592 g / cm^3
# Si number density = 22.086190 Si / 1000 Ang^3
#
#
#
# Elastic Constant Matrix: (Units=GPa)
#
#
# Indices 1 2 3 4 5 6 
#
# 1 157.8793 65.0740 45.7427 0.0000 0.0000 0.0000
# 2 65.0740 137.9741 20.7576 0.0000 0.0000 0.0000
# 3 45.7427 20.7576 70.2162 0.0000 0.0000 0.0000
# 4 0.0000 0.0000 0.0000 31.5228 0.0000 0.0000
# 5 0.0000 0.0000 0.0000 0.0000 18.9955 0.0000
# 6 0.0000 0.0000 0.0000 0.0000 0.0000 40.2722
#
#
#
# Elastic Compliance Matrix: (Units=1/GPa)
#
#
# Indices 1 2 3 4 5 6 
#
# 1 0.009266 -0.003623 -0.004965 0.000000 0.000000 0.000000
# 2 -0.003623 0.009002 -0.000301 0.000000 0.000000 0.000000
# 3 -0.004965 -0.000301 0.017565 0.000000 0.000000 0.000000
# 4 0.000000 0.000000 0.000000 0.031723 0.000000 0.000000
# 5 0.000000 0.000000 0.000000 0.000000 0.052644 0.000000
# 6 0.000000 0.000000 0.000000 0.000000 0.000000 0.024831
#
#
# Mechanical properties :
#
#
# Convention : Reuss Voigt Hill
#
# Bulk Modulus (GPa) = 55.38760 69.91312 62.65036
# Shear Modulus (GPa) = 29.61598 33.79112 31.70355
#
# Velocity S-wave (km/s) = 3.66584 3.91572 3.79284
# Velocity P-wave (km/s) = 6.56127 7.22269 6.89991
#
# Compressibility (1/GPa) = 0.01805458
#
# Stress axis : x y z
#
# Youngs Moduli (GPa) = 107.92222 111.08854 56.93041
#
# Poissons Ratio (x) = 0.40249 0.28267
# Poissons Ratio (y) = 0.39102 0.01713
# Poissons Ratio (z) = 0.53586 0.03342
#
# Static dielectric constant tensor:
#      x y z
#    x 3.966510 0.000000 0.000000 
#    y 0.000000 4.313660 0.000000 
#    z 0.000000 0.000000 3.872160 
# 
# 
# High freq. dielectric constant tensor:
#      x y z
#    x 1.860670 0.000000 0.000000 
#    y 0.000000 1.886980 0.000000 
#    z 0.000000 0.000000 1.853280 
# 
# From -- ./inp_files/32495.got.cif
#   From: 2010.03.12/outbox.cif.g09.slc.cpg/sg66_17_cif.got.tgz:32495.got - 2010.04.10 21:57:39.
