data_PCOD8277524
_publ_section_title
;
Structure prediction by ZEFSAII (Michael W. Deem and Ramdas Pophale) SiO2 
 PCOD8277524
Probable space group: C C C M
;
_chemical_formula_sum "Si O2"
_cell_formula_units_Z 56
_cell_length_a 4.980134
_cell_length_b 26.784624
_cell_length_c 16.395155
_cell_angle_alpha 90.000000
_cell_angle_beta 90.000000
_cell_angle_gamma 90.000000
_cell_volume 2186.966394
_symmetry_space_group_name_H-M "C C C M"
_symmetry_group_IT_number 66
_symmetry_cell_setting 'orthorhombic'
loop_
_space_group_symop_operation_xyz
x,y,z
-x,-y,z
x,-y,1/2-z
-x,y,1/2-z
-x,-y,-z
x,y,-z
-x,y,1/2+z
x,-y,1/2+z
1/2+x,1/2+y,z
1/2-x,1/2-y,z
1/2+x,1/2-y,1/2-z
1/2-x,1/2+y,1/2-z
1/2-x,1/2-y,-z
1/2+x,1/2+y,-z
1/2-x,1/2+y,1/2+z
1/2+x,1/2-y,1/2+z
loop_
_atom_site_type_symbol
_atom_site_label
_atom_site_fract_x
_atom_site_fract_y
_atom_site_fract_z
Si Si1 0.500664 0.714610 0.500000
Si Si2 0.536691 0.444856 0.407089
Si Si3 0.670134 0.307409 0.329799
Si Si4 0.963966 0.602659 0.338587
O O1 0.250000 0.750000 0.500000
O O2 0.493049 0.682803 0.415389
O O3 0.750000 0.750000 0.500000
O O4 0.500000 0.500000 0.368508
O O5 0.446238 0.446416 0.500000
O O6 0.844340 0.427760 0.399903
O O7 0.346520 0.404028 0.363036
O O8 0.500000 0.324914 0.250000
O O9 0.750000 0.250000 0.319044
O O10 0.945803 0.339130 0.335686
O O11 0.000000 0.578328 0.250000
#
# Coordination Sequence:
#
# PCOD8277524 Si02
#       4
#     8  16  16  16
#     4  10  24  42  66 102 137 196 266 306 369 440
#     4  11  26  48  75 105 144 191 241 308 389 456
#     4  11  24  45  72 106 154 208 255 314 376 449
#     4  12  26  45  72 110 144 190 251 303 377 449
#
# _framework density 25.606248000000001
#
# number of rings (size 3 to 8) (size 9 to 14) (size 15 to 20)
#    0.000    0.857    0.000    6.000    4.000   12.571 
#    0.000    0.000    0.000    0.000    0.000    0.000 
#    0.000    0.000    0.000    0.000    0.000    0.000 
#
# Total GULP energy -347204.810487 kJ/mol
# GULP energy per Si atom -12400.171803 kJ/mol
# Density = 2.554797 g / cm^3
# Si number density = 25.606248 Si / 1000 Ang^3
#
#
#
# Elastic Constant Matrix: (Units=GPa)
#
#
# Indices 1 2 3 4 5 6 
#
# 1 94.4851 9.4953 27.9912 0.0000 0.0000 0.0000
# 2 9.4953 124.8509 20.9523 0.0000 0.0000 0.0000
# 3 27.9912 20.9523 179.0282 0.0000 0.0000 0.0000
# 4 0.0000 0.0000 0.0000 6.4507 0.0000 0.0000
# 5 0.0000 0.0000 0.0000 0.0000 44.9764 0.0000
# 6 0.0000 0.0000 0.0000 0.0000 0.0000 38.3914
#
#
#
# Elastic Compliance Matrix: (Units=1/GPa)
#
#
# Indices 1 2 3 4 5 6 
#
# 1 0.011137 -0.000566 -0.001675 0.000000 0.000000 0.000000
# 2 -0.000566 0.008199 -0.000871 0.000000 0.000000 0.000000
# 3 -0.001675 -0.000871 0.005950 0.000000 0.000000 0.000000
# 4 0.000000 0.000000 0.000000 0.155022 0.000000 0.000000
# 5 0.000000 0.000000 0.000000 0.000000 0.022234 0.000000
# 6 0.000000 0.000000 0.000000 0.000000 0.000000 0.026047
#
#
# Mechanical properties :
#
#
# Convention : Reuss Voigt Hill
#
# Bulk Modulus (GPa) = 52.46267 57.24909 54.85588
# Shear Modulus (GPa) = 20.73261 40.62540 30.67900
#
# Velocity S-wave (km/s) = 2.84856 3.98746 3.46512
# Velocity P-wave (km/s) = 5.59926 6.60347 6.12199
#
# Compressibility (1/GPa) = 0.01906117
#
# Stress axis : x y z
#
# Youngs Moduli (GPa) = 89.79264 121.96947 168.08013
#
# Poissons Ratio (x) = 0.06902 0.28154
# Poissons Ratio (y) = 0.05081 0.14641
# Poissons Ratio (z) = 0.15040 0.10624
#
# Static dielectric constant tensor:
#      x y z
#    x 4.451310 0.000000 0.000000 
#    y 0.000000 4.509070 0.000000 
#    z 0.000000 0.000000 5.105240 
# 
# 
# High freq. dielectric constant tensor:
#      x y z
#    x 2.021360 0.000000 0.000000 
#    y 0.000000 2.024290 0.000000 
#    z 0.000000 0.000000 2.039450 
# 
# From -- ./inp_files/22484.got.cif
#   From: 2010.03.12/outbox.cif.g09.slc.cpg/sg66_12_cif.got.tgz:22484.got - 2010.04.10 21:57:39.
