data_PCOD8277434
_publ_section_title
;
Structure prediction by ZEFSAII (Michael W. Deem and Ramdas Pophale) SiO2 
 PCOD8277434
Probable space group: C C C M
;
_chemical_formula_sum "Si O2"
_cell_formula_units_Z 112
_cell_length_a 28.585913
_cell_length_b 14.499632
_cell_length_c 14.675998
_cell_angle_alpha 90.000000
_cell_angle_beta 90.000000
_cell_angle_gamma 90.000000
_cell_volume 6082.984243
_symmetry_space_group_name_H-M "C C C M"
_symmetry_group_IT_number 66
_symmetry_cell_setting 'orthorhombic'
loop_
_space_group_symop_operation_xyz
x,y,z
-x,-y,z
x,-y,1/2-z
-x,y,1/2-z
-x,-y,-z
x,y,-z
-x,y,1/2+z
x,-y,1/2+z
1/2+x,1/2+y,z
1/2-x,1/2-y,z
1/2+x,1/2-y,1/2-z
1/2-x,1/2+y,1/2-z
1/2-x,1/2-y,-z
1/2+x,1/2+y,-z
1/2-x,1/2+y,1/2+z
1/2+x,1/2-y,1/2+z
loop_
_atom_site_type_symbol
_atom_site_label
_atom_site_fract_x
_atom_site_fract_y
_atom_site_fract_z
Si Si1 0.212357 0.524196 0.601704
Si Si2 0.682005 0.514181 0.355597
Si Si3 0.797738 0.708447 0.798419
Si Si4 0.628626 0.663774 0.102642
Si Si5 0.945477 0.892433 0.757724
Si Si6 0.681537 0.171460 0.100544
Si Si7 0.114739 0.174442 0.401050
O O1 0.211279 0.566192 0.500000
O O2 0.263376 0.483180 0.622917
O O3 0.197140 0.602482 0.672004
O O4 0.176375 0.439007 0.611225
O O5 0.672352 0.500000 0.250000
O O6 0.656905 0.431123 0.408118
O O7 0.660724 0.611806 0.384573
O O8 0.750000 0.750000 0.840896
O O9 0.842072 0.765096 0.835296
O O10 0.792130 0.712879 0.688939
O O11 0.578078 0.646668 0.149868
O O12 0.620598 0.702585 0.000000
O O13 0.925109 0.840197 0.671566
O O14 0.000000 0.872198 0.750000
O O15 0.933708 0.000000 0.750000
O O16 0.630448 0.218633 0.101659
O O17 0.705196 0.192367 0.000000
O O18 0.093503 0.150280 0.500000
#
# Coordination Sequence:
#
# PCOD8277434 Si02
#       7
#    16  16  16  16  16  16  16
#     4  11  24  37  53  84 117 154 202 242 280 333
#     4  12  20  34  53  78 117 158 195 236 281 334
#     4  12  23  37  57  82 118 160 200 237 285 340
#     4  12  23  38  58  83 118 158 195 235 290 351
#     4  11  23  40  61  86 116 149 191 242 295 355
#     4  10  23  38  55  79 110 151 198 245 286 331
#     4  11  21  37  58  81 110 151 191 237 293 344
#
# _framework density 18.412016000000001
#
# number of rings (size 3 to 8) (size 9 to 14) (size 15 to 20)
#    0.000    0.714    5.714    3.000    2.000    1.429 
#    0.000    1.429    0.000    0.000    0.000    2.000 
#    0.000    4.571    0.000    0.000    0.000    0.000 
#
# Total GULP energy -694194.300806 kJ/mol
# GULP energy per Si atom -12396.326800 kJ/mol
# Density = 1.837011 g / cm^3
# Si number density = 18.412016 Si / 1000 Ang^3
#
#
#
# Elastic Constant Matrix: (Units=GPa)
#
#
# Indices 1 2 3 4 5 6 
#
# 1 88.9081 50.0392 43.6839 0.0000 0.0000 0.0000
# 2 50.0392 96.7098 40.4509 0.0000 0.0000 0.0000
# 3 43.6839 40.4509 150.3873 0.0000 0.0000 0.0000
# 4 0.0000 0.0000 0.0000 28.3884 0.0000 0.0000
# 5 0.0000 0.0000 0.0000 0.0000 10.7270 0.0000
# 6 0.0000 0.0000 0.0000 0.0000 0.0000 15.5674
#
#
#
# Elastic Compliance Matrix: (Units=1/GPa)
#
#
# Indices 1 2 3 4 5 6 
#
# 1 0.016910 -0.007544 -0.002883 0.000000 0.000000 0.000000
# 2 -0.007544 0.015016 -0.001848 0.000000 0.000000 0.000000
# 3 -0.002883 -0.001848 0.007984 0.000000 0.000000 0.000000
# 4 0.000000 0.000000 0.000000 0.035226 0.000000 0.000000
# 5 0.000000 0.000000 0.000000 0.000000 0.093223 0.000000
# 6 0.000000 0.000000 0.000000 0.000000 0.000000 0.064237
#
#
# Mechanical properties :
#
#
# Convention : Reuss Voigt Hill
#
# Bulk Modulus (GPa) = 65.09790 67.15037 66.12414
# Shear Modulus (GPa) = 19.06475 24.39196 21.72835
#
# Velocity S-wave (km/s) = 3.22133 3.64371 3.43901
# Velocity P-wave (km/s) = 7.01918 7.36561 7.19448
#
# Compressibility (1/GPa) = 0.01536148
#
# Stress axis : x y z
#
# Youngs Moduli (GPa) = 59.13785 66.59449 125.25197
#
# Poissons Ratio (x) = 0.50236 0.36108
# Poissons Ratio (y) = 0.44611 0.23144
# Poissons Ratio (z) = 0.17048 0.12306
#
# Static dielectric constant tensor:
#      x y z
#    x 3.055340 0.000000 0.000000 
#    y 0.000000 3.492630 0.000000 
#    z 0.000000 0.000000 3.760680 
# 
# 
# High freq. dielectric constant tensor:
#      x y z
#    x 1.665020 0.000000 0.000000 
#    y 0.000000 1.709020 0.000000 
#    z 0.000000 0.000000 1.743990 
# 
# From -- ./inp_files/28993.got.cif
#   From: 2010.03.12/outbox.cif.g09.slc.cpg/sg66_15_cif.got.tgz:28993.got - 2010.04.10 21:57:39.
