data_PCOD8277009
_publ_section_title
;
Structure prediction by ZEFSAII (Michael W. Deem and Ramdas Pophale) SiO2 
 PCOD8277009
Probable space group: C C C M
;
_chemical_formula_sum "Si O2"
_cell_formula_units_Z 52
_cell_length_a 19.737903
_cell_length_b 7.540160
_cell_length_c 14.127956
_cell_angle_alpha 90.000000
_cell_angle_beta 90.000000
_cell_angle_gamma 90.000000
_cell_volume 2102.620554
_symmetry_space_group_name_H-M "C C C M"
_symmetry_group_IT_number 66
_symmetry_cell_setting 'orthorhombic'
loop_
_space_group_symop_operation_xyz
x,y,z
-x,-y,z
x,-y,1/2-z
-x,y,1/2-z
-x,-y,-z
x,y,-z
-x,y,1/2+z
x,-y,1/2+z
1/2+x,1/2+y,z
1/2-x,1/2-y,z
1/2+x,1/2-y,1/2-z
1/2-x,1/2+y,1/2-z
1/2-x,1/2-y,-z
1/2+x,1/2+y,-z
1/2-x,1/2+y,1/2+z
1/2+x,1/2-y,1/2+z
loop_
_atom_site_type_symbol
_atom_site_label
_atom_site_fract_x
_atom_site_fract_y
_atom_site_fract_z
Si Si1 0.573986 0.033952 0.107549
Si Si2 0.500000 0.500000 0.750000
Si Si3 0.398312 0.350028 0.892867
Si Si4 0.821271 0.811438 0.611188
O O1 0.621345 0.857588 0.113326
O O2 0.500000 0.000000 0.155416
O O3 0.616668 0.194484 0.156273
O O4 0.559715 0.091332 0.000000
O O5 0.458125 0.374091 0.818952
O O6 0.335450 0.480684 0.866876
O O7 0.422813 0.395049 0.000000
O O8 0.818354 0.770831 0.500000
O O9 0.750000 0.750000 0.657192
#
# Coordination Sequence:
#
# PCOD8277009 Si02
#       4
#    16   4  16  16
#     4   9  17  31  54  85 118 153 192 237 296 359
#     4  12  22  36  62  90 120 150 204 240 302 366
#     4  10  21  37  58  86 123 157 194 250 300 354
#     4   9  18  34  59  88 118 157 201 244 300 365
#
# _framework density 24.731043
#
# number of rings (size 3 to 8) (size 9 to 14) (size 15 to 20)
#    0.000    2.462    0.000    2.308    0.000    6.154 
#    0.000   13.077    6.769    0.000    0.000    0.000 
#    0.000    0.000    0.000    0.000    0.000    0.000 
#
# Total GULP energy -322133.404925 kJ/mol
# GULP energy per Si atom -12389.746343 kJ/mol
# Density = 2.467475 g / cm^3
# Si number density = 24.731043 Si / 1000 Ang^3
#
#
#
# Elastic Constant Matrix: (Units=GPa)
#
#
# Indices 1 2 3 4 5 6 
#
# 1 144.5422 53.2987 -11.8887 0.0000 0.0000 0.0000
# 2 53.2987 151.3554 -23.3722 0.0000 0.0000 0.0000
# 3 -11.8887 -23.3722 59.7700 0.0000 0.0000 0.0000
# 4 0.0000 0.0000 0.0000 -6.0310 0.0000 0.0000
# 5 0.0000 0.0000 0.0000 0.0000 -9.7079 0.0000
# 6 0.0000 0.0000 0.0000 0.0000 0.0000 32.6774
#
#
#
# Elastic Compliance Matrix: (Units=1/GPa)
#
#
# Indices 1 2 3 4 5 6 
#
# 1 0.007966 -0.002725 0.000519 0.000000 0.000000 0.000000
# 2 -0.002725 0.007964 0.002572 0.000000 0.000000 0.000000
# 3 0.000519 0.002572 0.017840 0.000000 0.000000 0.000000
# 4 0.000000 0.000000 0.000000 -0.165809 0.000000 0.000000
# 5 0.000000 0.000000 0.000000 0.000000 -0.103008 0.000000
# 6 0.000000 0.000000 0.000000 0.000000 0.000000 0.030602
#
#
# Mechanical properties :
#
#
# Convention : Reuss Voigt Hill
#
# Bulk Modulus (GPa) = 28.98434 43.52701 36.25567
# Shear Modulus (GPa) = -25.81608 25.89633 0.04012
#
# Velocity S-wave (km/s) = -3.23441 3.23943 0.12751
# Velocity P-wave (km/s) = 1.48434 5.62408 3.83582
#
# Compressibility (1/GPa) = 0.03450139
#
# Stress axis : x y z
#
# Youngs Moduli (GPa) = 125.53514 125.56919 56.05447
#
# Poissons Ratio (x) = 0.34218 -0.02909
# Poissons Ratio (y) = 0.34208 -0.14418
# Poissons Ratio (z) = -0.06514 -0.32297
#
# Static dielectric constant tensor:
#      x y z
#    x 4.478620 0.000000 0.000000 
#    y 0.000000 4.529520 0.000000 
#    z 0.000000 0.000000 4.151900 
# 
# 
# High freq. dielectric constant tensor:
#      x y z
#    x 1.948550 0.000000 0.000000 
#    y 0.000000 1.996780 0.000000 
#    z 0.000000 0.000000 1.959450 
# 
# From -- ./inp_files/23708.got.cif
#   From: 2010.03.12/outbox.cif.g09.slc.cpg/sg66_12_cif.got.tgz:23708.got - 2010.04.10 21:57:39.
