data_PCOD8277907
_publ_section_title
;
Structure prediction by ZEFSAII (Michael W. Deem and Ramdas Pophale) SiO2 
 PCOD8277907
Probable space group: C C C M
;
_chemical_formula_sum "Si O2"
_cell_formula_units_Z 104
_cell_length_a 12.491635
_cell_length_b 17.231678
_cell_length_c 25.553735
_cell_angle_alpha 90.000000
_cell_angle_beta 90.000000
_cell_angle_gamma 90.000000
_cell_volume 5500.488274
_symmetry_space_group_name_H-M "C C C M"
_symmetry_group_IT_number 66
_symmetry_cell_setting 'orthorhombic'
loop_
_space_group_symop_operation_xyz
x,y,z
-x,-y,z
x,-y,1/2-z
-x,y,1/2-z
-x,-y,-z
x,y,-z
-x,y,1/2+z
x,-y,1/2+z
1/2+x,1/2+y,z
1/2-x,1/2-y,z
1/2+x,1/2-y,1/2-z
1/2-x,1/2+y,1/2-z
1/2-x,1/2-y,-z
1/2+x,1/2+y,-z
1/2-x,1/2+y,1/2+z
1/2+x,1/2-y,1/2+z
loop_
_atom_site_type_symbol
_atom_site_label
_atom_site_fract_x
_atom_site_fract_y
_atom_site_fract_z
Si Si1 0.132410 0.153433 0.440058
Si Si2 0.013097 0.408607 0.650456
Si Si3 0.429058 0.576207 0.836605
Si Si4 0.833982 0.305698 0.700141
Si Si5 0.000000 0.804605 0.250000
Si Si6 0.290102 0.923535 0.780097
Si Si7 0.879243 0.331953 0.058796
O O1 0.095624 0.134633 0.500000
O O2 0.070403 0.100436 0.397896
O O3 0.108904 0.242273 0.425180
O O4 0.258385 0.138540 0.434414
O O5 0.109827 0.386584 0.688911
O O6 0.041948 0.384578 0.592064
O O7 0.000000 0.500000 0.652877
O O8 0.905589 0.361317 0.664017
O O9 0.500000 0.500000 0.829491
O O10 0.477374 0.643998 0.801258
O O11 0.308681 0.557237 0.817974
O O12 0.750000 0.250000 0.668131
O O13 0.758897 0.359677 0.736926
O O14 0.901883 0.251031 0.737733
O O15 0.329497 0.000000 0.750000
O O16 0.917940 0.343142 0.000000
#
# Coordination Sequence:
#
# PCOD8277907 Si02
#       7
#    16  16  16  16   8  16  16
#     4   9  19  38  64  89 115 151 200 257 312 368
#     4  12  23  38  63  89 118 164 207 254 313 370
#     4  12  25  38  58  87 128 165 200 250 314 382
#     4  12  25  38  59  87 122 161 211 262 299 376
#     4  12  23  38  57  88 116 164 206 240 313 368
#     4  12  23  40  57  84 126 162 208 251 306 373
#     4   9  19  38  64  91 114 144 199 263 312 366
#
# _framework density 18.907412999999998
#
# number of rings (size 3 to 8) (size 9 to 14) (size 15 to 20)
#    0.000    0.923    6.154    3.000    0.000    0.615 
#    0.000    0.000    0.000    0.462    0.000    0.000 
#    0.000    0.000    0.000    0.000    0.000    0.000 
#
# Total GULP energy -644664.559386 kJ/mol
# GULP energy per Si atom -12397.395373 kJ/mol
# Density = 1.886438 g / cm^3
# Si number density = 18.907413 Si / 1000 Ang^3
#
#
#
# Elastic Constant Matrix: (Units=GPa)
#
#
# Indices 1 2 3 4 5 6 
#
# 1 81.3864 43.9130 32.1081 0.0000 0.0000 0.0000
# 2 43.9130 106.0632 44.8844 0.0000 0.0000 0.0000
# 3 32.1081 44.8844 101.9494 0.0000 0.0000 0.0000
# 4 0.0000 0.0000 0.0000 30.3170 0.0000 0.0000
# 5 0.0000 0.0000 0.0000 0.0000 25.9596 0.0000
# 6 0.0000 0.0000 0.0000 0.0000 0.0000 37.2008
#
#
#
# Elastic Compliance Matrix: (Units=1/GPa)
#
#
# Indices 1 2 3 4 5 6 
#
# 1 0.016393 -0.005656 -0.002673 0.000000 0.000000 0.000000
# 2 -0.005656 0.013539 -0.004179 0.000000 0.000000 0.000000
# 3 -0.002673 -0.004179 0.012490 0.000000 0.000000 0.000000
# 4 0.000000 0.000000 0.000000 0.032985 0.000000 0.000000
# 5 0.000000 0.000000 0.000000 0.000000 0.038521 0.000000
# 6 0.000000 0.000000 0.000000 0.000000 0.000000 0.026881
#
#
# Mechanical properties :
#
#
# Convention : Reuss Voigt Hill
#
# Bulk Modulus (GPa) = 57.45056 59.02332 58.23694
# Shear Modulus (GPa) = 29.13269 29.92836 29.53052
#
# Velocity S-wave (km/s) = 3.92957 3.98287 3.95631
# Velocity P-wave (km/s) = 7.14422 7.24126 7.19290
#
# Compressibility (1/GPa) = 0.01740627
#
# Stress axis : x y z
#
# Youngs Moduli (GPa) = 61.00018 73.86203 80.06091
#
# Poissons Ratio (x) = 0.41778 0.21398
# Poissons Ratio (y) = 0.34503 0.33459
# Poissons Ratio (z) = 0.16304 0.30868
#
# Static dielectric constant tensor:
#      x y z
#    x 3.423680 0.000000 0.000000 
#    y 0.000000 3.536270 0.000000 
#    z 0.000000 0.000000 3.413570 
# 
# 
# High freq. dielectric constant tensor:
#      x y z
#    x 1.726210 0.000000 0.000000 
#    y 0.000000 1.744630 0.000000 
#    z 0.000000 0.000000 1.722800 
# 
# From -- ./inp_files/63786.got.cif
#   From: 2010.03.12/outbox.cif.g09.slc.cpg/sg66_32_cif.got.tgz:63786.got - 2010.04.10 21:57:39.
