data_PCOD8277318
_publ_section_title
;
Structure prediction by ZEFSAII (Michael W. Deem and Ramdas Pophale) SiO2 
 PCOD8277318
Probable space group: C C C M
;
_chemical_formula_sum "Si O2"
_cell_formula_units_Z 80
_cell_length_a 15.913468
_cell_length_b 13.669635
_cell_length_c 17.573849
_cell_angle_alpha 90.000000
_cell_angle_beta 90.000000
_cell_angle_gamma 90.000000
_cell_volume 3822.862204
_symmetry_space_group_name_H-M "C C C M"
_symmetry_group_IT_number 66
_symmetry_cell_setting 'orthorhombic'
loop_
_space_group_symop_operation_xyz
x,y,z
-x,-y,z
x,-y,1/2-z
-x,y,1/2-z
-x,-y,-z
x,y,-z
-x,y,1/2+z
x,-y,1/2+z
1/2+x,1/2+y,z
1/2-x,1/2-y,z
1/2+x,1/2-y,1/2-z
1/2-x,1/2+y,1/2-z
1/2-x,1/2-y,-z
1/2+x,1/2+y,-z
1/2-x,1/2+y,1/2+z
1/2+x,1/2-y,1/2+z
loop_
_atom_site_type_symbol
_atom_site_label
_atom_site_fract_x
_atom_site_fract_y
_atom_site_fract_z
Si Si1 0.348140 0.237355 0.910097
Si Si2 0.629426 0.799378 0.589615
Si Si3 0.521715 0.891161 0.838037
Si Si4 0.209595 0.102263 0.409525
Si Si5 0.416103 0.445806 0.090380
O O1 0.250000 0.250000 0.889298
O O2 0.384460 0.144814 0.861426
O O3 0.401864 0.333479 0.884940
O O4 0.357571 0.215741 0.000000
O O5 0.629708 0.793580 0.500000
O O6 0.536422 0.816265 0.617263
O O7 0.693309 0.886060 0.617246
O O8 0.658847 0.695465 0.622585
O O9 0.500000 0.882305 0.750000
O O10 0.500000 0.000000 0.867109
O O11 0.205878 0.101962 0.500000
O O12 0.165649 0.004439 0.378100
O O13 0.500000 0.500000 0.123045
O O14 0.419739 0.450650 0.000000
#
# Coordination Sequence:
#
# PCOD8277318 Si02
#       5
#    16  16  16  16  16
#     4  10  22  39  62  92 121 151 196 253 307 356
#     4   9  17  32  57  86 113 145 198 247 283 338
#     4  11  25  42  58  79 117 163 205 242 296 364
#     4   8  15  28  52  88 117 142 182 238 293 343
#     4   9  16  28  52  84 120 148 175 230 302 353
#
# _framework density 20.926729000000002
#
# number of rings (size 3 to 8) (size 9 to 14) (size 15 to 20)
#    0.000    2.600    0.000    3.000    2.800    4.800 
#    3.600    0.000    0.000    5.400    0.000    0.000 
#    0.000    0.000    0.000    0.000    0.000    0.000 
#
# Total GULP energy -495583.954370 kJ/mol
# GULP energy per Si atom -12389.598859 kJ/mol
# Density = 2.087910 g / cm^3
# Si number density = 20.926729 Si / 1000 Ang^3
#
#
#
# Elastic Constant Matrix: (Units=GPa)
#
#
# Indices 1 2 3 4 5 6 
#
# 1 112.6823 46.6431 22.1653 0.0000 0.0000 0.0000
# 2 46.6431 110.3279 26.6166 0.0000 0.0000 0.0000
# 3 22.1653 26.6166 24.8590 0.0000 0.0000 0.0000
# 4 0.0000 0.0000 0.0000 23.3765 0.0000 0.0000
# 5 0.0000 0.0000 0.0000 0.0000 12.3185 0.0000
# 6 0.0000 0.0000 0.0000 0.0000 0.0000 43.1542
#
#
#
# Elastic Compliance Matrix: (Units=1/GPa)
#
#
# Indices 1 2 3 4 5 6 
#
# 1 0.011560 -0.003237 -0.006842 0.000000 0.000000 0.000000
# 2 -0.003237 0.013127 -0.011169 0.000000 0.000000 0.000000
# 3 -0.006842 -0.011169 0.058286 0.000000 0.000000 0.000000
# 4 0.000000 0.000000 0.000000 0.042778 0.000000 0.000000
# 5 0.000000 0.000000 0.000000 0.000000 0.081178 0.000000
# 6 0.000000 0.000000 0.000000 0.000000 0.000000 0.023173
#
#
# Mechanical properties :
#
#
# Convention : Reuss Voigt Hill
#
# Bulk Modulus (GPa) = 24.70484 48.74658 36.72571
# Shear Modulus (GPa) = 17.47701 25.93280 21.70490
#
# Velocity S-wave (km/s) = 2.89304 3.52407 3.22403
# Velocity P-wave (km/s) = 4.79485 6.31690 5.60776
#
# Compressibility (1/GPa) = 0.04047789
#
# Stress axis : x y z
#
# Youngs Moduli (GPa) = 86.50432 76.18035 17.15670
#
# Poissons Ratio (x) = 0.24657 0.11739
# Poissons Ratio (y) = 0.27998 0.19162
# Poissons Ratio (z) = 0.59186 0.85086
#
# Static dielectric constant tensor:
#      x y z
#    x 3.942310 0.000000 0.000000 
#    y 0.000000 4.079780 0.000000 
#    z 0.000000 0.000000 3.140630 
# 
# 
# High freq. dielectric constant tensor:
#      x y z
#    x 1.834590 0.000000 0.000000 
#    y 0.000000 1.826820 0.000000 
#    z 0.000000 0.000000 1.748720 
# 
# From -- ./inp_files/49775.got.cif
#   From: 2010.03.12/outbox.cif.g09.slc.cpg/sg66_25_cif.got.tgz:49775.got - 2010.04.10 21:57:39.
