data_PCOD8277921
_publ_section_title
;
Structure prediction by ZEFSAII (Michael W. Deem and Ramdas Pophale) SiO2 
 PCOD8277921
Probable space group: C C C M
;
_chemical_formula_sum "Si O2"
_cell_formula_units_Z 80
_cell_length_a 27.152436
_cell_length_b 20.487093
_cell_length_c 9.596964
_cell_angle_alpha 90.000000
_cell_angle_beta 90.000000
_cell_angle_gamma 90.000000
_cell_volume 5338.546173
_symmetry_space_group_name_H-M "C C C M"
_symmetry_group_IT_number 66
_symmetry_cell_setting 'orthorhombic'
loop_
_space_group_symop_operation_xyz
x,y,z
-x,-y,z
x,-y,1/2-z
-x,y,1/2-z
-x,-y,-z
x,y,-z
-x,y,1/2+z
x,-y,1/2+z
1/2+x,1/2+y,z
1/2-x,1/2-y,z
1/2+x,1/2-y,1/2-z
1/2-x,1/2+y,1/2-z
1/2-x,1/2-y,-z
1/2+x,1/2+y,-z
1/2-x,1/2+y,1/2+z
1/2+x,1/2-y,1/2+z
loop_
_atom_site_type_symbol
_atom_site_label
_atom_site_fract_x
_atom_site_fract_y
_atom_site_fract_z
Si Si1 0.222761 0.680879 0.156805
Si Si2 0.952273 0.805197 0.163073
Si Si3 0.144974 0.735102 0.345615
Si Si4 0.800929 0.872385 0.154436
Si Si5 0.600076 0.561992 0.836970
O O1 0.250000 0.750000 0.155793
O O2 0.170277 0.686360 0.235355
O O3 0.256240 0.627045 0.235454
O O4 0.213180 0.656286 0.000000
O O5 0.910783 0.751374 0.200146
O O6 0.933740 0.877027 0.206720
O O7 0.000000 0.785999 0.250000
O O8 0.964618 0.803515 0.000000
O O9 0.145734 0.703040 0.500000
O O10 0.175198 0.801543 0.352585
O O11 0.842894 0.923453 0.201013
O O12 0.780795 0.890028 0.000000
O O13 0.581607 0.500000 0.750000
O O14 0.594564 0.547080 0.000000
#
# Coordination Sequence:
#
# PCOD8277921 Si02
#       5
#    16  16  16  16  16
#     4   9  15  21  33  55  75  87 105 136 173 212
#     4   9  18  30  41  53  69  92 124 159 193 226
#     4   8  14  25  38  50  67  91 115 139 173 219
#     4   8  14  25  38  50  67  91 115 139 173 219
#     4   9  18  30  41  53  69  92 124 159 193 226
#
# _framework density 14.985353
#
# number of rings (size 3 to 8) (size 9 to 14) (size 15 to 20)
#    0.000    3.400    0.000    3.000    0.000    5.200 
#    0.000    6.000    0.000    0.000    0.000    0.000 
#    0.000    0.000    0.000    0.000    0.000    1.000 
#
# Total GULP energy -495766.443174 kJ/mol
# GULP energy per Si atom -12394.161079 kJ/mol
# Density = 1.495125 g / cm^3
# Si number density = 14.985353 Si / 1000 Ang^3
#
#
#
# Elastic Constant Matrix: (Units=GPa)
#
#
# Indices 1 2 3 4 5 6 
#
# 1 101.9612 15.4859 60.7997 0.0000 0.0000 0.0000
# 2 15.4859 3.4501 10.4651 0.0000 0.0000 0.0000
# 3 60.7997 10.4651 86.5998 0.0000 0.0000 0.0000
# 4 0.0000 0.0000 0.0000 8.7832 0.0000 0.0000
# 5 0.0000 0.0000 0.0000 0.0000 27.3614 0.0000
# 6 0.0000 0.0000 0.0000 0.0000 0.0000 13.7450
#
#
#
# Elastic Compliance Matrix: (Units=1/GPa)
#
#
# Indices 1 2 3 4 5 6 
#
# 1 0.034523 -0.128566 -0.008701 0.000000 0.000000 0.000000
# 2 -0.128566 0.936370 -0.022892 0.000000 0.000000 0.000000
# 3 -0.008701 -0.022892 0.020423 0.000000 0.000000 0.000000
# 4 0.000000 0.000000 0.000000 0.113854 0.000000 0.000000
# 5 0.000000 0.000000 0.000000 0.000000 0.036548 0.000000
# 6 0.000000 0.000000 0.000000 0.000000 0.000000 0.072754
#
#
# Mechanical properties :
#
#
# Convention : Reuss Voigt Hill
#
# Bulk Modulus (GPa) = 1.49032 40.61251 21.05142
# Shear Modulus (GPa) = 2.84340 16.99525 9.91933
#
# Velocity S-wave (km/s) = 1.37898 3.37133 2.57560
# Velocity P-wave (km/s) = 1.87939 6.50498 4.78784
#
# Compressibility (1/GPa) = 0.67099752
#
# Stress axis : x y z
#
# Youngs Moduli (GPa) = 28.96626 1.06795 48.96520
#
# Poissons Ratio (x) = 0.13730 0.42606
# Poissons Ratio (y) = 3.72408 1.12089
# Poissons Ratio (z) = 0.25204 0.02445
#
# Static dielectric constant tensor:
#      x y z
#    x 2.895880 0.000000 0.000000 
#    y 0.000000 2.431510 0.000000 
#    z 0.000000 0.000000 3.052090 
# 
# 
# High freq. dielectric constant tensor:
#      x y z
#    x 1.562590 0.000000 0.000000 
#    y 0.000000 1.507150 0.000000 
#    z 0.000000 0.000000 1.581180 
# 
# From -- ./inp_files/6703.got.cif
#   From: 2010.03.12/outbox.cif.g09.slc.cpg/sg66_4_cif.got.tgz:6703.got - 2010.04.10 21:57:39.
