data_PCOD8277557
_publ_section_title
;
Structure prediction by ZEFSAII (Michael W. Deem and Ramdas Pophale) SiO2 
 PCOD8277557
Probable space group: C C C M
;
_chemical_formula_sum "Si O2"
_cell_formula_units_Z 60
_cell_length_a 18.732377
_cell_length_b 5.295320
_cell_length_c 25.476767
_cell_angle_alpha 90.000000
_cell_angle_beta 90.000000
_cell_angle_gamma 90.000000
_cell_volume 2527.140657
_symmetry_space_group_name_H-M "C C C M"
_symmetry_group_IT_number 66
_symmetry_cell_setting 'orthorhombic'
loop_
_space_group_symop_operation_xyz
x,y,z
-x,-y,z
x,-y,1/2-z
-x,y,1/2-z
-x,-y,-z
x,y,-z
-x,y,1/2+z
x,-y,1/2+z
1/2+x,1/2+y,z
1/2-x,1/2-y,z
1/2+x,1/2-y,1/2-z
1/2-x,1/2+y,1/2-z
1/2-x,1/2-y,-z
1/2+x,1/2+y,-z
1/2-x,1/2+y,1/2+z
1/2+x,1/2-y,1/2+z
loop_
_atom_site_type_symbol
_atom_site_label
_atom_site_fract_x
_atom_site_fract_y
_atom_site_fract_z
Si Si1 0.165669 0.991010 0.059147
Si Si2 0.420058 0.983272 0.412372
Si Si3 0.250000 0.250000 0.360916
Si Si4 0.000000 0.000000 0.750000
Si Si5 0.891972 0.638216 0.303161
O O1 0.116888 0.236083 0.064734
O O2 0.120439 0.738850 0.071750
O O3 0.234068 0.987936 0.099178
O O4 0.195341 0.981486 0.000000
O O5 0.422379 0.956565 0.348802
O O6 0.500000 0.000000 0.435050
O O7 0.182822 0.256219 0.323045
O O8 0.951139 0.154269 0.790221
O O9 0.873787 0.500000 0.250000
#
# Coordination Sequence:
#
# PCOD8277557 Si02
#       5
#    16  16   8   4  16
#     4  11  25  46  71 105 148 197 250 309 373 439
#     4  11  25  43  73 107 148 194 249 308 372 442
#     4  10  27  46  74 108 150 196 251 308 378 450
#     4  12  26  48  76 106 150 198 246 304 386 444
#     4  11  27  44  74 107 147 194 245 306 374 452
#
# _framework density 23.742249000000001
#
# number of rings (size 3 to 8) (size 9 to 14) (size 15 to 20)
#    0.000    1.067    0.000    4.000   16.800    7.467 
#    0.000    6.667    0.000    0.000    0.000    0.000 
#    0.000    0.000    0.000    0.000    0.000    0.000 
#
# Total GULP energy -371726.936140 kJ/mol
# GULP energy per Si atom -12390.897871 kJ/mol
# Density = 2.368821 g / cm^3
# Si number density = 23.742249 Si / 1000 Ang^3
#
#
#
# Elastic Constant Matrix: (Units=GPa)
#
#
# Indices 1 2 3 4 5 6 
#
# 1 158.1404 47.3101 49.7187 0.0000 0.0000 0.0000
# 2 47.3101 131.8763 43.4401 0.0000 0.0000 0.0000
# 3 49.7187 43.4401 179.2559 0.0000 0.0000 0.0000
# 4 0.0000 0.0000 0.0000 22.3157 0.0000 0.0000
# 5 0.0000 0.0000 0.0000 0.0000 -8.5998 0.0000
# 6 0.0000 0.0000 0.0000 0.0000 0.0000 23.0696
#
#
#
# Elastic Compliance Matrix: (Units=1/GPa)
#
#
# Indices 1 2 3 4 5 6 
#
# 1 0.007457 -0.002167 -0.001543 0.000000 0.000000 0.000000
# 2 -0.002167 0.008870 -0.001549 0.000000 0.000000 0.000000
# 3 -0.001543 -0.001549 0.006382 0.000000 0.000000 0.000000
# 4 0.000000 0.000000 0.000000 0.044812 0.000000 0.000000
# 5 0.000000 0.000000 0.000000 0.000000 -0.116281 0.000000
# 6 0.000000 0.000000 0.000000 0.000000 0.000000 0.043347
#
#
# Mechanical properties :
#
#
# Convention : Reuss Voigt Hill
#
# Bulk Modulus (GPa) = 82.02125 83.35672 82.68899
# Shear Modulus (GPa) = 545.39299 29.27733 287.33516
#
# Velocity S-wave (km/s) = 15.17277 3.51541 11.01297
# Velocity P-wave (km/s) = 18.48167 7.18768 14.02203
#
# Compressibility (1/GPa) = 0.01219196
#
# Stress axis : x y z
#
# Youngs Moduli (GPa) = 134.10410 112.73566 156.69282
#
# Poissons Ratio (x) = 0.24428 0.24180
# Poissons Ratio (y) = 0.29058 0.24265
# Poissons Ratio (z) = 0.20694 0.17458
#
# Static dielectric constant tensor:
#      x y z
#    x 4.557860 0.000000 0.000000 
#    y 0.000000 4.286290 0.000000 
#    z 0.000000 0.000000 4.809030 
# 
# 
# High freq. dielectric constant tensor:
#      x y z
#    x 1.961590 0.000000 0.000000 
#    y 0.000000 1.928760 0.000000 
#    z 0.000000 0.000000 1.963700 
# 
# From -- ./inp_files/59183.got.cif
#   From: 2010.03.12/outbox.cif.g09.slc.cpg/sg66_30_cif.got.tgz:59183.got - 2010.04.10 21:57:39.
