data_PCOD8277818
_publ_section_title
;
Structure prediction by ZEFSAII (Michael W. Deem and Ramdas Pophale) SiO2 
 PCOD8277818
Probable space group: C C C M
;
_chemical_formula_sum "Si O2"
_cell_formula_units_Z 112
_cell_length_a 30.876991
_cell_length_b 10.980203
_cell_length_c 14.611869
_cell_angle_alpha 90.000000
_cell_angle_beta 90.000000
_cell_angle_gamma 90.000000
_cell_volume 4953.944200
_symmetry_space_group_name_H-M "C C C M"
_symmetry_group_IT_number 66
_symmetry_cell_setting 'orthorhombic'
loop_
_space_group_symop_operation_xyz
x,y,z
-x,-y,z
x,-y,1/2-z
-x,y,1/2-z
-x,-y,-z
x,y,-z
-x,y,1/2+z
x,-y,1/2+z
1/2+x,1/2+y,z
1/2-x,1/2-y,z
1/2+x,1/2-y,1/2-z
1/2-x,1/2+y,1/2-z
1/2-x,1/2-y,-z
1/2+x,1/2+y,-z
1/2-x,1/2+y,1/2+z
1/2+x,1/2-y,1/2+z
loop_
_atom_site_type_symbol
_atom_site_label
_atom_site_fract_x
_atom_site_fract_y
_atom_site_fract_z
Si Si1 0.454735 0.676066 0.274674
Si Si2 0.375248 0.015557 0.356155
Si Si3 0.703785 0.596366 0.832874
Si Si4 0.612915 0.536587 0.898850
Si Si5 0.095962 0.233998 0.398174
Si Si6 0.293442 0.855021 0.396605
Si Si7 0.534722 0.093120 0.601940
O O1 0.500000 0.607582 0.250000
O O2 0.420009 0.584093 0.320403
O O3 0.439863 0.740104 0.180629
O O4 0.464460 0.782806 0.343931
O O5 0.369587 0.157394 0.382945
O O6 0.382123 0.000000 0.250000
O O7 0.333299 0.945235 0.389085
O O8 0.417801 0.965349 0.405050
O O9 0.698022 0.500000 0.750000
O O10 0.660918 0.589238 0.894246
O O11 0.704605 0.745472 0.820573
O O12 0.749634 0.565052 0.880528
O O13 0.620455 0.393238 0.886113
O O14 0.593916 0.568016 0.000000
O O15 0.074969 0.243222 0.500000
O O16 0.292261 0.801092 0.500000
O O17 0.519002 0.124936 0.500000
O O18 0.500000 0.000000 0.646837
#
# Coordination Sequence:
#
# PCOD8277818 Si02
#       7
#    16  16  16  16  16  16  16
#     4  12  25  43  69 100 137 183 248 297 356 432
#     4  12  24  42  70 102 140 183 237 293 357 429
#     4  11  23  43  70 103 140 179 237 293 353 420
#     4  11  25  46  71  99 137 190 240 296 364 434
#     4  11  25  44  65  97 141 181 225 293 363 418
#     4  11  24  44  72 105 140 187 239 295 359 429
#     4  11  24  42  67  99 138 184 237 300 365 432
#
# _framework density 22.608249000000001
#
# number of rings (size 3 to 8) (size 9 to 14) (size 15 to 20)
#    0.000    0.714    1.429    6.857    2.000    3.429 
#    0.000    1.429    0.000    3.000    0.000    0.000 
#    0.000    0.000    0.000    0.000    0.000    0.000 
#
# Total GULP energy -693828.308247 kJ/mol
# GULP energy per Si atom -12389.791219 kJ/mol
# Density = 2.255679 g / cm^3
# Si number density = 22.608249 Si / 1000 Ang^3
#
#
#
# Elastic Constant Matrix: (Units=GPa)
#
#
# Indices 1 2 3 4 5 6 
#
# 1 182.3259 64.4049 28.7796 0.0000 0.0000 0.0000
# 2 64.4049 144.2392 56.3783 0.0000 0.0000 0.0000
# 3 28.7796 56.3783 135.8432 0.0000 0.0000 0.0000
# 4 0.0000 0.0000 0.0000 32.4694 0.0000 0.0000
# 5 0.0000 0.0000 0.0000 0.0000 16.3870 0.0000
# 6 0.0000 0.0000 0.0000 0.0000 0.0000 19.7141
#
#
#
# Elastic Compliance Matrix: (Units=1/GPa)
#
#
# Indices 1 2 3 4 5 6 
#
# 1 0.006517 -0.002829 -0.000206 0.000000 0.000000 0.000000
# 2 -0.002829 0.009504 -0.003345 0.000000 0.000000 0.000000
# 3 -0.000206 -0.003345 0.008793 0.000000 0.000000 0.000000
# 4 0.000000 0.000000 0.000000 0.030798 0.000000 0.000000
# 5 0.000000 0.000000 0.000000 0.000000 0.061024 0.000000
# 6 0.000000 0.000000 0.000000 0.000000 0.000000 0.050725
#
#
# Mechanical properties :
#
#
# Convention : Reuss Voigt Hill
#
# Bulk Modulus (GPa) = 82.96853 84.61488 83.79170
# Shear Modulus (GPa) = 27.15340 34.57048 30.86194
#
# Velocity S-wave (km/s) = 3.46936 3.91463 3.69870
# Velocity P-wave (km/s) = 7.26819 7.61185 7.44200
#
# Compressibility (1/GPa) = 0.01205276
#
# Stress axis : x y z
#
# Youngs Moduli (GPa) = 153.45398 105.22404 113.72216
#
# Poissons Ratio (x) = 0.29769 0.02348
# Poissons Ratio (y) = 0.43413 0.38038
# Poissons Ratio (z) = 0.03168 0.35196
#
# Static dielectric constant tensor:
#      x y z
#    x 4.310150 0.000000 0.000000 
#    y 0.000000 4.179880 0.000000 
#    z 0.000000 0.000000 4.240820 
# 
# 
# High freq. dielectric constant tensor:
#      x y z
#    x 1.894170 0.000000 0.000000 
#    y 0.000000 1.899380 0.000000 
#    z 0.000000 0.000000 1.897850 
# 
# From -- ./inp_files/33798.got.cif
#   From: 2010.03.12/outbox.cif.g09.slc.cpg/sg66_17_cif.got.tgz:33798.got - 2010.04.10 21:57:39.
