data_PCOD8277737
_publ_section_title
;
Structure prediction by ZEFSAII (Michael W. Deem and Ramdas Pophale) SiO2 
 PCOD8277737
Probable space group: C C C M
;
_chemical_formula_sum "Si O2"
_cell_formula_units_Z 80
_cell_length_a 18.556853
_cell_length_b 8.668503
_cell_length_c 25.559028
_cell_angle_alpha 90.000000
_cell_angle_beta 90.000000
_cell_angle_gamma 90.000000
_cell_volume 4111.428718
_symmetry_space_group_name_H-M "C C C M"
_symmetry_group_IT_number 66
_symmetry_cell_setting 'orthorhombic'
loop_
_space_group_symop_operation_xyz
x,y,z
-x,-y,z
x,-y,1/2-z
-x,y,1/2-z
-x,-y,-z
x,y,-z
-x,y,1/2+z
x,-y,1/2+z
1/2+x,1/2+y,z
1/2-x,1/2-y,z
1/2+x,1/2-y,1/2-z
1/2-x,1/2+y,1/2-z
1/2-x,1/2-y,-z
1/2+x,1/2+y,-z
1/2-x,1/2+y,1/2+z
1/2+x,1/2-y,1/2+z
loop_
_atom_site_type_symbol
_atom_site_label
_atom_site_fract_x
_atom_site_fract_y
_atom_site_fract_z
Si Si1 0.580421 0.687056 0.809709
Si Si2 0.411939 0.341095 0.307854
Si Si3 0.577724 0.922169 0.898522
Si Si4 0.396330 0.390153 0.500000
Si Si5 0.941937 0.781160 0.000000
Si Si6 0.333409 0.785692 0.903298
O O1 0.602084 0.727325 0.750142
O O2 0.614150 0.516897 0.818358
O O3 0.495893 0.671934 0.818946
O O4 0.607233 0.818905 0.849763
O O5 0.368893 0.235809 0.347061
O O6 0.568697 0.816006 0.948366
O O7 0.500000 0.000000 0.885096
O O8 0.641483 0.039815 0.915563
O O9 0.387188 0.574897 0.500000
O O10 0.478139 0.343039 0.500000
O O11 0.359884 0.328377 0.552122
O O12 0.250000 0.750000 0.897908
#
# Coordination Sequence:
#
# PCOD8277737 Si02
#       6
#    16  16  16   8   8  16
#     4   9  18  35  63  88 113 156 206 262 295 353
#     4   9  18  37  59  87 120 154 205 250 309 360
#     4  12  21  37  61  96 123 153 209 267 303 360
#     4  11  22  41  64  89 120 167 204 256 321 377
#     4  11  22  38  68  94 116 150 221 270 301 357
#     4  12  25  40  57  88 132 167 194 252 326 384
#
# _framework density 19.457955999999999
#
# number of rings (size 3 to 8) (size 9 to 14) (size 15 to 20)
#    0.000    1.400    4.000    3.600    0.000    4.000 
#    0.000    9.000    0.000    0.000    0.000    0.000 
#    0.000    0.000    0.000    0.000    0.000    0.000 
#
# Total GULP energy -495734.900086 kJ/mol
# GULP energy per Si atom -12393.372502 kJ/mol
# Density = 1.941367 g / cm^3
# Si number density = 19.457956 Si / 1000 Ang^3
#
#
#
# Elastic Constant Matrix: (Units=GPa)
#
#
# Indices 1 2 3 4 5 6 
#
# 1 40.2209 11.0163 36.0883 0.0000 0.0000 0.0000
# 2 11.0163 93.1662 61.5932 0.0000 0.0000 0.0000
# 3 36.0883 61.5932 136.3410 0.0000 0.0000 0.0000
# 4 0.0000 0.0000 0.0000 74.2072 0.0000 0.0000
# 5 0.0000 0.0000 0.0000 0.0000 69.2943 0.0000
# 6 0.0000 0.0000 0.0000 0.0000 0.0000 19.2391
#
#
#
# Elastic Compliance Matrix: (Units=1/GPa)
#
#
# Indices 1 2 3 4 5 6 
#
# 1 0.033068 0.002676 -0.009962 0.000000 0.000000 0.000000
# 2 0.002676 0.015521 -0.007720 0.000000 0.000000 0.000000
# 3 -0.009962 -0.007720 0.013459 0.000000 0.000000 0.000000
# 4 0.000000 0.000000 0.000000 0.013476 0.000000 0.000000
# 5 0.000000 0.000000 0.000000 0.000000 0.014431 0.000000
# 6 0.000000 0.000000 0.000000 0.000000 0.000000 0.051977
#
#
# Mechanical properties :
#
#
# Convention : Reuss Voigt Hill
#
# Bulk Modulus (GPa) = 31.21498 54.12488 42.66993
# Shear Modulus (GPa) = 27.37894 43.28347 35.33121
#
# Velocity S-wave (km/s) = 3.75518 4.72154 4.26581
# Velocity P-wave (km/s) = 5.90584 7.58950 6.79998
#
# Compressibility (1/GPa) = 0.03203590
#
# Stress axis : x y z
#
# Youngs Moduli (GPa) = 30.24084 64.42957 74.30080
#
# Poissons Ratio (x) = -0.17239 0.74015
# Poissons Ratio (y) = -0.08091 0.57359
# Poissons Ratio (z) = 0.30124 0.49739
#
# Static dielectric constant tensor:
#      x y z
#    x 3.338300 0.000000 0.000000 
#    y 0.000000 4.344740 0.000000 
#    z 0.000000 0.000000 3.758500 
# 
# 
# High freq. dielectric constant tensor:
#      x y z
#    x 1.711310 0.000000 0.000000 
#    y 0.000000 1.770000 0.000000 
#    z 0.000000 0.000000 1.777970 
# 
# From -- ./inp_files/59303.got.cif
#   From: 2010.03.12/outbox.cif.g09.slc.cpg/sg66_30_cif.got.tgz:59303.got - 2010.04.10 21:57:39.
