data_PCOD8277903
_publ_section_title
;
Structure prediction by ZEFSAII (Michael W. Deem and Ramdas Pophale) SiO2 
 PCOD8277903
Probable space group: C C C M
;
_chemical_formula_sum "Si O2"
_cell_formula_units_Z 88
_cell_length_a 5.016421
_cell_length_b 26.357868
_cell_length_c 29.681985
_cell_angle_alpha 90.000000
_cell_angle_beta 90.000000
_cell_angle_gamma 90.000000
_cell_volume 3924.616245
_symmetry_space_group_name_H-M "C C C M"
_symmetry_group_IT_number 66
_symmetry_cell_setting 'orthorhombic'
loop_
_space_group_symop_operation_xyz
x,y,z
-x,-y,z
x,-y,1/2-z
-x,y,1/2-z
-x,-y,-z
x,y,-z
-x,y,1/2+z
x,-y,1/2+z
1/2+x,1/2+y,z
1/2-x,1/2-y,z
1/2+x,1/2-y,1/2-z
1/2-x,1/2+y,1/2-z
1/2-x,1/2-y,-z
1/2+x,1/2+y,-z
1/2-x,1/2+y,1/2+z
1/2+x,1/2-y,1/2+z
loop_
_atom_site_type_symbol
_atom_site_label
_atom_site_fract_x
_atom_site_fract_y
_atom_site_fract_z
Si Si1 0.465629 0.381171 0.699705
Si Si2 0.515818 0.717583 0.638751
Si Si3 0.534852 0.059985 0.329299
Si Si4 0.247026 0.534810 0.500000
Si Si5 0.961949 0.834997 0.552120
Si Si6 0.950245 0.394777 0.573742
O O1 0.500000 0.359411 0.750000
O O2 0.505941 0.335909 0.664387
O O3 0.674390 0.425498 0.688277
O O4 0.178417 0.407673 0.698560
O O5 0.750000 0.750000 0.662316
O O6 0.618852 0.709277 0.586841
O O7 0.250000 0.750000 0.642546
O O8 0.493604 0.075600 0.380859
O O9 0.500000 0.000000 0.323076
O O10 0.500000 0.500000 0.500000
O O11 0.235910 0.569647 0.543373
O O12 0.000000 0.500000 0.500000
O O13 0.999851 0.817227 0.500000
O O14 0.736108 0.879130 0.552851
O O15 0.249378 0.847326 0.575831
#
# Coordination Sequence:
#
# PCOD8277903 Si02
#       6
#    16  16  16   8  16  16
#     4  12  27  48  74 105 142 181 231 296 359 422
#     4  12  26  46  75 103 138 180 234 294 359 423
#     4  12  25  45  73 104 143 190 235 281 350 426
#     4  12  24  36  58  98 136 178 246 288 328 406
#     4  12  23  43  71  98 138 184 232 285 349 415
#     4  12  22  42  65  95 138 192 230 284 346 405
#
# _framework density 22.422574999999998
#
# number of rings (size 3 to 8) (size 9 to 14) (size 15 to 20)
#    0.000    0.000    5.455    4.909    0.000    5.091 
#    0.000    0.000    0.000    0.000    0.000    0.000 
#    0.000    0.000    0.000    0.000    0.000    0.000 
#
# Total GULP energy -545456.703578 kJ/mol
# GULP energy per Si atom -12396.743263 kJ/mol
# Density = 2.237154 g / cm^3
# Si number density = 22.422575 Si / 1000 Ang^3
#
#
#
# Elastic Constant Matrix: (Units=GPa)
#
#
# Indices 1 2 3 4 5 6 
#
# 1 126.4592 38.3531 14.3307 0.0000 0.0000 0.0000
# 2 38.3531 111.9645 35.0606 0.0000 0.0000 0.0000
# 3 14.3307 35.0606 123.9456 0.0000 0.0000 0.0000
# 4 0.0000 0.0000 0.0000 12.0044 0.0000 0.0000
# 5 0.0000 0.0000 0.0000 0.0000 36.9301 0.0000
# 6 0.0000 0.0000 0.0000 0.0000 0.0000 39.9071
#
#
#
# Elastic Compliance Matrix: (Units=1/GPa)
#
#
# Indices 1 2 3 4 5 6 
#
# 1 0.008828 -0.002967 -0.000181 0.000000 0.000000 0.000000
# 2 -0.002967 0.010797 -0.002711 0.000000 0.000000 0.000000
# 3 -0.000181 -0.002711 0.008856 0.000000 0.000000 0.000000
# 4 0.000000 0.000000 0.000000 0.083303 0.000000 0.000000
# 5 0.000000 0.000000 0.000000 0.000000 0.027078 0.000000
# 6 0.000000 0.000000 0.000000 0.000000 0.000000 0.025058
#
#
# Mechanical properties :
#
#
# Convention : Reuss Voigt Hill
#
# Bulk Modulus (GPa) = 59.66043 59.76201 59.71122
# Shear Modulus (GPa) = 27.58980 36.07666 31.83323
#
# Velocity S-wave (km/s) = 3.51158 4.01552 3.77197
# Velocity P-wave (km/s) = 6.56557 6.94331 6.75708
#
# Compressibility (1/GPa) = 0.01676153
#
# Stress axis : x y z
#
# Youngs Moduli (GPa) = 113.27383 92.62040 112.91913
#
# Poissons Ratio (x) = 0.27483 0.02048
# Poissons Ratio (y) = 0.33611 0.30613
# Poissons Ratio (z) = 0.02054 0.25110
#
# Static dielectric constant tensor:
#      x y z
#    x 4.482880 0.000000 0.000000 
#    y 0.000000 4.303200 0.000000 
#    z 0.000000 0.000000 4.136080 
# 
# 
# High freq. dielectric constant tensor:
#      x y z
#    x 1.907330 0.000000 0.000000 
#    y 0.000000 1.881730 0.000000 
#    z 0.000000 0.000000 1.886420 
# 
# From -- ./inp_files/67280.got.cif
#   From: 2010.03.12/outbox.cif.g09.slc.cpg/sg66_34_cif.got.tgz:67280.got - 2010.04.10 21:57:39.
