data_PCOD8277147
_publ_section_title
;
Structure prediction by ZEFSAII (Michael W. Deem and Ramdas Pophale) SiO2 
 PCOD8277147
Probable space group: C C C M
;
_chemical_formula_sum "Si O2"
_cell_formula_units_Z 72
_cell_length_a 5.007908
_cell_length_b 31.349817
_cell_length_c 21.810420
_cell_angle_alpha 90.000000
_cell_angle_beta 90.000000
_cell_angle_gamma 90.000000
_cell_volume 3424.170495
_symmetry_space_group_name_H-M "C C C M"
_symmetry_group_IT_number 66
_symmetry_cell_setting 'orthorhombic'
loop_
_space_group_symop_operation_xyz
x,y,z
-x,-y,z
x,-y,1/2-z
-x,y,1/2-z
-x,-y,-z
x,y,-z
-x,y,1/2+z
x,-y,1/2+z
1/2+x,1/2+y,z
1/2-x,1/2-y,z
1/2+x,1/2-y,1/2-z
1/2-x,1/2+y,1/2-z
1/2-x,1/2-y,-z
1/2+x,1/2+y,-z
1/2-x,1/2+y,1/2+z
1/2+x,1/2-y,1/2+z
loop_
_atom_site_type_symbol
_atom_site_label
_atom_site_fract_x
_atom_site_fract_y
_atom_site_fract_z
Si Si1 0.509006 0.083549 0.178813
Si Si2 0.964854 0.869793 0.129239
Si Si3 0.000000 0.500000 0.894260
Si Si4 0.001850 0.778406 0.821121
Si Si5 0.251424 0.456097 0.500000
Si Si6 0.273339 0.400504 0.000000
O O1 0.500000 0.072750 0.250000
O O2 0.287532 0.119847 0.171578
O O3 0.408383 0.040143 0.146443
O O4 0.788000 0.099786 0.149325
O O5 0.032997 0.820575 0.138471
O O6 0.863253 0.874197 0.059573
O O7 0.765808 0.484470 0.939029
O O8 0.250000 0.750000 0.838524
O O9 0.000000 0.791849 0.750000
O O10 0.750000 0.750000 0.839392
O O11 0.556959 0.443202 0.500000
O O12 0.037783 0.415800 0.500000
#
# Coordination Sequence:
#
# PCOD8277147 Si02
#       6
#    16  16   8  16   8   8
#     4  12  25  41  62  92 131 167 207 261 314 368
#     4  12  24  43  65  94 125 167 208 255 311 373
#     4  11  23  42  62  92 123 169 218 260 306 359
#     4  10  21  39  64  92 122 157 200 250 306 374
#     4  11  24  40  66  83 127 166 219 263 296 360
#     4  12  22  45  62  93 119 168 211 259 304 363
#
# _framework density 21.026989
#
# number of rings (size 3 to 8) (size 9 to 14) (size 15 to 20)
#    0.000    0.667    4.444    3.667    0.000    6.222 
#    0.000    3.333    0.000    0.000    0.000    0.000 
#    0.000    0.000    0.000    0.000    0.000    0.000 
#
# Total GULP energy -446218.739490 kJ/mol
# GULP energy per Si atom -12394.964986 kJ/mol
# Density = 2.097913 g / cm^3
# Si number density = 21.026989 Si / 1000 Ang^3
#
#
#
# Elastic Constant Matrix: (Units=GPa)
#
#
# Indices 1 2 3 4 5 6 
#
# 1 107.2668 31.8673 23.5641 0.0000 0.0000 0.0000
# 2 31.8673 129.9253 62.7325 0.0000 0.0000 0.0000
# 3 23.5641 62.7325 139.4623 0.0000 0.0000 0.0000
# 4 0.0000 0.0000 0.0000 50.9044 0.0000 0.0000
# 5 0.0000 0.0000 0.0000 0.0000 20.1565 0.0000
# 6 0.0000 0.0000 0.0000 0.0000 0.0000 72.5978
#
#
#
# Elastic Compliance Matrix: (Units=1/GPa)
#
#
# Indices 1 2 3 4 5 6 
#
# 1 0.010118 -0.002116 -0.000758 0.000000 0.000000 0.000000
# 2 -0.002116 0.010275 -0.004264 0.000000 0.000000 0.000000
# 3 -0.000758 -0.004264 0.009217 0.000000 0.000000 0.000000
# 4 0.000000 0.000000 0.000000 0.019645 0.000000 0.000000
# 5 0.000000 0.000000 0.000000 0.000000 0.049612 0.000000
# 6 0.000000 0.000000 0.000000 0.000000 0.000000 0.013775
#
#
# Mechanical properties :
#
#
# Convention : Reuss Voigt Hill
#
# Bulk Modulus (GPa) = 65.21769 68.10914 66.66342
# Shear Modulus (GPa) = 37.87128 45.96444 41.91786
#
# Velocity S-wave (km/s) = 4.24852 4.68051 4.46974
# Velocity P-wave (km/s) = 7.42631 7.85310 7.64268
#
# Compressibility (1/GPa) = 0.01533326
#
# Stress axis : x y z
#
# Youngs Moduli (GPa) = 98.83800 97.32787 108.50050
#
# Poissons Ratio (x) = 0.20591 0.08223
# Poissons Ratio (y) = 0.20911 0.46267
# Poissons Ratio (z) = 0.07490 0.41502
#
# Static dielectric constant tensor:
#      x y z
#    x 3.876980 0.000000 0.000000 
#    y 0.000000 3.707750 0.000000 
#    z 0.000000 0.000000 3.865970 
# 
# 
# High freq. dielectric constant tensor:
#      x y z
#    x 1.834450 0.000000 0.000000 
#    y 0.000000 1.823030 0.000000 
#    z 0.000000 0.000000 1.828170 
# 
# From -- ./inp_files/54264.got.cif
#   From: 2010.03.12/outbox.cif.g09.slc.cpg/sg66_28_cif.got.tgz:54264.got - 2010.04.10 21:57:39.
