data_PCOD8277002
_publ_section_title
;
Structure prediction by ZEFSAII (Michael W. Deem and Ramdas Pophale) SiO2 
 PCOD8277002
Probable space group: C C C M
;
_chemical_formula_sum "Si O2"
_cell_formula_units_Z 112
_cell_length_a 10.865076
_cell_length_b 19.962833
_cell_length_c 25.230460
_cell_angle_alpha 90.000000
_cell_angle_beta 90.000000
_cell_angle_gamma 90.000000
_cell_volume 5472.428686
_symmetry_space_group_name_H-M "C C C M"
_symmetry_group_IT_number 66
_symmetry_cell_setting 'orthorhombic'
loop_
_space_group_symop_operation_xyz
x,y,z
-x,-y,z
x,-y,1/2-z
-x,y,1/2-z
-x,-y,-z
x,y,-z
-x,y,1/2+z
x,-y,1/2+z
1/2+x,1/2+y,z
1/2-x,1/2-y,z
1/2+x,1/2-y,1/2-z
1/2-x,1/2+y,1/2-z
1/2-x,1/2-y,-z
1/2+x,1/2+y,-z
1/2-x,1/2+y,1/2+z
1/2+x,1/2-y,1/2+z
loop_
_atom_site_type_symbol
_atom_site_label
_atom_site_fract_x
_atom_site_fract_y
_atom_site_fract_z
Si Si1 0.327720 0.683854 0.710856
Si Si2 0.330092 0.453662 0.939038
Si Si3 0.751045 0.463790 0.802158
Si Si4 0.591169 0.420318 0.891582
Si Si5 0.064693 0.345691 0.694210
Si Si6 0.838904 0.412766 0.647107
Si Si7 0.402350 0.299842 0.326388
O O1 0.250000 0.750000 0.702389
O O2 0.260878 0.621242 0.685057
O O3 0.451685 0.696455 0.679150
O O4 0.343898 0.667661 0.773375
O O5 0.448991 0.426532 0.907197
O O6 0.328332 0.535881 0.934041
O O7 0.210754 0.417191 0.913664
O O8 0.337009 0.432549 0.000000
O O9 0.704945 0.500000 0.750000
O O10 0.624887 0.454138 0.835072
O O11 0.828077 0.396583 0.791590
O O12 0.849470 0.511192 0.832604
O O13 0.630677 0.342144 0.880563
O O14 0.131651 0.279496 0.669342
O O15 0.000000 0.325020 0.750000
O O16 0.969381 0.374942 0.650948
#
# Coordination Sequence:
#
# PCOD8277002 Si02
#       7
#    16  16  16  16  16  16  16
#     4  11  20  35  52  79 128 165 197 225 284 356
#     4  10  22  43  66  87 112 148 201 267 329 358
#     4  11  23  35  55  84 126 167 203 237 279 354
#     4  10  21  37  57  86 115 153 196 254 307 361
#     4  12  22  37  55  83 127 179 200 226 277 361
#     4  11  21  37  60  86 116 156 203 252 293 347
#     4  11  22  32  53  83 121 165 196 229 287 365
#
# _framework density 20.466232999999999
#
# number of rings (size 3 to 8) (size 9 to 14) (size 15 to 20)
#    0.000    1.143    5.714    2.143    2.000    0.000 
#    0.000    0.714    0.000   12.429    0.000    9.000 
#    0.000    0.000    0.000    0.000    0.000    0.000 
#
# Total GULP energy -693740.453354 kJ/mol
# GULP energy per Si atom -12388.222381 kJ/mol
# Density = 2.041965 g / cm^3
# Si number density = 20.466233 Si / 1000 Ang^3
#
#
#
# Elastic Constant Matrix: (Units=GPa)
#
#
# Indices 1 2 3 4 5 6 
#
# 1 49.3621 24.6900 42.1522 0.0000 0.0000 0.0000
# 2 24.6900 100.0930 43.0619 0.0000 0.0000 0.0000
# 3 42.1522 43.0619 106.2049 0.0000 0.0000 0.0000
# 4 0.0000 0.0000 0.0000 22.4609 0.0000 0.0000
# 5 0.0000 0.0000 0.0000 0.0000 17.0471 0.0000
# 6 0.0000 0.0000 0.0000 0.0000 0.0000 29.5490
#
#
#
# Elastic Compliance Matrix: (Units=1/GPa)
#
#
# Indices 1 2 3 4 5 6 
#
# 1 0.031315 -0.002880 -0.011261 0.000000 0.000000 0.000000
# 2 -0.002880 0.012367 -0.003871 0.000000 0.000000 0.000000
# 3 -0.011261 -0.003871 0.015455 0.000000 0.000000 0.000000
# 4 0.000000 0.000000 0.000000 0.044522 0.000000 0.000000
# 5 0.000000 0.000000 0.000000 0.000000 0.058661 0.000000
# 6 0.000000 0.000000 0.000000 0.000000 0.000000 0.033842
#
#
# Mechanical properties :
#
#
# Convention : Reuss Voigt Hill
#
# Bulk Modulus (GPa) = 43.26694 52.82981 48.04837
# Shear Modulus (GPa) = 20.84289 23.52847 22.18568
#
# Velocity S-wave (km/s) = 3.19471 3.39429 3.29601
# Velocity P-wave (km/s) = 5.89871 6.42112 6.16545
#
# Compressibility (1/GPa) = 0.02311234
#
# Stress axis : x y z
#
# Youngs Moduli (GPa) = 31.93325 80.86358 64.70440
#
# Poissons Ratio (x) = 0.23287 0.72865
# Poissons Ratio (y) = 0.09196 0.25048
# Poissons Ratio (z) = 0.35961 0.31304
#
# Static dielectric constant tensor:
#      x y z
#    x 3.594230 0.000000 0.000000 
#    y 0.000000 4.248600 0.000000 
#    z 0.000000 0.000000 3.354290 
# 
# 
# High freq. dielectric constant tensor:
#      x y z
#    x 1.804540 0.000000 0.000000 
#    y 0.000000 1.817920 0.000000 
#    z 0.000000 0.000000 1.740380 
# 
# From -- ./inp_files/57180.got.cif
#   From: 2010.03.12/outbox.cif.g09.slc.cpg/sg66_29_cif.got.tgz:57180.got - 2010.04.10 21:57:39.
