data_PCOD8277437
_publ_section_title
;
Structure prediction by ZEFSAII (Michael W. Deem and Ramdas Pophale) SiO2 
 PCOD8277437
Probable space group: C C C M
;
_chemical_formula_sum "Si O2"
_cell_formula_units_Z 96
_cell_length_a 20.435740
_cell_length_b 14.133352
_cell_length_c 16.805530
_cell_angle_alpha 90.000000
_cell_angle_beta 90.000000
_cell_angle_gamma 90.000000
_cell_volume 4853.865719
_symmetry_space_group_name_H-M "C C C M"
_symmetry_group_IT_number 66
_symmetry_cell_setting 'orthorhombic'
loop_
_space_group_symop_operation_xyz
x,y,z
-x,-y,z
x,-y,1/2-z
-x,y,1/2-z
-x,-y,-z
x,y,-z
-x,y,1/2+z
x,-y,1/2+z
1/2+x,1/2+y,z
1/2-x,1/2-y,z
1/2+x,1/2-y,1/2-z
1/2-x,1/2+y,1/2-z
1/2-x,1/2-y,-z
1/2+x,1/2+y,-z
1/2-x,1/2+y,1/2+z
1/2+x,1/2-y,1/2+z
loop_
_atom_site_type_symbol
_atom_site_label
_atom_site_fract_x
_atom_site_fract_y
_atom_site_fract_z
Si Si1 0.815439 0.565581 0.594349
Si Si2 0.676169 0.249661 0.806332
Si Si3 0.058841 0.930866 0.591365
Si Si4 0.676467 0.461514 0.161128
Si Si5 0.938064 0.443723 0.406000
Si Si6 0.059502 0.741522 0.690171
O O1 0.809709 0.571863 0.500000
O O2 0.830534 0.670969 0.625340
O O3 0.749801 0.521287 0.630801
O O4 0.872681 0.496058 0.623547
O O5 0.750000 0.250000 0.771704
O O6 0.658351 0.350775 0.844535
O O7 0.628344 0.228785 0.733934
O O8 0.053467 0.898132 0.500000
O O9 0.053336 0.842329 0.649095
O O10 0.127652 0.983290 0.603387
O O11 0.000000 0.000000 0.615191
O O12 0.668879 0.500000 0.250000
O O13 0.940442 0.441818 0.500000
O O14 0.941872 0.336880 0.377462
O O15 0.000000 0.500000 0.370820
O O16 0.000000 0.726821 0.750000
#
# Coordination Sequence:
#
# PCOD8277437 Si02
#       6
#    16  16  16  16  16  16
#     4  10  23  41  64  93 126 165 210 260 312 367
#     4  10  23  38  61  92 123 162 203 259 303 359
#     4  11  25  42  64  91 124 165 208 254 312 375
#     4  11  22  40  64  92 128 165 206 259 306 369
#     4  10  23  42  62  87 123 161 203 257 313 371
#     4  12  24  39  62  92 122 162 207 254 311 371
#
# _framework density 19.778051000000001
#
# number of rings (size 3 to 8) (size 9 to 14) (size 15 to 20)
#    0.000    1.333    1.667    3.000    4.667    5.333 
#    0.000    4.167    0.000    4.000    0.000    0.000 
#    0.000    0.000    0.000    0.000    0.000    0.000 
#
# Total GULP energy -595449.545203 kJ/mol
# GULP energy per Si atom -12405.198858 kJ/mol
# Density = 1.973304 g / cm^3
# Si number density = 19.778051 Si / 1000 Ang^3
#
#
#
# Elastic Constant Matrix: (Units=GPa)
#
#
# Indices 1 2 3 4 5 6 
#
# 1 123.3931 44.7459 30.0657 0.0000 0.0000 0.0000
# 2 44.7459 111.9953 20.0503 0.0000 0.0000 0.0000
# 3 30.0657 20.0503 52.8837 0.0000 0.0000 0.0000
# 4 0.0000 0.0000 0.0000 40.1301 0.0000 0.0000
# 5 0.0000 0.0000 0.0000 0.0000 24.2503 0.0000
# 6 0.0000 0.0000 0.0000 0.0000 0.0000 32.3413
#
#
#
# Elastic Compliance Matrix: (Units=1/GPa)
#
#
# Indices 1 2 3 4 5 6 
#
# 1 0.010455 -0.003340 -0.004678 0.000000 0.000000 0.000000
# 2 -0.003340 0.010646 -0.002138 0.000000 0.000000 0.000000
# 3 -0.004678 -0.002138 0.022379 0.000000 0.000000 0.000000
# 4 0.000000 0.000000 0.000000 0.024919 0.000000 0.000000
# 5 0.000000 0.000000 0.000000 0.000000 0.041237 0.000000
# 6 0.000000 0.000000 0.000000 0.000000 0.000000 0.030920
#
#
# Mechanical properties :
#
#
# Convention : Reuss Voigt Hill
#
# Bulk Modulus (GPa) = 43.15890 53.11065 48.13477
# Shear Modulus (GPa) = 29.65787 32.23837 30.94812
#
# Velocity S-wave (km/s) = 3.87658 4.04172 3.96001
# Velocity P-wave (km/s) = 6.47350 6.97798 6.73047
#
# Compressibility (1/GPa) = 0.02317019
#
# Stress axis : x y z
#
# Youngs Moduli (GPa) = 95.64795 93.93240 44.68424
#
# Poissons Ratio (x) = 0.31370 0.20902
# Poissons Ratio (y) = 0.31943 0.09552
# Poissons Ratio (z) = 0.44741 0.20079
#
# Static dielectric constant tensor:
#      x y z
#    x 3.952850 0.000000 0.000000 
#    y 0.000000 3.699250 0.000000 
#    z 0.000000 0.000000 3.470300 
# 
# 
# High freq. dielectric constant tensor:
#      x y z
#    x 1.789800 0.000000 0.000000 
#    y 0.000000 1.782470 0.000000 
#    z 0.000000 0.000000 1.769120 
# 
# From -- ./inp_files/31153.got.cif
#   From: 2010.03.12/outbox.cif.g09.slc.cpg/sg66_16_cif.got.tgz:31153.got - 2010.04.10 21:57:39.
