data_PCOD8277260
_publ_section_title
;
Structure prediction by ZEFSAII (Michael W. Deem and Ramdas Pophale) SiO2 
 PCOD8277260
Probable space group: C C C M
;
_chemical_formula_sum "Si O2"
_cell_formula_units_Z 120
_cell_length_a 9.465100
_cell_length_b 27.460230
_cell_length_c 26.681113
_cell_angle_alpha 90.000000
_cell_angle_beta 90.000000
_cell_angle_gamma 90.000000
_cell_volume 6934.790081
_symmetry_space_group_name_H-M "C C C M"
_symmetry_group_IT_number 66
_symmetry_cell_setting 'orthorhombic'
loop_
_space_group_symop_operation_xyz
x,y,z
-x,-y,z
x,-y,1/2-z
-x,y,1/2-z
-x,-y,-z
x,y,-z
-x,y,1/2+z
x,-y,1/2+z
1/2+x,1/2+y,z
1/2-x,1/2-y,z
1/2+x,1/2-y,1/2-z
1/2-x,1/2+y,1/2-z
1/2-x,1/2-y,-z
1/2+x,1/2+y,-z
1/2-x,1/2+y,1/2+z
1/2+x,1/2-y,1/2+z
loop_
_atom_site_type_symbol
_atom_site_label
_atom_site_fract_x
_atom_site_fract_y
_atom_site_fract_z
Si Si1 0.500000 0.379664 0.250000
Si Si2 0.877939 0.185021 0.056812
Si Si3 0.999194 0.445536 0.169602
Si Si4 0.732615 0.946504 0.745141
Si Si5 0.118335 0.349341 0.864773
Si Si6 0.561071 0.797220 0.555934
Si Si7 0.560470 0.668928 0.146859
Si Si8 0.905152 0.262491 0.702601
O O1 0.357425 0.409654 0.246073
O O2 0.507216 0.349351 0.198868
O O3 0.714333 0.183125 0.073276
O O4 0.938580 0.239234 0.057755
O O5 0.963616 0.154808 0.098999
O O6 0.897716 0.163885 0.000000
O O7 0.113540 0.441909 0.213150
O O8 0.041140 0.401987 0.131969
O O9 0.000000 0.500000 0.144691
O O10 0.841989 0.436869 0.191517
O O11 0.799751 0.000000 0.750000
O O12 0.287480 0.354575 0.865398
O O13 0.076495 0.318570 0.814843
O O14 0.066308 0.319002 0.912187
O O15 0.531497 0.815277 0.500000
O O16 0.564897 0.727473 0.154738
O O17 0.750000 0.250000 0.722468
O O18 0.000000 0.251604 0.750000
#
# Coordination Sequence:
#
# PCOD8277260 Si02
#       8
#     8  16  16  16  16  16  16  16
#     4  12  21  32  50  80 116 140 179 208 262 322
#     4   9  19  37  54  75 105 139 180 223 262 301
#     4   9  19  35  52  73 100 136 178 224 264 307
#     4   9  19  35  52  71 101 140 182 222 260 303
#     4  11  21  34  52  74 104 137 181 213 263 322
#     4   9  19  35  57  78  98 132 182 228 261 308
#     4  11  22  34  47  77 114 146 170 215 258 316
#     4  10  22  33  43  67 106 145 175 202 241 313
#
# _framework density 17.304055999999999
#
# number of rings (size 3 to 8) (size 9 to 14) (size 15 to 20)
#    0.000    2.133    3.333    1.800    3.733    1.600 
#    0.000    1.333    0.000    0.400    0.000    0.000 
#    0.000    4.267    0.000    0.000    0.000    0.000 
#
# Total GULP energy -743545.566394 kJ/mol
# GULP energy per Si atom -12392.426107 kJ/mol
# Density = 1.726467 g / cm^3
# Si number density = 17.304056 Si / 1000 Ang^3
#
#
#
# Elastic Constant Matrix: (Units=GPa)
#
#
# Indices 1 2 3 4 5 6 
#
# 1 64.3040 21.0351 38.0385 0.0000 0.0000 0.0000
# 2 21.0351 71.9586 16.4664 0.0000 0.0000 0.0000
# 3 38.0385 16.4664 86.3611 0.0000 0.0000 0.0000
# 4 0.0000 0.0000 0.0000 10.3959 0.0000 0.0000
# 5 0.0000 0.0000 0.0000 0.0000 20.2266 0.0000
# 6 0.0000 0.0000 0.0000 0.0000 0.0000 18.2955
#
#
#
# Elastic Compliance Matrix: (Units=1/GPa)
#
#
# Indices 1 2 3 4 5 6 
#
# 1 0.022327 -0.004471 -0.008981 0.000000 0.000000 0.000000
# 2 -0.004471 0.015426 -0.000972 0.000000 0.000000 0.000000
# 3 -0.008981 -0.000972 0.015721 0.000000 0.000000 0.000000
# 4 0.000000 0.000000 0.000000 0.096192 0.000000 0.000000
# 5 0.000000 0.000000 0.000000 0.000000 0.049440 0.000000
# 6 0.000000 0.000000 0.000000 0.000000 0.000000 0.054658
#
#
# Mechanical properties :
#
#
# Convention : Reuss Voigt Hill
#
# Bulk Modulus (GPa) = 40.61038 41.52263 41.06651
# Shear Modulus (GPa) = 17.19271 19.58917 18.39094
#
# Velocity S-wave (km/s) = 3.15551 3.36826 3.26361
# Velocity P-wave (km/s) = 6.06597 6.25898 6.16323
#
# Compressibility (1/GPa) = 0.02462425
#
# Stress axis : x y z
#
# Youngs Moduli (GPa) = 44.78942 64.82411 63.61097
#
# Poissons Ratio (x) = 0.28985 0.57132
# Poissons Ratio (y) = 0.20027 0.06182
# Poissons Ratio (z) = 0.40227 0.06300
#
# Static dielectric constant tensor:
#      x y z
#    x 3.395420 0.000000 0.000000 
#    y 0.000000 3.411050 0.000000 
#    z 0.000000 0.000000 3.116600 
# 
# 
# High freq. dielectric constant tensor:
#      x y z
#    x 1.674230 0.000000 0.000000 
#    y 0.000000 1.646930 0.000000 
#    z 0.000000 0.000000 1.646540 
# 
# From -- ./inp_files/62987.got.cif
#   From: 2010.03.12/outbox.cif.g09.slc.cpg/sg66_32_cif.got.tgz:62987.got - 2010.04.10 21:57:39.
