data_PCOD8277769
_publ_section_title
;
Structure prediction by ZEFSAII (Michael W. Deem and Ramdas Pophale) SiO2 
 PCOD8277769
Probable space group: C C C M
;
_chemical_formula_sum "Si O2"
_cell_formula_units_Z 96
_cell_length_a 15.375895
_cell_length_b 14.510578
_cell_length_c 20.930813
_cell_angle_alpha 90.000000
_cell_angle_beta 90.000000
_cell_angle_gamma 90.000000
_cell_volume 4669.939070
_symmetry_space_group_name_H-M "C C C M"
_symmetry_group_IT_number 66
_symmetry_cell_setting 'orthorhombic'
loop_
_space_group_symop_operation_xyz
x,y,z
-x,-y,z
x,-y,1/2-z
-x,y,1/2-z
-x,-y,-z
x,y,-z
-x,y,1/2+z
x,-y,1/2+z
1/2+x,1/2+y,z
1/2-x,1/2-y,z
1/2+x,1/2-y,1/2-z
1/2-x,1/2+y,1/2-z
1/2-x,1/2-y,-z
1/2+x,1/2+y,-z
1/2-x,1/2+y,1/2+z
1/2+x,1/2-y,1/2+z
loop_
_atom_site_type_symbol
_atom_site_label
_atom_site_fract_x
_atom_site_fract_y
_atom_site_fract_z
Si Si1 0.995677 0.144396 0.365074
Si Si2 0.192797 0.452685 0.124183
Si Si3 0.035025 0.894974 0.500000
Si Si4 0.372948 0.511152 0.177107
Si Si5 0.064071 0.585141 0.929487
Si Si6 0.763382 0.142210 0.500000
Si Si7 0.960480 0.334598 0.318402
O O1 0.000524 0.165484 0.440534
O O2 0.950549 0.223982 0.321509
O O3 0.092779 0.114166 0.341647
O O4 0.928766 0.059813 0.363681
O O5 0.272198 0.489549 0.166218
O O6 0.154624 0.547261 0.096763
O O7 0.216328 0.390642 0.064041
O O8 0.127368 0.393019 0.169431
O O9 0.139465 0.895177 0.500000
O O10 0.000000 0.000000 0.500000
O O11 0.396876 0.500000 0.250000
O O12 0.000000 0.500000 0.935032
O O13 0.028932 0.654642 0.876331
O O14 0.074748 0.630970 0.000000
O O15 0.750000 0.250000 0.500000
O O16 0.000000 0.366004 0.250000
#
# Coordination Sequence:
#
# PCOD8277769 Si02
#       7
#    16  16   8  16  16   8  16
#     4  11  22  42  61  93 126 168 201 264 318 392
#     4  11  23  39  65  92 122 163 211 267 313 380
#     4  12  20  38  65  93 125 163 216 255 320 385
#     4  11  23  39  64  87 128 168 208 252 323 388
#     4   9  20  39  60  86 120 163 204 252 317 375
#     4  12  22  38  60 101 131 153 205 277 329 371
#     4  11  25  40  64  90 127 164 216 264 315 384
#
# _framework density 20.557015
#
# number of rings (size 3 to 8) (size 9 to 14) (size 15 to 20)
#    0.000    1.167    4.167    3.000    4.667    2.333 
#    0.000    0.833    0.000    1.000    0.000    0.000 
#    0.000    0.000    0.000    0.000    0.000    0.000 
#
# Total GULP energy -594853.084371 kJ/mol
# GULP energy per Si atom -12392.772591 kJ/mol
# Density = 2.051023 g / cm^3
# Si number density = 20.557015 Si / 1000 Ang^3
#
#
#
# Elastic Constant Matrix: (Units=GPa)
#
#
# Indices 1 2 3 4 5 6 
#
# 1 128.4995 36.9305 47.8551 0.0000 0.0000 0.0000
# 2 36.9305 41.2244 11.5530 0.0000 0.0000 0.0000
# 3 47.8551 11.5530 143.7643 0.0000 0.0000 0.0000
# 4 0.0000 0.0000 0.0000 29.5279 0.0000 0.0000
# 5 0.0000 0.0000 0.0000 0.0000 27.4925 0.0000
# 6 0.0000 0.0000 0.0000 0.0000 0.0000 25.3052
#
#
#
# Elastic Compliance Matrix: (Units=1/GPa)
#
#
# Indices 1 2 3 4 5 6 
#
# 1 0.011709 -0.009613 -0.003125 0.000000 0.000000 0.000000
# 2 -0.009613 0.032709 0.000571 0.000000 0.000000 0.000000
# 3 -0.003125 0.000571 0.007950 0.000000 0.000000 0.000000
# 4 0.000000 0.000000 0.000000 0.033866 0.000000 0.000000
# 5 0.000000 0.000000 0.000000 0.000000 0.036374 0.000000
# 6 0.000000 0.000000 0.000000 0.000000 0.000000 0.039518
#
#
# Mechanical properties :
#
#
# Convention : Reuss Voigt Hill
#
# Bulk Modulus (GPa) = 35.67035 56.24059 45.95547
# Shear Modulus (GPa) = 25.53566 30.94175 28.23871
#
# Velocity S-wave (km/s) = 3.52829 3.88386 3.71034
# Velocity P-wave (km/s) = 5.82993 6.89422 6.38429
#
# Compressibility (1/GPa) = 0.02803449
#
# Stress axis : x y z
#
# Youngs Moduli (GPa) = 85.40572 30.57218 125.78416
#
# Poissons Ratio (x) = 0.29390 0.39307
# Poissons Ratio (y) = 0.82105 -0.07189
# Poissons Ratio (z) = 0.26689 -0.01747
#
# Static dielectric constant tensor:
#      x y z
#    x 3.871820 0.000000 0.000000 
#    y 0.000000 3.654500 0.000000 
#    z 0.000000 0.000000 3.998220 
# 
# 
# High freq. dielectric constant tensor:
#      x y z
#    x 1.792890 0.000000 0.000000 
#    y 0.000000 1.788560 0.000000 
#    z 0.000000 0.000000 1.828150 
# 
# From -- ./inp_files/49923.got.cif
#   From: 2010.03.12/outbox.cif.g09.slc.cpg/sg66_25_cif.got.tgz:49923.got - 2010.04.10 21:57:39.
