data_PCOD8277538
_publ_section_title
;
Structure prediction by ZEFSAII (Michael W. Deem and Ramdas Pophale) SiO2 
 PCOD8277538
Probable space group: C C C M
;
_chemical_formula_sum "Si O2"
_cell_formula_units_Z 96
_cell_length_a 15.181829
_cell_length_b 19.016708
_cell_length_c 14.099423
_cell_angle_alpha 90.000000
_cell_angle_beta 90.000000
_cell_angle_gamma 90.000000
_cell_volume 4070.621982
_symmetry_space_group_name_H-M "C C C M"
_symmetry_group_IT_number 66
_symmetry_cell_setting 'orthorhombic'
loop_
_space_group_symop_operation_xyz
x,y,z
-x,-y,z
x,-y,1/2-z
-x,y,1/2-z
-x,-y,-z
x,y,-z
-x,y,1/2+z
x,-y,1/2+z
1/2+x,1/2+y,z
1/2-x,1/2-y,z
1/2+x,1/2-y,1/2-z
1/2-x,1/2+y,1/2-z
1/2-x,1/2-y,-z
1/2+x,1/2+y,-z
1/2-x,1/2+y,1/2+z
1/2+x,1/2-y,1/2+z
loop_
_atom_site_type_symbol
_atom_site_label
_atom_site_fract_x
_atom_site_fract_y
_atom_site_fract_z
Si Si1 0.167588 0.450473 0.390421
Si Si2 0.525418 0.167385 0.145177
Si Si3 0.055518 0.930803 0.608921
Si Si4 0.156556 0.610486 0.602690
Si Si5 0.204031 0.111177 0.249968
Si Si6 0.589602 0.683640 0.604394
O O1 0.190409 0.436100 0.500000
O O2 0.091820 0.397964 0.355698
O O3 0.135121 0.529486 0.372283
O O4 0.255489 0.442136 0.327405
O O5 0.500000 0.189021 0.250000
O O6 0.435784 0.149456 0.091498
O O7 0.568602 0.234329 0.095802
O O8 0.089280 0.933310 0.500000
O O9 0.137273 0.929470 0.680652
O O10 0.996926 0.861929 0.627991
O O11 0.000000 0.000000 0.633501
O O12 0.204191 0.616231 0.500000
O O13 0.219181 0.644294 0.683381
O O14 0.160119 0.173135 0.311668
O O15 0.625997 0.660672 0.500000
#
# Coordination Sequence:
#
# PCOD8277538 Si02
#       6
#    16  16  16  16  16  16
#     4  11  25  43  70 108 150 192 240 299 363 432
#     4  12  24  47  74 103 144 197 246 293 365 441
#     4  10  24  45  72 103 139 187 241 299 362 429
#     4  11  25  44  72 108 146 188 242 304 366 428
#     4  12  24  43  70 106 144 183 240 298 359 428
#     4  11  26  47  72 102 141 190 242 296 363 435
#
# _framework density 23.583618999999999
#
# number of rings (size 3 to 8) (size 9 to 14) (size 15 to 20)
#    0.000    0.833    1.667    5.000    4.667    3.333 
#    3.000    1.667    0.000    4.500    0.000    0.000 
#    0.000    0.000    0.000    0.000    0.000    0.000 
#
# Total GULP energy -595267.686396 kJ/mol
# GULP energy per Si atom -12401.410133 kJ/mol
# Density = 2.352994 g / cm^3
# Si number density = 23.583619 Si / 1000 Ang^3
#
#
#
# Elastic Constant Matrix: (Units=GPa)
#
#
# Indices 1 2 3 4 5 6 
#
# 1 132.1310 54.0588 72.7083 0.0000 0.0000 0.0000
# 2 54.0588 97.3507 38.7695 0.0000 0.0000 0.0000
# 3 72.7083 38.7695 159.8041 0.0000 0.0000 0.0000
# 4 0.0000 0.0000 0.0000 20.3483 0.0000 0.0000
# 5 0.0000 0.0000 0.0000 0.0000 30.7093 0.0000
# 6 0.0000 0.0000 0.0000 0.0000 0.0000 34.7591
#
#
#
# Elastic Compliance Matrix: (Units=1/GPa)
#
#
# Indices 1 2 3 4 5 6 
#
# 1 0.011909 -0.004932 -0.004222 0.000000 0.000000 0.000000
# 2 -0.004932 0.013413 -0.001010 0.000000 0.000000 0.000000
# 3 -0.004222 -0.001010 0.008424 0.000000 0.000000 0.000000
# 4 0.000000 0.000000 0.000000 0.049144 0.000000 0.000000
# 5 0.000000 0.000000 0.000000 0.000000 0.032563 0.000000
# 6 0.000000 0.000000 0.000000 0.000000 0.000000 0.028769
#
#
# Mechanical properties :
#
#
# Convention : Reuss Voigt Hill
#
# Bulk Modulus (GPa) = 74.52701 80.03989 77.28345
# Shear Modulus (GPa) = 29.58164 32.07997 30.83080
#
# Velocity S-wave (km/s) = 3.54549 3.69218 3.61958
# Velocity P-wave (km/s) = 6.95920 7.22417 7.09293
#
# Compressibility (1/GPa) = 0.01341795
#
# Stress axis : x y z
#
# Youngs Moduli (GPa) = 83.96812 74.55412 118.71261
#
# Poissons Ratio (x) = 0.36769 0.50121
# Poissons Ratio (y) = 0.41411 0.11992
# Poissons Ratio (z) = 0.35452 0.07531
#
# Static dielectric constant tensor:
#      x y z
#    x 4.239620 0.000000 0.000000 
#    y 0.000000 3.981550 0.000000 
#    z 0.000000 0.000000 4.680820 
# 
# 
# High freq. dielectric constant tensor:
#      x y z
#    x 1.925990 0.000000 0.000000 
#    y 0.000000 1.916410 0.000000 
#    z 0.000000 0.000000 1.970180 
# 
# From -- ./inp_files/28342.got.cif
#   From: 2010.03.12/outbox.cif.g09.slc.cpg/sg66_15_cif.got.tgz:28342.got - 2010.04.10 21:57:39.
