data_PCOD8277762
_publ_section_title
;
Structure prediction by ZEFSAII (Michael W. Deem and Ramdas Pophale) SiO2 
 PCOD8277762
Probable space group: C C C M
;
_chemical_formula_sum "Si O2"
_cell_formula_units_Z 64
_cell_length_a 17.502593
_cell_length_b 5.343695
_cell_length_c 32.832174
_cell_angle_alpha 90.000000
_cell_angle_beta 90.000000
_cell_angle_gamma 90.000000
_cell_volume 3070.744600
_symmetry_space_group_name_H-M "C C C M"
_symmetry_group_IT_number 66
_symmetry_cell_setting 'orthorhombic'
loop_
_space_group_symop_operation_xyz
x,y,z
-x,-y,z
x,-y,1/2-z
-x,y,1/2-z
-x,-y,-z
x,y,-z
-x,y,1/2+z
x,-y,1/2+z
1/2+x,1/2+y,z
1/2-x,1/2-y,z
1/2+x,1/2-y,1/2-z
1/2-x,1/2+y,1/2-z
1/2-x,1/2-y,-z
1/2+x,1/2+y,-z
1/2-x,1/2+y,1/2+z
1/2+x,1/2-y,1/2+z
loop_
_atom_site_type_symbol
_atom_site_label
_atom_site_fract_x
_atom_site_fract_y
_atom_site_fract_z
Si Si1 0.349286 0.500000 0.250000
Si Si2 0.330358 0.893141 0.870595
Si Si3 0.750000 0.750000 0.815276
Si Si4 0.450809 0.748809 0.809083
Si Si5 0.299371 0.999456 0.544035
O O1 0.294548 0.444632 0.212451
O O2 0.401894 0.728355 0.233146
O O3 0.250000 0.750000 0.872431
O O4 0.398283 0.740225 0.849633
O O5 0.355202 0.973143 0.916720
O O6 0.316735 0.134579 0.842710
O O7 0.500000 0.500000 0.812909
O O8 0.500000 0.000000 0.807230
O O9 0.342598 0.972957 0.500000
O O10 0.250000 0.250000 0.541839
O O11 0.250000 0.750000 0.551456
#
# Coordination Sequence:
#
# PCOD8277762 Si02
#       5
#     8  16   8  16  16
#     4  12  25  42  64  88 125 168 218 270 313 368
#     4  11  22  41  65  91 124 161 210 259 310 373
#     4  12  22  40  63  96 118 160 215 276 308 364
#     4  12  28  45  62  89 127 170 212 260 316 372
#     4   9  18  33  60  95 125 152 193 254 312 364
#
# _framework density 20.841850000000001
#
# number of rings (size 3 to 8) (size 9 to 14) (size 15 to 20)
#    0.000    1.000    3.750    3.375    0.000    6.000 
#    0.000    0.000    0.000    1.500    0.000    0.000 
#    0.000    0.000    0.000    0.000    0.000    0.000 
#
# Total GULP energy -396451.601338 kJ/mol
# GULP energy per Si atom -12389.112542 kJ/mol
# Density = 2.079441 g / cm^3
# Si number density = 20.841850 Si / 1000 Ang^3
#
#
#
# Elastic Constant Matrix: (Units=GPa)
#
#
# Indices 1 2 3 4 5 6 
#
# 1 74.2161 31.0913 43.1415 0.0000 0.0000 0.0000
# 2 31.0913 118.3134 32.6583 0.0000 0.0000 0.0000
# 3 43.1415 32.6583 197.6957 0.0000 0.0000 0.0000
# 4 0.0000 0.0000 0.0000 25.8471 0.0000 0.0000
# 5 0.0000 0.0000 0.0000 0.0000 10.2335 0.0000
# 6 0.0000 0.0000 0.0000 0.0000 0.0000 25.0516
#
#
#
# Elastic Compliance Matrix: (Units=1/GPa)
#
#
# Indices 1 2 3 4 5 6 
#
# 1 0.016746 -0.003554 -0.003067 0.000000 0.000000 0.000000
# 2 -0.003554 0.009610 -0.000812 0.000000 0.000000 0.000000
# 3 -0.003067 -0.000812 0.005862 0.000000 0.000000 0.000000
# 4 0.000000 0.000000 0.000000 0.038689 0.000000 0.000000
# 5 0.000000 0.000000 0.000000 0.000000 0.097718 0.000000
# 6 0.000000 0.000000 0.000000 0.000000 0.000000 0.039918
#
#
# Mechanical properties :
#
#
# Convention : Reuss Voigt Hill
#
# Bulk Modulus (GPa) = 57.63186 67.11192 62.37189
# Shear Modulus (GPa) = 21.81569 31.11538 26.46554
#
# Velocity S-wave (km/s) = 3.23882 3.86803 3.56733
# Velocity P-wave (km/s) = 6.45745 7.22630 6.85267
#
# Compressibility (1/GPa) = 0.01735151
#
# Stress axis : x y z
#
# Youngs Moduli (GPa) = 59.71577 104.05596 170.59734
#
# Poissons Ratio (x) = 0.36981 0.52326
# Poissons Ratio (y) = 0.21223 0.13853
# Poissons Ratio (z) = 0.18316 0.08449
#
# Static dielectric constant tensor:
#      x y z
#    x 3.728830 0.000000 0.000000 
#    y 0.000000 3.902150 0.000000 
#    z 0.000000 0.000000 4.741970 
# 
# 
# High freq. dielectric constant tensor:
#      x y z
#    x 1.769250 0.000000 0.000000 
#    y 0.000000 1.830340 0.000000 
#    z 0.000000 0.000000 1.838820 
# 
# From -- ./inp_files/69800.got.cif
#   From: 2010.03.12/outbox.cif.g09.slc.cpg/sg66_35_cif.got.tgz:69800.got - 2010.04.10 21:57:39.
