data_PCOD8277279
_publ_section_title
;
Structure prediction by ZEFSAII (Michael W. Deem and Ramdas Pophale) SiO2 
 PCOD8277279
Probable space group: C C C M
;
_chemical_formula_sum "Si O2"
_cell_formula_units_Z 64
_cell_length_a 16.673964
_cell_length_b 11.611948
_cell_length_c 16.203649
_cell_angle_alpha 90.000000
_cell_angle_beta 90.000000
_cell_angle_gamma 90.000000
_cell_volume 3137.305197
_symmetry_space_group_name_H-M "C C C M"
_symmetry_group_IT_number 66
_symmetry_cell_setting 'orthorhombic'
loop_
_space_group_symop_operation_xyz
x,y,z
-x,-y,z
x,-y,1/2-z
-x,y,1/2-z
-x,-y,-z
x,y,-z
-x,y,1/2+z
x,-y,1/2+z
1/2+x,1/2+y,z
1/2-x,1/2-y,z
1/2+x,1/2-y,1/2-z
1/2-x,1/2+y,1/2-z
1/2-x,1/2-y,-z
1/2+x,1/2+y,-z
1/2-x,1/2+y,1/2+z
1/2+x,1/2-y,1/2+z
loop_
_atom_site_type_symbol
_atom_site_label
_atom_site_fract_x
_atom_site_fract_y
_atom_site_fract_z
Si Si1 0.720980 0.069052 0.334899
Si Si2 0.635503 0.313467 0.000000
Si Si3 0.537308 0.376261 0.151273
Si Si4 0.877961 0.795798 0.816247
Si Si5 0.195849 0.573781 0.000000
O O1 0.811303 0.114601 0.350013
O O2 0.658100 0.169713 0.318870
O O3 0.719952 0.000000 0.250000
O O4 0.691165 0.000915 0.416141
O O5 0.595895 0.377385 0.924166
O O6 0.726251 0.349815 0.000000
O O7 0.626323 0.173329 0.000000
O O8 0.500000 0.500000 0.172831
O O9 0.459383 0.297110 0.129404
O O10 0.592253 0.329602 0.225176
#
# Coordination Sequence:
#
# PCOD8277279 Si02
#       5
#    16   8  16  16   8
#     4  11  22  40  61  85 121 161 197 248 302 356
#     4  11  23  39  61  88 120 152 200 255 304 357
#     4  11  21  38  62  91 119 152 198 255 308 354
#     4  10  22  37  60  87 117 154 202 243 296 363
#     4  11  24  40  61  89 118 160 206 241 297 372
#
# _framework density 20.399673
#
# number of rings (size 3 to 8) (size 9 to 14) (size 15 to 20)
#    0.000    1.250    0.000    7.875    0.000    8.000 
#    0.000   10.000    0.000    0.000    0.000    0.000 
#    0.000    0.000    0.000    0.000    0.000    0.000 
#
# Total GULP energy -396479.366357 kJ/mol
# GULP energy per Si atom -12389.980199 kJ/mol
# Density = 2.035324 g / cm^3
# Si number density = 20.399673 Si / 1000 Ang^3
#
#
#
# Elastic Constant Matrix: (Units=GPa)
#
#
# Indices 1 2 3 4 5 6 
#
# 1 83.8233 32.2369 21.0334 0.0000 0.0000 0.0000
# 2 32.2369 118.9961 56.2603 0.0000 0.0000 0.0000
# 3 21.0334 56.2603 108.1372 0.0000 0.0000 0.0000
# 4 0.0000 0.0000 0.0000 28.1081 0.0000 0.0000
# 5 0.0000 0.0000 0.0000 0.0000 34.3015 0.0000
# 6 0.0000 0.0000 0.0000 0.0000 0.0000 27.4399
#
#
#
# Elastic Compliance Matrix: (Units=1/GPa)
#
#
# Indices 1 2 3 4 5 6 
#
# 1 0.013391 -0.003178 -0.000951 0.000000 0.000000 0.000000
# 2 -0.003178 0.011899 -0.005573 0.000000 0.000000 0.000000
# 3 -0.000951 -0.005573 0.012332 0.000000 0.000000 0.000000
# 4 0.000000 0.000000 0.000000 0.035577 0.000000 0.000000
# 5 0.000000 0.000000 0.000000 0.000000 0.029153 0.000000
# 6 0.000000 0.000000 0.000000 0.000000 0.000000 0.036443
#
#
# Mechanical properties :
#
#
# Convention : Reuss Voigt Hill
#
# Bulk Modulus (GPa) = 54.89026 58.89088 56.89057
# Shear Modulus (GPa) = 30.43740 31.39830 30.91785
#
# Velocity S-wave (km/s) = 3.86690 3.92747 3.89730
# Velocity P-wave (km/s) = 6.84858 7.03547 6.94266
#
# Compressibility (1/GPa) = 0.01821817
#
# Stress axis : x y z
#
# Youngs Moduli (GPa) = 74.67867 84.03878 81.09110
#
# Poissons Ratio (x) = 0.26707 0.07714
# Poissons Ratio (y) = 0.23732 0.45189
# Poissons Ratio (z) = 0.07104 0.46832
#
# Static dielectric constant tensor:
#      x y z
#    x 4.230570 0.000000 0.000000 
#    y 0.000000 3.875240 0.000000 
#    z 0.000000 0.000000 3.739880 
# 
# 
# High freq. dielectric constant tensor:
#      x y z
#    x 1.810110 0.000000 0.000000 
#    y 0.000000 1.802670 0.000000 
#    z 0.000000 0.000000 1.797030 
# 
# From -- ./inp_files/39853.got.cif
#   From: 2010.03.12/outbox.cif.g09.slc.cpg/sg66_20_cif.got.tgz:39853.got - 2010.04.10 21:57:39.
