data_PCOD8277261
_publ_section_title
;
Structure prediction by ZEFSAII (Michael W. Deem and Ramdas Pophale) SiO2 
 PCOD8277261
Probable space group: C C C M
;
_chemical_formula_sum "Si O2"
_cell_formula_units_Z 104
_cell_length_a 21.408406
_cell_length_b 9.442406
_cell_length_c 27.688670
_cell_angle_alpha 90.000000
_cell_angle_beta 90.000000
_cell_angle_gamma 90.000000
_cell_volume 5597.177733
_symmetry_space_group_name_H-M "C C C M"
_symmetry_group_IT_number 66
_symmetry_cell_setting 'orthorhombic'
loop_
_space_group_symop_operation_xyz
x,y,z
-x,-y,z
x,-y,1/2-z
-x,y,1/2-z
-x,-y,-z
x,y,-z
-x,y,1/2+z
x,-y,1/2+z
1/2+x,1/2+y,z
1/2-x,1/2-y,z
1/2+x,1/2-y,1/2-z
1/2-x,1/2+y,1/2-z
1/2-x,1/2-y,-z
1/2+x,1/2+y,-z
1/2-x,1/2+y,1/2+z
1/2+x,1/2-y,1/2+z
loop_
_atom_site_type_symbol
_atom_site_label
_atom_site_fract_x
_atom_site_fract_y
_atom_site_fract_z
Si Si1 0.807137 0.350995 0.732698
Si Si2 0.504901 0.339019 0.807363
Si Si3 0.651408 0.215194 0.554303
Si Si4 0.230452 0.983607 0.446010
Si Si5 0.877549 0.677331 0.675346
Si Si6 0.899763 0.634649 0.151307
Si Si7 0.250000 0.250000 0.620143
O O1 0.778766 0.500000 0.750000
O O2 0.750000 0.250000 0.740019
O O3 0.866124 0.322574 0.767201
O O4 0.832694 0.339561 0.677906
O O5 0.500000 0.500000 0.825171
O O6 0.500000 0.328939 0.750000
O O7 0.571188 0.298075 0.831448
O O8 0.452518 0.233578 0.826867
O O9 0.622451 0.212858 0.500000
O O10 0.675879 0.372502 0.566750
O O11 0.601260 0.172951 0.594583
O O12 0.704849 0.098220 0.557628
O O13 0.220718 0.042212 0.500000
O O14 0.228171 0.116670 0.410936
O O15 0.911409 0.532977 0.657666
O O16 0.810645 0.706852 0.650849
#
# Coordination Sequence:
#
# PCOD8277261 Si02
#       7
#    16  16  16  16  16  16   8
#     4  10  22  34  52  84 122 156 189 231 296 355
#     4  11  25  43  62  86 116 159 209 246 285 352
#     4   9  19  36  58  88 118 156 203 243 295 354
#     4   9  19  35  56  85 124 160 196 243 295 358
#     4  11  23  39  56  90 122 159 191 245 295 357
#     4  11  22  39  63  82 117 164 201 240 299 354
#     4  12  21  34  60  94 130 150 195 244 308 356
#
# _framework density 18.580793
#
# number of rings (size 3 to 8) (size 9 to 14) (size 15 to 20)
#    0.000    1.692    3.846    1.615    4.308    1.846 
#    0.000    0.000    0.000    4.154    0.000    0.000 
#    0.000    0.000    0.000    0.000    0.000    0.000 
#
# Total GULP energy -644380.234129 kJ/mol
# GULP energy per Si atom -12391.927579 kJ/mol
# Density = 1.853850 g / cm^3
# Si number density = 18.580793 Si / 1000 Ang^3
#
#
#
# Elastic Constant Matrix: (Units=GPa)
#
#
# Indices 1 2 3 4 5 6 
#
# 1 78.3349 60.5542 25.3873 0.0000 0.0000 0.0000
# 2 60.5542 138.9922 43.6659 0.0000 0.0000 0.0000
# 3 25.3873 43.6659 95.6618 0.0000 0.0000 0.0000
# 4 0.0000 0.0000 0.0000 55.4965 0.0000 0.0000
# 5 0.0000 0.0000 0.0000 0.0000 -121.1250 0.0000
# 6 0.0000 0.0000 0.0000 0.0000 0.0000 127.3137
#
#
#
# Elastic Compliance Matrix: (Units=1/GPa)
#
#
# Indices 1 2 3 4 5 6 
#
# 1 0.019433 -0.007992 -0.001509 0.000000 0.000000 0.000000
# 2 -0.007992 0.011686 -0.003213 0.000000 0.000000 0.000000
# 3 -0.001509 -0.003213 0.012321 0.000000 0.000000 0.000000
# 4 0.000000 0.000000 0.000000 0.018019 0.000000 0.000000
# 5 0.000000 0.000000 0.000000 0.000000 -0.008256 0.000000
# 6 0.000000 0.000000 0.000000 0.000000 0.000000 0.007855
#
#
# Mechanical properties :
#
#
# Convention : Reuss Voigt Hill
#
# Bulk Modulus (GPa) = 55.52272 63.57820 59.55046
# Shear Modulus (GPa) = 54.06002 24.56247 39.31124
#
# Velocity S-wave (km/s) = 5.39979 3.63978 4.60466
# Velocity P-wave (km/s) = 8.29600 7.20801 7.77107
#
# Compressibility (1/GPa) = 0.01801064
#
# Stress axis : x y z
#
# Youngs Moduli (GPa) = 51.45932 85.57242 81.16428
#
# Poissons Ratio (x) = 0.68391 0.12249
# Poissons Ratio (y) = 0.41127 0.26080
# Poissons Ratio (z) = 0.07766 0.27496
#
# Static dielectric constant tensor:
#      x y z
#    x 3.076690 0.000000 0.000000 
#    y 0.000000 4.367500 0.000000 
#    z 0.000000 0.000000 3.732470 
# 
# 
# High freq. dielectric constant tensor:
#      x y z
#    x 1.695650 0.000000 0.000000 
#    y 0.000000 1.734470 0.000000 
#    z 0.000000 0.000000 1.721960 
# 
# From -- ./inp_files/70189.got.cif
#   From: 2010.03.12/outbox.cif.g09.slc.cpg/sg66_36_cif.got.tgz:70189.got - 2010.04.10 21:57:39.
