data_PCOD8277481
_publ_section_title
;
Structure prediction by ZEFSAII (Michael W. Deem and Ramdas Pophale) SiO2 
 PCOD8277481
Probable space group: C C C M
;
_chemical_formula_sum "Si O2"
_cell_formula_units_Z 96
_cell_length_a 13.638729
_cell_length_b 16.057020
_cell_length_c 21.800502
_cell_angle_alpha 90.000000
_cell_angle_beta 90.000000
_cell_angle_gamma 90.000000
_cell_volume 4774.252043
_symmetry_space_group_name_H-M "C C C M"
_symmetry_group_IT_number 66
_symmetry_cell_setting 'orthorhombic'
loop_
_space_group_symop_operation_xyz
x,y,z
-x,-y,z
x,-y,1/2-z
-x,y,1/2-z
-x,-y,-z
x,y,-z
-x,y,1/2+z
x,-y,1/2+z
1/2+x,1/2+y,z
1/2-x,1/2-y,z
1/2+x,1/2-y,1/2-z
1/2-x,1/2+y,1/2-z
1/2-x,1/2-y,-z
1/2+x,1/2+y,-z
1/2-x,1/2+y,1/2+z
1/2+x,1/2-y,1/2+z
loop_
_atom_site_type_symbol
_atom_site_label
_atom_site_fract_x
_atom_site_fract_y
_atom_site_fract_z
Si Si1 0.092930 0.941416 0.500000
Si Si2 0.647788 0.703979 0.374482
Si Si3 0.471797 0.714879 0.000000
Si Si4 0.258851 0.407140 0.899533
Si Si5 0.657613 0.817286 0.000000
Si Si6 0.236327 0.048415 0.690854
Si Si7 0.750000 0.750000 0.176555
Si Si8 0.604347 0.824104 0.271543
O O1 0.156005 0.952365 0.561410
O O2 0.060833 0.847597 0.500000
O O3 0.000000 0.000000 0.500000
O O4 0.750000 0.750000 0.386084
O O5 0.594009 0.700664 0.439879
O O6 0.661475 0.612077 0.343678
O O7 0.586251 0.760211 0.327548
O O8 0.541434 0.795883 0.000000
O O9 0.222249 0.478039 0.854113
O O10 0.295529 0.325257 0.863271
O O11 0.168895 0.376406 0.941036
O O12 0.750000 0.750000 0.000000
O O13 0.332994 0.096339 0.710629
O O14 0.187959 0.000000 0.750000
O O15 0.658602 0.776072 0.217390
O O16 0.500000 0.857501 0.250000
#
# Coordination Sequence:
#
# PCOD8277481 Si02
#       8
#     8  16   8  16   8  16   8  16
#     4  11  23  39  59 100 127 169 218 264 333 395
#     4  10  23  43  64  94 130 172 221 268 334 388
#     4  12  22  39  69  90 124 170 230 267 316 397
#     4  11  22  39  67  91 133 168 212 270 329 382
#     4  11  22  41  62  97 124 170 217 266 323 383
#     4  11  21  42  64  92 133 174 209 268 335 386
#     4  12  20  43  66  91 128 172 216 278 324 382
#     4  11  24  40  67  96 128 172 224 262 323 395
#
# _framework density 20.107862000000001
#
# number of rings (size 3 to 8) (size 9 to 14) (size 15 to 20)
#    0.000    1.000    6.667    1.250    4.667    1.000 
#    0.000    1.667    0.000    4.000    0.000    0.000 
#    0.000    0.000    0.000    0.000    0.000    0.000 
#
# Total GULP energy -594778.768274 kJ/mol
# GULP energy per Si atom -12391.224339 kJ/mol
# Density = 2.006210 g / cm^3
# Si number density = 20.107862 Si / 1000 Ang^3
#
#
#
# Elastic Constant Matrix: (Units=GPa)
#
#
# Indices 1 2 3 4 5 6 
#
# 1 101.2052 34.9349 53.5563 0.0000 0.0000 0.0000
# 2 34.9349 121.1237 68.9117 0.0000 0.0000 0.0000
# 3 53.5563 68.9117 161.6015 0.0000 0.0000 0.0000
# 4 0.0000 0.0000 0.0000 84.8300 0.0000 0.0000
# 5 0.0000 0.0000 0.0000 0.0000 8.8569 0.0000
# 6 0.0000 0.0000 0.0000 0.0000 0.0000 28.7418
#
#
#
# Elastic Compliance Matrix: (Units=1/GPa)
#
#
# Indices 1 2 3 4 5 6 
#
# 1 0.012216 -0.001611 -0.003362 0.000000 0.000000 0.000000
# 2 -0.001611 0.011113 -0.004205 0.000000 0.000000 0.000000
# 3 -0.003362 -0.004205 0.009095 0.000000 0.000000 0.000000
# 4 0.000000 0.000000 0.000000 0.011788 0.000000 0.000000
# 5 0.000000 0.000000 0.000000 0.000000 0.112907 0.000000
# 6 0.000000 0.000000 0.000000 0.000000 0.000000 0.034793
#
#
# Mechanical properties :
#
#
# Convention : Reuss Voigt Hill
#
# Bulk Modulus (GPa) = 71.07699 77.63736 74.35718
# Shear Modulus (GPa) = 23.26052 39.58755 31.42403
#
# Velocity S-wave (km/s) = 3.40485 4.44188 3.95748
# Velocity P-wave (km/s) = 7.13316 8.06234 7.61194
#
# Compressibility (1/GPa) = 0.01406925
#
# Stress axis : x y z
#
# Youngs Moduli (GPa) = 81.86092 89.98429 109.94710
#
# Poissons Ratio (x) = 0.14495 0.36959
# Poissons Ratio (y) = 0.13186 0.46234
# Poissons Ratio (z) = 0.27518 0.37839
#
# Static dielectric constant tensor:
#      x y z
#    x 3.624320 0.000000 0.000000 
#    y 0.000000 3.693640 0.000000 
#    z 0.000000 0.000000 4.476210 
# 
# 
# High freq. dielectric constant tensor:
#      x y z
#    x 1.756820 0.000000 0.000000 
#    y 0.000000 1.793180 0.000000 
#    z 0.000000 0.000000 1.810230 
# 
# From -- ./inp_files/49968.got.cif
#   From: 2010.03.12/outbox.cif.g09.slc.cpg/sg66_25_cif.got.tgz:49968.got - 2010.04.10 21:57:39.
