data_PCOD8277563
_publ_section_title
;
Structure prediction by ZEFSAII (Michael W. Deem and Ramdas Pophale) SiO2 
 PCOD8277563
Probable space group: C C C M
;
_chemical_formula_sum "Si O2"
_cell_formula_units_Z 64
_cell_length_a 22.178516
_cell_length_b 22.401927
_cell_length_c 7.602790
_cell_angle_alpha 90.000000
_cell_angle_beta 90.000000
_cell_angle_gamma 90.000000
_cell_volume 3777.381560
_symmetry_space_group_name_H-M "C C C M"
_symmetry_group_IT_number 66
_symmetry_cell_setting 'orthorhombic'
loop_
_space_group_symop_operation_xyz
x,y,z
-x,-y,z
x,-y,1/2-z
-x,y,1/2-z
-x,-y,-z
x,y,-z
-x,y,1/2+z
x,-y,1/2+z
1/2+x,1/2+y,z
1/2-x,1/2-y,z
1/2+x,1/2-y,1/2-z
1/2-x,1/2+y,1/2-z
1/2-x,1/2-y,-z
1/2+x,1/2+y,-z
1/2-x,1/2+y,1/2+z
1/2+x,1/2-y,1/2+z
loop_
_atom_site_type_symbol
_atom_site_label
_atom_site_fract_x
_atom_site_fract_y
_atom_site_fract_z
Si Si1 0.432978 0.813536 0.299951
Si Si2 0.884028 0.435721 0.794297
Si Si3 0.248057 0.066015 0.196723
Si Si4 0.347520 0.229748 0.500000
Si Si5 0.272478 0.346168 0.500000
O O1 0.500000 0.793188 0.250000
O O2 0.418636 0.795309 0.500000
O O3 0.428531 0.884978 0.276665
O O4 0.386068 0.779707 0.175618
O O5 0.913524 0.500000 0.750000
O O6 0.820283 0.430469 0.697384
O O7 0.872798 0.427065 0.000000
O O8 0.218626 0.113920 0.326820
O O9 0.226381 0.000000 0.250000
O O10 0.225607 0.080664 0.000000
O O11 0.324465 0.297113 0.500000
O O12 0.293427 0.182759 0.500000
#
# Coordination Sequence:
#
# PCOD8277563 Si02
#       5
#    16  16  16   8   8
#     4  12  22  38  57  76 105 148 193 233 271 315
#     4  11  19  32  49  76 109 144 190 234 271 312
#     4  11  18  31  54  80 110 147 180 220 274 324
#     4  11  24  40  54  80 114 150 188 227 272 325
#     4  11  22  38  56  81 119 145 181 229 272 333
#
# _framework density 16.942952999999999
#
# number of rings (size 3 to 8) (size 9 to 14) (size 15 to 20)
#    0.000    0.750    7.500    3.750    0.000    1.500 
#    0.000    5.000    0.000    0.000    0.000    0.000 
#    0.000    3.000    0.000    0.000    0.000    0.000 
#
# Total GULP energy -396922.313771 kJ/mol
# GULP energy per Si atom -12403.822305 kJ/mol
# Density = 1.690439 g / cm^3
# Si number density = 16.942953 Si / 1000 Ang^3
#
#
#
# Elastic Constant Matrix: (Units=GPa)
#
#
# Indices 1 2 3 4 5 6 
#
# 1 68.0586 48.6683 42.1015 0.0000 0.0000 0.0000
# 2 48.6683 109.4805 62.1523 0.0000 0.0000 0.0000
# 3 42.1015 62.1523 180.6277 0.0000 0.0000 0.0000
# 4 0.0000 0.0000 0.0000 23.7209 0.0000 0.0000
# 5 0.0000 0.0000 0.0000 0.0000 12.2946 0.0000
# 6 0.0000 0.0000 0.0000 0.0000 0.0000 23.3797
#
#
#
# Elastic Compliance Matrix: (Units=1/GPa)
#
#
# Indices 1 2 3 4 5 6 
#
# 1 0.022231 -0.008626 -0.002214 0.000000 0.000000 0.000000
# 2 -0.008626 0.014698 -0.003047 0.000000 0.000000 0.000000
# 3 -0.002214 -0.003047 0.007101 0.000000 0.000000 0.000000
# 4 0.000000 0.000000 0.000000 0.042157 0.000000 0.000000
# 5 0.000000 0.000000 0.000000 0.000000 0.081337 0.000000
# 6 0.000000 0.000000 0.000000 0.000000 0.000000 0.042772
#
#
# Mechanical properties :
#
#
# Convention : Reuss Voigt Hill
#
# Bulk Modulus (GPa) = 61.51202 73.77900 67.64551
# Shear Modulus (GPa) = 20.53493 25.56200 23.04847
#
# Velocity S-wave (km/s) = 3.48516 3.88843 3.69230
# Velocity P-wave (km/s) = 7.25116 7.98748 7.62821
#
# Compressibility (1/GPa) = 0.01625699
#
# Stress axis : x y z
#
# Youngs Moduli (GPa) = 44.98261 68.03489 140.83197
#
# Poissons Ratio (x) = 0.58685 0.31175
# Poissons Ratio (y) = 0.38801 0.42912
# Poissons Ratio (z) = 0.09957 0.20730
#
# Static dielectric constant tensor:
#      x y z
#    x 2.754010 0.000000 0.000000 
#    y 0.000000 3.190930 0.000000 
#    z 0.000000 0.000000 3.381360 
# 
# 
# High freq. dielectric constant tensor:
#      x y z
#    x 1.604820 0.000000 0.000000 
#    y 0.000000 1.640620 0.000000 
#    z 0.000000 0.000000 1.678290 
# 
# From -- ./inp_files/7572.got.cif
#   From: 2010.03.12/outbox.cif.g09.slc.cpg/sg66_4_cif.got.tgz:7572.got - 2010.04.10 21:57:39.
