data_PCOD8277700
_publ_section_title
;
Structure prediction by ZEFSAII (Michael W. Deem and Ramdas Pophale) SiO2 
 PCOD8277700
Probable space group: C C C M
;
_chemical_formula_sum "Si O2"
_cell_formula_units_Z 68
_cell_length_a 11.019954
_cell_length_b 16.624097
_cell_length_c 17.812033
_cell_angle_alpha 90.000000
_cell_angle_beta 90.000000
_cell_angle_gamma 90.000000
_cell_volume 3263.107166
_symmetry_space_group_name_H-M "C C C M"
_symmetry_group_IT_number 66
_symmetry_cell_setting 'orthorhombic'
loop_
_space_group_symop_operation_xyz
x,y,z
-x,-y,z
x,-y,1/2-z
-x,y,1/2-z
-x,-y,-z
x,y,-z
-x,y,1/2+z
x,-y,1/2+z
1/2+x,1/2+y,z
1/2-x,1/2-y,z
1/2+x,1/2-y,1/2-z
1/2-x,1/2+y,1/2-z
1/2-x,1/2-y,-z
1/2+x,1/2+y,-z
1/2-x,1/2+y,1/2+z
1/2+x,1/2-y,1/2+z
loop_
_atom_site_type_symbol
_atom_site_label
_atom_site_fract_x
_atom_site_fract_y
_atom_site_fract_z
Si Si1 0.249476 0.436849 0.500000
Si Si2 0.141405 0.620330 0.154828
Si Si3 0.501957 0.649770 0.000000
Si Si4 0.776303 0.378197 0.500000
Si Si5 0.500000 0.000000 0.250000
Si Si6 0.922210 0.726546 0.882742
Si Si7 0.250000 0.250000 0.244626
O O1 0.198584 0.394771 0.426239
O O2 0.395577 0.418080 0.500000
O O3 0.191464 0.527214 0.500000
O O4 0.236500 0.671421 0.203765
O O5 0.100371 0.541799 0.198137
O O6 0.015323 0.663960 0.147838
O O7 0.632433 0.608420 0.000000
O O8 0.499578 0.707564 0.927557
O O9 0.821083 0.325407 0.570891
O O10 0.863775 0.767362 0.809723
#
# Coordination Sequence:
#
# PCOD8277700 Si02
#       7
#     8  16   8   8   4  16   8
#     4  12  27  42  64  97 142 172 214 283 344 396
#     4  12  26  42  66 102 135 174 221 280 340 397
#     4  11  22  41  70  95 129 179 231 274 328 409
#     4  11  22  41  68  95 129 177 225 273 340 412
#     4  12  24  42  68 100 138 176 220 280 344 392
#     4  11  21  42  71  95 125 177 232 275 327 397
#     4  12  22  42  66  98 136 174 224 278 332 402
#
# _framework density 20.839034000000002
#
# number of rings (size 3 to 8) (size 9 to 14) (size 15 to 20)
#    0.000    0.471    4.706    5.294    0.000    2.824 
#    0.000    0.000    0.000    0.000    0.000    0.000 
#    0.000    0.000    0.000    0.000    0.000    0.000 
#
# Total GULP energy -421218.237647 kJ/mol
# GULP energy per Si atom -12388.771696 kJ/mol
# Density = 2.079160 g / cm^3
# Si number density = 20.839034 Si / 1000 Ang^3
#
#
#
# Elastic Constant Matrix: (Units=GPa)
#
#
# Indices 1 2 3 4 5 6 
#
# 1 108.1120 32.3689 53.0145 0.0000 0.0000 0.0000
# 2 32.3689 103.0513 59.0563 0.0000 0.0000 0.0000
# 3 53.0145 59.0563 165.5495 0.0000 0.0000 0.0000
# 4 0.0000 0.0000 0.0000 100.1585 0.0000 0.0000
# 5 0.0000 0.0000 0.0000 0.0000 -44.7833 0.0000
# 6 0.0000 0.0000 0.0000 0.0000 0.0000 45.2348
#
#
#
# Elastic Compliance Matrix: (Units=1/GPa)
#
#
# Indices 1 2 3 4 5 6 
#
# 1 0.011245 -0.001846 -0.002943 0.000000 0.000000 0.000000
# 2 -0.001846 0.012500 -0.003868 0.000000 0.000000 0.000000
# 3 -0.002943 -0.003868 0.008363 0.000000 0.000000 0.000000
# 4 0.000000 0.000000 0.000000 0.009984 0.000000 0.000000
# 5 0.000000 0.000000 0.000000 0.000000 -0.022330 0.000000
# 6 0.000000 0.000000 0.000000 0.000000 0.000000 0.022107
#
#
# Mechanical properties :
#
#
# Convention : Reuss Voigt Hill
#
# Bulk Modulus (GPa) = 67.58979 73.95470 70.77225
# Shear Modulus (GPa) = 77.98510 35.60687 56.79598
#
# Velocity S-wave (km/s) = 6.12404 4.13808 5.22626
# Velocity P-wave (km/s) = 9.08349 7.64181 8.39366
#
# Compressibility (1/GPa) = 0.01479513
#
# Stress axis : x y z
#
# Youngs Moduli (GPa) = 88.92605 79.99708 119.57831
#
# Poissons Ratio (x) = 0.14766 0.35188
# Poissons Ratio (y) = 0.16414 0.46255
# Poissons Ratio (z) = 0.26168 0.30944
#
# Static dielectric constant tensor:
#      x y z
#    x 3.840550 0.000000 0.000000 
#    y 0.000000 3.781920 0.000000 
#    z 0.000000 0.000000 3.906450 
# 
# 
# High freq. dielectric constant tensor:
#      x y z
#    x 1.820160 0.000000 0.000000 
#    y 0.000000 1.811040 0.000000 
#    z 0.000000 0.000000 1.837020 
# 
# From -- ./inp_files/38409.got.cif
#   From: 2010.03.12/outbox.cif.g09.slc.cpg/sg66_20_cif.got.tgz:38409.got - 2010.04.10 21:57:39.
