data_PCOD8277861
_publ_section_title
;
Structure prediction by ZEFSAII (Michael W. Deem and Ramdas Pophale) SiO2 
 PCOD8277861
Probable space group: C C C M
;
_chemical_formula_sum "Si O2"
_cell_formula_units_Z 68
_cell_length_a 16.024005
_cell_length_b 21.541101
_cell_length_c 8.613689
_cell_angle_alpha 90.000000
_cell_angle_beta 90.000000
_cell_angle_gamma 90.000000
_cell_volume 2973.227604
_symmetry_space_group_name_H-M "C C C M"
_symmetry_group_IT_number 66
_symmetry_cell_setting 'orthorhombic'
loop_
_space_group_symop_operation_xyz
x,y,z
-x,-y,z
x,-y,1/2-z
-x,y,1/2-z
-x,-y,-z
x,y,-z
-x,y,1/2+z
x,-y,1/2+z
1/2+x,1/2+y,z
1/2-x,1/2-y,z
1/2+x,1/2-y,1/2-z
1/2-x,1/2+y,1/2-z
1/2-x,1/2-y,-z
1/2+x,1/2+y,-z
1/2-x,1/2+y,1/2+z
1/2+x,1/2-y,1/2+z
loop_
_atom_site_type_symbol
_atom_site_label
_atom_site_fract_x
_atom_site_fract_y
_atom_site_fract_z
Si Si1 0.500000 0.000000 0.750000
Si Si2 0.644756 0.911612 0.172241
Si Si3 0.416089 0.664280 0.317229
Si Si4 0.161196 0.720690 0.817261
Si Si5 0.308343 0.438515 0.320329
O O1 0.559825 0.952104 0.841971
O O2 0.632263 0.840995 0.227918
O O3 0.708824 0.943051 0.293708
O O4 0.684303 0.910313 0.000000
O O5 0.500000 0.632455 0.250000
O O6 0.419995 0.674320 0.500000
O O7 0.408440 0.729285 0.227581
O O8 0.338460 0.621153 0.273409
O O9 0.250000 0.750000 0.763005
O O10 0.162609 0.706428 0.000000
O O11 0.351740 0.500000 0.250000
O O12 0.330360 0.431746 0.500000
#
# Coordination Sequence:
#
# PCOD8277861 Si02
#       5
#     4  16  16  16  16
#     4  12  30  48  72 106 160 192 252 304 370 432
#     4  12  26  45  71 103 142 191 244 297 362 431
#     4  12  26  46  72 104 143 184 236 296 361 428
#     4  11  24  44  72 104 142 186 238 298 362 429
#     4  12  25  45  72 103 139 183 235 289 355 428
#
# _framework density 22.87077
#
# number of rings (size 3 to 8) (size 9 to 14) (size 15 to 20)
#    0.000    0.235    3.529    6.000    1.647    4.235 
#    0.000    2.353    0.000    0.000    0.000    0.000 
#    0.000    0.000    0.000    0.000    0.000    0.000 
#
# Total GULP energy -421541.955852 kJ/mol
# GULP energy per Si atom -12398.292819 kJ/mol
# Density = 2.281872 g / cm^3
# Si number density = 22.870770 Si / 1000 Ang^3
#
#
#
# Elastic Constant Matrix: (Units=GPa)
#
#
# Indices 1 2 3 4 5 6 
#
# 1 90.9651 29.9872 20.3749 0.0000 0.0000 0.0000
# 2 29.9872 157.3380 32.5689 0.0000 0.0000 0.0000
# 3 20.3749 32.5689 116.7944 0.0000 0.0000 0.0000
# 4 0.0000 0.0000 0.0000 26.4995 0.0000 0.0000
# 5 0.0000 0.0000 0.0000 0.0000 30.2847 0.0000
# 6 0.0000 0.0000 0.0000 0.0000 0.0000 35.9653
#
#
#
# Elastic Compliance Matrix: (Units=1/GPa)
#
#
# Indices 1 2 3 4 5 6 
#
# 1 0.011987 -0.001965 -0.001543 0.000000 0.000000 0.000000
# 2 -0.001965 0.007067 -0.001628 0.000000 0.000000 0.000000
# 3 -0.001543 -0.001628 0.009285 0.000000 0.000000 0.000000
# 4 0.000000 0.000000 0.000000 0.037737 0.000000 0.000000
# 5 0.000000 0.000000 0.000000 0.000000 0.033020 0.000000
# 6 0.000000 0.000000 0.000000 0.000000 0.000000 0.027805
#
#
# Mechanical properties :
#
#
# Convention : Reuss Voigt Hill
#
# Bulk Modulus (GPa) = 55.35008 58.99550 57.17279
# Shear Modulus (GPa) = 34.91742 37.36098 36.13920
#
# Velocity S-wave (km/s) = 3.91157 4.04613 3.97942
# Velocity P-wave (km/s) = 6.68239 6.90502 6.79462
#
# Compressibility (1/GPa) = 0.01806682
#
# Stress axis : x y z
#
# Youngs Moduli (GPa) = 83.42595 141.49758 107.69818
#
# Poissons Ratio (x) = 0.27806 0.16619
# Poissons Ratio (y) = 0.16394 0.17533
# Poissons Ratio (z) = 0.12873 0.23035
#
# Static dielectric constant tensor:
#      x y z
#    x 4.058640 0.000000 0.000000 
#    y 0.000000 4.389990 0.000000 
#    z 0.000000 0.000000 3.906640 
# 
# 
# High freq. dielectric constant tensor:
#      x y z
#    x 1.894570 0.000000 0.000000 
#    y 0.000000 1.924110 0.000000 
#    z 0.000000 0.000000 1.905200 
# 
# From -- ./inp_files/6289.got.cif
#   From: 2010.03.12/outbox.cif.g09.slc.cpg/sg66_4_cif.got.tgz:6289.got - 2010.04.10 21:57:39.
