data_PCOD8277768
_publ_section_title
;
Structure prediction by ZEFSAII (Michael W. Deem and Ramdas Pophale) SiO2 
 PCOD8277768
Probable space group: C C C M
;
_chemical_formula_sum "Si O2"
_cell_formula_units_Z 112
_cell_length_a 15.659209
_cell_length_b 10.669507
_cell_length_c 30.702416
_cell_angle_alpha 90.000000
_cell_angle_beta 90.000000
_cell_angle_gamma 90.000000
_cell_volume 5129.638085
_symmetry_space_group_name_H-M "C C C M"
_symmetry_group_IT_number 66
_symmetry_cell_setting 'orthorhombic'
loop_
_space_group_symop_operation_xyz
x,y,z
-x,-y,z
x,-y,1/2-z
-x,y,1/2-z
-x,-y,-z
x,y,-z
-x,y,1/2+z
x,-y,1/2+z
1/2+x,1/2+y,z
1/2-x,1/2-y,z
1/2+x,1/2-y,1/2-z
1/2-x,1/2+y,1/2-z
1/2-x,1/2-y,-z
1/2+x,1/2+y,-z
1/2-x,1/2+y,1/2+z
1/2+x,1/2-y,1/2+z
loop_
_atom_site_type_symbol
_atom_site_label
_atom_site_fract_x
_atom_site_fract_y
_atom_site_fract_z
Si Si1 0.962594 0.363918 0.294883
Si Si2 0.203871 0.874994 0.367158
Si Si3 0.404098 0.046597 0.048239
Si Si4 0.435560 0.614647 0.951935
Si Si5 0.250768 0.396363 0.579963
Si Si6 0.267121 0.877874 0.275139
Si Si7 0.455742 0.249429 0.112628
O O1 0.862416 0.384181 0.292392
O O2 0.986655 0.290147 0.338993
O O3 0.000000 0.500000 0.300284
O O4 0.000000 0.301004 0.250000
O O5 0.250000 0.750000 0.386225
O O6 0.202143 0.867366 0.315202
O O7 0.105356 0.870978 0.382860
O O8 0.246347 0.007762 0.379489
O O9 0.397371 0.146371 0.087463
O O10 0.500000 0.000000 0.050759
O O11 0.335415 0.933110 0.053933
O O12 0.387108 0.105451 0.000000
O O13 0.500000 0.500000 0.946721
O O14 0.336242 0.576132 0.947940
O O15 0.460356 0.717850 0.915511
O O16 0.447966 0.674109 0.000000
O O17 0.250000 0.250000 0.594090
O O18 0.250000 0.750000 0.247082
O O19 0.239457 0.000000 0.250000
#
# Coordination Sequence:
#
# PCOD8277768 Si02
#       7
#    16  16  16  16  16  16  16
#     4  11  22  41  71 103 133 175 234 288 349 420
#     4  11  22  44  71  97 137 182 235 287 352 412
#     4  11  24  42  69 104 139 184 241 298 352 416
#     4  11  25  44  68 100 145 195 234 287 362 424
#     4  12  25  44  68 104 143 187 232 293 355 422
#     4  11  22  43  69 101 139 182 222 291 357 419
#     4  12  22  44  72  98 138 182 238 294 347 418
#
# _framework density 21.833898999999999
#
# number of rings (size 3 to 8) (size 9 to 14) (size 15 to 20)
#    0.000    0.714    7.143    2.143    0.000    4.000 
#    2.571    0.714    0.000    0.000    0.000    0.000 
#    0.000    0.000    0.000    0.000    0.000    0.000 
#
# Total GULP energy -693887.817308 kJ/mol
# GULP energy per Si atom -12390.853881 kJ/mol
# Density = 2.178420 g / cm^3
# Si number density = 21.833899 Si / 1000 Ang^3
#
#
#
# Elastic Constant Matrix: (Units=GPa)
#
#
# Indices 1 2 3 4 5 6 
#
# 1 131.8351 44.3146 36.5043 0.0000 0.0000 0.0000
# 2 44.3146 137.3175 56.3323 0.0000 0.0000 0.0000
# 3 36.5043 56.3323 138.3894 0.0000 0.0000 0.0000
# 4 0.0000 0.0000 0.0000 38.0756 0.0000 0.0000
# 5 0.0000 0.0000 0.0000 0.0000 14.5582 0.0000
# 6 0.0000 0.0000 0.0000 0.0000 0.0000 37.1517
#
#
#
# Elastic Compliance Matrix: (Units=1/GPa)
#
#
# Indices 1 2 3 4 5 6 
#
# 1 0.008724 -0.002247 -0.001387 0.000000 0.000000 0.000000
# 2 -0.002247 0.009321 -0.003201 0.000000 0.000000 0.000000
# 3 -0.001387 -0.003201 0.008895 0.000000 0.000000 0.000000
# 4 0.000000 0.000000 0.000000 0.026264 0.000000 0.000000
# 5 0.000000 0.000000 0.000000 0.000000 0.068690 0.000000
# 6 0.000000 0.000000 0.000000 0.000000 0.000000 0.026917
#
#
# Mechanical properties :
#
#
# Convention : Reuss Voigt Hill
#
# Bulk Modulus (GPa) = 75.35585 75.76048 75.55817
# Shear Modulus (GPa) = 29.95745 35.98317 32.97031
#
# Velocity S-wave (km/s) = 3.70815 4.06401 3.89015
# Velocity P-wave (km/s) = 7.27475 7.53628 7.40667
#
# Compressibility (1/GPa) = 0.01327037
#
# Stress axis : x y z
#
# Youngs Moduli (GPa) = 114.62114 107.28750 112.42293
#
# Poissons Ratio (x) = 0.24103 0.15591
# Poissons Ratio (y) = 0.25751 0.35992
# Poissons Ratio (z) = 0.15896 0.34348
#
# Static dielectric constant tensor:
#      x y z
#    x 3.825500 0.000000 0.000000 
#    y 0.000000 4.233640 0.000000 
#    z 0.000000 0.000000 4.102800 
# 
# 
# High freq. dielectric constant tensor:
#      x y z
#    x 1.868870 0.000000 0.000000 
#    y 0.000000 1.850950 0.000000 
#    z 0.000000 0.000000 1.851060 
# 
# From -- ./inp_files/69541.got.cif
#   From: 2010.03.12/outbox.cif.g09.slc.cpg/sg66_35_cif.got.tgz:69541.got - 2010.04.10 21:57:39.
