data_PCOD8277521
_publ_section_title
;
Structure prediction by ZEFSAII (Michael W. Deem and Ramdas Pophale) SiO2 
 PCOD8277521
Probable space group: C C C M
;
_chemical_formula_sum "Si O2"
_cell_formula_units_Z 88
_cell_length_a 22.568705
_cell_length_b 8.310376
_cell_length_c 22.843284
_cell_angle_alpha 90.000000
_cell_angle_beta 90.000000
_cell_angle_gamma 90.000000
_cell_volume 4284.358982
_symmetry_space_group_name_H-M "C C C M"
_symmetry_group_IT_number 66
_symmetry_cell_setting 'orthorhombic'
loop_
_space_group_symop_operation_xyz
x,y,z
-x,-y,z
x,-y,1/2-z
-x,y,1/2-z
-x,-y,-z
x,y,-z
-x,y,1/2+z
x,-y,1/2+z
1/2+x,1/2+y,z
1/2-x,1/2-y,z
1/2+x,1/2-y,1/2-z
1/2-x,1/2+y,1/2-z
1/2-x,1/2-y,-z
1/2+x,1/2+y,-z
1/2-x,1/2+y,1/2+z
1/2+x,1/2-y,1/2+z
loop_
_atom_site_type_symbol
_atom_site_label
_atom_site_fract_x
_atom_site_fract_y
_atom_site_fract_z
Si Si1 0.750000 0.250000 0.901925
Si Si2 0.314581 0.678877 0.276150
Si Si3 0.006794 0.310392 0.685262
Si Si4 0.259571 0.495821 0.000000
Si Si5 0.887721 0.698176 0.127771
Si Si6 0.348422 0.759184 0.500000
Si Si7 0.363968 0.839111 0.168568
O O1 0.690038 0.250777 0.863866
O O2 0.749375 0.406815 0.941035
O O3 0.312859 0.500000 0.250000
O O4 0.250000 0.750000 0.283021
O O5 0.344224 0.673171 0.340795
O O6 0.352745 0.804875 0.237241
O O7 0.070382 0.265527 0.655808
O O8 0.000000 0.500000 0.691853
O O9 0.000000 0.231810 0.750000
O O10 0.954627 0.249920 0.643210
O O11 0.326110 0.425069 0.000000
O O12 0.210128 0.362743 0.000000
O O13 0.865790 0.525973 0.152046
O O14 0.886339 0.703813 0.057640
#
# Coordination Sequence:
#
# PCOD8277521 Si02
#       7
#     8  16  16   8  16   8  16
#     4  11  22  40  64  92 128 159 216 264 324 383
#     4  12  26  38  61  97 131 164 207 270 330 382
#     4   9  18  37  63  92 125 167 210 260 316 379
#     4  10  24  42  60  87 127 175 207 259 315 390
#     4  11  23  42  65  92 129 169 218 259 313 380
#     4  11  24  40  63  92 125 168 216 256 315 380
#     4  11  21  39  66  97 123 162 213 267 325 376
#
# _framework density 20.539826999999999
#
# number of rings (size 3 to 8) (size 9 to 14) (size 15 to 20)
#    0.000    1.273    4.545    1.636    5.091    0.000 
#    0.000    7.727    0.000    1.091    0.000    0.000 
#    0.000    0.000    0.000    0.000    0.000    0.000 
#
# Total GULP energy -545380.107773 kJ/mol
# GULP energy per Si atom -12395.002449 kJ/mol
# Density = 2.049308 g / cm^3
# Si number density = 20.539827 Si / 1000 Ang^3
#
#
#
# Elastic Constant Matrix: (Units=GPa)
#
#
# Indices 1 2 3 4 5 6 
#
# 1 186.3336 32.9100 70.3486 0.0000 0.0000 0.0000
# 2 32.9100 47.3551 35.5895 0.0000 0.0000 0.0000
# 3 70.3486 35.5895 149.9621 0.0000 0.0000 0.0000
# 4 0.0000 0.0000 0.0000 1.8147 0.0000 0.0000
# 5 0.0000 0.0000 0.0000 0.0000 20.0289 0.0000
# 6 0.0000 0.0000 0.0000 0.0000 0.0000 20.0765
#
#
#
# Elastic Compliance Matrix: (Units=1/GPa)
#
#
# Indices 1 2 3 4 5 6 
#
# 1 0.006822 -0.002843 -0.002526 0.000000 0.000000 0.000000
# 2 -0.002843 0.026886 -0.005047 0.000000 0.000000 0.000000
# 3 -0.002526 -0.005047 0.009051 0.000000 0.000000 0.000000
# 4 0.000000 0.000000 0.000000 0.551052 0.000000 0.000000
# 5 0.000000 0.000000 0.000000 0.000000 0.049928 0.000000
# 6 0.000000 0.000000 0.000000 0.000000 0.000000 0.049809
#
#
# Mechanical properties :
#
#
# Convention : Reuss Voigt Hill
#
# Bulk Modulus (GPa) = 45.60435 73.48300 59.54368
# Shear Modulus (GPa) = 6.92819 24.70422 15.81620
#
# Velocity S-wave (km/s) = 1.83858 3.47183 2.77794
# Velocity P-wave (km/s) = 5.17284 7.20590 6.27229
#
# Compressibility (1/GPa) = 0.02192773
#
# Stress axis : x y z
#
# Youngs Moduli (GPa) = 146.57530 37.19423 110.48580
#
# Poissons Ratio (x) = 0.10575 0.27906
# Poissons Ratio (y) = 0.41673 0.55761
# Poissons Ratio (z) = 0.37021 0.18772
#
# Static dielectric constant tensor:
#      x y z
#    x 4.039240 0.000000 0.000000 
#    y 0.000000 3.551880 0.000000 
#    z 0.000000 0.000000 3.805480 
# 
# 
# High freq. dielectric constant tensor:
#      x y z
#    x 1.814570 0.000000 0.000000 
#    y 0.000000 1.783520 0.000000 
#    z 0.000000 0.000000 1.797420 
# 
# From -- ./inp_files/59412.got.cif
#   From: 2010.03.12/outbox.cif.g09.slc.cpg/sg66_30_cif.got.tgz:59412.got - 2010.04.10 21:57:39.
