data_PCOD8277558
_publ_section_title
;
Structure prediction by ZEFSAII (Michael W. Deem and Ramdas Pophale) SiO2 
 PCOD8277558
Probable space group: C C C M
;
_chemical_formula_sum "Si O2"
_cell_formula_units_Z 112
_cell_length_a 27.496296
_cell_length_b 12.272880
_cell_length_c 19.957427
_cell_angle_alpha 90.000000
_cell_angle_beta 90.000000
_cell_angle_gamma 90.000000
_cell_volume 6734.808194
_symmetry_space_group_name_H-M "C C C M"
_symmetry_group_IT_number 66
_symmetry_cell_setting 'orthorhombic'
loop_
_space_group_symop_operation_xyz
x,y,z
-x,-y,z
x,-y,1/2-z
-x,y,1/2-z
-x,-y,-z
x,y,-z
-x,y,1/2+z
x,-y,1/2+z
1/2+x,1/2+y,z
1/2-x,1/2-y,z
1/2+x,1/2-y,1/2-z
1/2-x,1/2+y,1/2-z
1/2-x,1/2-y,-z
1/2+x,1/2+y,-z
1/2-x,1/2+y,1/2+z
1/2+x,1/2-y,1/2+z
loop_
_atom_site_type_symbol
_atom_site_label
_atom_site_fract_x
_atom_site_fract_y
_atom_site_fract_z
Si Si1 0.946734 0.323852 0.260186
Si Si2 0.694403 0.472204 0.324836
Si Si3 0.553591 0.008492 0.860702
Si Si4 0.804781 0.789115 0.647192
Si Si5 0.195444 0.553839 0.679111
Si Si6 0.146822 0.400419 0.577285
Si Si7 0.650095 0.730566 0.210727
O O1 0.941913 0.406550 0.199340
O O2 0.937991 0.388632 0.329824
O O3 0.905182 0.231370 0.260804
O O4 0.000000 0.268871 0.250000
O O5 0.679099 0.500000 0.250000
O O6 0.689269 0.581126 0.370262
O O7 0.747940 0.420749 0.326415
O O8 0.657813 0.371383 0.340805
O O9 0.592541 0.050015 0.914956
O O10 0.500000 0.000000 0.893994
O O11 0.750000 0.750000 0.629837
O O12 0.845106 0.723592 0.603750
O O13 0.813048 0.771927 0.726225
O O14 0.181195 0.500000 0.750000
O O15 0.184118 0.471979 0.619373
O O16 0.163183 0.661153 0.669273
O O17 0.161169 0.404906 0.500000
#
# Coordination Sequence:
#
# PCOD8277558 Si02
#       7
#    16  16  16  16  16  16  16
#     4   9  16  27  51  81 103 132 164 208 275 317
#     4   9  19  29  47  77  99 130 181 220 250 301
#     4   9  17  32  50  75 106 136 169 208 260 326
#     4  11  19  34  49  72 107 141 176 217 265 314
#     4  11  17  32  52  72 104 139 174 212 263 317
#     4  12  23  32  51  80 108 141 178 222 268 315
#     4  11  17  28  55  79 102 131 174 226 255 309
#
# _framework density 16.630020999999999
#
# number of rings (size 3 to 8) (size 9 to 14) (size 15 to 20)
#    0.000    1.714    5.714    3.000    0.000    0.571 
#    0.000    0.000    0.000    6.429    0.000    0.000 
#    0.000    4.571    0.000    0.000    0.000    0.000 
#
# Total GULP energy -693772.123168 kJ/mol
# GULP energy per Si atom -12388.787914 kJ/mol
# Density = 1.659217 g / cm^3
# Si number density = 16.630021 Si / 1000 Ang^3
#
#
#
# Elastic Constant Matrix: (Units=GPa)
#
#
# Indices 1 2 3 4 5 6 
#
# 1 93.3784 61.6509 10.6244 0.0000 0.0000 0.0000
# 2 61.6509 107.0904 26.0139 0.0000 0.0000 0.0000
# 3 10.6244 26.0139 60.8973 0.0000 0.0000 0.0000
# 4 0.0000 0.0000 0.0000 10.0722 0.0000 0.0000
# 5 0.0000 0.0000 0.0000 0.0000 -2.5560 0.0000
# 6 0.0000 0.0000 0.0000 0.0000 0.0000 24.2905
#
#
#
# Elastic Compliance Matrix: (Units=1/GPa)
#
#
# Indices 1 2 3 4 5 6 
#
# 1 0.017379 -0.010342 0.001386 0.000000 0.000000 0.000000
# 2 -0.010342 0.016573 -0.005275 0.000000 0.000000 0.000000
# 3 0.001386 -0.005275 0.018433 0.000000 0.000000 0.000000
# 4 0.000000 0.000000 0.000000 0.099283 0.000000 0.000000
# 5 0.000000 0.000000 0.000000 0.000000 -0.391240 0.000000
# 6 0.000000 0.000000 0.000000 0.000000 0.000000 0.041168
#
#
# Mechanical properties :
#
#
# Convention : Reuss Voigt Hill
#
# Bulk Modulus (GPa) = 41.80184 50.88273 46.34228
# Shear Modulus (GPa) = -30.87049 17.23314 -6.81867
#
# Velocity S-wave (km/s) = -4.31317 3.22260 -2.02710
# Velocity P-wave (km/s) = 0.62161 6.67160 4.73796
#
# Compressibility (1/GPa) = 0.02392239
#
# Stress axis : x y z
#
# Youngs Moduli (GPa) = 57.53962 60.33916 54.25098
#
# Poissons Ratio (x) = 0.62401 -0.07517
# Poissons Ratio (y) = 0.59506 0.28619
# Poissons Ratio (z) = -0.07973 0.31831
#
# Static dielectric constant tensor:
#      x y z
#    x 3.350080 0.000000 0.000000 
#    y 0.000000 3.658020 0.000000 
#    z 0.000000 0.000000 2.660930 
# 
# 
# High freq. dielectric constant tensor:
#      x y z
#    x 1.645120 0.000000 0.000000 
#    y 0.000000 1.632810 0.000000 
#    z 0.000000 0.000000 1.581950 
# 
# From -- ./inp_files/49120.got.cif
#   From: 2010.03.12/outbox.cif.g09.slc.cpg/sg66_25_cif.got.tgz:49120.got - 2010.04.10 21:57:39.
