data_PCOD8277773
_publ_section_title
;
Structure prediction by ZEFSAII (Michael W. Deem and Ramdas Pophale) SiO2 
 PCOD8277773
Probable space group: C C C M
;
_chemical_formula_sum "Si O2"
_cell_formula_units_Z 48
_cell_length_a 7.717927
_cell_length_b 16.784244
_cell_length_c 17.556850
_cell_angle_alpha 90.000000
_cell_angle_beta 90.000000
_cell_angle_gamma 90.000000
_cell_volume 2274.306799
_symmetry_space_group_name_H-M "C C C M"
_symmetry_group_IT_number 66
_symmetry_cell_setting 'orthorhombic'
loop_
_space_group_symop_operation_xyz
x,y,z
-x,-y,z
x,-y,1/2-z
-x,y,1/2-z
-x,-y,-z
x,y,-z
-x,y,1/2+z
x,-y,1/2+z
1/2+x,1/2+y,z
1/2-x,1/2-y,z
1/2+x,1/2-y,1/2-z
1/2-x,1/2+y,1/2-z
1/2-x,1/2-y,-z
1/2+x,1/2+y,-z
1/2-x,1/2+y,1/2+z
1/2+x,1/2-y,1/2+z
loop_
_atom_site_type_symbol
_atom_site_label
_atom_site_fract_x
_atom_site_fract_y
_atom_site_fract_z
Si Si1 0.750000 0.750000 0.839775
Si Si2 0.500000 0.864725 0.750000
Si Si3 0.730064 0.467242 0.829801
Si Si4 0.413588 0.606673 0.411530
O O1 0.644375 0.809445 0.786547
O O2 0.631072 0.698102 0.895320
O O3 0.412365 0.921398 0.814947
O O4 0.658910 0.500000 0.750000
O O5 0.739732 0.545596 0.884636
O O6 0.590763 0.407870 0.865869
O O7 0.448298 0.593654 0.500000
#
# Coordination Sequence:
#
# PCOD8277773 Si02
#       4
#     8   8  16  16
#     4  12  25  40  64  98 137 170 218 272 327 390
#     4  12  25  42  68 103 126 170 224 277 320 374
#     4  11  22  42  69  96 122 171 225 268 315 381
#     4  11  24  43  66  97 135 175 212 265 334 392
#
# _framework density 21.105333000000002
#
# number of rings (size 3 to 8) (size 9 to 14) (size 15 to 20)
#    0.000    0.667    3.333    7.000    0.000    0.000 
#    0.000   10.000    0.000    0.000    0.000    0.000 
#    0.000    0.000    0.000    0.000    0.000    0.000 
#
# Total GULP energy -297430.208115 kJ/mol
# GULP energy per Si atom -12392.925338 kJ/mol
# Density = 2.105730 g / cm^3
# Si number density = 21.105333 Si / 1000 Ang^3
#
#
#
# Elastic Constant Matrix: (Units=GPa)
#
#
# Indices 1 2 3 4 5 6 
#
# 1 98.3856 49.4588 40.7214 0.0000 0.0000 0.0000
# 2 49.4588 129.2246 31.5783 0.0000 0.0000 0.0000
# 3 40.7214 31.5783 128.6265 0.0000 0.0000 0.0000
# 4 0.0000 0.0000 0.0000 21.2715 0.0000 0.0000
# 5 0.0000 0.0000 0.0000 0.0000 19.4090 0.0000
# 6 0.0000 0.0000 0.0000 0.0000 0.0000 44.3094
#
#
#
# Elastic Compliance Matrix: (Units=1/GPa)
#
#
# Indices 1 2 3 4 5 6 
#
# 1 0.013760 -0.004470 -0.003259 0.000000 0.000000 0.000000
# 2 -0.004470 0.009685 -0.000962 0.000000 0.000000 0.000000
# 3 -0.003259 -0.000962 0.009042 0.000000 0.000000 0.000000
# 4 0.000000 0.000000 0.000000 0.047011 0.000000 0.000000
# 5 0.000000 0.000000 0.000000 0.000000 0.051523 0.000000
# 6 0.000000 0.000000 0.000000 0.000000 0.000000 0.022569
#
#
# Mechanical properties :
#
#
# Convention : Reuss Voigt Hill
#
# Bulk Modulus (GPa) = 66.20624 66.63929 66.42276
# Shear Modulus (GPa) = 28.40799 32.62985 30.51892
#
# Velocity S-wave (km/s) = 3.67278 3.93625 3.80679
# Velocity P-wave (km/s) = 7.03017 7.23200 7.13180
#
# Compressibility (1/GPa) = 0.01510432
#
# Stress axis : x y z
#
# Youngs Moduli (GPa) = 72.67421 103.25765 110.58991
#
# Poissons Ratio (x) = 0.46157 0.36039
# Poissons Ratio (y) = 0.32486 0.10643
# Poissons Ratio (z) = 0.23683 0.09938
#
# Static dielectric constant tensor:
#      x y z
#    x 3.730700 0.000000 0.000000 
#    y 0.000000 4.238880 0.000000 
#    z 0.000000 0.000000 3.766160 
# 
# 
# High freq. dielectric constant tensor:
#      x y z
#    x 1.819470 0.000000 0.000000 
#    y 0.000000 1.851390 0.000000 
#    z 0.000000 0.000000 1.816080 
# 
# From -- ./inp_files/29345.got.cif
#   From: 2010.03.12/outbox.cif.g09.slc.cpg/sg66_15_cif.got.tgz:29345.got - 2010.04.10 21:57:39.
