data_PCOD8277629
_publ_section_title
;
Structure prediction by ZEFSAII (Michael W. Deem and Ramdas Pophale) SiO2 
 PCOD8277629
Probable space group: C C C M
;
_chemical_formula_sum "Si O2"
_cell_formula_units_Z 64
_cell_length_a 18.264087
_cell_length_b 7.138802
_cell_length_c 23.211846
_cell_angle_alpha 90.000000
_cell_angle_beta 90.000000
_cell_angle_gamma 90.000000
_cell_volume 3026.446384
_symmetry_space_group_name_H-M "C C C M"
_symmetry_group_IT_number 66
_symmetry_cell_setting 'orthorhombic'
loop_
_space_group_symop_operation_xyz
x,y,z
-x,-y,z
x,-y,1/2-z
-x,y,1/2-z
-x,-y,-z
x,y,-z
-x,y,1/2+z
x,-y,1/2+z
1/2+x,1/2+y,z
1/2-x,1/2-y,z
1/2+x,1/2-y,1/2-z
1/2-x,1/2+y,1/2-z
1/2-x,1/2-y,-z
1/2+x,1/2+y,-z
1/2-x,1/2+y,1/2+z
1/2+x,1/2-y,1/2+z
loop_
_atom_site_type_symbol
_atom_site_label
_atom_site_fract_x
_atom_site_fract_y
_atom_site_fract_z
Si Si1 0.079684 0.220715 0.741651
Si Si2 0.418181 0.048831 0.434373
Si Si3 0.664272 0.775497 0.146765
Si Si4 0.580493 0.588575 0.376695
O O1 0.134082 0.314662 0.788199
O O2 0.102126 0.236787 0.674689
O O3 0.000000 0.312870 0.750000
O O4 0.076969 0.000000 0.750000
O O5 0.405557 0.984783 0.500000
O O6 0.411409 0.276196 0.431827
O O7 0.500000 0.000000 0.413023
O O8 0.358364 0.944093 0.395136
O O9 0.750000 0.750000 0.151513
O O10 0.635463 0.583307 0.118934
O O11 0.500000 0.500000 0.368212
#
# Coordination Sequence:
#
# PCOD8277629 Si02
#       4
#    16  16  16  16
#     4   9  15  35  65  87 122 164 209 252 320 397
#     4  11  24  42  68  99 125 172 238 270 312 395
#     4  11  24  42  64 100 137 169 210 275 336 383
#     4  11  20  41  69  93 131 173 214 271 325 387
#
# _framework density 21.146912
#
# number of rings (size 3 to 8) (size 9 to 14) (size 15 to 20)
#    0.000    1.500    7.500    0.000    0.000    4.000 
#   13.500    3.750    0.000    0.000    0.000    0.000 
#    0.000    0.000    0.000    0.000    0.000    0.000 
#
# Total GULP energy -396559.195247 kJ/mol
# GULP energy per Si atom -12392.474851 kJ/mol
# Density = 2.109878 g / cm^3
# Si number density = 21.146912 Si / 1000 Ang^3
#
#
#
# Elastic Constant Matrix: (Units=GPa)
#
#
# Indices 1 2 3 4 5 6 
#
# 1 156.4844 32.1916 45.0832 0.0000 0.0000 0.0000
# 2 32.1916 89.3100 32.1258 0.0000 0.0000 0.0000
# 3 45.0832 32.1258 89.3605 0.0000 0.0000 0.0000
# 4 0.0000 0.0000 0.0000 38.4453 0.0000 0.0000
# 5 0.0000 0.0000 0.0000 0.000015805.7838 0.0000
# 6 0.0000 0.0000 0.0000 0.0000 0.0000 22.1982
#
#
#
# Elastic Compliance Matrix: (Units=1/GPa)
#
#
# Indices 1 2 3 4 5 6 
#
# 1 0.007666 -0.001576 -0.003301 0.000000 0.000000 0.000000
# 2 -0.001576 0.013184 -0.003945 0.000000 0.000000 0.000000
# 3 -0.003301 -0.003945 0.014274 0.000000 0.000000 0.000000
# 4 0.000000 0.000000 0.000000 0.026011 0.000000 0.000000
# 5 0.000000 0.000000 0.000000 0.000000 0.000063 0.000000
# 6 0.000000 0.000000 0.000000 0.000000 0.000000 0.045049
#
#
# Mechanical properties :
#
#
# Convention : Reuss Voigt Hill
#
# Bulk Modulus (GPa) = 57.20522 61.55068 59.37795
# Shear Modulus (GPa) = 38.54574 3188.33574 1613.44074
#
# Velocity S-wave (km/s) = 4.27401 38.87133 27.65183
# Velocity P-wave (km/s) = 7.17400 45.20852 32.36724
#
# Compressibility (1/GPa) = 0.01748092
#
# Stress axis : x y z
#
# Youngs Moduli (GPa) = 130.45398 75.85019 70.05682
#
# Poissons Ratio (x) = 0.11951 0.23125
# Poissons Ratio (y) = 0.20555 0.27636
# Poissons Ratio (z) = 0.43061 0.29921
#
# Static dielectric constant tensor:
#      x y z
#    x 3.101630 0.000000 0.000000 
#    y 0.000000 3.634040 0.000000 
#    z 0.000000 0.000000 6.680650 
# 
# 
# High freq. dielectric constant tensor:
#      x y z
#    x 1.797290 0.000000 0.000000 
#    y 0.000000 1.835080 0.000000 
#    z 0.000000 0.000000 1.828700 
# 
# From -- ./inp_files/55149.got.cif
#   From: 2010.03.12/outbox.cif.g09.slc.cpg/sg66_28_cif.got.tgz:55149.got - 2010.04.10 21:57:39.
