data_PCOD8277272
_publ_section_title
;
Structure prediction by ZEFSAII (Michael W. Deem and Ramdas Pophale) SiO2 
 PCOD8277272
Probable space group: C C C M
;
_chemical_formula_sum "Si O2"
_cell_formula_units_Z 72
_cell_length_a 15.208141
_cell_length_b 24.043677
_cell_length_c 9.519716
_cell_angle_alpha 90.000000
_cell_angle_beta 90.000000
_cell_angle_gamma 90.000000
_cell_volume 3480.975830
_symmetry_space_group_name_H-M "C C C M"
_symmetry_group_IT_number 66
_symmetry_cell_setting 'orthorhombic'
loop_
_space_group_symop_operation_xyz
x,y,z
-x,-y,z
x,-y,1/2-z
-x,y,1/2-z
-x,-y,-z
x,y,-z
-x,y,1/2+z
x,-y,1/2+z
1/2+x,1/2+y,z
1/2-x,1/2-y,z
1/2+x,1/2-y,1/2-z
1/2-x,1/2+y,1/2-z
1/2-x,1/2-y,-z
1/2+x,1/2+y,-z
1/2-x,1/2+y,1/2+z
1/2+x,1/2-y,1/2+z
loop_
_atom_site_type_symbol
_atom_site_label
_atom_site_fract_x
_atom_site_fract_y
_atom_site_fract_z
Si Si1 0.500000 0.146036 0.750000
Si Si2 0.898696 0.291102 0.500000
Si Si3 0.105939 0.960698 0.500000
Si Si4 0.692780 0.317099 0.500000
Si Si5 0.432362 0.587447 0.000000
Si Si6 0.867428 0.446086 0.842822
Si Si7 0.683648 0.596499 0.758398
O O1 0.552663 0.184491 0.638201
O O2 0.566028 0.105030 0.828944
O O3 0.793619 0.297822 0.500000
O O4 0.893250 0.223938 0.500000
O O5 0.161778 0.956252 0.642808
O O6 0.038398 0.906816 0.500000
O O7 0.068491 0.021260 0.500000
O O8 0.687740 0.350151 0.644549
O O9 0.388411 0.611237 0.139960
O O10 0.891165 0.500000 0.750000
O O11 0.773797 0.418928 0.814963
O O12 0.870471 0.469398 0.000000
#
# Coordination Sequence:
#
# PCOD8277272 Si02
#       7
#     8   8   8   8   8  16  16
#     4  12  25  46  72 100 142 176 233 284 338 404
#     4  11  24  49  72  96 126 175 226 288 347 397
#     4  10  22  36  56  87 129 184 217 268 334 402
#     4  10  24  46  71  90 127 174 222 280 354 396
#     4  11  20  37  60  88 131 170 223 277 332 397
#     4  12  26  40  67 107 147 188 222 268 333 420
#     4  11  22  39  62  96 133 177 224 276 334 407
#
# _framework density 20.683854
#
# number of rings (size 3 to 8) (size 9 to 14) (size 15 to 20)
#    0.000    0.889    4.444    3.000    4.667    2.667 
#    8.000    0.000    0.000    4.000    0.000    0.000 
#    0.000    0.000    0.000    0.000    0.000    0.000 
#
# Total GULP energy -445994.249998 kJ/mol
# GULP energy per Si atom -12388.729167 kJ/mol
# Density = 2.063678 g / cm^3
# Si number density = 20.683854 Si / 1000 Ang^3
#
#
#
# Elastic Constant Matrix: (Units=GPa)
#
#
# Indices 1 2 3 4 5 6 
#
# 1 95.6195 13.1265 37.4663 0.0000 0.0000 0.0000
# 2 13.1265 72.5789 33.8756 0.0000 0.0000 0.0000
# 3 37.4663 33.8756 165.4957 0.0000 0.0000 0.0000
# 4 0.0000 0.0000 0.0000 31.3557 0.0000 0.0000
# 5 0.0000 0.0000 0.0000 0.0000 32.1889 0.0000
# 6 0.0000 0.0000 0.0000 0.0000 0.0000 30.1436
#
#
#
# Elastic Compliance Matrix: (Units=1/GPa)
#
#
# Indices 1 2 3 4 5 6 
#
# 1 0.011536 -0.000959 -0.002415 0.000000 0.000000 0.000000
# 2 -0.000959 0.015313 -0.002917 0.000000 0.000000 0.000000
# 3 -0.002415 -0.002917 0.007186 0.000000 0.000000 0.000000
# 4 0.000000 0.000000 0.000000 0.031892 0.000000 0.000000
# 5 0.000000 0.000000 0.000000 0.000000 0.031067 0.000000
# 6 0.000000 0.000000 0.000000 0.000000 0.000000 0.033174
#
#
# Mechanical properties :
#
#
# Convention : Reuss Voigt Hill
#
# Bulk Modulus (GPa) = 46.61514 55.84786 51.23150
# Shear Modulus (GPa) = 33.35481 35.35268 34.35374
#
# Velocity S-wave (km/s) = 4.02008 4.13872 4.07983
# Velocity P-wave (km/s) = 6.64334 7.06385 6.85682
#
# Compressibility (1/GPa) = 0.02145226
#
# Stress axis : x y z
#
# Youngs Moduli (GPa) = 86.68385 65.30303 139.15137
#
# Poissons Ratio (x) = 0.06263 0.33610
# Poissons Ratio (y) = 0.08314 0.40596
# Poissons Ratio (z) = 0.20937 0.19051
#
# Static dielectric constant tensor:
#      x y z
#    x 4.233550 0.000000 0.000000 
#    y 0.000000 3.719780 0.000000 
#    z 0.000000 0.000000 3.755450 
# 
# 
# High freq. dielectric constant tensor:
#      x y z
#    x 1.830460 0.000000 0.000000 
#    y 0.000000 1.791410 0.000000 
#    z 0.000000 0.000000 1.824300 
# 
# From -- ./inp_files/5418.got.cif
#   From: 2010.03.12/outbox.cif.g09.slc.cpg/sg66_3_cif.got.tgz:5418.got - 2010.04.10 21:57:39.
