data_PCOD8277838
_publ_section_title
;
Structure prediction by ZEFSAII (Michael W. Deem and Ramdas Pophale) SiO2 
 PCOD8277838
Probable space group: C C C M
;
_chemical_formula_sum "Si O2"
_cell_formula_units_Z 64
_cell_length_a 10.220752
_cell_length_b 16.868330
_cell_length_c 16.724469
_cell_angle_alpha 90.000000
_cell_angle_beta 90.000000
_cell_angle_gamma 90.000000
_cell_volume 2883.415821
_symmetry_space_group_name_H-M "C C C M"
_symmetry_group_IT_number 66
_symmetry_cell_setting 'orthorhombic'
loop_
_space_group_symop_operation_xyz
x,y,z
-x,-y,z
x,-y,1/2-z
-x,y,1/2-z
-x,-y,-z
x,y,-z
-x,y,1/2+z
x,-y,1/2+z
1/2+x,1/2+y,z
1/2-x,1/2-y,z
1/2+x,1/2-y,1/2-z
1/2-x,1/2+y,1/2-z
1/2-x,1/2-y,-z
1/2+x,1/2+y,-z
1/2-x,1/2+y,1/2+z
1/2+x,1/2-y,1/2+z
loop_
_atom_site_type_symbol
_atom_site_label
_atom_site_fract_x
_atom_site_fract_y
_atom_site_fract_z
Si Si1 0.795279 0.147090 0.591814
Si Si2 0.546973 0.777440 0.840232
Si Si3 0.653775 0.486855 0.161493
Si Si4 0.793798 0.663954 0.593031
O O1 0.763937 0.168948 0.500000
O O2 0.685731 0.179050 0.652610
O O3 0.932733 0.190152 0.618187
O O4 0.794995 0.052683 0.599850
O O5 0.500000 0.764820 0.750000
O O6 0.447345 0.836955 0.885779
O O7 0.500000 0.500000 0.161272
O O8 0.710298 0.500000 0.250000
O O9 0.704970 0.401114 0.136055
O O10 0.771295 0.652119 0.500000
O O11 0.750000 0.750000 0.624214
#
# Coordination Sequence:
#
# PCOD8277838 Si02
#       4
#    16  16  16  16
#     4  11  24  44  68  99 139 182 230 286 352 415
#     4  11  24  40  70  97 134 176 231 278 344 412
#     4  11  25  42  67  99 138 177 229 284 352 412
#     4  11  24  42  66  96 132 174 226 278 336 404
#
# _framework density 22.195896000000001
#
# number of rings (size 3 to 8) (size 9 to 14) (size 15 to 20)
#    0.000    1.000    0.000    6.750   10.500    5.000 
#    0.000    5.000    0.000    0.000    0.000    0.000 
#    0.000    0.000    0.000    0.000    0.000    0.000 
#
# Total GULP energy -396639.627216 kJ/mol
# GULP energy per Si atom -12394.988350 kJ/mol
# Density = 2.214538 g / cm^3
# Si number density = 22.195896 Si / 1000 Ang^3
#
#
#
# Elastic Constant Matrix: (Units=GPa)
#
#
# Indices 1 2 3 4 5 6 
#
# 1 100.5584 54.9742 49.1428 0.0000 0.0000 0.0000
# 2 54.9742 173.8857 67.9400 0.0000 0.0000 0.0000
# 3 49.1428 67.9400 144.4679 0.0000 0.0000 0.0000
# 4 0.0000 0.0000 0.0000 32.0469 0.0000 0.0000
# 5 0.0000 0.0000 0.0000 0.0000 35.0256 0.0000
# 6 0.0000 0.0000 0.0000 0.0000 0.0000 42.6225
#
#
#
# Elastic Compliance Matrix: (Units=1/GPa)
#
#
# Indices 1 2 3 4 5 6 
#
# 1 0.013040 -0.002927 -0.003059 0.000000 0.000000 0.000000
# 2 -0.002927 0.007703 -0.002627 0.000000 0.000000 0.000000
# 3 -0.003059 -0.002627 0.009198 0.000000 0.000000 0.000000
# 4 0.000000 0.000000 0.000000 0.031204 0.000000 0.000000
# 5 0.000000 0.000000 0.000000 0.000000 0.028551 0.000000
# 6 0.000000 0.000000 0.000000 0.000000 0.000000 0.023462
#
#
# Mechanical properties :
#
#
# Convention : Reuss Voigt Hill
#
# Bulk Modulus (GPa) = 78.65183 84.78067 81.71625
# Shear Modulus (GPa) = 37.14140 38.39600 37.76870
#
# Velocity S-wave (km/s) = 4.09509 4.16368 4.12953
# Velocity P-wave (km/s) = 7.60736 7.83546 7.72225
#
# Compressibility (1/GPa) = 0.01271426
#
# Stress axis : x y z
#
# Youngs Moduli (GPa) = 76.68864 129.82561 108.72227
#
# Poissons Ratio (x) = 0.38004 0.33258
# Poissons Ratio (y) = 0.22449 0.28557
# Poissons Ratio (z) = 0.23459 0.34100
#
# Static dielectric constant tensor:
#      x y z
#    x 4.190380 0.000000 0.000000 
#    y 0.000000 4.295880 0.000000 
#    z 0.000000 0.000000 4.012200 
# 
# 
# High freq. dielectric constant tensor:
#      x y z
#    x 1.874620 0.000000 0.000000 
#    y 0.000000 1.878760 0.000000 
#    z 0.000000 0.000000 1.882180 
# 
# From -- ./inp_files/25790.got.cif
#   From: 2010.03.12/outbox.cif.g09.slc.cpg/sg66_13_cif.got.tgz:25790.got - 2010.04.10 21:57:39.
