data_PCOD8277912
_publ_section_title
;
Structure prediction by ZEFSAII (Michael W. Deem and Ramdas Pophale) SiO2 
 PCOD8277912
Probable space group: C C C M
;
_chemical_formula_sum "Si O2"
_cell_formula_units_Z 36
_cell_length_a 20.272375
_cell_length_b 4.873402
_cell_length_c 14.221963
_cell_angle_alpha 90.000000
_cell_angle_beta 90.000000
_cell_angle_gamma 90.000000
_cell_volume 1405.064991
_symmetry_space_group_name_H-M "C C C M"
_symmetry_group_IT_number 66
_symmetry_cell_setting 'orthorhombic'
loop_
_space_group_symop_operation_xyz
x,y,z
-x,-y,z
x,-y,1/2-z
-x,y,1/2-z
-x,-y,-z
x,y,-z
-x,y,1/2+z
x,-y,1/2+z
1/2+x,1/2+y,z
1/2-x,1/2-y,z
1/2+x,1/2-y,1/2-z
1/2-x,1/2+y,1/2-z
1/2-x,1/2-y,-z
1/2+x,1/2+y,-z
1/2-x,1/2+y,1/2+z
1/2+x,1/2-y,1/2+z
loop_
_atom_site_type_symbol
_atom_site_label
_atom_site_fract_x
_atom_site_fract_y
_atom_site_fract_z
Si Si1 0.899679 0.878962 0.605037
Si Si2 0.000000 0.000000 0.250000
Si Si3 0.815293 0.614353 0.148624
O O1 0.926857 0.940973 0.500000
O O2 0.844697 0.642855 0.592356
O O3 0.957819 0.802733 0.678849
O O4 0.870499 0.153200 0.651863
O O5 0.795026 0.500000 0.250000
O O6 0.750000 0.750000 0.100992
#
# Coordination Sequence:
#
# PCOD8277912 Si02
#       3
#    16   4  16
#     4  12  27  46  77 111 147 198 251 309 372 439
#     4  12  26  54  72 108 156 202 254 308 360 456
#     4  12  24  47  76 111 150 194 243 309 384 448
#
# _framework density 25.621589
#
# number of rings (size 3 to 8) (size 9 to 14) (size 15 to 20)
#    0.000    0.000    4.444    6.000    0.000    8.889 
#    0.000    4.444    0.000    0.000    0.000    0.000 
#    0.000    0.000    0.000    0.000    0.000    0.000 
#
# Total GULP energy -223079.040642 kJ/mol
# GULP energy per Si atom -12393.280036 kJ/mol
# Density = 2.556327 g / cm^3
# Si number density = 25.621589 Si / 1000 Ang^3
#
#
#
# Elastic Constant Matrix: (Units=GPa)
#
#
# Indices 1 2 3 4 5 6 
#
# 1 112.3960 39.3437 88.1495 0.0000 0.0000 0.0000
# 2 39.3437 145.4817 39.2380 0.0000 0.0000 0.0000
# 3 88.1495 39.2380 161.1075 0.0000 0.0000 0.0000
# 4 0.0000 0.0000 0.0000 142.5616 0.0000 0.0000
# 5 0.0000 0.0000 0.0000 0.0000 12.0051 0.0000
# 6 0.0000 0.0000 0.0000 0.0000 0.0000 21.7543
#
#
#
# Elastic Compliance Matrix: (Units=1/GPa)
#
#
# Indices 1 2 3 4 5 6 
#
# 1 0.016177 -0.002127 -0.008333 0.000000 0.000000 0.000000
# 2 -0.002127 0.007637 -0.000696 0.000000 0.000000 0.000000
# 3 -0.008333 -0.000696 0.010936 0.000000 0.000000 0.000000
# 4 0.000000 0.000000 0.000000 0.007015 0.000000 0.000000
# 5 0.000000 0.000000 0.000000 0.000000 0.083298 0.000000
# 6 0.000000 0.000000 0.000000 0.000000 0.000000 0.045968
#
#
# Mechanical properties :
#
#
# Convention : Reuss Voigt Hill
#
# Bulk Modulus (GPa) = 80.40548 83.60529 82.00538
# Shear Modulus (GPa) = 25.31781 52.08113 38.69947
#
# Velocity S-wave (km/s) = 3.14689 4.51344 3.89063
# Velocity P-wave (km/s) = 6.68236 7.73713 7.22901
#
# Compressibility (1/GPa) = 0.01243696
#
# Stress axis : x y z
#
# Youngs Moduli (GPa) = 61.81466 130.94577 91.44054
#
# Poissons Ratio (x) = 0.27857 0.76200
# Poissons Ratio (y) = 0.13150 0.06364
# Poissons Ratio (z) = 0.51512 0.09113
#
# Static dielectric constant tensor:
#      x y z
#    x 4.668490 0.000000 0.000000 
#    y 0.000000 4.371900 0.000000 
#    z 0.000000 0.000000 4.397510 
# 
# 
# High freq. dielectric constant tensor:
#      x y z
#    x 2.021120 0.000000 0.000000 
#    y 0.000000 2.014330 0.000000 
#    z 0.000000 0.000000 2.030590 
# 
# From -- ./inp_files/21989.got.cif
#   From: 2010.03.12/outbox.cif.g09.slc.cpg/sg66_11_cif.got.tgz:21989.got - 2010.04.10 21:57:39.
