data_PCOD8277053
_publ_section_title
;
Structure prediction by ZEFSAII (Michael W. Deem and Ramdas Pophale) SiO2 
 PCOD8277053
Probable space group: C C C M
;
_chemical_formula_sum "Si O2"
_cell_formula_units_Z 96
_cell_length_a 23.150134
_cell_length_b 23.993141
_cell_length_c 8.770401
_cell_angle_alpha 90.000000
_cell_angle_beta 90.000000
_cell_angle_gamma 90.000000
_cell_volume 4871.470378
_symmetry_space_group_name_H-M "C C C M"
_symmetry_group_IT_number 66
_symmetry_cell_setting 'orthorhombic'
loop_
_space_group_symop_operation_xyz
x,y,z
-x,-y,z
x,-y,1/2-z
-x,y,1/2-z
-x,-y,-z
x,y,-z
-x,y,1/2+z
x,-y,1/2+z
1/2+x,1/2+y,z
1/2-x,1/2-y,z
1/2+x,1/2-y,1/2-z
1/2-x,1/2+y,1/2-z
1/2-x,1/2-y,-z
1/2+x,1/2+y,-z
1/2-x,1/2+y,1/2+z
1/2+x,1/2-y,1/2+z
loop_
_atom_site_type_symbol
_atom_site_label
_atom_site_fract_x
_atom_site_fract_y
_atom_site_fract_z
Si Si1 0.561214 0.124438 0.679467
Si Si2 0.938211 0.941316 0.180709
Si Si3 0.626521 0.776185 0.322008
Si Si4 0.760452 0.340118 0.171473
Si Si5 0.359527 0.337691 0.822736
Si Si6 0.840879 0.444172 0.826743
O O1 0.500000 0.110249 0.750000
O O2 0.556504 0.124213 0.500000
O O3 0.582341 0.184961 0.732647
O O4 0.604120 0.076268 0.732870
O O5 0.891811 0.894269 0.226869
O O6 0.000000 0.924369 0.250000
O O7 0.916688 0.000000 0.250000
O O8 0.944202 0.947483 0.000000
O O9 0.614809 0.785182 0.500000
O O10 0.693067 0.792429 0.283035
O O11 0.613618 0.713138 0.272971
O O12 0.708380 0.341510 0.289804
O O13 0.789745 0.400011 0.180392
O O14 0.737020 0.328515 0.000000
O O15 0.368950 0.325561 0.000000
O O16 0.816694 0.500000 0.750000
O O17 0.860021 0.454934 0.000000
#
# Coordination Sequence:
#
# PCOD8277053 Si02
#       6
#    16  16  16  16  16  16
#     4  11  22  38  59  83 113 149 189 234 284 334
#     4  10  22  40  60  82 109 142 180 224 275 327
#     4  10  21  38  58  82 114 150 187 230 280 331
#     4   9  20  37  56  80 113 150 186 228 279 330
#     4  11  23  36  56  87 115 144 186 229 274 335
#     4  10  21  38  58  83 114 149 191 236 283 334
#
# _framework density 19.706575999999998
#
# number of rings (size 3 to 8) (size 9 to 14) (size 15 to 20)
#    0.000    1.833    0.000    5.500    0.000   10.333 
#    0.000    6.667    0.000    0.000    0.000    0.000 
#    0.000    0.000    0.000    0.000    0.000    0.000 
#
# Total GULP energy -595391.718120 kJ/mol
# GULP energy per Si atom -12403.994128 kJ/mol
# Density = 1.966172 g / cm^3
# Si number density = 19.706576 Si / 1000 Ang^3
#
#
#
# Elastic Constant Matrix: (Units=GPa)
#
#
# Indices 1 2 3 4 5 6 
#
# 1 36.0262 12.3524 20.0510 0.0000 0.0000 0.0000
# 2 12.3524 111.3582 38.6750 0.0000 0.0000 0.0000
# 3 20.0510 38.6750 116.4446 0.0000 0.0000 0.0000
# 4 0.0000 0.0000 0.0000 36.4831 0.0000 0.0000
# 5 0.0000 0.0000 0.0000 0.0000 31.9139 0.0000
# 6 0.0000 0.0000 0.0000 0.0000 0.0000 17.5052
#
#
#
# Elastic Compliance Matrix: (Units=1/GPa)
#
#
# Indices 1 2 3 4 5 6 
#
# 1 0.031013 -0.001792 -0.004745 0.000000 0.000000 0.000000
# 2 -0.001792 0.010255 -0.003097 0.000000 0.000000 0.000000
# 3 -0.004745 -0.003097 0.010434 0.000000 0.000000 0.000000
# 4 0.000000 0.000000 0.000000 0.027410 0.000000 0.000000
# 5 0.000000 0.000000 0.000000 0.000000 0.031334 0.000000
# 6 0.000000 0.000000 0.000000 0.000000 0.000000 0.057126
#
#
# Mechanical properties :
#
#
# Convention : Reuss Voigt Hill
#
# Bulk Modulus (GPa) = 30.83356 45.10955 37.97155
# Shear Modulus (GPa) = 25.29715 30.03046 27.66381
#
# Velocity S-wave (km/s) = 3.58675 3.90793 3.75078
# Velocity P-wave (km/s) = 5.73004 6.58049 6.16993
#
# Compressibility (1/GPa) = 0.03243220
#
# Stress axis : x y z
#
# Youngs Moduli (GPa) = 32.24452 97.51800 95.84479
#
# Poissons Ratio (x) = 0.17477 0.45478
# Poissons Ratio (y) = 0.05779 0.29686
# Poissons Ratio (z) = 0.15300 0.30204
#
# Static dielectric constant tensor:
#      x y z
#    x 3.588960 0.000000 0.000000 
#    y 0.000000 3.712760 0.000000 
#    z 0.000000 0.000000 3.667800 
# 
# 
# High freq. dielectric constant tensor:
#      x y z
#    x 1.758150 0.000000 0.000000 
#    y 0.000000 1.778980 0.000000 
#    z 0.000000 0.000000 1.779360 
# 
# From -- ./inp_files/9101.got.cif
#   From: 2010.03.12/outbox.cif.g09.slc.cpg/sg66_5_cif.got.tgz:9101.got - 2010.04.10 21:57:39.
