data_PCOD8277152
_publ_section_title
;
Structure prediction by ZEFSAII (Michael W. Deem and Ramdas Pophale) SiO2 
 PCOD8277152
Probable space group: C C C M
;
_chemical_formula_sum "Si O2"
_cell_formula_units_Z 96
_cell_length_a 15.482871
_cell_length_b 18.352500
_cell_length_c 15.092524
_cell_angle_alpha 90.000000
_cell_angle_beta 90.000000
_cell_angle_gamma 90.000000
_cell_volume 4288.531489
_symmetry_space_group_name_H-M "C C C M"
_symmetry_group_IT_number 66
_symmetry_cell_setting 'orthorhombic'
loop_
_space_group_symop_operation_xyz
x,y,z
-x,-y,z
x,-y,1/2-z
-x,y,1/2-z
-x,-y,-z
x,y,-z
-x,y,1/2+z
x,-y,1/2+z
1/2+x,1/2+y,z
1/2-x,1/2-y,z
1/2+x,1/2-y,1/2-z
1/2-x,1/2+y,1/2-z
1/2-x,1/2-y,-z
1/2+x,1/2+y,-z
1/2-x,1/2+y,1/2+z
1/2+x,1/2-y,1/2+z
loop_
_atom_site_type_symbol
_atom_site_label
_atom_site_fract_x
_atom_site_fract_y
_atom_site_fract_z
Si Si1 0.434300 0.059510 0.900047
Si Si2 0.318826 0.693980 0.709950
Si Si3 0.047273 0.278630 0.101595
Si Si4 0.121588 0.197166 0.402523
Si Si5 0.417402 0.536302 0.098842
Si Si6 0.248599 0.536499 0.335790
O O1 0.440984 0.140220 0.856648
O O2 0.333091 0.036920 0.901538
O O3 0.500000 0.000000 0.854864
O O4 0.466977 0.068496 0.000000
O O5 0.250000 0.750000 0.670712
O O6 0.408756 0.718496 0.665622
O O7 0.316151 0.699535 0.817432
O O8 0.292357 0.614559 0.677463
O O9 0.945344 0.263351 0.103124
O O10 0.082930 0.272869 0.000000
O O11 0.169784 0.200500 0.500000
O O12 0.067611 0.122354 0.397808
O O13 0.500000 0.500000 0.148962
O O14 0.324777 0.518470 0.139248
O O15 0.415048 0.504199 0.000000
O O16 0.205958 0.500000 0.250000
#
# Coordination Sequence:
#
# PCOD8277152 Si02
#       6
#    16  16  16  16  16  16
#     4  10  23  45  70  96 130 177 228 281 341 404
#     4  12  24  41  64  95 132 171 218 273 339 400
#     4  10  22  42  68  99 132 171 223 278 339 408
#     4  10  22  42  64  90 126 172 221 268 327 400
#     4  10  21  39  64  93 128 169 213 267 333 400
#     4  12  24  41  63  98 135 174 218 277 334 407
#
# _framework density 22.385286000000001
#
# number of rings (size 3 to 8) (size 9 to 14) (size 15 to 20)
#    0.000    1.333    3.333    2.000    0.000    5.333 
#    3.000    0.000    0.000    0.000    0.000    0.000 
#    0.000    0.000    0.000    0.000    0.000    0.000 
#
# Total GULP energy -594831.376460 kJ/mol
# GULP energy per Si atom -12392.320343 kJ/mol
# Density = 2.233434 g / cm^3
# Si number density = 22.385286 Si / 1000 Ang^3
#
#
#
# Elastic Constant Matrix: (Units=GPa)
#
#
# Indices 1 2 3 4 5 6 
#
# 1 104.7719 33.7201 6.7909 0.0000 0.0000 0.0000
# 2 33.7201 114.3683 9.3500 0.0000 0.0000 0.0000
# 3 6.7909 9.3500 74.0098 0.0000 0.0000 0.0000
# 4 0.0000 0.0000 0.0000 24.8010 0.0000 0.0000
# 5 0.0000 0.0000 0.0000 0.0000 25.8667 0.0000
# 6 0.0000 0.0000 0.0000 0.0000 0.0000 41.8153
#
#
#
# Elastic Compliance Matrix: (Units=1/GPa)
#
#
# Indices 1 2 3 4 5 6 
#
# 1 0.010570 -0.003069 -0.000582 0.000000 0.000000 0.000000
# 2 -0.003069 0.009726 -0.000947 0.000000 0.000000 0.000000
# 3 -0.000582 -0.000947 0.013685 0.000000 0.000000 0.000000
# 4 0.000000 0.000000 0.000000 0.040321 0.000000 0.000000
# 5 0.000000 0.000000 0.000000 0.000000 0.038660 0.000000
# 6 0.000000 0.000000 0.000000 0.000000 0.000000 0.023915
#
#
# Mechanical properties :
#
#
# Convention : Reuss Voigt Hill
#
# Bulk Modulus (GPa) = 40.34793 43.65245 42.00019
# Shear Modulus (GPa) = 32.39731 34.71586 33.55658
#
# Velocity S-wave (km/s) = 3.80841 3.94234 3.87595
# Velocity P-wave (km/s) = 6.11573 6.34551 6.23168
#
# Compressibility (1/GPa) = 0.02478442
#
# Stress axis : x y z
#
# Youngs Moduli (GPa) = 94.60778 102.81805 73.07379
#
# Poissons Ratio (x) = 0.31553 0.04254
# Poissons Ratio (y) = 0.29033 0.06921
# Poissons Ratio (z) = 0.05508 0.09738
#
# Static dielectric constant tensor:
#      x y z
#    x 3.831020 0.000000 0.000000 
#    y 0.000000 4.169570 0.000000 
#    z 0.000000 0.000000 4.067660 
# 
# 
# High freq. dielectric constant tensor:
#      x y z
#    x 1.868230 0.000000 0.000000 
#    y 0.000000 1.893290 0.000000 
#    z 0.000000 0.000000 1.874340 
# 
# From -- ./inp_files/28405.got.cif
#   From: 2010.03.12/outbox.cif.g09.slc.cpg/sg66_15_cif.got.tgz:28405.got - 2010.04.10 21:57:39.
