data_PCOD8277890
_publ_section_title
;
Structure prediction by ZEFSAII (Michael W. Deem and Ramdas Pophale) SiO2 
 PCOD8277890
Probable space group: C C C M
;
_chemical_formula_sum "Si O2"
_cell_formula_units_Z 112
_cell_length_a 21.997069
_cell_length_b 15.989500
_cell_length_c 14.647467
_cell_angle_alpha 90.000000
_cell_angle_beta 90.000000
_cell_angle_gamma 90.000000
_cell_volume 5151.838362
_symmetry_space_group_name_H-M "C C C M"
_symmetry_group_IT_number 66
_symmetry_cell_setting 'orthorhombic'
loop_
_space_group_symop_operation_xyz
x,y,z
-x,-y,z
x,-y,1/2-z
-x,y,1/2-z
-x,-y,-z
x,y,-z
-x,y,1/2+z
x,-y,1/2+z
1/2+x,1/2+y,z
1/2-x,1/2-y,z
1/2+x,1/2-y,1/2-z
1/2-x,1/2+y,1/2-z
1/2-x,1/2-y,-z
1/2+x,1/2+y,-z
1/2-x,1/2+y,1/2+z
1/2+x,1/2-y,1/2+z
loop_
_atom_site_type_symbol
_atom_site_label
_atom_site_fract_x
_atom_site_fract_y
_atom_site_fract_z
Si Si1 0.238311 0.154847 0.896450
Si Si2 0.156525 0.467034 0.845286
Si Si3 0.894913 0.195688 0.104372
Si Si4 0.042871 0.376030 0.894624
Si Si5 0.089607 0.623258 0.898054
Si Si6 0.036180 0.181066 0.898350
Si Si7 0.368973 0.404172 0.771264
O O1 0.250000 0.250000 0.862343
O O2 0.297961 0.095983 0.895067
O O3 0.188970 0.111066 0.834096
O O4 0.214251 0.158644 0.000000
O O5 0.183595 0.500000 0.750000
O O6 0.093113 0.418280 0.829190
O O7 0.140560 0.551398 0.901011
O O8 0.885332 0.290218 0.143776
O O9 0.856440 0.139224 0.173552
O O10 0.964644 0.167154 0.112880
O O11 0.871134 0.184033 0.000000
O O12 0.052331 0.277641 0.884870
O O13 0.976113 0.404039 0.857055
O O14 0.054119 0.405635 0.000000
O O15 0.071407 0.651568 0.000000
O O16 0.070803 0.128379 0.821857
O O17 0.056478 0.152182 0.000000
O O18 0.378261 0.500000 0.750000
#
# Coordination Sequence:
#
# PCOD8277890 Si02
#       7
#    16  16  16  16  16  16  16
#     4  11  26  48  71  89 114 163 225 281 330 378
#     4  12  24  35  57  95 129 163 204 263 322 378
#     4   9  21  40  63  95 132 173 208 248 321 399
#     4   9  18  35  59  90 128 170 211 252 308 378
#     4   9  19  36  59  89 130 172 206 247 311 392
#     4   9  19  38  64  93 129 172 216 259 311 375
#     4  12  25  41  63  95 126 164 214 276 327 378
#
# _framework density 21.739813000000002
#
# number of rings (size 3 to 8) (size 9 to 14) (size 15 to 20)
#    0.000    1.857    0.000    5.571    4.000    6.857 
#    0.000    1.429    0.000    0.429    0.000    0.000 
#    0.000    0.000    0.000    0.000    0.000    0.000 
#
# Total GULP energy -694191.757667 kJ/mol
# GULP energy per Si atom -12396.281387 kJ/mol
# Density = 2.169033 g / cm^3
# Si number density = 21.739813 Si / 1000 Ang^3
#
#
#
# Elastic Constant Matrix: (Units=GPa)
#
#
# Indices 1 2 3 4 5 6 
#
# 1 68.3415 47.8557 22.9961 0.0000 0.0000 0.0000
# 2 47.8557 135.0944 38.8440 0.0000 0.0000 0.0000
# 3 22.9961 38.8440 81.8002 0.0000 0.0000 0.0000
# 4 0.0000 0.0000 0.0000 30.3049 0.0000 0.0000
# 5 0.0000 0.0000 0.0000 0.0000 35.4603 0.0000
# 6 0.0000 0.0000 0.0000 0.0000 0.0000 35.8950
#
#
#
# Elastic Compliance Matrix: (Units=1/GPa)
#
#
# Indices 1 2 3 4 5 6 
#
# 1 0.019928 -0.006310 -0.002606 0.000000 0.000000 0.000000
# 2 -0.006310 0.010571 -0.003246 0.000000 0.000000 0.000000
# 3 -0.002606 -0.003246 0.014499 0.000000 0.000000 0.000000
# 4 0.000000 0.000000 0.000000 0.032998 0.000000 0.000000
# 5 0.000000 0.000000 0.000000 0.000000 0.028201 0.000000
# 6 0.000000 0.000000 0.000000 0.000000 0.000000 0.027859
#
#
# Mechanical properties :
#
#
# Convention : Reuss Voigt Hill
#
# Bulk Modulus (GPa) = 48.36957 56.06973 52.21965
# Shear Modulus (GPa) = 30.25367 32.03472 31.14419
#
# Velocity S-wave (km/s) = 3.73450 3.84285 3.78906
# Velocity P-wave (km/s) = 6.39475 6.74813 6.57382
#
# Compressibility (1/GPa) = 0.02067416
#
# Stress axis : x y z
#
# Youngs Moduli (GPa) = 50.18141 94.60106 68.97128
#
# Poissons Ratio (x) = 0.59692 0.17973
# Poissons Ratio (y) = 0.31664 0.22387
# Poissons Ratio (z) = 0.13077 0.30705
#
# Static dielectric constant tensor:
#      x y z
#    x 3.607270 0.000000 0.000000 
#    y 0.000000 3.883910 0.000000 
#    z 0.000000 0.000000 3.962760 
# 
# 
# High freq. dielectric constant tensor:
#      x y z
#    x 1.826370 0.000000 0.000000 
#    y 0.000000 1.858590 0.000000 
#    z 0.000000 0.000000 1.858170 
# 
# From -- ./inp_files/32461.got.cif
#   From: 2010.03.12/outbox.cif.g09.slc.cpg/sg66_17_cif.got.tgz:32461.got - 2010.04.10 21:57:39.
