data_PCOD8277474
_publ_section_title
;
Structure prediction by ZEFSAII (Michael W. Deem and Ramdas Pophale) SiO2 
 PCOD8277474
Probable space group: C C C M
;
_chemical_formula_sum "Si O2"
_cell_formula_units_Z 36
_cell_length_a 23.328196
_cell_length_b 7.471279
_cell_length_c 8.973623
_cell_angle_alpha 90.000000
_cell_angle_beta 90.000000
_cell_angle_gamma 90.000000
_cell_volume 1564.025862
_symmetry_space_group_name_H-M "C C C M"
_symmetry_group_IT_number 66
_symmetry_cell_setting 'orthorhombic'
loop_
_space_group_symop_operation_xyz
x,y,z
-x,-y,z
x,-y,1/2-z
-x,y,1/2-z
-x,-y,-z
x,y,-z
-x,y,1/2+z
x,-y,1/2+z
1/2+x,1/2+y,z
1/2-x,1/2-y,z
1/2+x,1/2-y,1/2-z
1/2-x,1/2+y,1/2-z
1/2-x,1/2-y,-z
1/2+x,1/2+y,-z
1/2-x,1/2+y,1/2+z
1/2+x,1/2-y,1/2+z
loop_
_atom_site_type_symbol
_atom_site_label
_atom_site_fract_x
_atom_site_fract_y
_atom_site_fract_z
Si Si1 0.826720 0.421921 0.000000
Si Si2 0.422707 0.628557 0.000000
Si Si3 0.828724 0.164947 0.500000
Si Si4 0.747588 0.500000 0.750000
Si Si5 0.500000 0.500000 0.250000
O O1 0.882867 0.301319 0.000000
O O2 0.846156 0.628391 0.000000
O O3 0.788552 0.377184 0.145467
O O4 0.386524 0.446720 0.000000
O O5 0.461616 0.630629 0.147725
O O6 0.791318 0.126077 0.646577
#
# Coordination Sequence:
#
# PCOD8277474 Si02
#       5
#     8   8   8   8   4
#     4  11  27  41  70 105 147 190 230 276 345 432
#     4  11  26  49  77  96 141 186 239 306 358 395
#     4  11  25  43  69 109 148 188 231 274 349 442
#     4  10  23  42  66 110 156 184 221 268 342 442
#     4  10  26  54  74 102 128 184 254 314 358 396
#
# _framework density 23.017520000000001
#
# number of rings (size 3 to 8) (size 9 to 14) (size 15 to 20)
#    0.000    1.333    0.000    4.000   18.667    1.778 
#    0.000    6.667    0.000    0.000    0.000    0.000 
#    0.000    0.000    0.000    0.000    0.000    0.000 
#
# Total GULP energy -223260.888215 kJ/mol
# GULP energy per Si atom -12403.382679 kJ/mol
# Density = 2.296513 g / cm^3
# Si number density = 23.017520 Si / 1000 Ang^3
#
#
#
# Elastic Constant Matrix: (Units=GPa)
#
#
# Indices 1 2 3 4 5 6 
#
# 1 168.8387 81.3441 90.2017 0.0000 0.0000 0.0000
# 2 81.3441 165.3991 58.5786 0.0000 0.0000 0.0000
# 3 90.2017 58.5786 202.3811 0.0000 0.0000 0.0000
# 4 0.0000 0.0000 0.0000 25.3565 0.0000 0.0000
# 5 0.0000 0.0000 0.0000 0.0000 40.6310 0.0000
# 6 0.0000 0.0000 0.0000 0.0000 0.0000 51.9495
#
#
#
# Elastic Compliance Matrix: (Units=1/GPa)
#
#
# Indices 1 2 3 4 5 6 
#
# 1 0.009252 -0.003443 -0.003127 0.000000 0.000000 0.000000
# 2 -0.003443 0.008018 -0.000786 0.000000 0.000000 0.000000
# 3 -0.003127 -0.000786 0.006563 0.000000 0.000000 0.000000
# 4 0.000000 0.000000 0.000000 0.039438 0.000000 0.000000
# 5 0.000000 0.000000 0.000000 0.000000 0.024612 0.000000
# 6 0.000000 0.000000 0.000000 0.000000 0.000000 0.019249
#
#
# Mechanical properties :
#
#
# Convention : Reuss Voigt Hill
#
# Bulk Modulus (GPa) = 109.64971 110.76310 110.20640
# Shear Modulus (GPa) = 40.03733 44.02038 42.02885
#
# Velocity S-wave (km/s) = 4.17517 4.37793 4.27775
# Velocity P-wave (km/s) = 8.42518 8.58957 8.50777
#
# Compressibility (1/GPa) = 0.00911995
#
# Stress axis : x y z
#
# Youngs Moduli (GPa) = 108.08263 124.72589 152.37947
#
# Poissons Ratio (x) = 0.42939 0.47653
# Poissons Ratio (y) = 0.37210 0.11981
# Poissons Ratio (z) = 0.33800 0.09806
#
# Static dielectric constant tensor:
#      x y z
#    x 4.252590 0.000000 0.000000 
#    y 0.000000 3.846270 0.000000 
#    z 0.000000 0.000000 4.721710 
# 
# 
# High freq. dielectric constant tensor:
#      x y z
#    x 1.901750 0.000000 0.000000 
#    y 0.000000 1.903530 0.000000 
#    z 0.000000 0.000000 1.944790 
# 
# From -- ./inp_files/2379.got.cif
#   From: 2010.03.12/outbox.cif.g09.slc.cpg/sg66_2_cif.got.tgz:2379.got - 2010.04.10 21:57:39.
