data_PCOD8277186
_publ_section_title
;
Structure prediction by ZEFSAII (Michael W. Deem and Ramdas Pophale) SiO2 
 PCOD8277186
Probable space group: C C C M
;
_chemical_formula_sum "Si O2"
_cell_formula_units_Z 96
_cell_length_a 20.741528
_cell_length_b 15.772288
_cell_length_c 14.775749
_cell_angle_alpha 90.000000
_cell_angle_beta 90.000000
_cell_angle_gamma 90.000000
_cell_volume 4833.758522
_symmetry_space_group_name_H-M "C C C M"
_symmetry_group_IT_number 66
_symmetry_cell_setting 'orthorhombic'
loop_
_space_group_symop_operation_xyz
x,y,z
-x,-y,z
x,-y,1/2-z
-x,y,1/2-z
-x,-y,-z
x,y,-z
-x,y,1/2+z
x,-y,1/2+z
1/2+x,1/2+y,z
1/2-x,1/2-y,z
1/2+x,1/2-y,1/2-z
1/2-x,1/2+y,1/2-z
1/2-x,1/2-y,-z
1/2+x,1/2+y,-z
1/2-x,1/2+y,1/2+z
1/2+x,1/2-y,1/2+z
loop_
_atom_site_type_symbol
_atom_site_label
_atom_site_fract_x
_atom_site_fract_y
_atom_site_fract_z
Si Si1 0.509091 0.599266 0.148146
Si Si2 0.145186 0.587300 0.643280
Si Si3 0.755910 0.650729 0.000000
Si Si4 0.004375 0.599677 0.600819
Si Si5 0.677948 0.224807 0.000000
Si Si6 0.870254 0.607076 0.655774
Si Si7 0.888198 0.919703 0.000000
Si Si8 0.088749 0.881378 0.000000
O O1 0.500000 0.500000 0.154453
O O2 0.500000 0.638044 0.250000
O O3 0.576343 0.614870 0.092305
O O4 0.452477 0.639574 0.089167
O O5 0.204280 0.624122 0.587884
O O6 0.076171 0.632924 0.623332
O O7 0.137210 0.488531 0.618010
O O8 0.162918 0.608021 0.746509
O O9 0.750000 0.750000 0.000000
O O10 0.685359 0.609883 0.000000
O O11 0.986174 0.629649 0.500000
O O12 0.000000 0.500000 0.611487
O O13 0.946339 0.633865 0.664430
O O14 0.750000 0.250000 0.000000
O O15 0.664741 0.171468 0.089937
O O16 0.646024 0.316261 0.000000
O O17 0.887316 0.021700 0.000000
#
# Coordination Sequence:
#
# PCOD8277186 Si02
#       8
#    16  16   8  16   8  16   8   8
#     4   8  15  37  68  95 116 148 204 259 305 360
#     4  10  21  40  66  89 121 165 201 245 306 370
#     4  12  26  43  59  86 128 164 206 250 300 362
#     4   9  15  31  63  92 115 149 197 247 296 350
#     4  12  26  40  56  87 131 162 201 258 304 352
#     4  10  21  40  63  92 120 159 207 252 299 366
#     4   9  20  40  66  91 123 160 205 248 303 381
#     4   9  20  39  63  91 120 160 200 249 310 360
#
# _framework density 19.860322
#
# number of rings (size 3 to 8) (size 9 to 14) (size 15 to 20)
#    0.000    2.333    1.667    2.000    2.333    2.667 
#   12.000    1.667    0.000    0.000    0.000    0.000 
#    0.000    0.000    0.000    0.000    0.000    0.000 
#
# Total GULP energy -594691.600065 kJ/mol
# GULP energy per Si atom -12389.408335 kJ/mol
# Density = 1.981512 g / cm^3
# Si number density = 19.860322 Si / 1000 Ang^3
#
#
#
# Elastic Constant Matrix: (Units=GPa)
#
#
# Indices 1 2 3 4 5 6 
#
# 1 180.6553 61.6584 83.8026 0.0000 0.0000 0.0000
# 2 61.6584 69.9365 38.1781 0.0000 0.0000 0.0000
# 3 83.8026 38.1781 135.4877 0.0000 0.0000 0.0000
# 4 0.0000 0.0000 0.0000 7.5677 0.0000 0.0000
# 5 0.0000 0.0000 0.0000 0.0000 20.3123 0.0000
# 6 0.0000 0.0000 0.0000 0.0000 0.0000 -54.2881
#
#
#
# Elastic Compliance Matrix: (Units=1/GPa)
#
#
# Indices 1 2 3 4 5 6 
#
# 1 0.009582 -0.006160 -0.004191 0.000000 0.000000 0.000000
# 2 -0.006160 0.020858 -0.002067 0.000000 0.000000 0.000000
# 3 -0.004191 -0.002067 0.010555 0.000000 0.000000 0.000000
# 4 0.000000 0.000000 0.000000 0.132140 0.000000 0.000000
# 5 0.000000 0.000000 0.000000 0.000000 0.049231 0.000000
# 6 0.000000 0.000000 0.000000 0.000000 0.000000 -0.018420
#
#
# Mechanical properties :
#
#
# Convention : Reuss Voigt Hill
#
# Bulk Modulus (GPa) = 61.88485 83.70640 72.79563
# Shear Modulus (GPa) = 21.35210 8.21440 14.78325
#
# Velocity S-wave (km/s) = 3.28245 2.03594 2.73126
# Velocity P-wave (km/s) = 6.75231 6.91128 6.83226
#
# Compressibility (1/GPa) = 0.01615904
#
# Stress axis : x y z
#
# Youngs Moduli (GPa) = 104.36368 47.94310 94.73773
#
# Poissons Ratio (x) = 0.29533 0.39703
# Poissons Ratio (y) = 0.64287 0.19586
# Poissons Ratio (z) = 0.43737 0.09912
#
# Static dielectric constant tensor:
#      x y z
#    x 4.184370 0.000000 0.000000 
#    y 0.000000 4.367450 0.000000 
#    z 0.000000 0.000000 4.032270 
# 
# 
# High freq. dielectric constant tensor:
#      x y z
#    x 1.769380 0.000000 0.000000 
#    y 0.000000 1.746930 0.000000 
#    z 0.000000 0.000000 1.784790 
# 
# From -- ./inp_files/31271.got.cif
#   From: 2010.03.12/outbox.cif.g09.slc.cpg/sg66_16_cif.got.tgz:31271.got - 2010.04.10 21:57:39.
