data_PCOD8277947
_publ_section_title
;
Structure prediction by ZEFSAII (Michael W. Deem and Ramdas Pophale) SiO2 
 PCOD8277947
Probable space group: C M M A
;
_chemical_formula_sum "Si O2"
_cell_formula_units_Z 80
_cell_length_a 8.769420
_cell_length_b 18.885030
_cell_length_c 26.039002
_cell_angle_alpha 90.000000
_cell_angle_beta 90.000000
_cell_angle_gamma 90.000000
_cell_volume 4312.338905
_symmetry_space_group_name_H-M "C M M A"
_symmetry_group_IT_number 67
_symmetry_cell_setting 'orthorhombic'
loop_
_space_group_symop_operation_xyz
x,y,z
-x,1/2-y,z
x,-y,-z
-x,1/2+y,-z
-x,-y,-z
x,1/2+y,-z
-x,y,z
x,1/2-y,z
1/2+x,1/2+y,z
1/2-x,-y,z
1/2+x,1/2-y,-z
1/2-x,y,-z
1/2-x,1/2-y,-z
1/2+x,y,-z
1/2-x,1/2+y,z
1/2+x,-y,z
loop_
_atom_site_type_symbol
_atom_site_label
_atom_site_fract_x
_atom_site_fract_y
_atom_site_fract_z
Si Si1 0.176814 0.423743 0.849596
Si Si2 0.176407 0.923249 0.263894
Si Si3 0.819080 0.078777 0.050866
Si Si4 0.319459 0.075360 0.553636
Si Si5 0.179380 0.830479 0.649113
O O1 0.250000 0.500000 0.844391
O O2 0.200501 0.389467 0.793309
O O3 0.262912 0.382243 0.896406
O O4 0.000000 0.430055 0.864248
O O5 0.244606 0.866731 0.302326
O O6 0.000000 0.934077 0.275817
O O7 0.250000 0.000000 0.271174
O O8 0.000000 0.077667 0.047485
O O9 0.750000 0.000000 0.052982
O O10 0.750000 0.117063 0.000000
O O11 0.500000 0.067835 0.548116
O O12 0.250000 0.102298 0.500000
O O13 0.270706 0.131249 0.596758
O O14 0.250000 0.000000 0.569491
O O15 0.236867 0.750000 0.645743
O O16 0.000000 0.835039 0.656799
#
# Coordination Sequence:
#
# PCOD8277947 Si02
#       5
#    16  16  16  16  16
#     4   9  16  26  39  59  86 116 155 199 242 290
#     4  10  20  33  52  75  99 131 170 212 255 302
#     4  10  16  22  33  51  79 116 154 192 239 292
#     4  10  20  35  56  80 105 134 169 207 248 294
#     4  10  22  38  54  75 105 137 169 209 255 301
#
# _framework density 18.551418000000002
#
# number of rings (size 3 to 8) (size 9 to 14) (size 15 to 20)
#    0.000    2.200    0.000    6.600    0.000    6.400 
#    0.000    0.000    0.000    0.000    0.000    0.000 
#    0.000    0.800    0.000    2.600    0.000   10.400 
#
# Total GULP energy -495742.409424 kJ/mol
# GULP energy per Si atom -12393.560236 kJ/mol
# Density = 1.850919 g / cm^3
# Si number density = 18.551418 Si / 1000 Ang^3
#
#
#
# Elastic Constant Matrix: (Units=GPa)
#
#
# Indices 1 2 3 4 5 6 
#
# 1 104.3772 35.8234 73.7019 0.0000 0.0000 0.0000
# 2 35.8234 76.7627 74.4760 0.0000 0.0000 0.0000
# 3 73.7019 74.4760 185.2885 0.0000 0.0000 0.0000
# 4 0.0000 0.0000 0.0000 -10.6338 0.0000 0.0000
# 5 0.0000 0.0000 0.0000 0.0000 39.0229 0.0000
# 6 0.0000 0.0000 0.0000 0.0000 0.0000 16.2852
#
#
#
# Elastic Compliance Matrix: (Units=1/GPa)
#
#
# Indices 1 2 3 4 5 6 
#
# 1 0.013470 -0.001783 -0.004641 0.000000 0.000000 0.000000
# 2 -0.001783 0.021591 -0.007969 0.000000 0.000000 0.000000
# 3 -0.004641 -0.007969 0.010446 0.000000 0.000000 0.000000
# 4 0.000000 0.000000 0.000000 -0.094039 0.000000 0.000000
# 5 0.000000 0.000000 0.000000 0.000000 0.025626 0.000000
# 6 0.000000 0.000000 0.000000 0.000000 0.000000 0.061405
#
#
# Mechanical properties :
#
#
# Convention : Reuss Voigt Hill
#
# Bulk Modulus (GPa) = 59.80785 81.60344 70.70564
# Shear Modulus (GPa) = 68.62528 21.09667 44.86098
#
# Velocity S-wave (km/s) = 6.08870 3.37590 4.92285
# Velocity P-wave (km/s) = 9.04094 7.69927 8.39695
#
# Compressibility (1/GPa) = 0.01672021
#
# Stress axis : x y z
#
# Youngs Moduli (GPa) = 74.24030 46.31541 95.72815
#
# Poissons Ratio (x) = 0.08259 0.44428
# Poissons Ratio (y) = 0.13238 0.76287
# Poissons Ratio (z) = 0.34456 0.36909
#
# Static dielectric constant tensor:
#      x y z
#    x 3.506670 0.000000 0.000000 
#    y 0.000000 2.921500 0.000000 
#    z 0.000000 0.000000 4.592350 
# 
# 
# High freq. dielectric constant tensor:
#      x y z
#    x 1.735280 0.000000 0.000000 
#    y 0.000000 1.650670 0.000000 
#    z 0.000000 0.000000 1.753930 
# 
# From -- ./inp_files/43211.got.cif
#   From: 2010.03.12/outbox.cif.g09.slc.cpg/sg67_22_cif.got.tgz:43211.got - 2010.04.10 22:41:39.
