data_PCOD8277138
_publ_section_title
;
Structure prediction by ZEFSAII (Michael W. Deem and Ramdas Pophale) SiO2 
 PCOD8277138
Probable space group: C C C M
;
_chemical_formula_sum "Si O2"
_cell_formula_units_Z 64
_cell_length_a 18.299831
_cell_length_b 9.038614
_cell_length_c 19.923533
_cell_angle_alpha 90.000000
_cell_angle_beta 90.000000
_cell_angle_gamma 90.000000
_cell_volume 3295.454141
_symmetry_space_group_name_H-M "C C C M"
_symmetry_group_IT_number 66
_symmetry_cell_setting 'orthorhombic'
loop_
_space_group_symop_operation_xyz
x,y,z
-x,-y,z
x,-y,1/2-z
-x,y,1/2-z
-x,-y,-z
x,y,-z
-x,y,1/2+z
x,-y,1/2+z
1/2+x,1/2+y,z
1/2-x,1/2-y,z
1/2+x,1/2-y,1/2-z
1/2-x,1/2+y,1/2-z
1/2-x,1/2-y,-z
1/2+x,1/2+y,-z
1/2-x,1/2+y,1/2+z
1/2+x,1/2-y,1/2+z
loop_
_atom_site_type_symbol
_atom_site_label
_atom_site_fract_x
_atom_site_fract_y
_atom_site_fract_z
Si Si1 0.902577 0.902434 0.500000
Si Si2 0.579168 0.067019 0.622748
Si Si3 0.319726 0.165526 0.235043
Si Si4 0.833579 0.723128 0.616476
Si Si5 0.562713 0.283302 0.500000
O O1 0.874039 0.839797 0.570250
O O2 0.986386 0.863464 0.500000
O O3 0.882035 0.077276 0.500000
O O4 0.610770 0.158339 0.685962
O O5 0.572000 0.182682 0.564111
O O6 0.500000 0.000000 0.641806
O O7 0.636259 0.940801 0.599249
O O8 0.250000 0.250000 0.202818
O O9 0.345270 0.248536 0.303550
O O10 0.292072 0.000000 0.250000
O O11 0.750000 0.750000 0.597377
#
# Coordination Sequence:
#
# PCOD8277138 Si02
#       5
#     8  16  16  16   8
#     4  11  22  41  58  87 126 160 200 253 313 356
#     4  11  21  40  65  91 120 161 208 249 300 367
#     4   9  21  38  61  92 123 157 196 253 305 361
#     4  10  21  39  63  89 122 160 198 249 311 365
#     4  11  24  38  60  88 123 160 202 262 301 351
#
# _framework density 19.420691999999999
#
# number of rings (size 3 to 8) (size 9 to 14) (size 15 to 20)
#    0.000    1.750    2.500    1.500    0.000   10.500 
#    0.000    1.875    0.000    3.000    0.000    0.000 
#    0.000    0.000    0.000    0.000    0.000    0.000 
#
# Total GULP energy -396564.973578 kJ/mol
# GULP energy per Si atom -12392.655424 kJ/mol
# Density = 1.937649 g / cm^3
# Si number density = 19.420692 Si / 1000 Ang^3
#
#
#
# Elastic Constant Matrix: (Units=GPa)
#
#
# Indices 1 2 3 4 5 6 
#
# 1 105.7616 71.8444 65.9730 0.0000 0.0000 0.0000
# 2 71.8444 91.7471 70.8426 0.0000 0.0000 0.0000
# 3 65.9730 70.8426 128.7812 0.0000 0.0000 0.0000
# 4 0.0000 0.0000 0.0000 24.5130 0.0000 0.0000
# 5 0.0000 0.0000 0.0000 0.0000 150.4759 0.0000
# 6 0.0000 0.0000 0.0000 0.0000 0.0000 33.7319
#
#
#
# Elastic Compliance Matrix: (Units=1/GPa)
#
#
# Indices 1 2 3 4 5 6 
#
# 1 0.020827 -0.014030 -0.002952 0.000000 0.000000 0.000000
# 2 -0.014030 0.028399 -0.008435 0.000000 0.000000 0.000000
# 3 -0.002952 -0.008435 0.013917 0.000000 0.000000 0.000000
# 4 0.000000 0.000000 0.000000 0.040795 0.000000 0.000000
# 5 0.000000 0.000000 0.000000 0.000000 0.006646 0.000000
# 6 0.000000 0.000000 0.000000 0.000000 0.000000 0.029646
#
#
# Mechanical properties :
#
#
# Convention : Reuss Voigt Hill
#
# Bulk Modulus (GPa) = 81.23242 82.62336 81.92789
# Shear Modulus (GPa) = 25.61932 49.58615 37.60273
#
# Velocity S-wave (km/s) = 3.63599 5.05846 4.40502
# Velocity P-wave (km/s) = 7.71659 8.76092 8.25529
#
# Compressibility (1/GPa) = 0.01231036
#
# Stress axis : x y z
#
# Youngs Moduli (GPa) = 48.01466 35.21249 71.85355
#
# Poissons Ratio (x) = 0.49403 0.21208
# Poissons Ratio (y) = 0.67364 0.60608
# Poissons Ratio (z) = 0.14172 0.29702
#
# Static dielectric constant tensor:
#      x y z
#    x 3.806920 0.000000 0.000000 
#    y 0.000000 3.964540 0.000000 
#    z 0.000000 0.000000 3.726320 
# 
# 
# High freq. dielectric constant tensor:
#      x y z
#    x 1.755970 0.000000 0.000000 
#    y 0.000000 1.754760 0.000000 
#    z 0.000000 0.000000 1.763150 
# 
# From -- ./inp_files/42405.got.cif
#   From: 2010.03.12/outbox.cif.g09.slc.cpg/sg66_22_cif.got.tgz:42405.got - 2010.04.10 21:57:39.
