data_PCOD8277667
_publ_section_title
;
Structure prediction by ZEFSAII (Michael W. Deem and Ramdas Pophale) SiO2 
 PCOD8277667
Probable space group: C C C M
;
_chemical_formula_sum "Si O2"
_cell_formula_units_Z 80
_cell_length_a 10.741456
_cell_length_b 22.869022
_cell_length_c 14.789553
_cell_angle_alpha 90.000000
_cell_angle_beta 90.000000
_cell_angle_gamma 90.000000
_cell_volume 3633.003315
_symmetry_space_group_name_H-M "C C C M"
_symmetry_group_IT_number 66
_symmetry_cell_setting 'orthorhombic'
loop_
_space_group_symop_operation_xyz
x,y,z
-x,-y,z
x,-y,1/2-z
-x,y,1/2-z
-x,-y,-z
x,y,-z
-x,y,1/2+z
x,-y,1/2+z
1/2+x,1/2+y,z
1/2-x,1/2-y,z
1/2+x,1/2-y,1/2-z
1/2-x,1/2+y,1/2-z
1/2-x,1/2-y,-z
1/2+x,1/2+y,-z
1/2-x,1/2+y,1/2+z
1/2+x,1/2-y,1/2+z
loop_
_atom_site_type_symbol
_atom_site_label
_atom_site_fract_x
_atom_site_fract_y
_atom_site_fract_z
Si Si1 0.248079 0.872568 0.602853
Si Si2 0.739969 0.392464 0.896791
Si Si3 0.633193 0.511733 0.892688
Si Si4 0.850543 0.201301 0.240754
Si Si5 0.500714 0.067644 0.856554
O O1 0.210503 0.857580 0.500000
O O2 0.206751 0.817731 0.662830
O O3 0.390347 0.892479 0.605880
O O4 0.176619 0.927167 0.647831
O O5 0.718919 0.458565 0.861595
O O6 0.660775 0.348598 0.835222
O O7 0.888133 0.389937 0.889548
O O8 0.694101 0.382640 0.000000
O O9 0.500000 0.500000 0.850822
O O10 0.632277 0.517615 0.000000
O O11 0.750000 0.250000 0.207981
O O12 0.000000 0.219118 0.250000
O O13 0.500000 0.064247 0.750000
O O14 0.500000 0.000000 0.895418
#
# Coordination Sequence:
#
# PCOD8277667 Si02
#       5
#    16  16  16  16  16
#     4  11  23  42  70 101 139 180 223 279 343 413
#     4  11  23  42  70 101 139 180 223 279 343 413
#     4   9  18  34  61  98 135 170 210 263 334 413
#     4  12  30  51  72  97 133 178 236 298 347 408
#     4  11  21  37  67 110 151 187 224 269 337 415
#
# _framework density 22.020349
#
# number of rings (size 3 to 8) (size 9 to 14) (size 15 to 20)
#    0.000    1.200    4.000    1.800    2.800    4.800 
#    0.000    2.000    0.000    0.000    0.000    0.000 
#    0.000    0.000    0.000    0.000    0.000    0.000 
#
# Total GULP energy -495550.193720 kJ/mol
# GULP energy per Si atom -12388.754843 kJ/mol
# Density = 2.197023 g / cm^3
# Si number density = 22.020349 Si / 1000 Ang^3
#
#
#
# Elastic Constant Matrix: (Units=GPa)
#
#
# Indices 1 2 3 4 5 6 
#
# 1 130.4836 8.1183 -8.3321 0.0000 0.0000 0.0000
# 2 8.1183 49.0834 15.2624 0.0000 0.0000 0.0000
# 3 -8.3321 15.2624 89.1443 0.0000 0.0000 0.0000
# 4 0.0000 0.0000 0.0000 27.7541 0.0000 0.0000
# 5 0.0000 0.0000 0.0000 0.0000 -9.8617 0.0000
# 6 0.0000 0.0000 0.0000 0.0000 0.0000 39.6359
#
#
#
# Elastic Compliance Matrix: (Units=1/GPa)
#
#
# Indices 1 2 3 4 5 6 
#
# 1 0.007828 -0.001608 0.001007 0.000000 0.000000 0.000000
# 2 -0.001608 0.021849 -0.003891 0.000000 0.000000 0.000000
# 3 0.001007 -0.003891 0.011978 0.000000 0.000000 0.000000
# 4 0.000000 0.000000 0.000000 0.036031 0.000000 0.000000
# 5 0.000000 0.000000 0.000000 0.000000 -0.101403 0.000000
# 6 0.000000 0.000000 0.000000 0.000000 0.000000 0.025230
#
#
# Mechanical properties :
#
#
# Convention : Reuss Voigt Hill
#
# Bulk Modulus (GPa) = 30.60771 33.20096 31.90433
# Shear Modulus (GPa) = 233.77757 28.41651 131.09704
#
# Velocity S-wave (km/s) = 10.31479 3.59620 7.72423
# Velocity P-wave (km/s) = 12.48157 5.68803 9.69906
#
# Compressibility (1/GPa) = 0.03267151
#
# Stress axis : x y z
#
# Youngs Moduli (GPa) = 127.74435 45.76795 83.48582
#
# Poissons Ratio (x) = 0.07359 -0.08407
# Poissons Ratio (y) = 0.20540 0.32485
# Poissons Ratio (z) = -0.12863 0.17809
#
# Static dielectric constant tensor:
#      x y z
#    x 4.395320 0.000000 0.000000 
#    y 0.000000 3.862040 0.000000 
#    z 0.000000 0.000000 3.801410 
# 
# 
# High freq. dielectric constant tensor:
#      x y z
#    x 1.881950 0.000000 0.000000 
#    y 0.000000 1.841480 0.000000 
#    z 0.000000 0.000000 1.866470 
# 
# From -- ./inp_files/26420.got.cif
#   From: 2010.03.12/outbox.cif.g09.slc.cpg/sg66_14_cif.got.tgz:26420.got - 2010.04.10 21:57:39.
