data_PCOD8277013
_publ_section_title
;
Structure prediction by ZEFSAII (Michael W. Deem and Ramdas Pophale) SiO2 
 PCOD8277013
Probable space group: C C C M
;
_chemical_formula_sum "Si O2"
_cell_formula_units_Z 96
_cell_length_a 20.397037
_cell_length_b 27.453474
_cell_length_c 8.774523
_cell_angle_alpha 90.000000
_cell_angle_beta 90.000000
_cell_angle_gamma 90.000000
_cell_volume 4913.465476
_symmetry_space_group_name_H-M "C C C M"
_symmetry_group_IT_number 66
_symmetry_cell_setting 'orthorhombic'
loop_
_space_group_symop_operation_xyz
x,y,z
-x,-y,z
x,-y,1/2-z
-x,y,1/2-z
-x,-y,-z
x,y,-z
-x,y,1/2+z
x,-y,1/2+z
1/2+x,1/2+y,z
1/2-x,1/2-y,z
1/2+x,1/2-y,1/2-z
1/2-x,1/2+y,1/2-z
1/2-x,1/2-y,-z
1/2+x,1/2+y,-z
1/2-x,1/2+y,1/2+z
1/2+x,1/2-y,1/2+z
loop_
_atom_site_type_symbol
_atom_site_label
_atom_site_fract_x
_atom_site_fract_y
_atom_site_fract_z
Si Si1 0.684838 0.553017 0.320067
Si Si2 0.931375 0.885202 0.819573
Si Si3 0.432703 0.725730 0.678257
Si Si4 0.430767 0.051585 0.180163
Si Si5 0.816505 0.391602 0.175780
Si Si6 0.813667 0.278625 0.823649
O O1 0.686621 0.500000 0.250000
O O2 0.675275 0.550249 0.500000
O O3 0.625296 0.582220 0.248828
O O4 0.752127 0.579289 0.274581
O O5 0.917779 0.829512 0.769194
O O6 0.000000 0.903313 0.750000
O O7 0.933600 0.891385 0.000000
O O8 0.500000 0.744999 0.750000
O O9 0.441252 0.728581 0.500000
O O10 0.375487 0.761358 0.728499
O O11 0.500000 0.068326 0.250000
O O12 0.376935 0.091875 0.220238
O O13 0.408479 0.000000 0.250000
O O14 0.437885 0.046322 0.000000
O O15 0.801957 0.335286 0.206586
O O16 0.834438 0.401399 0.000000
O O17 0.750000 0.250000 0.764360
O O18 0.826799 0.266912 0.000000
#
# Coordination Sequence:
#
# PCOD8277013 Si02
#       6
#    16  16  16  16  16  16
#     4  11  23  39  60  85 115 150 189 234 284 338
#     4  10  21  38  60  86 116 150 190 234 282 336
#     4  10  21  37  59  86 116 151 190 234 282 335
#     4  11  22  38  61  86 115 150 189 233 283 338
#     4  10  22  39  59  85 116 150 190 235 283 336
#     4  10  21  38  60  85 115 151 190 234 284 337
#
# _framework density 19.538143999999999
#
# number of rings (size 3 to 8) (size 9 to 14) (size 15 to 20)
#    0.000    1.667    0.000    5.000    0.000    8.000 
#    0.000    1.667    0.000    0.000    0.000    0.000 
#    0.000    0.000    0.000    0.000    0.000    0.000 
#
# Total GULP energy -595494.780036 kJ/mol
# GULP energy per Si atom -12406.141251 kJ/mol
# Density = 1.949367 g / cm^3
# Si number density = 19.538144 Si / 1000 Ang^3
#
#
#
# Elastic Constant Matrix: (Units=GPa)
#
#
# Indices 1 2 3 4 5 6 
#
# 1 172.4186 108.5006 69.3968 0.0000 0.0000 0.0000
# 2 108.5006 159.3231 62.3935 0.0000 0.0000 0.0000
# 3 69.3968 62.3935 103.0599 0.0000 0.0000 0.0000
# 4 0.0000 0.0000 0.0000 36.1566 0.0000 0.0000
# 5 0.0000 0.0000 0.0000 0.0000 36.0714 0.0000
# 6 0.0000 0.0000 0.0000 0.0000 0.0000 33.0384
#
#
#
# Elastic Compliance Matrix: (Units=1/GPa)
#
#
# Indices 1 2 3 4 5 6 
#
# 1 0.011196 -0.006124 -0.003831 0.000000 0.000000 0.000000
# 2 -0.006124 0.011577 -0.002885 0.000000 0.000000 0.000000
# 3 -0.003831 -0.002885 0.014030 0.000000 0.000000 0.000000
# 4 0.000000 0.000000 0.000000 0.027658 0.000000 0.000000
# 5 0.000000 0.000000 0.000000 0.000000 0.027723 0.000000
# 6 0.000000 0.000000 0.000000 0.000000 0.000000 0.030268
#
#
# Mechanical properties :
#
#
# Convention : Reuss Voigt Hill
#
# Bulk Modulus (GPa) = 89.91590 101.70927 95.81258
# Shear Modulus (GPa) = 32.92988 34.02065 33.47526
#
# Velocity S-wave (km/s) = 4.10983 4.17735 4.14373
# Velocity P-wave (km/s) = 8.28502 8.68543 8.48759
#
# Compressibility (1/GPa) = 0.01112150
#
# Stress axis : x y z
#
# Youngs Moduli (GPa) = 89.32112 86.37914 71.27801
#
# Poissons Ratio (x) = 0.52898 0.27308
# Poissons Ratio (y) = 0.54700 0.20565
# Poissons Ratio (z) = 0.34221 0.24921
#
# Static dielectric constant tensor:
#      x y z
#    x 3.693360 0.000000 0.000000 
#    y 0.000000 3.583300 0.000000 
#    z 0.000000 0.000000 3.610310 
# 
# 
# High freq. dielectric constant tensor:
#      x y z
#    x 1.774590 0.000000 0.000000 
#    y 0.000000 1.763390 0.000000 
#    z 0.000000 0.000000 1.767780 
# 
# From -- ./inp_files/8007.got.cif
#   From: 2010.03.12/outbox.cif.g09.slc.cpg/sg66_5_cif.got.tgz:8007.got - 2010.04.10 21:57:39.
