data_PCOD8277677
_publ_section_title
;
Structure prediction by ZEFSAII (Michael W. Deem and Ramdas Pophale) SiO2 
 PCOD8277677
Probable space group: C C C M
;
_chemical_formula_sum "Si O2"
_cell_formula_units_Z 48
_cell_length_a 9.386009
_cell_length_b 16.951679
_cell_length_c 13.665984
_cell_angle_alpha 90.000000
_cell_angle_beta 90.000000
_cell_angle_gamma 90.000000
_cell_volume 2174.375741
_symmetry_space_group_name_H-M "C C C M"
_symmetry_group_IT_number 66
_symmetry_cell_setting 'orthorhombic'
loop_
_space_group_symop_operation_xyz
x,y,z
-x,-y,z
x,-y,1/2-z
-x,y,1/2-z
-x,-y,-z
x,y,-z
-x,y,1/2+z
x,-y,1/2+z
1/2+x,1/2+y,z
1/2-x,1/2-y,z
1/2+x,1/2-y,1/2-z
1/2-x,1/2+y,1/2-z
1/2-x,1/2-y,-z
1/2+x,1/2+y,-z
1/2-x,1/2+y,1/2+z
1/2+x,1/2-y,1/2+z
loop_
_atom_site_type_symbol
_atom_site_label
_atom_site_fract_x
_atom_site_fract_y
_atom_site_fract_z
Si Si1 0.903843 0.920987 0.000000
Si Si2 0.151809 0.464648 0.500000
Si Si3 0.353418 0.912544 0.210476
Si Si4 0.130530 0.813887 0.683519
O O1 0.930886 0.863923 0.907464
O O2 0.000000 0.000000 0.000000
O O3 0.746168 0.956154 0.000000
O O4 0.166037 0.408882 0.406152
O O5 0.000000 0.500000 0.500000
O O6 0.500000 0.871495 0.250000
O O7 0.211530 0.872770 0.246235
O O8 0.354641 0.000000 0.250000
O O9 0.250000 0.750000 0.649028
O O10 0.000000 0.778931 0.750000
#
# Coordination Sequence:
#
# PCOD8277677 Si02
#       4
#     8   8  16  16
#     4  12  25  43  73 104 134 180 244 301 352 423
#     4  12  20  35  65 102 131 175 231 291 341 420
#     4  11  21  39  66 100 136 180 233 293 355 427
#     4  12  27  46  68  98 143 186 233 294 365 423
#
# _framework density 22.075299999999999
#
# number of rings (size 3 to 8) (size 9 to 14) (size 15 to 20)
#    0.000    0.333    6.667    3.500    0.000    0.000 
#    0.000    6.667    0.000    0.000    0.000    0.000 
#    0.000    0.000    0.000    0.000    0.000    0.000 
#
# Total GULP energy -297375.811707 kJ/mol
# GULP energy per Si atom -12390.658821 kJ/mol
# Density = 2.202506 g / cm^3
# Si number density = 22.075300 Si / 1000 Ang^3
#
#
#
# Elastic Constant Matrix: (Units=GPa)
#
#
# Indices 1 2 3 4 5 6 
#
# 1 112.4363 38.9977 29.0880 0.0000 0.0000 0.0000
# 2 38.9977 91.3139 49.9154 0.0000 0.0000 0.0000
# 3 29.0880 49.9154 190.7590 0.0000 0.0000 0.0000
# 4 0.0000 0.0000 0.0000 33.5765 0.0000 0.0000
# 5 0.0000 0.0000 0.0000 0.0000 30.3985 0.0000
# 6 0.0000 0.0000 0.0000 0.0000 0.0000 47.7474
#
#
#
# Elastic Compliance Matrix: (Units=1/GPa)
#
#
# Indices 1 2 3 4 5 6 
#
# 1 0.010481 -0.004204 -0.000498 0.000000 0.000000 0.000000
# 2 -0.004204 0.014465 -0.003144 0.000000 0.000000 0.000000
# 3 -0.000498 -0.003144 0.006141 0.000000 0.000000 0.000000
# 4 0.000000 0.000000 0.000000 0.029783 0.000000 0.000000
# 5 0.000000 0.000000 0.000000 0.000000 0.032896 0.000000
# 6 0.000000 0.000000 0.000000 0.000000 0.000000 0.020944
#
#
# Mechanical properties :
#
#
# Convention : Reuss Voigt Hill
#
# Bulk Modulus (GPa) = 64.95650 70.05681 67.50666
# Shear Modulus (GPa) = 36.89133 40.77836 38.83484
#
# Velocity S-wave (km/s) = 4.09242 4.30261 4.19883
# Velocity P-wave (km/s) = 7.19856 7.51582 7.35890
#
# Compressibility (1/GPa) = 0.01539492
#
# Stress axis : x y z
#
# Youngs Moduli (GPa) = 95.41211 69.13139 162.84309
#
# Poissons Ratio (x) = 0.29061 0.08113
# Poissons Ratio (y) = 0.40109 0.51199
# Poissons Ratio (z) = 0.04753 0.21735
#
# Static dielectric constant tensor:
#      x y z
#    x 14.257990 0.000000 0.000000 
#    y 0.000000 2.990100 0.000000 
#    z 0.000000 0.000000 4.147430 
# 
# 
# High freq. dielectric constant tensor:
#      x y z
#    x 1.886280 0.000000 0.000000 
#    y 0.000000 1.856030 0.000000 
#    z 0.000000 0.000000 1.877870 
# 
# From -- ./inp_files/23567.got.cif
#   From: 2010.03.12/outbox.cif.g09.slc.cpg/sg66_12_cif.got.tgz:23567.got - 2010.04.10 21:57:39.
