data_PCOD8277193
_publ_section_title
;
Structure prediction by ZEFSAII (Michael W. Deem and Ramdas Pophale) SiO2 
 PCOD8277193
Probable space group: C C C M
;
_chemical_formula_sum "Si O2"
_cell_formula_units_Z 112
_cell_length_a 24.572099
_cell_length_b 14.143375
_cell_length_c 14.435256
_cell_angle_alpha 90.000000
_cell_angle_beta 90.000000
_cell_angle_gamma 90.000000
_cell_volume 5016.719317
_symmetry_space_group_name_H-M "C C C M"
_symmetry_group_IT_number 66
_symmetry_cell_setting 'orthorhombic'
loop_
_space_group_symop_operation_xyz
x,y,z
-x,-y,z
x,-y,1/2-z
-x,y,1/2-z
-x,-y,-z
x,y,-z
-x,y,1/2+z
x,-y,1/2+z
1/2+x,1/2+y,z
1/2-x,1/2-y,z
1/2+x,1/2-y,1/2-z
1/2-x,1/2+y,1/2-z
1/2-x,1/2-y,-z
1/2+x,1/2+y,-z
1/2-x,1/2+y,1/2+z
1/2+x,1/2-y,1/2+z
loop_
_atom_site_type_symbol
_atom_site_label
_atom_site_fract_x
_atom_site_fract_y
_atom_site_fract_z
Si Si1 0.637572 0.605828 0.232207
Si Si2 0.463762 0.590632 0.602835
Si Si3 0.189590 0.757834 0.609106
Si Si4 0.686867 0.262757 0.107558
Si Si5 0.105310 0.393165 0.107006
Si Si6 0.392798 0.899482 0.105206
Si Si7 0.497246 0.217631 0.352593
O O1 0.656294 0.500000 0.250000
O O2 0.576037 0.607705 0.191028
O O3 0.671813 0.640654 0.145008
O O4 0.651750 0.667777 0.324641
O O5 0.500000 0.500000 0.627554
O O6 0.436149 0.574788 0.500000
O O7 0.500241 0.685480 0.588773
O O8 0.186448 0.756580 0.500000
O O9 0.250000 0.750000 0.647537
O O10 0.149943 0.677266 0.653378
O O11 0.750000 0.250000 0.136479
O O12 0.663257 0.156946 0.117223
O O13 0.681304 0.298108 0.000000
O O14 0.110452 0.497088 0.153986
O O15 0.044845 0.354146 0.119161
O O16 0.120922 0.399073 0.000000
O O17 0.440690 0.836144 0.144085
O O18 0.407828 0.919697 0.000000
O O19 0.500000 0.254768 0.250000
#
# Coordination Sequence:
#
# PCOD8277193 Si02
#       7
#    16  16  16  16  16  16  16
#     4  12  26  43  68 100 139 182 236 292 346 416
#     4  11  26  44  68  98 137 190 238 290 357 422
#     4  10  22  43  71 102 135 176 228 284 350 416
#     4  10  24  48  72  99 140 186 234 288 354 425
#     4  10  21  40  64  92 130 170 214 279 346 410
#     4  10  22  39  64  95 126 171 224 276 340 417
#     4  12  24  39  63  94 135 171 221 281 345 420
#
# _framework density 22.325346
#
# number of rings (size 3 to 8) (size 9 to 14) (size 15 to 20)
#    0.000    1.286    1.429    3.429    4.000    4.571 
#    0.000    2.857    0.000    0.429    0.000    0.000 
#    0.000    0.000    0.000    0.000    0.000    0.000 
#
# Total GULP energy -693758.596845 kJ/mol
# GULP energy per Si atom -12388.546372 kJ/mol
# Density = 2.227453 g / cm^3
# Si number density = 22.325346 Si / 1000 Ang^3
#
#
#
# Elastic Constant Matrix: (Units=GPa)
#
#
# Indices 1 2 3 4 5 6 
#
# 1 141.3153 67.5859 35.1960 0.0000 0.0000 0.0000
# 2 67.5859 176.0352 28.3689 0.0000 0.0000 0.0000
# 3 35.1960 28.3689 80.5212 0.0000 0.0000 0.0000
# 4 0.0000 0.0000 0.0000 37.4588 0.0000 0.0000
# 5 0.0000 0.0000 0.0000 0.0000 -6.7146 0.0000
# 6 0.0000 0.0000 0.0000 0.0000 0.0000 25.4925
#
#
#
# Elastic Compliance Matrix: (Units=1/GPa)
#
#
# Indices 1 2 3 4 5 6 
#
# 1 0.009295 -0.003089 -0.002974 0.000000 0.000000 0.000000
# 2 -0.003089 0.007049 -0.001133 0.000000 0.000000 0.000000
# 3 -0.002974 -0.001133 0.014118 0.000000 0.000000 0.000000
# 4 0.000000 0.000000 0.000000 0.026696 0.000000 0.000000
# 5 0.000000 0.000000 0.000000 0.000000 -0.148928 0.000000
# 6 0.000000 0.000000 0.000000 0.000000 0.000000 0.039227
#
#
# Mechanical properties :
#
#
# Convention : Reuss Voigt Hill
#
# Bulk Modulus (GPa) = 62.23249 73.35260 67.79254
# Shear Modulus (GPa) = -152.47150 29.02875 -61.72137
#
# Velocity S-wave (km/s) = -8.27306 3.60982 -5.26368
# Velocity P-wave (km/s) = 7.95753 7.09239 2.55150
#
# Compressibility (1/GPa) = 0.01606878
#
# Stress axis : x y z
#
# Youngs Moduli (GPa) = 107.58930 141.85678 70.82928
#
# Poissons Ratio (x) = 0.43822 0.21067
# Poissons Ratio (y) = 0.33236 0.08027
# Poissons Ratio (z) = 0.32001 0.16077
#
# Static dielectric constant tensor:
#      x y z
#    x 3.992790 0.000000 0.000000 
#    y 0.000000 4.420860 0.000000 
#    z 0.000000 0.000000 4.216140 
# 
# 
# High freq. dielectric constant tensor:
#      x y z
#    x 1.870980 0.000000 0.000000 
#    y 0.000000 1.887460 0.000000 
#    z 0.000000 0.000000 1.892300 
# 
# From -- ./inp_files/32434.got.cif
#   From: 2010.03.12/outbox.cif.g09.slc.cpg/sg66_17_cif.got.tgz:32434.got - 2010.04.10 21:57:39.
