data_PCOD8277235
_publ_section_title
;
Structure prediction by ZEFSAII (Michael W. Deem and Ramdas Pophale) SiO2 
 PCOD8277235
Probable space group: C C C M
;
_chemical_formula_sum "Si O2"
_cell_formula_units_Z 88
_cell_length_a 20.506941
_cell_length_b 14.811449
_cell_length_c 14.016720
_cell_angle_alpha 90.000000
_cell_angle_beta 90.000000
_cell_angle_gamma 90.000000
_cell_volume 4257.403642
_symmetry_space_group_name_H-M "C C C M"
_symmetry_group_IT_number 66
_symmetry_cell_setting 'orthorhombic'
loop_
_space_group_symop_operation_xyz
x,y,z
-x,-y,z
x,-y,1/2-z
-x,y,1/2-z
-x,-y,-z
x,y,-z
-x,y,1/2+z
x,-y,1/2+z
1/2+x,1/2+y,z
1/2-x,1/2-y,z
1/2+x,1/2-y,1/2-z
1/2-x,1/2+y,1/2-z
1/2-x,1/2-y,-z
1/2+x,1/2+y,-z
1/2-x,1/2+y,1/2+z
1/2+x,1/2-y,1/2+z
loop_
_atom_site_type_symbol
_atom_site_label
_atom_site_fract_x
_atom_site_fract_y
_atom_site_fract_z
Si Si1 0.324171 0.419504 0.309307
Si Si2 0.971308 0.135373 0.500000
Si Si3 0.076757 0.492049 0.611418
Si Si4 0.898512 0.950403 0.500000
Si Si5 0.563922 0.325387 0.295945
Si Si6 0.250000 0.750000 0.223888
Si Si7 0.623778 0.853983 0.765560
O O1 0.286433 0.500000 0.250000
O O2 0.353035 0.453389 0.407954
O O3 0.377962 0.391866 0.231405
O O4 0.280984 0.331850 0.337417
O O5 0.943650 0.187086 0.408875
O O6 0.051111 0.134537 0.500000
O O7 0.944572 0.035352 0.500000
O O8 0.087582 0.473120 0.500000
O O9 0.114174 0.413349 0.669691
O O10 0.110591 0.586111 0.640763
O O11 0.000000 0.500000 0.637325
O O12 0.500000 0.370351 0.250000
O O13 0.571574 0.225451 0.253523
O O14 0.306239 0.803633 0.282469
#
# Coordination Sequence:
#
# PCOD8277235 Si02
#       7
#    16   8  16   8  16   8  16
#     4  11  23  42  64  88 126 169 213 262 314 373
#     4  11  22  34  62  98 132 163 198 246 318 394
#     4  10  21  41  70 100 126 163 212 274 340 391
#     4  11  22  39  62  94 127 167 204 248 314 384
#     4  11  21  37  61  95 130 169 203 256 317 383
#     4  10  26  45  63  86 126 176 222 267 313 370
#     4  10  22  43  63  90 129 167 214 266 319 378
#
# _framework density 20.669874
#
# number of rings (size 3 to 8) (size 9 to 14) (size 15 to 20)
#    0.000    1.455    3.636    2.182    3.818    0.727 
#    9.818    0.455    2.000    0.000    0.000    0.000 
#    0.000    0.000    0.000    0.000    0.000    0.000 
#
# Total GULP energy -545171.855223 kJ/mol
# GULP energy per Si atom -12390.269437 kJ/mol
# Density = 2.062283 g / cm^3
# Si number density = 20.669874 Si / 1000 Ang^3
#
#
#
# Elastic Constant Matrix: (Units=GPa)
#
#
# Indices 1 2 3 4 5 6 
#
# 1 94.6147 37.4219 29.6379 0.0000 0.0000 0.0000
# 2 37.4219 111.1595 30.5979 0.0000 0.0000 0.0000
# 3 29.6379 30.5979 130.1270 0.0000 0.0000 0.0000
# 4 0.0000 0.0000 0.0000 19.9954 0.0000 0.0000
# 5 0.0000 0.0000 0.0000 0.0000 32.1734 0.0000
# 6 0.0000 0.0000 0.0000 0.0000 0.0000 30.1817
#
#
#
# Elastic Compliance Matrix: (Units=1/GPa)
#
#
# Indices 1 2 3 4 5 6 
#
# 1 0.012667 -0.003710 -0.002013 0.000000 0.000000 0.000000
# 2 -0.003710 0.010705 -0.001672 0.000000 0.000000 0.000000
# 3 -0.002013 -0.001672 0.008536 0.000000 0.000000 0.000000
# 4 0.000000 0.000000 0.000000 0.050011 0.000000 0.000000
# 5 0.000000 0.000000 0.000000 0.000000 0.031082 0.000000
# 6 0.000000 0.000000 0.000000 0.000000 0.000000 0.033133
#
#
# Mechanical properties :
#
#
# Convention : Reuss Voigt Hill
#
# Bulk Modulus (GPa) = 58.41599 59.02405 58.72002
# Shear Modulus (GPa) = 30.00634 32.35300 31.17967
#
# Velocity S-wave (km/s) = 3.81424 3.96058 3.88810
# Velocity P-wave (km/s) = 6.90802 7.03794 6.97328
#
# Compressibility (1/GPa) = 0.01711860
#
# Stress axis : x y z
#
# Youngs Moduli (GPa) = 78.94423 93.41015 117.14550
#
# Poissons Ratio (x) = 0.34659 0.23577
# Poissons Ratio (y) = 0.29292 0.19589
# Poissons Ratio (z) = 0.15889 0.15620
#
# Static dielectric constant tensor:
#      x y z
#    x 3.876490 0.000000 0.000000 
#    y 0.000000 3.960050 0.000000 
#    z 0.000000 0.000000 3.528070 
# 
# 
# High freq. dielectric constant tensor:
#      x y z
#    x 1.805190 0.000000 0.000000 
#    y 0.000000 1.823290 0.000000 
#    z 0.000000 0.000000 1.790790 
# 
# From -- ./inp_files/31114.got.cif
#   From: 2010.03.12/outbox.cif.g09.slc.cpg/sg66_16_cif.got.tgz:31114.got - 2010.04.10 21:57:39.
