data_PCOD8277501
_publ_section_title
;
Structure prediction by ZEFSAII (Michael W. Deem and Ramdas Pophale) SiO2 
 PCOD8277501
Probable space group: C C C M
;
_chemical_formula_sum "Si O2"
_cell_formula_units_Z 88
_cell_length_a 11.041056
_cell_length_b 26.422250
_cell_length_c 14.171498
_cell_angle_alpha 90.000000
_cell_angle_beta 90.000000
_cell_angle_gamma 90.000000
_cell_volume 4134.244620
_symmetry_space_group_name_H-M "C C C M"
_symmetry_group_IT_number 66
_symmetry_cell_setting 'orthorhombic'
loop_
_space_group_symop_operation_xyz
x,y,z
-x,-y,z
x,-y,1/2-z
-x,y,1/2-z
-x,-y,-z
x,y,-z
-x,y,1/2+z
x,-y,1/2+z
1/2+x,1/2+y,z
1/2-x,1/2-y,z
1/2+x,1/2-y,1/2-z
1/2-x,1/2+y,1/2-z
1/2-x,1/2-y,-z
1/2+x,1/2+y,-z
1/2-x,1/2+y,1/2+z
1/2+x,1/2-y,1/2+z
loop_
_atom_site_type_symbol
_atom_site_label
_atom_site_fract_x
_atom_site_fract_y
_atom_site_fract_z
Si Si1 0.941172 0.380673 0.152581
Si Si2 0.224715 0.159437 0.253068
Si Si3 0.000000 0.223147 0.750000
Si Si4 0.115101 0.297620 0.104379
Si Si5 0.365645 0.477383 0.000000
Si Si6 0.613945 0.038281 0.000000
Si Si7 0.633624 0.552279 0.791586
O O1 0.835489 0.338770 0.173048
O O2 0.893660 0.427984 0.093593
O O3 0.000000 0.400854 0.250000
O O4 0.041216 0.349892 0.094620
O O5 0.258896 0.189570 0.157113
O O6 0.211676 0.099346 0.241152
O O7 0.105096 0.186647 0.291409
O O8 0.960251 0.256435 0.662004
O O9 0.143999 0.276897 0.000000
O O10 0.500000 0.500000 0.000000
O O11 0.248496 0.514190 0.000000
O O12 0.361391 0.444665 0.095038
O O13 0.500000 0.000000 0.000000
O O14 0.690173 0.500000 0.750000
O O15 0.500000 0.557844 0.750000
#
# Coordination Sequence:
#
# PCOD8277501 Si02
#       7
#    16  16   8  16   8   8  16
#     4  10  23  45  70  97 140 181 223 286 349 411
#     4  11  24  43  71 100 137 180 228 288 345 424
#     4  12  24  46  69 104 133 176 238 290 350 410
#     4  11  24  45  71  98 138 178 227 289 352 407
#     4  12  26  44  68  99 142 185 232 290 342 417
#     4  12  28  44  72 108 138 185 248 287 349 432
#     4  11  23  43  68  99 140 181 228 282 354 419
#
# _framework density 21.285630000000001
#
# number of rings (size 3 to 8) (size 9 to 14) (size 15 to 20)
#    0.000    0.909    6.364    1.636    6.364    1.818 
#    1.636    0.909    0.000    0.000    0.000    0.000 
#    0.000    0.000    0.000    0.000    0.000    0.000 
#
# Total GULP energy -545386.416362 kJ/mol
# GULP energy per Si atom -12395.145826 kJ/mol
# Density = 2.123718 g / cm^3
# Si number density = 21.285630 Si / 1000 Ang^3
#
#
#
# Elastic Constant Matrix: (Units=GPa)
#
#
# Indices 1 2 3 4 5 6 
#
# 1 126.6098 43.7582 24.3952 0.0000 0.0000 0.0000
# 2 43.7582 97.0913 38.7660 0.0000 0.0000 0.0000
# 3 24.3952 38.7660 129.8413 0.0000 0.0000 0.0000
# 4 0.0000 0.0000 0.0000 16.5987 0.0000 0.0000
# 5 0.0000 0.0000 0.0000 0.0000 16.1824 0.0000
# 6 0.0000 0.0000 0.0000 0.0000 0.0000 30.9862
#
#
#
# Elastic Compliance Matrix: (Units=1/GPa)
#
#
# Indices 1 2 3 4 5 6 
#
# 1 0.009392 -0.004006 -0.000569 0.000000 0.000000 0.000000
# 2 -0.004006 0.013402 -0.003249 0.000000 0.000000 0.000000
# 3 -0.000569 -0.003249 0.008779 0.000000 0.000000 0.000000
# 4 0.000000 0.000000 0.000000 0.060246 0.000000 0.000000
# 5 0.000000 0.000000 0.000000 0.000000 0.061796 0.000000
# 6 0.000000 0.000000 0.000000 0.000000 0.000000 0.032272
#
#
# Mechanical properties :
#
#
# Convention : Reuss Voigt Hill
#
# Bulk Modulus (GPa) = 62.78927 63.04235 62.91581
# Shear Modulus (GPa) = 24.17302 29.19500 26.68401
#
# Velocity S-wave (km/s) = 3.37360 3.70751 3.54449
# Velocity P-wave (km/s) = 6.68860 6.92886 6.80979
#
# Compressibility (1/GPa) = 0.01592629
#
# Stress axis : x y z
#
# Youngs Moduli (GPa) = 106.46918 74.61462 113.91457
#
# Poissons Ratio (x) = 0.29891 0.06478
# Poissons Ratio (y) = 0.42652 0.37008
# Poissons Ratio (z) = 0.06054 0.24240
#
# Static dielectric constant tensor:
#      x y z
#    x 4.136650 0.000000 0.000000 
#    y 0.000000 3.941420 0.000000 
#    z 0.000000 0.000000 3.773070 
# 
# 
# High freq. dielectric constant tensor:
#      x y z
#    x 1.850910 0.000000 0.000000 
#    y 0.000000 1.835320 0.000000 
#    z 0.000000 0.000000 1.828080 
# 
# From -- ./inp_files/26803.got.cif
#   From: 2010.03.12/outbox.cif.g09.slc.cpg/sg66_14_cif.got.tgz:26803.got - 2010.04.10 21:57:39.
