data_PCOD8277753
_publ_section_title
;
Structure prediction by ZEFSAII (Michael W. Deem and Ramdas Pophale) SiO2 
 PCOD8277753
Probable space group: C C C M
;
_chemical_formula_sum "Si O2"
_cell_formula_units_Z 72
_cell_length_a 8.578030
_cell_length_b 23.016083
_cell_length_c 18.045968
_cell_angle_alpha 90.000000
_cell_angle_beta 90.000000
_cell_angle_gamma 90.000000
_cell_volume 3562.863292
_symmetry_space_group_name_H-M "C C C M"
_symmetry_group_IT_number 66
_symmetry_cell_setting 'orthorhombic'
loop_
_space_group_symop_operation_xyz
x,y,z
-x,-y,z
x,-y,1/2-z
-x,y,1/2-z
-x,-y,-z
x,y,-z
-x,y,1/2+z
x,-y,1/2+z
1/2+x,1/2+y,z
1/2-x,1/2-y,z
1/2+x,1/2-y,1/2-z
1/2-x,1/2+y,1/2-z
1/2-x,1/2-y,-z
1/2+x,1/2+y,-z
1/2-x,1/2+y,1/2+z
1/2+x,1/2-y,1/2+z
loop_
_atom_site_type_symbol
_atom_site_label
_atom_site_fract_x
_atom_site_fract_y
_atom_site_fract_z
Si Si1 0.970585 0.677532 0.500000
Si Si2 0.232095 0.590905 0.500000
Si Si3 0.177414 0.080131 0.724096
Si Si4 0.274341 0.313760 0.374164
Si Si5 0.820642 0.519762 0.142576
Si Si6 0.520843 0.307087 0.500000
O O1 0.872076 0.672753 0.425480
O O2 0.062541 0.618046 0.500000
O O3 0.068534 0.738392 0.500000
O O4 0.251402 0.550071 0.429286
O O5 0.340668 0.647377 0.500000
O O6 0.211566 0.144846 0.696589
O O7 0.299903 0.064950 0.789428
O O8 0.000000 0.072848 0.750000
O O9 0.211073 0.036139 0.656442
O O10 0.250000 0.250000 0.339979
O O11 0.426297 0.318969 0.425093
O O12 0.000000 0.500000 0.133522
#
# Coordination Sequence:
#
# PCOD8277753 Si02
#       6
#     8   8  16  16  16   8
#     4   9  19  36  60  86 118 151 183 235 288 333
#     4  12  22  37  60  86 112 150 200 233 274 349
#     4  11  22  40  59  83 116 150 189 240 288 334
#     4   9  19  39  62  84 113 151 189 229 286 347
#     4  11  24  39  56  82 117 154 189 238 292 336
#     4   9  19  35  58  88 118 145 183 240 288 326
#
# _framework density 20.208465
#
# number of rings (size 3 to 8) (size 9 to 14) (size 15 to 20)
#    0.000    1.778    0.000    7.333    0.000    1.778 
#    0.000   12.222    0.000    0.000    0.000    0.000 
#    0.000    0.000    0.000    0.000    0.000    0.000 
#
# Total GULP energy -446265.116755 kJ/mol
# GULP energy per Si atom -12396.253243 kJ/mol
# Density = 2.016247 g / cm^3
# Si number density = 20.208465 Si / 1000 Ang^3
#
#
#
# Elastic Constant Matrix: (Units=GPa)
#
#
# Indices 1 2 3 4 5 6 
#
# 1 80.9975 40.8331 18.5621 0.0000 0.0000 0.0000
# 2 40.8331 131.0448 61.1955 0.0000 0.0000 0.0000
# 3 18.5621 61.1955 80.8463 0.0000 0.0000 0.0000
# 4 0.0000 0.0000 0.0000 47.3509 0.0000 0.0000
# 5 0.0000 0.0000 0.0000 0.0000 -15.9463 0.0000
# 6 0.0000 0.0000 0.0000 0.0000 0.0000 38.0707
#
#
#
# Elastic Compliance Matrix: (Units=1/GPa)
#
#
# Indices 1 2 3 4 5 6 
#
# 1 0.014648 -0.004630 0.000142 0.000000 0.000000 0.000000
# 2 -0.004630 0.013267 -0.008979 0.000000 0.000000 0.000000
# 3 0.000142 -0.008979 0.019133 0.000000 0.000000 0.000000
# 4 0.000000 0.000000 0.000000 0.021119 0.000000 0.000000
# 5 0.000000 0.000000 0.000000 0.000000 -0.062711 0.000000
# 6 0.000000 0.000000 0.000000 0.000000 0.000000 0.026267
#
#
# Mechanical properties :
#
#
# Convention : Reuss Voigt Hill
#
# Bulk Modulus (GPa) = 49.72007 59.34109 54.53058
# Shear Modulus (GPa) = 76.49644 25.38161 50.93902
#
# Velocity S-wave (km/s) = 6.15921 3.54784 5.02608
# Velocity P-wave (km/s) = 8.67399 6.79787 7.79260
#
# Compressibility (1/GPa) = 0.02011260
#
# Stress axis : x y z
#
# Youngs Moduli (GPa) = 68.26920 75.37581 52.26536
#
# Poissons Ratio (x) = 0.34903 -0.00741
# Poissons Ratio (y) = 0.31612 0.46929
# Poissons Ratio (z) = -0.00968 0.67680
#
# Static dielectric constant tensor:
#      x y z
#    x 3.600650 0.000000 0.000000 
#    y 0.000000 3.868140 0.000000 
#    z 0.000000 0.000000 3.533650 
# 
# 
# High freq. dielectric constant tensor:
#      x y z
#    x 1.786060 0.000000 0.000000 
#    y 0.000000 1.803870 0.000000 
#    z 0.000000 0.000000 1.780010 
# 
# From -- ./inp_files/36779.got.cif
#   From: 2010.03.12/outbox.cif.g09.slc.cpg/sg66_19_cif.got.tgz:36779.got - 2010.04.10 21:57:39.
