data_PCOD8277287
_publ_section_title
;
Structure prediction by ZEFSAII (Michael W. Deem and Ramdas Pophale) SiO2 
 PCOD8277287
Probable space group: C C C M
;
_chemical_formula_sum "Si O2"
_cell_formula_units_Z 96
_cell_length_a 24.820659
_cell_length_b 23.692311
_cell_length_c 8.879986
_cell_angle_alpha 90.000000
_cell_angle_beta 90.000000
_cell_angle_gamma 90.000000
_cell_volume 5221.953665
_symmetry_space_group_name_H-M "C C C M"
_symmetry_group_IT_number 66
_symmetry_cell_setting 'orthorhombic'
loop_
_space_group_symop_operation_xyz
x,y,z
-x,-y,z
x,-y,1/2-z
-x,y,1/2-z
-x,-y,-z
x,y,-z
-x,y,1/2+z
x,-y,1/2+z
1/2+x,1/2+y,z
1/2-x,1/2-y,z
1/2+x,1/2-y,1/2-z
1/2-x,1/2+y,1/2-z
1/2-x,1/2-y,-z
1/2+x,1/2+y,-z
1/2-x,1/2+y,1/2+z
1/2+x,1/2-y,1/2+z
loop_
_atom_site_type_symbol
_atom_site_label
_atom_site_fract_x
_atom_site_fract_y
_atom_site_fract_z
Si Si1 0.943105 0.940885 0.178924
Si Si2 0.053335 0.328314 0.170350
Si Si3 0.864499 0.260017 0.823824
Si Si4 0.146202 0.868708 0.174300
Si Si5 0.833602 0.634617 0.829336
Si Si6 0.749650 0.940925 0.324686
O O1 0.899838 0.893519 0.219232
O O2 0.000000 0.922887 0.250000
O O3 0.923561 0.000000 0.250000
O O4 0.948595 0.947178 0.000000
O O5 0.075620 0.272107 0.255787
O O6 0.101237 0.375378 0.175971
O O7 0.000000 0.352302 0.250000
O O8 0.039174 0.311657 0.000000
O O9 0.846600 0.196840 0.785562
O O10 0.821984 0.304187 0.748501
O O11 0.865434 0.271706 0.000000
O O12 0.202580 0.897827 0.212008
O O13 0.129837 0.877515 0.000000
O O14 0.805521 0.583855 0.741507
O O15 0.812146 0.636175 0.000000
O O16 0.741504 0.950937 0.500000
O O17 0.764331 0.000000 0.250000
#
# Coordination Sequence:
#
# PCOD8277287 Si02
#       6
#    16  16  16  16  16  16
#     4  11  22  37  57  77 105 145 189 239 289 337
#     4   9  18  32  54  82 113 148 186 226 275 333
#     4   9  18  34  55  80 112 147 182 224 275 330
#     4  10  22  38  56  83 114 148 191 234 281 338
#     4   9  20  37  56  83 115 148 189 231 281 339
#     4  11  23  39  60  83 111 148 190 236 287 338
#
# _framework density 18.383922999999999
#
# number of rings (size 3 to 8) (size 9 to 14) (size 15 to 20)
#    1.000    1.167    0.000    4.000    0.000    5.333 
#    0.000    3.333    0.000    0.500    0.000    3.500 
#    0.000    0.000    0.000    0.000    0.000    0.000 
#
# Total GULP energy -594986.242440 kJ/mol
# GULP energy per Si atom -12395.546717 kJ/mol
# Density = 1.834208 g / cm^3
# Si number density = 18.383923 Si / 1000 Ang^3
#
#
#
# Elastic Constant Matrix: (Units=GPa)
#
#
# Indices 1 2 3 4 5 6 
#
# 1 73.7470 24.3847 41.3842 0.0000 0.0000 0.0000
# 2 24.3847 42.6377 31.6809 0.0000 0.0000 0.0000
# 3 41.3842 31.6809 129.8044 0.0000 0.0000 0.0000
# 4 0.0000 0.0000 0.0000 31.7625 0.0000 0.0000
# 5 0.0000 0.0000 0.0000 0.0000 23.3602 0.0000
# 6 0.0000 0.0000 0.0000 0.0000 0.0000 29.0560
#
#
#
# Elastic Compliance Matrix: (Units=1/GPa)
#
#
# Indices 1 2 3 4 5 6 
#
# 1 0.018279 -0.007480 -0.004002 0.000000 0.000000 0.000000
# 2 -0.007480 0.031710 -0.005354 0.000000 0.000000 0.000000
# 3 -0.004002 -0.005354 0.010287 0.000000 0.000000 0.000000
# 4 0.000000 0.000000 0.000000 0.031484 0.000000 0.000000
# 5 0.000000 0.000000 0.000000 0.000000 0.042808 0.000000
# 6 0.000000 0.000000 0.000000 0.000000 0.000000 0.034416
#
#
# Mechanical properties :
#
#
# Convention : Reuss Voigt Hill
#
# Bulk Modulus (GPa) = 37.59102 49.00988 43.30045
# Shear Modulus (GPa) = 23.63794 26.75170 25.19482
#
# Velocity S-wave (km/s) = 3.58969 3.81881 3.70602
# Velocity P-wave (km/s) = 6.13786 6.79421 6.47436
#
# Compressibility (1/GPa) = 0.02660210
#
# Stress axis : x y z
#
# Youngs Moduli (GPa) = 54.70744 31.53586 97.21311
#
# Poissons Ratio (x) = 0.23590 0.38905
# Poissons Ratio (y) = 0.40923 0.52053
# Poissons Ratio (z) = 0.21894 0.16886
#
# Static dielectric constant tensor:
#      x y z
#    x 3.263770 0.000000 0.000000 
#    y 0.000000 3.147620 0.000000 
#    z 0.000000 0.000000 3.491460 
# 
# 
# High freq. dielectric constant tensor:
#      x y z
#    x 1.704710 0.000000 0.000000 
#    y 0.000000 1.689850 0.000000 
#    z 0.000000 0.000000 1.730830 
# 
# From -- ./inp_files/9105.got.cif
#   From: 2010.03.12/outbox.cif.g09.slc.cpg/sg66_5_cif.got.tgz:9105.got - 2010.04.10 21:57:39.
