data_PCOD8277291
_publ_section_title
;
Structure prediction by ZEFSAII (Michael W. Deem and Ramdas Pophale) SiO2 
 PCOD8277291
Probable space group: C C C M
;
_chemical_formula_sum "Si O2"
_cell_formula_units_Z 56
_cell_length_a 22.530735
_cell_length_b 13.043570
_cell_length_c 9.250617
_cell_angle_alpha 90.000000
_cell_angle_beta 90.000000
_cell_angle_gamma 90.000000
_cell_volume 2718.582602
_symmetry_space_group_name_H-M "C C C M"
_symmetry_group_IT_number 66
_symmetry_cell_setting 'orthorhombic'
loop_
_space_group_symop_operation_xyz
x,y,z
-x,-y,z
x,-y,1/2-z
-x,y,1/2-z
-x,-y,-z
x,y,-z
-x,y,1/2+z
x,-y,1/2+z
1/2+x,1/2+y,z
1/2-x,1/2-y,z
1/2+x,1/2-y,1/2-z
1/2-x,1/2+y,1/2-z
1/2-x,1/2-y,-z
1/2+x,1/2+y,-z
1/2-x,1/2+y,1/2+z
1/2+x,1/2-y,1/2+z
loop_
_atom_site_type_symbol
_atom_site_label
_atom_site_fract_x
_atom_site_fract_y
_atom_site_fract_z
Si Si1 0.846395 0.098481 0.836442
Si Si2 0.845467 0.599843 0.841221
Si Si3 0.250000 0.750000 0.247206
Si Si4 0.937372 0.232515 0.326907
O O1 0.794267 0.182588 0.850370
O O2 0.902588 0.137766 0.744379
O O3 0.821750 0.000000 0.750000
O O4 0.865943 0.070277 0.000000
O O5 0.832700 0.500000 0.750000
O O6 0.788611 0.674390 0.846300
O O7 0.902938 0.662599 0.787620
O O8 0.857423 0.557901 0.000000
O O9 0.942606 0.216218 0.500000
O O10 0.000000 0.241033 0.250000
#
# Coordination Sequence:
#
# PCOD8277291 Si02
#       4
#    16  16   8  16
#     4  11  23  39  60  88 119 154 194 238 288 344
#     4  10  22  38  59  86 118 154 194 239 290 344
#     4  10  22  38  60  86 118 156 196 240 286 338
#     4  10  22  41  62  86 116 152 193 241 290 342
#
# _framework density 20.598969
#
# number of rings (size 3 to 8) (size 9 to 14) (size 15 to 20)
#    0.000    1.714    0.000    3.429    0.000   13.714 
#    0.000    5.714    0.000    0.000    0.000    0.000 
#    0.000    0.000    0.000    0.000    0.000    0.000 
#
# Total GULP energy -347143.732691 kJ/mol
# GULP energy per Si atom -12397.990453 kJ/mol
# Density = 2.055208 g / cm^3
# Si number density = 20.598969 Si / 1000 Ang^3
#
#
#
# Elastic Constant Matrix: (Units=GPa)
#
#
# Indices 1 2 3 4 5 6 
#
# 1 140.3383 51.4721 48.5057 0.0000 0.0000 0.0000
# 2 51.4721 129.3960 61.3370 0.0000 0.0000 0.0000
# 3 48.5057 61.3370 132.8820 0.0000 0.0000 0.0000
# 4 0.0000 0.0000 0.0000 25.4247 0.0000 0.0000
# 5 0.0000 0.0000 0.0000 0.0000 -34.6920 0.0000
# 6 0.0000 0.0000 0.0000 0.0000 0.0000 17.5000
#
#
#
# Elastic Compliance Matrix: (Units=1/GPa)
#
#
# Indices 1 2 3 4 5 6 
#
# 1 0.008752 -0.002518 -0.002032 0.000000 0.000000 0.000000
# 2 -0.002518 0.010617 -0.003982 0.000000 0.000000 0.000000
# 3 -0.002032 -0.003982 0.010105 0.000000 0.000000 0.000000
# 4 0.000000 0.000000 0.000000 0.039332 0.000000 0.000000
# 5 0.000000 0.000000 0.000000 0.000000 -0.028825 0.000000
# 6 0.000000 0.000000 0.000000 0.000000 0.000000 0.057143
#
#
# Mechanical properties :
#
#
# Convention : Reuss Voigt Hill
#
# Bulk Modulus (GPa) = 80.57895 80.58286 80.58091
# Shear Modulus (GPa) = 42.25679 17.73331 29.99505
#
# Velocity S-wave (km/s) = 4.53416 2.93726 3.82008
# Velocity P-wave (km/s) = 8.16176 7.12097 7.65906
#
# Compressibility (1/GPa) = 0.01241019
#
# Stress axis : x y z
#
# Youngs Moduli (GPa) = 114.26519 94.18656 98.95838
#
# Poissons Ratio (x) = 0.23715 0.20112
# Poissons Ratio (y) = 0.28771 0.39402
# Poissons Ratio (z) = 0.23223 0.37502
#
# Static dielectric constant tensor:
#      x y z
#    x 3.722970 0.000000 0.000000 
#    y 0.000000 3.776140 0.000000 
#    z 0.000000 0.000000 3.621590 
# 
# 
# High freq. dielectric constant tensor:
#      x y z
#    x 1.805340 0.000000 0.000000 
#    y 0.000000 1.808880 0.000000 
#    z 0.000000 0.000000 1.809490 
# 
# From -- ./inp_files/4813.got.cif
#   From: 2010.03.12/outbox.cif.g09.slc.cpg/sg66_3_cif.got.tgz:4813.got - 2010.04.10 21:57:39.
