data_PCOD8277184
_publ_section_title
;
Structure prediction by ZEFSAII (Michael W. Deem and Ramdas Pophale) SiO2 
 PCOD8277184
Probable space group: C C C M
;
_chemical_formula_sum "Si O2"
_cell_formula_units_Z 96
_cell_length_a 9.678149
_cell_length_b 23.587434
_cell_length_c 22.178277
_cell_angle_alpha 90.000000
_cell_angle_beta 90.000000
_cell_angle_gamma 90.000000
_cell_volume 5062.916972
_symmetry_space_group_name_H-M "C C C M"
_symmetry_group_IT_number 66
_symmetry_cell_setting 'orthorhombic'
loop_
_space_group_symop_operation_xyz
x,y,z
-x,-y,z
x,-y,1/2-z
-x,y,1/2-z
-x,-y,-z
x,y,-z
-x,y,1/2+z
x,-y,1/2+z
1/2+x,1/2+y,z
1/2-x,1/2-y,z
1/2+x,1/2-y,1/2-z
1/2-x,1/2+y,1/2-z
1/2-x,1/2-y,-z
1/2+x,1/2+y,-z
1/2-x,1/2+y,1/2+z
1/2+x,1/2-y,1/2+z
loop_
_atom_site_type_symbol
_atom_site_label
_atom_site_fract_x
_atom_site_fract_y
_atom_site_fract_z
Si Si1 0.626765 0.041416 0.614165
Si Si2 0.362603 0.479416 0.682415
Si Si3 0.894386 0.914998 0.500000
Si Si4 0.517795 0.140313 0.819891
Si Si5 0.907358 0.236469 0.802937
Si Si6 0.181136 0.132795 0.371354
Si Si7 0.302157 0.543824 0.500000
O O1 0.592305 0.101309 0.645698
O O2 0.710551 0.061112 0.556470
O O3 0.500000 0.000000 0.597543
O O4 0.721577 0.002704 0.656029
O O5 0.500000 0.500000 0.646584
O O6 0.369993 0.500000 0.750000
O O7 0.380843 0.412351 0.675313
O O8 0.840287 0.881824 0.441343
O O9 0.059792 0.918526 0.500000
O O10 0.829890 0.977089 0.500000
O O11 0.500000 0.121871 0.750000
O O12 0.502644 0.208688 0.824014
O O13 0.659710 0.129589 0.853936
O O14 0.750000 0.250000 0.780106
O O15 0.891975 0.193011 0.858597
O O16 0.000000 0.208255 0.750000
#
# Coordination Sequence:
#
# PCOD8277184 Si02
#       7
#    16  16   8  16  16  16   8
#     4  12  22  36  62  87 122 159 201 259 316 378
#     4  11  23  35  54  92 124 157 200 254 319 377
#     4  11  22  42  60  83 129 169 218 252 304 386
#     4  10  21  40  62  93 127 155 201 261 325 378
#     4   9  21  41  64  92 122 165 209 259 321 381
#     4  11  21  40  62  88 123 169 212 248 310 383
#     4  11  23  40  57  85 122 169 209 253 314 366
#
# _framework density 18.961400999999999
#
# number of rings (size 3 to 8) (size 9 to 14) (size 15 to 20)
#    0.000    1.333    3.333    2.250    2.333    0.667 
#    9.000    4.583    0.000    1.000    0.000    0.000 
#    0.000    0.000    0.000    0.000    0.000    0.000 
#
# Total GULP energy -594640.962504 kJ/mol
# GULP energy per Si atom -12388.353386 kJ/mol
# Density = 1.891824 g / cm^3
# Si number density = 18.961401 Si / 1000 Ang^3
#
#
#
# Elastic Constant Matrix: (Units=GPa)
#
#
# Indices 1 2 3 4 5 6 
#
# 1 105.6165 42.1210 56.3105 0.0000 0.0000 0.0000
# 2 42.1210 102.0303 58.5071 0.0000 0.0000 0.0000
# 3 56.3105 58.5071 147.5677 0.0000 0.0000 0.0000
# 4 0.0000 0.0000 0.0000 28.8893 0.0000 0.0000
# 5 0.0000 0.0000 0.0000 0.0000 37.4535 0.0000
# 6 0.0000 0.0000 0.0000 0.0000 0.0000 24.8180
#
#
#
# Elastic Compliance Matrix: (Units=1/GPa)
#
#
# Indices 1 2 3 4 5 6 
#
# 1 0.012633 -0.003172 -0.003563 0.000000 0.000000 0.000000
# 2 -0.003172 0.013481 -0.004135 0.000000 0.000000 0.000000
# 3 -0.003563 -0.004135 0.009775 0.000000 0.000000 0.000000
# 4 0.000000 0.000000 0.000000 0.034615 0.000000 0.000000
# 5 0.000000 0.000000 0.000000 0.000000 0.026700 0.000000
# 6 0.000000 0.000000 0.000000 0.000000 0.000000 0.040293
#
#
# Mechanical properties :
#
#
# Convention : Reuss Voigt Hill
#
# Bulk Modulus (GPa) = 70.66931 74.34352 72.50641
# Shear Modulus (GPa) = 30.49634 31.45053 30.97343
#
# Velocity S-wave (km/s) = 4.01476 4.07708 4.04604
# Velocity P-wave (km/s) = 7.67086 7.83941 7.75559
#
# Compressibility (1/GPa) = 0.01415041
#
# Stress axis : x y z
#
# Youngs Moduli (GPa) = 79.15827 74.17586 102.29744
#
# Poissons Ratio (x) = 0.23530 0.36448
# Poissons Ratio (y) = 0.25110 0.42296
# Poissons Ratio (z) = 0.28204 0.30669
#
# Static dielectric constant tensor:
#      x y z
#    x 4.063560 0.000000 0.000000 
#    y 0.000000 3.775080 0.000000 
#    z 0.000000 0.000000 3.424480 
# 
# 
# High freq. dielectric constant tensor:
#      x y z
#    x 1.748300 0.000000 0.000000 
#    y 0.000000 1.737200 0.000000 
#    z 0.000000 0.000000 1.729890 
# 
# From -- ./inp_files/55690.got.cif
#   From: 2010.03.12/outbox.cif.g09.slc.cpg/sg66_28_cif.got.tgz:55690.got - 2010.04.10 21:57:39.
