data_PCOD8277506
_publ_section_title
;
Structure prediction by ZEFSAII (Michael W. Deem and Ramdas Pophale) SiO2 
 PCOD8277506
Probable space group: C C C M
;
_chemical_formula_sum "Si O2"
_cell_formula_units_Z 92
_cell_length_a 8.595758
_cell_length_b 20.326644
_cell_length_c 23.403105
_cell_angle_alpha 90.000000
_cell_angle_beta 90.000000
_cell_angle_gamma 90.000000
_cell_volume 4089.058674
_symmetry_space_group_name_H-M "C C C M"
_symmetry_group_IT_number 66
_symmetry_cell_setting 'orthorhombic'
loop_
_space_group_symop_operation_xyz
x,y,z
-x,-y,z
x,-y,1/2-z
-x,y,1/2-z
-x,-y,-z
x,y,-z
-x,y,1/2+z
x,-y,1/2+z
1/2+x,1/2+y,z
1/2-x,1/2-y,z
1/2+x,1/2-y,1/2-z
1/2-x,1/2+y,1/2-z
1/2-x,1/2-y,-z
1/2+x,1/2+y,-z
1/2-x,1/2+y,1/2+z
1/2+x,1/2-y,1/2+z
loop_
_atom_site_type_symbol
_atom_site_label
_atom_site_fract_x
_atom_site_fract_y
_atom_site_fract_z
Si Si1 0.581778 0.781308 0.621212
Si Si2 0.493275 0.824644 0.000000
Si Si3 0.418014 0.127105 0.195227
Si Si4 0.934370 0.829975 0.186534
Si Si5 0.277719 0.590857 0.500000
Si Si6 0.270875 0.941768 0.000000
Si Si7 0.523829 0.426689 0.094987
Si Si8 0.000000 0.500000 0.750000
O O1 0.750000 0.750000 0.636179
O O2 0.556343 0.779658 0.553369
O O3 0.538921 0.855555 0.643180
O O4 0.452669 0.739851 0.655570
O O5 0.422295 0.897655 0.000000
O O6 0.674276 0.843341 0.000000
O O7 0.500000 0.161670 0.250000
O O8 0.246122 0.152890 0.184744
O O9 0.402758 0.048047 0.207223
O O10 0.038722 0.881340 0.150433
O O11 0.000000 0.829121 0.250000
O O12 0.191020 0.519625 0.500000
O O13 0.378237 0.596027 0.442869
O O14 0.177218 0.921248 0.943254
O O15 0.500000 0.500000 0.117508
#
# Coordination Sequence:
#
# PCOD8277506 Si02
#       8
#    16   8  16  16   8   8  16   4
#     4  12  26  45  68  99 138 182 227 282 341 402
#     4  12  24  41  64  98 132 175 227 283 339 401
#     4  10  23  48  70  98 136 178 222 279 335 399
#     4  12  25  42  69 102 134 177 231 275 336 406
#     4   9  19  39  64  94 132 173 225 274 336 394
#     4   9  19  40  64  94 136 178 222 269 341 396
#     4   9  20  40  64  95 137 178 219 276 327 401
#     4   8  24  48  74  98 136 176 224 276 342 396
#
# _framework density 22.499067
#
# number of rings (size 3 to 8) (size 9 to 14) (size 15 to 20)
#    0.522    1.043    0.000    5.739    0.000    3.130 
#    9.391    2.609    0.000    0.000    0.000    0.000 
#    0.000    0.000    0.000    0.000    0.000    0.000 
#
# Total GULP energy -570089.958934 kJ/mol
# GULP energy per Si atom -12393.259977 kJ/mol
# Density = 2.244786 g / cm^3
# Si number density = 22.499067 Si / 1000 Ang^3
#
#
#
# Elastic Constant Matrix: (Units=GPa)
#
#
# Indices 1 2 3 4 5 6 
#
# 1 96.3812 38.1941 24.9618 0.0000 0.0000 0.0000
# 2 38.1941 100.4190 53.8866 0.0000 0.0000 0.0000
# 3 24.9618 53.8866 151.7186 0.0000 0.0000 0.0000
# 4 0.0000 0.0000 0.0000 11.2300 0.0000 0.0000
# 5 0.0000 0.0000 0.0000 0.0000 9.2931 0.0000
# 6 0.0000 0.0000 0.0000 0.0000 0.0000 33.1148
#
#
#
# Elastic Compliance Matrix: (Units=1/GPa)
#
#
# Indices 1 2 3 4 5 6 
#
# 1 0.012241 -0.004417 -0.000445 0.000000 0.000000 0.000000
# 2 -0.004417 0.013897 -0.004209 0.000000 0.000000 0.000000
# 3 -0.000445 -0.004209 0.008159 0.000000 0.000000 0.000000
# 4 0.000000 0.000000 0.000000 0.089047 0.000000 0.000000
# 5 0.000000 0.000000 0.000000 0.000000 0.107606 0.000000
# 6 0.000000 0.000000 0.000000 0.000000 0.000000 0.030198
#
#
# Mechanical properties :
#
#
# Convention : Reuss Voigt Hill
#
# Bulk Modulus (GPa) = 61.90097 64.73378 63.31737
# Shear Modulus (GPa) = 17.56377 26.15933 21.86155
#
# Velocity S-wave (km/s) = 2.79703 3.41352 3.12054
# Velocity P-wave (km/s) = 6.16471 6.66111 6.41771
#
# Compressibility (1/GPa) = 0.01615483
#
# Stress axis : x y z
#
# Youngs Moduli (GPa) = 81.69177 71.95820 122.55843
#
# Poissons Ratio (x) = 0.31784 0.05456
# Poissons Ratio (y) = 0.36083 0.51586
# Poissons Ratio (z) = 0.03637 0.30288
#
# Static dielectric constant tensor:
#      x y z
#    x 3.846530 0.000000 0.000000 
#    y 0.000000 4.079980 0.000000 
#    z 0.000000 0.000000 4.135170 
# 
# 
# High freq. dielectric constant tensor:
#      x y z
#    x 1.881130 0.000000 0.000000 
#    y 0.000000 1.889080 0.000000 
#    z 0.000000 0.000000 1.891880 
# 
# From -- ./inp_files/55548.got.cif
#   From: 2010.03.12/outbox.cif.g09.slc.cpg/sg66_28_cif.got.tgz:55548.got - 2010.04.10 21:57:39.
