data_PCOD8277797
_publ_section_title
;
Structure prediction by ZEFSAII (Michael W. Deem and Ramdas Pophale) SiO2 
 PCOD8277797
Probable space group: C C C M
;
_chemical_formula_sum "Si O2"
_cell_formula_units_Z 56
_cell_length_a 12.511250
_cell_length_b 21.087589
_cell_length_c 9.486570
_cell_angle_alpha 90.000000
_cell_angle_beta 90.000000
_cell_angle_gamma 90.000000
_cell_volume 2502.861665
_symmetry_space_group_name_H-M "C C C M"
_symmetry_group_IT_number 66
_symmetry_cell_setting 'orthorhombic'
loop_
_space_group_symop_operation_xyz
x,y,z
-x,-y,z
x,-y,1/2-z
-x,y,1/2-z
-x,-y,-z
x,y,-z
-x,y,1/2+z
x,-y,1/2+z
1/2+x,1/2+y,z
1/2-x,1/2-y,z
1/2+x,1/2-y,1/2-z
1/2-x,1/2+y,1/2-z
1/2-x,1/2-y,-z
1/2+x,1/2+y,-z
1/2-x,1/2+y,1/2+z
1/2+x,1/2-y,1/2+z
loop_
_atom_site_type_symbol
_atom_site_label
_atom_site_fract_x
_atom_site_fract_y
_atom_site_fract_z
Si Si1 0.868877 0.231908 0.654932
Si Si2 0.598021 0.387365 0.167535
Si Si3 0.500000 0.157370 0.250000
Si Si4 0.173106 0.440446 0.340406
O O1 0.874854 0.198837 0.500000
O O2 0.750000 0.250000 0.695254
O O3 0.906665 0.185375 0.779471
O O4 0.937242 0.296509 0.643915
O O5 0.500000 0.422907 0.250000
O O6 0.710664 0.417612 0.213676
O O7 0.580455 0.389422 0.000000
O O8 0.414280 0.114807 0.332607
O O9 0.133952 0.500000 0.250000
O O10 0.182523 0.463724 0.500000
#
# Coordination Sequence:
#
# PCOD8277797 Si02
#       4
#    16  16   8  16
#     4  11  23  39  64 100 137 177 219 269 336 409
#     4  11  24  43  67  99 135 176 228 283 345 404
#     4  12  23  42  70 106 139 174 222 276 342 402
#     4  11  27  47  68  97 136 183 231 283 337 402
#
# _framework density 22.374388
#
# number of rings (size 3 to 8) (size 9 to 14) (size 15 to 20)
#    0.000    0.857    4.286    2.143    0.000    8.000 
#    0.000    2.857    0.000    0.000    0.000    0.000 
#    0.000    0.000    0.000    0.000    0.000    0.000 
#
# Total GULP energy -347119.405087 kJ/mol
# GULP energy per Si atom -12397.121610 kJ/mol
# Density = 2.232346 g / cm^3
# Si number density = 22.374388 Si / 1000 Ang^3
#
#
#
# Elastic Constant Matrix: (Units=GPa)
#
#
# Indices 1 2 3 4 5 6 
#
# 1 145.9505 22.9882 26.8291 0.0000 0.0000 0.0000
# 2 22.9882 86.1657 21.7757 0.0000 0.0000 0.0000
# 3 26.8291 21.7757 107.2001 0.0000 0.0000 0.0000
# 4 0.0000 0.0000 0.0000 24.1034 0.0000 0.0000
# 5 0.0000 0.0000 0.0000 0.0000 1.5523 0.0000
# 6 0.0000 0.0000 0.0000 0.0000 0.0000 24.3166
#
#
#
# Elastic Compliance Matrix: (Units=1/GPa)
#
#
# Indices 1 2 3 4 5 6 
#
# 1 0.007382 -0.001584 -0.001526 0.000000 0.000000 0.000000
# 2 -0.001584 0.012573 -0.002158 0.000000 0.000000 0.000000
# 3 -0.001526 -0.002158 0.010148 0.000000 0.000000 0.000000
# 4 0.000000 0.000000 0.000000 0.041488 0.000000 0.000000
# 5 0.000000 0.000000 0.000000 0.000000 0.644202 0.000000
# 6 0.000000 0.000000 0.000000 0.000000 0.000000 0.041124
#
#
# Mechanical properties :
#
#
# Convention : Reuss Voigt Hill
#
# Bulk Modulus (GPa) = 51.10082 53.61138 52.35610
# Shear Modulus (GPa) = 6.46016 27.84266 17.15141
#
# Velocity S-wave (km/s) = 1.70105 3.53143 2.77169
# Velocity P-wave (km/s) = 5.17172 6.37503 5.80464
#
# Compressibility (1/GPa) = 0.01956916
#
# Stress axis : x y z
#
# Youngs Moduli (GPa) = 135.47299 79.53322 98.53693
#
# Poissons Ratio (x) = 0.12596 0.15034
# Poissons Ratio (y) = 0.21456 0.21261
# Poissons Ratio (z) = 0.20669 0.17161
#
# Static dielectric constant tensor:
#      x y z
#    x 4.602520 0.000000 0.000000 
#    y 0.000000 3.787640 0.000000 
#    z 0.000000 0.000000 3.759020 
# 
# 
# High freq. dielectric constant tensor:
#      x y z
#    x 1.918920 0.000000 0.000000 
#    y 0.000000 1.861160 0.000000 
#    z 0.000000 0.000000 1.874190 
# 
# From -- ./inp_files/4849.got.cif
#   From: 2010.03.12/outbox.cif.g09.slc.cpg/sg66_3_cif.got.tgz:4849.got - 2010.04.10 21:57:39.
