data_PCOD8277151
_publ_section_title
;
Structure prediction by ZEFSAII (Michael W. Deem and Ramdas Pophale) SiO2 
 PCOD8277151
Probable space group: C C C M
;
_chemical_formula_sum "Si O2"
_cell_formula_units_Z 56
_cell_length_a 24.591888
_cell_length_b 4.936044
_cell_length_c 21.964305
_cell_angle_alpha 90.000000
_cell_angle_beta 90.000000
_cell_angle_gamma 90.000000
_cell_volume 2666.173210
_symmetry_space_group_name_H-M "C C C M"
_symmetry_group_IT_number 66
_symmetry_cell_setting 'orthorhombic'
loop_
_space_group_symop_operation_xyz
x,y,z
-x,-y,z
x,-y,1/2-z
-x,y,1/2-z
-x,-y,-z
x,y,-z
-x,y,1/2+z
x,-y,1/2+z
1/2+x,1/2+y,z
1/2-x,1/2-y,z
1/2+x,1/2-y,1/2-z
1/2-x,1/2+y,1/2-z
1/2-x,1/2-y,-z
1/2+x,1/2+y,-z
1/2-x,1/2+y,1/2+z
1/2+x,1/2-y,1/2+z
loop_
_atom_site_type_symbol
_atom_site_label
_atom_site_fract_x
_atom_site_fract_y
_atom_site_fract_z
Si Si1 0.689656 0.131252 0.813740
Si Si2 0.463129 0.760300 0.568695
Si Si3 0.350133 0.625849 0.379945
Si Si4 0.289152 0.501089 0.500000
O O1 0.750000 0.250000 0.811594
O O2 0.651063 0.386420 0.829521
O O3 0.671611 0.000000 0.750000
O O4 0.686050 0.888117 0.862645
O O5 0.500000 0.500000 0.567938
O O6 0.443181 0.831748 0.500000
O O7 0.411848 0.722759 0.612528
O O8 0.500000 0.000000 0.595690
O O9 0.327806 0.494035 0.441557
O O10 0.250000 0.750000 0.500000
O O11 0.250000 0.250000 0.500000
#
# Coordination Sequence:
#
# PCOD8277151 Si02
#       4
#    16  16  16   8
#     4  12  25  42  65  90 126 172 223 260 304 380
#     4  10  21  39  64  93 128 166 211 258 314 387
#     4  12  23  41  64  94 129 167 211 265 321 381
#     4  12  24  36  56  92 132 164 196 254 331 386
#
# _framework density 21.003886999999999
#
# number of rings (size 3 to 8) (size 9 to 14) (size 15 to 20)
#    0.000    0.571    1.429    9.429    0.000    0.000 
#    0.000    0.000    0.000   12.857    0.000    0.000 
#    0.000    0.000    0.000    0.000    0.000    0.000 
#
# Total GULP energy -347311.795578 kJ/mol
# GULP energy per Si atom -12403.992699 kJ/mol
# Density = 2.095608 g / cm^3
# Si number density = 21.003887 Si / 1000 Ang^3
#
#
#
# Elastic Constant Matrix: (Units=GPa)
#
#
# Indices 1 2 3 4 5 6 
#
# 1 121.5184 64.1407 61.3102 0.0000 0.0000 0.0000
# 2 64.1407 174.6699 53.4688 0.0000 0.0000 0.0000
# 3 61.3102 53.4688 92.8658 0.0000 0.0000 0.0000
# 4 0.0000 0.0000 0.0000 44.4070 0.0000 0.0000
# 5 0.0000 0.0000 0.0000 0.0000 22.9118 0.0000
# 6 0.0000 0.0000 0.0000 0.0000 0.0000 45.0393
#
#
#
# Elastic Compliance Matrix: (Units=1/GPa)
#
#
# Indices 1 2 3 4 5 6 
#
# 1 0.013287 -0.002663 -0.007239 0.000000 0.000000 0.000000
# 2 -0.002663 0.007484 -0.002551 0.000000 0.000000 0.000000
# 3 -0.007239 -0.002551 0.017016 0.000000 0.000000 0.000000
# 4 0.000000 0.000000 0.000000 0.022519 0.000000 0.000000
# 5 0.000000 0.000000 0.000000 0.000000 0.043646 0.000000
# 6 0.000000 0.000000 0.000000 0.000000 0.000000 0.022203
#
#
# Mechanical properties :
#
#
# Convention : Reuss Voigt Hill
#
# Bulk Modulus (GPa) = 77.63095 82.98816 80.30956
# Shear Modulus (GPa) = 32.18467 36.48060 34.33264
#
# Velocity S-wave (km/s) = 3.91873 4.17207 4.04739
# Velocity P-wave (km/s) = 7.58392 7.92495 7.75631
#
# Compressibility (1/GPa) = 0.01288146
#
# Stress axis : x y z
#
# Youngs Moduli (GPa) = 75.26048 133.62091 58.76879
#
# Poissons Ratio (x) = 0.35587 0.42541
# Poissons Ratio (y) = 0.20044 0.14990
# Poissons Ratio (z) = 0.54479 0.34082
#
# Static dielectric constant tensor:
#      x y z
#    x 3.630220 0.000000 0.000000 
#    y 0.000000 4.159550 0.000000 
#    z 0.000000 0.000000 3.980460 
# 
# 
# High freq. dielectric constant tensor:
#      x y z
#    x 1.810090 0.000000 0.000000 
#    y 0.000000 1.853690 0.000000 
#    z 0.000000 0.000000 1.809140 
# 
# From -- ./inp_files/52144.got.cif
#   From: 2010.03.12/outbox.cif.g09.slc.cpg/sg66_27_cif.got.tgz:52144.got - 2010.04.10 21:57:39.
