data_PCOD8277729
_publ_section_title
;
Structure prediction by ZEFSAII (Michael W. Deem and Ramdas Pophale) SiO2 
 PCOD8277729
Probable space group: C C C M
;
_chemical_formula_sum "Si O2"
_cell_formula_units_Z 64
_cell_length_a 14.660347
_cell_length_b 24.336505
_cell_length_c 8.682782
_cell_angle_alpha 90.000000
_cell_angle_beta 90.000000
_cell_angle_gamma 90.000000
_cell_volume 3097.856924
_symmetry_space_group_name_H-M "C C C M"
_symmetry_group_IT_number 66
_symmetry_cell_setting 'orthorhombic'
loop_
_space_group_symop_operation_xyz
x,y,z
-x,-y,z
x,-y,1/2-z
-x,y,1/2-z
-x,-y,-z
x,y,-z
-x,y,1/2+z
x,-y,1/2+z
1/2+x,1/2+y,z
1/2-x,1/2-y,z
1/2+x,1/2-y,1/2-z
1/2-x,1/2+y,1/2-z
1/2-x,1/2-y,-z
1/2+x,1/2+y,-z
1/2-x,1/2+y,1/2+z
1/2+x,1/2-y,1/2+z
loop_
_atom_site_type_symbol
_atom_site_label
_atom_site_fract_x
_atom_site_fract_y
_atom_site_fract_z
Si Si1 0.260834 0.942054 0.183201
Si Si2 0.099408 0.649076 0.179530
Si Si3 0.599249 0.269651 0.819756
Si Si4 0.101003 0.120714 0.181960
O O1 0.332207 0.896635 0.245530
O O2 0.161314 0.928525 0.250702
O O3 0.293870 0.000000 0.250000
O O4 0.256167 0.943798 0.000000
O O5 0.144467 0.709769 0.210502
O O6 0.000000 0.641517 0.250000
O O7 0.086005 0.640503 0.000000
O O8 0.500000 0.264244 0.750000
O O9 0.647259 0.321001 0.734205
O O10 0.595481 0.283710 0.000000
O O11 0.000000 0.115353 0.250000
O O12 0.097068 0.116481 0.000000
#
# Coordination Sequence:
#
# PCOD8277729 Si02
#       4
#    16  16  16  16
#     4  11  24  42  59  82 113 150 195 241 282 332
#     4   9  20  37  60  86 117 152 188 231 283 335
#     4   9  16  31  55  85 116 148 183 226 278 337
#     4  11  22  38  60  87 116 150 186 231 284 339
#
# _framework density 20.659444000000001
#
# number of rings (size 3 to 8) (size 9 to 14) (size 15 to 20)
#    0.000    2.000    0.000    5.250    0.000    5.000 
#    0.000   10.000    0.000    0.000    0.000    0.000 
#    0.000    0.000    0.000    0.000    0.000    0.000 
#
# Total GULP energy -396652.593074 kJ/mol
# GULP energy per Si atom -12395.393534 kJ/mol
# Density = 2.061242 g / cm^3
# Si number density = 20.659444 Si / 1000 Ang^3
#
#
#
# Elastic Constant Matrix: (Units=GPa)
#
#
# Indices 1 2 3 4 5 6 
#
# 1 47.9943 18.3063 18.6646 0.0000 0.0000 0.0000
# 2 18.3063 107.4876 31.1740 0.0000 0.0000 0.0000
# 3 18.6646 31.1740 104.7190 0.0000 0.0000 0.0000
# 4 0.0000 0.0000 0.0000 37.9735 0.0000 0.0000
# 5 0.0000 0.0000 0.0000 0.0000 16.9461 0.0000
# 6 0.0000 0.0000 0.0000 0.0000 0.0000 35.3605
#
#
#
# Elastic Compliance Matrix: (Units=1/GPa)
#
#
# Indices 1 2 3 4 5 6 
#
# 1 0.023249 -0.003018 -0.003245 0.000000 0.000000 0.000000
# 2 -0.003018 0.010574 -0.002610 0.000000 0.000000 0.000000
# 3 -0.003245 -0.002610 0.010905 0.000000 0.000000 0.000000
# 4 0.000000 0.000000 0.000000 0.026334 0.000000 0.000000
# 5 0.000000 0.000000 0.000000 0.000000 0.059011 0.000000
# 6 0.000000 0.000000 0.000000 0.000000 0.000000 0.028280
#
#
# Mechanical properties :
#
#
# Convention : Reuss Voigt Hill
#
# Bulk Modulus (GPa) = 37.06291 44.05451 40.55871
# Shear Modulus (GPa) = 27.01331 30.85977 28.93654
#
# Velocity S-wave (km/s) = 3.61993 3.86908 3.74658
# Velocity P-wave (km/s) = 5.95405 6.42885 6.19600
#
# Compressibility (1/GPa) = 0.02698115
#
# Stress axis : x y z
#
# Youngs Moduli (GPa) = 43.01235 94.56804 91.70329
#
# Poissons Ratio (x) = 0.28544 0.29760
# Poissons Ratio (y) = 0.12983 0.23934
# Poissons Ratio (z) = 0.13959 0.24682
#
# Static dielectric constant tensor:
#      x y z
#    x 3.607900 0.000000 0.000000 
#    y 0.000000 4.476350 0.000000 
#    z 0.000000 0.000000 3.786510 
# 
# 
# High freq. dielectric constant tensor:
#      x y z
#    x 1.789800 0.000000 0.000000 
#    y 0.000000 1.821750 0.000000 
#    z 0.000000 0.000000 1.812580 
# 
# From -- ./inp_files/5061.got.cif
#   From: 2010.03.12/outbox.cif.g09.slc.cpg/sg66_3_cif.got.tgz:5061.got - 2010.04.10 21:57:39.
