data_PCOD8277252
_publ_section_title
;
Structure prediction by ZEFSAII (Michael W. Deem and Ramdas Pophale) SiO2 
 PCOD8277252
Probable space group: C C C M
;
_chemical_formula_sum "Si O2"
_cell_formula_units_Z 112
_cell_length_a 9.863195
_cell_length_b 21.447200
_cell_length_c 25.925463
_cell_angle_alpha 90.000000
_cell_angle_beta 90.000000
_cell_angle_gamma 90.000000
_cell_volume 5484.218409
_symmetry_space_group_name_H-M "C C C M"
_symmetry_group_IT_number 66
_symmetry_cell_setting 'orthorhombic'
loop_
_space_group_symop_operation_xyz
x,y,z
-x,-y,z
x,-y,1/2-z
-x,y,1/2-z
-x,-y,-z
x,y,-z
-x,y,1/2+z
x,-y,1/2+z
1/2+x,1/2+y,z
1/2-x,1/2-y,z
1/2+x,1/2-y,1/2-z
1/2-x,1/2+y,1/2-z
1/2-x,1/2-y,-z
1/2+x,1/2+y,-z
1/2-x,1/2+y,1/2+z
1/2+x,1/2-y,1/2+z
loop_
_atom_site_type_symbol
_atom_site_label
_atom_site_fract_x
_atom_site_fract_y
_atom_site_fract_z
Si Si1 0.031684 0.376294 0.941577
Si Si2 0.196536 0.557676 0.894398
Si Si3 0.351960 0.061500 0.725069
Si Si4 0.603811 0.238303 0.109918
Si Si5 0.647459 0.201462 0.227107
Si Si6 0.427718 0.638750 0.938601
Si Si7 0.806714 0.937909 0.058829
O O1 0.189548 0.387644 0.929580
O O2 0.941310 0.437461 0.928128
O O3 0.981682 0.320677 0.906619
O O4 0.009239 0.356799 0.000000
O O5 0.146695 0.554587 0.836011
O O6 0.290760 0.616731 0.909399
O O7 0.284351 0.496925 0.905248
O O8 0.500000 0.061324 0.750000
O O9 0.290159 0.131098 0.734450
O O10 0.275037 0.000000 0.750000
O O11 0.750000 0.250000 0.082167
O O12 0.629021 0.227553 0.169753
O O13 0.520792 0.299474 0.091497
O O14 0.500000 0.204846 0.250000
O O15 0.750000 0.250000 0.255284
O O16 0.545950 0.588786 0.929503
O O17 0.403592 0.649209 0.000000
O O18 0.795844 0.961045 0.000000
#
# Coordination Sequence:
#
# PCOD8277252 Si02
#       7
#    16  16  16  16  16  16  16
#     4  11  22  36  61  95 127 162 211 268 317 381
#     4  12  21  39  67  93 123 167 223 264 317 395
#     4  10  23  40  67  94 124 163 211 274 336 384
#     4  11  21  39  65  93 129 167 219 271 322 388
#     4  10  21  43  65  90 122 162 215 271 328 387
#     4  11  23  41  65  95 137 182 214 259 332 400
#     4  10  24  39  57  92 137 175 210 259 323 385
#
# _framework density 20.422236000000002
#
# number of rings (size 3 to 8) (size 9 to 14) (size 15 to 20)
#    0.000    1.286    2.857    3.429    4.000    3.429 
#    5.143    2.143    0.000    0.000    0.000    0.000 
#    0.000    0.000    0.000    0.000    0.000    0.000 
#
# Total GULP energy -693880.868866 kJ/mol
# GULP energy per Si atom -12390.729801 kJ/mol
# Density = 2.037575 g / cm^3
# Si number density = 20.422236 Si / 1000 Ang^3
#
#
#
# Elastic Constant Matrix: (Units=GPa)
#
#
# Indices 1 2 3 4 5 6 
#
# 1 60.8718 11.7659 41.4804 0.0000 0.0000 0.0000
# 2 11.7659 119.6376 46.2150 0.0000 0.0000 0.0000
# 3 41.4804 46.2150 65.9493 0.0000 0.0000 0.0000
# 4 0.0000 0.0000 0.0000 25.8955 0.0000 0.0000
# 5 0.0000 0.0000 0.0000 0.0000 12.0692 0.0000
# 6 0.0000 0.0000 0.0000 0.0000 0.0000 19.9070
#
#
#
# Elastic Compliance Matrix: (Units=1/GPa)
#
#
# Indices 1 2 3 4 5 6 
#
# 1 0.031897 0.006325 -0.024495 0.000000 0.000000 0.000000
# 2 0.006325 0.012715 -0.012889 0.000000 0.000000 0.000000
# 3 -0.024495 -0.012889 0.039602 0.000000 0.000000 0.000000
# 4 0.000000 0.000000 0.000000 0.038617 0.000000 0.000000
# 5 0.000000 0.000000 0.000000 0.000000 0.082856 0.000000
# 6 0.000000 0.000000 0.000000 0.000000 0.000000 0.050234
#
#
# Mechanical properties :
#
#
# Convention : Reuss Voigt Hill
#
# Bulk Modulus (GPa) = 45.25459 49.48682 47.37070
# Shear Modulus (GPa) = 15.36550 21.37415 18.36983
#
# Velocity S-wave (km/s) = 2.74595 3.23865 3.00242
# Velocity P-wave (km/s) = 5.67990 6.18624 5.93847
#
# Compressibility (1/GPa) = 0.02209721
#
# Stress axis : x y z
#
# Youngs Moduli (GPa) = 31.35065 78.64474 25.25119
#
# Poissons Ratio (x) = -0.49745 0.61853
# Poissons Ratio (y) = -0.19830 0.32546
# Poissons Ratio (z) = 0.76794 1.01365
#
# Static dielectric constant tensor:
#      x y z
#    x 9.414600 0.000000 0.000000 
#    y 0.000000 4.320720 0.000000 
#    z 0.000000 0.000000 3.774870 
# 
# 
# High freq. dielectric constant tensor:
#      x y z
#    x 1.784370 0.000000 0.000000 
#    y 0.000000 1.818590 0.000000 
#    z 0.000000 0.000000 1.788430 
# 
# From -- ./inp_files/57172.got.cif
#   From: 2010.03.12/outbox.cif.g09.slc.cpg/sg66_29_cif.got.tgz:57172.got - 2010.04.10 21:57:39.
