data_PCOD8277148
_publ_section_title
;
Structure prediction by ZEFSAII (Michael W. Deem and Ramdas Pophale) SiO2 
 PCOD8277148
Probable space group: C C C M
;
_chemical_formula_sum "Si O2"
_cell_formula_units_Z 56
_cell_length_a 17.270395
_cell_length_b 10.562001
_cell_length_c 13.684117
_cell_angle_alpha 90.000000
_cell_angle_beta 90.000000
_cell_angle_gamma 90.000000
_cell_volume 2496.118814
_symmetry_space_group_name_H-M "C C C M"
_symmetry_group_IT_number 66
_symmetry_cell_setting 'orthorhombic'
loop_
_space_group_symop_operation_xyz
x,y,z
-x,-y,z
x,-y,1/2-z
-x,y,1/2-z
-x,-y,-z
x,y,-z
-x,y,1/2+z
x,-y,1/2+z
1/2+x,1/2+y,z
1/2-x,1/2-y,z
1/2+x,1/2-y,1/2-z
1/2-x,1/2+y,1/2-z
1/2-x,1/2-y,-z
1/2+x,1/2+y,-z
1/2-x,1/2+y,1/2+z
1/2+x,1/2-y,1/2+z
loop_
_atom_site_type_symbol
_atom_site_label
_atom_site_fract_x
_atom_site_fract_y
_atom_site_fract_z
Si Si1 0.449865 0.373158 0.611853
Si Si2 0.164954 0.000000 0.750000
Si Si3 0.715472 0.115540 0.605336
Si Si4 0.456064 0.124738 0.884285
O O1 0.500000 0.500000 0.613644
O O2 0.418391 0.352856 0.500000
O O3 0.384216 0.391096 0.694537
O O4 0.499229 0.252081 0.647819
O O5 0.220381 0.048845 0.832564
O O6 0.706875 0.044994 0.500000
O O7 0.750000 0.250000 0.583560
O O8 0.631441 0.123098 0.658280
O O9 0.500000 0.000000 0.844648
O O10 0.450382 0.124393 0.000000
#
# Coordination Sequence:
#
# PCOD8277148 Si02
#       4
#    16   8  16  16
#     4  10  21  39  64  92 124 164 210 258 306 364
#     4  12  23  36  61  96 124 156 210 264 307 356
#     4  10  22  41  62  87 125 168 204 246 311 381
#     4   9  19  39  65  89 117 158 205 253 308 368
#
# _framework density 22.434829000000001
#
# number of rings (size 3 to 8) (size 9 to 14) (size 15 to 20)
#    0.000    2.000    0.000    3.000    0.000    6.857 
#    0.000    3.571    0.000    8.571    0.000    4.000 
#    0.000    0.000    0.000    0.000    0.000    0.000 
#
# Total GULP energy -346912.357683 kJ/mol
# GULP energy per Si atom -12389.727060 kJ/mol
# Density = 2.238377 g / cm^3
# Si number density = 22.434829 Si / 1000 Ang^3
#
#
#
# Elastic Constant Matrix: (Units=GPa)
#
#
# Indices 1 2 3 4 5 6 
#
# 1 192.8514 71.6797 59.3014 0.0000 0.0000 0.0000
# 2 71.6797 142.9543 24.8688 0.0000 0.0000 0.0000
# 3 59.3014 24.8688 83.8101 0.0000 0.0000 0.0000
# 4 0.0000 0.0000 0.0000 -525.9477 0.0000 0.0000
# 5 0.0000 0.0000 0.0000 0.0000 -108.5971 0.0000
# 6 0.0000 0.0000 0.0000 0.0000 0.0000 39.6094
#
#
#
# Elastic Compliance Matrix: (Units=1/GPa)
#
#
# Indices 1 2 3 4 5 6 
#
# 1 0.007733 -0.003085 -0.004556 0.000000 0.000000 0.000000
# 2 -0.003085 0.008607 -0.000371 0.000000 0.000000 0.000000
# 3 -0.004556 -0.000371 0.015266 0.000000 0.000000 0.000000
# 4 0.000000 0.000000 0.000000 -0.001901 0.000000 0.000000
# 5 0.000000 0.000000 0.000000 0.000000 -0.009208 0.000000
# 6 0.000000 0.000000 0.000000 0.000000 0.000000 0.025247
#
#
# Mechanical properties :
#
#
# Convention : Reuss Voigt Hill
#
# Bulk Modulus (GPa) = 64.18098 81.25729 72.71914
# Shear Modulus (GPa) = 74.67139 -101.40270 -13.36565
#
# Velocity S-wave (km/s) = 5.77546 -6.73030 -2.44346
# Velocity P-wave (km/s) = 8.55245 4.90897 4.95209
#
# Compressibility (1/GPa) = 0.01558094
#
# Stress axis : x y z
#
# Youngs Moduli (GPa) = 129.31673 116.19022 65.50626
#
# Poissons Ratio (x) = 0.35843 0.29846
# Poissons Ratio (y) = 0.39892 0.02431
# Poissons Ratio (z) = 0.58920 0.04312
#
# Static dielectric constant tensor:
#      x y z
#    x 4.283270 0.000000 0.000000 
#    y 0.000000 3.917260 0.000000 
#    z 0.000000 0.000000 4.133030 
# 
# 
# High freq. dielectric constant tensor:
#      x y z
#    x 1.886650 0.000000 0.000000 
#    y 0.000000 1.867940 0.000000 
#    z 0.000000 0.000000 1.898470 
# 
# From -- ./inp_files/25358.got.cif
#   From: 2010.03.12/outbox.cif.g09.slc.cpg/sg66_13_cif.got.tgz:25358.got - 2010.04.10 21:57:39.
