data_PCOD8277873
_publ_section_title
;
Structure prediction by ZEFSAII (Michael W. Deem and Ramdas Pophale) SiO2 
 PCOD8277873
Probable space group: C C C M
;
_chemical_formula_sum "Si O2"
_cell_formula_units_Z 64
_cell_length_a 10.095652
_cell_length_b 9.713560
_cell_length_c 26.898925
_cell_angle_alpha 90.000000
_cell_angle_beta 90.000000
_cell_angle_gamma 90.000000
_cell_volume 2637.835587
_symmetry_space_group_name_H-M "C C C M"
_symmetry_group_IT_number 66
_symmetry_cell_setting 'orthorhombic'
loop_
_space_group_symop_operation_xyz
x,y,z
-x,-y,z
x,-y,1/2-z
-x,y,1/2-z
-x,-y,-z
x,y,-z
-x,y,1/2+z
x,-y,1/2+z
1/2+x,1/2+y,z
1/2-x,1/2-y,z
1/2+x,1/2-y,1/2-z
1/2-x,1/2+y,1/2-z
1/2-x,1/2-y,-z
1/2+x,1/2+y,-z
1/2-x,1/2+y,1/2+z
1/2+x,1/2-y,1/2+z
loop_
_atom_site_type_symbol
_atom_site_label
_atom_site_fract_x
_atom_site_fract_y
_atom_site_fract_z
Si Si1 0.037179 0.211311 0.870029
Si Si2 0.773896 0.472041 0.639227
Si Si3 0.375947 0.822086 0.784855
Si Si4 0.598813 0.873703 0.445377
O O1 0.134064 0.340485 0.864382
O O2 0.118765 0.069620 0.863886
O O3 0.923176 0.216390 0.828037
O O4 0.971687 0.234412 0.924472
O O5 0.819814 0.537023 0.691639
O O6 0.789118 0.580229 0.593934
O O7 0.500000 0.854391 0.750000
O O8 0.250000 0.750000 0.756810
O O9 0.658245 0.840388 0.500000
O O10 0.500000 0.000000 0.450073
#
# Coordination Sequence:
#
# PCOD8277873 Si02
#       4
#    16  16  16  16
#     4   9  19  37  59  90 120 166 212 259 324 386
#     4   9  19  37  62  84 124 168 209 261 323 385
#     4  11  25  43  61  89 119 160 213 269 328 393
#     4   8  14  27  52  91 131 166 208 261 317 376
#
# _framework density 24.262315000000001
#
# number of rings (size 3 to 8) (size 9 to 14) (size 15 to 20)
#    0.000    2.750    0.000    2.250    3.500    4.000 
#    0.000    6.250    0.000   12.000    0.000   14.000 
#    0.000    0.000    0.000    0.000    0.000    0.000 
#
# Total GULP energy -396526.091614 kJ/mol
# GULP energy per Si atom -12391.440363 kJ/mol
# Density = 2.420709 g / cm^3
# Si number density = 24.262315 Si / 1000 Ang^3
#
#
#
# Elastic Constant Matrix: (Units=GPa)
#
#
# Indices 1 2 3 4 5 6 
#
# 1 136.4460 61.1967 45.1453 0.0000 0.0000 0.0000
# 2 61.1967 69.3265 49.7728 0.0000 0.0000 0.0000
# 3 45.1453 49.7728 128.3601 0.0000 0.0000 0.0000
# 4 0.0000 0.0000 0.0000 29.1894 0.0000 0.0000
# 5 0.0000 0.0000 0.0000 0.0000 -1.4511 0.0000
# 6 0.0000 0.0000 0.0000 0.0000 0.0000 48.9969
#
#
#
# Elastic Compliance Matrix: (Units=1/GPa)
#
#
# Indices 1 2 3 4 5 6 
#
# 1 0.012134 -0.010598 -0.000158 0.000000 0.000000 0.000000
# 2 -0.010598 0.029245 -0.007613 0.000000 0.000000 0.000000
# 3 -0.000158 -0.007613 0.010798 0.000000 0.000000 0.000000
# 4 0.000000 0.000000 0.000000 0.034259 0.000000 0.000000
# 5 0.000000 0.000000 0.000000 0.000000 -0.689127 0.000000
# 6 0.000000 0.000000 0.000000 0.000000 0.000000 0.020409
#
#
# Mechanical properties :
#
#
# Convention : Reuss Voigt Hill
#
# Bulk Modulus (GPa) = 64.76717 71.81802 68.29260
# Shear Modulus (GPa) = -9.25246 27.21490 8.98122
#
# Velocity S-wave (km/s) = -1.95494 3.35280 1.92607
# Velocity P-wave (km/s) = 4.65369 6.68231 5.75804
#
# Compressibility (1/GPa) = 0.01543992
#
# Stress axis : x y z
#
# Youngs Moduli (GPa) = 82.40991 34.19393 92.60815
#
# Poissons Ratio (x) = 0.36238 0.01467
# Poissons Ratio (y) = 0.87336 0.70500
# Poissons Ratio (z) = 0.01306 0.26031
#
# Static dielectric constant tensor:
#      x y z
#    x 4.727620 0.000000 0.000000 
#    y 0.000000 4.256740 0.000000 
#    z 0.000000 0.000000 4.651310 
# 
# 
# High freq. dielectric constant tensor:
#      x y z
#    x 1.972610 0.000000 0.000000 
#    y 0.000000 1.958700 0.000000 
#    z 0.000000 0.000000 1.948510 
# 
# From -- ./inp_files/68566.got.cif
#   From: 2010.03.12/outbox.cif.g09.slc.cpg/sg66_35_cif.got.tgz:68566.got - 2010.04.10 21:57:39.
