data_PCOD8277960
_publ_section_title
;
Structure prediction by ZEFSAII (Michael W. Deem and Ramdas Pophale) SiO2 
 PCOD8277960
Probable space group: C M M A
;
_chemical_formula_sum "Si O2"
_cell_formula_units_Z 64
_cell_length_a 18.746694
_cell_length_b 8.564767
_cell_length_c 21.041536
_cell_angle_alpha 90.000000
_cell_angle_beta 90.000000
_cell_angle_gamma 90.000000
_cell_volume 3378.451453
_symmetry_space_group_name_H-M "C M M A"
_symmetry_group_IT_number 67
_symmetry_cell_setting 'orthorhombic'
loop_
_space_group_symop_operation_xyz
x,y,z
-x,1/2-y,z
x,-y,-z
-x,1/2+y,-z
-x,-y,-z
x,1/2+y,-z
-x,y,z
x,1/2-y,z
1/2+x,1/2+y,z
1/2-x,-y,z
1/2+x,1/2-y,-z
1/2-x,y,-z
1/2-x,1/2-y,-z
1/2+x,y,-z
1/2-x,1/2+y,z
1/2+x,-y,z
loop_
_atom_site_type_symbol
_atom_site_label
_atom_site_fract_x
_atom_site_fract_y
_atom_site_fract_z
Si Si1 0.583977 0.570231 0.067044
Si Si2 0.328230 0.066880 0.179772
Si Si3 0.170139 0.934508 0.436149
Si Si4 0.170474 0.934480 0.691310
O O1 0.500000 0.551715 0.076066
O O2 0.608009 0.750000 0.071190
O O3 0.621372 0.469757 0.121022
O O4 0.608756 0.500000 0.000000
O O5 0.321872 0.250000 0.190653
O O6 0.250000 0.000000 0.165972
O O7 0.365155 0.990499 0.242715
O O8 0.170577 0.750000 0.437970
O O9 0.131477 0.000000 0.500000
O O10 0.250000 0.000000 0.434940
O O11 0.131322 0.994915 0.371562
O O12 0.169826 0.750000 0.686159
O O13 0.250000 0.000000 0.694120
#
# Coordination Sequence:
#
# PCOD8277960 Si02
#       4
#    16  16  16  16
#     4  10  21  38  58  79 103 131 164 203 248 297
#     4  11  21  34  52  75 103 134 169 207 250 298
#     4  10  16  23  34  52  79 115 157 197 239 287
#     4  10  17  27  41  60  88 122 159 199 245 292
#
# _framework density 18.94359
#
# number of rings (size 3 to 8) (size 9 to 14) (size 15 to 20)
#    0.000    1.750    0.000   11.250    0.000    2.000 
#    0.000    2.500    0.000    0.000    0.000    0.000 
#    0.000    1.000    0.000    3.750    0.000   14.000 
#
# Total GULP energy -396673.409614 kJ/mol
# GULP energy per Si atom -12396.044050 kJ/mol
# Density = 1.890047 g / cm^3
# Si number density = 18.943590 Si / 1000 Ang^3
#
#
#
# Elastic Constant Matrix: (Units=GPa)
#
#
# Indices 1 2 3 4 5 6 
#
# 1 14.5603 15.4838 26.8596 0.0000 0.0000 0.0000
# 2 15.4838 184.9674 63.3395 0.0000 0.0000 0.0000
# 3 26.8596 63.3395 190.6656 0.0000 0.0000 0.0000
# 4 0.0000 0.0000 0.0000 42.8430 0.0000 0.0000
# 5 0.0000 0.0000 0.0000 0.0000 -5.2038 0.0000
# 6 0.0000 0.0000 0.0000 0.0000 0.0000 16.0991
#
#
#
# Elastic Compliance Matrix: (Units=1/GPa)
#
#
# Indices 1 2 3 4 5 6 
#
# 1 0.095112 -0.003807 -0.012134 0.000000 0.000000 0.000000
# 2 -0.003807 0.006253 -0.001541 0.000000 0.000000 0.000000
# 3 -0.012134 -0.001541 0.007466 0.000000 0.000000 0.000000
# 4 0.000000 0.000000 0.000000 0.023341 0.000000 0.000000
# 5 0.000000 0.000000 0.000000 0.000000 -0.192168 0.000000
# 6 0.000000 0.000000 0.000000 0.000000 0.000000 0.062115
#
#
# Mechanical properties :
#
#
# Convention : Reuss Voigt Hill
#
# Bulk Modulus (GPa) = 13.53783 66.83988 40.18885
# Shear Modulus (GPa) = 81.03074 29.71501 55.37288
#
# Velocity S-wave (km/s) = 6.54734 3.96486 5.41238
# Velocity P-wave (km/s) = 8.01990 7.50469 7.76657
#
# Compressibility (1/GPa) = 0.07386711
#
# Stress axis : x y z
#
# Youngs Moduli (GPa) = 10.51394 159.93145 133.93991
#
# Poissons Ratio (x) = 0.60882 1.62524
# Poissons Ratio (y) = 0.04002 0.20639
# Poissons Ratio (z) = 0.12758 0.24644
#
# Static dielectric constant tensor:
#      x y z
#    x 2.853140 0.000000 0.000000 
#    y 0.000000 3.618100 0.000000 
#    z 0.000000 0.000000 5.141530 
# 
# 
# High freq. dielectric constant tensor:
#      x y z
#    x 1.649140 0.000000 0.000000 
#    y 0.000000 1.762020 0.000000 
#    z 0.000000 0.000000 1.775090 
# 
# From -- ./inp_files/34641.got.cif
#   From: 2010.03.12/outbox.cif.g09.slc.cpg/sg67_18_cif.got.tgz:34641.got - 2010.04.10 22:41:39.
