data_PCOD8277276
_publ_section_title
;
Structure prediction by ZEFSAII (Michael W. Deem and Ramdas Pophale) SiO2 
 PCOD8277276
Probable space group: C C C M
;
_chemical_formula_sum "Si O2"
_cell_formula_units_Z 80
_cell_length_a 23.599864
_cell_length_b 10.254689
_cell_length_c 14.638288
_cell_angle_alpha 90.000000
_cell_angle_beta 90.000000
_cell_angle_gamma 90.000000
_cell_volume 3542.601331
_symmetry_space_group_name_H-M "C C C M"
_symmetry_group_IT_number 66
_symmetry_cell_setting 'orthorhombic'
loop_
_space_group_symop_operation_xyz
x,y,z
-x,-y,z
x,-y,1/2-z
-x,y,1/2-z
-x,-y,-z
x,y,-z
-x,y,1/2+z
x,-y,1/2+z
1/2+x,1/2+y,z
1/2-x,1/2-y,z
1/2+x,1/2-y,1/2-z
1/2-x,1/2+y,1/2-z
1/2-x,1/2-y,-z
1/2+x,1/2+y,-z
1/2-x,1/2+y,1/2+z
1/2+x,1/2-y,1/2+z
loop_
_atom_site_type_symbol
_atom_site_label
_atom_site_fract_x
_atom_site_fract_y
_atom_site_fract_z
Si Si1 0.226509 0.603876 0.899467
Si Si2 0.097643 0.228207 0.102422
Si Si3 0.128222 0.302592 0.709781
Si Si4 0.520271 0.146745 0.899764
Si Si5 0.153503 0.954623 0.895898
O O1 0.250000 0.750000 0.897884
O O2 0.174922 0.595521 0.827708
O O3 0.280006 0.509592 0.874849
O O4 0.202671 0.568585 0.000000
O O5 0.132157 0.307779 0.179762
O O6 0.030883 0.251474 0.117757
O O7 0.111906 0.076302 0.116108
O O8 0.115885 0.274316 0.000000
O O9 0.065915 0.345073 0.679846
O O10 0.134932 0.155573 0.674477
O O11 0.500000 0.000000 0.899192
O O12 0.546626 0.178916 0.000000
O O13 0.150143 0.900880 0.000000
#
# Coordination Sequence:
#
# PCOD8277276 Si02
#       5
#    16  16  16  16  16
#     4   8  15  30  57  88 112 141 188 248 299 346
#     4  10  22  37  56  85 127 165 193 244 306 361
#     4  11  19  33  62  91 116 154 204 247 295 362
#     4  10  22  40  62  87 119 155 198 250 302 358
#     4   9  18  35  60  90 121 149 192 253 312 361
#
# _framework density 22.582274999999999
#
# number of rings (size 3 to 8) (size 9 to 14) (size 15 to 20)
#    0.000    2.400    0.000    4.200    0.000    2.400 
#    0.000    5.000   26.400    5.400    0.000    0.000 
#    0.000    0.000    0.000    0.000    0.000    0.000 
#
# Total GULP energy -495707.597536 kJ/mol
# GULP energy per Si atom -12392.689938 kJ/mol
# Density = 2.253088 g / cm^3
# Si number density = 22.582275 Si / 1000 Ang^3
#
#
#
# Elastic Constant Matrix: (Units=GPa)
#
#
# Indices 1 2 3 4 5 6 
#
# 1 127.5850 48.7550 51.6105 0.0000 0.0000 0.0000
# 2 48.7550 59.2980 18.9133 0.0000 0.0000 0.0000
# 3 51.6105 18.9133 159.0851 0.0000 0.0000 0.0000
# 4 0.0000 0.0000 0.0000 15.5994 0.0000 0.0000
# 5 0.0000 0.0000 0.0000 0.0000 -2.0529 0.0000
# 6 0.0000 0.0000 0.0000 0.0000 0.0000 10.1189
#
#
#
# Elastic Compliance Matrix: (Units=1/GPa)
#
#
# Indices 1 2 3 4 5 6 
#
# 1 0.012658 -0.009456 -0.002982 0.000000 0.000000 0.000000
# 2 -0.009456 0.024593 0.000144 0.000000 0.000000 0.000000
# 3 -0.002982 0.000144 0.007236 0.000000 0.000000 0.000000
# 4 0.000000 0.000000 0.000000 0.064105 0.000000 0.000000
# 5 0.000000 0.000000 0.000000 0.000000 -0.487117 0.000000
# 6 0.000000 0.000000 0.000000 0.000000 0.000000 0.098825
#
#
# Mechanical properties :
#
#
# Convention : Reuss Voigt Hill
#
# Bulk Modulus (GPa) = 50.25560 64.94729 57.60144
# Shear Modulus (GPa) = -20.12248 19.84569 -0.13840
#
# Velocity S-wave (km/s) = -2.98832 2.96770 -0.24783
# Velocity P-wave (km/s) = 3.22428 6.36912 5.04786
#
# Compressibility (1/GPa) = 0.01989828
#
# Stress axis : x y z
#
# Youngs Moduli (GPa) = 79.00253 40.66210 138.19164
#
# Poissons Ratio (x) = 0.38451 0.41212
# Poissons Ratio (y) = 0.74706 -0.01989
# Poissons Ratio (z) = 0.23560 -0.00585
#
# Static dielectric constant tensor:
#      x y z
#    x 4.275850 0.000000 0.000000 
#    y 0.000000 3.763070 0.000000 
#    z 0.000000 0.000000 4.477380 
# 
# 
# High freq. dielectric constant tensor:
#      x y z
#    x 1.884920 0.000000 0.000000 
#    y 0.000000 1.859040 0.000000 
#    z 0.000000 0.000000 1.905130 
# 
# From -- ./inp_files/32094.got.cif
#   From: 2010.03.12/outbox.cif.g09.slc.cpg/sg66_17_cif.got.tgz:32094.got - 2010.04.10 21:57:39.
