data_PCOD8277049
_publ_section_title
;
Structure prediction by ZEFSAII (Michael W. Deem and Ramdas Pophale) SiO2 
 PCOD8277049
Probable space group: C C C M
;
_chemical_formula_sum "Si O2"
_cell_formula_units_Z 88
_cell_length_a 25.360674
_cell_length_b 9.019636
_cell_length_c 20.234564
_cell_angle_alpha 90.000000
_cell_angle_beta 90.000000
_cell_angle_gamma 90.000000
_cell_volume 4628.536083
_symmetry_space_group_name_H-M "C C C M"
_symmetry_group_IT_number 66
_symmetry_cell_setting 'orthorhombic'
loop_
_space_group_symop_operation_xyz
x,y,z
-x,-y,z
x,-y,1/2-z
-x,y,1/2-z
-x,-y,-z
x,y,-z
-x,y,1/2+z
x,-y,1/2+z
1/2+x,1/2+y,z
1/2-x,1/2-y,z
1/2+x,1/2-y,1/2-z
1/2-x,1/2+y,1/2-z
1/2-x,1/2-y,-z
1/2+x,1/2+y,-z
1/2-x,1/2+y,1/2+z
1/2+x,1/2-y,1/2+z
loop_
_atom_site_type_symbol
_atom_site_label
_atom_site_fract_x
_atom_site_fract_y
_atom_site_fract_z
Si Si1 0.030853 0.858296 0.316643
Si Si2 0.952154 0.389407 0.574717
Si Si3 0.645254 0.921593 0.425820
Si Si4 0.695187 0.332198 0.153734
Si Si5 0.745599 0.586785 0.925451
Si Si6 0.873450 0.000000 0.250000
O O1 0.032674 0.738237 0.374127
O O2 0.000000 0.801721 0.250000
O O3 0.090392 0.909402 0.301224
O O4 0.000000 0.000000 0.345426
O O5 0.940524 0.327431 0.500000
O O6 0.901991 0.479292 0.603533
O O7 0.000000 0.500000 0.570791
O O8 0.630557 0.872944 0.500000
O O9 0.654738 0.772067 0.385460
O O10 0.696967 0.019194 0.424283
O O11 0.750000 0.250000 0.170751
O O12 0.705136 0.482813 0.113285
O O13 0.664661 0.375974 0.219391
O O14 0.750000 0.750000 0.892821
O O15 0.723770 0.600020 0.000000
#
# Coordination Sequence:
#
# PCOD8277049 Si02
#       6
#    16  16  16  16  16   8
#     4   9  22  43  63  84 116 157 199 241 294 361
#     4  10  22  39  62  93 121 145 192 253 299 354
#     4   9  19  36  57  86 118 148 185 231 295 357
#     4  10  21  38  57  81 115 158 194 239 290 342
#     4   9  18  33  57  86 114 149 191 237 289 351
#     4  10  23  40  58  82 118 152 201 248 276 348
#
# _framework density 19.012492999999999
#
# number of rings (size 3 to 8) (size 9 to 14) (size 15 to 20)
#    0.000    2.727    0.000    0.545    7.636    3.636 
#    3.273    0.909    0.000    0.000    0.000    0.000 
#    0.000    0.000    0.000    0.000    0.000    0.000 
#
# Total GULP energy -545438.438721 kJ/mol
# GULP energy per Si atom -12396.328153 kJ/mol
# Density = 1.896922 g / cm^3
# Si number density = 19.012493 Si / 1000 Ang^3
#
#
#
# Elastic Constant Matrix: (Units=GPa)
#
#
# Indices 1 2 3 4 5 6 
#
# 1 79.2152 42.7522 47.8176 0.0000 0.0000 0.0000
# 2 42.7522 142.9189 76.0091 0.0000 0.0000 0.0000
# 3 47.8176 76.0091 86.6460 0.0000 0.0000 0.0000
# 4 0.0000 0.0000 0.0000 18.8333 0.0000 0.0000
# 5 0.0000 0.0000 0.0000 0.0000 17.3353 0.0000
# 6 0.0000 0.0000 0.0000 0.0000 0.0000 27.7714
#
#
#
# Elastic Compliance Matrix: (Units=1/GPa)
#
#
# Indices 1 2 3 4 5 6 
#
# 1 0.018933 -0.000200 -0.010273 0.000000 0.000000 0.000000
# 2 -0.000200 0.013118 -0.011398 0.000000 0.000000 0.000000
# 3 -0.010273 -0.011398 0.027209 0.000000 0.000000 0.000000
# 4 0.000000 0.000000 0.000000 0.053097 0.000000 0.000000
# 5 0.000000 0.000000 0.000000 0.000000 0.057686 0.000000
# 6 0.000000 0.000000 0.000000 0.000000 0.000000 0.036008
#
#
# Mechanical properties :
#
#
# Convention : Reuss Voigt Hill
#
# Bulk Modulus (GPa) = 64.43696 71.32642 67.88169
# Shear Modulus (GPa) = 19.61036 22.26807 20.93921
#
# Velocity S-wave (km/s) = 3.21510 3.42604 3.32224
# Velocity P-wave (km/s) = 6.90999 7.29708 7.10617
#
# Compressibility (1/GPa) = 0.01551904
#
# Stress axis : x y z
#
# Youngs Moduli (GPa) = 52.81744 76.22855 36.75214
#
# Poissons Ratio (x) = 0.01523 0.37757
# Poissons Ratio (y) = 0.01056 0.41889
# Poissons Ratio (z) = 0.54261 0.86883
#
# Static dielectric constant tensor:
#      x y z
#    x 3.617450 0.000000 0.000000 
#    y 0.000000 2.023120 0.000000 
#    z 0.000000 0.000000 3.474690 
# 
# 
# High freq. dielectric constant tensor:
#      x y z
#    x 1.750150 0.000000 0.000000 
#    y 0.000000 1.739930 0.000000 
#    z 0.000000 0.000000 1.722140 
# 
# From -- ./inp_files/52394.got.cif
#   From: 2010.03.12/outbox.cif.g09.slc.cpg/sg66_27_cif.got.tgz:52394.got - 2010.04.10 21:57:39.
