data_PCOD8277819
_publ_section_title
;
Structure prediction by ZEFSAII (Michael W. Deem and Ramdas Pophale) SiO2 
 PCOD8277819
Probable space group: C C C M
;
_chemical_formula_sum "Si O2"
_cell_formula_units_Z 64
_cell_length_a 10.221464
_cell_length_b 12.060187
_cell_length_c 24.709221
_cell_angle_alpha 90.000000
_cell_angle_beta 90.000000
_cell_angle_gamma 90.000000
_cell_volume 3045.974049
_symmetry_space_group_name_H-M "C C C M"
_symmetry_group_IT_number 66
_symmetry_cell_setting 'orthorhombic'
loop_
_space_group_symop_operation_xyz
x,y,z
-x,-y,z
x,-y,1/2-z
-x,y,1/2-z
-x,-y,-z
x,y,-z
-x,y,1/2+z
x,-y,1/2+z
1/2+x,1/2+y,z
1/2-x,1/2-y,z
1/2+x,1/2-y,1/2-z
1/2-x,1/2+y,1/2-z
1/2-x,1/2-y,-z
1/2+x,1/2+y,-z
1/2-x,1/2+y,1/2+z
1/2+x,1/2-y,1/2+z
loop_
_atom_site_type_symbol
_atom_site_label
_atom_site_fract_x
_atom_site_fract_y
_atom_site_fract_z
Si Si1 0.465323 0.625657 0.846722
Si Si2 0.904029 0.277521 0.061952
Si Si3 0.000000 0.500000 0.619121
Si Si4 0.299231 0.067511 0.300010
Si Si5 0.000000 0.737802 0.750000
O O1 0.500000 0.500000 0.856716
O O2 0.486049 0.689400 0.903074
O O3 0.313323 0.632445 0.830899
O O4 0.551714 0.682144 0.798813
O O5 0.750000 0.250000 0.068362
O O6 0.954405 0.397642 0.081978
O O7 0.946731 0.265185 0.000000
O O8 0.876433 0.482260 0.659864
O O9 0.391322 0.162765 0.277096
O O10 0.239060 0.000000 0.250000
#
# Coordination Sequence:
#
# PCOD8277819 Si02
#       5
#    16  16   8  16   8
#     4  12  25  41  61  97 139 173 214 268 333 401
#     4  11  23  43  70  95 125 171 226 280 330 392
#     4  12  20  42  66 100 124 165 221 286 320 400
#     4  12  21  38  64  97 134 173 217 266 334 403
#     4  12  20  38  60  94 128 171 211 268 318 388
#
# _framework density 21.011341000000002
#
# number of rings (size 3 to 8) (size 9 to 14) (size 15 to 20)
#    0.000    0.250    7.500    3.000    0.000    0.500 
#    0.000    1.250    0.000    1.500    0.000    0.000 
#    0.000    0.000    0.000    0.000    0.000    0.000 
#
# Total GULP energy -396479.962379 kJ/mol
# GULP energy per Si atom -12389.998824 kJ/mol
# Density = 2.096352 g / cm^3
# Si number density = 21.011341 Si / 1000 Ang^3
#
#
#
# Elastic Constant Matrix: (Units=GPa)
#
#
# Indices 1 2 3 4 5 6 
#
# 1 64.7772 38.8810 27.4743 0.0000 0.0000 0.0000
# 2 38.8810 162.8090 82.3479 0.0000 0.0000 0.0000
# 3 27.4743 82.3479 188.9619 0.0000 0.0000 0.0000
# 4 0.0000 0.0000 0.0000 21.5799 0.0000 0.0000
# 5 0.0000 0.0000 0.0000 0.0000 22.5128 0.0000
# 6 0.0000 0.0000 0.0000 0.0000 0.0000 26.6607
#
#
#
# Elastic Compliance Matrix: (Units=1/GPa)
#
#
# Indices 1 2 3 4 5 6 
#
# 1 0.018156 -0.003849 -0.000962 0.000000 0.000000 0.000000
# 2 -0.003849 0.008695 -0.003229 0.000000 0.000000 0.000000
# 3 -0.000962 -0.003229 0.006839 0.000000 0.000000 0.000000
# 4 0.000000 0.000000 0.000000 0.046339 0.000000 0.000000
# 5 0.000000 0.000000 0.000000 0.000000 0.044419 0.000000
# 6 0.000000 0.000000 0.000000 0.000000 0.000000 0.037508
#
#
# Mechanical properties :
#
#
# Convention : Reuss Voigt Hill
#
# Bulk Modulus (GPa) = 56.79155 79.32827 68.05991
# Shear Modulus (GPa) = 27.18742 32.00702 29.59722
#
# Velocity S-wave (km/s) = 3.60104 3.90721 3.75724
# Velocity P-wave (km/s) = 6.66166 7.62837 7.16134
#
# Compressibility (1/GPa) = 0.01760825
#
# Stress axis : x y z
#
# Youngs Moduli (GPa) = 55.07798 115.01060 146.21204
#
# Poissons Ratio (x) = 0.44269 0.14071
# Poissons Ratio (y) = 0.21200 0.47219
# Poissons Ratio (z) = 0.05301 0.37143
#
# Static dielectric constant tensor:
#      x y z
#    x 3.908860 0.000000 0.000000 
#    y 0.000000 4.039190 0.000000 
#    z 0.000000 0.000000 4.362890 
# 
# 
# High freq. dielectric constant tensor:
#      x y z
#    x 1.796550 0.000000 0.000000 
#    y 0.000000 1.839000 0.000000 
#    z 0.000000 0.000000 1.834660 
# 
# From -- ./inp_files/56338.got.cif
#   From: 2010.03.12/outbox.cif.g09.slc.cpg/sg66_29_cif.got.tgz:56338.got - 2010.04.10 21:57:39.
