data_PCOD8277113
_publ_section_title
;
Structure prediction by ZEFSAII (Michael W. Deem and Ramdas Pophale) SiO2 
 PCOD8277113
Probable space group: C C C M
;
_chemical_formula_sum "Si O2"
_cell_formula_units_Z 64
_cell_length_a 10.716442
_cell_length_b 10.082298
_cell_length_c 25.515761
_cell_angle_alpha 90.000000
_cell_angle_beta 90.000000
_cell_angle_gamma 90.000000
_cell_volume 2756.885143
_symmetry_space_group_name_H-M "C C C M"
_symmetry_group_IT_number 66
_symmetry_cell_setting 'orthorhombic'
loop_
_space_group_symop_operation_xyz
x,y,z
-x,-y,z
x,-y,1/2-z
-x,y,1/2-z
-x,-y,-z
x,y,-z
-x,y,1/2+z
x,-y,1/2+z
1/2+x,1/2+y,z
1/2-x,1/2-y,z
1/2+x,1/2-y,1/2-z
1/2-x,1/2+y,1/2-z
1/2-x,1/2-y,-z
1/2+x,1/2+y,-z
1/2-x,1/2+y,1/2+z
1/2+x,1/2-y,1/2+z
loop_
_atom_site_type_symbol
_atom_site_label
_atom_site_fract_x
_atom_site_fract_y
_atom_site_fract_z
Si Si1 0.500000 0.803963 0.750000
Si Si2 0.655927 0.355242 0.174048
Si Si3 0.500000 0.500000 0.096777
Si Si4 0.757590 0.404395 0.555917
Si Si5 0.685851 0.106240 0.331311
O O1 0.391340 0.711485 0.772495
O O2 0.439500 0.894270 0.703753
O O3 0.750000 0.250000 0.147029
O O4 0.540985 0.377728 0.134406
O O5 0.721816 0.493079 0.190736
O O6 0.383315 0.458005 0.062157
O O7 0.809744 0.463488 0.500000
O O8 0.750000 0.250000 0.549028
O O9 0.840644 0.437396 0.607582
O O10 0.750000 0.250000 0.330831
#
# Coordination Sequence:
#
# PCOD8277113 Si02
#       5
#     8  16   8  16  16
#     4  12  24  40  62  86 128 172 204 254 316 372
#     4  11  25  40  59  88 123 164 208 254 306 373
#     4  10  21  39  60  88 122 160 201 255 316 368
#     4   9  17  34  63  92 117 156 210 258 306 368
#     4  10  23  40  60  93 126 162 211 257 310 376
#
# _framework density 23.214606
#
# number of rings (size 3 to 8) (size 9 to 14) (size 15 to 20)
#    0.000    1.750    0.000    5.625    0.000   11.500 
#    0.000    0.000    0.000   18.750    0.000   29.750 
#    0.000    3.000    0.000    0.000    0.000    0.250 
#
# Total GULP energy -396489.864379 kJ/mol
# GULP energy per Si atom -12390.308262 kJ/mol
# Density = 2.316177 g / cm^3
# Si number density = 23.214606 Si / 1000 Ang^3
#
#
#
# Elastic Constant Matrix: (Units=GPa)
#
#
# Indices 1 2 3 4 5 6 
#
# 1 77.9040 36.2186 73.5636 0.0000 0.0000 0.0000
# 2 36.2186 89.9280 24.2641 0.0000 0.0000 0.0000
# 3 73.5636 24.2641 210.1655 0.0000 0.0000 0.0000
# 4 0.0000 0.0000 0.0000 7.0542 0.0000 0.0000
# 5 0.0000 0.0000 0.0000 0.0000 42.8957 0.0000
# 6 0.0000 0.0000 0.0000 0.0000 0.0000 45.6049
#
#
#
# Elastic Compliance Matrix: (Units=1/GPa)
#
#
# Indices 1 2 3 4 5 6 
#
# 1 0.023078 -0.007344 -0.007230 0.000000 0.000000 0.000000
# 2 -0.007344 0.013814 0.000976 0.000000 0.000000 0.000000
# 3 -0.007230 0.000976 0.007176 0.000000 0.000000 0.000000
# 4 0.000000 0.000000 0.000000 0.141760 0.000000 0.000000
# 5 0.000000 0.000000 0.000000 0.000000 0.023312 0.000000
# 6 0.000000 0.000000 0.000000 0.000000 0.000000 0.021927
#
#
# Mechanical properties :
#
#
# Convention : Reuss Voigt Hill
#
# Bulk Modulus (GPa) = 59.26947 71.78780 65.52863
# Shear Modulus (GPa) = 18.94741 35.37439 27.16090
#
# Velocity S-wave (km/s) = 2.85999 3.90782 3.42422
# Velocity P-wave (km/s) = 6.04091 7.16604 6.62739
#
# Compressibility (1/GPa) = 0.01687209
#
# Stress axis : x y z
#
# Youngs Moduli (GPa) = 43.33197 72.38773 139.34964
#
# Poissons Ratio (x) = 0.53160 1.00749
# Poissons Ratio (y) = 0.31822 -0.13595
# Poissons Ratio (z) = 0.31329 -0.07062
#
# Static dielectric constant tensor:
#      x y z
#    x 4.019850 0.000000 0.000000 
#    y 0.000000 4.075260 0.000000 
#    z 0.000000 0.000000 4.991680 
# 
# 
# High freq. dielectric constant tensor:
#      x y z
#    x 1.898370 0.000000 0.000000 
#    y 0.000000 1.916050 0.000000 
#    z 0.000000 0.000000 1.923440 
# 
# From -- ./inp_files/63329.got.cif
#   From: 2010.03.12/outbox.cif.g09.slc.cpg/sg66_32_cif.got.tgz:63329.got - 2010.04.10 21:57:39.
