data_PCOD8277006
_publ_section_title
;
Structure prediction by ZEFSAII (Michael W. Deem and Ramdas Pophale) SiO2 
 PCOD8277006
Probable space group: C C C M
;
_chemical_formula_sum "Si O2"
_cell_formula_units_Z 96
_cell_length_a 27.069824
_cell_length_b 20.334873
_cell_length_c 8.890798
_cell_angle_alpha 90.000000
_cell_angle_beta 90.000000
_cell_angle_gamma 90.000000
_cell_volume 4894.041409
_symmetry_space_group_name_H-M "C C C M"
_symmetry_group_IT_number 66
_symmetry_cell_setting 'orthorhombic'
loop_
_space_group_symop_operation_xyz
x,y,z
-x,-y,z
x,-y,1/2-z
-x,y,1/2-z
-x,-y,-z
x,y,-z
-x,y,1/2+z
x,-y,1/2+z
1/2+x,1/2+y,z
1/2-x,1/2-y,z
1/2+x,1/2-y,1/2-z
1/2-x,1/2+y,1/2-z
1/2-x,1/2-y,-z
1/2+x,1/2+y,-z
1/2-x,1/2+y,1/2+z
1/2+x,1/2-y,1/2+z
loop_
_atom_site_type_symbol
_atom_site_label
_atom_site_fract_x
_atom_site_fract_y
_atom_site_fract_z
Si Si1 0.790833 0.803955 0.324134
Si Si2 0.735660 0.933631 0.677096
Si Si3 0.894331 0.199795 0.324613
Si Si4 0.447724 0.566917 0.323351
Si Si5 0.876402 0.433165 0.822840
Si Si6 0.448288 0.182577 0.678246
O O1 0.804308 0.803297 0.500000
O O2 0.750000 0.750000 0.286628
O O3 0.770136 0.874087 0.270222
O O4 0.839174 0.786682 0.230665
O O5 0.737006 0.941579 0.500000
O O6 0.679671 0.920158 0.731823
O O7 0.756905 0.000000 0.750000
O O8 0.898320 0.215803 0.500000
O O9 0.908961 0.124669 0.289255
O O10 0.932090 0.246395 0.237150
O O11 0.426478 0.500000 0.250000
O O12 0.500000 0.585504 0.250000
O O13 0.455483 0.556175 0.500000
O O14 0.897288 0.500000 0.750000
O O15 0.908733 0.371701 0.768482
O O16 0.879325 0.441572 0.000000
O O17 0.500000 0.162070 0.750000
O O18 0.453345 0.185529 0.500000
#
# Coordination Sequence:
#
# PCOD8277006 Si02
#       6
#    16  16  16  16  16  16
#     4  10  21  38  59  81 109 147 188 230 278 331
#     4   9  18  34  56  81 109 143 182 224 273 328
#     4  11  24  39  57  84 114 146 187 233 281 332
#     4  10  21  37  58  83 111 144 183 226 275 331
#     4   9  19  36  58  83 112 147 186 228 275 329
#     4  11  23  39  59  83 113 149 189 232 280 334
#
# _framework density 19.615690000000001
#
# number of rings (size 3 to 8) (size 9 to 14) (size 15 to 20)
#    0.000    2.000    0.000    3.500    0.000   10.000 
#    0.000    8.333    0.000    0.000    0.000    0.000 
#    0.000    0.000    0.000    0.000    0.000    0.000 
#
# Total GULP energy -595409.119006 kJ/mol
# GULP energy per Si atom -12404.356646 kJ/mol
# Density = 1.957104 g / cm^3
# Si number density = 19.615690 Si / 1000 Ang^3
#
#
#
# Elastic Constant Matrix: (Units=GPa)
#
#
# Indices 1 2 3 4 5 6 
#
# 1 61.3641 17.2299 23.3884 0.0000 0.0000 0.0000
# 2 17.2299 91.5330 32.1897 0.0000 0.0000 0.0000
# 3 23.3884 32.1897 63.2342 0.0000 0.0000 0.0000
# 4 0.0000 0.0000 0.0000 34.9138 0.0000 0.0000
# 5 0.0000 0.0000 0.0000 0.0000 17.4689 0.0000
# 6 0.0000 0.0000 0.0000 0.0000 0.0000 30.3984
#
#
#
# Elastic Compliance Matrix: (Units=1/GPa)
#
#
# Indices 1 2 3 4 5 6 
#
# 1 0.019107 -0.001354 -0.006378 0.000000 0.000000 0.000000
# 2 -0.001354 0.013403 -0.006322 0.000000 0.000000 0.000000
# 3 -0.006378 -0.006322 0.021392 0.000000 0.000000 0.000000
# 4 0.000000 0.000000 0.000000 0.028642 0.000000 0.000000
# 5 0.000000 0.000000 0.000000 0.000000 0.057244 0.000000
# 6 0.000000 0.000000 0.000000 0.000000 0.000000 0.032896
#
#
# Mechanical properties :
#
#
# Convention : Reuss Voigt Hill
#
# Bulk Modulus (GPa) = 38.76873 40.19417 39.48145
# Shear Modulus (GPa) = 23.87876 26.11111 24.99494
#
# Velocity S-wave (km/s) = 3.49281 3.65243 3.57351
# Velocity P-wave (km/s) = 6.00611 6.19050 6.09900
#
# Compressibility (1/GPa) = 0.02579399
#
# Stress axis : x y z
#
# Youngs Moduli (GPa) = 52.33628 74.60892 46.74716
#
# Poissons Ratio (x) = 0.10100 0.29816
# Poissons Ratio (y) = 0.07085 0.29555
# Poissons Ratio (z) = 0.33380 0.47170
#
# Static dielectric constant tensor:
#      x y z
#    x 3.572040 0.000000 0.000000 
#    y 0.000000 3.771660 0.000000 
#    z 0.000000 0.000000 3.519340 
# 
# 
# High freq. dielectric constant tensor:
#      x y z
#    x 1.761630 0.000000 0.000000 
#    y 0.000000 1.777870 0.000000 
#    z 0.000000 0.000000 1.762680 
# 
# From -- ./inp_files/8000.got.cif
#   From: 2010.03.12/outbox.cif.g09.slc.cpg/sg66_4_cif.got.tgz:8000.got - 2010.04.10 21:57:39.
