data_PCOD8277398
_publ_section_title
;
Structure prediction by ZEFSAII (Michael W. Deem and Ramdas Pophale) SiO2 
 PCOD8277398
Probable space group: C C C M
;
_chemical_formula_sum "Si O2"
_cell_formula_units_Z 80
_cell_length_a 4.896167
_cell_length_b 24.741469
_cell_length_c 29.689606
_cell_angle_alpha 90.000000
_cell_angle_beta 90.000000
_cell_angle_gamma 90.000000
_cell_volume 3596.550300
_symmetry_space_group_name_H-M "C C C M"
_symmetry_group_IT_number 66
_symmetry_cell_setting 'orthorhombic'
loop_
_space_group_symop_operation_xyz
x,y,z
-x,-y,z
x,-y,1/2-z
-x,y,1/2-z
-x,-y,-z
x,y,-z
-x,y,1/2+z
x,-y,1/2+z
1/2+x,1/2+y,z
1/2-x,1/2-y,z
1/2+x,1/2-y,1/2-z
1/2-x,1/2+y,1/2-z
1/2-x,1/2-y,-z
1/2+x,1/2+y,-z
1/2-x,1/2+y,1/2+z
1/2+x,1/2-y,1/2+z
loop_
_atom_site_type_symbol
_atom_site_label
_atom_site_fract_x
_atom_site_fract_y
_atom_site_fract_z
Si Si1 0.981915 0.716944 0.915154
Si Si2 0.882656 0.942451 0.400822
Si Si3 0.756700 0.338459 0.500000
Si Si4 0.391491 0.883558 0.635182
Si Si5 0.256266 0.589198 0.000000
Si Si6 0.248444 0.310876 0.782395
O O1 0.750000 0.750000 0.887015
O O2 0.067776 0.664430 0.887474
O O3 0.250000 0.750000 0.927155
O O4 0.813020 0.699407 0.958364
O O5 0.619544 0.931254 0.368021
O O6 0.804084 0.944584 0.454004
O O7 0.123024 0.898810 0.393343
O O8 0.000000 0.000000 0.385595
O O9 0.441331 0.356890 0.500000
O O10 0.942292 0.392381 0.500000
O O11 0.287515 0.861116 0.683081
O O12 0.500000 0.323153 0.750000
O O13 0.250000 0.250000 0.804465
O O14 0.000000 0.312880 0.750000
#
# Coordination Sequence:
#
# PCOD8277398 Si02
#       6
#    16  16   8  16   8  16
#     4  12  23  37  58  88 129 177 215 262 327 392
#     4  12  25  43  67  93 128 176 229 285 330 375
#     4  12  22  39  57  83 132 175 221 271 316 388
#     4  12  24  43  66  96 132 165 219 276 326 390
#     4  12  21  43  62  87 126 179 234 283 331 364
#     4  10  22  42  70 102 134 168 205 251 322 407
#
# _framework density 22.243535999999999
#
# number of rings (size 3 to 8) (size 9 to 14) (size 15 to 20)
#    0.000    0.400    4.000    5.700    0.000    2.400 
#    0.000    3.000    0.000    9.000    0.000    0.000 
#    0.000    0.000    0.000    0.000    0.000    0.000 
#
# Total GULP energy -495654.150372 kJ/mol
# GULP energy per Si atom -12391.353759 kJ/mol
# Density = 2.219291 g / cm^3
# Si number density = 22.243536 Si / 1000 Ang^3
#
#
#
# Elastic Constant Matrix: (Units=GPa)
#
#
# Indices 1 2 3 4 5 6 
#
# 1 118.4034 28.5231 29.4198 0.0000 0.0000 0.0000
# 2 28.5231 87.5330 44.2086 0.0000 0.0000 0.0000
# 3 29.4198 44.2086 103.9496 0.0000 0.0000 0.0000
# 4 0.0000 0.0000 0.0000 11.9093 0.0000 0.0000
# 5 0.0000 0.0000 0.0000 0.0000 87.1730 0.0000
# 6 0.0000 0.0000 0.0000 0.0000 0.0000 41.3956
#
#
#
# Elastic Compliance Matrix: (Units=1/GPa)
#
#
# Indices 1 2 3 4 5 6 
#
# 1 0.009403 -0.002190 -0.001730 0.000000 0.000000 0.000000
# 2 -0.002190 0.015060 -0.005785 0.000000 0.000000 0.000000
# 3 -0.001730 -0.005785 0.012570 0.000000 0.000000 0.000000
# 4 0.000000 0.000000 0.000000 0.083968 0.000000 0.000000
# 5 0.000000 0.000000 0.000000 0.000000 0.011471 0.000000
# 6 0.000000 0.000000 0.000000 0.000000 0.000000 0.024157
#
#
# Mechanical properties :
#
#
# Convention : Reuss Voigt Hill
#
# Bulk Modulus (GPa) = 56.74490 57.13209 56.93850
# Shear Modulus (GPa) = 27.48565 41.94454 34.71509
#
# Velocity S-wave (km/s) = 3.51902 4.34717 3.95483
# Velocity P-wave (km/s) = 6.48672 7.13707 6.81965
#
# Compressibility (1/GPa) = 0.01762273
#
# Stress axis : x y z
#
# Youngs Moduli (GPa) = 106.34715 66.40267 79.55593
#
# Poissons Ratio (x) = 0.14545 0.13761
# Poissons Ratio (y) = 0.23295 0.46021
# Poissons Ratio (z) = 0.18395 0.38412
#
# Static dielectric constant tensor:
#      x y z
#    x 4.096600 0.000000 0.000000 
#    y 0.000000 4.009560 0.000000 
#    z 0.000000 0.000000 3.877180 
# 
# 
# High freq. dielectric constant tensor:
#      x y z
#    x 1.899830 0.000000 0.000000 
#    y 0.000000 1.870550 0.000000 
#    z 0.000000 0.000000 1.853990 
# 
# From -- ./inp_files/67238.got.cif
#   From: 2010.03.12/outbox.cif.g09.slc.cpg/sg66_34_cif.got.tgz:67238.got - 2010.04.10 21:57:39.
