data_PCOD8277708
_publ_section_title
;
Structure prediction by ZEFSAII (Michael W. Deem and Ramdas Pophale) SiO2 
 PCOD8277708
Probable space group: C C C M
;
_chemical_formula_sum "Si O2"
_cell_formula_units_Z 128
_cell_length_a 19.430902
_cell_length_b 19.993242
_cell_length_c 15.572192
_cell_angle_alpha 90.000000
_cell_angle_beta 90.000000
_cell_angle_gamma 90.000000
_cell_volume 6049.589886
_symmetry_space_group_name_H-M "C C C M"
_symmetry_group_IT_number 66
_symmetry_cell_setting 'orthorhombic'
loop_
_space_group_symop_operation_xyz
x,y,z
-x,-y,z
x,-y,1/2-z
-x,y,1/2-z
-x,-y,-z
x,y,-z
-x,y,1/2+z
x,-y,1/2+z
1/2+x,1/2+y,z
1/2-x,1/2-y,z
1/2+x,1/2-y,1/2-z
1/2-x,1/2+y,1/2-z
1/2-x,1/2-y,-z
1/2+x,1/2+y,-z
1/2-x,1/2+y,1/2+z
1/2+x,1/2-y,1/2+z
loop_
_atom_site_type_symbol
_atom_site_label
_atom_site_fract_x
_atom_site_fract_y
_atom_site_fract_z
Si Si1 0.410947 0.300281 0.101700
Si Si2 0.403602 0.197949 0.595607
Si Si3 0.162926 0.050938 0.397670
Si Si4 0.313086 0.081893 0.397823
Si Si5 0.959003 0.335151 0.661262
Si Si6 0.849306 0.435068 0.398411
Si Si7 0.060430 0.839902 0.898170
Si Si8 0.303193 0.406630 0.898043
O O1 0.410183 0.229965 0.151712
O O2 0.479821 0.342450 0.125292
O O3 0.345930 0.342987 0.135691
O O4 0.406386 0.286583 0.000000
O O5 0.374800 0.206426 0.500000
O O6 0.353737 0.144952 0.644429
O O7 0.481280 0.168612 0.589498
O O8 0.405897 0.271291 0.640576
O O9 0.159768 0.049434 0.500000
O O10 0.234171 0.085265 0.367110
O O11 0.099734 0.095113 0.360283
O O12 0.161508 0.974985 0.361957
O O13 0.317546 0.084708 0.500000
O O14 0.348467 0.012429 0.368919
O O15 0.912135 0.400479 0.651062
O O16 0.000000 0.335995 0.750000
O O17 0.860161 0.427060 0.500000
O O18 0.776561 0.401685 0.370053
O O19 0.069317 0.837279 0.000000
O O20 0.307195 0.410122 0.000000
#
# Coordination Sequence:
#
# PCOD8277708 Si02
#       8
#    16  16  16  16  16  16  16  16
#     4   9  17  31  50  75 102 130 162 201 245 297
#     4   9  17  31  48  69  94 125 165 206 244 291
#     4   8  13  23  40  71 106 130 156 200 248 287
#     4   8  15  27  46  69  96 127 163 205 247 287
#     4  11  22  34  48  67  94 128 162 203 253 301
#     4   9  17  32  52  75 100 129 163 204 249 298
#     4   8  14  23  40  67 102 133 157 190 236 283
#     4   8  15  27  48  77 105 128 159 201 249 298
#
# _framework density 21.158458
#
# number of rings (size 3 to 8) (size 9 to 14) (size 15 to 20)
#    0.000    3.250    0.000    3.375    0.000    2.000 
#    0.000   10.000    0.000    6.000    0.000   10.500 
#    0.000    0.000    0.000    0.000    0.000    0.000 
#
# Total GULP energy -792960.519207 kJ/mol
# GULP energy per Si atom -12390.008113 kJ/mol
# Density = 2.111030 g / cm^3
# Si number density = 21.158458 Si / 1000 Ang^3
#
#
#
# Elastic Constant Matrix: (Units=GPa)
#
#
# Indices 1 2 3 4 5 6 
#
# 1 61.9116 31.7119 4.2097 0.0000 0.0000 0.0000
# 2 31.7119 68.1788 8.5348 0.0000 0.0000 0.0000
# 3 4.2097 8.5348 21.7314 0.0000 0.0000 0.0000
# 4 0.0000 0.0000 0.0000 3.8833 0.0000 0.0000
# 5 0.0000 0.0000 0.0000 0.0000 11.8091 0.0000
# 6 0.0000 0.0000 0.0000 0.0000 0.0000 53.7488
#
#
#
# Elastic Compliance Matrix: (Units=1/GPa)
#
#
# Indices 1 2 3 4 5 6 
#
# 1 0.021205 -0.009832 -0.000246 0.000000 0.000000 0.000000
# 2 -0.009832 0.019985 -0.005944 0.000000 0.000000 0.000000
# 3 -0.000246 -0.005944 0.048399 0.000000 0.000000 0.000000
# 4 0.000000 0.000000 0.000000 0.257510 0.000000 0.000000
# 5 0.000000 0.000000 0.000000 0.000000 0.084680 0.000000
# 6 0.000000 0.000000 0.000000 0.000000 0.000000 0.018605
#
#
# Mechanical properties :
#
#
# Convention : Reuss Voigt Hill
#
# Bulk Modulus (GPa) = 17.37827 26.74828 22.06328
# Shear Modulus (GPa) = 9.96790 21.04594 15.50692
#
# Velocity S-wave (km/s) = 2.17285 3.15728 2.71014
# Velocity P-wave (km/s) = 3.81134 5.09515 4.49927
#
# Compressibility (1/GPa) = 0.05754313
#
# Stress axis : x y z
#
# Youngs Moduli (GPa) = 47.15874 50.03837 20.66174
#
# Poissons Ratio (x) = 0.49199 0.00509
# Poissons Ratio (y) = 0.46367 0.12282
# Poissons Ratio (z) = 0.01161 0.29744
#
# Static dielectric constant tensor:
#      x y z
#    x 4.027220 0.000000 0.000000 
#    y 0.000000 4.187980 0.000000 
#    z 0.000000 0.000000 3.221910 
# 
# 
# High freq. dielectric constant tensor:
#      x y z
#    x 1.823680 0.000000 0.000000 
#    y 0.000000 1.830840 0.000000 
#    z 0.000000 0.000000 1.777110 
# 
# From -- ./inp_files/43179.got.cif
#   From: 2010.03.12/outbox.cif.g09.slc.cpg/sg66_22_cif.got.tgz:43179.got - 2010.04.10 21:57:39.
