data_PCOD8277141
_publ_section_title
;
Structure prediction by ZEFSAII (Michael W. Deem and Ramdas Pophale) SiO2 
 PCOD8277141
Probable space group: C C C M
;
_chemical_formula_sum "Si O2"
_cell_formula_units_Z 68
_cell_length_a 11.478806
_cell_length_b 21.205965
_cell_length_c 12.972795
_cell_angle_alpha 90.000000
_cell_angle_beta 90.000000
_cell_angle_gamma 90.000000
_cell_volume 3157.826839
_symmetry_space_group_name_H-M "C C C M"
_symmetry_group_IT_number 66
_symmetry_cell_setting 'orthorhombic'
loop_
_space_group_symop_operation_xyz
x,y,z
-x,-y,z
x,-y,1/2-z
-x,y,1/2-z
-x,-y,-z
x,y,-z
-x,y,1/2+z
x,-y,1/2+z
1/2+x,1/2+y,z
1/2-x,1/2-y,z
1/2+x,1/2-y,1/2-z
1/2-x,1/2+y,1/2-z
1/2-x,1/2-y,-z
1/2+x,1/2+y,-z
1/2-x,1/2+y,1/2+z
1/2+x,1/2-y,1/2+z
loop_
_atom_site_type_symbol
_atom_site_label
_atom_site_fract_x
_atom_site_fract_y
_atom_site_fract_z
Si Si1 0.192048 0.935270 0.622621
Si Si2 0.079929 0.326560 0.384069
Si Si3 0.111620 0.532726 0.120622
Si Si4 0.000000 0.000000 0.750000
Si Si5 0.821167 0.691345 0.178120
O O1 0.175317 0.929003 0.500000
O O2 0.071013 0.952444 0.676557
O O3 0.241060 0.870307 0.668332
O O4 0.276202 0.993042 0.653261
O O5 0.125421 0.311314 0.500000
O O6 0.117987 0.395535 0.342923
O O7 0.144821 0.286491 0.295719
O O8 0.940293 0.319454 0.385150
O O9 0.000000 0.500000 0.172308
O O10 0.094925 0.534172 0.000000
O O11 0.750000 0.750000 0.130152
#
# Coordination Sequence:
#
# PCOD8277141 Si02
#       5
#    16  16  16   4  16
#     4  11  23  42  65  91 129 168 207 260 317 377
#     4  10  21  39  63  93 123 154 201 270 332 372
#     4   9  16  33  65  98 118 140 191 262 334 377
#     4  12  26  40  58  94 128 176 214 248 300 390
#     4  11  24  40  60  90 123 166 216 254 300 380
#
# _framework density 21.533798000000001
#
# number of rings (size 3 to 8) (size 9 to 14) (size 15 to 20)
#    0.000    1.647    2.353    2.471    0.000    4.235 
#    0.000    1.176    0.000    0.000    0.000    0.000 
#    0.000    0.000    0.000    0.000    0.000    0.000 
#
# Total GULP energy -421394.206449 kJ/mol
# GULP energy per Si atom -12393.947249 kJ/mol
# Density = 2.148479 g / cm^3
# Si number density = 21.533798 Si / 1000 Ang^3
#
#
#
# Elastic Constant Matrix: (Units=GPa)
#
#
# Indices 1 2 3 4 5 6 
#
# 1 115.5954 44.8529 25.8834 0.0000 0.0000 0.0000
# 2 44.8529 91.5520 2.6451 0.0000 0.0000 0.0000
# 3 25.8834 2.6451 123.5669 0.0000 0.0000 0.0000
# 4 0.0000 0.0000 0.0000 28.8436 0.0000 0.0000
# 5 0.0000 0.0000 0.0000 0.0000 45.2060 0.0000
# 6 0.0000 0.0000 0.0000 0.0000 0.0000 33.2852
#
#
#
# Elastic Compliance Matrix: (Units=1/GPa)
#
#
# Indices 1 2 3 4 5 6 
#
# 1 0.011271 -0.005457 -0.002244 0.000000 0.000000 0.000000
# 2 -0.005457 0.013572 0.000853 0.000000 0.000000 0.000000
# 3 -0.002244 0.000853 0.008545 0.000000 0.000000 0.000000
# 4 0.000000 0.000000 0.000000 0.034670 0.000000 0.000000
# 5 0.000000 0.000000 0.000000 0.000000 0.022121 0.000000
# 6 0.000000 0.000000 0.000000 0.000000 0.000000 0.030043
#
#
# Mechanical properties :
#
#
# Convention : Reuss Voigt Hill
#
# Bulk Modulus (GPa) = 50.78709 53.05300 51.92005
# Shear Modulus (GPa) = 35.59202 38.62250 37.10726
#
# Velocity S-wave (km/s) = 4.06993 4.23966 4.15566
# Velocity P-wave (km/s) = 6.76179 6.97544 6.86945
#
# Compressibility (1/GPa) = 0.01969004
#
# Stress axis : x y z
#
# Youngs Moduli (GPa) = 88.72577 73.68364 117.03315
#
# Poissons Ratio (x) = 0.40208 0.26263
# Poissons Ratio (y) = 0.48416 -0.09977
# Poissons Ratio (z) = 0.19910 -0.06282
#
# Static dielectric constant tensor:
#      x y z
#    x 3.786350 0.000000 0.000000 
#    y 0.000000 3.741800 0.000000 
#    z 0.000000 0.000000 3.955110 
# 
# 
# High freq. dielectric constant tensor:
#      x y z
#    x 1.831920 0.000000 0.000000 
#    y 0.000000 1.826680 0.000000 
#    z 0.000000 0.000000 1.877520 
# 
# From -- ./inp_files/26105.got.cif
#   From: 2010.03.12/outbox.cif.g09.slc.cpg/sg66_14_cif.got.tgz:26105.got - 2010.04.10 21:57:39.
