data_PCOD8277431
_publ_section_title
;
Structure prediction by ZEFSAII (Michael W. Deem and Ramdas Pophale) SiO2 
 PCOD8277431
Probable space group: C C C M
;
_chemical_formula_sum "Si O2"
_cell_formula_units_Z 112
_cell_length_a 13.088646
_cell_length_b 30.336886
_cell_length_c 14.491220
_cell_angle_alpha 90.000000
_cell_angle_beta 90.000000
_cell_angle_gamma 90.000000
_cell_volume 5754.010779
_symmetry_space_group_name_H-M "C C C M"
_symmetry_group_IT_number 66
_symmetry_cell_setting 'orthorhombic'
loop_
_space_group_symop_operation_xyz
x,y,z
-x,-y,z
x,-y,1/2-z
-x,y,1/2-z
-x,-y,-z
x,y,-z
-x,y,1/2+z
x,-y,1/2+z
1/2+x,1/2+y,z
1/2-x,1/2-y,z
1/2+x,1/2-y,1/2-z
1/2-x,1/2+y,1/2-z
1/2-x,1/2-y,-z
1/2+x,1/2+y,-z
1/2-x,1/2+y,1/2+z
1/2+x,1/2-y,1/2+z
loop_
_atom_site_type_symbol
_atom_site_label
_atom_site_fract_x
_atom_site_fract_y
_atom_site_fract_z
Si Si1 0.899632 0.613845 0.399202
Si Si2 0.116551 0.846782 0.262760
Si Si3 0.067167 0.460138 0.103053
Si Si4 0.065065 0.769923 0.604675
Si Si5 0.331213 0.713178 0.894261
Si Si6 0.700561 0.099762 0.713427
Si Si7 0.423728 0.171059 0.893792
O O1 0.845082 0.613379 0.500000
O O2 0.821715 0.596975 0.322592
O O3 0.997714 0.582435 0.400732
O O4 0.953813 0.661294 0.379511
O O5 0.120982 0.805921 0.333151
O O6 0.174344 0.830706 0.169087
O O7 0.178740 0.889644 0.299570
O O8 0.000000 0.862375 0.250000
O O9 0.166131 0.446359 0.165044
O O10 0.000000 0.500000 0.146800
O O11 0.104610 0.473838 0.000000
O O12 0.092556 0.782109 0.500000
O O13 0.103446 0.721343 0.631151
O O14 0.944043 0.767958 0.620086
O O15 0.250000 0.750000 0.862727
O O16 0.309830 0.698985 0.000000
O O17 0.642975 0.141845 0.673685
O O18 0.394635 0.160969 0.000000
#
# Coordination Sequence:
#
# PCOD8277431 Si02
#       7
#    16  16  16  16  16  16  16
#     4   9  19  32  48  77 109 134 166 211 260 322
#     4  10  23  36  48  69 103 140 191 239 267 311
#     4   9  18  35  58  86 116 135 156 199 259 335
#     4   9  19  34  49  66  96 137 180 239 286 317
#     4   9  19  33  49  68  91 133 190 237 279 318
#     4  11  21  31  52  76 102 143 178 210 268 329
#     4   9  18  31  47  72 102 130 173 228 281 332
#
# _framework density 19.464683000000001
#
# number of rings (size 3 to 8) (size 9 to 14) (size 15 to 20)
#    0.000    2.571    0.000    3.000    4.000    5.143 
#    0.000    1.429    0.000    0.000    0.000    2.000 
#    0.000    3.429    0.000    0.000    0.000    0.000 
#
# Total GULP energy -693988.320708 kJ/mol
# GULP energy per Si atom -12392.648584 kJ/mol
# Density = 1.942038 g / cm^3
# Si number density = 19.464683 Si / 1000 Ang^3
#
#
#
# Elastic Constant Matrix: (Units=GPa)
#
#
# Indices 1 2 3 4 5 6 
#
# 1 75.1238 41.1832 39.6725 0.0000 0.0000 0.0000
# 2 41.1832 73.5793 31.9336 0.0000 0.0000 0.0000
# 3 39.6725 31.9336 92.7846 0.0000 0.0000 0.0000
# 4 0.0000 0.0000 0.0000 17.8180 0.0000 0.0000
# 5 0.0000 0.0000 0.0000 0.0000 7.3409 0.0000
# 6 0.0000 0.0000 0.0000 0.0000 0.0000 33.8797
#
#
#
# Elastic Compliance Matrix: (Units=1/GPa)
#
#
# Indices 1 2 3 4 5 6 
#
# 1 0.021714 -0.009551 -0.005997 0.000000 0.000000 0.000000
# 2 -0.009551 0.020178 -0.002861 0.000000 0.000000 0.000000
# 3 -0.005997 -0.002861 0.014327 0.000000 0.000000 0.000000
# 4 0.000000 0.000000 0.000000 0.056123 0.000000 0.000000
# 5 0.000000 0.000000 0.000000 0.000000 0.136223 0.000000
# 6 0.000000 0.000000 0.000000 0.000000 0.000000 0.029516
#
#
# Mechanical properties :
#
#
# Convention : Reuss Voigt Hill
#
# Bulk Modulus (GPa) = 51.54466 51.89625 51.72045
# Shear Modulus (GPa) = 15.55852 20.38761 17.97307
#
# Velocity S-wave (km/s) = 2.83029 3.23989 3.04199
# Velocity P-wave (km/s) = 6.10077 6.38087 6.24239
#
# Compressibility (1/GPa) = 0.01940065
#
# Stress axis : x y z
#
# Youngs Moduli (GPa) = 46.05237 49.55838 69.79985
#
# Poissons Ratio (x) = 0.47333 0.41862
# Poissons Ratio (y) = 0.43984 0.19970
# Poissons Ratio (z) = 0.27620 0.14179
#
# Static dielectric constant tensor:
#      x y z
#    x 3.344700 0.000000 0.000000 
#    y 0.000000 3.451150 0.000000 
#    z 0.000000 0.000000 3.916910 
# 
# 
# High freq. dielectric constant tensor:
#      x y z
#    x 1.725340 0.000000 0.000000 
#    y 0.000000 1.724230 0.000000 
#    z 0.000000 0.000000 1.773430 
# 
# From -- ./inp_files/29026.got.cif
#   From: 2010.03.12/outbox.cif.g09.slc.cpg/sg66_15_cif.got.tgz:29026.got - 2010.04.10 21:57:39.
