data_PCOD8277840
_publ_section_title
;
Structure prediction by ZEFSAII (Michael W. Deem and Ramdas Pophale) SiO2 
 PCOD8277840
Probable space group: C C C M
;
_chemical_formula_sum "Si O2"
_cell_formula_units_Z 64
_cell_length_a 4.819447
_cell_length_b 23.912917
_cell_length_c 24.539463
_cell_angle_alpha 90.000000
_cell_angle_beta 90.000000
_cell_angle_gamma 90.000000
_cell_volume 2828.100378
_symmetry_space_group_name_H-M "C C C M"
_symmetry_group_IT_number 66
_symmetry_cell_setting 'orthorhombic'
loop_
_space_group_symop_operation_xyz
x,y,z
-x,-y,z
x,-y,1/2-z
-x,y,1/2-z
-x,-y,-z
x,y,-z
-x,y,1/2+z
x,-y,1/2+z
1/2+x,1/2+y,z
1/2-x,1/2-y,z
1/2+x,1/2-y,1/2-z
1/2-x,1/2+y,1/2-z
1/2-x,1/2-y,-z
1/2+x,1/2+y,-z
1/2-x,1/2+y,1/2+z
1/2+x,1/2-y,1/2+z
loop_
_atom_site_type_symbol
_atom_site_label
_atom_site_fract_x
_atom_site_fract_y
_atom_site_fract_z
Si Si1 0.500000 0.500000 0.338429
Si Si2 0.500000 0.587765 0.250000
Si Si3 0.228692 0.658213 0.500000
Si Si4 0.500000 0.162510 0.250000
Si Si5 0.251275 0.918445 0.000000
Si Si6 0.500000 0.000000 0.588180
Si Si7 0.750000 0.250000 0.409808
Si Si8 0.250000 0.750000 0.167243
O O1 0.610409 0.550364 0.300311
O O2 0.245064 0.524444 0.374124
O O3 0.246686 0.624509 0.273563
O O4 0.429308 0.602531 0.500000
O O5 0.245522 0.694750 0.446065
O O6 0.913166 0.639048 0.500000
O O7 0.644595 0.198979 0.203557
O O8 0.337602 0.953554 0.946927
O O9 0.496910 0.266719 0.371840
#
# Coordination Sequence:
#
# PCOD8277840 Si02
#       8
#     8   8   8   8   8   8   8   8
#     4  11  24  43  64  94 130 165 214 267 318 384
#     4  11  25  42  65  94 127 168 213 265 322 382
#     4  11  24  43  64  94 130 165 214 267 317 383
#     4  12  25  43  65  94 129 167 215 266 320 384
#     4  11  24  41  64  94 128 167 212 262 319 382
#     4  11  24  41  64  94 128 167 212 263 320 384
#     4  11  25  42  65  94 127 168 213 265 322 380
#     4  12  25  43  65  94 129 167 215 266 320 384
#
# _framework density 22.630030000000001
#
# number of rings (size 3 to 8) (size 9 to 14) (size 15 to 20)
#    0.000    0.750    0.000    7.500    0.000   18.000 
#    0.000    0.000    0.000    0.000    0.000    0.000 
#    0.000    0.000    0.000    0.000    0.000    0.000 
#
# Total GULP energy -396627.886110 kJ/mol
# GULP energy per Si atom -12394.621441 kJ/mol
# Density = 2.257852 g / cm^3
# Si number density = 22.630030 Si / 1000 Ang^3
#
#
#
# Elastic Constant Matrix: (Units=GPa)
#
#
# Indices 1 2 3 4 5 6 
#
# 1 127.8261 31.3373 45.3008 0.0000 0.0000 0.0000
# 2 31.3373 107.7651 48.1294 0.0000 0.0000 0.0000
# 3 45.3008 48.1294 134.5051 0.0000 0.0000 0.0000
# 4 0.0000 0.0000 0.0000 -36.4452 0.0000 0.0000
# 5 0.0000 0.0000 0.0000 0.0000 49.8948 0.0000
# 6 0.0000 0.0000 0.0000 0.0000 0.0000 50.5013
#
#
#
# Elastic Compliance Matrix: (Units=1/GPa)
#
#
# Indices 1 2 3 4 5 6 
#
# 1 0.009087 -0.001518 -0.002517 0.000000 0.000000 0.000000
# 2 -0.001518 0.011298 -0.003531 0.000000 0.000000 0.000000
# 3 -0.002517 -0.003531 0.009546 0.000000 0.000000 0.000000
# 4 0.000000 0.000000 0.000000 -0.027438 0.000000 0.000000
# 5 0.000000 0.000000 0.000000 0.000000 0.020042 0.000000
# 6 0.000000 0.000000 0.000000 0.000000 0.000000 0.019801
#
#
# Mechanical properties :
#
#
# Convention : Reuss Voigt Hill
#
# Bulk Modulus (GPa) = 67.57835 68.84794 68.21314
# Shear Modulus (GPa) = 80.12363 29.14542 54.63452
#
# Velocity S-wave (km/s) = 5.95674 3.59264 4.91883
# Velocity P-wave (km/s) = 8.78848 6.90643 7.90367
#
# Compressibility (1/GPa) = 0.01479764
#
# Stress axis : x y z
#
# Youngs Moduli (GPa) = 110.04155 88.51020 104.75450
#
# Poissons Ratio (x) = 0.13438 0.26370
# Poissons Ratio (y) = 0.16707 0.36993
# Poissons Ratio (z) = 0.27701 0.31257
#
# Static dielectric constant tensor:
#      x y z
#    x 4.435630 0.000000 0.000000 
#    y 0.000000 3.995330 0.000000 
#    z 0.000000 0.000000 4.272470 
# 
# 
# High freq. dielectric constant tensor:
#      x y z
#    x 1.910460 0.000000 0.000000 
#    y 0.000000 1.892140 0.000000 
#    z 0.000000 0.000000 1.906160 
# 
# From -- ./inp_files/52813.got.cif
#   From: 2010.03.12/outbox.cif.g09.slc.cpg/sg66_27_cif.got.tgz:52813.got - 2010.04.10 21:57:39.
