data_PCOD8277732
_publ_section_title
;
Structure prediction by ZEFSAII (Michael W. Deem and Ramdas Pophale) SiO2 
 PCOD8277732
Probable space group: C C C M
;
_chemical_formula_sum "Si O2"
_cell_formula_units_Z 88
_cell_length_a 14.393435
_cell_length_b 12.021531
_cell_length_c 23.442617
_cell_angle_alpha 90.000000
_cell_angle_beta 90.000000
_cell_angle_gamma 90.000000
_cell_volume 4056.302394
_symmetry_space_group_name_H-M "C C C M"
_symmetry_group_IT_number 66
_symmetry_cell_setting 'orthorhombic'
loop_
_space_group_symop_operation_xyz
x,y,z
-x,-y,z
x,-y,1/2-z
-x,y,1/2-z
-x,-y,-z
x,y,-z
-x,y,1/2+z
x,-y,1/2+z
1/2+x,1/2+y,z
1/2-x,1/2-y,z
1/2+x,1/2-y,1/2-z
1/2-x,1/2+y,1/2-z
1/2-x,1/2-y,-z
1/2+x,1/2+y,-z
1/2-x,1/2+y,1/2+z
1/2+x,1/2-y,1/2+z
loop_
_atom_site_type_symbol
_atom_site_label
_atom_site_fract_x
_atom_site_fract_y
_atom_site_fract_z
Si Si1 0.396371 0.981269 0.146106
Si Si2 0.352307 0.781313 0.353615
Si Si3 0.357267 0.774947 0.934884
Si Si4 0.021691 0.869793 0.863756
Si Si5 0.233702 0.500000 0.750000
Si Si6 0.658721 0.294882 0.766691
O O1 0.368704 0.098612 0.117493
O O2 0.327649 0.953615 0.198040
O O3 0.500000 0.000000 0.169644
O O4 0.391267 0.880398 0.101731
O O5 0.250000 0.750000 0.373354
O O6 0.425073 0.691149 0.375955
O O7 0.365177 0.792839 0.284093
O O8 0.250000 0.750000 0.926937
O O9 0.410243 0.661989 0.915570
O O10 0.382557 0.801001 0.000000
O O11 0.070678 0.822428 0.806006
O O12 0.000000 0.000000 0.859660
O O13 0.305664 0.596893 0.731323
O O14 0.750000 0.250000 0.802008
#
# Coordination Sequence:
#
# PCOD8277732 Si02
#       6
#    16  16  16  16   8  16
#     4  12  24  42  70 101 137 178 227 284 342 409
#     4  11  24  42  61 102 142 179 224 275 342 411
#     4  11  27  50  74  98 130 179 235 289 347 411
#     4  12  25  42  70  98 136 185 234 283 339 411
#     4  12  21  36  65 102 140 180 214 275 335 412
#     4  11  22  38  61  98 143 182 220 264 334 420
#
# _framework density 21.694635000000002
#
# number of rings (size 3 to 8) (size 9 to 14) (size 15 to 20)
#    0.000    0.545    5.455    4.636    2.545    2.909 
#    0.000    0.000    0.000    1.091    0.000    0.000 
#    0.000    0.000    0.000    0.000    0.000    0.000 
#
# Total GULP energy -545309.410524 kJ/mol
# GULP energy per Si atom -12393.395694 kJ/mol
# Density = 2.164526 g / cm^3
# Si number density = 21.694635 Si / 1000 Ang^3
#
#
#
# Elastic Constant Matrix: (Units=GPa)
#
#
# Indices 1 2 3 4 5 6 
#
# 1 124.7413 31.0707 17.4437 0.0000 0.0000 0.0000
# 2 31.0707 111.9548 14.1189 0.0000 0.0000 0.0000
# 3 17.4437 14.1189 80.0882 0.0000 0.0000 0.0000
# 4 0.0000 0.0000 0.0000 11.2126 0.0000 0.0000
# 5 0.0000 0.0000 0.0000 0.0000 10.4091 0.0000
# 6 0.0000 0.0000 0.0000 0.0000 0.0000 42.0157
#
#
#
# Elastic Compliance Matrix: (Units=1/GPa)
#
#
# Indices 1 2 3 4 5 6 
#
# 1 0.008789 -0.002248 -0.001518 0.000000 0.000000 0.000000
# 2 -0.002248 0.009710 -0.001222 0.000000 0.000000 0.000000
# 3 -0.001518 -0.001222 0.013032 0.000000 0.000000 0.000000
# 4 0.000000 0.000000 0.000000 0.089185 0.000000 0.000000
# 5 0.000000 0.000000 0.000000 0.000000 0.096069 0.000000
# 6 0.000000 0.000000 0.000000 0.000000 0.000000 0.023801
#
#
# Mechanical properties :
#
#
# Convention : Reuss Voigt Hill
#
# Bulk Modulus (GPa) = 46.39228 49.11677 47.75453
# Shear Modulus (GPa) = 19.39882 29.67088 24.53485
#
# Velocity S-wave (km/s) = 2.99352 3.70220 3.36656
# Velocity P-wave (km/s) = 5.77745 6.40033 6.09685
#
# Compressibility (1/GPa) = 0.02155531
#
# Stress axis : x y z
#
# Youngs Moduli (GPa) = 113.78215 102.98533 76.73221
#
# Poissons Ratio (x) = 0.23148 0.11648
# Poissons Ratio (y) = 0.25575 0.09379
# Poissons Ratio (z) = 0.17272 0.12587
#
# Static dielectric constant tensor:
#      x y z
#    x 4.190720 0.000000 0.000000 
#    y 0.000000 4.374820 0.000000 
#    z 0.000000 0.000000 3.541060 
# 
# 
# High freq. dielectric constant tensor:
#      x y z
#    x 1.876940 0.000000 0.000000 
#    y 0.000000 1.879970 0.000000 
#    z 0.000000 0.000000 1.792640 
# 
# From -- ./inp_files/57998.got.cif
#   From: 2010.03.12/outbox.cif.g09.slc.cpg/sg66_29_cif.got.tgz:57998.got - 2010.04.10 21:57:39.
