data_PCOD8277410
_publ_section_title
;
Structure prediction by ZEFSAII (Michael W. Deem and Ramdas Pophale) SiO2 
 PCOD8277410
Probable space group: C C C M
;
_chemical_formula_sum "Si O2"
_cell_formula_units_Z 80
_cell_length_a 16.944016
_cell_length_b 26.486144
_cell_length_c 9.122301
_cell_angle_alpha 90.000000
_cell_angle_beta 90.000000
_cell_angle_gamma 90.000000
_cell_volume 4093.921274
_symmetry_space_group_name_H-M "C C C M"
_symmetry_group_IT_number 66
_symmetry_cell_setting 'orthorhombic'
loop_
_space_group_symop_operation_xyz
x,y,z
-x,-y,z
x,-y,1/2-z
-x,y,1/2-z
-x,-y,-z
x,y,-z
-x,y,1/2+z
x,-y,1/2+z
1/2+x,1/2+y,z
1/2-x,1/2-y,z
1/2+x,1/2-y,1/2-z
1/2-x,1/2+y,1/2-z
1/2-x,1/2-y,-z
1/2+x,1/2+y,-z
1/2-x,1/2+y,1/2+z
1/2+x,1/2-y,1/2+z
loop_
_atom_site_type_symbol
_atom_site_label
_atom_site_fract_x
_atom_site_fract_y
_atom_site_fract_z
Si Si1 0.814618 0.097200 0.725029
Si Si2 0.223908 0.306970 0.828397
Si Si3 0.348197 0.948270 0.334724
Si Si4 0.067096 0.067037 0.000000
Si Si5 0.888599 0.949724 0.500000
Si Si6 0.081270 0.353712 0.323419
O O1 0.790916 0.156085 0.739751
O O2 0.742905 0.067823 0.648255
O O3 0.896773 0.094568 0.639454
O O4 0.831950 0.067769 0.872089
O O5 0.250000 0.250000 0.808470
O O6 0.145036 0.313437 0.733642
O O7 0.209669 0.320604 0.000000
O O8 0.383158 0.952189 0.500000
O O9 0.396441 0.908642 0.237553
O O10 0.357699 0.000000 0.250000
O O11 0.973832 0.077024 0.000000
O O12 0.093613 0.008832 0.000000
O O13 0.076816 0.354036 0.500000
O O14 0.000000 0.336316 0.250000
#
# Coordination Sequence:
#
# PCOD8277410 Si02
#       6
#    16  16  16   8   8  16
#     4  11  21  37  58  86 117 159 203 257 298 371
#     4  10  22  43  69  89 117 161 207 256 314 368
#     4  11  22  36  59  88 121 162 206 248 299 360
#     4  11  20  40  53  82 121 171 204 245 300 370
#     4  11  24  32  57  84 125 163 206 245 312 362
#     4  11  23  41  64  92 126 158 199 248 304 366
#
# _framework density 19.541167999999999
#
# number of rings (size 3 to 8) (size 9 to 14) (size 15 to 20)
#    0.000    1.200    2.000    6.000    7.000    2.400 
#    0.000    4.000    0.000    0.000    0.000    0.000 
#    0.000    0.000    0.000    0.000    0.000    0.000 
#
# Total GULP energy -495858.909044 kJ/mol
# GULP energy per Si atom -12396.472726 kJ/mol
# Density = 1.949669 g / cm^3
# Si number density = 19.541168 Si / 1000 Ang^3
#
#
#
# Elastic Constant Matrix: (Units=GPa)
#
#
# Indices 1 2 3 4 5 6 
#
# 1 107.9709 41.8228 41.7910 0.0000 0.0000 0.0000
# 2 41.8228 108.2231 44.5842 0.0000 0.0000 0.0000
# 3 41.7910 44.5842 136.3582 0.0000 0.0000 0.0000
# 4 0.0000 0.0000 0.0000 32.0090 0.0000 0.0000
# 5 0.0000 0.0000 0.0000 0.0000 25.1321 0.0000
# 6 0.0000 0.0000 0.0000 0.0000 0.0000 17.3488
#
#
#
# Elastic Compliance Matrix: (Units=1/GPa)
#
#
# Indices 1 2 3 4 5 6 
#
# 1 0.011535 -0.003468 -0.002401 0.000000 0.000000 0.000000
# 2 -0.003468 0.011721 -0.002770 0.000000 0.000000 0.000000
# 3 -0.002401 -0.002770 0.008975 0.000000 0.000000 0.000000
# 4 0.000000 0.000000 0.000000 0.031241 0.000000 0.000000
# 5 0.000000 0.000000 0.000000 0.000000 0.039790 0.000000
# 6 0.000000 0.000000 0.000000 0.000000 0.000000 0.057641
#
#
# Mechanical properties :
#
#
# Convention : Reuss Voigt Hill
#
# Bulk Modulus (GPa) = 66.87552 67.66093 67.26823
# Shear Modulus (GPa) = 27.29777 29.85494 28.57635
#
# Velocity S-wave (km/s) = 3.74162 3.91294 3.82824
# Velocity P-wave (km/s) = 7.27760 7.42394 7.35113
#
# Compressibility (1/GPa) = 0.01495316
#
# Stress axis : x y z
#
# Youngs Moduli (GPa) = 86.69571 85.31357 111.42017
#
# Poissons Ratio (x) = 0.29590 0.26753
# Poissons Ratio (y) = 0.30069 0.30858
# Poissons Ratio (z) = 0.20816 0.23628
#
# Static dielectric constant tensor:
#      x y z
#    x 3.702320 0.000000 0.000000 
#    y 0.000000 3.466110 0.000000 
#    z 0.000000 0.000000 3.634790 
# 
# 
# High freq. dielectric constant tensor:
#      x y z
#    x 1.763460 0.000000 0.000000 
#    y 0.000000 1.747570 0.000000 
#    z 0.000000 0.000000 1.776080 
# 
# From -- ./inp_files/6767.got.cif
#   From: 2010.03.12/outbox.cif.g09.slc.cpg/sg66_4_cif.got.tgz:6767.got - 2010.04.10 21:57:39.
