data_PCOD8277226
_publ_section_title
;
Structure prediction by ZEFSAII (Michael W. Deem and Ramdas Pophale) SiO2 
 PCOD8277226
Probable space group: C C C M
;
_chemical_formula_sum "Si O2"
_cell_formula_units_Z 96
_cell_length_a 8.954789
_cell_length_b 20.589470
_cell_length_c 26.236232
_cell_angle_alpha 90.000000
_cell_angle_beta 90.000000
_cell_angle_gamma 90.000000
_cell_volume 4837.288470
_symmetry_space_group_name_H-M "C C C M"
_symmetry_group_IT_number 66
_symmetry_cell_setting 'orthorhombic'
loop_
_space_group_symop_operation_xyz
x,y,z
-x,-y,z
x,-y,1/2-z
-x,y,1/2-z
-x,-y,-z
x,y,-z
-x,y,1/2+z
x,-y,1/2+z
1/2+x,1/2+y,z
1/2-x,1/2-y,z
1/2+x,1/2-y,1/2-z
1/2-x,1/2+y,1/2-z
1/2-x,1/2-y,-z
1/2+x,1/2+y,-z
1/2-x,1/2+y,1/2+z
1/2+x,1/2-y,1/2+z
loop_
_atom_site_type_symbol
_atom_site_label
_atom_site_fract_x
_atom_site_fract_y
_atom_site_fract_z
Si Si1 0.931687 0.902898 0.696191
Si Si2 0.722027 0.584437 0.863712
Si Si3 0.594191 0.277123 0.863287
Si Si4 0.969740 0.654591 0.189712
Si Si5 0.147561 0.812893 0.558552
Si Si6 0.140299 0.534686 0.175199
O O1 0.867131 0.835931 0.674378
O O2 0.795243 0.953885 0.705751
O O3 0.000000 0.887727 0.750000
O O4 0.055148 0.930211 0.656623
O O5 0.723862 0.622788 0.917283
O O6 0.813202 0.516180 0.870030
O O7 0.800340 0.631716 0.821566
O O8 0.750000 0.250000 0.883272
O O9 0.494989 0.226317 0.831328
O O10 0.507636 0.300083 0.913240
O O11 0.079759 0.605304 0.158272
O O12 0.000000 0.650466 0.250000
O O13 0.114246 0.828389 0.500000
O O14 0.250000 0.750000 0.564965
O O15 0.000000 0.500000 0.205564
#
# Coordination Sequence:
#
# PCOD8277226 Si02
#       6
#    16  16  16  16  16  16
#     4  11  22  36  56  88 122 169 207 253 302 367
#     4  10  22  36  60  87 122 156 211 259 300 370
#     4  11  22  38  60  89 126 159 205 265 315 375
#     4  11  21  36  56  88 128 170 205 242 303 374
#     4  10  21  41  67  90 117 158 210 268 329 377
#     4  10  22  38  56  81 120 168 203 250 300 366
#
# _framework density 19.845829999999999
#
# number of rings (size 3 to 8) (size 9 to 14) (size 15 to 20)
#    0.000    1.500    3.333    2.000    0.000    7.333 
#    0.000    0.000    0.000   13.500    0.000    0.000 
#    0.000    0.000    0.000    0.000    0.000    0.000 
#
# Total GULP energy -594638.649969 kJ/mol
# GULP energy per Si atom -12388.305208 kJ/mol
# Density = 1.980066 g / cm^3
# Si number density = 19.845830 Si / 1000 Ang^3
#
#
#
# Elastic Constant Matrix: (Units=GPa)
#
#
# Indices 1 2 3 4 5 6 
#
# 1 121.3365 40.5303 44.9754 0.0000 0.0000 0.0000
# 2 40.5303 105.9798 53.0265 0.0000 0.0000 0.0000
# 3 44.9754 53.0265 124.5162 0.0000 0.0000 0.0000
# 4 0.0000 0.0000 0.0000 12.3560 0.0000 0.0000
# 5 0.0000 0.0000 0.0000 0.0000 16.0755 0.0000
# 6 0.0000 0.0000 0.0000 0.0000 0.0000 38.4246
#
#
#
# Elastic Compliance Matrix: (Units=1/GPa)
#
#
# Indices 1 2 3 4 5 6 
#
# 1 0.010039 -0.002573 -0.002530 0.000000 0.000000 0.000000
# 2 -0.002573 0.012650 -0.004458 0.000000 0.000000 0.000000
# 3 -0.002530 -0.004458 0.010843 0.000000 0.000000 0.000000
# 4 0.000000 0.000000 0.000000 0.080933 0.000000 0.000000
# 5 0.000000 0.000000 0.000000 0.000000 0.062206 0.000000
# 6 0.000000 0.000000 0.000000 0.000000 0.000000 0.026025
#
#
# Mechanical properties :
#
#
# Convention : Reuss Voigt Hill
#
# Bulk Modulus (GPa) = 69.39579 69.87743 69.63661
# Shear Modulus (GPa) = 22.06310 27.59123 24.82717
#
# Velocity S-wave (km/s) = 3.33787 3.73269 3.54079
# Velocity P-wave (km/s) = 7.06389 7.33920 7.20286
#
# Compressibility (1/GPa) = 0.01441010
#
# Stress axis : x y z
#
# Youngs Moduli (GPa) = 99.61184 79.04954 92.22191
#
# Poissons Ratio (x) = 0.20341 0.23334
# Poissons Ratio (y) = 0.25633 0.41111
# Poissons Ratio (z) = 0.25204 0.35239
#
# Static dielectric constant tensor:
#      x y z
#    x 3.953770 0.000000 0.000000 
#    y 0.000000 3.925250 0.000000 
#    z 0.000000 0.000000 3.152830 
# 
# 
# High freq. dielectric constant tensor:
#      x y z
#    x 1.797440 0.000000 0.000000 
#    y 0.000000 1.793180 0.000000 
#    z 0.000000 0.000000 1.712110 
# 
# From -- ./inp_files/62606.got.cif
#   From: 2010.03.12/outbox.cif.g09.slc.cpg/sg66_32_cif.got.tgz:62606.got - 2010.04.10 21:57:39.
