data_PCOD8277243
_publ_section_title
;
Structure prediction by ZEFSAII (Michael W. Deem and Ramdas Pophale) SiO2 
 PCOD8277243
Probable space group: C C C M
;
_chemical_formula_sum "Si O2"
_cell_formula_units_Z 96
_cell_length_a 17.615620
_cell_length_b 14.523150
_cell_length_c 17.796179
_cell_angle_alpha 90.000000
_cell_angle_beta 90.000000
_cell_angle_gamma 90.000000
_cell_volume 4552.872848
_symmetry_space_group_name_H-M "C C C M"
_symmetry_group_IT_number 66
_symmetry_cell_setting 'orthorhombic'
loop_
_space_group_symop_operation_xyz
x,y,z
-x,-y,z
x,-y,1/2-z
-x,y,1/2-z
-x,-y,-z
x,y,-z
-x,y,1/2+z
x,-y,1/2+z
1/2+x,1/2+y,z
1/2-x,1/2-y,z
1/2+x,1/2-y,1/2-z
1/2-x,1/2+y,1/2-z
1/2-x,1/2-y,-z
1/2+x,1/2+y,-z
1/2-x,1/2+y,1/2+z
1/2+x,1/2-y,1/2+z
loop_
_atom_site_type_symbol
_atom_site_label
_atom_site_fract_x
_atom_site_fract_y
_atom_site_fract_z
Si Si1 0.002113 0.101724 0.915862
Si Si2 0.771830 0.474538 0.168813
Si Si3 0.607281 0.826682 0.679863
Si Si4 0.441083 0.776964 0.655294
Si Si5 0.796097 0.663192 0.914216
Si Si6 0.332726 0.331002 0.415655
O O1 0.917684 0.136264 0.921488
O O2 0.049785 0.168032 0.861030
O O3 0.038641 0.100101 0.000000
O O4 0.000000 0.000000 0.880329
O O5 0.738302 0.500000 0.250000
O O6 0.855690 0.428282 0.178948
O O7 0.774641 0.568783 0.124411
O O8 0.715814 0.406899 0.126487
O O9 0.521821 0.829503 0.646646
O O10 0.599150 0.787356 0.764074
O O11 0.665909 0.764231 0.631445
O O12 0.386119 0.820331 0.593219
O O13 0.750000 0.750000 0.878675
O O14 0.772780 0.652337 0.000000
O O15 0.300507 0.313859 0.500000
#
# Coordination Sequence:
#
# PCOD8277243 Si02
#       6
#    16  16  16  16  16  16
#     4   9  19  36  63  95 130 174 216 265 328 391
#     4  12  25  41  65  96 131 175 219 270 329 396
#     4  10  23  42  66  95 129 171 219 274 326 384
#     4  10  21  42  65  93 131 172 220 273 328 387
#     4  11  26  44  66  96 132 173 218 273 333 397
#     4  10  23  41  63  95 131 168 215 271 326 386
#
# _framework density 21.085588999999999
#
# number of rings (size 3 to 8) (size 9 to 14) (size 15 to 20)
#    0.000    1.667    1.667    1.500    4.667    3.333 
#    0.000    6.667    0.000    0.000    0.000    0.000 
#    0.000    0.000    0.000    0.000    0.000    0.000 
#
# Total GULP energy -595130.925146 kJ/mol
# GULP energy per Si atom -12398.560941 kJ/mol
# Density = 2.103760 g / cm^3
# Si number density = 21.085589 Si / 1000 Ang^3
#
#
#
# Elastic Constant Matrix: (Units=GPa)
#
#
# Indices 1 2 3 4 5 6 
#
# 1 61.5177 48.3063 45.5605 0.0000 0.0000 0.0000
# 2 48.3063 142.0449 66.9705 0.0000 0.0000 0.0000
# 3 45.5605 66.9705 116.6998 0.0000 0.0000 0.0000
# 4 0.0000 0.0000 0.0000 33.7146 0.0000 0.0000
# 5 0.0000 0.0000 0.0000 0.0000 30.8500 0.0000
# 6 0.0000 0.0000 0.0000 0.0000 0.0000 22.4741
#
#
#
# Elastic Compliance Matrix: (Units=1/GPa)
#
#
# Indices 1 2 3 4 5 6 
#
# 1 0.025647 -0.005485 -0.006865 0.000000 0.000000 0.000000
# 2 -0.005485 0.010825 -0.004070 0.000000 0.000000 0.000000
# 3 -0.006865 -0.004070 0.013585 0.000000 0.000000 0.000000
# 4 0.000000 0.000000 0.000000 0.029661 0.000000 0.000000
# 5 0.000000 0.000000 0.000000 0.000000 0.032415 0.000000
# 6 0.000000 0.000000 0.000000 0.000000 0.000000 0.044496
#
#
# Mechanical properties :
#
#
# Convention : Reuss Voigt Hill
#
# Bulk Modulus (GPa) = 58.08793 71.32633 64.70713
# Shear Modulus (GPa) = 25.61379 28.03610 26.82494
#
# Velocity S-wave (km/s) = 3.48911 3.65037 3.57065
# Velocity P-wave (km/s) = 6.62120 7.18800 6.91042
#
# Compressibility (1/GPa) = 0.01721528
#
# Stress axis : x y z
#
# Youngs Moduli (GPa) = 38.99093 92.38279 73.61083
#
# Poissons Ratio (x) = 0.50675 0.50533
# Poissons Ratio (y) = 0.21388 0.29962
# Poissons Ratio (z) = 0.26767 0.37603
#
# Static dielectric constant tensor:
#      x y z
#    x 4.015420 0.000000 0.000000 
#    y 0.000000 4.008780 0.000000 
#    z 0.000000 0.000000 4.100890 
# 
# 
# High freq. dielectric constant tensor:
#      x y z
#    x 1.830500 0.000000 0.000000 
#    y 0.000000 1.831070 0.000000 
#    z 0.000000 0.000000 1.828680 
# 
# From -- ./inp_files/31207.got.cif
#   From: 2010.03.12/outbox.cif.g09.slc.cpg/sg66_16_cif.got.tgz:31207.got - 2010.04.10 21:57:39.
