data_PCOD8277432
_publ_section_title
;
Structure prediction by ZEFSAII (Michael W. Deem and Ramdas Pophale) SiO2 
 PCOD8277432
Probable space group: C C C M
;
_chemical_formula_sum "Si O2"
_cell_formula_units_Z 80
_cell_length_a 27.009851
_cell_length_b 19.875707
_cell_length_c 7.580809
_cell_angle_alpha 90.000000
_cell_angle_beta 90.000000
_cell_angle_gamma 90.000000
_cell_volume 4069.680629
_symmetry_space_group_name_H-M "C C C M"
_symmetry_group_IT_number 66
_symmetry_cell_setting 'orthorhombic'
loop_
_space_group_symop_operation_xyz
x,y,z
-x,-y,z
x,-y,1/2-z
-x,y,1/2-z
-x,-y,-z
x,y,-z
-x,y,1/2+z
x,-y,1/2+z
1/2+x,1/2+y,z
1/2-x,1/2-y,z
1/2+x,1/2-y,1/2-z
1/2-x,1/2+y,1/2-z
1/2-x,1/2-y,-z
1/2+x,1/2+y,-z
1/2-x,1/2+y,1/2+z
1/2+x,1/2-y,1/2+z
loop_
_atom_site_type_symbol
_atom_site_label
_atom_site_fract_x
_atom_site_fract_y
_atom_site_fract_z
Si Si1 0.056752 0.826631 0.295917
Si Si2 0.388507 0.803191 0.696924
Si Si3 0.644158 0.578117 0.206842
Si Si4 0.814068 0.304817 0.000000
Si Si5 0.707620 0.648021 0.500000
Si Si6 0.943287 0.571597 0.297179
O O1 0.059547 0.814716 0.500000
O O2 0.079201 0.757667 0.214554
O O3 0.091193 0.889340 0.238584
O O4 0.000000 0.841338 0.250000
O O5 0.369341 0.784015 0.500000
O O6 0.421666 0.869307 0.678161
O O7 0.342859 0.821642 0.821160
O O8 0.640638 0.500000 0.250000
O O9 0.686971 0.612435 0.323432
O O10 0.656176 0.589833 0.000000
O O11 0.767071 0.354866 0.000000
O O12 0.804401 0.226011 0.000000
O O13 0.917747 0.500000 0.250000
O O14 0.934363 0.589902 0.500000
O O15 0.000000 0.565568 0.250000
#
# Coordination Sequence:
#
# PCOD8277432 Si02
#       6
#    16  16  16   8   8  16
#     4  10  23  36  59  95 131 171 213 255 309 371
#     4  11  22  40  61  92 129 162 207 265 313 373
#     4  11  23  42  67  95 131 172 213 265 317 378
#     4  11  24  42  70  94 120 166 206 264 324 374
#     4  11  24  44  70  96 123 162 216 260 319 375
#     4  11  21  35  56  84 119 166 212 251 311 383
#
# _framework density 19.657563
#
# number of rings (size 3 to 8) (size 9 to 14) (size 15 to 20)
#    0.000    1.200    4.000    3.000    2.800    2.800 
#    0.000    5.000    0.000    0.000    0.000    0.000 
#    0.000    0.000    0.000    0.000    0.000    0.000 
#
# Total GULP energy -495890.233901 kJ/mol
# GULP energy per Si atom -12397.255848 kJ/mol
# Density = 1.961282 g / cm^3
# Si number density = 19.657563 Si / 1000 Ang^3
#
#
#
# Elastic Constant Matrix: (Units=GPa)
#
#
# Indices 1 2 3 4 5 6 
#
# 1 139.8619 66.8691 51.8437 0.0000 0.0000 0.0000
# 2 66.8691 139.0675 32.3805 0.0000 0.0000 0.0000
# 3 51.8437 32.3805 117.0113 0.0000 0.0000 0.0000
# 4 0.0000 0.0000 0.0000 25.4320 0.0000 0.0000
# 5 0.0000 0.0000 0.0000 0.0000 34.7319 0.0000
# 6 0.0000 0.0000 0.0000 0.0000 0.0000 33.4716
#
#
#
# Elastic Compliance Matrix: (Units=1/GPa)
#
#
# Indices 1 2 3 4 5 6 
#
# 1 0.010451 -0.004219 -0.003463 0.000000 0.000000 0.000000
# 2 -0.004219 0.009389 -0.000729 0.000000 0.000000 0.000000
# 3 -0.003463 -0.000729 0.010282 0.000000 0.000000 0.000000
# 4 0.000000 0.000000 0.000000 0.039320 0.000000 0.000000
# 5 0.000000 0.000000 0.000000 0.000000 0.028792 0.000000
# 6 0.000000 0.000000 0.000000 0.000000 0.000000 0.029876
#
#
# Mechanical properties :
#
#
# Convention : Reuss Voigt Hill
#
# Bulk Modulus (GPa) = 75.18490 77.56969 76.37730
# Shear Modulus (GPa) = 33.47505 35.05027 34.26266
#
# Velocity S-wave (km/s) = 4.13111 4.22719 4.17943
# Velocity P-wave (km/s) = 7.81570 7.96063 7.88850
#
# Compressibility (1/GPa) = 0.01330054
#
# Stress axis : x y z
#
# Youngs Moduli (GPa) = 95.68908 106.50724 97.25559
#
# Poissons Ratio (x) = 0.44933 0.33678
# Poissons Ratio (y) = 0.40369 0.07090
# Poissons Ratio (z) = 0.33135 0.07765
#
# Static dielectric constant tensor:
#      x y z
#    x 2.798500 0.000000 0.000000 
#    y 0.000000 3.925940 0.000000 
#    z 0.000000 0.000000 3.704440 
# 
# 
# High freq. dielectric constant tensor:
#      x y z
#    x 1.743250 0.000000 0.000000 
#    y 0.000000 1.777450 0.000000 
#    z 0.000000 0.000000 1.779520 
# 
# From -- ./inp_files/10088.got.cif
#   From: 2010.03.12/outbox.cif.g09.slc.cpg/sg66_6_cif.got.tgz:10088.got - 2010.04.10 21:57:39.
