data_PCOD8277248
_publ_section_title
;
Structure prediction by ZEFSAII (Michael W. Deem and Ramdas Pophale) SiO2 
 PCOD8277248
Probable space group: C C C M
;
_chemical_formula_sum "Si O2"
_cell_formula_units_Z 112
_cell_length_a 12.285165
_cell_length_b 28.027685
_cell_length_c 14.275942
_cell_angle_alpha 90.000000
_cell_angle_beta 90.000000
_cell_angle_gamma 90.000000
_cell_volume 4915.559943
_symmetry_space_group_name_H-M "C C C M"
_symmetry_group_IT_number 66
_symmetry_cell_setting 'orthorhombic'
loop_
_space_group_symop_operation_xyz
x,y,z
-x,-y,z
x,-y,1/2-z
-x,y,1/2-z
-x,-y,-z
x,y,-z
-x,y,1/2+z
x,-y,1/2+z
1/2+x,1/2+y,z
1/2-x,1/2-y,z
1/2+x,1/2-y,1/2-z
1/2-x,1/2+y,1/2-z
1/2-x,1/2-y,-z
1/2+x,1/2+y,-z
1/2-x,1/2+y,1/2+z
1/2+x,1/2-y,1/2+z
loop_
_atom_site_type_symbol
_atom_site_label
_atom_site_fract_x
_atom_site_fract_y
_atom_site_fract_z
Si Si1 0.430971 0.952735 0.108952
Si Si2 0.081762 0.878195 0.110285
Si Si3 0.019305 0.652702 0.110226
Si Si4 0.811004 0.705417 0.894960
Si Si5 0.835170 0.885531 0.895233
Si Si6 0.256185 0.196636 0.611157
Si Si7 0.786533 0.948618 0.726452
O O1 0.497131 0.903768 0.132377
O O2 0.328165 0.953761 0.175703
O O3 0.500000 0.000000 0.131808
O O4 0.394730 0.952211 0.000000
O O5 0.151239 0.832725 0.147428
O O6 0.127276 0.925580 0.156877
O O7 0.956770 0.873523 0.139984
O O8 0.096494 0.883044 0.000000
O O9 0.135457 0.670579 0.150155
O O10 0.921355 0.684828 0.154824
O O11 0.014505 0.660434 0.000000
O O12 0.750000 0.750000 0.842966
O O13 0.724014 0.664165 0.897595
O O14 0.842177 0.722283 0.000000
O O15 0.773935 0.920493 0.824263
O O16 0.835110 0.908458 0.000000
O O17 0.258637 0.197806 0.500000
O O18 0.250000 0.250000 0.652073
O O19 0.834936 0.000000 0.750000
#
# Coordination Sequence:
#
# PCOD8277248 Si02
#       7
#    16  16  16  16  16  16  16
#     4  10  22  42  70 102 137 177 221 279 346 403
#     4  10  21  42  68  95 130 170 220 278 337 400
#     4   9  17  33  60  95 132 168 214 270 329 397
#     4   9  19  36  61  92 130 176 223 270 327 396
#     4  10  24  43  65  94 131 178 225 275 332 402
#     4   9  17  30  58  98 133 168 210 265 333 403
#     4  12  26  43  66  96 129 168 222 279 339 404
#
# _framework density 22.784789
#
# number of rings (size 3 to 8) (size 9 to 14) (size 15 to 20)
#    0.000    2.143    1.429    0.857    4.000    2.571 
#    0.000    2.143    0.000    0.429    0.000    0.000 
#    0.000    0.000    0.000    0.000    0.000    0.000 
#
# Total GULP energy -694168.988106 kJ/mol
# GULP energy per Si atom -12395.874788 kJ/mol
# Density = 2.273293 g / cm^3
# Si number density = 22.784789 Si / 1000 Ang^3
#
#
#
# Elastic Constant Matrix: (Units=GPa)
#
#
# Indices 1 2 3 4 5 6 
#
# 1 156.4867 65.9023 36.8649 0.0000 0.0000 0.0000
# 2 65.9023 167.7997 22.0994 0.0000 0.0000 0.0000
# 3 36.8649 22.0994 57.6849 0.0000 0.0000 0.0000
# 4 0.0000 0.0000 0.0000 -0.9187 0.0000 0.0000
# 5 0.0000 0.0000 0.0000 0.0000 23.4148 0.0000
# 6 0.0000 0.0000 0.0000 0.0000 0.0000 34.3116
#
#
#
# Elastic Compliance Matrix: (Units=1/GPa)
#
#
# Indices 1 2 3 4 5 6 
#
# 1 0.008613 -0.002799 -0.004432 0.000000 0.000000 0.000000
# 2 -0.002799 0.007186 -0.000964 0.000000 0.000000 0.000000
# 3 -0.004432 -0.000964 0.020537 0.000000 0.000000 0.000000
# 4 0.000000 0.000000 0.000000 -1.088521 0.000000 0.000000
# 5 0.000000 0.000000 0.000000 0.000000 0.042708 0.000000
# 6 0.000000 0.000000 0.000000 0.000000 0.000000 0.029145
#
#
# Mechanical properties :
#
#
# Convention : Reuss Voigt Hill
#
# Bulk Modulus (GPa) = 50.13602 70.18941 60.16272
# Shear Modulus (GPa) = -5.22307 28.50186 11.63939
#
# Velocity S-wave (km/s) = -1.51569 3.54067 2.26263
# Velocity P-wave (km/s) = 4.35762 6.89836 5.76958
#
# Compressibility (1/GPa) = 0.01994574
#
# Stress axis : x y z
#
# Youngs Moduli (GPa) = 116.10042 139.16378 48.69171
#
# Poissons Ratio (x) = 0.38953 0.21581
# Poissons Ratio (y) = 0.32497 0.04694
# Poissons Ratio (z) = 0.51457 0.13417
#
# Static dielectric constant tensor:
#      x y z
#    x 4.152400 0.000000 0.000000 
#    y 0.000000 4.369770 0.000000 
#    z 0.000000 0.000000 4.113760 
# 
# 
# High freq. dielectric constant tensor:
#      x y z
#    x 1.901460 0.000000 0.000000 
#    y 0.000000 1.901130 0.000000 
#    z 0.000000 0.000000 1.893440 
# 
# From -- ./inp_files/26983.got.cif
#   From: 2010.03.12/outbox.cif.g09.slc.cpg/sg66_14_cif.got.tgz:26983.got - 2010.04.10 21:57:39.
