data_PCOD8277995
_publ_section_title
;
Structure prediction by ZEFSAII (Michael W. Deem and Ramdas Pophale) SiO2 
 PCOD8277995
Probable space group: C M M A
;
_chemical_formula_sum "Si O2"
_cell_formula_units_Z 112
_cell_length_a 14.570631
_cell_length_b 28.405275
_cell_length_c 18.449871
_cell_angle_alpha 90.000000
_cell_angle_beta 90.000000
_cell_angle_gamma 90.000000
_cell_volume 7636.083909
_symmetry_space_group_name_H-M "C M M A"
_symmetry_group_IT_number 67
_symmetry_cell_setting 'orthorhombic'
loop_
_space_group_symop_operation_xyz
x,y,z
-x,1/2-y,z
x,-y,-z
-x,1/2+y,-z
-x,-y,-z
x,1/2+y,-z
-x,y,z
x,1/2-y,z
1/2+x,1/2+y,z
1/2-x,-y,z
1/2+x,1/2-y,-z
1/2-x,y,-z
1/2-x,1/2-y,-z
1/2+x,y,-z
1/2-x,1/2+y,z
1/2+x,-y,z
loop_
_atom_site_type_symbol
_atom_site_label
_atom_site_fract_x
_atom_site_fract_y
_atom_site_fract_z
Si Si1 0.750000 0.943954 0.309614
Si Si2 0.398094 0.555986 0.579668
Si Si3 0.250000 0.176418 0.914306
Si Si4 0.602865 0.250000 0.913802
Si Si5 0.892495 0.500000 0.913888
Si Si6 0.750000 0.427704 0.855359
Si Si7 0.898094 0.444014 0.420332
Si Si8 0.397135 0.750000 0.913802
O O1 0.836740 0.924749 0.354873
O O2 0.750000 0.921689 0.230746
O O3 0.663260 0.924749 0.354873
O O4 0.750000 0.000000 0.301400
O O5 0.500000 0.575466 0.592725
O O6 0.396721 0.500000 0.581226
O O7 0.362493 0.572490 0.500000
O O8 0.341490 0.203733 0.887288
O O9 0.250000 0.124032 0.886042
O O10 0.158510 0.203733 0.887288
O O11 0.250000 0.175160 0.000000
O O12 0.500000 0.250000 0.880299
O O13 0.597088 0.250000 1.000000
O O14 0.842271 0.454138 0.881589
O O15 0.842271 0.545862 0.881589
O O16 0.000000 0.500000 0.891229
O O17 0.881423 0.500000 0.000000
O O18 0.000000 0.424534 0.407275
O O19 0.500000 0.750000 0.880299
#
# Coordination Sequence:
#
# PCOD8277995 Si02
#       8
#    16  16  16   8  16  16  16   8
#     4  10  17  26  37  56  79 111 140 176 210 241
#     4   8  14  24  38  54  72  99 137 176 209 244
#     4   9  17  29  47  65  84 108 134 173 217 259
#     4   8  15  29  48  69  85  98 125 167 217 270
#     4  10  21  35  46  55  75 114 160 194 212 234
#     4  11  20  32  43  63  87 113 145 182 219 253
#     4   8  14  24  38  54  72  99 137 176 209 244
#     4   8  15  29  48  69  85  98 125 167 217 270
#
# _framework density 14.667204
#
# number of rings (size 3 to 8) (size 9 to 14) (size 15 to 20)
#    0.000    2.857    1.429    3.857    0.000    4.000 
#    0.000    2.857    0.000    0.000    0.000    0.000 
#    0.000    0.000    0.000   10.286    0.000   26.286 
#
# Total GULP energy -693920.780374 kJ/mol
# GULP energy per Si atom -12391.442507 kJ/mol
# Density = 1.463382 g / cm^3
# Si number density = 14.667204 Si / 1000 Ang^3
#
#
#
# Elastic Constant Matrix: (Units=GPa)
#
#
# Indices 1 2 3 4 5 6 
#
# 1 130.4368 45.7039 44.3779 0.0000 0.0000 0.0000
# 2 45.7039 85.2368 15.1015 0.0000 0.0000 0.0000
# 3 44.3779 15.1015 70.5810 0.0000 0.0000 0.0000
# 4 0.0000 0.0000 0.0000 -23.4424 0.0000 0.0000
# 5 0.0000 0.0000 0.0000 0.0000 -75.3053 0.0000
# 6 0.0000 0.0000 0.0000 0.0000 0.0000 6.9015
#
#
#
# Elastic Compliance Matrix: (Units=1/GPa)
#
#
# Indices 1 2 3 4 5 6 
#
# 1 0.011554 -0.005102 -0.006173 0.000000 0.000000 0.000000
# 2 -0.005102 0.014447 0.000117 0.000000 0.000000 0.000000
# 3 -0.006173 0.000117 0.018025 0.000000 0.000000 0.000000
# 4 0.000000 0.000000 0.000000 -0.042658 0.000000 0.000000
# 5 0.000000 0.000000 0.000000 0.000000 -0.013279 0.000000
# 6 0.000000 0.000000 0.000000 0.000000 0.000000 0.144896
#
#
# Mechanical properties :
#
#
# Convention : Reuss Voigt Hill
#
# Bulk Modulus (GPa) = 46.06336 55.18014 50.62175
# Shear Modulus (GPa) = 30.76196 -6.29783 12.23206
#
# Velocity S-wave (km/s) = 4.58463 -2.07440 2.89099
# Velocity P-wave (km/s) = 7.71356 5.65381 6.76256
#
# Compressibility (1/GPa) = 0.02170923
#
# Stress axis : x y z
#
# Youngs Moduli (GPa) = 86.54637 69.21891 55.47958
#
# Poissons Ratio (x) = 0.35314 0.34249
# Poissons Ratio (y) = 0.44154 -0.00647
# Poissons Ratio (z) = 0.53428 -0.00808
#
# Static dielectric constant tensor:
#      x y z
#    x 3.261310 0.000000 0.000000 
#    y 0.000000 2.355870 0.000000 
#    z 0.000000 0.000000 2.866730 
# 
# 
# High freq. dielectric constant tensor:
#      x y z
#    x 1.577040 0.000000 0.000000 
#    y 0.000000 1.503840 0.000000 
#    z 0.000000 0.000000 1.548590 
# 
# From -- ./inp_files/33870.got.cif
#   From: 2010.03.12/outbox.cif.g09.slc.cpg/sg67_17_cif.got.tgz:33870.got - 2010.04.10 22:41:39.
