data_PCOD8277077
_publ_section_title
;
Structure prediction by ZEFSAII (Michael W. Deem and Ramdas Pophale) SiO2 
 PCOD8277077
Probable space group: C C C M
;
_chemical_formula_sum "Si O2"
_cell_formula_units_Z 56
_cell_length_a 5.004741
_cell_length_b 25.106337
_cell_length_c 22.062430
_cell_angle_alpha 90.000000
_cell_angle_beta 90.000000
_cell_angle_gamma 90.000000
_cell_volume 2772.160085
_symmetry_space_group_name_H-M "C C C M"
_symmetry_group_IT_number 66
_symmetry_cell_setting 'orthorhombic'
loop_
_space_group_symop_operation_xyz
x,y,z
-x,-y,z
x,-y,1/2-z
-x,y,1/2-z
-x,-y,-z
x,y,-z
-x,y,1/2+z
x,-y,1/2+z
1/2+x,1/2+y,z
1/2-x,1/2-y,z
1/2+x,1/2-y,1/2-z
1/2-x,1/2+y,1/2-z
1/2-x,1/2-y,-z
1/2+x,1/2+y,-z
1/2-x,1/2+y,1/2+z
1/2+x,1/2-y,1/2+z
loop_
_atom_site_type_symbol
_atom_site_label
_atom_site_fract_x
_atom_site_fract_y
_atom_site_fract_z
Si Si1 0.569148 0.057793 0.820267
Si Si2 0.402024 0.601896 0.380596
Si Si3 0.508718 0.285218 0.069825
Si Si4 0.759548 0.961835 0.000000
O O1 0.500000 0.054021 0.750000
O O2 0.368375 0.103829 0.841979
O O3 0.870784 0.070695 0.841969
O O4 0.500000 0.000000 0.849634
O O5 0.502510 0.661322 0.391321
O O6 0.294381 0.575312 0.441938
O O7 0.250000 0.250000 0.078928
O O8 0.750000 0.250000 0.094952
O O9 0.554475 0.301184 0.000000
O O10 0.500000 0.000000 0.000000
O O11 0.000000 0.000000 0.000000
#
# Coordination Sequence:
#
# PCOD8277077 Si02
#       4
#    16  16  16   8
#     4  11  24  41  63  88 121 168 215 250 295 370
#     4  12  22  40  63  90 125 161 203 258 314 367
#     4  10  21  38  61  89 121 158 205 249 303 375
#     4  12  24  36  56  94 132 160 190 248 325 382
#
# _framework density 20.200852999999999
#
# number of rings (size 3 to 8) (size 9 to 14) (size 15 to 20)
#    0.000    0.857    1.429    7.714    0.000    2.286 
#    0.000    0.000    0.000   17.143    0.000    0.000 
#    0.000    0.000    0.000    0.000    0.000    0.000 
#
# Total GULP energy -346965.669132 kJ/mol
# GULP energy per Si atom -12391.631040 kJ/mol
# Density = 2.015487 g / cm^3
# Si number density = 20.200853 Si / 1000 Ang^3
#
#
#
# Elastic Constant Matrix: (Units=GPa)
#
#
# Indices 1 2 3 4 5 6 
#
# 1 127.4378 26.3886 32.2882 0.0000 0.0000 0.0000
# 2 26.3886 113.9248 32.2742 0.0000 0.0000 0.0000
# 3 32.2882 32.2742 80.7148 0.0000 0.0000 0.0000
# 4 0.0000 0.0000 0.0000 21.7475 0.0000 0.0000
# 5 0.0000 0.0000 0.0000 0.0000 33.0778 0.0000
# 6 0.0000 0.0000 0.0000 0.0000 0.0000 32.3635
#
#
#
# Elastic Compliance Matrix: (Units=1/GPa)
#
#
# Indices 1 2 3 4 5 6 
#
# 1 0.008871 -0.001184 -0.003075 0.000000 0.000000 0.000000
# 2 -0.001184 0.010057 -0.003548 0.000000 0.000000 0.000000
# 3 -0.003075 -0.003548 0.015038 0.000000 0.000000 0.000000
# 4 0.000000 0.000000 0.000000 0.045982 0.000000 0.000000
# 5 0.000000 0.000000 0.000000 0.000000 0.030232 0.000000
# 6 0.000000 0.000000 0.000000 0.000000 0.000000 0.030899
#
#
# Mechanical properties :
#
#
# Convention : Reuss Voigt Hill
#
# Bulk Modulus (GPa) = 54.48831 55.99771 55.24301
# Shear Modulus (GPa) = 30.71049 32.84619 31.77834
#
# Velocity S-wave (km/s) = 3.90328 4.03672 3.97056
# Velocity P-wave (km/s) = 6.88084 7.03615 6.95893
#
# Compressibility (1/GPa) = 0.01835256
#
# Stress axis : x y z
#
# Youngs Moduli (GPa) = 112.72333 99.43355 66.49730
#
# Poissons Ratio (x) = 0.11769 0.20451
# Poissons Ratio (y) = 0.13342 0.23592
# Poissons Ratio (z) = 0.34668 0.35278
#
# Static dielectric constant tensor:
#      x y z
#    x 3.877890 0.000000 0.000000 
#    y 0.000000 3.716690 0.000000 
#    z 0.000000 0.000000 3.686390 
# 
# 
# High freq. dielectric constant tensor:
#      x y z
#    x 1.810960 0.000000 0.000000 
#    y 0.000000 1.788430 0.000000 
#    z 0.000000 0.000000 1.781540 
# 
# From -- ./inp_files/45481.got.cif
#   From: 2010.03.12/outbox.cif.g09.slc.cpg/sg66_23_cif.got.tgz:45481.got - 2010.04.10 21:57:39.
