data_PCOD8277979
_publ_section_title
;
Structure prediction by ZEFSAII (Michael W. Deem and Ramdas Pophale) SiO2 
 PCOD8277979
Probable space group: C M M A
;
_chemical_formula_sum "Si O2"
_cell_formula_units_Z 80
_cell_length_a 23.031956
_cell_length_b 17.955477
_cell_length_c 10.675801
_cell_angle_alpha 90.000000
_cell_angle_beta 90.000000
_cell_angle_gamma 90.000000
_cell_volume 4414.974901
_symmetry_space_group_name_H-M "C M M A"
_symmetry_group_IT_number 67
_symmetry_cell_setting 'orthorhombic'
loop_
_space_group_symop_operation_xyz
x,y,z
-x,1/2-y,z
x,-y,-z
-x,1/2+y,-z
-x,-y,-z
x,1/2+y,-z
-x,y,z
x,1/2-y,z
1/2+x,1/2+y,z
1/2-x,-y,z
1/2+x,1/2-y,-z
1/2-x,y,-z
1/2-x,1/2-y,-z
1/2+x,y,-z
1/2-x,1/2+y,z
1/2+x,-y,z
loop_
_atom_site_type_symbol
_atom_site_label
_atom_site_fract_x
_atom_site_fract_y
_atom_site_fract_z
Si Si1 0.000000 0.163637 0.895772
Si Si2 0.407367 0.039707 0.689398
Si Si3 0.500000 0.937185 0.106845
Si Si4 0.816682 0.021978 0.862072
Si Si5 0.620465 0.165040 0.216465
Si Si6 0.433750 0.110586 0.445257
O O1 0.058911 0.131875 0.833910
O O2 0.000000 0.250000 0.873881
O O3 0.000000 0.143263 0.041171
O O4 0.443446 0.060742 0.810254
O O5 0.407658 0.105789 0.586426
O O6 0.343965 0.023982 0.746242
O O7 0.435249 0.969321 0.621190
O O8 0.500000 0.000000 0.000000
O O9 0.829115 0.110287 0.835840
O O10 0.750000 0.000000 0.857490
O O11 0.841490 0.000000 0.000000
O O12 0.634466 0.250000 0.173944
O O13 0.610806 0.163142 0.367265
O O14 0.500000 0.141994 0.449085
#
# Coordination Sequence:
#
# PCOD8277979 Si02
#       6
#     8  16   8  16  16  16
#     4  10  20  31  47  77 111 136 166 213 269 333
#     4  10  18  29  49  77 105 136 179 231 275 312
#     4  12  18  26  49  76 103 138 178 223 277 323
#     4  10  21  37  56  79 108 143 193 239 276 318
#     4  10  20  35  56  81 110 145 185 225 276 340
#     4  10  16  30  49  78 109 138 176 216 274 331
#
# _framework density 18.120149000000001
#
# number of rings (size 3 to 8) (size 9 to 14) (size 15 to 20)
#    0.000    1.800    3.000    4.800    0.000    0.000 
#    0.000   11.000    0.000    4.800    0.000    0.000 
#    0.000    0.000    0.000    0.000    0.000    0.000 
#
# Total GULP energy -495619.423661 kJ/mol
# GULP energy per Si atom -12390.485592 kJ/mol
# Density = 1.807891 g / cm^3
# Si number density = 18.120149 Si / 1000 Ang^3
#
#
#
# Elastic Constant Matrix: (Units=GPa)
#
#
# Indices 1 2 3 4 5 6 
#
# 1 82.7041 37.5233 37.2733 0.0000 0.0000 0.0000
# 2 37.5233 65.0199 34.2508 0.0000 0.0000 0.0000
# 3 37.2733 34.2508 129.6546 0.0000 0.0000 0.0000
# 4 0.0000 0.0000 0.0000 23.9376 0.0000 0.0000
# 5 0.0000 0.0000 0.0000 0.0000 27.7154 0.0000
# 6 0.0000 0.0000 0.0000 0.0000 0.0000 20.9224
#
#
#
# Elastic Compliance Matrix: (Units=1/GPa)
#
#
# Indices 1 2 3 4 5 6 
#
# 1 0.017152 -0.008481 -0.002690 0.000000 0.000000 0.000000
# 2 -0.008481 0.022060 -0.003389 0.000000 0.000000 0.000000
# 3 -0.002690 -0.003389 0.009382 0.000000 0.000000 0.000000
# 4 0.000000 0.000000 0.000000 0.041775 0.000000 0.000000
# 5 0.000000 0.000000 0.000000 0.000000 0.036081 0.000000
# 6 0.000000 0.000000 0.000000 0.000000 0.000000 0.047796
#
#
# Mechanical properties :
#
#
# Convention : Reuss Voigt Hill
#
# Bulk Modulus (GPa) = 51.35723 55.05261 53.20492
# Shear Modulus (GPa) = 23.82571 25.73717 24.78144
#
# Velocity S-wave (km/s) = 3.63005 3.77286 3.70214
# Velocity P-wave (km/s) = 6.78040 7.03045 6.90656
#
# Compressibility (1/GPa) = 0.01947145
#
# Stress axis : x y z
#
# Youngs Moduli (GPa) = 58.30313 45.33119 106.59172
#
# Poissons Ratio (x) = 0.38446 0.28677
# Poissons Ratio (y) = 0.49448 0.36128
# Poissons Ratio (z) = 0.15686 0.15364
#
# Static dielectric constant tensor:
#      x y z
#    x 2.600410 0.000000 0.000000 
#    y 0.000000 3.186950 0.000000 
#    z 0.000000 0.000000 3.885110 
# 
# 
# High freq. dielectric constant tensor:
#      x y z
#    x 1.674850 0.000000 0.000000 
#    y 0.000000 1.673830 0.000000 
#    z 0.000000 0.000000 1.719520 
# 
# From -- ./inp_files/13663.got.cif
#   From: 2010.03.12/outbox.cif.g09.slc.cpg/sg67_7_cif.got.tgz:13663.got - 2010.04.10 22:41:39.
