data_PCOD8277699
_publ_section_title
;
Structure prediction by ZEFSAII (Michael W. Deem and Ramdas Pophale) SiO2 
 PCOD8277699
Probable space group: C C C M
;
_chemical_formula_sum "Si O2"
_cell_formula_units_Z 96
_cell_length_a 11.161087
_cell_length_b 22.788838
_cell_length_c 17.096866
_cell_angle_alpha 90.000000
_cell_angle_beta 90.000000
_cell_angle_gamma 90.000000
_cell_volume 4348.557153
_symmetry_space_group_name_H-M "C C C M"
_symmetry_group_IT_number 66
_symmetry_cell_setting 'orthorhombic'
loop_
_space_group_symop_operation_xyz
x,y,z
-x,-y,z
x,-y,1/2-z
-x,y,1/2-z
-x,-y,-z
x,y,-z
-x,y,1/2+z
x,-y,1/2+z
1/2+x,1/2+y,z
1/2-x,1/2-y,z
1/2+x,1/2-y,1/2-z
1/2-x,1/2+y,1/2-z
1/2-x,1/2-y,-z
1/2+x,1/2+y,-z
1/2-x,1/2+y,1/2+z
1/2+x,1/2-y,1/2+z
loop_
_atom_site_type_symbol
_atom_site_label
_atom_site_fract_x
_atom_site_fract_y
_atom_site_fract_z
Si Si1 0.331988 0.803986 0.411599
Si Si2 0.439271 0.226365 0.666641
Si Si3 0.704637 0.596234 0.164056
Si Si4 0.748475 0.874888 0.337494
Si Si5 0.129298 0.490749 0.340973
Si Si6 0.028449 0.847440 0.910535
O O1 0.296613 0.818263 0.500000
O O2 0.250000 0.750000 0.381094
O O3 0.472337 0.792094 0.403614
O O4 0.308206 0.858691 0.357240
O O5 0.500000 0.215347 0.750000
O O6 0.315131 0.189741 0.663704
O O7 0.429443 0.295725 0.649821
O O8 0.687803 0.604069 0.256734
O O9 0.758126 0.533264 0.135425
O O10 0.582289 0.613542 0.119559
O O11 0.651488 0.923053 0.361042
O O12 0.848598 0.883495 0.405326
O O13 0.110804 0.500000 0.250000
O O14 0.000000 0.500000 0.383153
O O15 0.001811 0.827125 0.000000
#
# Coordination Sequence:
#
# PCOD8277699 Si02
#       6
#    16  16  16  16  16  16
#     4  11  22  37  62  95 130 167 212 264 325 389
#     4  12  23  39  67  98 132 171 221 271 332 395
#     4  11  21  42  68  96 128 171 225 273 329 395
#     4  11  24  41  66  99 130 172 222 274 333 399
#     4   9  20  39  69 100 129 162 213 284 338 389
#     4  12  27  43  61  91 137 181 220 273 337 399
#
# _framework density 22.076287000000001
#
# number of rings (size 3 to 8) (size 9 to 14) (size 15 to 20)
#    0.000    1.000    3.333    4.000    2.333    2.667 
#    0.000    5.000    0.000    3.500    0.000    0.000 
#    0.000    0.000    0.000    0.000    0.000    0.000 
#
# Total GULP energy -594628.756048 kJ/mol
# GULP energy per Si atom -12388.099084 kJ/mol
# Density = 2.202604 g / cm^3
# Si number density = 22.076287 Si / 1000 Ang^3
#
#
#
# Elastic Constant Matrix: (Units=GPa)
#
#
# Indices 1 2 3 4 5 6 
#
# 1 141.1446 32.6651 32.6594 0.0000 0.0000 0.0000
# 2 32.6651 100.0466 21.3519 0.0000 0.0000 0.0000
# 3 32.6594 21.3519 63.7912 0.0000 0.0000 0.0000
# 4 0.0000 0.0000 0.0000 -597.4165 0.0000 0.0000
# 5 0.0000 0.0000 0.0000 0.0000 893.7899 0.0000
# 6 0.0000 0.0000 0.0000 0.0000 0.0000 7.8784
#
#
#
# Elastic Compliance Matrix: (Units=1/GPa)
#
#
# Indices 1 2 3 4 5 6 
#
# 1 0.008379 -0.001960 -0.003634 0.000000 0.000000 0.000000
# 2 -0.001960 0.011223 -0.002753 0.000000 0.000000 0.000000
# 3 -0.003634 -0.002753 0.018458 0.000000 0.000000 0.000000
# 4 0.000000 0.000000 0.000000 -0.001674 0.000000 0.000000
# 5 0.000000 0.000000 0.000000 0.000000 0.001119 0.000000
# 6 0.000000 0.000000 0.000000 0.000000 0.000000 0.126929
#
#
# Mechanical properties :
#
#
# Convention : Reuss Voigt Hill
#
# Bulk Modulus (GPa) = 46.80285 53.14836 49.97560
# Shear Modulus (GPa) = 26.56039 75.40410 50.98224
#
# Velocity S-wave (km/s) = 3.47236 5.85067 4.81080
# Velocity P-wave (km/s) = 6.10925 8.35270 7.31746
#
# Compressibility (1/GPa) = 0.02136622
#
# Stress axis : x y z
#
# Youngs Moduli (GPa) = 119.33941 89.10350 54.17697
#
# Poissons Ratio (x) = 0.17467 0.19687
# Poissons Ratio (y) = 0.23395 0.14914
# Poissons Ratio (z) = 0.43367 0.24529
#
# Static dielectric constant tensor:
#      x y z
#    x 4.142910 0.000000 0.000000 
#    y 0.000000 4.104340 0.000000 
#    z 0.000000 0.000000 3.685700 
# 
# 
# High freq. dielectric constant tensor:
#      x y z
#    x 1.884640 0.000000 0.000000 
#    y 0.000000 1.863610 0.000000 
#    z 0.000000 0.000000 1.842940 
# 
# From -- ./inp_files/38887.got.cif
#   From: 2010.03.12/outbox.cif.g09.slc.cpg/sg66_20_cif.got.tgz:38887.got - 2010.04.10 21:57:39.
