data_PCOD8277526
_publ_section_title
;
Structure prediction by ZEFSAII (Michael W. Deem and Ramdas Pophale) SiO2 
 PCOD8277526
Probable space group: C C C M
;
_chemical_formula_sum "Si O2"
_cell_formula_units_Z 48
_cell_length_a 21.464975
_cell_length_b 5.126997
_cell_length_c 17.684369
_cell_angle_alpha 90.000000
_cell_angle_beta 90.000000
_cell_angle_gamma 90.000000
_cell_volume 1946.180060
_symmetry_space_group_name_H-M "C C C M"
_symmetry_group_IT_number 66
_symmetry_cell_setting 'orthorhombic'
loop_
_space_group_symop_operation_xyz
x,y,z
-x,-y,z
x,-y,1/2-z
-x,y,1/2-z
-x,-y,-z
x,y,-z
-x,y,1/2+z
x,-y,1/2+z
1/2+x,1/2+y,z
1/2-x,1/2-y,z
1/2+x,1/2-y,1/2-z
1/2-x,1/2+y,1/2-z
1/2-x,1/2-y,-z
1/2+x,1/2+y,-z
1/2-x,1/2+y,1/2+z
1/2+x,1/2-y,1/2+z
loop_
_atom_site_type_symbol
_atom_site_label
_atom_site_fract_x
_atom_site_fract_y
_atom_site_fract_z
Si Si1 0.598924 0.000000 0.250000
Si Si2 0.817688 0.000000 0.250000
Si Si3 0.250000 0.750000 0.876812
Si Si4 0.500000 0.000000 0.375327
Si Si5 0.851390 0.278987 0.000000
Si Si6 0.936104 0.230308 0.500000
O O1 0.640841 0.248807 0.266294
O O2 0.558092 0.077338 0.177126
O O3 0.772699 0.016674 0.177138
O O4 0.191025 0.669248 0.926946
O O5 0.481145 0.743896 0.426046
O O6 0.904756 0.487662 0.000000
O O7 0.884546 0.995571 0.000000
#
# Coordination Sequence:
#
# PCOD8277526 Si02
#       6
#     8   8   8   8   8   8
#     4  11  25  42  65  98 135 176 225 281 342 402
#     4  12  25  43  67  98 135 177 227 282 340 406
#     4  11  26  44  70  99 136 180 228 279 340 402
#     4  10  24  42  68  98 134 178 226 280 340 404
#     4  11  26  45  68 100 136 179 227 280 337 404
#     4  11  24  43  68  98 134 176 227 277 335 402
#
# _framework density 24.663699000000001
#
# number of rings (size 3 to 8) (size 9 to 14) (size 15 to 20)
#    0.000    1.000    0.000    5.000    0.000   16.000 
#    0.000    0.000    0.000    0.000    0.000    0.000 
#    0.000    0.000    0.000    0.000    0.000    0.000 
#
# Total GULP energy -297515.618617 kJ/mol
# GULP energy per Si atom -12396.484109 kJ/mol
# Density = 2.460756 g / cm^3
# Si number density = 24.663699 Si / 1000 Ang^3
#
#
#
# Elastic Constant Matrix: (Units=GPa)
#
#
# Indices 1 2 3 4 5 6 
#
# 1 163.5002 81.1324 88.2256 0.0000 0.0000 0.0000
# 2 81.1324 138.5069 48.7976 0.0000 0.0000 0.0000
# 3 88.2256 48.7976 188.3418 0.0000 0.0000 0.0000
# 4 0.0000 0.0000 0.0000 -0.0241 0.0000 0.0000
# 5 0.0000 0.0000 0.0000 0.0000 -27.2072 0.0000
# 6 0.0000 0.0000 0.0000 0.0000 0.0000 12.6170
#
#
#
# Elastic Compliance Matrix: (Units=1/GPa)
#
#
# Indices 1 2 3 4 5 6 
#
# 1 0.010505 -0.004864 -0.003661 0.000000 0.000000 0.000000
# 2 -0.004864 0.010197 -0.000364 0.000000 0.000000 0.000000
# 3 -0.003661 -0.000364 0.007119 0.000000 0.000000 0.000000
# 4 0.000000 0.000000 0.000000-41.427739 0.000000 0.000000
# 5 0.000000 0.000000 0.000000 0.000000 -0.036755 0.000000
# 6 0.000000 0.000000 0.000000 0.000000 0.000000 0.079258
#
#
# Mechanical properties :
#
#
# Convention : Reuss Voigt Hill
#
# Bulk Modulus (GPa) = 99.55874 102.96223 101.26048
# Shear Modulus (GPa) = -0.12096 15.22336 7.55120
#
# Velocity S-wave (km/s) = -0.22170 2.48712 1.75166
# Velocity P-wave (km/s) = 6.35520 7.07706 6.72582
#
# Compressibility (1/GPa) = 0.01004432
#
# Stress axis : x y z
#
# Youngs Moduli (GPa) = 95.19201 98.06826 140.47854
#
# Poissons Ratio (x) = 0.47698 0.51426
# Poissons Ratio (y) = 0.46299 0.05108
# Poissons Ratio (z) = 0.34848 0.03566
#
# Static dielectric constant tensor:
#      x y z
#    x 4.909190 0.000000 0.000000 
#    y 0.000000 3.531020 0.000000 
#    z 0.000000 0.000000 5.354140 
# 
# 
# High freq. dielectric constant tensor:
#      x y z
#    x 2.017720 0.000000 0.000000 
#    y 0.000000 1.963400 0.000000 
#    z 0.000000 0.000000 2.002420 
# 
# From -- ./inp_files/34729.got.cif
#   From: 2010.03.12/outbox.cif.g09.slc.cpg/sg66_18_cif.got.tgz:34729.got - 2010.04.10 21:57:39.
