data_PCOD8277825
_publ_section_title
;
Structure prediction by ZEFSAII (Michael W. Deem and Ramdas Pophale) SiO2 
 PCOD8277825
Probable space group: C C C M
;
_chemical_formula_sum "Si O2"
_cell_formula_units_Z 48
_cell_length_a 10.691693
_cell_length_b 15.072440
_cell_length_c 14.309285
_cell_angle_alpha 90.000000
_cell_angle_beta 90.000000
_cell_angle_gamma 90.000000
_cell_volume 2305.939865
_symmetry_space_group_name_H-M "C C C M"
_symmetry_group_IT_number 66
_symmetry_cell_setting 'orthorhombic'
loop_
_space_group_symop_operation_xyz
x,y,z
-x,-y,z
x,-y,1/2-z
-x,y,1/2-z
-x,-y,-z
x,y,-z
-x,y,1/2+z
x,-y,1/2+z
1/2+x,1/2+y,z
1/2-x,1/2-y,z
1/2+x,1/2-y,1/2-z
1/2-x,1/2+y,1/2-z
1/2-x,1/2-y,-z
1/2+x,1/2+y,-z
1/2-x,1/2+y,1/2+z
1/2+x,1/2-y,1/2+z
loop_
_atom_site_type_symbol
_atom_site_label
_atom_site_fract_x
_atom_site_fract_y
_atom_site_fract_z
Si Si1 0.038286 0.652327 0.000000
Si Si2 0.368859 0.472123 0.643845
Si Si3 0.613210 0.272158 0.825037
Si Si4 0.179455 0.531341 0.500000
O O1 0.890714 0.626818 0.000000
O O2 0.076849 0.704512 0.092966
O O3 0.095570 0.555456 0.000000
O O4 0.500000 0.500000 0.599648
O O5 0.357691 0.500000 0.750000
O O6 0.363239 0.367180 0.628599
O O7 0.261812 0.527012 0.592864
O O8 0.500000 0.273294 0.750000
O O9 0.750000 0.250000 0.779805
#
# Coordination Sequence:
#
# PCOD8277825 Si02
#       4
#     8  16  16   8
#     4  11  26  42  70 100 135 182 220 284 341 399
#     4  11  23  44  67  98 136 180 222 278 343 400
#     4  12  25  46  71 100 138 182 228 277 342 404
#     4  11  24  43  66 101 136 174 230 275 339 400
#
# _framework density 20.815808000000001
#
# number of rings (size 3 to 8) (size 9 to 14) (size 15 to 20)
#    0.000    0.667    6.667    2.000    4.667    0.000 
#    0.000    5.833    0.000    0.000    0.000    0.000 
#    0.000    0.000    0.000    0.000    0.000    0.000 
#
# Total GULP energy -297418.175664 kJ/mol
# GULP energy per Si atom -12392.423986 kJ/mol
# Density = 2.076843 g / cm^3
# Si number density = 20.815808 Si / 1000 Ang^3
#
#
#
# Elastic Constant Matrix: (Units=GPa)
#
#
# Indices 1 2 3 4 5 6 
#
# 1 170.2272 45.9561 51.3778 0.0000 0.0000 0.0000
# 2 45.9561 103.2803 20.0748 0.0000 0.0000 0.0000
# 3 51.3778 20.0748 93.3947 0.0000 0.0000 0.0000
# 4 0.0000 0.0000 0.0000 18.2940 0.0000 0.0000
# 5 0.0000 0.0000 0.0000 0.0000 49.9423 0.0000
# 6 0.0000 0.0000 0.0000 0.0000 0.0000 37.1070
#
#
#
# Elastic Compliance Matrix: (Units=1/GPa)
#
#
# Indices 1 2 3 4 5 6 
#
# 1 0.007713 -0.002721 -0.003658 0.000000 0.000000 0.000000
# 2 -0.002721 0.011064 -0.000881 0.000000 0.000000 0.000000
# 3 -0.003658 -0.000881 0.012909 0.000000 0.000000 0.000000
# 4 0.000000 0.000000 0.000000 0.054663 0.000000 0.000000
# 5 0.000000 0.000000 0.000000 0.000000 0.020023 0.000000
# 6 0.000000 0.000000 0.000000 0.000000 0.000000 0.026949
#
#
# Mechanical properties :
#
#
# Convention : Reuss Voigt Hill
#
# Bulk Modulus (GPa) = 58.25652 66.85772 62.55712
# Shear Modulus (GPa) = 32.55950 37.70157 35.13054
#
# Velocity S-wave (km/s) = 3.95925 4.26044 4.11260
# Velocity P-wave (km/s) = 6.99631 7.50934 7.25736
#
# Compressibility (1/GPa) = 0.01716546
#
# Stress axis : x y z
#
# Youngs Moduli (GPa) = 129.64719 90.37934 77.46435
#
# Poissons Ratio (x) = 0.24593 0.28339
# Poissons Ratio (y) = 0.35278 0.06828
# Poissons Ratio (z) = 0.47429 0.07966
#
# Static dielectric constant tensor:
#      x y z
#    x 4.459960 0.000000 0.000000 
#    y 0.000000 4.024620 0.000000 
#    z 0.000000 0.000000 3.546990 
# 
# 
# High freq. dielectric constant tensor:
#      x y z
#    x 1.838440 0.000000 0.000000 
#    y 0.000000 1.825270 0.000000 
#    z 0.000000 0.000000 1.809560 
# 
# From -- ./inp_files/25278.got.cif
#   From: 2010.03.12/outbox.cif.g09.slc.cpg/sg66_13_cif.got.tgz:25278.got - 2010.04.10 21:57:39.
