data_PCOD8277772
_publ_section_title
;
Structure prediction by ZEFSAII (Michael W. Deem and Ramdas Pophale) SiO2 
 PCOD8277772
Probable space group: C C C M
;
_chemical_formula_sum "Si O2"
_cell_formula_units_Z 68
_cell_length_a 9.809313
_cell_length_b 16.995181
_cell_length_c 17.022578
_cell_angle_alpha 90.000000
_cell_angle_beta 90.000000
_cell_angle_gamma 90.000000
_cell_volume 2837.851851
_symmetry_space_group_name_H-M "C C C M"
_symmetry_group_IT_number 66
_symmetry_cell_setting 'orthorhombic'
loop_
_space_group_symop_operation_xyz
x,y,z
-x,-y,z
x,-y,1/2-z
-x,y,1/2-z
-x,-y,-z
x,y,-z
-x,y,1/2+z
x,-y,1/2+z
1/2+x,1/2+y,z
1/2-x,1/2-y,z
1/2+x,1/2-y,1/2-z
1/2-x,1/2+y,1/2-z
1/2-x,1/2-y,-z
1/2+x,1/2+y,-z
1/2-x,1/2+y,1/2+z
1/2+x,1/2-y,1/2+z
loop_
_atom_site_type_symbol
_atom_site_label
_atom_site_fract_x
_atom_site_fract_y
_atom_site_fract_z
Si Si1 0.342283 0.017684 0.089454
Si Si2 0.000000 0.000000 0.250000
Si Si3 0.971994 0.237290 0.089944
Si Si4 0.227299 0.643144 0.850738
Si Si5 0.320039 0.366876 0.180289
O O1 0.267996 0.950382 0.140190
O O2 0.500000 0.000000 0.096891
O O3 0.302946 0.103082 0.124336
O O4 0.292324 0.013695 0.000000
O O5 0.915847 0.942381 0.193213
O O6 0.919512 0.321138 0.124067
O O7 0.845565 0.177340 0.093975
O O8 0.099890 0.205324 0.139953
O O9 0.018259 0.247939 0.000000
O O10 0.258759 0.666096 0.761037
#
# Coordination Sequence:
#
# PCOD8277772 Si02
#       5
#    16   4  16  16  16
#     4  11  24  44  68  99 138 181 231 292 357 424
#     4  12  20  40  64 100 136 172 236 298 340 416
#     4  11  23  42  69 101 136 181 232 290 357 423
#     4  11  22  42  67  97 139 179 232 289 351 426
#     4  12  22  43  68 102 140 181 239 295 351 423
#
# _framework density 23.961784999999999
#
# number of rings (size 3 to 8) (size 9 to 14) (size 15 to 20)
#    0.000    0.706    4.706    3.529    0.000    1.882 
#   16.941    3.529    0.000    4.235    0.000    0.000 
#    0.000    0.000    0.000    0.000    0.000    0.000 
#
# Total GULP energy -421681.462707 kJ/mol
# GULP energy per Si atom -12402.395962 kJ/mol
# Density = 2.390725 g / cm^3
# Si number density = 23.961785 Si / 1000 Ang^3
#
#
#
# Elastic Constant Matrix: (Units=GPa)
#
#
# Indices 1 2 3 4 5 6 
#
# 1 67.6382 11.8438 55.5240 0.0000 0.0000 0.0000
# 2 11.8438 56.2770 27.3314 0.0000 0.0000 0.0000
# 3 55.5240 27.3314 178.9174 0.0000 0.0000 0.0000
# 4 0.0000 0.0000 0.0000 36.9337 0.0000 0.0000
# 5 0.0000 0.0000 0.0000 0.0000 34.2341 0.0000
# 6 0.0000 0.0000 0.0000 0.0000 0.0000 45.1609
#
#
#
# Elastic Compliance Matrix: (Units=1/GPa)
#
#
# Indices 1 2 3 4 5 6 
#
# 1 0.019924 -0.001286 -0.005987 0.000000 0.000000 0.000000
# 2 -0.001286 0.019276 -0.002546 0.000000 0.000000 0.000000
# 3 -0.005987 -0.002546 0.007836 0.000000 0.000000 0.000000
# 4 0.000000 0.000000 0.000000 0.027076 0.000000 0.000000
# 5 0.000000 0.000000 0.000000 0.000000 0.029211 0.000000
# 6 0.000000 0.000000 0.000000 0.000000 0.000000 0.022143
#
#
# Mechanical properties :
#
#
# Convention : Reuss Voigt Hill
#
# Bulk Modulus (GPa) = 36.49608 54.69233 45.59421
# Shear Modulus (GPa) = 32.41810 37.14131 34.77970
#
# Velocity S-wave (km/s) = 3.68218 3.94130 3.81394
# Velocity P-wave (km/s) = 5.77425 6.60198 6.20194
#
# Compressibility (1/GPa) = 0.02740020
#
# Stress axis : x y z
#
# Youngs Moduli (GPa) = 50.19033 51.87758 127.61724
#
# Poissons Ratio (x) = 0.06670 0.76401
# Poissons Ratio (y) = 0.06453 0.32487
# Poissons Ratio (z) = 0.30048 0.13206
#
# Static dielectric constant tensor:
#      x y z
#    x 4.306860 0.000000 0.000000 
#    y 0.000000 4.487140 0.000000 
#    z 0.000000 0.000000 4.195030 
# 
# 
# High freq. dielectric constant tensor:
#      x y z
#    x 1.948030 0.000000 0.000000 
#    y 0.000000 1.960920 0.000000 
#    z 0.000000 0.000000 1.949790 
# 
# From -- ./inp_files/26111.got.cif
#   From: 2010.03.12/outbox.cif.g09.slc.cpg/sg66_14_cif.got.tgz:26111.got - 2010.04.10 21:57:39.
