data_PCOD8277091
_publ_section_title
;
Structure prediction by ZEFSAII (Michael W. Deem and Ramdas Pophale) SiO2 
 PCOD8277091
Probable space group: C C C M
;
_chemical_formula_sum "Si O2"
_cell_formula_units_Z 96
_cell_length_a 22.307942
_cell_length_b 14.638609
_cell_length_c 14.751696
_cell_angle_alpha 90.000000
_cell_angle_beta 90.000000
_cell_angle_gamma 90.000000
_cell_volume 4817.273139
_symmetry_space_group_name_H-M "C C C M"
_symmetry_group_IT_number 66
_symmetry_cell_setting 'orthorhombic'
loop_
_space_group_symop_operation_xyz
x,y,z
-x,-y,z
x,-y,1/2-z
-x,y,1/2-z
-x,-y,-z
x,y,-z
-x,y,1/2+z
x,-y,1/2+z
1/2+x,1/2+y,z
1/2-x,1/2-y,z
1/2+x,1/2-y,1/2-z
1/2-x,1/2+y,1/2-z
1/2-x,1/2-y,-z
1/2+x,1/2+y,-z
1/2-x,1/2+y,1/2+z
1/2+x,1/2-y,1/2+z
loop_
_atom_site_type_symbol
_atom_site_label
_atom_site_fract_x
_atom_site_fract_y
_atom_site_fract_z
Si Si1 0.917682 0.761970 0.394719
Si Si2 0.661229 0.910700 0.603340
Si Si3 0.647343 0.114487 0.397012
Si Si4 0.119597 0.103901 0.756944
Si Si5 0.253743 0.853541 0.251620
Si Si6 0.555843 0.732158 0.894878
O O1 0.907869 0.784814 0.500000
O O2 0.885236 0.667647 0.366971
O O3 0.890145 0.845219 0.338415
O O4 0.987061 0.750231 0.369956
O O5 0.682786 0.896643 0.500000
O O6 0.719371 0.911010 0.667816
O O7 0.629024 0.008556 0.616101
O O8 0.665932 0.134594 0.500000
O O9 0.704413 0.142468 0.338958
O O10 0.590432 0.175101 0.368511
O O11 0.189854 0.106353 0.780549
O O12 0.081260 0.148659 0.836984
O O13 0.097426 0.000000 0.750000
O O14 0.250000 0.750000 0.217228
O O15 0.563756 0.706484 0.000000
#
# Coordination Sequence:
#
# PCOD8277091 Si02
#       6
#    16  16  16  16  16  16
#     4  10  22  40  61  87 118 152 193 239 287 342
#     4  10  21  38  62  91 120 150 186 233 292 354
#     4  10  21  38  62  91 120 150 186 233 292 354
#     4  12  25  40  59  84 115 156 201 243 287 334
#     4  12  22  39  62  84 117 156 194 238 290 345
#     4  10  22  40  61  87 118 152 193 239 287 342
#
# _framework density 19.928287000000001
#
# number of rings (size 3 to 8) (size 9 to 14) (size 15 to 20)
#    0.000    1.333    3.333    2.000    0.000    4.667 
#    0.000    5.000    0.000    4.000    0.000    0.000 
#    0.000    0.000    0.000    0.000    0.000    0.000 
#
# Total GULP energy -595424.451816 kJ/mol
# GULP energy per Si atom -12404.676080 kJ/mol
# Density = 1.988293 g / cm^3
# Si number density = 19.928287 Si / 1000 Ang^3
#
#
#
# Elastic Constant Matrix: (Units=GPa)
#
#
# Indices 1 2 3 4 5 6 
#
# 1 111.0924 26.9155 38.0810 0.0000 0.0000 0.0000
# 2 26.9155 129.1604 32.1333 0.0000 0.0000 0.0000
# 3 38.0810 32.1333 77.0051 0.0000 0.0000 0.0000
# 4 0.0000 0.0000 0.0000 32.0003 0.0000 0.0000
# 5 0.0000 0.0000 0.0000 0.0000 30.0908 0.0000
# 6 0.0000 0.0000 0.0000 0.0000 0.0000 14.4790
#
#
#
# Elastic Compliance Matrix: (Units=1/GPa)
#
#
# Indices 1 2 3 4 5 6 
#
# 1 0.010964 -0.001044 -0.004986 0.000000 0.000000 0.000000
# 2 -0.001044 0.008739 -0.003130 0.000000 0.000000 0.000000
# 3 -0.004986 -0.003130 0.016758 0.000000 0.000000 0.000000
# 4 0.000000 0.000000 0.000000 0.031250 0.000000 0.000000
# 5 0.000000 0.000000 0.000000 0.000000 0.033233 0.000000
# 6 0.000000 0.000000 0.000000 0.000000 0.000000 0.069066
#
#
# Mechanical properties :
#
#
# Convention : Reuss Voigt Hill
#
# Bulk Modulus (GPa) = 55.12830 56.83528 55.98179
# Shear Modulus (GPa) = 25.72336 29.98922 27.85629
#
# Velocity S-wave (km/s) = 3.59666 3.88346 3.74281
# Velocity P-wave (km/s) = 6.70607 6.97783 6.84330
#
# Compressibility (1/GPa) = 0.01813950
#
# Stress axis : x y z
#
# Youngs Moduli (GPa) = 91.21034 114.43412 59.67283
#
# Poissons Ratio (x) = 0.11950 0.29753
# Poissons Ratio (y) = 0.09525 0.18678
# Poissons Ratio (z) = 0.45478 0.35819
#
# Static dielectric constant tensor:
#      x y z
#    x 3.621800 0.000000 0.000000 
#    y 0.000000 3.744010 0.000000 
#    z 0.000000 0.000000 3.713910 
# 
# 
# High freq. dielectric constant tensor:
#      x y z
#    x 1.774190 0.000000 0.000000 
#    y 0.000000 1.783940 0.000000 
#    z 0.000000 0.000000 1.789010 
# 
# From -- ./inp_files/28318.got.cif
#   From: 2010.03.12/outbox.cif.g09.slc.cpg/sg66_15_cif.got.tgz:28318.got - 2010.04.10 21:57:39.
