data_PCOD8277065
_publ_section_title
;
Structure prediction by ZEFSAII (Michael W. Deem and Ramdas Pophale) SiO2 
 PCOD8277065
Probable space group: C C C M
;
_chemical_formula_sum "Si O2"
_cell_formula_units_Z 112
_cell_length_a 16.181758
_cell_length_b 23.382672
_cell_length_c 14.490112
_cell_angle_alpha 90.000000
_cell_angle_beta 90.000000
_cell_angle_gamma 90.000000
_cell_volume 5482.663376
_symmetry_space_group_name_H-M "C C C M"
_symmetry_group_IT_number 66
_symmetry_cell_setting 'orthorhombic'
loop_
_space_group_symop_operation_xyz
x,y,z
-x,-y,z
x,-y,1/2-z
-x,y,1/2-z
-x,-y,-z
x,y,-z
-x,y,1/2+z
x,-y,1/2+z
1/2+x,1/2+y,z
1/2-x,1/2-y,z
1/2+x,1/2-y,1/2-z
1/2-x,1/2+y,1/2-z
1/2-x,1/2-y,-z
1/2+x,1/2+y,-z
1/2-x,1/2+y,1/2+z
1/2+x,1/2-y,1/2+z
loop_
_atom_site_type_symbol
_atom_site_label
_atom_site_fract_x
_atom_site_fract_y
_atom_site_fract_z
Si Si1 0.280912 0.629345 0.393260
Si Si2 0.846181 0.466391 0.610077
Si Si3 0.405222 0.682131 0.267833
Si Si4 0.638286 0.215029 0.398010
Si Si5 0.662491 0.091875 0.897389
Si Si6 0.981814 0.617670 0.147818
Si Si7 0.714983 0.312705 0.893049
O O1 0.305548 0.623042 0.500000
O O2 0.229517 0.574181 0.360404
O O3 0.363358 0.633110 0.331296
O O4 0.228653 0.688072 0.376119
O O5 0.856378 0.469022 0.500000
O O6 0.830483 0.529931 0.652729
O O7 0.931701 0.442113 0.651562
O O8 0.500000 0.667780 0.250000
O O9 0.391452 0.742354 0.319025
O O10 0.367803 0.682462 0.165604
O O11 0.640159 0.244479 0.500000
O O12 0.573388 0.163352 0.405936
O O13 0.567929 0.111300 0.904365
O O14 0.718997 0.141193 0.851267
O O15 0.697227 0.084512 0.000000
O O16 0.000000 0.639809 0.250000
O O17 0.750000 0.250000 0.878950
O O18 0.693497 0.323906 0.000000
#
# Coordination Sequence:
#
# PCOD8277065 Si02
#       7
#    16  16  16  16  16  16  16
#     4   9  19  38  62  87 115 151 197 249 300 346
#     4   9  19  37  60  86 117 157 202 246 291 348
#     4  12  25  38  59  85 114 152 199 258 305 351
#     4  10  21  38  61  87 118 159 201 243 296 353
#     4  10  21  38  60  84 119 163 199 236 291 360
#     4  11  22  32  53  93 132 162 190 232 285 361
#     4  10  24  42  60  83 117 161 200 237 292 360
#
# _framework density 20.428027
#
# number of rings (size 3 to 8) (size 9 to 14) (size 15 to 20)
#    0.000    1.857    0.000    4.714    8.000    4.571 
#    0.000    0.000    0.000    1.714    0.000    4.000 
#    0.000    0.000    0.000    0.000    0.000    0.000 
#
# Total GULP energy -694363.373604 kJ/mol
# GULP energy per Si atom -12399.345957 kJ/mol
# Density = 2.038153 g / cm^3
# Si number density = 20.428027 Si / 1000 Ang^3
#
#
#
# Elastic Constant Matrix: (Units=GPa)
#
#
# Indices 1 2 3 4 5 6 
#
# 1 151.3001 46.8350 51.6384 0.0000 0.0000 0.0000
# 2 46.8350 87.1532 20.4934 0.0000 0.0000 0.0000
# 3 51.6384 20.4934 70.7356 0.0000 0.0000 0.0000
# 4 0.0000 0.0000 0.0000 19.9813 0.0000 0.0000
# 5 0.0000 0.0000 0.0000 0.0000 31.9141 0.0000
# 6 0.0000 0.0000 0.0000 0.0000 0.0000 18.3908
#
#
#
# Elastic Compliance Matrix: (Units=1/GPa)
#
#
# Indices 1 2 3 4 5 6 
#
# 1 0.009892 -0.003882 -0.006096 0.000000 0.000000 0.000000
# 2 -0.003882 0.013836 -0.001175 0.000000 0.000000 0.000000
# 3 -0.006096 -0.001175 0.018928 0.000000 0.000000 0.000000
# 4 0.000000 0.000000 0.000000 0.050047 0.000000 0.000000
# 5 0.000000 0.000000 0.000000 0.000000 0.031334 0.000000
# 6 0.000000 0.000000 0.000000 0.000000 0.000000 0.054375
#
#
# Mechanical properties :
#
#
# Convention : Reuss Voigt Hill
#
# Bulk Modulus (GPa) = 49.14063 60.79139 54.96601
# Shear Modulus (GPa) = 24.09616 26.73872 25.41744
#
# Velocity S-wave (km/s) = 3.43820 3.62183 3.53121
# Velocity P-wave (km/s) = 6.31422 6.87849 6.60239
#
# Compressibility (1/GPa) = 0.02034976
#
# Stress axis : x y z
#
# Youngs Moduli (GPa) = 101.09345 72.27266 52.83174
#
# Poissons Ratio (x) = 0.28058 0.32209
# Poissons Ratio (y) = 0.39247 0.06206
# Poissons Ratio (z) = 0.61632 0.08489
#
# Static dielectric constant tensor:
#      x y z
#    x 3.565690 0.000000 0.000000 
#    y 0.000000 3.857330 0.000000 
#    z 0.000000 0.000000 3.660230 
# 
# 
# High freq. dielectric constant tensor:
#      x y z
#    x 1.776960 0.000000 0.000000 
#    y 0.000000 1.789430 0.000000 
#    z 0.000000 0.000000 1.809030 
# 
# From -- ./inp_files/28670.got.cif
#   From: 2010.03.12/outbox.cif.g09.slc.cpg/sg66_15_cif.got.tgz:28670.got - 2010.04.10 21:57:39.
