data_PCOD8277941
_publ_section_title
;
Structure prediction by ZEFSAII (Michael W. Deem and Ramdas Pophale) SiO2 
 PCOD8277941
Probable space group: C M M A
;
_chemical_formula_sum "Si O2"
_cell_formula_units_Z 80
_cell_length_a 19.538401
_cell_length_b 8.836201
_cell_length_c 26.352310
_cell_angle_alpha 90.000000
_cell_angle_beta 90.000000
_cell_angle_gamma 90.000000
_cell_volume 4549.600844
_symmetry_space_group_name_H-M "C M M A"
_symmetry_group_IT_number 67
_symmetry_cell_setting 'orthorhombic'
loop_
_space_group_symop_operation_xyz
x,y,z
-x,1/2-y,z
x,-y,-z
-x,1/2+y,-z
-x,-y,-z
x,1/2+y,-z
-x,y,z
x,1/2-y,z
1/2+x,1/2+y,z
1/2-x,-y,z
1/2+x,1/2-y,-z
1/2-x,y,-z
1/2-x,1/2-y,-z
1/2+x,y,-z
1/2-x,1/2+y,z
1/2+x,-y,z
loop_
_atom_site_type_symbol
_atom_site_label
_atom_site_fract_x
_atom_site_fract_y
_atom_site_fract_z
Si Si1 0.676413 0.926166 0.740086
Si Si2 0.325989 0.569668 0.050124
Si Si3 0.077533 0.070641 0.652758
Si Si4 0.176217 0.573271 0.148326
Si Si5 0.581494 0.079703 0.550150
O O1 0.688026 0.750000 0.731238
O O2 0.623388 0.992139 0.699006
O O3 0.642756 0.953496 0.796172
O O4 0.750000 0.000000 0.732933
O O5 0.324836 0.750000 0.047086
O O6 0.250000 0.500000 0.052079
O O7 0.363707 0.512166 0.101988
O O8 0.362984 0.500000 0.000000
O O9 0.079791 0.250000 0.649386
O O10 0.000000 0.013641 0.661859
O O11 0.107795 0.005564 0.600352
O O12 0.181856 0.750000 0.134851
O O13 0.250000 0.500000 0.153063
O O14 0.500000 0.074385 0.548265
O O15 0.609246 0.250000 0.551530
O O16 0.611927 0.000000 0.500000
#
# Coordination Sequence:
#
# PCOD8277941 Si02
#       5
#    16  16  16  16  16
#     4   9  18  30  45  64  87 118 150 180 215 256
#     4  10  16  22  32  48  71 100 133 168 209 251
#     4   9  17  30  47  67  91 117 146 180 216 255
#     4   9  15  24  36  52  75 103 137 171 205 248
#     4   9  16  26  42  65  90 115 143 176 216 259
#
# _framework density 17.583962
#
# number of rings (size 3 to 8) (size 9 to 14) (size 15 to 20)
#    0.000    2.800    0.000    4.800    0.000    4.000 
#    0.000    0.000    0.000    0.600    0.000    4.200 
#    0.000    0.800    0.000    1.400    0.000    8.200 
#
# Total GULP energy -495595.528884 kJ/mol
# GULP energy per Si atom -12389.888222 kJ/mol
# Density = 1.754394 g / cm^3
# Si number density = 17.583962 Si / 1000 Ang^3
#
#
#
# Elastic Constant Matrix: (Units=GPa)
#
#
# Indices 1 2 3 4 5 6 
#
# 1 30.3319 17.7055 43.4084 0.0000 0.0000 0.0000
# 2 17.7055 94.1513 63.3515 0.0000 0.0000 0.0000
# 3 43.4084 63.3515 201.7390 0.0000 0.0000 0.0000
# 4 0.0000 0.0000 0.0000 30.7496 0.0000 0.0000
# 5 0.0000 0.0000 0.0000 0.0000 9.5696 0.0000
# 6 0.0000 0.0000 0.0000 0.0000 0.0000 9.5973
#
#
#
# Elastic Compliance Matrix: (Units=1/GPa)
#
#
# Indices 1 2 3 4 5 6 
#
# 1 0.048151 -0.002642 -0.009531 0.000000 0.000000 0.000000
# 2 -0.002642 0.013612 -0.003706 0.000000 0.000000 0.000000
# 3 -0.009531 -0.003706 0.008171 0.000000 0.000000 0.000000
# 4 0.000000 0.000000 0.000000 0.032521 0.000000 0.000000
# 5 0.000000 0.000000 0.000000 0.000000 0.104498 0.000000
# 6 0.000000 0.000000 0.000000 0.000000 0.000000 0.104196
#
#
# Mechanical properties :
#
#
# Convention : Reuss Voigt Hill
#
# Bulk Modulus (GPa) = 26.19433 63.90587 45.05010
# Shear Modulus (GPa) = 14.05951 23.43376 18.74664
#
# Velocity S-wave (km/s) = 2.83072 3.65455 3.26869
# Velocity P-wave (km/s) = 5.06094 7.36409 6.31834
#
# Compressibility (1/GPa) = 0.03817619
#
# Stress axis : x y z
#
# Youngs Moduli (GPa) = 20.76814 73.46656 122.37688
#
# Poissons Ratio (x) = 0.19408 1.16638
# Poissons Ratio (y) = 0.05486 0.45353
# Poissons Ratio (z) = 0.19794 0.27227
#
# Static dielectric constant tensor:
#      x y z
#    x 2.636170 0.000000 0.000000 
#    y 0.000000 3.321020 0.000000 
#    z 0.000000 0.000000 4.554710 
# 
# 
# High freq. dielectric constant tensor:
#      x y z
#    x 1.586780 0.000000 0.000000 
#    y 0.000000 1.687900 0.000000 
#    z 0.000000 0.000000 1.714920 
# 
# From -- ./inp_files/44412.got.cif
#   From: 2010.03.12/outbox.cif.g09.slc.cpg/sg67_23_cif.got.tgz:44412.got - 2010.04.10 22:41:39.
