data_PCOD8277848
_publ_section_title
;
Structure prediction by ZEFSAII (Michael W. Deem and Ramdas Pophale) SiO2 
 PCOD8277848
Probable space group: C C C M
;
_chemical_formula_sum "Si O2"
_cell_formula_units_Z 112
_cell_length_a 13.751872
_cell_length_b 13.943274
_cell_length_c 25.622309
_cell_angle_alpha 90.000000
_cell_angle_beta 90.000000
_cell_angle_gamma 90.000000
_cell_volume 4912.978318
_symmetry_space_group_name_H-M "C C C M"
_symmetry_group_IT_number 66
_symmetry_cell_setting 'orthorhombic'
loop_
_space_group_symop_operation_xyz
x,y,z
-x,-y,z
x,-y,1/2-z
-x,y,1/2-z
-x,-y,-z
x,y,-z
-x,y,1/2+z
x,-y,1/2+z
1/2+x,1/2+y,z
1/2-x,1/2-y,z
1/2+x,1/2-y,1/2-z
1/2-x,1/2+y,1/2-z
1/2-x,1/2-y,-z
1/2+x,1/2+y,-z
1/2-x,1/2+y,1/2+z
1/2+x,1/2-y,1/2+z
loop_
_atom_site_type_symbol
_atom_site_label
_atom_site_fract_x
_atom_site_fract_y
_atom_site_fract_z
Si Si1 0.930804 0.919755 0.559425
Si Si2 0.391436 0.702458 0.732467
Si Si3 0.901423 0.449720 0.127084
Si Si4 0.252489 0.539876 0.559339
Si Si5 0.699748 0.107736 0.769979
Si Si6 0.847623 0.205306 0.618772
Si Si7 0.988497 0.713516 0.438254
O O1 0.966592 0.912017 0.500000
O O2 0.946204 0.814627 0.583854
O O3 0.816509 0.943058 0.562743
O O4 0.000000 0.000000 0.587199
O O5 0.500000 0.680436 0.750000
O O6 0.365766 0.816051 0.737756
O O7 0.313064 0.639737 0.765747
O O8 0.396714 0.669398 0.672136
O O9 0.837942 0.531443 0.098528
O O10 0.839581 0.394594 0.170967
O O11 0.924096 0.372697 0.082545
O O12 0.000000 0.500000 0.148984
O O13 0.217082 0.559322 0.500000
O O14 0.326977 0.622237 0.577091
O O15 0.685274 0.000000 0.750000
O O16 0.750000 0.250000 0.640763
O O17 0.904441 0.289172 0.587466
O O18 0.992557 0.703878 0.500000
#
# Coordination Sequence:
#
# PCOD8277848 Si02
#       7
#    16  16  16  16  16  16  16
#     4   9  18  39  64  92 128 177 229 275 337 411
#     4  11  26  48  75 108 144 177 243 316 361 434
#     4  12  28  44  68 102 142 191 245 291 356 436
#     4  11  24  42  68 101 145 190 234 292 354 433
#     4  11  26  49  75 102 138 190 238 297 374 434
#     4  12  23  41  69  99 138 183 237 293 356 431
#     4  11  24  42  69 103 145 189 234 292 358 424
#
# _framework density 22.796764
#
# number of rings (size 3 to 8) (size 9 to 14) (size 15 to 20)
#    0.000    1.000    2.857    3.429    4.000    7.714 
#    0.000    2.143    0.000    0.000    0.000    0.000 
#    0.000    0.000    0.000    0.000    0.000    0.000 
#
# Total GULP energy -694245.333849 kJ/mol
# GULP energy per Si atom -12397.238104 kJ/mol
# Density = 2.274488 g / cm^3
# Si number density = 22.796764 Si / 1000 Ang^3
#
#
#
# Elastic Constant Matrix: (Units=GPa)
#
#
# Indices 1 2 3 4 5 6 
#
# 1 117.9231 19.5803 55.6051 0.0000 0.0000 0.0000
# 2 19.5803 89.1976 30.0060 0.0000 0.0000 0.0000
# 3 55.6051 30.0060 134.4047 0.0000 0.0000 0.0000
# 4 0.0000 0.0000 0.0000 30.1345 0.0000 0.0000
# 5 0.0000 0.0000 0.0000 0.0000 37.2763 0.0000
# 6 0.0000 0.0000 0.0000 0.0000 0.0000 29.6112
#
#
#
# Elastic Compliance Matrix: (Units=1/GPa)
#
#
# Indices 1 2 3 4 5 6 
#
# 1 0.010605 -0.000921 -0.004182 0.000000 0.000000 0.000000
# 2 -0.000921 0.012201 -0.002343 0.000000 0.000000 0.000000
# 3 -0.004182 -0.002343 0.009693 0.000000 0.000000 0.000000
# 4 0.000000 0.000000 0.000000 0.033185 0.000000 0.000000
# 5 0.000000 0.000000 0.000000 0.000000 0.026827 0.000000
# 6 0.000000 0.000000 0.000000 0.000000 0.000000 0.033771
#
#
# Mechanical properties :
#
#
# Convention : Reuss Voigt Hill
#
# Bulk Modulus (GPa) = 56.79233 61.32312 59.05773
# Shear Modulus (GPa) = 34.00369 35.16000 34.58185
#
# Velocity S-wave (km/s) = 3.86632 3.93150 3.89905
# Velocity P-wave (km/s) = 6.70058 6.89690 6.79945
#
# Compressibility (1/GPa) = 0.01760801
#
# Stress axis : x y z
#
# Youngs Moduli (GPa) = 94.29598 81.95772 103.16404
#
# Poissons Ratio (x) = 0.07550 0.43140
# Poissons Ratio (y) = 0.08687 0.24170
# Poissons Ratio (z) = 0.39432 0.19202
#
# Static dielectric constant tensor:
#      x y z
#    x 4.160090 0.000000 0.000000 
#    y 0.000000 4.227850 0.000000 
#    z 0.000000 0.000000 3.888840 
# 
# 
# High freq. dielectric constant tensor:
#      x y z
#    x 1.906620 0.000000 0.000000 
#    y 0.000000 1.903000 0.000000 
#    z 0.000000 0.000000 1.891000 
# 
# From -- ./inp_files/58260.got.cif
#   From: 2010.03.12/outbox.cif.g09.slc.cpg/sg66_30_cif.got.tgz:58260.got - 2010.04.10 21:57:39.
