data_PCOD8277963
_publ_section_title
;
Structure prediction by ZEFSAII (Michael W. Deem and Ramdas Pophale) SiO2 
 PCOD8277963
Probable space group: C M M A
;
_chemical_formula_sum "Si O2"
_cell_formula_units_Z 56
_cell_length_a 36.584789
_cell_length_b 8.604936
_cell_length_c 9.775593
_cell_angle_alpha 90.000000
_cell_angle_beta 90.000000
_cell_angle_gamma 90.000000
_cell_volume 3077.452164
_symmetry_space_group_name_H-M "C M M A"
_symmetry_group_IT_number 67
_symmetry_cell_setting 'orthorhombic'
loop_
_space_group_symop_operation_xyz
x,y,z
-x,1/2-y,z
x,-y,-z
-x,1/2+y,-z
-x,-y,-z
x,1/2+y,-z
-x,y,z
x,1/2-y,z
1/2+x,1/2+y,z
1/2-x,-y,z
1/2+x,1/2-y,-z
1/2-x,y,-z
1/2-x,1/2-y,-z
1/2+x,y,-z
1/2-x,1/2+y,z
1/2+x,-y,z
loop_
_atom_site_type_symbol
_atom_site_label
_atom_site_fract_x
_atom_site_fract_y
_atom_site_fract_z
Si Si1 0.926786 0.934129 0.652417
Si Si2 0.788711 0.566832 0.146487
Si Si3 0.647396 0.433626 0.349770
Si Si4 0.500000 0.565964 0.653042
O O1 0.928710 0.750000 0.652951
O O2 0.925793 0.000000 0.500000
O O3 0.889149 0.993719 0.720686
O O4 0.963126 0.002593 0.727465
O O5 0.785393 0.750000 0.133850
O O6 0.750000 0.500000 0.196243
O O7 0.818811 0.515816 0.256222
O O8 0.800247 0.500000 0.000000
O O9 0.654762 0.500000 0.500000
O O10 0.642555 0.250000 0.359163
O O11 0.500000 0.750000 0.651884
O O12 0.500000 0.500000 0.500000
#
# Coordination Sequence:
#
# PCOD8277963 Si02
#       4
#    16  16  16   8
#     4  10  17  26  41  63  92 126 161 199 240 286
#     4  10  21  36  55  75  98 127 164 203 244 292
#     4  10  20  33  49  73 101 131 163 201 246 293
#     4  10  16  24  38  58  89 126 161 198 237 284
#
# _framework density 18.196870000000001
#
# number of rings (size 3 to 8) (size 9 to 14) (size 15 to 20)
#    0.000    2.000    0.000    9.857    0.000    5.143 
#    0.000    2.857    0.000    0.000    0.000    1.000 
#    0.000    0.000    0.000    0.000    0.000    0.000 
#
# Total GULP energy -347076.614900 kJ/mol
# GULP energy per Si atom -12395.593389 kJ/mol
# Density = 1.815545 g / cm^3
# Si number density = 18.196870 Si / 1000 Ang^3
#
#
#
# Elastic Constant Matrix: (Units=GPa)
#
#
# Indices 1 2 3 4 5 6 
#
# 1 207.2923 84.3867 71.4231 0.0000 0.0000 0.0000
# 2 84.3867 145.7968 32.9761 0.0000 0.0000 0.0000
# 3 71.4231 32.9761 50.7500 0.0000 0.0000 0.0000
# 4 0.0000 0.0000 0.0000 17.7022 0.0000 0.0000
# 5 0.0000 0.0000 0.0000 0.0000 1.7607 0.0000
# 6 0.0000 0.0000 0.0000 0.0000 0.0000 21.3248
#
#
#
# Elastic Compliance Matrix: (Units=1/GPa)
#
#
# Indices 1 2 3 4 5 6 
#
# 1 0.010507 -0.003208 -0.012702 0.000000 0.000000 0.000000
# 2 -0.003208 0.009020 -0.001346 0.000000 0.000000 0.000000
# 3 -0.012702 -0.001346 0.038455 0.000000 0.000000 0.000000
# 4 0.000000 0.000000 0.000000 0.056490 0.000000 0.000000
# 5 0.000000 0.000000 0.000000 0.000000 0.567952 0.000000
# 6 0.000000 0.000000 0.000000 0.000000 0.000000 0.046894
#
#
# Mechanical properties :
#
#
# Convention : Reuss Voigt Hill
#
# Bulk Modulus (GPa) = 42.60820 86.82342 64.71581
# Shear Modulus (GPa) = 6.47960 22.49445 14.48702
#
# Velocity S-wave (km/s) = 1.88906 3.51974 2.82463
# Velocity P-wave (km/s) = 5.31263 8.02091 6.80291
#
# Compressibility (1/GPa) = 0.02346966
#
# Stress axis : x y z
#
# Youngs Moduli (GPa) = 95.17807 110.86183 26.00454
#
# Poissons Ratio (x) = 0.35568 0.33030
# Poissons Ratio (y) = 0.30536 0.03500
# Poissons Ratio (z) = 1.20893 0.14921
#
# Static dielectric constant tensor:
#      x y z
#    x 4.884310 0.000000 0.000000 
#    y 0.000000 3.487320 0.000000 
#    z 0.000000 0.000000 2.822980 
# 
# 
# High freq. dielectric constant tensor:
#      x y z
#    x 1.737960 0.000000 0.000000 
#    y 0.000000 1.728530 0.000000 
#    z 0.000000 0.000000 1.633990 
# 
# From -- ./inp_files/23343.got.cif
#   From: 2010.03.12/outbox.cif.g09.slc.cpg/sg67_12_cif.got.tgz:23343.got - 2010.04.10 22:41:39.
