data_PCOD8277126
_publ_section_title
;
Structure prediction by ZEFSAII (Michael W. Deem and Ramdas Pophale) SiO2 
 PCOD8277126
Probable space group: C C C M
;
_chemical_formula_sum "Si O2"
_cell_formula_units_Z 116
_cell_length_a 29.172912
_cell_length_b 24.172894
_cell_length_c 9.114522
_cell_angle_alpha 90.000000
_cell_angle_beta 90.000000
_cell_angle_gamma 90.000000
_cell_volume 6427.503579
_symmetry_space_group_name_H-M "C C C M"
_symmetry_group_IT_number 66
_symmetry_cell_setting 'orthorhombic'
loop_
_space_group_symop_operation_xyz
x,y,z
-x,-y,z
x,-y,1/2-z
-x,y,1/2-z
-x,-y,-z
x,y,-z
-x,y,1/2+z
x,-y,1/2+z
1/2+x,1/2+y,z
1/2-x,1/2-y,z
1/2+x,1/2-y,1/2-z
1/2-x,1/2+y,1/2-z
1/2-x,1/2-y,-z
1/2+x,1/2+y,-z
1/2-x,1/2+y,1/2+z
1/2+x,1/2-y,1/2+z
loop_
_atom_site_type_symbol
_atom_site_label
_atom_site_fract_x
_atom_site_fract_y
_atom_site_fract_z
Si Si1 0.367726 0.342388 0.327537
Si Si2 0.500000 0.500000 0.250000
Si Si3 0.872142 0.446747 0.837124
Si Si4 0.391351 0.223012 0.670002
Si Si5 0.192302 0.654737 0.834120
Si Si6 0.089849 0.947632 0.666078
Si Si7 0.726584 0.691632 0.827310
Si Si8 0.546733 0.871559 0.673532
O O1 0.361263 0.355878 0.500000
O O2 0.399469 0.288054 0.304321
O O3 0.394764 0.392280 0.250067
O O4 0.319469 0.326005 0.256326
O O5 0.465745 0.541583 0.339181
O O6 0.856960 0.500000 0.750000
O O7 0.830209 0.404953 0.834188
O O8 0.917487 0.417787 0.772511
O O9 0.883215 0.466497 0.000000
O O10 0.387070 0.206855 0.500000
O O11 0.342821 0.200872 0.734759
O O12 0.434650 0.188391 0.730892
O O13 0.235527 0.647971 0.726142
O O14 0.207773 0.671004 0.000000
O O15 0.108147 0.944114 0.500000
O O16 0.113043 0.000000 0.750000
O O17 0.750000 0.750000 0.779905
O O18 0.717066 0.688510 0.000000
O O19 0.500000 0.886238 0.750000
O O20 0.539851 0.871836 0.500000
#
# Coordination Sequence:
#
# PCOD8277126 Si02
#       8
#    16   4  16  16  16  16  16  16
#     4  11  21  35  59  85 112 150 190 229 278 335
#     4   8  22  40  70  84 110 156 194 228 288 344
#     4   9  19  34  54  76 102 135 178 225 268 316
#     4   8  16  32  53  75 104 140 179 221 267 327
#     4   9  17  34  56  76 101 142 186 221 264 329
#     4  10  21  39  62  87 116 147 188 235 281 335
#     4  11  22  34  52  83 118 146 179 228 279 330
#     4   9  18  34  51  72 103 139 177 220 270 322
#
# _framework density 18.047442
#
# number of rings (size 3 to 8) (size 9 to 14) (size 15 to 20)
#    0.414    2.069    1.379    3.103    0.000    1.931 
#    1.241    5.517    0.000    1.655    0.000    0.000 
#    0.000    0.000    0.000    0.000    0.000    0.000 
#
# Total GULP energy -718536.638340 kJ/mol
# GULP energy per Si atom -12388.562730 kJ/mol
# Density = 1.800637 g / cm^3
# Si number density = 18.047442 Si / 1000 Ang^3
#
#
#
# Elastic Constant Matrix: (Units=GPa)
#
#
# Indices 1 2 3 4 5 6 
#
# 1 73.2747 29.0869 29.3958 0.0000 0.0000 0.0000
# 2 29.0869 112.7902 47.3143 0.0000 0.0000 0.0000
# 3 29.3958 47.3143 84.4862 0.0000 0.0000 0.0000
# 4 0.0000 0.0000 0.0000 29.5215 0.0000 0.0000
# 5 0.0000 0.0000 0.0000 0.0000 22.1884 0.0000
# 6 0.0000 0.0000 0.0000 0.0000 0.0000 20.5212
#
#
#
# Elastic Compliance Matrix: (Units=1/GPa)
#
#
# Indices 1 2 3 4 5 6 
#
# 1 0.016340 -0.002391 -0.004347 0.000000 0.000000 0.000000
# 2 -0.002391 0.011938 -0.005854 0.000000 0.000000 0.000000
# 3 -0.004347 -0.005854 0.016627 0.000000 0.000000 0.000000
# 4 0.000000 0.000000 0.000000 0.033874 0.000000 0.000000
# 5 0.000000 0.000000 0.000000 0.000000 0.045069 0.000000
# 6 0.000000 0.000000 0.000000 0.000000 0.000000 0.048730
#
#
# Mechanical properties :
#
#
# Convention : Reuss Voigt Hill
#
# Bulk Modulus (GPa) = 50.70194 53.57167 52.13680
# Shear Modulus (GPa) = 24.46982 25.42983 24.94983
#
# Velocity S-wave (km/s) = 3.68620 3.75781 3.72218
# Velocity P-wave (km/s) = 6.80236 6.96968 6.88653
#
# Compressibility (1/GPa) = 0.01972311
#
# Stress axis : x y z
#
# Youngs Moduli (GPa) = 61.19988 83.76518 60.14362
#
# Poissons Ratio (x) = 0.20024 0.26141
# Poissons Ratio (y) = 0.14630 0.35207
# Poissons Ratio (z) = 0.26601 0.49035
#
# Static dielectric constant tensor:
#      x y z
#    x 3.236750 0.000000 0.000000 
#    y 0.000000 3.291880 0.000000 
#    z 0.000000 0.000000 3.186070 
# 
# 
# High freq. dielectric constant tensor:
#      x y z
#    x 1.688500 0.000000 0.000000 
#    y 0.000000 1.695080 0.000000 
#    z 0.000000 0.000000 1.687510 
# 
# From -- ./inp_files/11719.got.cif
#   From: 2010.03.12/outbox.cif.g09.slc.cpg/sg66_6_cif.got.tgz:11719.got - 2010.04.10 21:57:39.
