data_PCOD8277284
_publ_section_title
;
Structure prediction by ZEFSAII (Michael W. Deem and Ramdas Pophale) SiO2 
 PCOD8277284
Probable space group: C C C M
;
_chemical_formula_sum "Si O2"
_cell_formula_units_Z 64
_cell_length_a 9.673436
_cell_length_b 13.787955
_cell_length_c 24.956761
_cell_angle_alpha 90.000000
_cell_angle_beta 90.000000
_cell_angle_gamma 90.000000
_cell_volume 3328.655423
_symmetry_space_group_name_H-M "C C C M"
_symmetry_group_IT_number 66
_symmetry_cell_setting 'orthorhombic'
loop_
_space_group_symop_operation_xyz
x,y,z
-x,-y,z
x,-y,1/2-z
-x,y,1/2-z
-x,-y,-z
x,y,-z
-x,y,1/2+z
x,-y,1/2+z
1/2+x,1/2+y,z
1/2-x,1/2-y,z
1/2+x,1/2-y,1/2-z
1/2-x,1/2+y,1/2-z
1/2-x,1/2-y,-z
1/2+x,1/2+y,-z
1/2-x,1/2+y,1/2+z
1/2+x,1/2-y,1/2+z
loop_
_atom_site_type_symbol
_atom_site_label
_atom_site_fract_x
_atom_site_fract_y
_atom_site_fract_z
Si Si1 0.268395 0.517242 0.835682
Si Si2 0.500000 0.500000 0.586936
Si Si3 0.930792 0.642432 0.000000
Si Si4 0.103772 0.141293 0.000000
Si Si5 0.000000 0.500000 0.092654
Si Si6 0.164190 0.152868 0.240933
O O1 0.382085 0.549650 0.878060
O O2 0.315279 0.414299 0.810965
O O3 0.262672 0.600388 0.790962
O O4 0.126064 0.509160 0.866892
O O5 0.558304 0.412272 0.553025
O O6 0.990336 0.593390 0.053895
O O7 0.972144 0.754909 0.000000
O O8 0.767199 0.640170 0.000000
O O9 0.250000 0.250000 0.230354
O O10 0.000000 0.171387 0.250000
#
# Coordination Sequence:
#
# PCOD8277284 Si02
#       6
#    16   8   8   8   8  16
#     4  11  23  43  64  86 130 166 204 247 309 370
#     4  11  20  41  64  90 116 173 204 243 304 374
#     4  10  22  41  58  95 126 155 206 265 302 358
#     4  10  22  37  66  89 122 163 209 252 308 366
#     4  11  24  39  64  92 126 163 204 259 306 358
#     4  11  25  42  64  94 125 158 206 257 303 366
#
# _framework density 19.226983000000001
#
# number of rings (size 3 to 8) (size 9 to 14) (size 15 to 20)
#    0.000    1.250    5.000    0.750    3.500    5.000 
#    0.000    1.250    0.000    0.000    0.000    0.000 
#    0.000    0.000    0.000    0.000    0.000    0.000 
#
# Total GULP energy -396779.586940 kJ/mol
# GULP energy per Si atom -12399.362092 kJ/mol
# Density = 1.918322 g / cm^3
# Si number density = 19.226983 Si / 1000 Ang^3
#
#
#
# Elastic Constant Matrix: (Units=GPa)
#
#
# Indices 1 2 3 4 5 6 
#
# 1 100.5046 3.7320 28.1059 0.0000 0.0000 0.0000
# 2 3.7320 99.8741 16.0377 0.0000 0.0000 0.0000
# 3 28.1059 16.0377 94.6266 0.0000 0.0000 0.0000
# 4 0.0000 0.0000 0.0000 10.0921 0.0000 0.0000
# 5 0.0000 0.0000 0.0000 0.0000 16.0097 0.0000
# 6 0.0000 0.0000 0.0000 0.0000 0.0000 28.8633
#
#
#
# Elastic Compliance Matrix: (Units=1/GPa)
#
#
# Indices 1 2 3 4 5 6 
#
# 1 0.010852 0.000115 -0.003243 0.000000 0.000000 0.000000
# 2 0.000115 0.010294 -0.001779 0.000000 0.000000 0.000000
# 3 -0.003243 -0.001779 0.011833 0.000000 0.000000 0.000000
# 4 0.000000 0.000000 0.000000 0.099088 0.000000 0.000000
# 5 0.000000 0.000000 0.000000 0.000000 0.062462 0.000000
# 6 0.000000 0.000000 0.000000 0.000000 0.000000 0.034646
#
#
# Mechanical properties :
#
#
# Convention : Reuss Voigt Hill
#
# Bulk Modulus (GPa) = 43.16713 43.41738 43.29226
# Shear Modulus (GPa) = 20.26672 27.46833 23.86752
#
# Velocity S-wave (km/s) = 3.25018 3.78383 3.52711
# Velocity P-wave (km/s) = 6.04855 6.45913 6.25721
#
# Compressibility (1/GPa) = 0.02316577
#
# Stress axis : x y z
#
# Youngs Moduli (GPa) = 92.14569 97.14443 84.51271
#
# Poissons Ratio (x) = -0.01119 0.27407
# Poissons Ratio (y) = -0.01062 0.15034
# Poissons Ratio (z) = 0.29882 0.17281
#
# Static dielectric constant tensor:
#      x y z
#    x 3.529180 0.000000 0.000000 
#    y 0.000000 3.569320 0.000000 
#    z 0.000000 0.000000 3.716550 
# 
# 
# High freq. dielectric constant tensor:
#      x y z
#    x 1.758780 0.000000 0.000000 
#    y 0.000000 1.743160 0.000000 
#    z 0.000000 0.000000 1.768100 
# 
# From -- ./inp_files/55087.got.cif
#   From: 2010.03.12/outbox.cif.g09.slc.cpg/sg66_28_cif.got.tgz:55087.got - 2010.04.10 21:57:39.
