data_PCOD8277816
_publ_section_title
;
Structure prediction by ZEFSAII (Michael W. Deem and Ramdas Pophale) SiO2 
 PCOD8277816
Probable space group: C C C M
;
_chemical_formula_sum "Si O2"
_cell_formula_units_Z 96
_cell_length_a 22.974717
_cell_length_b 23.983711
_cell_length_c 8.747334
_cell_angle_alpha 90.000000
_cell_angle_beta 90.000000
_cell_angle_gamma 90.000000
_cell_volume 4819.946996
_symmetry_space_group_name_H-M "C C C M"
_symmetry_group_IT_number 66
_symmetry_cell_setting 'orthorhombic'
loop_
_space_group_symop_operation_xyz
x,y,z
-x,-y,z
x,-y,1/2-z
-x,y,1/2-z
-x,-y,-z
x,y,-z
-x,y,1/2+z
x,-y,1/2+z
1/2+x,1/2+y,z
1/2-x,1/2-y,z
1/2+x,1/2-y,1/2-z
1/2-x,1/2+y,1/2-z
1/2-x,1/2-y,-z
1/2+x,1/2+y,-z
1/2-x,1/2+y,1/2+z
1/2+x,1/2-y,1/2+z
loop_
_atom_site_type_symbol
_atom_site_label
_atom_site_fract_x
_atom_site_fract_y
_atom_site_fract_z
Si Si1 0.669421 0.444514 0.326468
Si Si2 0.125873 0.229414 0.179450
Si Si3 0.062642 0.559892 0.317510
Si Si4 0.363399 0.842287 0.178097
Si Si5 0.061321 0.120369 0.181398
Si Si6 0.241492 0.164698 0.825920
O O1 0.693708 0.500000 0.250000
O O2 0.657974 0.459372 0.500000
O O3 0.608184 0.423985 0.254302
O O4 0.717027 0.397101 0.308112
O O5 0.106409 0.284543 0.270638
O O6 0.081055 0.181916 0.233754
O O7 0.192341 0.210369 0.217403
O O8 0.120306 0.240782 0.000000
O O9 0.081804 0.500000 0.250000
O O10 0.058726 0.555812 0.500000
O O11 0.110318 0.605807 0.271086
O O12 0.000000 0.577520 0.250000
O O13 0.295508 0.832684 0.212473
O O14 0.373646 0.853152 0.000000
O O15 0.000000 0.103795 0.250000
O O16 0.059688 0.118315 0.000000
O O17 0.262573 0.175164 0.000000
#
# Coordination Sequence:
#
# PCOD8277816 Si02
#       6
#    16  16  16  16  16  16
#     4   9  19  35  54  77 106 142 183 226 274 326
#     4   9  19  37  57  77 108 149 188 231 285 334
#     4  11  23  43  66  87 114 146 181 223 273 324
#     4  12  24  36  56  88 117 145 184 224 268 329
#     4   9  19  35  54  77 106 142 183 226 274 326
#     4   9  19  37  57  77 108 149 188 231 285 334
#
# _framework density 19.917233
#
# number of rings (size 3 to 8) (size 9 to 14) (size 15 to 20)
#    0.000    2.167    0.000    6.000    0.000    6.333 
#    0.000    8.333    0.000    0.000    0.000    0.000 
#    0.000    0.000    0.000    0.000    0.000    0.000 
#
# Total GULP energy -595135.673853 kJ/mol
# GULP energy per Si atom -12398.659872 kJ/mol
# Density = 1.987190 g / cm^3
# Si number density = 19.917233 Si / 1000 Ang^3
#
#
#
# Elastic Constant Matrix: (Units=GPa)
#
#
# Indices 1 2 3 4 5 6 
#
# 1 37.2851 5.5753 13.5341 0.0000 0.0000 0.0000
# 2 5.5753 111.8571 38.5953 0.0000 0.0000 0.0000
# 3 13.5341 38.5953 91.0098 0.0000 0.0000 0.0000
# 4 0.0000 0.0000 0.0000 -36.6548 0.0000 0.0000
# 5 0.0000 0.0000 0.0000 0.0000 13.2084 0.0000
# 6 0.0000 0.0000 0.0000 0.0000 0.0000 29.4976
#
#
#
# Elastic Compliance Matrix: (Units=1/GPa)
#
#
# Indices 1 2 3 4 5 6 
#
# 1 0.028351 0.000049 -0.004237 0.000000 0.000000 0.000000
# 2 0.000049 0.010472 -0.004448 0.000000 0.000000 0.000000
# 3 -0.004237 -0.004448 0.013504 0.000000 0.000000 0.000000
# 4 0.000000 0.000000 0.000000 -0.027282 0.000000 0.000000
# 5 0.000000 0.000000 0.000000 0.000000 0.075709 0.000000
# 6 0.000000 0.000000 0.000000 0.000000 0.000000 0.033901
#
#
# Mechanical properties :
#
#
# Convention : Reuss Voigt Hill
#
# Bulk Modulus (GPa) = 28.52663 39.50682 34.01673
# Shear Modulus (GPa) = 30.55968 13.37339 21.96653
#
# Velocity S-wave (km/s) = 3.92131 2.59404 3.32458
# Velocity P-wave (km/s) = 5.90389 5.37128 5.64387
#
# Compressibility (1/GPa) = 0.03505496
#
# Stress axis : x y z
#
# Youngs Moduli (GPa) = 35.27219 95.48885 74.05026
#
# Poissons Ratio (x) = -0.00466 0.31373
# Poissons Ratio (y) = -0.00172 0.32940
# Poissons Ratio (z) = 0.14944 0.42477
#
# Static dielectric constant tensor:
#      x y z
#    x 4.004570 0.000000 0.000000 
#    y 0.000000 4.008060 0.000000 
#    z 0.000000 0.000000 3.436400 
# 
# 
# High freq. dielectric constant tensor:
#      x y z
#    x 1.768920 0.000000 0.000000 
#    y 0.000000 1.791160 0.000000 
#    z 0.000000 0.000000 1.764280 
# 
# From -- ./inp_files/9128.got.cif
#   From: 2010.03.12/outbox.cif.g09.slc.cpg/sg66_5_cif.got.tgz:9128.got - 2010.04.10 21:57:39.
