data_PCOD8277323
_publ_section_title
;
Structure prediction by ZEFSAII (Michael W. Deem and Ramdas Pophale) SiO2 
 PCOD8277323
Probable space group: C C C M
;
_chemical_formula_sum "Si O2"
_cell_formula_units_Z 88
_cell_length_a 13.580216
_cell_length_b 28.134823
_cell_length_c 10.761381
_cell_angle_alpha 90.000000
_cell_angle_beta 90.000000
_cell_angle_gamma 90.000000
_cell_volume 4111.675883
_symmetry_space_group_name_H-M "C C C M"
_symmetry_group_IT_number 66
_symmetry_cell_setting 'orthorhombic'
loop_
_space_group_symop_operation_xyz
x,y,z
-x,-y,z
x,-y,1/2-z
-x,y,1/2-z
-x,-y,-z
x,y,-z
-x,y,1/2+z
x,-y,1/2+z
1/2+x,1/2+y,z
1/2-x,1/2-y,z
1/2+x,1/2-y,1/2-z
1/2-x,1/2+y,1/2-z
1/2-x,1/2-y,-z
1/2+x,1/2+y,-z
1/2-x,1/2+y,1/2+z
1/2+x,1/2-y,1/2+z
loop_
_atom_site_type_symbol
_atom_site_label
_atom_site_fract_x
_atom_site_fract_y
_atom_site_fract_z
Si Si1 0.279015 0.056317 0.750780
Si Si2 0.109343 0.556549 0.500000
Si Si3 0.111590 0.443803 0.500000
Si Si4 0.500000 0.217639 0.250000
Si Si5 0.150207 0.221653 0.867689
Si Si6 0.115425 0.870418 0.240627
Si Si7 0.175556 0.184789 0.500000
Si Si8 0.901912 0.708083 0.500000
O O1 0.334661 0.073808 0.625752
O O2 0.171303 0.079613 0.753514
O O3 0.264451 0.000000 0.750000
O O4 0.337550 0.073862 0.873553
O O5 0.106761 0.500130 0.500000
O O6 0.998734 0.577366 0.500000
O O7 0.409139 0.253032 0.238996
O O8 0.467623 0.190509 0.377982
O O9 0.250000 0.250000 0.870531
O O10 0.158729 0.165307 0.845144
O O11 0.095988 0.228340 0.000000
O O12 0.136568 0.844809 0.113599
O O13 0.000000 0.881130 0.250000
O O14 0.123339 0.236013 0.500000
O O15 0.295128 0.183196 0.500000
#
# Coordination Sequence:
#
# PCOD8277323 Si02
#       8
#    16   8   8   8  16  16   8   8
#     4  10  22  39  63  98 134 169 216 274 326 381
#     4   9  18  35  69  93 118 164 216 268 321 395
#     4   9  17  38  65  93 122 165 211 259 337 397
#     4  12  20  38  64  98 119 168 213 262 318 400
#     4  11  23  39  62  88 122 162 209 267 317 379
#     4  12  25  39  67  91 126 176 225 264 321 400
#     4  11  23  41  62  91 123 173 216 268 320 394
#     4  11  22  38  67  92 129 161 217 264 333 385
#
# _framework density 21.402464999999999
#
# number of rings (size 3 to 8) (size 9 to 14) (size 15 to 20)
#    0.000    1.273    3.636    2.182    2.545    2.545 
#    0.000    0.000   24.000    4.364    0.000    0.000 
#    0.000    0.000    0.000    0.000    0.000    0.000 
#
# Total GULP energy -545139.665601 kJ/mol
# GULP energy per Si atom -12389.537855 kJ/mol
# Density = 2.135375 g / cm^3
# Si number density = 21.402465 Si / 1000 Ang^3
#
#
#
# Elastic Constant Matrix: (Units=GPa)
#
#
# Indices 1 2 3 4 5 6 
#
# 1 158.1946 49.1548 78.4032 0.0000 0.0000 0.0000
# 2 49.1548 50.5631 25.0214 0.0000 0.0000 0.0000
# 3 78.4032 25.0214 177.0947 0.0000 0.0000 0.0000
# 4 0.0000 0.0000 0.0000 -1.0731 0.0000 0.0000
# 5 0.0000 0.0000 0.0000 0.0000 35.9558 0.0000
# 6 0.0000 0.0000 0.0000 0.0000 0.0000 33.5128
#
#
#
# Elastic Compliance Matrix: (Units=1/GPa)
#
#
# Indices 1 2 3 4 5 6 
#
# 1 0.010793 -0.008739 -0.003544 0.000000 0.000000 0.000000
# 2 -0.008739 0.028340 -0.000135 0.000000 0.000000 0.000000
# 3 -0.003544 -0.000135 0.007235 0.000000 0.000000 0.000000
# 4 0.000000 0.000000 0.000000 -0.931866 0.000000 0.000000
# 5 0.000000 0.000000 0.000000 0.000000 0.027812 0.000000
# 6 0.000000 0.000000 0.000000 0.000000 0.000000 0.029839
#
#
# Mechanical properties :
#
#
# Convention : Reuss Voigt Hill
#
# Bulk Modulus (GPa) = 46.44256 76.77903 61.61080
# Shear Modulus (GPa) = -6.28271 29.23064 11.47397
#
# Velocity S-wave (km/s) = -1.71519 3.69963 2.31791
# Velocity P-wave (km/s) = 4.22188 7.36216 6.00107
#
# Compressibility (1/GPa) = 0.02153197
#
# Stress axis : x y z
#
# Youngs Moduli (GPa) = 92.65377 35.28643 138.22475
#
# Poissons Ratio (x) = 0.30836 0.48980
# Poissons Ratio (y) = 0.80968 0.01869
# Poissons Ratio (z) = 0.32832 0.00477
#
# Static dielectric constant tensor:
#      x y z
#    x 3.828760 0.000000 0.000000 
#    y 0.000000 3.538860 0.000000 
#    z 0.000000 0.000000 2.005270 
# 
# 
# High freq. dielectric constant tensor:
#      x y z
#    x 1.844950 0.000000 0.000000 
#    y 0.000000 1.808170 0.000000 
#    z 0.000000 0.000000 1.868210 
# 
# From -- ./inp_files/15102.got.cif
#   From: 2010.03.12/outbox.cif.g09.slc.cpg/sg66_8_cif.got.tgz:15102.got - 2010.04.10 21:57:39.
