data_PCOD8277220
_publ_section_title
;
Structure prediction by ZEFSAII (Michael W. Deem and Ramdas Pophale) SiO2 
 PCOD8277220
Probable space group: C C C M
;
_chemical_formula_sum "Si O2"
_cell_formula_units_Z 80
_cell_length_a 11.671457
_cell_length_b 21.316299
_cell_length_c 13.955663
_cell_angle_alpha 90.000000
_cell_angle_beta 90.000000
_cell_angle_gamma 90.000000
_cell_volume 3472.061038
_symmetry_space_group_name_H-M "C C C M"
_symmetry_group_IT_number 66
_symmetry_cell_setting 'orthorhombic'
loop_
_space_group_symop_operation_xyz
x,y,z
-x,-y,z
x,-y,1/2-z
-x,y,1/2-z
-x,-y,-z
x,y,-z
-x,y,1/2+z
x,-y,1/2+z
1/2+x,1/2+y,z
1/2-x,1/2-y,z
1/2+x,1/2-y,1/2-z
1/2-x,1/2+y,1/2-z
1/2-x,1/2-y,-z
1/2+x,1/2+y,-z
1/2-x,1/2+y,1/2+z
1/2+x,1/2-y,1/2+z
loop_
_atom_site_type_symbol
_atom_site_label
_atom_site_fract_x
_atom_site_fract_y
_atom_site_fract_z
Si Si1 0.766741 0.902594 0.391971
Si Si2 0.183804 0.836496 0.613639
Si Si3 0.631709 0.187283 0.764361
Si Si4 0.936531 0.204299 0.891804
Si Si5 0.117944 0.973489 0.387340
O O1 0.720060 0.898717 0.500000
O O2 0.673336 0.871734 0.324984
O O3 0.888906 0.866314 0.384568
O O4 0.785504 0.974904 0.362583
O O5 0.207664 0.835111 0.500000
O O6 0.294715 0.807518 0.666186
O O7 0.160072 0.906744 0.654042
O O8 0.070279 0.795627 0.639988
O O9 0.500000 0.171515 0.750000
O O10 0.641315 0.252628 0.823142
O O11 0.925760 0.230045 0.000000
O O12 0.099866 0.964323 0.500000
O O13 0.000000 0.000000 0.341927
#
# Coordination Sequence:
#
# PCOD8277220 Si02
#       5
#    16  16  16  16  16
#     4  10  21  40  68  99 131 168 216 274 340 403
#     4  10  23  44  70 102 135 171 223 286 348 399
#     4  12  28  41  62  92 138 184 229 269 321 403
#     4  10  22  42  69  97 130 169 218 282 344 400
#     4   9  16  37  71 103 131 163 214 284 350 400
#
# _framework density 23.041069
#
# number of rings (size 3 to 8) (size 9 to 14) (size 15 to 20)
#    0.000    1.800    2.000    1.200    5.600    4.000 
#    0.000    5.000    0.000    3.600    0.000    0.000 
#    0.000    0.000    0.000    0.000    0.000    0.000 
#
# Total GULP energy -496056.671545 kJ/mol
# GULP energy per Si atom -12401.416789 kJ/mol
# Density = 2.298863 g / cm^3
# Si number density = 23.041069 Si / 1000 Ang^3
#
#
#
# Elastic Constant Matrix: (Units=GPa)
#
#
# Indices 1 2 3 4 5 6 
#
# 1 133.8523 44.4455 57.9671 0.0000 0.0000 0.0000
# 2 44.4455 109.3139 41.3218 0.0000 0.0000 0.0000
# 3 57.9671 41.3218 93.1291 0.0000 0.0000 0.0000
# 4 0.0000 0.0000 0.0000 18.7088 0.0000 0.0000
# 5 0.0000 0.0000 0.0000 0.0000 42.9419 0.0000
# 6 0.0000 0.0000 0.0000 0.0000 0.0000 25.9462
#
#
#
# Elastic Compliance Matrix: (Units=1/GPa)
#
#
# Indices 1 2 3 4 5 6 
#
# 1 0.010648 -0.002191 -0.005655 0.000000 0.000000 0.000000
# 2 -0.002191 0.011443 -0.003713 0.000000 0.000000 0.000000
# 3 -0.005655 -0.003713 0.015905 0.000000 0.000000 0.000000
# 4 0.000000 0.000000 0.000000 0.053451 0.000000 0.000000
# 5 0.000000 0.000000 0.000000 0.000000 0.023287 0.000000
# 6 0.000000 0.000000 0.000000 0.000000 0.000000 0.038541
#
#
# Mechanical properties :
#
#
# Convention : Reuss Voigt Hill
#
# Bulk Modulus (GPa) = 67.22181 69.30713 68.26447
# Shear Modulus (GPa) = 27.57056 30.35678 28.96367
#
# Velocity S-wave (km/s) = 3.46292 3.63369 3.54933
# Velocity P-wave (km/s) = 6.72512 6.91014 6.81826
#
# Compressibility (1/GPa) = 0.01487612
#
# Stress axis : x y z
#
# Youngs Moduli (GPa) = 93.91740 87.39290 62.87232
#
# Poissons Ratio (x) = 0.19152 0.35555
# Poissons Ratio (y) = 0.20582 0.23345
# Poissons Ratio (z) = 0.53111 0.32450
#
# Static dielectric constant tensor:
#      x y z
#    x 3.916470 0.000000 0.000000 
#    y 0.000000 4.254680 0.000000 
#    z 0.000000 0.000000 4.205530 
# 
# 
# High freq. dielectric constant tensor:
#      x y z
#    x 1.888770 0.000000 0.000000 
#    y 0.000000 1.915660 0.000000 
#    z 0.000000 0.000000 1.923030 
# 
# From -- ./inp_files/26405.got.cif
#   From: 2010.03.12/outbox.cif.g09.slc.cpg/sg66_14_cif.got.tgz:26405.got - 2010.04.10 21:57:39.
