data_PCOD8277308
_publ_section_title
;
Structure prediction by ZEFSAII (Michael W. Deem and Ramdas Pophale) SiO2 
 PCOD8277308
Probable space group: C C C M
;
_chemical_formula_sum "Si O2"
_cell_formula_units_Z 88
_cell_length_a 18.074099
_cell_length_b 16.521394
_cell_length_c 14.356152
_cell_angle_alpha 90.000000
_cell_angle_beta 90.000000
_cell_angle_gamma 90.000000
_cell_volume 4286.880654
_symmetry_space_group_name_H-M "C C C M"
_symmetry_group_IT_number 66
_symmetry_cell_setting 'orthorhombic'
loop_
_space_group_symop_operation_xyz
x,y,z
-x,-y,z
x,-y,1/2-z
-x,y,1/2-z
-x,-y,-z
x,y,-z
-x,y,1/2+z
x,-y,1/2+z
1/2+x,1/2+y,z
1/2-x,1/2-y,z
1/2+x,1/2-y,1/2-z
1/2-x,1/2+y,1/2-z
1/2-x,1/2-y,-z
1/2+x,1/2+y,-z
1/2-x,1/2+y,1/2+z
1/2+x,1/2-y,1/2+z
loop_
_atom_site_type_symbol
_atom_site_label
_atom_site_fract_x
_atom_site_fract_y
_atom_site_fract_z
Si Si1 0.051190 0.288881 0.106648
Si Si2 0.574567 0.964186 0.110526
Si Si3 0.793723 0.422642 0.890203
Si Si4 0.818941 0.000000 0.250000
Si Si5 0.085340 0.147077 0.762922
Si Si6 0.881369 0.262720 0.893306
O O1 0.087665 0.371925 0.143481
O O2 0.090297 0.216468 0.160100
O O3 0.963281 0.298667 0.123585
O O4 0.068947 0.272253 0.000000
O O5 0.500000 0.000000 0.155413
O O6 0.641762 0.018298 0.144351
O O7 0.566854 0.965344 0.000000
O O8 0.724681 0.452154 0.830002
O O9 0.819354 0.330340 0.868695
O O10 0.776500 0.432429 0.000000
O O11 0.870802 0.931904 0.202146
O O12 0.125048 0.182379 0.669611
O O13 0.000000 0.122206 0.750000
O O14 0.870784 0.234944 0.000000
#
# Coordination Sequence:
#
# PCOD8277308 Si02
#       6
#    16  16  16   8  16  16
#     4   9  17  33  61  93 120 148 189 242 295 349
#     4   9  15  30  58  89 122 154 185 230 286 351
#     4  10  22  39  59  88 125 160 193 235 296 361
#     4  12  27  42  57  82 120 162 204 250 295 354
#     4  10  23  42  63  84 111 153 209 257 298 340
#     4   9  18  37  63  89 115 148 194 246 294 343
#
# _framework density 20.527746
#
# number of rings (size 3 to 8) (size 9 to 14) (size 15 to 20)
#    0.000    2.364    1.818    0.273    2.545    2.182 
#    0.000    2.273    0.000    8.727    0.000    0.000 
#    0.000    0.000    0.000    0.000    0.000    0.000 
#
# Total GULP energy -545427.963058 kJ/mol
# GULP energy per Si atom -12396.090069 kJ/mol
# Density = 2.048102 g / cm^3
# Si number density = 20.527746 Si / 1000 Ang^3
#
#
#
# Elastic Constant Matrix: (Units=GPa)
#
#
# Indices 1 2 3 4 5 6 
#
# 1 83.4854 67.6037 35.5174 0.0000 0.0000 0.0000
# 2 67.6037 133.6195 42.4865 0.0000 0.0000 0.0000
# 3 35.5174 42.4865 70.2338 0.0000 0.0000 0.0000
# 4 0.0000 0.0000 0.0000 22.8184 0.0000 0.0000
# 5 0.0000 0.0000 0.0000 0.0000 23.8368 0.0000
# 6 0.0000 0.0000 0.0000 0.0000 0.0000 35.4364
#
#
#
# Elastic Compliance Matrix: (Units=1/GPa)
#
#
# Indices 1 2 3 4 5 6 
#
# 1 0.021827 -0.009327 -0.005395 0.000000 0.000000 0.000000
# 2 -0.009327 0.013252 -0.003300 0.000000 0.000000 0.000000
# 3 -0.005395 -0.003300 0.018963 0.000000 0.000000 0.000000
# 4 0.000000 0.000000 0.000000 0.043824 0.000000 0.000000
# 5 0.000000 0.000000 0.000000 0.000000 0.041952 0.000000
# 6 0.000000 0.000000 0.000000 0.000000 0.000000 0.028220
#
#
# Mechanical properties :
#
#
# Convention : Reuss Voigt Hill
#
# Bulk Modulus (GPa) = 55.56637 64.28375 59.92506
# Shear Modulus (GPa) = 23.80033 25.86706 24.83370
#
# Velocity S-wave (km/s) = 3.40872 3.55364 3.48194
# Velocity P-wave (km/s) = 6.52842 6.94416 6.73949
#
# Compressibility (1/GPa) = 0.01799650
#
# Stress axis : x y z
#
# Youngs Moduli (GPa) = 45.81584 75.45862 52.73503
#
# Poissons Ratio (x) = 0.70383 0.28452
# Poissons Ratio (y) = 0.42734 0.17402
# Poissons Ratio (z) = 0.24719 0.24900
#
# Static dielectric constant tensor:
#      x y z
#    x 3.576640 0.000000 0.000000 
#    y 0.000000 3.745860 0.000000 
#    z 0.000000 0.000000 3.654970 
# 
# 
# High freq. dielectric constant tensor:
#      x y z
#    x 1.785640 0.000000 0.000000 
#    y 0.000000 1.806990 0.000000 
#    z 0.000000 0.000000 1.795200 
# 
# From -- ./inp_files/31092.got.cif
#   From: 2010.03.12/outbox.cif.g09.slc.cpg/sg66_16_cif.got.tgz:31092.got - 2010.04.10 21:57:39.
