data_PCOD8277748
_publ_section_title
;
Structure prediction by ZEFSAII (Michael W. Deem and Ramdas Pophale) SiO2 
 PCOD8277748
Probable space group: C C C M
;
_chemical_formula_sum "Si O2"
_cell_formula_units_Z 80
_cell_length_a 15.891249
_cell_length_b 11.500379
_cell_length_c 21.365570
_cell_angle_alpha 90.000000
_cell_angle_beta 90.000000
_cell_angle_gamma 90.000000
_cell_volume 3904.672999
_symmetry_space_group_name_H-M "C C C M"
_symmetry_group_IT_number 66
_symmetry_cell_setting 'orthorhombic'
loop_
_space_group_symop_operation_xyz
x,y,z
-x,-y,z
x,-y,1/2-z
-x,y,1/2-z
-x,-y,-z
x,y,-z
-x,y,1/2+z
x,-y,1/2+z
1/2+x,1/2+y,z
1/2-x,1/2-y,z
1/2+x,1/2-y,1/2-z
1/2-x,1/2+y,1/2-z
1/2-x,1/2-y,-z
1/2+x,1/2+y,-z
1/2-x,1/2+y,1/2+z
1/2+x,1/2-y,1/2+z
loop_
_atom_site_type_symbol
_atom_site_label
_atom_site_fract_x
_atom_site_fract_y
_atom_site_fract_z
Si Si1 0.376691 0.745557 0.639070
Si Si2 0.156350 0.714583 0.500000
Si Si3 0.525842 0.876834 0.679690
Si Si4 0.744975 0.438912 0.682081
Si Si5 0.311281 0.142648 0.385612
Si Si6 0.597372 0.961365 0.500000
O O1 0.380216 0.732899 0.563950
O O2 0.473755 0.767182 0.654180
O O3 0.343154 0.628435 0.672365
O O4 0.322162 0.852477 0.666962
O O5 0.250000 0.750000 0.500000
O O6 0.152888 0.575999 0.500000
O O7 0.500000 0.894445 0.750000
O O8 0.624977 0.843968 0.673647
O O9 0.500000 0.000000 0.645231
O O10 0.750643 0.500000 0.750000
O O11 0.748216 0.537434 0.628883
O O12 0.250000 0.250000 0.399119
O O13 0.377000 0.118306 0.441343
O O14 0.500000 0.000000 0.500000
#
# Coordination Sequence:
#
# PCOD8277748 Si02
#       6
#    16   8  16  16  16   8
#     4  11  22  39  66  98 129 172 226 278 332 387
#     4  12  18  37  64  97 126 157 219 272 312 391
#     4  11  22  40  62  95 128 170 228 275 327 397
#     4  11  23  38  63  97 131 171 219 271 334 394
#     4  12  25  41  64  97 134 174 211 276 340 401
#     4  12  23  43  68  97 134 164 225 277 338 395
#
# _framework density 20.488271000000001
#
# number of rings (size 3 to 8) (size 9 to 14) (size 15 to 20)
#    0.000    0.600    6.000    3.300    5.600    0.000 
#    0.000    1.000    0.000    0.000    0.000    8.400 
#    0.000    0.000    0.000    0.000    0.000    0.000 
#
# Total GULP energy -495645.794986 kJ/mol
# GULP energy per Si atom -12391.144875 kJ/mol
# Density = 2.044164 g / cm^3
# Si number density = 20.488271 Si / 1000 Ang^3
#
#
#
# Elastic Constant Matrix: (Units=GPa)
#
#
# Indices 1 2 3 4 5 6 
#
# 1 123.8702 67.4897 29.7783 0.0000 0.0000 0.0000
# 2 67.4897 116.1480 43.7760 0.0000 0.0000 0.0000
# 3 29.7783 43.7760 121.6796 0.0000 0.0000 0.0000
# 4 0.0000 0.0000 0.0000 -1.3403 0.0000 0.0000
# 5 0.0000 0.0000 0.0000 0.0000 26.8902 0.0000
# 6 0.0000 0.0000 0.0000 0.0000 0.0000 35.0472
#
#
#
# Elastic Compliance Matrix: (Units=1/GPa)
#
#
# Indices 1 2 3 4 5 6 
#
# 1 0.011838 -0.006694 -0.000489 0.000000 0.000000 0.000000
# 2 -0.006694 0.013746 -0.003307 0.000000 0.000000 0.000000
# 3 -0.000489 -0.003307 0.009528 0.000000 0.000000 0.000000
# 4 0.000000 0.000000 0.000000 -0.746123 0.000000 0.000000
# 5 0.000000 0.000000 0.000000 0.000000 0.037188 0.000000
# 6 0.000000 0.000000 0.000000 0.000000 0.000000 0.028533
#
#
# Mechanical properties :
#
#
# Convention : Reuss Voigt Hill
#
# Bulk Modulus (GPa) = 70.76458 71.53174 71.14816
# Shear Modulus (GPa) = -8.06973 26.82968 9.37998
#
# Velocity S-wave (km/s) = -1.98677 3.62265 2.14200
# Velocity P-wave (km/s) = 5.41766 7.24482 6.39681
#
# Compressibility (1/GPa) = 0.01413136
#
# Stress axis : x y z
#
# Youngs Moduli (GPa) = 84.47508 72.74848 104.95782
#
# Poissons Ratio (x) = 0.48701 0.05129
# Poissons Ratio (y) = 0.56551 0.34710
# Poissons Ratio (z) = 0.04128 0.24058
#
# Static dielectric constant tensor:
#      x y z
#    x 3.689850 0.000000 0.000000 
#    y 0.000000 3.816280 0.000000 
#    z 0.000000 0.000000 3.867950 
# 
# 
# High freq. dielectric constant tensor:
#      x y z
#    x 1.790680 0.000000 0.000000 
#    y 0.000000 1.780330 0.000000 
#    z 0.000000 0.000000 1.816950 
# 
# From -- ./inp_files/50812.got.cif
#   From: 2010.03.12/outbox.cif.g09.slc.cpg/sg66_26_cif.got.tgz:50812.got - 2010.04.10 21:57:39.
