data_PCOD8277111
_publ_section_title
;
Structure prediction by ZEFSAII (Michael W. Deem and Ramdas Pophale) SiO2 
 PCOD8277111
Probable space group: C C C M
;
_chemical_formula_sum "Si O2"
_cell_formula_units_Z 96
_cell_length_a 21.462879
_cell_length_b 14.486589
_cell_length_c 15.248752
_cell_angle_alpha 90.000000
_cell_angle_beta 90.000000
_cell_angle_gamma 90.000000
_cell_volume 4741.201546
_symmetry_space_group_name_H-M "C C C M"
_symmetry_group_IT_number 66
_symmetry_cell_setting 'orthorhombic'
loop_
_space_group_symop_operation_xyz
x,y,z
-x,-y,z
x,-y,1/2-z
-x,y,1/2-z
-x,-y,-z
x,y,-z
-x,y,1/2+z
x,-y,1/2+z
1/2+x,1/2+y,z
1/2-x,1/2-y,z
1/2+x,1/2-y,1/2-z
1/2-x,1/2+y,1/2-z
1/2-x,1/2-y,-z
1/2+x,1/2+y,-z
1/2-x,1/2+y,1/2+z
1/2+x,1/2-y,1/2+z
loop_
_atom_site_type_symbol
_atom_site_label
_atom_site_fract_x
_atom_site_fract_y
_atom_site_fract_z
Si Si1 0.535411 0.248934 0.338284
Si Si2 0.758107 0.645561 0.243087
Si Si3 0.878365 0.103838 0.742977
Si Si4 0.638692 0.114093 0.400410
Si Si5 0.406726 0.725071 0.096241
Si Si6 0.663949 0.091193 0.099467
O O1 0.500000 0.219122 0.250000
O O2 0.578671 0.338771 0.323728
O O3 0.575151 0.163437 0.372620
O O4 0.481904 0.275186 0.407284
O O5 0.750000 0.750000 0.275519
O O6 0.692908 0.603118 0.209603
O O7 0.805350 0.644970 0.162088
O O8 0.781125 0.588356 0.328273
O O9 0.879285 0.149407 0.838804
O O10 0.904384 0.000000 0.750000
O O11 0.656314 0.141884 0.500000
O O12 0.626579 0.004685 0.392852
O O13 0.383133 0.826662 0.124596
O O14 0.381859 0.699363 0.000000
O O15 0.690595 0.102925 0.000000
#
# Coordination Sequence:
#
# PCOD8277111 Si02
#       6
#    16  16  16  16  16  16
#     4  10  21  39  60  86 120 161 202 246 297 352
#     4  12  21  40  64  88 120 161 201 246 305 364
#     4  11  23  40  60  83 116 157 202 249 296 350
#     4  11  23  40  62  94 129 160 195 243 306 376
#     4  10  21  39  61  87 115 150 199 250 295 348
#     4  10  22  39  64  94 123 154 197 249 305 365
#
# _framework density 20.248033
#
# number of rings (size 3 to 8) (size 9 to 14) (size 15 to 20)
#    0.000    1.333    3.333    3.000    0.000    5.000 
#    0.000    8.333    0.000    0.000    0.000    0.000 
#    0.000    0.000    0.000    0.000    0.000    0.000 
#
# Total GULP energy -595265.456027 kJ/mol
# GULP energy per Si atom -12401.363667 kJ/mol
# Density = 2.020195 g / cm^3
# Si number density = 20.248033 Si / 1000 Ang^3
#
#
#
# Elastic Constant Matrix: (Units=GPa)
#
#
# Indices 1 2 3 4 5 6 
#
# 1 105.2508 23.6357 33.0795 0.0000 0.0000 0.0000
# 2 23.6357 121.3917 33.0139 0.0000 0.0000 0.0000
# 3 33.0795 33.0139 97.1771 0.0000 0.0000 0.0000
# 4 0.0000 0.0000 0.0000 26.6213 0.0000 0.0000
# 5 0.0000 0.0000 0.0000 0.0000 15.8387 0.0000
# 6 0.0000 0.0000 0.0000 0.0000 0.0000 21.9339
#
#
#
# Elastic Compliance Matrix: (Units=1/GPa)
#
#
# Indices 1 2 3 4 5 6 
#
# 1 0.010800 -0.001215 -0.003263 0.000000 0.000000 0.000000
# 2 -0.001215 0.009213 -0.002716 0.000000 0.000000 0.000000
# 3 -0.003263 -0.002716 0.012324 0.000000 0.000000 0.000000
# 4 0.000000 0.000000 0.000000 0.037564 0.000000 0.000000
# 5 0.000000 0.000000 0.000000 0.000000 0.063137 0.000000
# 6 0.000000 0.000000 0.000000 0.000000 0.000000 0.045592
#
#
# Mechanical properties :
#
#
# Convention : Reuss Voigt Hill
#
# Bulk Modulus (GPa) = 55.71930 55.91976 55.81953
# Shear Modulus (GPa) = 25.12545 28.48479 26.80512
#
# Velocity S-wave (km/s) = 3.52644 3.75479 3.64241
# Velocity P-wave (km/s) = 6.64524 6.81728 6.73181
#
# Compressibility (1/GPa) = 0.01794710
#
# Stress axis : x y z
#
# Youngs Moduli (GPa) = 92.59530 108.54065 81.14133
#
# Poissons Ratio (x) = 0.13190 0.26480
# Poissons Ratio (y) = 0.11253 0.22040
# Poissons Ratio (z) = 0.30218 0.29483
#
# Static dielectric constant tensor:
#      x y z
#    x 3.710270 0.000000 0.000000 
#    y 0.000000 3.717160 0.000000 
#    z 0.000000 0.000000 3.731510 
# 
# 
# High freq. dielectric constant tensor:
#      x y z
#    x 1.789030 0.000000 0.000000 
#    y 0.000000 1.793420 0.000000 
#    z 0.000000 0.000000 1.791500 
# 
# From -- ./inp_files/28377.got.cif
#   From: 2010.03.12/outbox.cif.g09.slc.cpg/sg66_15_cif.got.tgz:28377.got - 2010.04.10 21:57:39.
