data_PCOD8277832
_publ_section_title
;
Structure prediction by ZEFSAII (Michael W. Deem and Ramdas Pophale) SiO2 
 PCOD8277832
Probable space group: C C C M
;
_chemical_formula_sum "Si O2"
_cell_formula_units_Z 88
_cell_length_a 31.943890
_cell_length_b 10.977751
_cell_length_c 13.929848
_cell_angle_alpha 90.000000
_cell_angle_beta 90.000000
_cell_angle_gamma 90.000000
_cell_volume 4884.808638
_symmetry_space_group_name_H-M "C C C M"
_symmetry_group_IT_number 66
_symmetry_cell_setting 'orthorhombic'
loop_
_space_group_symop_operation_xyz
x,y,z
-x,-y,z
x,-y,1/2-z
-x,y,1/2-z
-x,-y,-z
x,y,-z
-x,y,1/2+z
x,-y,1/2+z
1/2+x,1/2+y,z
1/2-x,1/2-y,z
1/2+x,1/2-y,1/2-z
1/2-x,1/2+y,1/2-z
1/2-x,1/2-y,-z
1/2+x,1/2+y,-z
1/2-x,1/2+y,1/2+z
1/2+x,1/2-y,1/2+z
loop_
_atom_site_type_symbol
_atom_site_label
_atom_site_fract_x
_atom_site_fract_y
_atom_site_fract_z
Si Si1 0.081586 0.124409 0.500000
Si Si2 0.413562 0.204274 0.155909
Si Si3 0.455196 0.059170 0.000000
Si Si4 0.163897 0.461675 0.150907
Si Si5 0.877003 0.381756 0.000000
Si Si6 0.202389 0.712427 0.500000
Si Si7 0.046546 0.877366 0.207319
Si Si8 0.375438 0.628566 0.500000
O O1 0.112072 0.240274 0.500000
O O2 0.050300 0.121354 0.408381
O O3 0.115295 0.014936 0.500000
O O4 0.378462 0.106925 0.180608
O O5 0.429925 0.256689 0.256414
O O6 0.395773 0.315492 0.094521
O O7 0.450880 0.141398 0.095407
O O8 0.500000 0.000000 0.000000
O O9 0.419601 0.957690 0.000000
O O10 0.186828 0.500000 0.250000
O O11 0.151463 0.582141 0.091396
O O12 0.193612 0.370345 0.092962
O O13 0.250000 0.750000 0.500000
O O14 0.173885 0.834841 0.500000
O O15 0.000000 0.871591 0.250000
O O16 0.067680 0.000000 0.250000
#
# Coordination Sequence:
#
# PCOD8277832 Si02
#       8
#     8  16   8  16   8   8  16   8
#     4  12  22  36  58  75 116 140 206 238 272 346
#     4   9  18  36  53  78 111 143 193 230 281 338
#     4   9  19  32  55  79 108 145 193 247 290 321
#     4   9  17  35  61  81 115 151 182 221 279 342
#     4   9  20  32  53  89 104 149 190 234 280 327
#     4   9  19  36  66  92 112 141 184 222 278 343
#     4  11  24  35  50  78 107 152 193 238 294 321
#     4   9  18  35  61  81 103 150 176 228 269 334
#
# _framework density 18.015035000000001
#
# number of rings (size 3 to 8) (size 9 to 14) (size 15 to 20)
#    0.000    2.364    1.818    3.273    2.545    2.182 
#    0.000    0.000   12.000    1.091    0.000    0.000 
#    0.000    0.000    0.000    0.000    0.000    0.000 
#
# Total GULP energy -545366.988321 kJ/mol
# GULP energy per Si atom -12394.704280 kJ/mol
# Density = 1.797403 g / cm^3
# Si number density = 18.015035 Si / 1000 Ang^3
#
#
#
# Elastic Constant Matrix: (Units=GPa)
#
#
# Indices 1 2 3 4 5 6 
#
# 1 98.6123 38.9835 46.4519 0.0000 0.0000 0.0000
# 2 38.9835 110.7890 48.3887 0.0000 0.0000 0.0000
# 3 46.4519 48.3887 148.3395 0.0000 0.0000 0.0000
# 4 0.0000 0.0000 0.0000 21.6772 0.0000 0.0000
# 5 0.0000 0.0000 0.0000 0.0000 9.3239 0.0000
# 6 0.0000 0.0000 0.0000 0.0000 0.0000 18.4802
#
#
#
# Elastic Compliance Matrix: (Units=1/GPa)
#
#
# Indices 1 2 3 4 5 6 
#
# 1 0.012806 -0.003212 -0.002962 0.000000 0.000000 0.000000
# 2 -0.003212 0.011332 -0.002690 0.000000 0.000000 0.000000
# 3 -0.002962 -0.002690 0.008547 0.000000 0.000000 0.000000
# 4 0.000000 0.000000 0.000000 0.046131 0.000000 0.000000
# 5 0.000000 0.000000 0.000000 0.000000 0.107251 0.000000
# 6 0.000000 0.000000 0.000000 0.000000 0.000000 0.054112
#
#
# Mechanical properties :
#
#
# Convention : Reuss Voigt Hill
#
# Bulk Modulus (GPa) = 66.87138 69.48766 68.17952
# Shear Modulus (GPa) = 19.01911 24.82404 21.92158
#
# Velocity S-wave (km/s) = 3.25273 3.71612 3.49212
# Velocity P-wave (km/s) = 7.16292 7.55437 7.36125
#
# Compressibility (1/GPa) = 0.01495408
#
# Stress axis : x y z
#
# Youngs Moduli (GPa) = 78.08849 88.24906 117.00603
#
# Poissons Ratio (x) = 0.28348 0.34661
# Poissons Ratio (y) = 0.25084 0.31480
# Poissons Ratio (z) = 0.23132 0.23743
#
# Static dielectric constant tensor:
#      x y z
#    x 2.916330 0.000000 0.000000 
#    y 0.000000 3.527350 0.000000 
#    z 0.000000 0.000000 3.529050 
# 
# 
# High freq. dielectric constant tensor:
#      x y z
#    x 1.651950 0.000000 0.000000 
#    y 0.000000 1.704770 0.000000 
#    z 0.000000 0.000000 1.708620 
# 
# From -- ./inp_files/33729.got.cif
#   From: 2010.03.12/outbox.cif.g09.slc.cpg/sg66_17_cif.got.tgz:33729.got - 2010.04.10 21:57:39.
