data_PCOD8277923
_publ_section_title
;
Structure prediction by ZEFSAII (Michael W. Deem and Ramdas Pophale) SiO2 
 PCOD8277923
Probable space group: C C C M
;
_chemical_formula_sum "Si O2"
_cell_formula_units_Z 80
_cell_length_a 9.676246
_cell_length_b 27.747421
_cell_length_c 16.209820
_cell_angle_alpha 90.000000
_cell_angle_beta 90.000000
_cell_angle_gamma 90.000000
_cell_volume 4352.188698
_symmetry_space_group_name_H-M "C C C M"
_symmetry_group_IT_number 66
_symmetry_cell_setting 'orthorhombic'
loop_
_space_group_symop_operation_xyz
x,y,z
-x,-y,z
x,-y,1/2-z
-x,y,1/2-z
-x,-y,-z
x,y,-z
-x,y,1/2+z
x,-y,1/2+z
1/2+x,1/2+y,z
1/2-x,1/2-y,z
1/2+x,1/2-y,1/2-z
1/2-x,1/2+y,1/2-z
1/2-x,1/2-y,-z
1/2+x,1/2+y,-z
1/2-x,1/2+y,1/2+z
1/2+x,1/2-y,1/2+z
loop_
_atom_site_type_symbol
_atom_site_label
_atom_site_fract_x
_atom_site_fract_y
_atom_site_fract_z
Si Si1 0.912632 0.388190 0.670726
Si Si2 0.121073 0.061634 0.597446
Si Si3 0.843972 0.706484 0.253431
Si Si4 0.315461 0.455669 0.097764
Si Si5 0.321986 0.854959 0.094252
O O1 0.827227 0.339691 0.693439
O O2 0.808970 0.429472 0.643611
O O3 0.000000 0.405509 0.750000
O O4 0.022786 0.376525 0.598623
O O5 0.126227 0.059159 0.500000
O O6 0.213374 0.105655 0.629524
O O7 0.961547 0.068193 0.624977
O O8 0.183914 0.010950 0.628998
O O9 0.750000 0.750000 0.221798
O O10 0.805822 0.691684 0.347465
O O11 0.000000 0.725560 0.250000
O O12 0.293302 0.451366 0.000000
O O13 0.289358 0.840408 0.000000
#
# Coordination Sequence:
#
# PCOD8277923 Si02
#       5
#    16  16  16  16  16
#     4   9  19  33  48  70  99 131 162 198 241 290
#     4   8  16  29  48  76 102 126 161 202 239 278
#     4   9  20  36  51  68  93 125 158 198 249 297
#     4   9  16  30  51  73 101 134 165 197 236 281
#     4   9  17  32  52  74  98 123 160 204 242 284
#
# _framework density 18.381556
#
# number of rings (size 3 to 8) (size 9 to 14) (size 15 to 20)
#    0.000    3.600    0.000    1.800    0.000    2.800 
#    0.000   14.000    0.000   24.600    0.000    0.000 
#    0.000    0.000    0.000    0.000    0.000    0.000 
#
# Total GULP energy -495734.524715 kJ/mol
# GULP energy per Si atom -12393.363118 kJ/mol
# Density = 1.833972 g / cm^3
# Si number density = 18.381556 Si / 1000 Ang^3
#
#
#
# Elastic Constant Matrix: (Units=GPa)
#
#
# Indices 1 2 3 4 5 6 
#
# 1 91.3076 63.2435 23.4876 0.0000 0.0000 0.0000
# 2 63.2435 78.2750 27.2918 0.0000 0.0000 0.0000
# 3 23.4876 27.2918 48.9162 0.0000 0.0000 0.0000
# 4 0.0000 0.0000 0.0000 18.6612 0.0000 0.0000
# 5 0.0000 0.0000 0.0000 0.0000 22.4658 0.0000
# 6 0.0000 0.0000 0.0000 0.0000 0.0000 45.6997
#
#
#
# Elastic Compliance Matrix: (Units=1/GPa)
#
#
# Indices 1 2 3 4 5 6 
#
# 1 0.024902 -0.019804 -0.000908 0.000000 0.000000 0.000000
# 2 -0.019804 0.031610 -0.008127 0.000000 0.000000 0.000000
# 3 -0.000908 -0.008127 0.025414 0.000000 0.000000 0.000000
# 4 0.000000 0.000000 0.000000 0.053587 0.000000 0.000000
# 5 0.000000 0.000000 0.000000 0.000000 0.044512 0.000000
# 6 0.000000 0.000000 0.000000 0.000000 0.000000 0.021882
#
#
# Mechanical properties :
#
#
# Convention : Reuss Voigt Hill
#
# Bulk Modulus (GPa) = 41.24056 49.61609 45.42832
# Shear Modulus (GPa) = 18.67987 24.33038 21.50512
#
# Velocity S-wave (km/s) = 3.19129 3.64212 3.42413
# Velocity P-wave (km/s) = 6.00530 6.68862 6.35615
#
# Compressibility (1/GPa) = 0.02424798
#
# Stress axis : x y z
#
# Youngs Moduli (GPa) = 40.15662 31.63569 39.34909
#
# Poissons Ratio (x) = 0.62650 0.03573
# Poissons Ratio (y) = 0.79525 0.31980
# Poissons Ratio (z) = 0.03647 0.25711
#
# Static dielectric constant tensor:
#      x y z
#    x 3.606710 0.000000 0.000000 
#    y 0.000000 3.308400 0.000000 
#    z 0.000000 0.000000 3.148570 
# 
# 
# High freq. dielectric constant tensor:
#      x y z
#    x 1.715730 0.000000 0.000000 
#    y 0.000000 1.695870 0.000000 
#    z 0.000000 0.000000 1.697460 
# 
# From -- ./inp_files/37151.got.cif
#   From: 2010.03.12/outbox.cif.g09.slc.cpg/sg66_19_cif.got.tgz:37151.got - 2010.04.10 21:57:39.
