data_PCOD8277586
_publ_section_title
;
Structure prediction by ZEFSAII (Michael W. Deem and Ramdas Pophale) SiO2 
 PCOD8277586
Probable space group: C C C M
;
_chemical_formula_sum "Si O2"
_cell_formula_units_Z 36
_cell_length_a 6.836699
_cell_length_b 15.850316
_cell_length_c 14.398064
_cell_angle_alpha 90.000000
_cell_angle_beta 90.000000
_cell_angle_gamma 90.000000
_cell_volume 1560.229497
_symmetry_space_group_name_H-M "C C C M"
_symmetry_group_IT_number 66
_symmetry_cell_setting 'orthorhombic'
loop_
_space_group_symop_operation_xyz
x,y,z
-x,-y,z
x,-y,1/2-z
-x,y,1/2-z
-x,-y,-z
x,y,-z
-x,y,1/2+z
x,-y,1/2+z
1/2+x,1/2+y,z
1/2-x,1/2-y,z
1/2+x,1/2-y,1/2-z
1/2-x,1/2+y,1/2-z
1/2-x,1/2-y,-z
1/2+x,1/2+y,-z
1/2-x,1/2+y,1/2+z
1/2+x,1/2-y,1/2+z
loop_
_atom_site_type_symbol
_atom_site_label
_atom_site_fract_x
_atom_site_fract_y
_atom_site_fract_z
Si Si1 0.774516 0.889843 0.399030
Si Si2 0.027756 0.260784 0.143367
Si Si3 0.500000 0.500000 0.250000
O O1 0.770091 0.937108 0.500000
O O2 0.909347 0.808361 0.413532
O O3 0.945019 0.644581 0.624163
O O4 0.855007 0.947340 0.315874
O O5 0.250000 0.250000 0.111792
O O6 0.000000 0.237164 0.250000
#
# Coordination Sequence:
#
# PCOD8277586 Si02
#       3
#    16  16   4
#     4  11  24  40  66 100 136 179 228 280 338 411
#     4  11  19  40  69 100 131 177 227 276 337 403
#     4  12  22  48  66  98 150 182 218 286 356 398
#
# _framework density 23.073526999999999
#
# number of rings (size 3 to 8) (size 9 to 14) (size 15 to 20)
#    0.000    0.889    6.667    3.333    0.000    3.556 
#    0.000   10.000    0.000   13.333    0.000    0.000 
#    0.000    0.000    0.000    0.000    0.000    0.000 
#
# Total GULP energy -223037.101526 kJ/mol
# GULP energy per Si atom -12390.950085 kJ/mol
# Density = 2.302101 g / cm^3
# Si number density = 23.073527 Si / 1000 Ang^3
#
#
#
# Elastic Constant Matrix: (Units=GPa)
#
#
# Indices 1 2 3 4 5 6 
#
# 1 187.0350 55.7602 42.5617 0.0000 0.0000 0.0000
# 2 55.7602 96.0211 51.6570 0.0000 0.0000 0.0000
# 3 42.5617 51.6570 182.7978 0.0000 0.0000 0.0000
# 4 0.0000 0.0000 0.0000 13.2648 0.0000 0.0000
# 5 0.0000 0.0000 0.0000 0.0000 12.3719 0.0000
# 6 0.0000 0.0000 0.0000 0.0000 0.0000 35.0020
#
#
#
# Elastic Compliance Matrix: (Units=1/GPa)
#
#
# Indices 1 2 3 4 5 6 
#
# 1 0.006509 -0.003496 -0.000528 0.000000 0.000000 0.000000
# 2 -0.003496 0.014159 -0.003187 0.000000 0.000000 0.000000
# 3 -0.000528 -0.003187 0.006494 0.000000 0.000000 0.000000
# 4 0.000000 0.000000 0.000000 0.075388 0.000000 0.000000
# 5 0.000000 0.000000 0.000000 0.000000 0.080828 0.000000
# 6 0.000000 0.000000 0.000000 0.000000 0.000000 0.028570
#
#
# Mechanical properties :
#
#
# Convention : Reuss Voigt Hill
#
# Bulk Modulus (GPa) = 78.48965 85.09021 81.78993
# Shear Modulus (GPa) = 21.68105 33.18608 27.43356
#
# Velocity S-wave (km/s) = 3.06870 3.79657 3.45187
# Velocity P-wave (km/s) = 6.82985 7.49510 7.17020
#
# Compressibility (1/GPa) = 0.01274053
#
# Stress axis : x y z
#
# Youngs Moduli (GPa) = 153.63624 70.62558 153.98691
#
# Poissons Ratio (x) = 0.24690 0.08124
# Poissons Ratio (y) = 0.53710 0.49080
# Poissons Ratio (z) = 0.08105 0.22510
#
# Static dielectric constant tensor:
#      x y z
#    x 4.403030 0.000000 0.000000 
#    y 0.000000 3.922940 0.000000 
#    z 0.000000 0.000000 4.252610 
# 
# 
# High freq. dielectric constant tensor:
#      x y z
#    x 1.913060 0.000000 0.000000 
#    y 0.000000 1.874920 0.000000 
#    z 0.000000 0.000000 1.938690 
# 
# From -- ./inp_files/14065.got.cif
#   From: 2010.03.12/outbox.cif.g09.slc.cpg/sg66_8_cif.got.tgz:14065.got - 2010.04.10 21:57:39.
