data_PCOD8277672
_publ_section_title
;
Structure prediction by ZEFSAII (Michael W. Deem and Ramdas Pophale) SiO2 
 PCOD8277672
Probable space group: C C C M
;
_chemical_formula_sum "Si O2"
_cell_formula_units_Z 88
_cell_length_a 15.424281
_cell_length_b 12.941188
_cell_length_c 22.271491
_cell_angle_alpha 90.000000
_cell_angle_beta 90.000000
_cell_angle_gamma 90.000000
_cell_volume 4445.579361
_symmetry_space_group_name_H-M "C C C M"
_symmetry_group_IT_number 66
_symmetry_cell_setting 'orthorhombic'
loop_
_space_group_symop_operation_xyz
x,y,z
-x,-y,z
x,-y,1/2-z
-x,y,1/2-z
-x,-y,-z
x,y,-z
-x,y,1/2+z
x,-y,1/2+z
1/2+x,1/2+y,z
1/2-x,1/2-y,z
1/2+x,1/2-y,1/2-z
1/2-x,1/2+y,1/2-z
1/2-x,1/2-y,-z
1/2+x,1/2+y,-z
1/2-x,1/2+y,1/2+z
1/2+x,1/2-y,1/2+z
loop_
_atom_site_type_symbol
_atom_site_label
_atom_site_fract_x
_atom_site_fract_y
_atom_site_fract_z
Si Si1 0.337262 0.405974 0.209670
Si Si2 0.428580 0.855561 0.000000
Si Si3 0.818234 0.431389 0.630079
Si Si4 0.617784 0.092390 0.500000
Si Si5 0.750000 0.250000 0.791617
Si Si6 0.947922 0.713241 0.189858
Si Si7 0.388227 0.840362 0.873893
O O1 0.373933 0.500000 0.250000
O O2 0.283267 0.440569 0.149866
O O3 0.267955 0.348978 0.251711
O O4 0.418412 0.333331 0.191572
O O5 0.377096 0.808966 0.056670
O O6 0.532674 0.833181 0.000000
O O7 0.417316 0.977617 0.000000
O O8 0.825191 0.389551 0.561063
O O9 0.862048 0.354069 0.678382
O O10 0.865430 0.540830 0.637716
O O11 0.666170 0.235048 0.832488
O O12 0.000000 0.682013 0.250000
O O13 0.010762 0.684273 0.135653
#
# Coordination Sequence:
#
# PCOD8277672 Si02
#       7
#    16   8  16   8   8  16  16
#     4  12  24  41  58  87 129 162 195 253 308 365
#     4   9  18  35  57  88 122 149 199 249 300 350
#     4  11  21  38  64  89 126 156 198 251 308 357
#     4   9  18  34  58  93 120 154 192 249 306 360
#     4  12  22  39  58  89 116 154 210 246 298 368
#     4  12  23  37  59  91 119 157 204 242 305 366
#     4  11  22  38  61  89 119 158 201 253 296 361
#
# _framework density 19.794944999999998
#
# number of rings (size 3 to 8) (size 9 to 14) (size 15 to 20)
#    0.000    0.909    7.273    0.545    0.000    1.455 
#    0.000    2.727    0.000    0.000    0.000    1.273 
#    0.000    0.000    0.000    0.000    0.000    0.000 
#
# Total GULP energy -545284.495011 kJ/mol
# GULP energy per Si atom -12392.829432 kJ/mol
# Density = 1.974989 g / cm^3
# Si number density = 19.794945 Si / 1000 Ang^3
#
#
#
# Elastic Constant Matrix: (Units=GPa)
#
#
# Indices 1 2 3 4 5 6 
#
# 1 52.2717 23.0808 21.5626 0.0000 0.0000 0.0000
# 2 23.0808 76.9010 34.4345 0.0000 0.0000 0.0000
# 3 21.5626 34.4345 100.8571 0.0000 0.0000 0.0000
# 4 0.0000 0.0000 0.0000 13.2811 0.0000 0.0000
# 5 0.0000 0.0000 0.0000 0.0000 24.8658 0.0000
# 6 0.0000 0.0000 0.0000 0.0000 0.0000 38.2551
#
#
#
# Elastic Compliance Matrix: (Units=1/GPa)
#
#
# Indices 1 2 3 4 5 6 
#
# 1 0.022795 -0.005500 -0.002996 0.000000 0.000000 0.000000
# 2 -0.005500 0.016678 -0.004518 0.000000 0.000000 0.000000
# 3 -0.002996 -0.004518 0.012098 0.000000 0.000000 0.000000
# 4 0.000000 0.000000 0.000000 0.075295 0.000000 0.000000
# 5 0.000000 0.000000 0.000000 0.000000 0.040216 0.000000
# 6 0.000000 0.000000 0.000000 0.000000 0.000000 0.026140
#
#
# Mechanical properties :
#
#
# Convention : Reuss Voigt Hill
#
# Bulk Modulus (GPa) = 39.14985 43.13174 41.14080
# Shear Modulus (GPa) = 21.95251 25.34386 23.64818
#
# Velocity S-wave (km/s) = 3.33377 3.58204 3.46013
# Velocity P-wave (km/s) = 5.88552 6.24056 6.06564
#
# Compressibility (1/GPa) = 0.02554288
#
# Stress axis : x y z
#
# Youngs Moduli (GPa) = 43.86884 59.96028 82.65810
#
# Poissons Ratio (x) = 0.32980 0.24761
# Poissons Ratio (y) = 0.24129 0.37346
# Poissons Ratio (z) = 0.13141 0.27091
#
# Static dielectric constant tensor:
#      x y z
#    x 3.574990 0.000000 0.000000 
#    y 0.000000 3.390420 0.000000 
#    z 0.000000 0.000000 3.996120 
# 
# 
# High freq. dielectric constant tensor:
#      x y z
#    x 1.764080 0.000000 0.000000 
#    y 0.000000 1.742330 0.000000 
#    z 0.000000 0.000000 1.783620 
# 
# From -- ./inp_files/48587.got.cif
#   From: 2010.03.12/outbox.cif.g09.slc.cpg/sg66_25_cif.got.tgz:48587.got - 2010.04.10 21:57:39.
