data_PCOD8277495
_publ_section_title
;
Structure prediction by ZEFSAII (Michael W. Deem and Ramdas Pophale) SiO2 
 PCOD8277495
Probable space group: C C C M
;
_chemical_formula_sum "Si O2"
_cell_formula_units_Z 112
_cell_length_a 21.934505
_cell_length_b 15.415474
_cell_length_c 15.171523
_cell_angle_alpha 90.000000
_cell_angle_beta 90.000000
_cell_angle_gamma 90.000000
_cell_volume 5129.959081
_symmetry_space_group_name_H-M "C C C M"
_symmetry_group_IT_number 66
_symmetry_cell_setting 'orthorhombic'
loop_
_space_group_symop_operation_xyz
x,y,z
-x,-y,z
x,-y,1/2-z
-x,y,1/2-z
-x,-y,-z
x,y,-z
-x,y,1/2+z
x,-y,1/2+z
1/2+x,1/2+y,z
1/2-x,1/2-y,z
1/2+x,1/2-y,1/2-z
1/2-x,1/2+y,1/2-z
1/2-x,1/2-y,-z
1/2+x,1/2+y,-z
1/2-x,1/2+y,1/2+z
1/2+x,1/2-y,1/2+z
loop_
_atom_site_type_symbol
_atom_site_label
_atom_site_fract_x
_atom_site_fract_y
_atom_site_fract_z
Si Si1 0.991323 0.358759 0.152731
Si Si2 0.335773 0.384579 0.102279
Si Si3 0.709274 0.058237 0.669252
Si Si4 0.434577 0.474463 0.604154
Si Si5 0.404503 0.281862 0.400328
Si Si6 0.679850 0.763319 0.241668
Si Si7 0.586141 0.011388 0.598701
O O1 0.965047 0.278254 0.096575
O O2 0.943791 0.438800 0.160814
O O3 0.000000 0.320820 0.250000
O O4 0.055247 0.393954 0.113619
O O5 0.266884 0.419945 0.108585
O O6 0.382642 0.458310 0.135372
O O7 0.344226 0.302828 0.166775
O O8 0.347567 0.357945 0.000000
O O9 0.672448 0.141251 0.703622
O O10 0.658690 0.008965 0.611950
O O11 0.732939 0.000000 0.750000
O O12 0.500000 0.500000 0.645565
O O13 0.438931 0.476474 0.500000
O O14 0.418948 0.377786 0.635619
O O15 0.377749 0.285500 0.500000
O O16 0.355970 0.241875 0.333237
O O17 0.750000 0.750000 0.265524
O O18 0.572100 0.980768 0.500000
#
# Coordination Sequence:
#
# PCOD8277495 Si02
#       7
#    16  16  16  16  16  16  16
#     4  11  22  38  58  86 129 167 212 268 324 391
#     4  10  23  44  68  93 127 169 217 272 331 394
#     4  11  23  39  63  91 129 167 212 270 322 393
#     4   9  21  41  65  94 125 162 210 267 324 383
#     4  11  23  41  64  92 129 169 215 269 330 398
#     4  10  24  41  63  93 127 169 214 272 327 389
#     4  11  21  36  60  89 123 171 219 265 330 390
#
# _framework density 21.832533999999999
#
# number of rings (size 3 to 8) (size 9 to 14) (size 15 to 20)
#    0.000    1.571    0.000    5.571    4.000    5.714 
#    0.000    2.857    0.000    0.000    0.000    0.000 
#    0.000    0.000    0.000    0.000    0.000    0.000 
#
# Total GULP energy -694405.325227 kJ/mol
# GULP energy per Si atom -12400.095093 kJ/mol
# Density = 2.178284 g / cm^3
# Si number density = 21.832534 Si / 1000 Ang^3
#
#
#
# Elastic Constant Matrix: (Units=GPa)
#
#
# Indices 1 2 3 4 5 6 
#
# 1 95.7260 27.7843 27.5872 0.0000 0.0000 0.0000
# 2 27.7843 114.9919 25.8778 0.0000 0.0000 0.0000
# 3 27.5872 25.8778 95.1092 0.0000 0.0000 0.0000
# 4 0.0000 0.0000 0.0000 21.8103 0.0000 0.0000
# 5 0.0000 0.0000 0.0000 0.0000 24.8571 0.0000
# 6 0.0000 0.0000 0.0000 0.0000 0.0000 34.6915
#
#
#
# Elastic Compliance Matrix: (Units=1/GPa)
#
#
# Indices 1 2 3 4 5 6 
#
# 1 0.011917 -0.002239 -0.002847 0.000000 0.000000 0.000000
# 2 -0.002239 0.009684 -0.001986 0.000000 0.000000 0.000000
# 3 -0.002847 -0.001986 0.011880 0.000000 0.000000 0.000000
# 4 0.000000 0.000000 0.000000 0.045850 0.000000 0.000000
# 5 0.000000 0.000000 0.000000 0.000000 0.040230 0.000000
# 6 0.000000 0.000000 0.000000 0.000000 0.000000 0.028825
#
#
# Mechanical properties :
#
#
# Convention : Reuss Voigt Hill
#
# Bulk Modulus (GPa) = 51.71160 52.03618 51.87389
# Shear Modulus (GPa) = 29.59004 31.24364 30.41684
#
# Velocity S-wave (km/s) = 3.68546 3.78704 3.73659
# Velocity P-wave (km/s) = 6.46894 6.55806 6.51365
#
# Compressibility (1/GPa) = 0.01933802
#
# Stress axis : x y z
#
# Youngs Moduli (GPa) = 83.91498 103.26340 84.17213
#
# Poissons Ratio (x) = 0.23116 0.23968
# Poissons Ratio (y) = 0.18785 0.16713
# Poissons Ratio (z) = 0.23895 0.20504
#
# Static dielectric constant tensor:
#      x y z
#    x 3.937110 0.000000 0.000000 
#    y 0.000000 4.022640 0.000000 
#    z 0.000000 0.000000 3.732930 
# 
# 
# High freq. dielectric constant tensor:
#      x y z
#    x 1.859250 0.000000 0.000000 
#    y 0.000000 1.859340 0.000000 
#    z 0.000000 0.000000 1.855760 
# 
# From -- ./inp_files/32508.got.cif
#   From: 2010.03.12/outbox.cif.g09.slc.cpg/sg66_17_cif.got.tgz:32508.got - 2010.04.10 21:57:39.
