data_PCOD8277314
_publ_section_title
;
Structure prediction by ZEFSAII (Michael W. Deem and Ramdas Pophale) SiO2 
 PCOD8277314
Probable space group: C C C M
;
_chemical_formula_sum "Si O2"
_cell_formula_units_Z 112
_cell_length_a 22.983056
_cell_length_b 15.905887
_cell_length_c 15.124141
_cell_angle_alpha 90.000000
_cell_angle_beta 90.000000
_cell_angle_gamma 90.000000
_cell_volume 5528.870090
_symmetry_space_group_name_H-M "C C C M"
_symmetry_group_IT_number 66
_symmetry_cell_setting 'orthorhombic'
loop_
_space_group_symop_operation_xyz
x,y,z
-x,-y,z
x,-y,1/2-z
-x,y,1/2-z
-x,-y,-z
x,y,-z
-x,y,1/2+z
x,-y,1/2+z
1/2+x,1/2+y,z
1/2-x,1/2-y,z
1/2+x,1/2-y,1/2-z
1/2-x,1/2+y,1/2-z
1/2-x,1/2-y,-z
1/2+x,1/2+y,-z
1/2-x,1/2+y,1/2+z
1/2+x,1/2-y,1/2+z
loop_
_atom_site_type_symbol
_atom_site_label
_atom_site_fract_x
_atom_site_fract_y
_atom_site_fract_z
Si Si1 0.312818 0.902243 0.266404
Si Si2 0.712959 0.643834 0.901283
Si Si3 0.870565 0.704426 0.900000
Si Si4 0.904083 0.846275 0.595044
Si Si5 0.526196 0.320570 0.657510
Si Si6 0.386924 0.529822 0.657364
Si Si7 0.685558 0.784970 0.398090
O O1 0.254562 0.879306 0.320522
O O2 0.365790 0.870946 0.329184
O O3 0.315638 0.863335 0.168462
O O4 0.318550 0.000000 0.250000
O O5 0.687288 0.737643 0.887882
O O6 0.659836 0.578148 0.901207
O O7 0.741738 0.636839 0.000000
O O8 0.928728 0.755051 0.881164
O O9 0.873518 0.669528 0.000000
O O10 0.876069 0.833672 0.500000
O O11 0.859830 0.783690 0.647201
O O12 0.971328 0.819939 0.592790
O O13 0.905202 0.944211 0.612764
O O14 0.500000 0.290059 0.750000
O O15 0.556255 0.411583 0.670931
O O16 0.359525 0.500000 0.750000
O O17 0.669773 0.812768 0.500000
O O18 0.750000 0.750000 0.396800
#
# Coordination Sequence:
#
# PCOD8277314 Si02
#       7
#    16  16  16  16  16  16  16
#     4  12  25  39  63  90 117 159 208 267 323 369
#     4  10  22  39  61  90 127 168 209 249 301 370
#     4  10  22  41  63  89 124 165 212 260 309 367
#     4  11  23  38  60  87 123 164 205 248 301 368
#     4  11  21  36  60  91 126 166 208 249 302 362
#     4  11  22  34  56  93 132 171 200 239 295 364
#     4  10  24  43  62  87 121 163 207 254 309 373
#
# _framework density 20.257304000000001
#
# number of rings (size 3 to 8) (size 9 to 14) (size 15 to 20)
#    0.000    1.286    1.429    4.286    6.000    4.571 
#    0.000    0.000    0.000    3.857    0.000    6.000 
#    0.000    0.000    0.000    0.000    0.000    0.000 
#
# Total GULP energy -693905.304512 kJ/mol
# GULP energy per Si atom -12391.166152 kJ/mol
# Density = 2.021120 g / cm^3
# Si number density = 20.257304 Si / 1000 Ang^3
#
#
#
# Elastic Constant Matrix: (Units=GPa)
#
#
# Indices 1 2 3 4 5 6 
#
# 1 62.6370 26.9604 19.9108 0.0000 0.0000 0.0000
# 2 26.9604 103.7259 56.4701 0.0000 0.0000 0.0000
# 3 19.9108 56.4701 129.8809 0.0000 0.0000 0.0000
# 4 0.0000 0.0000 0.0000 15.8404 0.0000 0.0000
# 5 0.0000 0.0000 0.0000 0.0000 28.6104 0.0000
# 6 0.0000 0.0000 0.0000 0.0000 0.0000 10.9283
#
#
#
# Elastic Compliance Matrix: (Units=1/GPa)
#
#
# Indices 1 2 3 4 5 6 
#
# 1 0.018066 -0.004176 -0.000954 0.000000 0.000000 0.000000
# 2 -0.004176 0.013596 -0.005271 0.000000 0.000000 0.000000
# 3 -0.000954 -0.005271 0.010137 0.000000 0.000000 0.000000
# 4 0.000000 0.000000 0.000000 0.063130 0.000000 0.000000
# 5 0.000000 0.000000 0.000000 0.000000 0.034952 0.000000
# 6 0.000000 0.000000 0.000000 0.000000 0.000000 0.091505
#
#
# Mechanical properties :
#
#
# Convention : Reuss Voigt Hill
#
# Bulk Modulus (GPa) = 47.62638 55.88073 51.75355
# Shear Modulus (GPa) = 19.29101 23.93597 21.61349
#
# Velocity S-wave (km/s) = 3.08928 3.44117 3.26996
# Velocity P-wave (km/s) = 6.02384 6.59046 6.31351
#
# Compressibility (1/GPa) = 0.02099677
#
# Stress axis : x y z
#
# Youngs Moduli (GPa) = 55.35318 73.55102 98.64534
#
# Poissons Ratio (x) = 0.30719 0.09407
# Poissons Ratio (y) = 0.23118 0.51997
# Poissons Ratio (z) = 0.05279 0.38769
#
# Static dielectric constant tensor:
#      x y z
#    x 3.936310 0.000000 0.000000 
#    y 0.000000 3.612330 0.000000 
#    z 0.000000 0.000000 1.879290 
# 
# 
# High freq. dielectric constant tensor:
#      x y z
#    x 1.789130 0.000000 0.000000 
#    y 0.000000 1.770980 0.000000 
#    z 0.000000 0.000000 1.811040 
# 
# From -- ./inp_files/32504.got.cif
#   From: 2010.03.12/outbox.cif.g09.slc.cpg/sg66_17_cif.got.tgz:32504.got - 2010.04.10 21:57:39.
