data_PCOD8277682
_publ_section_title
;
Structure prediction by ZEFSAII (Michael W. Deem and Ramdas Pophale) SiO2 
 PCOD8277682
Probable space group: C C C M
;
_chemical_formula_sum "Si O2"
_cell_formula_units_Z 88
_cell_length_a 13.911211
_cell_length_b 17.895624
_cell_length_c 16.973589
_cell_angle_alpha 90.000000
_cell_angle_beta 90.000000
_cell_angle_gamma 90.000000
_cell_volume 4225.571611
_symmetry_space_group_name_H-M "C C C M"
_symmetry_group_IT_number 66
_symmetry_cell_setting 'orthorhombic'
loop_
_space_group_symop_operation_xyz
x,y,z
-x,-y,z
x,-y,1/2-z
-x,y,1/2-z
-x,-y,-z
x,y,-z
-x,y,1/2+z
x,-y,1/2+z
1/2+x,1/2+y,z
1/2-x,1/2-y,z
1/2+x,1/2-y,1/2-z
1/2-x,1/2+y,1/2-z
1/2-x,1/2-y,-z
1/2+x,1/2+y,-z
1/2-x,1/2+y,1/2+z
1/2+x,1/2-y,1/2+z
loop_
_atom_site_type_symbol
_atom_site_label
_atom_site_fract_x
_atom_site_fract_y
_atom_site_fract_z
Si Si1 0.197058 0.476270 0.092635
Si Si2 0.437727 0.856797 0.668922
Si Si3 0.899895 0.033197 0.337711
Si Si4 0.874454 0.364371 0.911345
Si Si5 0.899571 0.197386 0.291294
Si Si6 0.750000 0.250000 0.182434
O O1 0.146785 0.416318 0.150810
O O2 0.310859 0.486208 0.106749
O O3 0.153460 0.554579 0.120240
O O4 0.178293 0.458598 0.000000
O O5 0.500000 0.871914 0.750000
O O6 0.511118 0.858154 0.596303
O O7 0.383864 0.776626 0.664648
O O8 0.905407 0.123161 0.343027
O O9 0.884979 0.000000 0.250000
O O10 0.000000 0.000000 0.372294
O O11 0.826234 0.296981 0.865594
O O12 0.840668 0.354987 0.000000
O O13 0.810310 0.189005 0.231719
O O14 0.000000 0.207223 0.250000
#
# Coordination Sequence:
#
# PCOD8277682 Si02
#       6
#    16  16  16  16  16   8
#     4  11  26  44  63  94 134 169 211 269 326 389
#     4  11  23  42  65  95 125 166 212 269 321 384
#     4  11  23  40  68  96 125 172 218 264 317 381
#     4  11  24  40  63  93 129 166 207 263 327 390
#     4  11  21  40  62  97 126 157 213 273 309 372
#     4  12  21  40  64  92 129 166 212 268 325 388
#
# _framework density 20.825583999999999
#
# number of rings (size 3 to 8) (size 9 to 14) (size 15 to 20)
#    0.000    0.909    5.455    3.545    2.545    2.545 
#    0.000    2.727    0.000    0.000    0.000    0.000 
#    0.000    0.000    0.000    0.000    0.000    0.000 
#
# Total GULP energy -545320.931066 kJ/mol
# GULP energy per Si atom -12393.657524 kJ/mol
# Density = 2.077818 g / cm^3
# Si number density = 20.825584 Si / 1000 Ang^3
#
#
#
# Elastic Constant Matrix: (Units=GPa)
#
#
# Indices 1 2 3 4 5 6 
#
# 1 110.9581 28.7067 26.5587 0.0000 0.0000 0.0000
# 2 28.7067 120.5609 37.7602 0.0000 0.0000 0.0000
# 3 26.5587 37.7602 44.5953 0.0000 0.0000 0.0000
# 4 0.0000 0.0000 0.0000 1.2325 0.0000 0.0000
# 5 0.0000 0.0000 0.0000 0.0000 179.8213 0.0000
# 6 0.0000 0.0000 0.0000 0.0000 0.0000 -168.8096
#
#
#
# Elastic Compliance Matrix: (Units=1/GPa)
#
#
# Indices 1 2 3 4 5 6 
#
# 1 0.010559 -0.000741 -0.005661 0.000000 0.000000 0.000000
# 2 -0.000741 0.011340 -0.009161 0.000000 0.000000 0.000000
# 3 -0.005661 -0.009161 0.033552 0.000000 0.000000 0.000000
# 4 0.000000 0.000000 0.000000 0.811365 0.000000 0.000000
# 5 0.000000 0.000000 0.000000 0.000000 0.005561 0.000000
# 6 0.000000 0.000000 0.000000 0.000000 0.000000 -0.005924
#
#
# Mechanical properties :
#
#
# Convention : Reuss Voigt Hill
#
# Bulk Modulus (GPa) = 41.10889 51.35173 46.23031
# Shear Modulus (GPa) = 5.52067 14.65476 10.08771
#
# Velocity S-wave (km/s) = 1.62993 2.65559 2.20327
# Velocity P-wave (km/s) = 4.82956 5.84076 5.35906
#
# Compressibility (1/GPa) = 0.02432564
#
# Stress axis : x y z
#
# Youngs Moduli (GPa) = 94.70449 88.18174 29.80464
#
# Poissons Ratio (x) = 0.06536 0.16872
# Poissons Ratio (y) = 0.07020 0.27303
# Poissons Ratio (z) = 0.53611 0.80780
#
# Static dielectric constant tensor:
#      x y z
#    x 4.069390 0.000000 0.000000 
#    y 0.000000 4.678750 0.000000 
#    z 0.000000 0.000000 3.509980 
# 
# 
# High freq. dielectric constant tensor:
#      x y z
#    x 1.837080 0.000000 0.000000 
#    y 0.000000 1.831620 0.000000 
#    z 0.000000 0.000000 1.781280 
# 
# From -- ./inp_files/40319.got.cif
#   From: 2010.03.12/outbox.cif.g09.slc.cpg/sg66_21_cif.got.tgz:40319.got - 2010.04.10 21:57:39.
