data_PCOD8277449
_publ_section_title
;
Structure prediction by ZEFSAII (Michael W. Deem and Ramdas Pophale) SiO2 
 PCOD8277449
Probable space group: C C C M
;
_chemical_formula_sum "Si O2"
_cell_formula_units_Z 112
_cell_length_a 20.682428
_cell_length_b 14.880844
_cell_length_c 16.340901
_cell_angle_alpha 90.000000
_cell_angle_beta 90.000000
_cell_angle_gamma 90.000000
_cell_volume 5029.271531
_symmetry_space_group_name_H-M "C C C M"
_symmetry_group_IT_number 66
_symmetry_cell_setting 'orthorhombic'
loop_
_space_group_symop_operation_xyz
x,y,z
-x,-y,z
x,-y,1/2-z
-x,y,1/2-z
-x,-y,-z
x,y,-z
-x,y,1/2+z
x,-y,1/2+z
1/2+x,1/2+y,z
1/2-x,1/2-y,z
1/2+x,1/2-y,1/2-z
1/2-x,1/2+y,1/2-z
1/2-x,1/2-y,-z
1/2+x,1/2+y,-z
1/2-x,1/2+y,1/2+z
1/2+x,1/2-y,1/2+z
loop_
_atom_site_type_symbol
_atom_site_label
_atom_site_fract_x
_atom_site_fract_y
_atom_site_fract_z
Si Si1 0.222782 0.985438 0.906423
Si Si2 0.931239 0.370419 0.707098
Si Si3 0.393211 0.193134 0.373124
Si Si4 0.969487 0.218473 0.405082
Si Si5 0.131313 0.497299 0.912377
Si Si6 0.802227 0.815348 0.692452
Si Si7 0.110715 0.919224 0.689796
O O1 0.293616 0.030318 0.900037
O O2 0.231122 0.901904 0.845951
O O3 0.164905 0.048613 0.874952
O O4 0.207305 0.958647 0.000000
O O5 0.884726 0.336634 0.778137
O O6 0.928160 0.298898 0.633438
O O7 0.909571 0.463779 0.665356
O O8 0.000000 0.384453 0.750000
O O9 0.456376 0.251874 0.394044
O O10 0.383179 0.103602 0.425368
O O11 0.334419 0.262442 0.384645
O O12 0.952442 0.205437 0.500000
O O13 0.950989 0.125012 0.357671
O O14 0.108854 0.455383 0.000000
O O15 0.750000 0.750000 0.735404
O O16 0.857371 0.840898 0.757032
O O17 0.087189 0.000000 0.750000
#
# Coordination Sequence:
#
# PCOD8277449 Si02
#       7
#    16  16  16  16  16  16  16
#     4  10  23  40  63  94 133 170 212 272 334 395
#     4  10  23  41  63  94 127 171 214 263 326 388
#     4  11  23  40  65  93 128 173 221 271 324 392
#     4  11  23  42  67  96 131 171 218 272 327 396
#     4  11  23  40  62  97 135 172 216 271 335 397
#     4  11  22  40  65  94 125 167 220 271 324 387
#     4  10  23  42  67  97 130 175 219 272 332 400
#
# _framework density 22.269625999999999
#
# number of rings (size 3 to 8) (size 9 to 14) (size 15 to 20)
#    0.000    1.429    2.857    1.714    2.000    6.571 
#    0.000    8.571    0.000    7.714    0.000    0.000 
#    0.000    0.000    0.000    0.000    0.000    0.000 
#
# Total GULP energy -693909.817765 kJ/mol
# GULP energy per Si atom -12391.246746 kJ/mol
# Density = 2.221894 g / cm^3
# Si number density = 22.269626 Si / 1000 Ang^3
#
#
#
# Elastic Constant Matrix: (Units=GPa)
#
#
# Indices 1 2 3 4 5 6 
#
# 1 69.0411 32.6638 25.6958 0.0000 0.0000 0.0000
# 2 32.6638 90.0299 30.0973 0.0000 0.0000 0.0000
# 3 25.6958 30.0973 132.7341 0.0000 0.0000 0.0000
# 4 0.0000 0.0000 0.0000 30.2804 0.0000 0.0000
# 5 0.0000 0.0000 0.0000 0.0000 23.4975 0.0000
# 6 0.0000 0.0000 0.0000 0.0000 0.0000 39.2033
#
#
#
# Elastic Compliance Matrix: (Units=1/GPa)
#
#
# Indices 1 2 3 4 5 6 
#
# 1 0.018047 -0.005821 -0.002174 0.000000 0.000000 0.000000
# 2 -0.005821 0.013896 -0.002024 0.000000 0.000000 0.000000
# 3 -0.002174 -0.002024 0.008414 0.000000 0.000000 0.000000
# 4 0.000000 0.000000 0.000000 0.033025 0.000000 0.000000
# 5 0.000000 0.000000 0.000000 0.000000 0.042558 0.000000
# 6 0.000000 0.000000 0.000000 0.000000 0.000000 0.025508
#
#
# Mechanical properties :
#
#
# Convention : Reuss Voigt Hill
#
# Bulk Modulus (GPa) = 49.21478 52.07988 50.64733
# Shear Modulus (GPa) = 29.71628 32.15277 30.93453
#
# Velocity S-wave (km/s) = 3.65689 3.80385 3.73109
# Velocity P-wave (km/s) = 6.32281 6.53676 6.43067
#
# Compressibility (1/GPa) = 0.02031910
#
# Stress axis : x y z
#
# Youngs Moduli (GPa) = 55.41051 71.96336 118.85483
#
# Poissons Ratio (x) = 0.41890 0.25837
# Poissons Ratio (y) = 0.32254 0.24056
# Poissons Ratio (z) = 0.12045 0.14566
#
# Static dielectric constant tensor:
#      x y z
#    x 3.880180 0.000000 0.000000 
#    y 0.000000 3.997120 0.000000 
#    z 0.000000 0.000000 4.104950 
# 
# 
# High freq. dielectric constant tensor:
#      x y z
#    x 1.871090 0.000000 0.000000 
#    y 0.000000 1.875590 0.000000 
#    z 0.000000 0.000000 1.881420 
# 
# From -- ./inp_files/32447.got.cif
#   From: 2010.03.12/outbox.cif.g09.slc.cpg/sg66_17_cif.got.tgz:32447.got - 2010.04.10 21:57:39.
