data_PCOD8277860
_publ_section_title
;
Structure prediction by ZEFSAII (Michael W. Deem and Ramdas Pophale) SiO2 
 PCOD8277860
Probable space group: C C C M
;
_chemical_formula_sum "Si O2"
_cell_formula_units_Z 48
_cell_length_a 8.690198
_cell_length_b 28.083481
_cell_length_c 9.566791
_cell_angle_alpha 90.000000
_cell_angle_beta 90.000000
_cell_angle_gamma 90.000000
_cell_volume 2334.785010
_symmetry_space_group_name_H-M "C C C M"
_symmetry_group_IT_number 66
_symmetry_cell_setting 'orthorhombic'
loop_
_space_group_symop_operation_xyz
x,y,z
-x,-y,z
x,-y,1/2-z
-x,y,1/2-z
-x,-y,-z
x,y,-z
-x,y,1/2+z
x,-y,1/2+z
1/2+x,1/2+y,z
1/2-x,1/2-y,z
1/2+x,1/2-y,1/2-z
1/2-x,1/2+y,1/2-z
1/2-x,1/2-y,-z
1/2+x,1/2+y,-z
1/2-x,1/2+y,1/2+z
1/2+x,1/2-y,1/2+z
loop_
_atom_site_type_symbol
_atom_site_label
_atom_site_fract_x
_atom_site_fract_y
_atom_site_fract_z
Si Si1 0.681013 0.641367 0.255964
Si Si2 0.313976 0.803746 0.500000
Si Si3 0.656377 0.951844 0.671460
Si Si4 0.323275 0.199239 0.500000
O O1 0.500000 0.649510 0.250000
O O2 0.713362 0.586146 0.289438
O O3 0.763330 0.671931 0.369577
O O4 0.758350 0.662422 0.121246
O O5 0.250000 0.750000 0.500000
O O6 0.494865 0.797653 0.500000
O O7 0.500000 0.935346 0.750000
O O8 0.637330 0.957454 0.500000
O O9 0.709201 0.000000 0.750000
O O10 0.250000 0.250000 0.500000
#
# Coordination Sequence:
#
# PCOD8277860 Si02
#       4
#    16   8  16   8
#     4  12  26  44  67 102 140 178 226 282 342 405
#     4  12  26  44  71 100 135 186 226 281 339 401
#     4  11  24  44  71 104 138 181 229 281 343 412
#     4  12  24  46  69  98 137 178 232 279 337 409
#
# _framework density 20.558638999999999
#
# number of rings (size 3 to 8) (size 9 to 14) (size 15 to 20)
#    0.000    0.333    1.667    9.000    4.667    0.667 
#    0.000    1.667    0.000    0.000    0.000    0.000 
#    0.000    0.000    0.000    0.000    0.000    0.000 
#
# Total GULP energy -297323.666985 kJ/mol
# GULP energy per Si atom -12388.486124 kJ/mol
# Density = 2.051185 g / cm^3
# Si number density = 20.558639 Si / 1000 Ang^3
#
#
#
# Elastic Constant Matrix: (Units=GPa)
#
#
# Indices 1 2 3 4 5 6 
#
# 1 191.6255 69.4759 64.3599 0.0000 0.0000 0.0000
# 2 69.4759 135.6511 65.0127 0.0000 0.0000 0.0000
# 3 64.3599 65.0127 200.2538 0.0000 0.0000 0.0000
# 4 0.0000 0.0000 0.0000 48.0581 0.0000 0.0000
# 5 0.0000 0.0000 0.0000 0.0000 26.5994 0.0000
# 6 0.0000 0.0000 0.0000 0.0000 0.0000 39.5372
#
#
#
# Elastic Compliance Matrix: (Units=1/GPa)
#
#
# Indices 1 2 3 4 5 6 
#
# 1 0.006652 -0.002821 -0.001222 0.000000 0.000000 0.000000
# 2 -0.002821 0.009927 -0.002316 0.000000 0.000000 0.000000
# 3 -0.001222 -0.002316 0.006138 0.000000 0.000000 0.000000
# 4 0.000000 0.000000 0.000000 0.020808 0.000000 0.000000
# 5 0.000000 0.000000 0.000000 0.000000 0.037595 0.000000
# 6 0.000000 0.000000 0.000000 0.000000 0.000000 0.025293
#
#
# Mechanical properties :
#
#
# Convention : Reuss Voigt Hill
#
# Bulk Modulus (GPa) = 100.01472 102.80306 101.40889
# Shear Modulus (GPa) = 40.82848 44.75107 42.78977
#
# Velocity S-wave (km/s) = 4.46124 4.67063 4.56713
# Velocity P-wave (km/s) = 8.67704 8.89942 8.78893
#
# Compressibility (1/GPa) = 0.00999853
#
# Stress axis : x y z
#
# Youngs Moduli (GPa) = 150.33613 100.73783 162.91209
#
# Poissons Ratio (x) = 0.28420 0.19907
# Poissons Ratio (y) = 0.42413 0.37731
# Poissons Ratio (z) = 0.18370 0.23331
#
# Static dielectric constant tensor:
#      x y z
#    x 4.048160 0.000000 0.000000 
#    y 0.000000 3.983730 0.000000 
#    z 0.000000 0.000000 4.205590 
# 
# 
# High freq. dielectric constant tensor:
#      x y z
#    x 1.809370 0.000000 0.000000 
#    y 0.000000 1.827770 0.000000 
#    z 0.000000 0.000000 1.834800 
# 
# From -- ./inp_files/2776.got.cif
#   From: 2010.03.12/outbox.cif.g09.slc.cpg/sg66_2_cif.got.tgz:2776.got - 2010.04.10 21:57:39.
