data_PCOD8277891
_publ_section_title
;
Structure prediction by ZEFSAII (Michael W. Deem and Ramdas Pophale) SiO2 
 PCOD8277891
Probable space group: C C C M
;
_chemical_formula_sum "Si O2"
_cell_formula_units_Z 44
_cell_length_a 9.692627
_cell_length_b 10.055169
_cell_length_c 18.944332
_cell_angle_alpha 90.000000
_cell_angle_beta 90.000000
_cell_angle_gamma 90.000000
_cell_volume 1846.333589
_symmetry_space_group_name_H-M "C C C M"
_symmetry_group_IT_number 66
_symmetry_cell_setting 'orthorhombic'
loop_
_space_group_symop_operation_xyz
x,y,z
-x,-y,z
x,-y,1/2-z
-x,y,1/2-z
-x,-y,-z
x,y,-z
-x,y,1/2+z
x,-y,1/2+z
1/2+x,1/2+y,z
1/2-x,1/2-y,z
1/2+x,1/2-y,1/2-z
1/2-x,1/2+y,1/2-z
1/2-x,1/2-y,-z
1/2+x,1/2+y,-z
1/2-x,1/2+y,1/2+z
1/2+x,1/2-y,1/2+z
loop_
_atom_site_type_symbol
_atom_site_label
_atom_site_fract_x
_atom_site_fract_y
_atom_site_fract_z
Si Si1 0.500000 0.500000 0.250000
Si Si2 0.500000 0.000000 0.380170
Si Si3 0.452170 0.809613 0.500000
Si Si4 0.668166 0.541106 0.000000
Si Si5 0.718694 0.597381 0.643549
O O1 0.399920 0.410915 0.297687
O O2 0.521825 0.868237 0.429257
O O3 0.643058 0.991921 0.335460
O O4 0.458849 0.648300 0.500000
O O5 0.299632 0.866764 0.500000
O O6 0.659103 0.452604 0.930560
O O7 0.750000 0.750000 0.636742
#
# Coordination Sequence:
#
# PCOD8277891 Si02
#       5
#     4   8   8   8  16
#     4  12  32  48  60 106 144 196 236 288 366 420
#     4   9  20  41  72 104 142 188 230 286 360 420
#     4   8  16  35  68 115 144 172 225 293 366 420
#     4   9  19  40  76 108 140 177 234 307 352 411
#     4  11  26  48  72 106 141 186 242 294 358 428
#
# _framework density 23.831012999999999
#
# number of rings (size 3 to 8) (size 9 to 14) (size 15 to 20)
#    0.000    2.182    0.000    1.636    5.091    4.364 
#    6.545    0.000    0.000    0.000    0.000    0.000 
#    0.000    0.000    0.000    0.000    0.000    0.000 
#
# Total GULP energy -272578.330502 kJ/mol
# GULP energy per Si atom -12389.924114 kJ/mol
# Density = 2.377677 g / cm^3
# Si number density = 23.831013 Si / 1000 Ang^3
#
#
#
# Elastic Constant Matrix: (Units=GPa)
#
#
# Indices 1 2 3 4 5 6 
#
# 1 163.1763 40.2342 56.2705 0.0000 0.0000 0.0000
# 2 40.2342 175.9208 71.5684 0.0000 0.0000 0.0000
# 3 56.2705 71.5684 124.2162 0.0000 0.0000 0.0000
# 4 0.0000 0.0000 0.0000 -56.0870 0.0000 0.0000
# 5 0.0000 0.0000 0.0000 0.0000 15.8356 0.0000
# 6 0.0000 0.0000 0.0000 0.0000 0.0000 34.8587
#
#
#
# Elastic Compliance Matrix: (Units=1/GPa)
#
#
# Indices 1 2 3 4 5 6 
#
# 1 0.007287 -0.000423 -0.003057 0.000000 0.000000 0.000000
# 2 -0.000423 0.007449 -0.004100 0.000000 0.000000 0.000000
# 3 -0.003057 -0.004100 0.011798 0.000000 0.000000 0.000000
# 4 0.000000 0.000000 0.000000 -0.017829 0.000000 0.000000
# 5 0.000000 0.000000 0.000000 0.000000 0.063149 0.000000
# 6 0.000000 0.000000 0.000000 0.000000 0.000000 0.028687
#
#
# Mechanical properties :
#
#
# Convention : Reuss Voigt Hill
#
# Bulk Modulus (GPa) = 87.92815 88.82884 88.37850
# Shear Modulus (GPa) = 41.84344 18.60413 30.22378
#
# Velocity S-wave (km/s) = 4.19482 2.79708 3.56512
# Velocity P-wave (km/s) = 7.77423 6.91281 7.35614
#
# Compressibility (1/GPa) = 0.01137292
#
# Stress axis : x y z
#
# Youngs Moduli (GPa) = 137.23221 134.24258 84.75994
#
# Poissons Ratio (x) = 0.05675 0.25915
# Poissons Ratio (y) = 0.05801 0.34755
# Poissons Ratio (z) = 0.41958 0.55045
#
# Static dielectric constant tensor:
#      x y z
#    x 5.392860 0.000000 0.000000 
#    y 0.000000 4.407630 0.000000 
#    z 0.000000 0.000000 4.398410 
# 
# 
# High freq. dielectric constant tensor:
#      x y z
#    x 1.983280 0.000000 0.000000 
#    y 0.000000 1.941520 0.000000 
#    z 0.000000 0.000000 1.912580 
# 
# From -- ./inp_files/37674.got.cif
#   From: 2010.03.12/outbox.cif.g09.slc.cpg/sg66_19_cif.got.tgz:37674.got - 2010.04.10 21:57:39.
