data_PCOD8277746
_publ_section_title
;
Structure prediction by ZEFSAII (Michael W. Deem and Ramdas Pophale) SiO2 
 PCOD8277746
Probable space group: C C C M
;
_chemical_formula_sum "Si O2"
_cell_formula_units_Z 104
_cell_length_a 7.744836
_cell_length_b 21.694012
_cell_length_c 29.203438
_cell_angle_alpha 90.000000
_cell_angle_beta 90.000000
_cell_angle_gamma 90.000000
_cell_volume 4906.661343
_symmetry_space_group_name_H-M "C C C M"
_symmetry_group_IT_number 66
_symmetry_cell_setting 'orthorhombic'
loop_
_space_group_symop_operation_xyz
x,y,z
-x,-y,z
x,-y,1/2-z
-x,y,1/2-z
-x,-y,-z
x,y,-z
-x,y,1/2+z
x,-y,1/2+z
1/2+x,1/2+y,z
1/2-x,1/2-y,z
1/2+x,1/2-y,1/2-z
1/2-x,1/2+y,1/2-z
1/2-x,1/2-y,-z
1/2+x,1/2+y,-z
1/2-x,1/2+y,1/2+z
1/2+x,1/2-y,1/2+z
loop_
_atom_site_type_symbol
_atom_site_label
_atom_site_fract_x
_atom_site_fract_y
_atom_site_fract_z
Si Si1 0.250000 0.250000 0.661470
Si Si2 0.763321 0.558417 0.550372
Si Si3 0.204002 0.007712 0.697933
Si Si4 0.236555 0.112837 0.145866
Si Si5 0.653340 0.379902 0.139113
Si Si6 0.835674 0.580063 0.050387
Si Si7 0.083035 0.289783 0.205793
O O1 0.246786 0.314695 0.633701
O O2 0.428857 0.254827 0.689147
O O3 0.704695 0.582188 0.500000
O O4 0.645210 0.589548 0.588923
O O5 0.738999 0.485277 0.552579
O O6 0.961783 0.574057 0.559015
O O7 0.250268 0.074479 0.675583
O O8 0.275588 0.000000 0.750000
O O9 0.285394 0.954972 0.665277
O O10 0.000000 0.000000 0.697944
O O11 0.260242 0.120761 0.091324
O O12 0.367473 0.160508 0.168246
O O13 0.040347 0.130334 0.157443
O O14 0.801448 0.609813 0.000000
O O15 0.250000 0.250000 0.219735
O O16 0.000000 0.323793 0.250000
#
# Coordination Sequence:
#
# PCOD8277746 Si02
#       7
#     8  16  16  16  16  16  16
#     4  12  26  44  67  90 128 182 219 270 320 390
#     4   9  18  35  60  92 130 173 220 272 333 397
#     4   9  20  36  58  88 128 168 207 267 332 389
#     4  11  22  40  65  97 131 165 219 278 333 389
#     4  11  22  39  65  93 130 174 218 268 331 396
#     4   9  18  35  61  93 131 172 218 275 337 400
#     4  12  26  46  68  96 130 175 231 272 324 395
#
# _framework density 21.195675999999999
#
# number of rings (size 3 to 8) (size 9 to 14) (size 15 to 20)
#    0.000    1.692    3.846    1.846    2.154    0.615 
#    0.000    1.923    0.000    1.385    0.000    0.000 
#    0.000    0.000    0.000    0.000    0.000    0.000 
#
# Total GULP energy -644483.102061 kJ/mol
# GULP energy per Si atom -12393.905809 kJ/mol
# Density = 2.114743 g / cm^3
# Si number density = 21.195676 Si / 1000 Ang^3
#
#
#
# Elastic Constant Matrix: (Units=GPa)
#
#
# Indices 1 2 3 4 5 6 
#
# 1 76.2658 28.9474 30.2911 0.0000 0.0000 0.0000
# 2 28.9474 108.4354 56.2280 0.0000 0.0000 0.0000
# 3 30.2911 56.2280 165.9918 0.0000 0.0000 0.0000
# 4 0.0000 0.0000 0.0000 26.0848 0.0000 0.0000
# 5 0.0000 0.0000 0.0000 0.0000 32.2434 0.0000
# 6 0.0000 0.0000 0.0000 0.0000 0.0000 24.0622
#
#
#
# Elastic Compliance Matrix: (Units=1/GPa)
#
#
# Indices 1 2 3 4 5 6 
#
# 1 0.014963 -0.003128 -0.001671 0.000000 0.000000 0.000000
# 2 -0.003128 0.011841 -0.003440 0.000000 0.000000 0.000000
# 3 -0.001671 -0.003440 0.007495 0.000000 0.000000 0.000000
# 4 0.000000 0.000000 0.000000 0.038336 0.000000 0.000000
# 5 0.000000 0.000000 0.000000 0.000000 0.031014 0.000000
# 6 0.000000 0.000000 0.000000 0.000000 0.000000 0.041559
#
#
# Mechanical properties :
#
#
# Convention : Reuss Voigt Hill
#
# Bulk Modulus (GPa) = 56.11570 64.62512 60.37041
# Shear Modulus (GPa) = 29.82822 32.15985 30.99403
#
# Velocity S-wave (km/s) = 3.75544 3.89946 3.82813
# Velocity P-wave (km/s) = 6.73328 7.12954 6.93424
#
# Compressibility (1/GPa) = 0.01782032
#
# Stress axis : x y z
#
# Youngs Moduli (GPa) = 66.83166 84.45236 133.42855
#
# Poissons Ratio (x) = 0.26417 0.22295
# Poissons Ratio (y) = 0.20905 0.45902
# Poissons Ratio (z) = 0.11167 0.29053
#
# Static dielectric constant tensor:
#      x y z
#    x 3.699730 0.000000 0.000000 
#    y 0.000000 3.559810 0.000000 
#    z 0.000000 0.000000 3.978200 
# 
# 
# High freq. dielectric constant tensor:
#      x y z
#    x 1.830550 0.000000 0.000000 
#    y 0.000000 1.798620 0.000000 
#    z 0.000000 0.000000 1.834230 
# 
# From -- ./inp_files/62671.got.cif
#   From: 2010.03.12/outbox.cif.g09.slc.cpg/sg66_32_cif.got.tgz:62671.got - 2010.04.10 21:57:39.
