data_PCOD8277939
_publ_section_title
;
Structure prediction by ZEFSAII (Michael W. Deem and Ramdas Pophale) SiO2 
 PCOD8277939
Probable space group: C M M A
;
_chemical_formula_sum "Si O2"
_cell_formula_units_Z 72
_cell_length_a 19.083374
_cell_length_b 8.786859
_cell_length_c 24.942657
_cell_angle_alpha 90.000000
_cell_angle_beta 90.000000
_cell_angle_gamma 90.000000
_cell_volume 4182.457473
_symmetry_space_group_name_H-M "C M M A"
_symmetry_group_IT_number 67
_symmetry_cell_setting 'orthorhombic'
loop_
_space_group_symop_operation_xyz
x,y,z
-x,1/2-y,z
x,-y,-z
-x,1/2+y,-z
-x,-y,-z
x,1/2+y,-z
-x,y,z
x,1/2-y,z
1/2+x,1/2+y,z
1/2-x,-y,z
1/2+x,1/2-y,-z
1/2-x,y,-z
1/2-x,1/2-y,-z
1/2+x,y,-z
1/2-x,1/2+y,z
1/2+x,-y,z
loop_
_atom_site_type_symbol
_atom_site_label
_atom_site_fract_x
_atom_site_fract_y
_atom_site_fract_z
Si Si1 0.500000 0.570045 0.441651
Si Si2 0.917404 0.075831 0.855918
Si Si3 0.823836 0.429934 0.056580
Si Si4 0.078121 0.084670 0.645107
Si Si5 0.416633 0.919306 0.252690
O O1 0.500000 0.750000 0.445124
O O2 0.500000 0.500000 0.500000
O O3 0.570401 0.512799 0.410188
O O4 0.893989 0.250000 0.863737
O O5 0.000000 0.056094 0.862542
O O6 0.882210 0.969536 0.900012
O O7 0.892688 0.021731 0.797276
O O8 0.816454 0.250000 0.050631
O O9 0.750000 0.500000 0.075133
O O10 0.847589 0.500000 0.000000
O O11 0.114747 0.250000 0.634578
O O12 0.000000 0.116804 0.666974
O O13 0.116376 0.991419 0.692648
O O14 0.500000 0.908401 0.256461
O O15 0.385226 0.750000 0.246107
#
# Coordination Sequence:
#
# PCOD8277939 Si02
#       5
#     8  16  16  16  16
#     4  10  16  22  30  44  66  98 141 186 223 264
#     4  10  20  33  50  73  99 124 154 194 235 277
#     4  11  22  38  57  74  95 123 156 190 232 286
#     4   8  14  22  32  46  67  98 134 174 218 262
#     4   9  15  24  39  59  83 110 141 179 223 268
#
# _framework density 17.214759000000001
#
# number of rings (size 3 to 8) (size 9 to 14) (size 15 to 20)
#    0.667    1.778    0.000    5.333    0.000    4.444 
#    0.000    0.000    0.000    0.000    0.000    0.000 
#    0.000    0.000    0.000    0.000    0.000    1.111 
#
# Total GULP energy -446079.397653 kJ/mol
# GULP energy per Si atom -12391.094379 kJ/mol
# Density = 1.717558 g / cm^3
# Si number density = 17.214759 Si / 1000 Ang^3
#
#
#
# Elastic Constant Matrix: (Units=GPa)
#
#
# Indices 1 2 3 4 5 6 
#
# 1 16.7736 21.6383 28.1999 0.0000 0.0000 0.0000
# 2 21.6383 165.9418 65.0558 0.0000 0.0000 0.0000
# 3 28.1999 65.0558 140.0686 0.0000 0.0000 0.0000
# 4 0.0000 0.0000 0.0000 36.6364 0.0000 0.0000
# 5 0.0000 0.0000 0.0000 0.0000 -1.2716 0.0000
# 6 0.0000 0.0000 0.0000 0.0000 0.0000 14.9854
#
#
#
# Elastic Compliance Matrix: (Units=1/GPa)
#
#
# Indices 1 2 3 4 5 6 
#
# 1 0.094708 -0.005960 -0.016300 0.000000 0.000000 0.000000
# 2 -0.005960 0.007743 -0.002396 0.000000 0.000000 0.000000
# 3 -0.016300 -0.002396 0.011534 0.000000 0.000000 0.000000
# 4 0.000000 0.000000 0.000000 0.027295 0.000000 0.000000
# 5 0.000000 0.000000 0.000000 0.000000 -0.786384 0.000000
# 6 0.000000 0.000000 0.000000 0.000000 0.000000 0.066732
#
#
# Mechanical properties :
#
#
# Convention : Reuss Voigt Hill
#
# Bulk Modulus (GPa) = 15.46218 61.39687 38.42953
# Shear Modulus (GPa) = -9.85215 23.92938 7.03861
#
# Velocity S-wave (km/s) = -2.39489 3.73238 2.02425
# Velocity P-wave (km/s) = 1.16365 7.37000 5.27594
#
# Compressibility (1/GPa) = 0.06467394
#
# Stress axis : x y z
#
# Youngs Moduli (GPa) = 10.55876 129.15253 86.70070
#
# Poissons Ratio (x) = 0.76969 1.41318
# Poissons Ratio (y) = 0.06293 0.20777
# Poissons Ratio (z) = 0.17210 0.30950
#
# Static dielectric constant tensor:
#      x y z
#    x 2.543150 0.000000 0.000000 
#    y 0.000000 3.542990 0.000000 
#    z 0.000000 0.000000 3.253500 
# 
# 
# High freq. dielectric constant tensor:
#      x y z
#    x 1.578900 0.000000 0.000000 
#    y 0.000000 1.692590 0.000000 
#    z 0.000000 0.000000 1.671570 
# 
# From -- ./inp_files/42114.got.cif
#   From: 2010.03.12/outbox.cif.g09.slc.cpg/sg67_22_cif.got.tgz:42114.got - 2010.04.10 22:41:39.
