data_PCOD8277728
_publ_section_title
;
Structure prediction by ZEFSAII (Michael W. Deem and Ramdas Pophale) SiO2 
 PCOD8277728
Probable space group: C C C M
;
_chemical_formula_sum "Si O2"
_cell_formula_units_Z 64
_cell_length_a 12.904731
_cell_length_b 15.893317
_cell_length_c 12.786800
_cell_angle_alpha 90.000000
_cell_angle_beta 90.000000
_cell_angle_gamma 90.000000
_cell_volume 2622.559645
_symmetry_space_group_name_H-M "C C C M"
_symmetry_group_IT_number 66
_symmetry_cell_setting 'orthorhombic'
loop_
_space_group_symop_operation_xyz
x,y,z
-x,-y,z
x,-y,1/2-z
-x,y,1/2-z
-x,-y,-z
x,y,-z
-x,y,1/2+z
x,-y,1/2+z
1/2+x,1/2+y,z
1/2-x,1/2-y,z
1/2+x,1/2-y,1/2-z
1/2-x,1/2+y,1/2-z
1/2-x,1/2-y,-z
1/2+x,1/2+y,-z
1/2-x,1/2+y,1/2+z
1/2+x,1/2-y,1/2+z
loop_
_atom_site_type_symbol
_atom_site_label
_atom_site_fract_x
_atom_site_fract_y
_atom_site_fract_z
Si Si1 0.368524 0.278447 0.614824
Si Si2 0.316915 0.405180 0.219340
Si Si3 0.101203 0.606973 0.806913
Si Si4 0.378030 0.002069 0.000000
Si Si5 0.275600 0.650347 0.500000
O O1 0.402668 0.311014 0.500000
O O2 0.250000 0.250000 0.612958
O O3 0.385598 0.350494 0.700376
O O4 0.435172 0.195893 0.644601
O O5 0.344719 0.500000 0.250000
O O6 0.193969 0.383777 0.224366
O O7 0.344809 0.377179 0.100736
O O8 0.000000 0.567505 0.750000
O O9 0.154454 0.547236 0.894868
O O10 0.500000 0.000000 0.000000
O O11 0.330349 0.095028 0.000000
O O12 0.250000 0.750000 0.500000
#
# Coordination Sequence:
#
# PCOD8277728 Si02
#       5
#    16  16  16   8   8
#     4   9  19  37  61  86 120 165 215 264 319 388
#     4  11  23  37  61  89 124 169 214 266 320 393
#     4  11  22  38  58  92 127 164 209 260 327 392
#     4  12  24  36  58  90 131 173 206 258 329 402
#     4  12  24  40  55  87 132 170 218 267 333 395
#
# _framework density 24.403639999999999
#
# number of rings (size 3 to 8) (size 9 to 14) (size 15 to 20)
#    0.000    1.250    3.750    3.750    3.500    0.000 
#    0.000    0.000    0.000    0.750    0.000    1.750 
#    0.000    0.000    0.000    0.000    0.000    0.000 
#
# Total GULP energy -396699.457875 kJ/mol
# GULP energy per Si atom -12396.858059 kJ/mol
# Density = 2.434810 g / cm^3
# Si number density = 24.403640 Si / 1000 Ang^3
#
#
#
# Elastic Constant Matrix: (Units=GPa)
#
#
# Indices 1 2 3 4 5 6 
#
# 1 15.5100 7.7511 4.6102 0.0000 0.0000 0.0000
# 2 7.7511 220.2178 97.2732 0.0000 0.0000 0.0000
# 3 4.6102 97.2732 220.0785 0.0000 0.0000 0.0000
# 4 0.0000 0.0000 0.0000 48.5326 0.0000 0.0000
# 5 0.0000 0.0000 0.0000 0.0000 17.2985 0.0000
# 6 0.0000 0.0000 0.0000 0.0000 0.0000 20.4538
#
#
#
# Elastic Compliance Matrix: (Units=1/GPa)
#
#
# Indices 1 2 3 4 5 6 
#
# 1 0.065663 -0.002117 -0.000440 0.000000 0.000000 0.000000
# 2 -0.002117 0.005711 -0.002480 0.000000 0.000000 0.000000
# 3 -0.000440 -0.002480 0.005649 0.000000 0.000000 0.000000
# 4 0.000000 0.000000 0.000000 0.020605 0.000000 0.000000
# 5 0.000000 0.000000 0.000000 0.000000 0.057809 0.000000
# 6 0.000000 0.000000 0.000000 0.000000 0.000000 0.048891
#
#
# Mechanical properties :
#
#
# Convention : Reuss Voigt Hill
#
# Bulk Modulus (GPa) = 14.93654 75.00835 44.97244
# Shear Modulus (GPa) = 21.12231 40.33511 30.72871
#
# Velocity S-wave (km/s) = 2.94520 4.06991 3.55235
# Velocity P-wave (km/s) = 4.20708 7.27247 5.94089
#
# Compressibility (1/GPa) = 0.06694992
#
# Stress axis : x y z
#
# Youngs Moduli (GPa) = 15.22927 175.10595 177.01926
#
# Poissons Ratio (x) = 0.37068 0.07786
# Poissons Ratio (y) = 0.03224 0.43897
# Poissons Ratio (z) = 0.00670 0.43423
#
# Static dielectric constant tensor:
#      x y z
#    x 3.628690 0.000000 0.000000 
#    y 0.000000 4.685360 0.000000 
#    z 0.000000 0.000000 6.642470 
# 
# 
# High freq. dielectric constant tensor:
#      x y z
#    x 1.906650 0.000000 0.000000 
#    y 0.000000 1.980420 0.000000 
#    z 0.000000 0.000000 1.997160 
# 
# From -- ./inp_files/15932.got.cif
#   From: 2010.03.12/outbox.cif.g09.slc.cpg/sg66_8_cif.got.tgz:15932.got - 2010.04.10 21:57:39.
