data_PCOD8277499
_publ_section_title
;
Structure prediction by ZEFSAII (Michael W. Deem and Ramdas Pophale) SiO2 
 PCOD8277499
Probable space group: C C C M
;
_chemical_formula_sum "Si O2"
_cell_formula_units_Z 60
_cell_length_a 18.504179
_cell_length_b 4.935100
_cell_length_c 30.187173
_cell_angle_alpha 90.000000
_cell_angle_beta 90.000000
_cell_angle_gamma 90.000000
_cell_volume 2756.691847
_symmetry_space_group_name_H-M "C C C M"
_symmetry_group_IT_number 66
_symmetry_cell_setting 'orthorhombic'
loop_
_space_group_symop_operation_xyz
x,y,z
-x,-y,z
x,-y,1/2-z
-x,y,1/2-z
-x,-y,-z
x,y,-z
-x,y,1/2+z
x,-y,1/2+z
1/2+x,1/2+y,z
1/2-x,1/2-y,z
1/2+x,1/2-y,1/2-z
1/2-x,1/2+y,1/2-z
1/2-x,1/2-y,-z
1/2+x,1/2+y,-z
1/2-x,1/2+y,1/2+z
1/2+x,1/2-y,1/2+z
loop_
_atom_site_type_symbol
_atom_site_label
_atom_site_fract_x
_atom_site_fract_y
_atom_site_fract_z
Si Si1 0.581978 0.460613 0.119877
Si Si2 0.798924 0.008356 0.549208
Si Si3 0.750000 0.750000 0.223681
Si Si4 0.889608 0.442248 0.678143
Si Si5 0.000000 0.500000 0.250000
O O1 0.500000 0.500000 0.103929
O O2 0.632376 0.411968 0.077741
O O3 0.605660 0.750940 0.136698
O O4 0.592442 0.242193 0.159521
O O5 0.825711 0.097329 0.500000
O O6 0.750000 0.250000 0.570324
O O7 0.750000 0.750000 0.545376
O O8 0.711594 0.500000 0.250000
O O9 0.808567 0.580007 0.196080
O O10 0.945669 0.341934 0.716674
#
# Coordination Sequence:
#
# PCOD8277499 Si02
#       5
#    16  16   8  16   4
#     4  12  25  44  65 102 132 172 226 273 333 396
#     4  10  23  44  70 100 134 175 217 269 340 406
#     4  12  26  44  64  98 129 174 237 280 342 398
#     4  12  27  42  68  95 134 177 223 282 332 393
#     4  12  24  50  64  90 138 184 220 278 332 406
#
# _framework density 21.765217
#
# number of rings (size 3 to 8) (size 9 to 14) (size 15 to 20)
#    0.000    0.533    4.000    3.200    5.600    1.600 
#    0.000    0.000    0.000    8.000    0.000    0.000 
#    0.000    0.000    0.000    0.000    0.000    0.000 
#
# Total GULP energy -371702.251964 kJ/mol
# GULP energy per Si atom -12390.075065 kJ/mol
# Density = 2.171568 g / cm^3
# Si number density = 21.765217 Si / 1000 Ang^3
#
#
#
# Elastic Constant Matrix: (Units=GPa)
#
#
# Indices 1 2 3 4 5 6 
#
# 1 161.3062 33.8244 70.8934 0.0000 0.0000 0.0000
# 2 33.8244 84.5778 14.8909 0.0000 0.0000 0.0000
# 3 70.8934 14.8909 103.5949 0.0000 0.0000 0.0000
# 4 0.0000 0.0000 0.0000 33.2629 0.0000 0.0000
# 5 0.0000 0.0000 0.0000 0.0000 51.4065 0.0000
# 6 0.0000 0.0000 0.0000 0.0000 0.0000 28.2874
#
#
#
# Elastic Compliance Matrix: (Units=1/GPa)
#
#
# Indices 1 2 3 4 5 6 
#
# 1 0.009433 -0.002704 -0.006066 0.000000 0.000000 0.000000
# 2 -0.002704 0.012906 -0.000004 0.000000 0.000000 0.000000
# 3 -0.006066 -0.000004 0.013805 0.000000 0.000000 0.000000
# 4 0.000000 0.000000 0.000000 0.030064 0.000000 0.000000
# 5 0.000000 0.000000 0.000000 0.000000 0.019453 0.000000
# 6 0.000000 0.000000 0.000000 0.000000 0.000000 0.035351
#
#
# Mechanical properties :
#
#
# Convention : Reuss Voigt Hill
#
# Bulk Modulus (GPa) = 53.78309 65.41071 59.59690
# Shear Modulus (GPa) = 34.54022 37.91603 36.22813
#
# Velocity S-wave (km/s) = 3.98797 4.17831 4.08425
# Velocity P-wave (km/s) = 6.78008 7.30724 7.04859
#
# Compressibility (1/GPa) = 0.01859320
#
# Stress axis : x y z
#
# Youngs Moduli (GPa) = 106.01582 77.48513 72.43754
#
# Poissons Ratio (x) = 0.20954 0.43943
# Poissons Ratio (y) = 0.28669 0.00033
# Poissons Ratio (z) = 0.64312 0.00035
#
# Static dielectric constant tensor:
#      x y z
#    x 3.759950 0.000000 0.000000 
#    y 0.000000 3.767650 0.000000 
#    z 0.000000 0.000000 3.992270 
# 
# 
# High freq. dielectric constant tensor:
#      x y z
#    x 1.863150 0.000000 0.000000 
#    y 0.000000 1.860080 0.000000 
#    z 0.000000 0.000000 1.849150 
# 
# From -- ./inp_files/64932.got.cif
#   From: 2010.03.12/outbox.cif.g09.slc.cpg/sg66_33_cif.got.tgz:64932.got - 2010.04.10 21:57:39.
