data_PCOD8277771
_publ_section_title
;
Structure prediction by ZEFSAII (Michael W. Deem and Ramdas Pophale) SiO2 
 PCOD8277771
Probable space group: C C C M
;
_chemical_formula_sum "Si O2"
_cell_formula_units_Z 64
_cell_length_a 12.243351
_cell_length_b 12.391876
_cell_length_c 18.425177
_cell_angle_alpha 90.000000
_cell_angle_beta 90.000000
_cell_angle_gamma 90.000000
_cell_volume 2795.432615
_symmetry_space_group_name_H-M "C C C M"
_symmetry_group_IT_number 66
_symmetry_cell_setting 'orthorhombic'
loop_
_space_group_symop_operation_xyz
x,y,z
-x,-y,z
x,-y,1/2-z
-x,y,1/2-z
-x,-y,-z
x,y,-z
-x,y,1/2+z
x,-y,1/2+z
1/2+x,1/2+y,z
1/2-x,1/2-y,z
1/2+x,1/2-y,1/2-z
1/2-x,1/2+y,1/2-z
1/2-x,1/2-y,-z
1/2+x,1/2+y,-z
1/2-x,1/2+y,1/2+z
1/2+x,1/2-y,1/2+z
loop_
_atom_site_type_symbol
_atom_site_label
_atom_site_fract_x
_atom_site_fract_y
_atom_site_fract_z
Si Si1 0.014532 0.320354 0.915699
Si Si2 0.682165 0.141772 0.821811
Si Si3 0.040138 0.880875 0.669418
Si Si4 0.713452 0.904512 0.164724
O O1 0.990388 0.197473 0.890967
O O2 0.135701 0.368313 0.901369
O O3 0.924255 0.384417 0.869918
O O4 0.989320 0.331994 0.000000
O O5 0.750000 0.250000 0.843495
O O6 0.651216 0.139657 0.736603
O O7 0.749272 0.031186 0.835000
O O8 0.167846 0.851072 0.662374
O O9 0.000000 0.848542 0.750000
O O10 0.000000 0.000000 0.649799
#
# Coordination Sequence:
#
# PCOD8277771 Si02
#       4
#    16  16  16  16
#     4  12  26  41  60  92 135 176 214 260 320 395
#     4  11  22  42  67  94 124 162 218 273 323 380
#     4  11  22  42  70  97 124 160 215 276 331 389
#     4  11  23  40  68  95 123 165 212 270 330 387
#
# _framework density 22.894487999999999
#
# number of rings (size 3 to 8) (size 9 to 14) (size 15 to 20)
#    0.000    0.750    0.000   11.250    0.000    7.000 
#    0.000    2.500    0.000    0.000    0.000    0.000 
#    0.000    0.000    0.000    0.000    0.000    0.000 
#
# Total GULP energy -396557.592591 kJ/mol
# GULP energy per Si atom -12392.424768 kJ/mol
# Density = 2.284238 g / cm^3
# Si number density = 22.894488 Si / 1000 Ang^3
#
#
#
# Elastic Constant Matrix: (Units=GPa)
#
#
# Indices 1 2 3 4 5 6 
#
# 1 110.0936 1.2163 29.1016 0.0000 0.0000 0.0000
# 2 1.2163 100.9540 17.3701 0.0000 0.0000 0.0000
# 3 29.1016 17.3701 101.9722 0.0000 0.0000 0.0000
# 4 0.0000 0.0000 0.0000 17.0116 0.0000 0.0000
# 5 0.0000 0.0000 0.0000 0.0000 14.5208 0.0000
# 6 0.0000 0.0000 0.0000 0.0000 0.0000 235.7521
#
#
#
# Elastic Compliance Matrix: (Units=1/GPa)
#
#
# Indices 1 2 3 4 5 6 
#
# 1 0.009838 0.000376 -0.002872 0.000000 0.000000 0.000000
# 2 0.000376 0.010219 -0.001848 0.000000 0.000000 0.000000
# 3 -0.002872 -0.001848 0.010941 0.000000 0.000000 0.000000
# 4 0.000000 0.000000 0.000000 0.058784 0.000000 0.000000
# 5 0.000000 0.000000 0.000000 0.000000 0.068867 0.000000
# 6 0.000000 0.000000 0.000000 0.000000 0.000000 0.004242
#
#
# Mechanical properties :
#
#
# Convention : Reuss Voigt Hill
#
# Bulk Modulus (GPa) = 44.82299 45.37732 45.10015
# Shear Modulus (GPa) = 27.93067 71.14566 49.53817
#
# Velocity S-wave (km/s) = 3.49660 5.58058 4.65667
# Velocity P-wave (km/s) = 5.99351 7.83499 6.97529
#
# Compressibility (1/GPa) = 0.02230998
#
# Stress axis : x y z
#
# Youngs Moduli (GPa) = 101.64551 97.85766 91.40017
#
# Poissons Ratio (x) = -0.03675 0.26247
# Poissons Ratio (y) = -0.03817 0.16890
# Poissons Ratio (z) = 0.29189 0.18083
#
# Static dielectric constant tensor:
#      x y z
#    x 4.360080 0.000000 0.000000 
#    y 0.000000 4.343110 0.000000 
#    z 0.000000 0.000000 3.701040 
# 
# 
# High freq. dielectric constant tensor:
#      x y z
#    x 1.907390 0.000000 0.000000 
#    y 0.000000 1.934870 0.000000 
#    z 0.000000 0.000000 1.860800 
# 
# From -- ./inp_files/38013.got.cif
#   From: 2010.03.12/outbox.cif.g09.slc.cpg/sg66_20_cif.got.tgz:38013.got - 2010.04.10 21:57:39.
