data_PCOD8277508
_publ_section_title
;
Structure prediction by ZEFSAII (Michael W. Deem and Ramdas Pophale) SiO2 
 PCOD8277508
Probable space group: C C C M
;
_chemical_formula_sum "Si O2"
_cell_formula_units_Z 56
_cell_length_a 15.382570
_cell_length_b 10.675484
_cell_length_c 17.157123
_cell_angle_alpha 90.000000
_cell_angle_beta 90.000000
_cell_angle_gamma 90.000000
_cell_volume 2817.480629
_symmetry_space_group_name_H-M "C C C M"
_symmetry_group_IT_number 66
_symmetry_cell_setting 'orthorhombic'
loop_
_space_group_symop_operation_xyz
x,y,z
-x,-y,z
x,-y,1/2-z
-x,y,1/2-z
-x,-y,-z
x,y,-z
-x,y,1/2+z
x,-y,1/2+z
1/2+x,1/2+y,z
1/2-x,1/2-y,z
1/2+x,1/2-y,1/2-z
1/2-x,1/2+y,1/2-z
1/2-x,1/2-y,-z
1/2+x,1/2+y,-z
1/2-x,1/2+y,1/2+z
1/2+x,1/2-y,1/2+z
loop_
_atom_site_type_symbol
_atom_site_label
_atom_site_fract_x
_atom_site_fract_y
_atom_site_fract_z
Si Si1 0.627919 0.001078 0.000000
Si Si2 0.500000 0.000000 0.131038
Si Si3 0.325758 0.537451 0.000000
Si Si4 0.047636 0.872315 0.873987
Si Si5 0.000000 0.299472 0.250000
Si Si6 0.418850 0.281890 0.000000
O O1 0.723222 0.059745 0.000000
O O2 0.629791 0.850434 0.000000
O O3 0.577633 0.052497 0.076409
O O4 0.457948 0.109602 0.184736
O O5 0.364987 0.601658 0.077471
O O6 0.346593 0.390325 0.000000
O O7 0.068597 0.791459 0.795576
O O8 0.000000 0.000000 0.849779
O O9 0.979448 0.792406 0.924554
#
# Coordination Sequence:
#
# PCOD8277508 Si02
#       6
#     8   8   8  16   8   8
#     4  11  19  39  59  87 119 149 214 243 280 345
#     4  10  24  34  62  82 108 176 202 232 286 370
#     4   9  20  33  63  92 115 141 204 254 298 331
#     4   9  18  34  61  89 109 153 197 244 294 356
#     4  11  19  38  58  76 119 155 204 232 302 361
#     4   9  16  34  60  86 112 152 199 236 292 356
#
# _framework density 19.875914000000002
#
# number of rings (size 3 to 8) (size 9 to 14) (size 15 to 20)
#    0.000    2.286    2.857    2.571    0.000    0.000 
#    0.000    2.857   37.714    0.000    0.000    0.000 
#    0.000    0.000    0.000    0.000    0.000    0.000 
#
# Total GULP energy -346866.728489 kJ/mol
# GULP energy per Si atom -12388.097446 kJ/mol
# Density = 1.983068 g / cm^3
# Si number density = 19.875914 Si / 1000 Ang^3
#
#
#
# Elastic Constant Matrix: (Units=GPa)
#
#
# Indices 1 2 3 4 5 6 
#
# 1 126.3824 25.6971 52.5705 0.0000 0.0000 0.0000
# 2 25.6971 88.0637 69.9189 0.0000 0.0000 0.0000
# 3 52.5705 69.9189 142.0378 0.0000 0.0000 0.0000
# 4 0.0000 0.0000 0.0000 51.9671 0.0000 0.0000
# 5 0.0000 0.0000 0.0000 0.0000 19.2535 0.0000
# 6 0.0000 0.0000 0.0000 0.0000 0.0000 20.8352
#
#
#
# Elastic Compliance Matrix: (Units=1/GPa)
#
#
# Indices 1 2 3 4 5 6 
#
# 1 0.009352 0.000032 -0.003477 0.000000 0.000000 0.000000
# 2 0.000032 0.018641 -0.009188 0.000000 0.000000 0.000000
# 3 -0.003477 -0.009188 0.012850 0.000000 0.000000 0.000000
# 4 0.000000 0.000000 0.000000 0.019243 0.000000 0.000000
# 5 0.000000 0.000000 0.000000 0.000000 0.051939 0.000000
# 6 0.000000 0.000000 0.000000 0.000000 0.000000 0.047996
#
#
# Mechanical properties :
#
#
# Convention : Reuss Voigt Hill
#
# Bulk Modulus (GPa) = 64.19775 72.53966 68.36870
# Shear Modulus (GPa) = 26.24958 32.29766 29.27362
#
# Velocity S-wave (km/s) = 3.63805 4.03546 3.84190
# Velocity P-wave (km/s) = 7.07224 7.63471 7.35885
#
# Compressibility (1/GPa) = 0.01557687
#
# Stress axis : x y z
#
# Youngs Moduli (GPa) = 106.92456 53.64546 77.82096
#
# Poissons Ratio (x) = -0.00169 0.27058
# Poissons Ratio (y) = -0.00338 0.71500
# Poissons Ratio (z) = 0.37178 0.49288
#
# Static dielectric constant tensor:
#      x y z
#    x 3.016930 0.000000 0.000000 
#    y 0.000000 3.945100 0.000000 
#    z 0.000000 0.000000 3.862020 
# 
# 
# High freq. dielectric constant tensor:
#      x y z
#    x 1.704010 0.000000 0.000000 
#    y 0.000000 1.804380 0.000000 
#    z 0.000000 0.000000 1.786950 
# 
# From -- ./inp_files/38182.got.cif
#   From: 2010.03.12/outbox.cif.g09.slc.cpg/sg66_20_cif.got.tgz:38182.got - 2010.04.10 21:57:39.
