data_PCOD8277872
_publ_section_title
;
Structure prediction by ZEFSAII (Michael W. Deem and Ramdas Pophale) SiO2 
 PCOD8277872
Probable space group: C C C M
;
_chemical_formula_sum "Si O2"
_cell_formula_units_Z 56
_cell_length_a 15.204249
_cell_length_b 9.992174
_cell_length_c 18.108731
_cell_angle_alpha 90.000000
_cell_angle_beta 90.000000
_cell_angle_gamma 90.000000
_cell_volume 2751.141822
_symmetry_space_group_name_H-M "C C C M"
_symmetry_group_IT_number 66
_symmetry_cell_setting 'orthorhombic'
loop_
_space_group_symop_operation_xyz
x,y,z
-x,-y,z
x,-y,1/2-z
-x,y,1/2-z
-x,-y,-z
x,y,-z
-x,y,1/2+z
x,-y,1/2+z
1/2+x,1/2+y,z
1/2-x,1/2-y,z
1/2+x,1/2-y,1/2-z
1/2-x,1/2+y,1/2-z
1/2-x,1/2-y,-z
1/2+x,1/2+y,-z
1/2-x,1/2+y,1/2+z
1/2+x,1/2-y,1/2+z
loop_
_atom_site_type_symbol
_atom_site_label
_atom_site_fract_x
_atom_site_fract_y
_atom_site_fract_z
Si Si1 0.367823 0.581514 0.415421
Si Si2 0.250000 0.750000 0.317079
Si Si3 0.410021 0.151496 0.275682
Si Si4 0.554364 0.296480 0.084648
O O1 0.337560 0.581693 0.500000
O O2 0.283602 0.627380 0.367667
O O3 0.449637 0.683117 0.404867
O O4 0.395910 0.432568 0.391824
O O5 0.327531 0.785351 0.262811
O O6 0.500000 0.224813 0.250000
O O7 0.407979 0.175923 0.364433
O O8 0.414117 0.000000 0.250000
O O9 0.575112 0.258523 0.000000
#
# Coordination Sequence:
#
# PCOD8277872 Si02
#       4
#    16   8  16  16
#     4   9  19  37  66  98 124 159 211 263 315 375
#     4  12  23  38  65  94 130 166 208 264 311 372
#     4  11  25  43  59  92 132 166 211 258 314 375
#     4   9  19  42  67  90 123 166 211 258 314 375
#
# _framework density 20.355184999999999
#
# number of rings (size 3 to 8) (size 9 to 14) (size 15 to 20)
#    0.000    2.000    2.857    2.143    4.000    0.000 
#    0.000    6.429    0.000    0.000    0.000    0.000 
#    0.000    0.000    0.000    0.000    0.000    0.000 
#
# Total GULP energy -347035.687994 kJ/mol
# GULP energy per Si atom -12394.131714 kJ/mol
# Density = 2.030886 g / cm^3
# Si number density = 20.355185 Si / 1000 Ang^3
#
#
#
# Elastic Constant Matrix: (Units=GPa)
#
#
# Indices 1 2 3 4 5 6 
#
# 1 119.9054 31.8213 58.2217 0.0000 0.0000 0.0000
# 2 31.8213 80.4917 66.1607 0.0000 0.0000 0.0000
# 3 58.2217 66.1607 148.5614 0.0000 0.0000 0.0000
# 4 0.0000 0.0000 0.0000 31.1393 0.0000 0.0000
# 5 0.0000 0.0000 0.0000 0.0000 63.7079 0.0000
# 6 0.0000 0.0000 0.0000 0.0000 0.0000 28.8427
#
#
#
# Elastic Compliance Matrix: (Units=1/GPa)
#
#
# Indices 1 2 3 4 5 6 
#
# 1 0.010373 -0.001198 -0.003532 0.000000 0.000000 0.000000
# 2 -0.001198 0.019736 -0.008320 0.000000 0.000000 0.000000
# 3 -0.003532 -0.008320 0.011820 0.000000 0.000000 0.000000
# 4 0.000000 0.000000 0.000000 0.032114 0.000000 0.000000
# 5 0.000000 0.000000 0.000000 0.000000 0.015697 0.000000
# 6 0.000000 0.000000 0.000000 0.000000 0.000000 0.034671
#
#
# Mechanical properties :
#
#
# Convention : Reuss Voigt Hill
#
# Bulk Modulus (GPa) = 63.16979 73.48510 68.32744
# Shear Modulus (GPa) = 32.09556 37.58829 34.84193
#
# Velocity S-wave (km/s) = 3.97517 4.30189 4.14176
# Velocity P-wave (km/s) = 7.22291 7.80095 7.51749
#
# Compressibility (1/GPa) = 0.01583035
#
# Stress axis : x y z
#
# Youngs Moduli (GPa) = 96.40758 50.66994 84.59973
#
# Poissons Ratio (x) = 0.06069 0.29877
# Poissons Ratio (y) = 0.11548 0.70384
# Poissons Ratio (z) = 0.34047 0.42156
#
# Static dielectric constant tensor:
#      x y z
#    x 6.110510 0.000000 0.000000 
#    y 0.000000 3.828210 0.000000 
#    z 0.000000 0.000000 3.809420 
# 
# 
# High freq. dielectric constant tensor:
#      x y z
#    x 1.797670 0.000000 0.000000 
#    y 0.000000 1.768280 0.000000 
#    z 0.000000 0.000000 1.806590 
# 
# From -- ./inp_files/25352.got.cif
#   From: 2010.03.12/outbox.cif.g09.slc.cpg/sg66_13_cif.got.tgz:25352.got - 2010.04.10 21:57:39.
