data_PCOD8277517
_publ_section_title
;
Structure prediction by ZEFSAII (Michael W. Deem and Ramdas Pophale) SiO2 
 PCOD8277517
Probable space group: C C C M
;
_chemical_formula_sum "Si O2"
_cell_formula_units_Z 56
_cell_length_a 18.011627
_cell_length_b 8.261628
_cell_length_c 17.868460
_cell_angle_alpha 90.000000
_cell_angle_beta 90.000000
_cell_angle_gamma 90.000000
_cell_volume 2658.922658
_symmetry_space_group_name_H-M "C C C M"
_symmetry_group_IT_number 66
_symmetry_cell_setting 'orthorhombic'
loop_
_space_group_symop_operation_xyz
x,y,z
-x,-y,z
x,-y,1/2-z
-x,y,1/2-z
-x,-y,-z
x,y,-z
-x,y,1/2+z
x,-y,1/2+z
1/2+x,1/2+y,z
1/2-x,1/2-y,z
1/2+x,1/2-y,1/2-z
1/2-x,1/2+y,1/2-z
1/2-x,1/2-y,-z
1/2+x,1/2+y,-z
1/2-x,1/2+y,1/2+z
1/2+x,1/2-y,1/2+z
loop_
_atom_site_type_symbol
_atom_site_label
_atom_site_fract_x
_atom_site_fract_y
_atom_site_fract_z
Si Si1 0.751011 0.000862 0.000000
Si Si2 0.377295 0.261358 0.500000
Si Si3 0.529612 0.181470 0.143700
Si Si4 0.895685 0.818694 0.219545
Si Si5 0.250000 0.250000 0.871137
O O1 0.738611 0.903685 0.923858
O O2 0.687795 0.132738 0.000000
O O3 0.835584 0.066032 0.000000
O O4 0.429435 0.244784 0.429026
O O5 0.460633 0.302692 0.157868
O O6 0.586650 0.192695 0.213312
O O7 0.500000 0.000000 0.133005
O O8 0.819053 0.768105 0.183269
O O9 0.892303 0.000000 0.250000
#
# Coordination Sequence:
#
# PCOD8277517 Si02
#       5
#     8   8  16  16   8
#     4  10  24  41  63  96 123 161 220 250 303 393
#     4  11  23  43  65  91 129 167 203 262 315 361
#     4  11  23  40  64  94 126 163 211 257 308 376
#     4  11  24  41  63  93 125 162 211 258 310 376
#     4  11  24  44  64  89 128 168 204 263 316 360
#
# _framework density 21.061160999999998
#
# number of rings (size 3 to 8) (size 9 to 14) (size 15 to 20)
#    0.000    1.143    0.000    7.286    0.000    9.143 
#    0.000    4.286    0.000    0.000    0.000    0.000 
#    0.000    0.000    0.000    0.000    0.000    0.000 
#
# Total GULP energy -347260.452350 kJ/mol
# GULP energy per Si atom -12402.159013 kJ/mol
# Density = 2.101322 g / cm^3
# Si number density = 21.061161 Si / 1000 Ang^3
#
#
#
# Elastic Constant Matrix: (Units=GPa)
#
#
# Indices 1 2 3 4 5 6 
#
# 1 180.8815 62.0818 109.3152 0.0000 0.0000 0.0000
# 2 62.0818 113.1558 42.1126 0.0000 0.0000 0.0000
# 3 109.3152 42.1126 105.3917 0.0000 0.0000 0.0000
# 4 0.0000 0.0000 0.0000 121.2659 0.0000 0.0000
# 5 0.0000 0.0000 0.0000 0.0000 53.5264 0.0000
# 6 0.0000 0.0000 0.0000 0.0000 0.0000 33.9245
#
#
#
# Elastic Compliance Matrix: (Units=1/GPa)
#
#
# Indices 1 2 3 4 5 6 
#
# 1 0.015630 -0.002986 -0.015018 0.000000 0.000000 0.000000
# 2 -0.002986 0.010951 -0.001279 0.000000 0.000000 0.000000
# 3 -0.015018 -0.001279 0.025577 0.000000 0.000000 0.000000
# 4 0.000000 0.000000 0.000000 0.008246 0.000000 0.000000
# 5 0.000000 0.000000 0.000000 0.000000 0.018682 0.000000
# 6 0.000000 0.000000 0.000000 0.000000 0.000000 0.029477
#
#
# Mechanical properties :
#
#
# Convention : Reuss Voigt Hill
#
# Bulk Modulus (GPa) = 73.57492 91.82757 82.70125
# Shear Modulus (GPa) = 32.96828 54.13798 43.55313
#
# Velocity S-wave (km/s) = 3.96075 5.07552 4.55239
# Velocity P-wave (km/s) = 7.47841 8.83419 8.18442
#
# Compressibility (1/GPa) = 0.01359159
#
# Stress axis : x y z
#
# Youngs Moduli (GPa) = 63.98156 91.31169 39.09765
#
# Poissons Ratio (x) = 0.27263 0.58718
# Poissons Ratio (y) = 0.19103 0.05001
# Poissons Ratio (z) = 0.96090 0.11681
#
# Static dielectric constant tensor:
#      x y z
#    x 4.040690 0.000000 0.000000 
#    y 0.000000 3.988490 0.000000 
#    z 0.000000 0.000000 3.971640 
# 
# 
# High freq. dielectric constant tensor:
#      x y z
#    x 1.839370 0.000000 0.000000 
#    y 0.000000 1.833380 0.000000 
#    z 0.000000 0.000000 1.835770 
# 
# From -- ./inp_files/36255.got.cif
#   From: 2010.03.12/outbox.cif.g09.slc.cpg/sg66_19_cif.got.tgz:36255.got - 2010.04.10 21:57:39.
