data_PCOD8277497
_publ_section_title
;
Structure prediction by ZEFSAII (Michael W. Deem and Ramdas Pophale) SiO2 
 PCOD8277497
Probable space group: C C C M
;
_chemical_formula_sum "Si O2"
_cell_formula_units_Z 52
_cell_length_a 25.395712
_cell_length_b 4.842880
_cell_length_c 18.484362
_cell_angle_alpha 90.000000
_cell_angle_beta 90.000000
_cell_angle_gamma 90.000000
_cell_volume 2273.361844
_symmetry_space_group_name_H-M "C C C M"
_symmetry_group_IT_number 66
_symmetry_cell_setting 'orthorhombic'
loop_
_space_group_symop_operation_xyz
x,y,z
-x,-y,z
x,-y,1/2-z
-x,y,1/2-z
-x,-y,-z
x,y,-z
-x,y,1/2+z
x,-y,1/2+z
1/2+x,1/2+y,z
1/2-x,1/2-y,z
1/2+x,1/2-y,1/2-z
1/2-x,1/2+y,1/2-z
1/2-x,1/2-y,-z
1/2+x,1/2+y,-z
1/2-x,1/2+y,1/2+z
1/2+x,1/2-y,1/2+z
loop_
_atom_site_type_symbol
_atom_site_label
_atom_site_fract_x
_atom_site_fract_y
_atom_site_fract_z
Si Si1 0.000000 0.500000 0.250000
Si Si2 0.949713 0.161341 0.126374
Si Si3 0.786737 0.501209 0.833591
Si Si4 0.611989 0.843156 0.918433
O O1 0.037106 0.707169 0.204595
O O2 0.933494 0.422799 0.077638
O O3 0.904176 0.925935 0.129175
O O4 0.000000 0.000000 0.092752
O O5 0.804322 0.500000 0.750000
O O6 0.750000 0.750000 0.854077
O O7 0.838596 0.507271 0.882015
O O8 0.750000 0.250000 0.855052
O O9 0.624515 0.745551 0.000000
#
# Coordination Sequence:
#
# PCOD8277497 Si02
#       4
#     4  16  16  16
#     4  12  26  48  68 104 134 196 240 300 358 400
#     4  12  26  45  70 100 142 182 237 290 347 416
#     4  10  23  44  69 100 135 179 233 295 348 407
#     4  12  27  44  70 105 142 191 231 282 361 426
#
# _framework density 22.873615999999998
#
# number of rings (size 3 to 8) (size 9 to 14) (size 15 to 20)
#    0.000    0.615    3.077    3.231    2.154    4.923 
#    0.000    0.000    0.000    0.000    0.000    0.000 
#    0.000    0.000    0.000    0.000    0.000    0.000 
#
# Total GULP energy -322302.878671 kJ/mol
# GULP energy per Si atom -12396.264564 kJ/mol
# Density = 2.282156 g / cm^3
# Si number density = 22.873616 Si / 1000 Ang^3
#
#
#
# Elastic Constant Matrix: (Units=GPa)
#
#
# Indices 1 2 3 4 5 6 
#
# 1 108.2662 59.5713 77.4234 0.0000 0.0000 0.0000
# 2 59.5713 192.0119 62.9557 0.0000 0.0000 0.0000
# 3 77.4234 62.9557 124.8906 0.0000 0.0000 0.0000
# 4 0.0000 0.0000 0.0000 27.9808 0.0000 0.0000
# 5 0.0000 0.0000 0.0000 0.0000 2.4209 0.0000
# 6 0.0000 0.0000 0.0000 0.0000 0.0000 67.4910
#
#
#
# Elastic Compliance Matrix: (Units=1/GPa)
#
#
# Indices 1 2 3 4 5 6 
#
# 1 0.017350 -0.002224 -0.009635 0.000000 0.000000 0.000000
# 2 -0.002224 0.006524 -0.001910 0.000000 0.000000 0.000000
# 3 -0.009635 -0.001910 0.014943 0.000000 0.000000 0.000000
# 4 0.000000 0.000000 0.000000 0.035739 0.000000 0.000000
# 5 0.000000 0.000000 0.000000 0.000000 0.413065 0.000000
# 6 0.000000 0.000000 0.000000 0.000000 0.000000 0.014817
#
#
# Mechanical properties :
#
#
# Convention : Reuss Voigt Hill
#
# Bulk Modulus (GPa) = 88.65632 91.67439 90.16536
# Shear Modulus (GPa) = 9.36794 34.59310 21.98052
#
# Velocity S-wave (km/s) = 2.02593 3.89312 3.10329
# Velocity P-wave (km/s) = 6.65702 7.77008 7.23499
#
# Compressibility (1/GPa) = 0.01127951
#
# Stress axis : x y z
#
# Youngs Moduli (GPa) = 57.63604 153.27445 66.92154
#
# Poissons Ratio (x) = 0.34086 0.64478
# Poissons Ratio (y) = 0.12817 0.12783
# Poissons Ratio (z) = 0.55532 0.29278
#
# Static dielectric constant tensor:
#      x y z
#    x 4.084530 0.000000 0.000000 
#    y 0.000000 4.507400 0.000000 
#    z 0.000000 0.000000 3.813860 
# 
# 
# High freq. dielectric constant tensor:
#      x y z
#    x 1.899950 0.000000 0.000000 
#    y 0.000000 1.936520 0.000000 
#    z 0.000000 0.000000 1.879350 
# 
# From -- ./inp_files/51468.got.cif
#   From: 2010.03.12/outbox.cif.g09.slc.cpg/sg66_26_cif.got.tgz:51468.got - 2010.04.10 21:57:39.
