data_PCOD8277335
_publ_section_title
;
Structure prediction by ZEFSAII (Michael W. Deem and Ramdas Pophale) SiO2 
 PCOD8277335
Probable space group: C C C M
;
_chemical_formula_sum "Si O2"
_cell_formula_units_Z 72
_cell_length_a 5.077875
_cell_length_b 33.538069
_cell_length_c 23.384346
_cell_angle_alpha 90.000000
_cell_angle_beta 90.000000
_cell_angle_gamma 90.000000
_cell_volume 3982.403748
_symmetry_space_group_name_H-M "C C C M"
_symmetry_group_IT_number 66
_symmetry_cell_setting 'orthorhombic'
loop_
_space_group_symop_operation_xyz
x,y,z
-x,-y,z
x,-y,1/2-z
-x,y,1/2-z
-x,-y,-z
x,y,-z
-x,y,1/2+z
x,-y,1/2+z
1/2+x,1/2+y,z
1/2-x,1/2-y,z
1/2+x,1/2-y,1/2-z
1/2-x,1/2+y,1/2-z
1/2-x,1/2-y,-z
1/2+x,1/2+y,-z
1/2-x,1/2+y,1/2+z
1/2+x,1/2-y,1/2+z
loop_
_atom_site_type_symbol
_atom_site_label
_atom_site_fract_x
_atom_site_fract_y
_atom_site_fract_z
Si Si1 0.824659 0.386110 0.566247
Si Si2 0.008842 0.221812 0.500000
Si Si3 0.749823 0.703672 0.287209
Si Si4 0.849284 0.160551 0.096765
Si Si5 0.246322 0.476909 0.932135
O O1 0.737965 0.381715 0.500000
O O2 0.609157 0.365641 0.607022
O O3 0.803683 0.431596 0.586850
O O4 0.114840 0.366796 0.571517
O O5 0.250000 0.250000 0.500000
O O6 0.037062 0.195039 0.443964
O O7 0.750000 0.250000 0.500000
O O8 0.500000 0.691922 0.250000
O O9 0.750000 0.750000 0.304026
O O10 0.757079 0.678705 0.344918
O O11 0.000000 0.691775 0.250000
O O12 0.500000 0.500000 0.906395
O O13 0.000000 0.500000 0.906523
O O14 0.258579 0.479298 0.000000
#
# Coordination Sequence:
#
# PCOD8277335 Si02
#       5
#    16   8  16  16  16
#     4  11  20  34  52  79 117 149 177 216 277 327
#     4  12  24  36  52  78 112 150 184 216 268 342
#     4  10  22  40  59  77 101 140 189 241 283 313
#     4  12  22  37  55  80 112 145 183 227 276 334
#     4   9  17  29  47  72 105 148 184 210 247 319
#
# _framework density 18.079533999999999
#
# number of rings (size 3 to 8) (size 9 to 14) (size 15 to 20)
#    0.000    1.333    2.222    4.667    0.000    6.222 
#    0.000    0.000    0.000    0.000    0.000    0.000 
#    0.000   62.222    0.000    0.000    0.000    0.000 
#
# Total GULP energy -446191.397828 kJ/mol
# GULP energy per Si atom -12394.205495 kJ/mol
# Density = 1.803838 g / cm^3
# Si number density = 18.079534 Si / 1000 Ang^3
#
#
#
# Elastic Constant Matrix: (Units=GPa)
#
#
# Indices 1 2 3 4 5 6 
#
# 1 166.7808 76.8100 28.5587 0.0000 0.0000 0.0000
# 2 76.8100 139.4051 46.0038 0.0000 0.0000 0.0000
# 3 28.5587 46.0038 73.7947 0.0000 0.0000 0.0000
# 4 0.0000 0.0000 0.0000 14.2723 0.0000 0.0000
# 5 0.0000 0.0000 0.0000 0.0000 -17.9251 0.0000
# 6 0.0000 0.0000 0.0000 0.0000 0.0000 44.8580
#
#
#
# Elastic Compliance Matrix: (Units=1/GPa)
#
#
# Indices 1 2 3 4 5 6 
#
# 1 0.008046 -0.004288 -0.000441 0.000000 0.000000 0.000000
# 2 -0.004288 0.011316 -0.005395 0.000000 0.000000 0.000000
# 3 -0.000441 -0.005395 0.017085 0.000000 0.000000 0.000000
# 4 0.000000 0.000000 0.000000 0.070066 0.000000 0.000000
# 5 0.000000 0.000000 0.000000 0.000000 -0.055788 0.000000
# 6 0.000000 0.000000 0.000000 0.000000 0.000000 0.022293
#
#
# Mechanical properties :
#
#
# Convention : Reuss Voigt Hill
#
# Bulk Modulus (GPa) = 61.72919 75.85839 68.79379
# Shear Modulus (GPa) = 50.67618 23.48159 37.07889
#
# Velocity S-wave (km/s) = 5.30004 3.60779 4.53357
# Velocity P-wave (km/s) = 8.46588 7.70741 8.09553
#
# Compressibility (1/GPa) = 0.01619979
#
# Stress axis : x y z
#
# Youngs Moduli (GPa) = 124.28380 88.36837 58.53058
#
# Poissons Ratio (x) = 0.37891 0.02580
# Poissons Ratio (y) = 0.53290 0.31578
# Poissons Ratio (z) = 0.05479 0.47677
#
# Static dielectric constant tensor:
#      x y z
#    x 3.592650 0.000000 0.000000 
#    y 0.000000 3.603720 0.000000 
#    z 0.000000 0.000000 2.927530 
# 
# 
# High freq. dielectric constant tensor:
#      x y z
#    x 1.726740 0.000000 0.000000 
#    y 0.000000 1.711080 0.000000 
#    z 0.000000 0.000000 1.650260 
# 
# From -- ./inp_files/54223.got.cif
#   From: 2010.03.12/outbox.cif.g09.slc.cpg/sg66_28_cif.got.tgz:54223.got - 2010.04.10 21:57:39.
