data_PCOD8277536
_publ_section_title
;
Structure prediction by ZEFSAII (Michael W. Deem and Ramdas Pophale) SiO2 
 PCOD8277536
Probable space group: C C C M
;
_chemical_formula_sum "Si O2"
_cell_formula_units_Z 104
_cell_length_a 8.895151
_cell_length_b 24.891372
_cell_length_c 22.443769
_cell_angle_alpha 90.000000
_cell_angle_beta 90.000000
_cell_angle_gamma 90.000000
_cell_volume 4969.331285
_symmetry_space_group_name_H-M "C C C M"
_symmetry_group_IT_number 66
_symmetry_cell_setting 'orthorhombic'
loop_
_space_group_symop_operation_xyz
x,y,z
-x,-y,z
x,-y,1/2-z
-x,y,1/2-z
-x,-y,-z
x,y,-z
-x,y,1/2+z
x,-y,1/2+z
1/2+x,1/2+y,z
1/2-x,1/2-y,z
1/2+x,1/2-y,1/2-z
1/2-x,1/2+y,1/2-z
1/2-x,1/2-y,-z
1/2+x,1/2+y,-z
1/2-x,1/2+y,1/2+z
1/2+x,1/2-y,1/2+z
loop_
_atom_site_type_symbol
_atom_site_label
_atom_site_fract_x
_atom_site_fract_y
_atom_site_fract_z
Si Si1 0.769278 0.614587 0.112566
Si Si2 0.931983 0.213468 0.617065
Si Si3 0.987924 0.319613 0.320101
Si Si4 0.934822 0.439709 0.500000
Si Si5 0.004944 0.936770 0.817885
Si Si6 0.200616 0.144434 0.628918
Si Si7 0.928156 0.258483 0.000000
Si Si8 0.306269 0.864678 0.000000
O O1 0.707964 0.675198 0.098414
O O2 0.637667 0.581520 0.143509
O O3 0.902048 0.626176 0.159716
O O4 0.836791 0.579982 0.057308
O O5 0.899866 0.265343 0.658905
O O6 0.058807 0.179286 0.651125
O O7 0.995025 0.234741 0.556339
O O8 0.153056 0.325010 0.348126
O O9 0.000000 0.318664 0.250000
O O10 0.000000 0.500000 0.500000
O O11 0.104341 0.419023 0.500000
O O12 0.000000 0.916235 0.750000
O O13 0.163992 0.914810 0.844784
O O14 0.000000 0.000000 0.821243
O O15 0.199536 0.140882 0.557288
O O16 0.750000 0.250000 0.000000
O O17 0.945881 0.322617 0.000000
#
# Coordination Sequence:
#
# PCOD8277536 Si02
#       8
#    16  16  16   8  16  16   8   8
#     4  11  25  44  64  98 135 176 219 285 348 398
#     4  11  22  37  63  94 132 168 217 264 327 403
#     4  12  24  39  63  96 135 183 224 266 329 407
#     4  12  27  46  69  99 136 173 229 298 354 403
#     4  10  24  45  68  92 126 171 224 281 337 397
#     4  11  22  40  65  94 128 170 219 270 325 400
#     4  12  17  35  62  90 121 168 210 252 314 402
#     4  12  22  39  66  96 127 161 218 267 329 387
#
# _framework density 20.928369
#
# number of rings (size 3 to 8) (size 9 to 14) (size 15 to 20)
#    0.000    0.769    4.615    2.308    2.154    6.769 
#    0.000    3.077    0.000    2.769    0.000    0.000 
#    0.000    0.000    0.000    0.000    0.000    0.000 
#
# Total GULP energy -644207.330053 kJ/mol
# GULP energy per Si atom -12388.602501 kJ/mol
# Density = 2.088074 g / cm^3
# Si number density = 20.928369 Si / 1000 Ang^3
#
#
#
# Elastic Constant Matrix: (Units=GPa)
#
#
# Indices 1 2 3 4 5 6 
#
# 1 84.2809 40.8839 33.8589 0.0000 0.0000 0.0000
# 2 40.8839 117.6888 55.5239 0.0000 0.0000 0.0000
# 3 33.8589 55.5239 163.4427 0.0000 0.0000 0.0000
# 4 0.0000 0.0000 0.0000 40.6856 0.0000 0.0000
# 5 0.0000 0.0000 0.0000 0.0000 7.3176 0.0000
# 6 0.0000 0.0000 0.0000 0.0000 0.0000 39.8412
#
#
#
# Elastic Compliance Matrix: (Units=1/GPa)
#
#
# Indices 1 2 3 4 5 6 
#
# 1 0.014592 -0.004338 -0.001549 0.000000 0.000000 0.000000
# 2 -0.004338 0.011409 -0.002977 0.000000 0.000000 0.000000
# 3 -0.001549 -0.002977 0.007451 0.000000 0.000000 0.000000
# 4 0.000000 0.000000 0.000000 0.024579 0.000000 0.000000
# 5 0.000000 0.000000 0.000000 0.000000 0.136657 0.000000
# 6 0.000000 0.000000 0.000000 0.000000 0.000000 0.025100
#
#
# Mechanical properties :
#
#
# Convention : Reuss Voigt Hill
#
# Bulk Modulus (GPa) = 63.60338 69.54954 66.57646
# Shear Modulus (GPa) = 20.59683 33.24526 26.92104
#
# Velocity S-wave (km/s) = 3.14053 3.98996 3.59045
# Velocity P-wave (km/s) = 6.60360 7.38449 7.00493
#
# Compressibility (1/GPa) = 0.01572243
#
# Stress axis : x y z
#
# Youngs Moduli (GPa) = 68.53138 87.65383 134.21789
#
# Poissons Ratio (x) = 0.38026 0.20792
# Poissons Ratio (y) = 0.29730 0.39956
# Poissons Ratio (z) = 0.10616 0.26094
#
# Static dielectric constant tensor:
#      x y z
#    x 5.184630 0.000000 0.000000 
#    y 0.000000 4.311670 0.000000 
#    z 0.000000 0.000000 4.074700 
# 
# 
# High freq. dielectric constant tensor:
#      x y z
#    x 1.828380 0.000000 0.000000 
#    y 0.000000 1.826570 0.000000 
#    z 0.000000 0.000000 1.821400 
# 
# From -- ./inp_files/47438.got.cif
#   From: 2010.03.12/outbox.cif.g09.slc.cpg/sg66_24_cif.got.tgz:47438.got - 2010.04.10 21:57:39.
