data_PCOD8277324
_publ_section_title
;
Structure prediction by ZEFSAII (Michael W. Deem and Ramdas Pophale) SiO2 
 PCOD8277324
Probable space group: C C C M
;
_chemical_formula_sum "Si O2"
_cell_formula_units_Z 80
_cell_length_a 16.625619
_cell_length_b 9.072121
_cell_length_c 25.132794
_cell_angle_alpha 90.000000
_cell_angle_beta 90.000000
_cell_angle_gamma 90.000000
_cell_volume 3790.769951
_symmetry_space_group_name_H-M "C C C M"
_symmetry_group_IT_number 66
_symmetry_cell_setting 'orthorhombic'
loop_
_space_group_symop_operation_xyz
x,y,z
-x,-y,z
x,-y,1/2-z
-x,y,1/2-z
-x,-y,-z
x,y,-z
-x,y,1/2+z
x,-y,1/2+z
1/2+x,1/2+y,z
1/2-x,1/2-y,z
1/2+x,1/2-y,1/2-z
1/2-x,1/2+y,1/2-z
1/2-x,1/2-y,-z
1/2+x,1/2+y,-z
1/2-x,1/2+y,1/2+z
1/2+x,1/2-y,1/2+z
loop_
_atom_site_type_symbol
_atom_site_label
_atom_site_fract_x
_atom_site_fract_y
_atom_site_fract_z
Si Si1 0.916626 0.416817 0.123826
Si Si2 0.315844 0.854135 0.224613
Si Si3 0.575090 0.348566 0.280299
Si Si4 0.477841 0.657968 0.599098
Si Si5 0.169954 0.333923 0.939051
O O1 0.883422 0.390507 0.182222
O O2 0.850786 0.512155 0.091131
O O3 0.000000 0.500000 0.131309
O O4 0.941626 0.260601 0.096944
O O5 0.250000 0.750000 0.196365
O O6 0.351470 0.764387 0.274914
O O7 0.276522 0.000000 0.250000
O O8 0.596150 0.500000 0.250000
O O9 0.500000 0.275199 0.250000
O O10 0.555727 0.371224 0.341780
O O11 0.500000 0.500000 0.573867
O O12 0.406644 0.726926 0.564305
O O13 0.250000 0.250000 0.916334
O O14 0.185631 0.377104 0.000000
#
# Coordination Sequence:
#
# PCOD8277324 Si02
#       5
#    16  16  16  16  16
#     4  10  22  39  64  88 115 160 206 251 305 375
#     4  12  25  36  56  88 128 164 209 252 303 362
#     4  11  20  37  61  88 129 171 202 244 294 363
#     4  11  21  37  66  96 122 162 207 253 305 365
#     4  10  24  45  65  87 120 160 205 264 325 372
#
# _framework density 21.103891000000001
#
# number of rings (size 3 to 8) (size 9 to 14) (size 15 to 20)
#    0.000    1.200    4.000    3.000    0.000   10.400 
#    0.000    0.000    0.000    3.000    0.000    0.000 
#    0.000    0.000    0.000    0.000    0.000    0.000 
#
# Total GULP energy -495810.228929 kJ/mol
# GULP energy per Si atom -12395.255723 kJ/mol
# Density = 2.105586 g / cm^3
# Si number density = 21.103891 Si / 1000 Ang^3
#
#
#
# Elastic Constant Matrix: (Units=GPa)
#
#
# Indices 1 2 3 4 5 6 
#
# 1 79.0269 55.1953 26.2053 0.0000 0.0000 0.0000
# 2 55.1953 162.5398 23.5121 0.0000 0.0000 0.0000
# 3 26.2053 23.5121 50.6344 0.0000 0.0000 0.0000
# 4 0.0000 0.0000 0.0000 23.1837 0.0000 0.0000
# 5 0.0000 0.0000 0.0000 0.0000 8.2182 0.0000
# 6 0.0000 0.0000 0.0000 0.0000 0.0000 33.6259
#
#
#
# Elastic Compliance Matrix: (Units=1/GPa)
#
#
# Indices 1 2 3 4 5 6 
#
# 1 0.018778 -0.005329 -0.007244 0.000000 0.000000 0.000000
# 2 -0.005329 0.008108 -0.001007 0.000000 0.000000 0.000000
# 3 -0.007244 -0.001007 0.023966 0.000000 0.000000 0.000000
# 4 0.000000 0.000000 0.000000 0.043134 0.000000 0.000000
# 5 0.000000 0.000000 0.000000 0.000000 0.121681 0.000000
# 6 0.000000 0.000000 0.000000 0.000000 0.000000 0.029739
#
#
# Mechanical properties :
#
#
# Convention : Reuss Voigt Hill
#
# Bulk Modulus (GPa) = 42.20781 55.78072 48.99426
# Shear Modulus (GPa) = 17.82778 25.49146 21.65962
#
# Velocity S-wave (km/s) = 2.90963 3.47926 3.20712
# Velocity P-wave (km/s) = 5.59744 6.52910 6.08114
#
# Compressibility (1/GPa) = 0.02369230
#
# Stress axis : x y z
#
# Youngs Moduli (GPa) = 53.25458 123.34242 41.72584
#
# Poissons Ratio (x) = 0.65725 0.30226
# Poissons Ratio (y) = 0.28378 0.04201
# Poissons Ratio (z) = 0.38577 0.12420
#
# Static dielectric constant tensor:
#      x y z
#    x 3.929620 0.000000 0.000000 
#    y 0.000000 4.385810 0.000000 
#    z 0.000000 0.000000 3.484090 
# 
# 
# High freq. dielectric constant tensor:
#      x y z
#    x 1.825910 0.000000 0.000000 
#    y 0.000000 1.842870 0.000000 
#    z 0.000000 0.000000 1.800650 
# 
# From -- ./inp_files/65091.got.cif
#   From: 2010.03.12/outbox.cif.g09.slc.cpg/sg66_33_cif.got.tgz:65091.got - 2010.04.10 21:57:39.
