data_PCOD8277846
_publ_section_title
;
Structure prediction by ZEFSAII (Michael W. Deem and Ramdas Pophale) SiO2 
 PCOD8277846
Probable space group: C C C M
;
_chemical_formula_sum "Si O2"
_cell_formula_units_Z 52
_cell_length_a 16.304740
_cell_length_b 16.747360
_cell_length_c 8.881532
_cell_angle_alpha 90.000000
_cell_angle_beta 90.000000
_cell_angle_gamma 90.000000
_cell_volume 2425.203122
_symmetry_space_group_name_H-M "C C C M"
_symmetry_group_IT_number 66
_symmetry_cell_setting 'orthorhombic'
loop_
_space_group_symop_operation_xyz
x,y,z
-x,-y,z
x,-y,1/2-z
-x,y,1/2-z
-x,-y,-z
x,y,-z
-x,y,1/2+z
x,-y,1/2+z
1/2+x,1/2+y,z
1/2-x,1/2-y,z
1/2+x,1/2-y,1/2-z
1/2-x,1/2+y,1/2-z
1/2-x,1/2-y,-z
1/2+x,1/2+y,-z
1/2-x,1/2+y,1/2+z
1/2+x,1/2-y,1/2+z
loop_
_atom_site_type_symbol
_atom_site_label
_atom_site_fract_x
_atom_site_fract_y
_atom_site_fract_z
Si Si1 0.000000 0.500000 0.250000
Si Si2 0.368390 0.880510 0.834324
Si Si3 0.205832 0.081530 0.177553
Si Si4 0.415568 0.702740 0.823009
O O1 0.942690 0.442980 0.149958
O O2 0.302244 0.909761 0.713057
O O3 0.403227 0.795304 0.783260
O O4 0.326970 0.873865 0.000000
O O5 0.159267 0.156007 0.248627
O O6 0.171409 0.000000 0.250000
O O7 0.192566 0.078885 0.000000
O O8 0.500000 0.672371 0.750000
O O9 0.418039 0.686148 0.000000
#
# Coordination Sequence:
#
# PCOD8277846 Si02
#       4
#     4  16  16  16
#     4  12  22  40  72 106 138 172 210 264 330 392
#     4  11  24  42  67 101 139 175 215 269 330 395
#     4  12  26  44  68  97 131 175 224 275 332 393
#     4  11  24  44  68  98 135 175 222 273 328 389
#
# _framework density 21.441503999999998
#
# number of rings (size 3 to 8) (size 9 to 14) (size 15 to 20)
#    0.000    0.615    3.077    5.077    0.000    8.000 
#    0.000    3.077    0.000    0.000    0.000    0.000 
#    0.000    0.000    0.000    0.000    0.000    0.000 
#
# Total GULP energy -322533.961848 kJ/mol
# GULP energy per Si atom -12405.152379 kJ/mol
# Density = 2.139270 g / cm^3
# Si number density = 21.441504 Si / 1000 Ang^3
#
#
#
# Elastic Constant Matrix: (Units=GPa)
#
#
# Indices 1 2 3 4 5 6 
#
# 1 107.1547 60.4336 40.4388 0.0000 0.0000 0.0000
# 2 60.4336 139.7836 59.2909 0.0000 0.0000 0.0000
# 3 40.4388 59.2909 148.0178 0.0000 0.0000 0.0000
# 4 0.0000 0.0000 0.0000 26.9143 0.0000 0.0000
# 5 0.0000 0.0000 0.0000 0.0000 34.1397 0.0000
# 6 0.0000 0.0000 0.0000 0.0000 0.0000 42.2410
#
#
#
# Elastic Compliance Matrix: (Units=1/GPa)
#
#
# Indices 1 2 3 4 5 6 
#
# 1 0.012619 -0.004811 -0.001521 0.000000 0.000000 0.000000
# 2 -0.004811 0.010452 -0.002872 0.000000 0.000000 0.000000
# 3 -0.001521 -0.002872 0.008322 0.000000 0.000000 0.000000
# 4 0.000000 0.000000 0.000000 0.037155 0.000000 0.000000
# 5 0.000000 0.000000 0.000000 0.000000 0.029291 0.000000
# 6 0.000000 0.000000 0.000000 0.000000 0.000000 0.023674
#
#
# Mechanical properties :
#
#
# Convention : Reuss Voigt Hill
#
# Bulk Modulus (GPa) = 77.00726 79.47585 78.24156
# Shear Modulus (GPa) = 34.66204 36.31185 35.48695
#
# Velocity S-wave (km/s) = 4.02504 4.11972 4.07265
# Velocity P-wave (km/s) = 7.58909 7.73151 7.66063
#
# Compressibility (1/GPa) = 0.01298579
#
# Stress axis : x y z
#
# Youngs Moduli (GPa) = 79.24308 95.67351 120.16367
#
# Poissons Ratio (x) = 0.46027 0.18272
# Poissons Ratio (y) = 0.38123 0.34517
# Poissons Ratio (z) = 0.12050 0.27482
#
# Static dielectric constant tensor:
#      x y z
#    x 3.762340 0.000000 0.000000 
#    y 0.000000 4.053030 0.000000 
#    z 0.000000 0.000000 3.771540 
# 
# 
# High freq. dielectric constant tensor:
#      x y z
#    x 1.840410 0.000000 0.000000 
#    y 0.000000 1.857720 0.000000 
#    z 0.000000 0.000000 1.845240 
# 
# From -- ./inp_files/4721.got.cif
#   From: 2010.03.12/outbox.cif.g09.slc.cpg/sg66_3_cif.got.tgz:4721.got - 2010.04.10 21:57:39.
