data_PCOD8277234
_publ_section_title
;
Structure prediction by ZEFSAII (Michael W. Deem and Ramdas Pophale) SiO2 
 PCOD8277234
Probable space group: C C C M
;
_chemical_formula_sum "Si O2"
_cell_formula_units_Z 68
_cell_length_a 13.763795
_cell_length_b 11.431887
_cell_length_c 20.360684
_cell_angle_alpha 90.000000
_cell_angle_beta 90.000000
_cell_angle_gamma 90.000000
_cell_volume 3203.675221
_symmetry_space_group_name_H-M "C C C M"
_symmetry_group_IT_number 66
_symmetry_cell_setting 'orthorhombic'
loop_
_space_group_symop_operation_xyz
x,y,z
-x,-y,z
x,-y,1/2-z
-x,y,1/2-z
-x,-y,-z
x,y,-z
-x,y,1/2+z
x,-y,1/2+z
1/2+x,1/2+y,z
1/2-x,1/2-y,z
1/2+x,1/2-y,1/2-z
1/2-x,1/2+y,1/2-z
1/2-x,1/2-y,-z
1/2+x,1/2+y,-z
1/2-x,1/2+y,1/2+z
1/2+x,1/2-y,1/2+z
loop_
_atom_site_type_symbol
_atom_site_label
_atom_site_fract_x
_atom_site_fract_y
_atom_site_fract_z
Si Si1 0.105578 0.445802 0.183307
Si Si2 0.733658 0.550475 0.922377
Si Si3 0.432386 0.614368 0.929324
Si Si4 0.500000 0.500000 0.250000
Si Si5 0.084556 0.186583 0.158807
O O1 0.151957 0.500000 0.250000
O O2 0.167238 0.468423 0.117542
O O3 0.103180 0.306618 0.196765
O O4 0.000000 0.500000 0.171163
O O5 0.675708 0.428511 0.911903
O O6 0.671649 0.659137 0.892506
O O7 0.752929 0.574409 0.000000
O O8 0.500000 0.500000 0.930760
O O9 0.479863 0.703548 0.877679
O O10 0.432462 0.677043 0.000000
O O11 0.574392 0.578604 0.208521
#
# Coordination Sequence:
#
# PCOD8277234 Si02
#       5
#    16  16  16   4  16
#     4  11  26  45  57  85 132 178 210 249 312 378
#     4  10  21  41  69  99 125 158 211 266 318 375
#     4   8  15  33  61  94 124 144 187 263 318 358
#     4  12  20  32  64 100 118 160 210 266 320 356
#     4  11  21  38  66  93 123 158 213 260 308 371
#
# _framework density 21.225622999999999
#
# number of rings (size 3 to 8) (size 9 to 14) (size 15 to 20)
#    0.000    1.882    3.529    4.235    1.647    3.294 
#    0.000    1.176    0.000    2.824    0.000    0.000 
#    0.000    0.000    0.000    0.000    0.000    0.000 
#
# Total GULP energy -421338.607324 kJ/mol
# GULP energy per Si atom -12392.311980 kJ/mol
# Density = 2.117731 g / cm^3
# Si number density = 21.225623 Si / 1000 Ang^3
#
#
#
# Elastic Constant Matrix: (Units=GPa)
#
#
# Indices 1 2 3 4 5 6 
#
# 1 96.0428 32.0391 62.3988 0.0000 0.0000 0.0000
# 2 32.0391 94.5652 68.3973 0.0000 0.0000 0.0000
# 3 62.3988 68.3973 166.0782 0.0000 0.0000 0.0000
# 4 0.0000 0.0000 0.0000 24.7955 0.0000 0.0000
# 5 0.0000 0.0000 0.0000 0.0000 41.7506 0.0000
# 6 0.0000 0.0000 0.0000 0.0000 0.0000 20.4183
#
#
#
# Elastic Compliance Matrix: (Units=1/GPa)
#
#
# Indices 1 2 3 4 5 6 
#
# 1 0.013890 -0.001327 -0.004673 0.000000 0.000000 0.000000
# 2 -0.001327 0.015188 -0.005756 0.000000 0.000000 0.000000
# 3 -0.004673 -0.005756 0.010148 0.000000 0.000000 0.000000
# 4 0.000000 0.000000 0.000000 0.040330 0.000000 0.000000
# 5 0.000000 0.000000 0.000000 0.000000 0.023952 0.000000
# 6 0.000000 0.000000 0.000000 0.000000 0.000000 0.048976
#
#
# Mechanical properties :
#
#
# Convention : Reuss Voigt Hill
#
# Bulk Modulus (GPa) = 63.63562 75.81740 69.72651
# Shear Modulus (GPa) = 27.58891 30.31625 28.95258
#
# Velocity S-wave (km/s) = 3.60917 3.78337 3.69730
# Velocity P-wave (km/s) = 6.88577 7.40827 7.15179
#
# Compressibility (1/GPa) = 0.01571447
#
# Stress axis : x y z
#
# Youngs Moduli (GPa) = 71.99281 65.84271 98.54590
#
# Poissons Ratio (x) = 0.08734 0.46046
# Poissons Ratio (y) = 0.09550 0.56728
# Poissons Ratio (z) = 0.33639 0.37902
#
# Static dielectric constant tensor:
#      x y z
#    x 3.954320 0.000000 0.000000 
#    y 0.000000 3.601470 0.000000 
#    z 0.000000 0.000000 4.221070 
# 
# 
# High freq. dielectric constant tensor:
#      x y z
#    x 1.822120 0.000000 0.000000 
#    y 0.000000 1.799740 0.000000 
#    z 0.000000 0.000000 1.845120 
# 
# From -- ./inp_files/49660.got.cif
#   From: 2010.03.12/outbox.cif.g09.slc.cpg/sg66_25_cif.got.tgz:49660.got - 2010.04.10 21:57:39.
