data_PCOD8277450
_publ_section_title
;
Structure prediction by ZEFSAII (Michael W. Deem and Ramdas Pophale) SiO2 
 PCOD8277450
Probable space group: C C C M
;
_chemical_formula_sum "Si O2"
_cell_formula_units_Z 80
_cell_length_a 5.092971
_cell_length_b 33.703295
_cell_length_c 20.989137
_cell_angle_alpha 90.000000
_cell_angle_beta 90.000000
_cell_angle_gamma 90.000000
_cell_volume 3602.783352
_symmetry_space_group_name_H-M "C C C M"
_symmetry_group_IT_number 66
_symmetry_cell_setting 'orthorhombic'
loop_
_space_group_symop_operation_xyz
x,y,z
-x,-y,z
x,-y,1/2-z
-x,y,1/2-z
-x,-y,-z
x,y,-z
-x,y,1/2+z
x,-y,1/2+z
1/2+x,1/2+y,z
1/2-x,1/2-y,z
1/2+x,1/2-y,1/2-z
1/2-x,1/2+y,1/2-z
1/2-x,1/2-y,-z
1/2+x,1/2+y,-z
1/2-x,1/2+y,1/2+z
1/2+x,1/2-y,1/2+z
loop_
_atom_site_type_symbol
_atom_site_label
_atom_site_fract_x
_atom_site_fract_y
_atom_site_fract_z
Si Si1 0.254466 0.481946 0.678541
Si Si2 0.608918 0.602755 0.365833
Si Si3 0.499239 0.776488 0.624059
Si Si4 0.588103 0.144180 0.318901
Si Si5 0.433356 0.171817 0.500000
Si Si6 0.555865 0.618608 0.000000
O O1 0.500000 0.500000 0.640614
O O2 0.251753 0.500000 0.750000
O O3 0.289436 0.434818 0.675280
O O4 0.000000 0.500000 0.643176
O O5 0.377592 0.626630 0.330501
O O6 0.503929 0.592170 0.436788
O O7 0.871402 0.629549 0.370812
O O8 0.250000 0.750000 0.611704
O O9 0.418502 0.808042 0.679005
O O10 0.547614 0.800164 0.560143
O O11 0.750000 0.750000 0.644432
O O12 0.500000 0.128900 0.250000
O O13 0.650749 0.136492 0.500000
O O14 0.139124 0.155530 0.500000
#
# Coordination Sequence:
#
# PCOD8277450 Si02
#       6
#    16  16  16  16   8   8
#     4  10  23  40  65 100 136 173 216 278 335 407
#     4  12  24  45  70 101 140 180 229 283 348 415
#     4  12  24  42  66  97 137 182 232 297 354 400
#     4  12  27  43  68 101 135 187 237 280 345 427
#     4  12  22  43  66 103 132 176 246 288 342 415
#     4  12  22  43  72  97 140 178 230 294 340 413
#
# _framework density 22.205055000000002
#
# number of rings (size 3 to 8) (size 9 to 14) (size 15 to 20)
#    0.000    0.400    4.000    4.800    8.400    0.800 
#    0.000    1.000    0.000    0.000    0.000    0.000 
#    0.000    0.000    0.000    0.000    0.000    0.000 
#
# Total GULP energy -495717.194971 kJ/mol
# GULP energy per Si atom -12392.929874 kJ/mol
# Density = 2.215452 g / cm^3
# Si number density = 22.205055 Si / 1000 Ang^3
#
#
#
# Elastic Constant Matrix: (Units=GPa)
#
#
# Indices 1 2 3 4 5 6 
#
# 1 165.3657 57.1889 1.8975 0.0000 0.0000 0.0000
# 2 57.1889 139.9121 29.7710 0.0000 0.0000 0.0000
# 3 1.8975 29.7710 76.3322 0.0000 0.0000 0.0000
# 4 0.0000 0.0000 0.0000 54.8671 0.0000 0.0000
# 5 0.0000 0.0000 0.0000 0.0000 18.0513 0.0000
# 6 0.0000 0.0000 0.0000 0.0000 0.0000 31.9249
#
#
#
# Elastic Compliance Matrix: (Units=1/GPa)
#
#
# Indices 1 2 3 4 5 6 
#
# 1 0.007118 -0.003132 0.001045 0.000000 0.000000 0.000000
# 2 -0.003132 0.009172 -0.003499 0.000000 0.000000 0.000000
# 3 0.001045 -0.003499 0.014440 0.000000 0.000000 0.000000
# 4 0.000000 0.000000 0.000000 0.018226 0.000000 0.000000
# 5 0.000000 0.000000 0.000000 0.000000 0.055398 0.000000
# 6 0.000000 0.000000 0.000000 0.000000 0.000000 0.031323
#
#
# Mechanical properties :
#
#
# Convention : Reuss Voigt Hill
#
# Bulk Modulus (GPa) = 51.13415 62.14721 56.64068
# Shear Modulus (GPa) = 32.60106 40.48552 36.54329
#
# Velocity S-wave (km/s) = 3.83584 4.27459 4.06115
# Velocity P-wave (km/s) = 6.53425 7.23958 6.89594
#
# Compressibility (1/GPa) = 0.01955640
#
# Stress axis : x y z
#
# Youngs Moduli (GPa) = 140.48256 109.02608 69.25439
#
# Poissons Ratio (x) = 0.34146 -0.07234
# Poissons Ratio (y) = 0.43997 0.24235
# Poissons Ratio (z) = -0.14674 0.38153
#
# Static dielectric constant tensor:
#      x y z
#    x 3.480340 0.000000 0.000000 
#    y 0.000000 3.988020 0.000000 
#    z 0.000000 0.000000 3.982480 
# 
# 
# High freq. dielectric constant tensor:
#      x y z
#    x 1.905950 0.000000 0.000000 
#    y 0.000000 1.867330 0.000000 
#    z 0.000000 0.000000 1.856600 
# 
# From -- ./inp_files/54391.got.cif
#   From: 2010.03.12/outbox.cif.g09.slc.cpg/sg66_28_cif.got.tgz:54391.got - 2010.04.10 21:57:39.
