data_PCOD8277908
_publ_section_title
;
Structure prediction by ZEFSAII (Michael W. Deem and Ramdas Pophale) SiO2 
 PCOD8277908
Probable space group: C C C M
;
_chemical_formula_sum "Si O2"
_cell_formula_units_Z 88
_cell_length_a 11.586842
_cell_length_b 26.893940
_cell_length_c 14.131606
_cell_angle_alpha 90.000000
_cell_angle_beta 90.000000
_cell_angle_gamma 90.000000
_cell_volume 4403.632183
_symmetry_space_group_name_H-M "C C C M"
_symmetry_group_IT_number 66
_symmetry_cell_setting 'orthorhombic'
loop_
_space_group_symop_operation_xyz
x,y,z
-x,-y,z
x,-y,1/2-z
-x,y,1/2-z
-x,-y,-z
x,y,-z
-x,y,1/2+z
x,-y,1/2+z
1/2+x,1/2+y,z
1/2-x,1/2-y,z
1/2+x,1/2-y,1/2-z
1/2-x,1/2+y,1/2-z
1/2-x,1/2-y,-z
1/2+x,1/2+y,-z
1/2-x,1/2+y,1/2+z
1/2+x,1/2-y,1/2+z
loop_
_atom_site_type_symbol
_atom_site_label
_atom_site_fract_x
_atom_site_fract_y
_atom_site_fract_z
Si Si1 0.000000 0.636918 0.250000
Si Si2 0.085701 0.709539 0.105979
Si Si3 0.873043 0.526179 0.000000
Si Si4 0.876339 0.971452 0.500000
Si Si5 0.850357 0.182693 0.108584
Si Si6 0.162452 0.447345 0.793130
Si Si7 0.613336 0.581838 0.697897
O O1 0.997261 0.674062 0.161143
O O2 0.108237 0.600160 0.241125
O O3 0.086131 0.766625 0.141731
O O4 0.213567 0.688144 0.113828
O O5 0.039783 0.708340 0.000000
O O6 0.868458 0.558107 0.903978
O O7 0.000000 0.500000 0.000000
O O8 0.750503 0.497090 0.000000
O O9 0.872491 0.939218 0.593628
O O10 0.000000 0.000000 0.500000
O O11 0.886289 0.141209 0.184600
O O12 0.885768 0.169715 0.000000
O O13 0.117244 0.500000 0.750000
O O14 0.296219 0.441171 0.771619
O O15 0.500000 0.563900 0.750000
#
# Coordination Sequence:
#
# PCOD8277908 Si02
#       7
#     8  16   8   8  16  16  16
#     4  12  23  38  64  92 134 168 203 260 336 394
#     4   9  20  37  64  91 126 162 214 263 324 390
#     4  12  26  44  70  95 135 177 219 280 326 393
#     4  12  26  46  68  92 134 182 222 278 335 387
#     4   9  18  40  63  92 121 163 217 275 316 381
#     4  12  26  44  62  96 130 169 219 265 328 393
#     4  12  25  41  68  95 128 175 228 270 326 398
#
# _framework density 19.983504
#
# number of rings (size 3 to 8) (size 9 to 14) (size 15 to 20)
#    0.000    1.091    4.545    3.545    2.545    0.000 
#    1.636    0.000    0.000    0.000    0.000    5.091 
#    0.000    0.000    0.000    0.000    0.000    0.000 
#
# Total GULP energy -545119.762153 kJ/mol
# GULP energy per Si atom -12389.085503 kJ/mol
# Density = 1.993802 g / cm^3
# Si number density = 19.983504 Si / 1000 Ang^3
#
#
#
# Elastic Constant Matrix: (Units=GPa)
#
#
# Indices 1 2 3 4 5 6 
#
# 1 103.0957 26.2836 23.7987 0.0000 0.0000 0.0000
# 2 26.2836 104.9391 33.6777 0.0000 0.0000 0.0000
# 3 23.7987 33.6777 99.1015 0.0000 0.0000 0.0000
# 4 0.0000 0.0000 0.0000 76.0095 0.0000 0.0000
# 5 0.0000 0.0000 0.0000 0.0000 1.9470 0.0000
# 6 0.0000 0.0000 0.0000 0.0000 0.0000 22.8038
#
#
#
# Elastic Compliance Matrix: (Units=1/GPa)
#
#
# Indices 1 2 3 4 5 6 
#
# 1 0.010657 -0.002074 -0.001854 0.000000 0.000000 0.000000
# 2 -0.002074 0.011099 -0.003274 0.000000 0.000000 0.000000
# 3 -0.001854 -0.003274 0.011649 0.000000 0.000000 0.000000
# 4 0.000000 0.000000 0.000000 0.013156 0.000000 0.000000
# 5 0.000000 0.000000 0.000000 0.000000 0.513610 0.000000
# 6 0.000000 0.000000 0.000000 0.000000 0.000000 0.043852
#
#
# Mechanical properties :
#
#
# Convention : Reuss Voigt Hill
#
# Bulk Modulus (GPa) = 52.63109 52.73959 52.68534
# Shear Modulus (GPa) = 8.00306 35.04383 21.52345
#
# Velocity S-wave (km/s) = 2.00338 4.19219 3.28542
# Velocity P-wave (km/s) = 5.63434 7.06268 6.38856
#
# Compressibility (1/GPa) = 0.01900018
#
# Stress axis : x y z
#
# Youngs Moduli (GPa) = 93.83924 90.09436 85.84777
#
# Poissons Ratio (x) = 0.18686 0.15919
# Poissons Ratio (y) = 0.19462 0.28106
# Poissons Ratio (z) = 0.17401 0.29496
#
# Static dielectric constant tensor:
#      x y z
#    x 3.520400 0.000000 0.000000 
#    y 0.000000 3.802620 0.000000 
#    z 0.000000 0.000000 4.455300 
# 
# 
# High freq. dielectric constant tensor:
#      x y z
#    x 1.769850 0.000000 0.000000 
#    y 0.000000 1.786850 0.000000 
#    z 0.000000 0.000000 1.783130 
# 
# From -- ./inp_files/21345.got.cif
#   From: 2010.03.12/outbox.cif.g09.slc.cpg/sg66_11_cif.got.tgz:21345.got - 2010.04.10 21:57:39.
