data_PCOD8277038
_publ_section_title
;
Structure prediction by ZEFSAII (Michael W. Deem and Ramdas Pophale) SiO2 
 PCOD8277038
Probable space group: C C C M
;
_chemical_formula_sum "Si O2"
_cell_formula_units_Z 72
_cell_length_a 8.993313
_cell_length_b 12.088738
_cell_length_c 30.832798
_cell_angle_alpha 90.000000
_cell_angle_beta 90.000000
_cell_angle_gamma 90.000000
_cell_volume 3352.074109
_symmetry_space_group_name_H-M "C C C M"
_symmetry_group_IT_number 66
_symmetry_cell_setting 'orthorhombic'
loop_
_space_group_symop_operation_xyz
x,y,z
-x,-y,z
x,-y,1/2-z
-x,y,1/2-z
-x,-y,-z
x,y,-z
-x,y,1/2+z
x,-y,1/2+z
1/2+x,1/2+y,z
1/2-x,1/2-y,z
1/2+x,1/2-y,1/2-z
1/2-x,1/2+y,1/2-z
1/2-x,1/2-y,-z
1/2+x,1/2+y,-z
1/2-x,1/2+y,1/2+z
1/2+x,1/2-y,1/2+z
loop_
_atom_site_type_symbol
_atom_site_label
_atom_site_fract_x
_atom_site_fract_y
_atom_site_fract_z
Si Si1 0.027120 0.825806 0.385500
Si Si2 0.108618 0.329280 0.548137
Si Si3 0.251894 0.488799 0.392998
Si Si4 0.578244 0.768657 0.208025
Si Si5 0.000000 0.500000 0.176615
O O1 0.026253 0.786790 0.336299
O O2 0.011718 0.721895 0.418314
O O3 0.888235 0.905879 0.388645
O O4 0.182422 0.887211 0.397432
O O5 0.039175 0.340258 0.500000
O O6 0.250000 0.250000 0.546600
O O7 0.157827 0.451681 0.564545
O O8 0.146847 0.478097 0.351683
O O9 0.500000 0.713461 0.250000
O O10 0.750000 0.750000 0.214905
O O11 0.532827 0.896759 0.207281
#
# Coordination Sequence:
#
# PCOD8277038 Si02
#       5
#    16  16  16  16   8
#     4  10  21  41  63  89 128 169 212 261 327 381
#     4   9  18  34  62  94 126 168 216 265 319 383
#     4  10  21  37  64  91 125 169 208 264 318 386
#     4  12  27  44  66  95 126 167 213 268 324 394
#     4  12  23  42  65  90 124 164 213 260 323 380
#
# _framework density 21.479237999999999
#
# number of rings (size 3 to 8) (size 9 to 14) (size 15 to 20)
#    0.000    1.556    4.444    0.333    3.111    0.889 
#    0.000    7.222    0.000    2.000    0.000    0.000 
#    0.000    0.000    0.000    0.000    0.000    0.000 
#
# Total GULP energy -446335.769405 kJ/mol
# GULP energy per Si atom -12398.215817 kJ/mol
# Density = 2.143035 g / cm^3
# Si number density = 21.479238 Si / 1000 Ang^3
#
#
#
# Elastic Constant Matrix: (Units=GPa)
#
#
# Indices 1 2 3 4 5 6 
#
# 1 91.8593 25.3545 47.4777 0.0000 0.0000 0.0000
# 2 25.3545 98.2424 55.1430 0.0000 0.0000 0.0000
# 3 47.4777 55.1430 195.9530 0.0000 0.0000 0.0000
# 4 0.0000 0.0000 0.0000 25.7610 0.0000 0.0000
# 5 0.0000 0.0000 0.0000 0.0000 38.4545 0.0000
# 6 0.0000 0.0000 0.0000 0.0000 0.0000 31.0341
#
#
#
# Elastic Compliance Matrix: (Units=1/GPa)
#
#
# Indices 1 2 3 4 5 6 
#
# 1 0.012720 -0.001844 -0.002563 0.000000 0.000000 0.000000
# 2 -0.001844 0.012356 -0.003030 0.000000 0.000000 0.000000
# 3 -0.002563 -0.003030 0.006577 0.000000 0.000000 0.000000
# 4 0.000000 0.000000 0.000000 0.038818 0.000000 0.000000
# 5 0.000000 0.000000 0.000000 0.000000 0.026005 0.000000
# 6 0.000000 0.000000 0.000000 0.000000 0.000000 0.032223
#
#
# Mechanical properties :
#
#
# Convention : Reuss Voigt Hill
#
# Bulk Modulus (GPa) = 59.60216 71.33389 65.46802
# Shear Modulus (GPa) = 33.51980 36.25521 34.88751
#
# Velocity S-wave (km/s) = 3.95469 4.11289 4.03456
# Velocity P-wave (km/s) = 6.97579 7.47243 7.22838
#
# Compressibility (1/GPa) = 0.01677792
#
# Stress axis : x y z
#
# Youngs Moduli (GPa) = 78.61694 80.93445 152.04591
#
# Poissons Ratio (x) = 0.14926 0.38969
# Poissons Ratio (y) = 0.14499 0.46072
# Poissons Ratio (z) = 0.20149 0.24524
#
# Static dielectric constant tensor:
#      x y z
#    x 4.021940 0.000000 0.000000 
#    y 0.000000 4.175980 0.000000 
#    z 0.000000 0.000000 4.069250 
# 
# 
# High freq. dielectric constant tensor:
#      x y z
#    x 1.849420 0.000000 0.000000 
#    y 0.000000 1.844310 0.000000 
#    z 0.000000 0.000000 1.842110 
# 
# From -- ./inp_files/62191.got.cif
#   From: 2010.03.12/outbox.cif.g09.slc.cpg/sg66_32_cif.got.tgz:62191.got - 2010.04.10 21:57:39.
