data_PCOD8277476
_publ_section_title
;
Structure prediction by ZEFSAII (Michael W. Deem and Ramdas Pophale) SiO2 
 PCOD8277476
Probable space group: C C C M
;
_chemical_formula_sum "Si O2"
_cell_formula_units_Z 96
_cell_length_a 19.384937
_cell_length_b 15.008109
_cell_length_c 14.506063
_cell_angle_alpha 90.000000
_cell_angle_beta 90.000000
_cell_angle_gamma 90.000000
_cell_volume 4220.267004
_symmetry_space_group_name_H-M "C C C M"
_symmetry_group_IT_number 66
_symmetry_cell_setting 'orthorhombic'
loop_
_space_group_symop_operation_xyz
x,y,z
-x,-y,z
x,-y,1/2-z
-x,y,1/2-z
-x,-y,-z
x,y,-z
-x,y,1/2+z
x,-y,1/2+z
1/2+x,1/2+y,z
1/2-x,1/2-y,z
1/2+x,1/2-y,1/2-z
1/2-x,1/2+y,1/2-z
1/2-x,1/2-y,-z
1/2+x,1/2+y,-z
1/2-x,1/2+y,1/2+z
1/2+x,1/2-y,1/2+z
loop_
_atom_site_type_symbol
_atom_site_label
_atom_site_fract_x
_atom_site_fract_y
_atom_site_fract_z
Si Si1 0.657209 0.026356 0.355493
Si Si2 0.049185 0.680441 0.395626
Si Si3 0.111543 0.202219 0.254390
Si Si4 0.607782 0.158826 0.099672
Si Si5 0.193997 0.939882 0.663024
Si Si6 0.431288 0.552680 0.103559
O O1 0.601924 0.100763 0.379880
O O2 0.732165 0.064027 0.388124
O O3 0.650256 0.000000 0.250000
O O4 0.643921 0.936170 0.410991
O O5 0.057603 0.717315 0.500000
O O6 0.059255 0.760358 0.322702
O O7 0.972715 0.643676 0.377890
O O8 0.141457 0.281048 0.319496
O O9 0.174245 0.158941 0.197483
O O10 0.075078 0.130342 0.321035
O O11 0.617109 0.206754 0.000000
O O12 0.208698 0.000000 0.750000
O O13 0.132878 0.983951 0.603637
O O14 0.500000 0.500000 0.130772
O O15 0.436987 0.592720 0.000000
#
# Coordination Sequence:
#
# PCOD8277476 Si02
#       6
#    16  16  16  16  16  16
#     4  11  22  44  67  94 138 191 231 277 344 417
#     4  11  25  41  66 104 141 180 232 284 340 413
#     4  11  23  43  68  99 141 177 223 284 348 398
#     4  11  24  41  69 105 138 178 234 287 342 407
#     4   9  23  42  66  94 132 182 231 274 338 417
#     4  10  23  42  69 101 134 176 230 284 340 409
#
# _framework density 22.747375999999999
#
# number of rings (size 3 to 8) (size 9 to 14) (size 15 to 20)
#    0.000    1.500    1.667    2.000    4.667    7.000 
#    3.000    0.833    0.000    4.500    0.000    0.000 
#    0.000    0.000    0.000    0.000    0.000    0.000 
#
# Total GULP energy -595060.974429 kJ/mol
# GULP energy per Si atom -12397.103634 kJ/mol
# Density = 2.269560 g / cm^3
# Si number density = 22.747376 Si / 1000 Ang^3
#
#
#
# Elastic Constant Matrix: (Units=GPa)
#
#
# Indices 1 2 3 4 5 6 
#
# 1 121.6838 65.3624 36.0304 0.0000 0.0000 0.0000
# 2 65.3624 132.2131 56.9461 0.0000 0.0000 0.0000
# 3 36.0304 56.9461 130.2858 0.0000 0.0000 0.0000
# 4 0.0000 0.0000 0.0000 26.6097 0.0000 0.0000
# 5 0.0000 0.0000 0.0000 0.0000 -7.3111 0.0000
# 6 0.0000 0.0000 0.0000 0.0000 0.0000 23.3043
#
#
#
# Elastic Compliance Matrix: (Units=1/GPa)
#
#
# Indices 1 2 3 4 5 6 
#
# 1 0.011263 -0.005207 -0.000839 0.000000 0.000000 0.000000
# 2 -0.005207 0.011725 -0.003685 0.000000 0.000000 0.000000
# 3 -0.000839 -0.003685 0.009518 0.000000 0.000000 0.000000
# 4 0.000000 0.000000 0.000000 0.037580 0.000000 0.000000
# 5 0.000000 0.000000 0.000000 0.000000 -0.136779 0.000000
# 6 0.000000 0.000000 0.000000 0.000000 0.000000 0.042911
#
#
# Mechanical properties :
#
#
# Convention : Reuss Voigt Hill
#
# Bulk Modulus (GPa) = 76.65898 77.87337 77.26618
# Shear Modulus (GPa) = 181847.70188 23.57683 90935.63936
#
# Velocity S-wave (km/s) = 283.04739 3.22291 200.15770
# Velocity P-wave (km/s) = 326.88664 6.93959 231.19584
#
# Compressibility (1/GPa) = 0.01304479
#
# Stress axis : x y z
#
# Youngs Moduli (GPa) = 88.78370 85.28951 105.06384
#
# Poissons Ratio (x) = 0.44409 0.08815
# Poissons Ratio (y) = 0.46229 0.38714
# Poissons Ratio (z) = 0.07449 0.31427
#
# Static dielectric constant tensor:
#      x y z
#    x 4.265940 0.000000 0.000000 
#    y 0.000000 4.148250 0.000000 
#    z 0.000000 0.000000 4.332840 
# 
# 
# High freq. dielectric constant tensor:
#      x y z
#    x 1.891000 0.000000 0.000000 
#    y 0.000000 1.890930 0.000000 
#    z 0.000000 0.000000 1.911430 
# 
# From -- ./inp_files/31173.got.cif
#   From: 2010.03.12/outbox.cif.g09.slc.cpg/sg66_16_cif.got.tgz:31173.got - 2010.04.10 21:57:39.
