data_PCOD8277738
_publ_section_title
;
Structure prediction by ZEFSAII (Michael W. Deem and Ramdas Pophale) SiO2 
 PCOD8277738
Probable space group: C C C M
;
_chemical_formula_sum "Si O2"
_cell_formula_units_Z 80
_cell_length_a 10.943341
_cell_length_b 14.869170
_cell_length_c 24.785145
_cell_angle_alpha 90.000000
_cell_angle_beta 90.000000
_cell_angle_gamma 90.000000
_cell_volume 4032.999081
_symmetry_space_group_name_H-M "C C C M"
_symmetry_group_IT_number 66
_symmetry_cell_setting 'orthorhombic'
loop_
_space_group_symop_operation_xyz
x,y,z
-x,-y,z
x,-y,1/2-z
-x,y,1/2-z
-x,-y,-z
x,y,-z
-x,y,1/2+z
x,-y,1/2+z
1/2+x,1/2+y,z
1/2-x,1/2-y,z
1/2+x,1/2-y,1/2-z
1/2-x,1/2+y,1/2-z
1/2-x,1/2-y,-z
1/2+x,1/2+y,-z
1/2-x,1/2+y,1/2+z
1/2+x,1/2-y,1/2+z
loop_
_atom_site_type_symbol
_atom_site_label
_atom_site_fract_x
_atom_site_fract_y
_atom_site_fract_z
Si Si1 0.388531 0.761516 0.398866
Si Si2 0.972609 0.854318 0.000000
Si Si3 0.805877 0.974367 0.500000
Si Si4 0.997484 0.148656 0.187970
Si Si5 0.195577 0.003689 0.688034
Si Si6 0.366399 0.966715 0.406312
O O1 0.250000 0.750000 0.379553
O O2 0.432636 0.699965 0.447667
O O3 0.478589 0.736684 0.348833
O O4 0.389523 0.862865 0.418691
O O5 0.901450 0.946340 0.000000
O O6 0.117936 0.879749 0.000000
O O7 0.722974 0.982281 0.447207
O O8 0.000000 0.179843 0.250000
O O9 0.868134 0.100058 0.175054
O O10 0.102094 0.076292 0.174960
O O11 0.236045 0.000000 0.750000
O O12 0.316524 0.988276 0.653217
O O13 0.500000 0.000000 0.413837
#
# Coordination Sequence:
#
# PCOD8277738 Si02
#       6
#    16   8   8  16  16  16
#     4  12  21  38  62  93 124 154 206 256 302 361
#     4  11  22  38  70  96 112 156 219 262 293 351
#     4  11  22  41  64  91 122 159 208 254 301 369
#     4   9  18  36  62  89 112 153 207 257 300 348
#     4   9  18  37  62  84 115 156 205 250 297 364
#     4  12  25  40  57  88 128 165 193 244 322 372
#
# _framework density 19.836354
#
# number of rings (size 3 to 8) (size 9 to 14) (size 15 to 20)
#    0.000    1.400    4.000    3.600    0.000    3.600 
#    3.600    5.000    0.000    0.000    0.000    0.000 
#    0.000    0.000    0.000    0.000    0.000    0.000 
#
# Total GULP energy -495778.456964 kJ/mol
# GULP energy per Si atom -12394.461424 kJ/mol
# Density = 1.979121 g / cm^3
# Si number density = 19.836354 Si / 1000 Ang^3
#
#
#
# Elastic Constant Matrix: (Units=GPa)
#
#
# Indices 1 2 3 4 5 6 
#
# 1 105.4745 46.0721 46.5290 0.0000 0.0000 0.0000
# 2 46.0721 51.8974 28.0437 0.0000 0.0000 0.0000
# 3 46.5290 28.0437 111.1644 0.0000 0.0000 0.0000
# 4 0.0000 0.0000 0.0000 17.7363 0.0000 0.0000
# 5 0.0000 0.0000 0.0000 0.0000 46.1440 0.0000
# 6 0.0000 0.0000 0.0000 0.0000 0.0000 31.6662
#
#
#
# Elastic Compliance Matrix: (Units=1/GPa)
#
#
# Indices 1 2 3 4 5 6 
#
# 1 0.016751 -0.012831 -0.003774 0.000000 0.000000 0.000000
# 2 -0.012831 0.032139 -0.002737 0.000000 0.000000 0.000000
# 3 -0.003774 -0.002737 0.011266 0.000000 0.000000 0.000000
# 4 0.000000 0.000000 0.000000 0.056382 0.000000 0.000000
# 5 0.000000 0.000000 0.000000 0.000000 0.021671 0.000000
# 6 0.000000 0.000000 0.000000 0.000000 0.000000 0.031579
#
#
# Mechanical properties :
#
#
# Convention : Reuss Voigt Hill
#
# Bulk Modulus (GPa) = 46.57562 56.64731 51.61147
# Shear Modulus (GPa) = 23.18799 28.96873 26.07836
#
# Velocity S-wave (km/s) = 3.42272 3.82565 3.62978
# Velocity P-wave (km/s) = 6.25707 6.93782 6.60622
#
# Compressibility (1/GPa) = 0.02147046
#
# Stress axis : x y z
#
# Youngs Moduli (GPa) = 59.69949 31.11530 88.76312
#
# Poissons Ratio (x) = 0.39924 0.33501
# Poissons Ratio (y) = 0.76600 0.24296
# Poissons Ratio (z) = 0.22532 0.08517
#
# Static dielectric constant tensor:
#      x y z
#    x 3.667740 0.000000 0.000000 
#    y 0.000000 3.495240 0.000000 
#    z 0.000000 0.000000 3.774690 
# 
# 
# High freq. dielectric constant tensor:
#      x y z
#    x 1.766020 0.000000 0.000000 
#    y 0.000000 1.761100 0.000000 
#    z 0.000000 0.000000 1.783950 
# 
# From -- ./inp_files/56635.got.cif
#   From: 2010.03.12/outbox.cif.g09.slc.cpg/sg66_29_cif.got.tgz:56635.got - 2010.04.10 21:57:39.
