data_PCOD8277740
_publ_section_title
;
Structure prediction by ZEFSAII (Michael W. Deem and Ramdas Pophale) SiO2 
 PCOD8277740
Probable space group: C C C M
;
_chemical_formula_sum "Si O2"
_cell_formula_units_Z 80
_cell_length_a 12.250433
_cell_length_b 23.224887
_cell_length_c 15.076182
_cell_angle_alpha 90.000000
_cell_angle_beta 90.000000
_cell_angle_gamma 90.000000
_cell_volume 4289.398748
_symmetry_space_group_name_H-M "C C C M"
_symmetry_group_IT_number 66
_symmetry_cell_setting 'orthorhombic'
loop_
_space_group_symop_operation_xyz
x,y,z
-x,-y,z
x,-y,1/2-z
-x,y,1/2-z
-x,-y,-z
x,y,-z
-x,y,1/2+z
x,-y,1/2+z
1/2+x,1/2+y,z
1/2-x,1/2-y,z
1/2+x,1/2-y,1/2-z
1/2-x,1/2+y,1/2-z
1/2-x,1/2-y,-z
1/2+x,1/2+y,-z
1/2-x,1/2+y,1/2+z
1/2+x,1/2-y,1/2+z
loop_
_atom_site_type_symbol
_atom_site_label
_atom_site_fract_x
_atom_site_fract_y
_atom_site_fract_z
Si Si1 0.269882 0.827586 0.899660
Si Si2 0.701859 0.846801 0.000000
Si Si3 0.431748 0.735489 0.839810
Si Si4 0.121607 0.567443 0.643870
Si Si5 0.127919 0.437775 0.350446
Si Si6 0.583991 0.727825 0.000000
O O1 0.379741 0.797679 0.861925
O O2 0.167507 0.810676 0.837309
O O3 0.289294 0.895811 0.901134
O O4 0.246468 0.806308 0.000000
O O5 0.689161 0.886244 0.912564
O O6 0.615797 0.795006 0.000000
O O7 0.819341 0.817976 0.000000
O O8 0.500000 0.738631 0.750000
O O9 0.515235 0.714387 0.913397
O O10 0.164823 0.502582 0.626488
O O11 0.136092 0.579059 0.747433
O O12 0.995282 0.571496 0.615843
#
# Coordination Sequence:
#
# PCOD8277740 Si02
#       6
#    16   8  16  16  16   8
#     4  11  22  39  62  87 115 154 198 242 289 353
#     4  11  24  33  61  81 125 149 189 232 308 335
#     4  11  24  40  61  83 119 155 196 239 294 347
#     4   9  20  37  52  89 118 151 183 246 287 356
#     4   9  20  35  59  82 119 148 196 231 298 344
#     4  11  24  41  53  91 119 155 195 244 284 359
#
# _framework density 18.650632000000002
#
# number of rings (size 3 to 8) (size 9 to 14) (size 15 to 20)
#    0.000    1.800    2.000    3.000   11.200    2.400 
#    0.000    0.000    0.000    2.400    0.000    0.000 
#    0.000    0.000    0.000    0.000    0.000    0.000 
#
# Total GULP energy -495913.605205 kJ/mol
# GULP energy per Si atom -12397.840130 kJ/mol
# Density = 1.860818 g / cm^3
# Si number density = 18.650632 Si / 1000 Ang^3
#
#
#
# Elastic Constant Matrix: (Units=GPa)
#
#
# Indices 1 2 3 4 5 6 
#
# 1 85.6023 45.5508 43.6797 0.0000 0.0000 0.0000
# 2 45.5508 130.3640 33.8788 0.0000 0.0000 0.0000
# 3 43.6797 33.8788 104.7162 0.0000 0.0000 0.0000
# 4 0.0000 0.0000 0.0000 27.7746 0.0000 0.0000
# 5 0.0000 0.0000 0.0000 0.0000 33.4637 0.0000
# 6 0.0000 0.0000 0.0000 0.0000 0.0000 28.9384
#
#
#
# Elastic Compliance Matrix: (Units=1/GPa)
#
#
# Indices 1 2 3 4 5 6 
#
# 1 0.016916 -0.004451 -0.005616 0.000000 0.000000 0.000000
# 2 -0.004451 0.009546 -0.001232 0.000000 0.000000 0.000000
# 3 -0.005616 -0.001232 0.012291 0.000000 0.000000 0.000000
# 4 0.000000 0.000000 0.000000 0.036004 0.000000 0.000000
# 5 0.000000 0.000000 0.000000 0.000000 0.029883 0.000000
# 6 0.000000 0.000000 0.000000 0.000000 0.000000 0.034556
#
#
# Mechanical properties :
#
#
# Convention : Reuss Voigt Hill
#
# Bulk Modulus (GPa) = 61.90015 62.98901 62.44458
# Shear Modulus (GPa) = 29.90791 31.20686 30.55739
#
# Velocity S-wave (km/s) = 4.00883 4.09496 4.05212
# Velocity P-wave (km/s) = 7.39520 7.49698 7.44626
#
# Compressibility (1/GPa) = 0.01615505
#
# Stress axis : x y z
#
# Youngs Moduli (GPa) = 59.11499 104.75304 81.36210
#
# Poissons Ratio (x) = 0.46628 0.45693
# Poissons Ratio (y) = 0.26313 0.10022
# Poissons Ratio (z) = 0.33199 0.12903
#
# Static dielectric constant tensor:
#      x y z
#    x 3.240680 0.000000 0.000000 
#    y 0.000000 3.426890 0.000000 
#    z 0.000000 0.000000 3.338130 
# 
# 
# High freq. dielectric constant tensor:
#      x y z
#    x 1.699620 0.000000 0.000000 
#    y 0.000000 1.728130 0.000000 
#    z 0.000000 0.000000 1.731350 
# 
# From -- ./inp_files/26721.got.cif
#   From: 2010.03.12/outbox.cif.g09.slc.cpg/sg66_14_cif.got.tgz:26721.got - 2010.04.10 21:57:39.
