data_PCOD8277676
_publ_section_title
;
Structure prediction by ZEFSAII (Michael W. Deem and Ramdas Pophale) SiO2 
 PCOD8277676
Probable space group: C C C M
;
_chemical_formula_sum "Si O2"
_cell_formula_units_Z 64
_cell_length_a 12.240133
_cell_length_b 15.739738
_cell_length_c 16.532580
_cell_angle_alpha 90.000000
_cell_angle_beta 90.000000
_cell_angle_gamma 90.000000
_cell_volume 3185.108776
_symmetry_space_group_name_H-M "C C C M"
_symmetry_group_IT_number 66
_symmetry_cell_setting 'orthorhombic'
loop_
_space_group_symop_operation_xyz
x,y,z
-x,-y,z
x,-y,1/2-z
-x,y,1/2-z
-x,-y,-z
x,y,-z
-x,y,1/2+z
x,-y,1/2+z
1/2+x,1/2+y,z
1/2-x,1/2-y,z
1/2+x,1/2-y,1/2-z
1/2-x,1/2+y,1/2-z
1/2-x,1/2-y,-z
1/2+x,1/2+y,-z
1/2-x,1/2+y,1/2+z
1/2+x,1/2-y,1/2+z
loop_
_atom_site_type_symbol
_atom_site_label
_atom_site_fract_x
_atom_site_fract_y
_atom_site_fract_z
Si Si1 0.658242 0.011908 0.093286
Si Si2 0.366502 0.290016 0.092857
Si Si3 0.116039 0.971293 0.341922
Si Si4 0.488326 0.865468 0.343868
O O1 0.602698 0.100018 0.120497
O O2 0.787642 0.016249 0.107551
O O3 0.607386 0.934612 0.144444
O O4 0.632661 0.993937 0.000000
O O5 0.250000 0.250000 0.112287
O O6 0.379177 0.369735 0.151984
O O7 0.460719 0.221534 0.110230
O O8 0.373802 0.320452 0.000000
O O9 0.127878 0.000000 0.250000
O O10 0.000000 0.000000 0.378661
O O11 0.500000 0.845454 0.250000
#
# Coordination Sequence:
#
# PCOD8277676 Si02
#       4
#    16  16  16  16
#     4  11  21  39  64  96 133 169 215 268 325 388
#     4  11  23  42  68  95 125 169 220 263 312 388
#     4  11  25  43  64  92 131 173 221 264 328 390
#     4  11  22  37  66  98 131 164 213 271 323 376
#
# _framework density 20.093506000000001
#
# number of rings (size 3 to 8) (size 9 to 14) (size 15 to 20)
#    0.000    1.000    2.500    6.750    3.500    2.000 
#    0.000    1.250    0.000    3.000    0.000    0.000 
#    0.000    0.000    0.000    0.000    0.000    0.000 
#
# Total GULP energy -396964.159859 kJ/mol
# GULP energy per Si atom -12405.129996 kJ/mol
# Density = 2.004777 g / cm^3
# Si number density = 20.093506 Si / 1000 Ang^3
#
#
#
# Elastic Constant Matrix: (Units=GPa)
#
#
# Indices 1 2 3 4 5 6 
#
# 1 146.5775 56.5534 28.0502 0.0000 0.0000 0.0000
# 2 56.5534 144.6352 46.6592 0.0000 0.0000 0.0000
# 3 28.0502 46.6592 81.7029 0.0000 0.0000 0.0000
# 4 0.0000 0.0000 0.0000 31.7610 0.0000 0.0000
# 5 0.0000 0.0000 0.0000 0.0000 22.8533 0.0000
# 6 0.0000 0.0000 0.0000 0.0000 0.0000 34.6737
#
#
#
# Elastic Compliance Matrix: (Units=1/GPa)
#
#
# Indices 1 2 3 4 5 6 
#
# 1 0.008129 -0.002793 -0.001196 0.000000 0.000000 0.000000
# 2 -0.002793 0.009435 -0.004429 0.000000 0.000000 0.000000
# 3 -0.001196 -0.004429 0.015180 0.000000 0.000000 0.000000
# 4 0.000000 0.000000 0.000000 0.031485 0.000000 0.000000
# 5 0.000000 0.000000 0.000000 0.000000 0.043757 0.000000
# 6 0.000000 0.000000 0.000000 0.000000 0.000000 0.028840
#
#
# Mechanical properties :
#
#
# Convention : Reuss Voigt Hill
#
# Bulk Modulus (GPa) = 62.86395 70.60458 66.73426
# Shear Modulus (GPa) = 31.45369 33.96776 32.71073
#
# Velocity S-wave (km/s) = 3.96076 4.11601 4.03913
# Velocity P-wave (km/s) = 7.22983 7.60283 7.41868
#
# Compressibility (1/GPa) = 0.01590737
#
# Stress axis : x y z
#
# Youngs Moduli (GPa) = 123.02193 105.99121 65.87806
#
# Poissons Ratio (x) = 0.29599 0.07879
# Poissons Ratio (y) = 0.34354 0.29179
# Poissons Ratio (z) = 0.14713 0.46947
#
# Static dielectric constant tensor:
#      x y z
#    x 3.927950 0.000000 0.000000 
#    y 0.000000 3.626500 0.000000 
#    z 0.000000 0.000000 3.597670 
# 
# 
# High freq. dielectric constant tensor:
#      x y z
#    x 1.790090 0.000000 0.000000 
#    y 0.000000 1.775370 0.000000 
#    z 0.000000 0.000000 1.789570 
# 
# From -- ./inp_files/25767.got.cif
#   From: 2010.03.12/outbox.cif.g09.slc.cpg/sg66_13_cif.got.tgz:25767.got - 2010.04.10 21:57:39.
