data_PCOD8277055
_publ_section_title
;
Structure prediction by ZEFSAII (Michael W. Deem and Ramdas Pophale) SiO2 
 PCOD8277055
Probable space group: C C C M
;
_chemical_formula_sum "Si O2"
_cell_formula_units_Z 56
_cell_length_a 5.108225
_cell_length_b 34.153797
_cell_length_c 13.309912
_cell_angle_alpha 90.000000
_cell_angle_beta 90.000000
_cell_angle_gamma 90.000000
_cell_volume 2322.117520
_symmetry_space_group_name_H-M "C C C M"
_symmetry_group_IT_number 66
_symmetry_cell_setting 'orthorhombic'
loop_
_space_group_symop_operation_xyz
x,y,z
-x,-y,z
x,-y,1/2-z
-x,y,1/2-z
-x,-y,-z
x,y,-z
-x,y,1/2+z
x,-y,1/2+z
1/2+x,1/2+y,z
1/2-x,1/2-y,z
1/2+x,1/2-y,1/2-z
1/2-x,1/2+y,1/2-z
1/2-x,1/2-y,-z
1/2+x,1/2+y,-z
1/2-x,1/2+y,1/2+z
1/2+x,1/2-y,1/2+z
loop_
_atom_site_type_symbol
_atom_site_label
_atom_site_fract_x
_atom_site_fract_y
_atom_site_fract_z
Si Si1 0.154092 0.342565 0.618036
Si Si2 0.000000 0.273917 0.750000
Si Si3 0.148993 0.109916 0.119066
Si Si4 0.252588 0.976158 0.618822
O O1 0.196877 0.338042 0.500000
O O2 0.381374 0.370993 0.662931
O O3 0.144700 0.299346 0.664083
O O4 0.879678 0.361150 0.648870
O O5 0.750000 0.250000 0.705031
O O6 0.216860 0.067297 0.165026
O O7 0.118513 0.105466 0.000000
O O8 0.285727 0.972768 0.500000
O O9 0.500000 0.000000 0.663599
O O10 0.000000 0.000000 0.651419
#
# Coordination Sequence:
#
# PCOD8277055 Si02
#       4
#    16   8  16  16
#     4  10  21  38  59  83 113 149 188 230 280 342
#     4  12  26  42  62  88 113 140 183 236 296 360
#     4   9  17  31  52  79 113 153 193 229 272 332
#     4   9  15  23  40  72 112 148 185 230 270 307
#
# _framework density 24.115921
#
# number of rings (size 3 to 8) (size 9 to 14) (size 15 to 20)
#    0.000    2.286    0.000    3.429    0.000    8.000 
#    0.000    0.000    0.000    0.000    0.000   15.000 
#    0.000    0.000    0.000    0.000    0.000    0.286 
#
# Total GULP energy -347164.730034 kJ/mol
# GULP energy per Si atom -12398.740358 kJ/mol
# Density = 2.406103 g / cm^3
# Si number density = 24.115921 Si / 1000 Ang^3
#
#
#
# Elastic Constant Matrix: (Units=GPa)
#
#
# Indices 1 2 3 4 5 6 
#
# 1 198.3768 87.0844 23.4816 0.0000 0.0000 0.0000
# 2 87.0844 181.4916 24.8804 0.0000 0.0000 0.0000
# 3 23.4816 24.8804 26.1316 0.0000 0.0000 0.0000
# 4 0.0000 0.0000 0.0000 20.2215 0.0000 0.0000
# 5 0.0000 0.0000 0.0000 0.0000 321.6516 0.0000
# 6 0.0000 0.0000 0.0000 0.0000 0.0000 77.6916
#
#
#
# Elastic Compliance Matrix: (Units=1/GPa)
#
#
# Indices 1 2 3 4 5 6 
#
# 1 0.006635 -0.002721 -0.003371 0.000000 0.000000 0.000000
# 2 -0.002721 0.007453 -0.004651 0.000000 0.000000 0.000000
# 3 -0.003371 -0.004651 0.045725 0.000000 0.000000 0.000000
# 4 0.000000 0.000000 0.000000 0.049452 0.000000 0.000000
# 5 0.000000 0.000000 0.000000 0.000000 0.003109 0.000000
# 6 0.000000 0.000000 0.000000 0.000000 0.000000 0.012871
#
#
# Mechanical properties :
#
#
# Convention : Reuss Voigt Hill
#
# Bulk Modulus (GPa) = 26.09143 75.21033 50.65088
# Shear Modulus (GPa) = 31.34651 101.94984 66.64817
#
# Velocity S-wave (km/s) = 3.60922 6.50897 5.26275
# Velocity P-wave (km/s) = 5.31143 9.36716 7.61429
#
# Compressibility (1/GPa) = 0.03832676
#
# Stress axis : x y z
#
# Youngs Moduli (GPa) = 150.72685 134.16931 21.86982
#
# Poissons Ratio (x) = 0.36512 0.07372
# Poissons Ratio (y) = 0.41018 0.10172
# Poissons Ratio (z) = 0.50805 0.62403
#
# Static dielectric constant tensor:
#      x y z
#    x 4.433580 0.000000 0.000000 
#    y 0.000000 4.456400 0.000000 
#    z 0.000000 0.000000 3.962700 
# 
# 
# High freq. dielectric constant tensor:
#      x y z
#    x 1.970700 0.000000 0.000000 
#    y 0.000000 1.960690 0.000000 
#    z 0.000000 0.000000 1.956580 
# 
# From -- ./inp_files/22471.got.cif
#   From: 2010.03.12/outbox.cif.g09.slc.cpg/sg66_12_cif.got.tgz:22471.got - 2010.04.10 21:57:39.
