data_PCOD8277001
_publ_section_title
;
Structure prediction by ZEFSAII (Michael W. Deem and Ramdas Pophale) SiO2 
 PCOD8277001
Probable space group: C C C M
;
_chemical_formula_sum "Si O2"
_cell_formula_units_Z 64
_cell_length_a 12.485439
_cell_length_b 15.948827
_cell_length_c 15.970619
_cell_angle_alpha 90.000000
_cell_angle_beta 90.000000
_cell_angle_gamma 90.000000
_cell_volume 3180.199123
_symmetry_space_group_name_H-M "C C C M"
_symmetry_group_IT_number 66
_symmetry_cell_setting 'orthorhombic'
loop_
_space_group_symop_operation_xyz
x,y,z
-x,-y,z
x,-y,1/2-z
-x,y,1/2-z
-x,-y,-z
x,y,-z
-x,y,1/2+z
x,-y,1/2+z
1/2+x,1/2+y,z
1/2-x,1/2-y,z
1/2+x,1/2-y,1/2-z
1/2-x,1/2+y,1/2-z
1/2-x,1/2-y,-z
1/2+x,1/2+y,-z
1/2-x,1/2+y,1/2+z
1/2+x,1/2-y,1/2+z
loop_
_atom_site_type_symbol
_atom_site_label
_atom_site_fract_x
_atom_site_fract_y
_atom_site_fract_z
Si Si1 0.835066 0.489916 0.849500
Si Si2 0.007975 0.365000 0.151060
Si Si3 0.608246 0.468224 0.344332
Si Si4 0.363972 0.287721 0.096353
O O1 0.830127 0.500000 0.750000
O O2 0.902606 0.569556 0.880909
O O3 0.715240 0.493556 0.888066
O O4 0.892463 0.402938 0.877518
O O5 0.037624 0.276900 0.108931
O O6 0.000000 0.353494 0.250000
O O7 0.500000 0.500000 0.391112
O O8 0.603831 0.500000 0.250000
O O9 0.612827 0.367695 0.345986
O O10 0.250000 0.250000 0.125647
O O11 0.359021 0.315715 0.000000
#
# Coordination Sequence:
#
# PCOD8277001 Si02
#       4
#    16  16  16  16
#     4   8  15  32  54  86 114 143 190 246 288 327
#     4   9  17  32  60  84 110 148 197 247 285 329
#     4  10  21  37  57  85 117 155 200 236 288 350
#     4  11  23  39  58  87 123 157 193 238 296 359
#
# _framework density 20.124525999999999
#
# number of rings (size 3 to 8) (size 9 to 14) (size 15 to 20)
#    0.000    2.500    2.500    1.500    3.500    0.500 
#    0.000    5.000    0.000    1.500    0.000    0.000 
#    0.000    0.000    0.000    0.000    0.000    0.000 
#
# Total GULP energy -396502.620144 kJ/mol
# GULP energy per Si atom -12390.706879 kJ/mol
# Density = 2.007872 g / cm^3
# Si number density = 20.124526 Si / 1000 Ang^3
#
#
#
# Elastic Constant Matrix: (Units=GPa)
#
#
# Indices 1 2 3 4 5 6 
#
# 1 194.0484 79.4783 10.9195 0.0000 0.0000 0.0000
# 2 79.4783 160.0270 31.4551 0.0000 0.0000 0.0000
# 3 10.9195 31.4551 37.0508 0.0000 0.0000 0.0000
# 4 0.0000 0.0000 0.0000 10.6294 0.0000 0.0000
# 5 0.0000 0.0000 0.0000 0.0000 6.5769 0.0000
# 6 0.0000 0.0000 0.0000 0.0000 0.0000 40.1457
#
#
#
# Elastic Compliance Matrix: (Units=1/GPa)
#
#
# Indices 1 2 3 4 5 6 
#
# 1 0.006499 -0.003423 0.000990 0.000000 0.000000 0.000000
# 2 -0.003423 0.009303 -0.006889 0.000000 0.000000 0.000000
# 3 0.000990 -0.006889 0.032547 0.000000 0.000000 0.000000
# 4 0.000000 0.000000 0.000000 0.094078 0.000000 0.000000
# 5 0.000000 0.000000 0.000000 0.000000 0.152048 0.000000
# 6 0.000000 0.000000 0.000000 0.000000 0.000000 0.024909
#
#
# Mechanical properties :
#
#
# Convention : Reuss Voigt Hill
#
# Bulk Modulus (GPa) = 33.66319 70.53688 52.10004
# Shear Modulus (GPa) = 14.37070 29.42195 21.89633
#
# Velocity S-wave (km/s) = 2.67514 3.82775 3.30213
# Velocity P-wave (km/s) = 5.12890 7.39337 6.36268
#
# Compressibility (1/GPa) = 0.02970604
#
# Stress axis : x y z
#
# Youngs Moduli (GPa) = 153.85856 107.49236 30.72482
#
# Poissons Ratio (x) = 0.36791 -0.03042
# Poissons Ratio (y) = 0.52660 0.21167
# Poissons Ratio (z) = -0.15235 0.74054
#
# Static dielectric constant tensor:
#      x y z
#    x 4.753350 0.000000 0.000000 
#    y 0.000000 3.585030 0.000000 
#    z 0.000000 0.000000 3.100540 
# 
# 
# High freq. dielectric constant tensor:
#      x y z
#    x 1.798940 0.000000 0.000000 
#    y 0.000000 1.776230 0.000000 
#    z 0.000000 0.000000 1.738260 
# 
# From -- ./inp_files/38010.got.cif
#   From: 2010.03.12/outbox.cif.g09.slc.cpg/sg66_20_cif.got.tgz:38010.got - 2010.04.10 21:57:39.
