data_PCOD8277022
_publ_section_title
;
Structure prediction by ZEFSAII (Michael W. Deem and Ramdas Pophale) SiO2 
 PCOD8277022
Probable space group: C C C M
;
_chemical_formula_sum "Si O2"
_cell_formula_units_Z 72
_cell_length_a 9.613240
_cell_length_b 23.209598
_cell_length_c 13.967280
_cell_angle_alpha 90.000000
_cell_angle_beta 90.000000
_cell_angle_gamma 90.000000
_cell_volume 3116.371634
_symmetry_space_group_name_H-M "C C C M"
_symmetry_group_IT_number 66
_symmetry_cell_setting 'orthorhombic'
loop_
_space_group_symop_operation_xyz
x,y,z
-x,-y,z
x,-y,1/2-z
-x,y,1/2-z
-x,-y,-z
x,y,-z
-x,y,1/2+z
x,-y,1/2+z
1/2+x,1/2+y,z
1/2-x,1/2-y,z
1/2+x,1/2-y,1/2-z
1/2-x,1/2+y,1/2-z
1/2-x,1/2-y,-z
1/2+x,1/2+y,-z
1/2-x,1/2+y,1/2+z
1/2+x,1/2-y,1/2+z
loop_
_atom_site_type_symbol
_atom_site_label
_atom_site_fract_x
_atom_site_fract_y
_atom_site_fract_z
Si Si1 0.229308 0.124038 0.735320
Si Si2 0.107008 0.216800 0.394849
Si Si3 0.358698 0.027009 0.605520
Si Si4 0.895783 0.949619 0.105906
Si Si5 0.500000 0.801293 0.250000
O O1 0.128664 0.157866 0.663200
O O2 0.294786 0.070552 0.680547
O O3 0.125455 0.103673 0.820729
O O4 0.360548 0.162044 0.769026
O O5 0.047270 0.201754 0.500000
O O6 0.250000 0.250000 0.404791
O O7 0.001753 0.260063 0.342412
O O8 0.382748 0.055923 0.500000
O O9 0.500000 0.000000 0.646750
O O10 0.257288 0.973810 0.593977
O O11 0.949061 0.928806 0.000000
O O12 0.000000 0.000000 0.144948
#
# Coordination Sequence:
#
# PCOD8277022 Si02
#       5
#    16  16  16  16   8
#     4  11  21  37  64  90 120 166 211 254 312 372
#     4   9  20  39  61  88 120 154 201 258 313 371
#     4  10  21  37  60  93 128 161 204 258 312 371
#     4  10  23  41  60  89 130 171 208 249 306 377
#     4  10  22  38  61  92 119 154 210 268 318 362
#
# _framework density 23.103791000000001
#
# number of rings (size 3 to 8) (size 9 to 14) (size 15 to 20)
#    0.000    2.000    0.000    2.667    0.000    6.222 
#    0.000    3.333    0.000    6.000    0.000    0.000 
#    0.000    0.000    0.000    0.000    0.000    0.000 
#
# Total GULP energy -446199.684793 kJ/mol
# GULP energy per Si atom -12394.435689 kJ/mol
# Density = 2.305121 g / cm^3
# Si number density = 23.103791 Si / 1000 Ang^3
#
#
#
# Elastic Constant Matrix: (Units=GPa)
#
#
# Indices 1 2 3 4 5 6 
#
# 1 78.1422 28.2361 42.6033 0.0000 0.0000 0.0000
# 2 28.2361 104.0314 82.7715 0.0000 0.0000 0.0000
# 3 42.6033 82.7715 182.4615 0.0000 0.0000 0.0000
# 4 0.0000 0.0000 0.0000 30.6782 0.0000 0.0000
# 5 0.0000 0.0000 0.0000 0.0000 17.7479 0.0000
# 6 0.0000 0.0000 0.0000 0.0000 0.0000 41.4475
#
#
#
# Elastic Compliance Matrix: (Units=1/GPa)
#
#
# Indices 1 2 3 4 5 6 
#
# 1 0.014925 -0.002000 -0.002578 0.000000 0.000000 0.000000
# 2 -0.002000 0.015309 -0.006478 0.000000 0.000000 0.000000
# 3 -0.002578 -0.006478 0.009021 0.000000 0.000000 0.000000
# 4 0.000000 0.000000 0.000000 0.032596 0.000000 0.000000
# 5 0.000000 0.000000 0.000000 0.000000 0.056345 0.000000
# 6 0.000000 0.000000 0.000000 0.000000 0.000000 0.024127
#
#
# Mechanical properties :
#
#
# Convention : Reuss Voigt Hill
#
# Bulk Modulus (GPa) = 58.32800 74.65077 66.48938
# Shear Modulus (GPa) = 27.75465 32.04299 29.89882
#
# Velocity S-wave (km/s) = 3.46974 3.72817 3.60128
# Velocity P-wave (km/s) = 6.43063 7.13537 6.79215
#
# Compressibility (1/GPa) = 0.01714443
#
# Stress axis : x y z
#
# Youngs Moduli (GPa) = 67.00062 65.31905 110.85139
#
# Poissons Ratio (x) = 0.13065 0.28573
# Poissons Ratio (y) = 0.13401 0.71809
# Poissons Ratio (z) = 0.17270 0.42313
#
# Static dielectric constant tensor:
#      x y z
#    x 4.157150 0.000000 0.000000 
#    y 0.000000 4.097860 0.000000 
#    z 0.000000 0.000000 4.887090 
# 
# 
# High freq. dielectric constant tensor:
#      x y z
#    x 1.917690 0.000000 0.000000 
#    y 0.000000 1.903870 0.000000 
#    z 0.000000 0.000000 1.923520 
# 
# From -- ./inp_files/26309.got.cif
#   From: 2010.03.12/outbox.cif.g09.slc.cpg/sg66_14_cif.got.tgz:26309.got - 2010.04.10 21:57:39.
