data_PCOD8277089
_publ_section_title
;
Structure prediction by ZEFSAII (Michael W. Deem and Ramdas Pophale) SiO2 
 PCOD8277089
Probable space group: C C C M
;
_chemical_formula_sum "Si O2"
_cell_formula_units_Z 80
_cell_length_a 19.283441
_cell_length_b 9.929397
_cell_length_c 21.381319
_cell_angle_alpha 90.000000
_cell_angle_beta 90.000000
_cell_angle_gamma 90.000000
_cell_volume 4093.944036
_symmetry_space_group_name_H-M "C C C M"
_symmetry_group_IT_number 66
_symmetry_cell_setting 'orthorhombic'
loop_
_space_group_symop_operation_xyz
x,y,z
-x,-y,z
x,-y,1/2-z
-x,y,1/2-z
-x,-y,-z
x,y,-z
-x,y,1/2+z
x,-y,1/2+z
1/2+x,1/2+y,z
1/2-x,1/2-y,z
1/2+x,1/2-y,1/2-z
1/2-x,1/2+y,1/2-z
1/2-x,1/2-y,-z
1/2+x,1/2+y,-z
1/2-x,1/2+y,1/2+z
1/2+x,1/2-y,1/2+z
loop_
_atom_site_type_symbol
_atom_site_label
_atom_site_fract_x
_atom_site_fract_y
_atom_site_fract_z
Si Si1 0.255027 0.102723 0.340015
Si Si2 0.548955 0.630344 0.070864
Si Si3 0.213620 0.117569 0.928924
Si Si4 0.356365 0.500000 0.750000
Si Si5 0.132089 0.500000 0.250000
Si Si6 0.557690 0.742348 0.199148
O O1 0.250000 0.250000 0.369369
O O2 0.254443 0.003222 0.397598
O O3 0.188710 0.087533 0.296563
O O4 0.323956 0.084193 0.299488
O O5 0.500000 0.500000 0.079887
O O6 0.631047 0.602652 0.079254
O O7 0.529702 0.735600 0.126763
O O8 0.536348 0.688285 0.000000
O O9 0.250000 0.250000 0.898407
O O10 0.236193 0.111915 0.000000
O O11 0.395318 0.390091 0.792256
O O12 0.088799 0.390336 0.210631
O O13 0.500000 0.718910 0.250000
#
# Coordination Sequence:
#
# PCOD8277089 Si02
#       6
#    16  16  16   8   8  16
#     4  11  22  36  59  85 123 157 198 256 312 369
#     4  10  21  38  63  95 125 162 216 269 317 381
#     4  10  21  38  62  90 122 164 211 259 316 385
#     4  11  21  36  56  90 109 153 206 246 302 363
#     4  11  25  40  56  92 127 159 200 262 318 385
#     4  12  23  39  63  89 125 162 206 260 319 379
#
# _framework density 19.541059000000001
#
# number of rings (size 3 to 8) (size 9 to 14) (size 15 to 20)
#    0.000    1.200    4.000    3.000    0.000    0.400 
#    0.000    0.000    0.000    3.600    0.000    0.000 
#    0.000    0.000    0.000    0.000    0.000    0.000 
#
# Total GULP energy -495616.070861 kJ/mol
# GULP energy per Si atom -12390.401772 kJ/mol
# Density = 1.949658 g / cm^3
# Si number density = 19.541059 Si / 1000 Ang^3
#
#
#
# Elastic Constant Matrix: (Units=GPa)
#
#
# Indices 1 2 3 4 5 6 
#
# 1 78.9908 40.4082 38.0232 0.0000 0.0000 0.0000
# 2 40.4082 154.4556 67.2404 0.0000 0.0000 0.0000
# 3 38.0232 67.2404 144.0076 0.0000 0.0000 0.0000
# 4 0.0000 0.0000 0.0000 -16.1959 0.0000 0.0000
# 5 0.0000 0.0000 0.0000 0.0000 -43.8747 0.0000
# 6 0.0000 0.0000 0.0000 0.0000 0.0000 -158.6382
#
#
#
# Elastic Compliance Matrix: (Units=1/GPa)
#
#
# Indices 1 2 3 4 5 6 
#
# 1 0.015437 -0.002842 -0.002749 0.000000 0.000000 0.000000
# 2 -0.002842 0.008649 -0.003288 0.000000 0.000000 0.000000
# 3 -0.002749 -0.003288 0.009205 0.000000 0.000000 0.000000
# 4 0.000000 0.000000 0.000000 -0.061744 0.000000 0.000000
# 5 0.000000 0.000000 0.000000 0.000000 -0.022792 0.000000
# 6 0.000000 0.000000 0.000000 0.000000 0.000000 -0.006304
#
#
# Mechanical properties :
#
#
# Convention : Reuss Voigt Hill
#
# Bulk Modulus (GPa) = 64.37772 74.31083 69.34428
# Shear Modulus (GPa) = -144.45430 -28.28962 -86.37196
#
# Velocity S-wave (km/s) = -8.60720 -3.80900 -6.65554
# Velocity P-wave (km/s) = 8.10939 4.33198 4.84749
#
# Compressibility (1/GPa) = 0.01553332
#
# Stress axis : x y z
#
# Youngs Moduli (GPa) = 64.78084 115.61635 108.63373
#
# Poissons Ratio (x) = 0.32856 0.29863
# Poissons Ratio (y) = 0.18409 0.35721
# Poissons Ratio (z) = 0.17808 0.38017
#
# Static dielectric constant tensor:
#      x y z
#    x 3.829470 0.000000 0.000000 
#    y 0.000000 3.287840 0.000000 
#    z 0.000000 0.000000 3.931100 
# 
# 
# High freq. dielectric constant tensor:
#      x y z
#    x 1.758280 0.000000 0.000000 
#    y 0.000000 1.753420 0.000000 
#    z 0.000000 0.000000 1.774740 
# 
# From -- ./inp_files/59330.got.cif
#   From: 2010.03.12/outbox.cif.g09.slc.cpg/sg66_30_cif.got.tgz:59330.got - 2010.04.10 21:57:39.
