data_PCOD8277948
_publ_section_title
;
Structure prediction by ZEFSAII (Michael W. Deem and Ramdas Pophale) SiO2 
 PCOD8277948
Probable space group: C M M A
;
_chemical_formula_sum "Si O2"
_cell_formula_units_Z 80
_cell_length_a 18.653505
_cell_length_b 8.666024
_cell_length_c 25.917315
_cell_angle_alpha 90.000000
_cell_angle_beta 90.000000
_cell_angle_gamma 90.000000
_cell_volume 4189.578600
_symmetry_space_group_name_H-M "C M M A"
_symmetry_group_IT_number 67
_symmetry_cell_setting 'orthorhombic'
loop_
_space_group_symop_operation_xyz
x,y,z
-x,1/2-y,z
x,-y,-z
-x,1/2+y,-z
-x,-y,-z
x,1/2+y,-z
-x,y,z
x,1/2-y,z
1/2+x,1/2+y,z
1/2-x,-y,z
1/2+x,1/2-y,-z
1/2-x,y,-z
1/2-x,1/2-y,-z
1/2+x,y,-z
1/2-x,1/2+y,z
1/2+x,-y,z
loop_
_atom_site_type_symbol
_atom_site_label
_atom_site_fract_x
_atom_site_fract_y
_atom_site_fract_z
Si Si1 0.829975 0.931929 0.051331
Si Si2 0.172575 0.427704 0.151863
Si Si3 0.825911 0.431553 0.445154
Si Si4 0.171139 0.070483 0.265963
Si Si5 0.916368 0.928749 0.356595
O O1 0.828915 0.750000 0.047463
O O2 0.750000 0.000000 0.053657
O O3 0.869328 0.986236 0.104619
O O4 0.868765 0.000000 0.000000
O O5 0.179469 0.250000 0.136383
O O6 0.250000 0.500000 0.157832
O O7 0.137009 0.448544 0.208292
O O8 0.849673 0.500000 0.500000
O O9 0.817958 0.250000 0.450679
O O10 0.750000 0.500000 0.426726
O O11 0.885747 0.472215 0.403591
O O12 0.175645 0.250000 0.281388
O O13 0.250000 0.000000 0.270728
O O14 0.118116 0.980314 0.303068
O O15 0.899624 0.750000 0.366604
O O16 0.000000 0.962838 0.353019
#
# Coordination Sequence:
#
# PCOD8277948 Si02
#       5
#    16  16  16  16  16
#     4  10  16  22  33  51  80 118 157 198 246 301
#     4   9  16  26  40  61  88 120 160 204 250 301
#     4  11  22  39  63  88 115 144 178 217 257 306
#     4  10  20  34  54  77 103 136 175 219 264 313
#     4  11  24  40  57  79 109 143 179 219 263 311
#
# _framework density 19.094999999999999
#
# number of rings (size 3 to 8) (size 9 to 14) (size 15 to 20)
#    0.000    1.800    0.000    8.400    0.000    4.400 
#    0.000    0.000    0.000    0.000    0.000    0.000 
#    0.000    0.800    0.000    2.600    0.000   10.400 
#
# Total GULP energy -495823.434185 kJ/mol
# GULP energy per Si atom -12395.585855 kJ/mol
# Density = 1.905154 g / cm^3
# Si number density = 19.095000 Si / 1000 Ang^3
#
#
#
# Elastic Constant Matrix: (Units=GPa)
#
#
# Indices 1 2 3 4 5 6 
#
# 1 56.9825 37.8517 49.2597 0.0000 0.0000 0.0000
# 2 37.8517 156.2417 61.4389 0.0000 0.0000 0.0000
# 3 49.2597 61.4389 149.0707 0.0000 0.0000 0.0000
# 4 0.0000 0.0000 0.0000 40.3954 0.0000 0.0000
# 5 0.0000 0.0000 0.0000 0.0000 -0.4656 0.0000
# 6 0.0000 0.0000 0.0000 0.0000 0.0000 18.9963
#
#
#
# Elastic Compliance Matrix: (Units=1/GPa)
#
#
# Indices 1 2 3 4 5 6 
#
# 1 0.026074 -0.003495 -0.007176 0.000000 0.000000 0.000000
# 2 -0.003495 0.008107 -0.002186 0.000000 0.000000 0.000000
# 3 -0.007176 -0.002186 0.009980 0.000000 0.000000 0.000000
# 4 0.000000 0.000000 0.000000 0.024755 0.000000 0.000000
# 5 0.000000 0.000000 0.000000 0.000000 -2.147798 0.000000
# 6 0.000000 0.000000 0.000000 0.000000 0.000000 0.052642
#
#
# Mechanical properties :
#
#
# Convention : Reuss Voigt Hill
#
# Bulk Modulus (GPa) = 54.20825 73.26617 63.73721
# Shear Modulus (GPa) = -2.50705 26.03485 11.76390
#
# Velocity S-wave (km/s) = -1.14708 3.69648 2.48477
# Velocity P-wave (km/s) = 5.16681 7.52803 6.45628
#
# Compressibility (1/GPa) = 0.01844738
#
# Stress axis : x y z
#
# Youngs Moduli (GPa) = 38.35239 123.35360 100.19656
#
# Poissons Ratio (x) = 0.43114 0.71896
# Poissons Ratio (y) = 0.13405 0.21905
# Poissons Ratio (z) = 0.27520 0.26968
#
# Static dielectric constant tensor:
#      x y z
#    x 2.988840 0.000000 0.000000 
#    y 0.000000 3.699440 0.000000 
#    z 0.000000 0.000000 4.580250 
# 
# 
# High freq. dielectric constant tensor:
#      x y z
#    x 1.670700 0.000000 0.000000 
#    y 0.000000 1.765830 0.000000 
#    z 0.000000 0.000000 1.776530 
# 
# From -- ./inp_files/43289.got.cif
#   From: 2010.03.12/outbox.cif.g09.slc.cpg/sg67_22_cif.got.tgz:43289.got - 2010.04.10 22:41:39.
