data_PCOD8277804
_publ_section_title
;
Structure prediction by ZEFSAII (Michael W. Deem and Ramdas Pophale) SiO2 
 PCOD8277804
Probable space group: C C C M
;
_chemical_formula_sum "Si O2"
_cell_formula_units_Z 88
_cell_length_a 24.073029
_cell_length_b 9.520585
_cell_length_c 18.993808
_cell_angle_alpha 90.000000
_cell_angle_beta 90.000000
_cell_angle_gamma 90.000000
_cell_volume 4353.177917
_symmetry_space_group_name_H-M "C C C M"
_symmetry_group_IT_number 66
_symmetry_cell_setting 'orthorhombic'
loop_
_space_group_symop_operation_xyz
x,y,z
-x,-y,z
x,-y,1/2-z
-x,y,1/2-z
-x,-y,-z
x,y,-z
-x,y,1/2+z
x,-y,1/2+z
1/2+x,1/2+y,z
1/2-x,1/2-y,z
1/2+x,1/2-y,1/2-z
1/2-x,1/2+y,1/2-z
1/2-x,1/2-y,-z
1/2+x,1/2+y,-z
1/2-x,1/2+y,1/2+z
1/2+x,1/2-y,1/2+z
loop_
_atom_site_type_symbol
_atom_site_label
_atom_site_fract_x
_atom_site_fract_y
_atom_site_fract_z
Si Si1 0.844140 0.731822 0.684083
Si Si2 0.329526 0.998376 0.078803
Si Si3 0.560761 0.657789 0.225119
Si Si4 0.385304 0.709667 0.420894
Si Si5 0.205458 0.017568 0.876714
Si Si6 0.250000 0.250000 0.223390
O O1 0.859415 0.622589 0.623277
O O2 0.897392 0.743251 0.733302
O O3 0.793965 0.663841 0.729058
O O4 0.821667 0.878548 0.654450
O O5 0.352112 0.149970 0.102242
O O6 0.262722 0.989080 0.083035
O O7 0.347747 0.966736 0.000000
O O8 0.572364 0.500000 0.250000
O O9 0.500000 0.705574 0.250000
O O10 0.569054 0.674619 0.140061
O O11 0.412299 0.724773 0.500000
O O12 0.340441 0.584790 0.428141
O O13 0.214780 0.133825 0.816993
#
# Coordination Sequence:
#
# PCOD8277804 Si02
#       6
#    16  16  16  16  16   8
#     4  12  23  37  61  94 129 165 210 268 312 368
#     4  11  24  39  58  93 136 174 205 252 321 386
#     4  11  23  45  70  94 121 160 219 271 312 369
#     4  11  23  41  65  93 128 166 210 256 312 380
#     4  12  20  36  60  91 129 171 211 250 308 379
#     4  12  20  32  62  90 124 162 210 262 310 376
#
# _framework density 20.215115999999998
#
# number of rings (size 3 to 8) (size 9 to 14) (size 15 to 20)
#    0.000    0.545    7.273    1.091    0.000    5.818 
#    0.000    4.545    0.000    2.182    0.000    0.000 
#    0.000    0.000    0.000    0.000    0.000    0.000 
#
# Total GULP energy -545459.063813 kJ/mol
# GULP energy per Si atom -12396.796905 kJ/mol
# Density = 2.016911 g / cm^3
# Si number density = 20.215116 Si / 1000 Ang^3
#
#
#
# Elastic Constant Matrix: (Units=GPa)
#
#
# Indices 1 2 3 4 5 6 
#
# 1 103.5080 16.4396 52.4734 0.0000 0.0000 0.0000
# 2 16.4396 84.8597 51.0302 0.0000 0.0000 0.0000
# 3 52.4734 51.0302 135.8222 0.0000 0.0000 0.0000
# 4 0.0000 0.0000 0.0000 11.5738 0.0000 0.0000
# 5 0.0000 0.0000 0.0000 0.0000 23.3879 0.0000
# 6 0.0000 0.0000 0.0000 0.0000 0.0000 22.3615
#
#
#
# Elastic Compliance Matrix: (Units=1/GPa)
#
#
# Indices 1 2 3 4 5 6 
#
# 1 0.012038 0.000600 -0.004876 0.000000 0.000000 0.000000
# 2 0.000600 0.015254 -0.005963 0.000000 0.000000 0.000000
# 3 -0.004876 -0.005963 0.011487 0.000000 0.000000 0.000000
# 4 0.000000 0.000000 0.000000 0.086402 0.000000 0.000000
# 5 0.000000 0.000000 0.000000 0.000000 0.042757 0.000000
# 6 0.000000 0.000000 0.000000 0.000000 0.000000 0.044720
#
#
# Mechanical properties :
#
#
# Convention : Reuss Voigt Hill
#
# Bulk Modulus (GPa) = 54.64331 62.67515 58.65923
# Shear Modulus (GPa) = 20.89998 25.08108 22.99053
#
# Velocity S-wave (km/s) = 3.21889 3.52619 3.37604
# Velocity P-wave (km/s) = 6.39567 6.90291 6.65412
#
# Compressibility (1/GPa) = 0.01830050
#
# Stress axis : x y z
#
# Youngs Moduli (GPa) = 83.07214 65.55804 87.05669
#
# Poissons Ratio (x) = -0.03935 0.42450
# Poissons Ratio (y) = -0.04986 0.51911
# Poissons Ratio (z) = 0.40507 0.39092
#
# Static dielectric constant tensor:
#      x y z
#    x 3.520780 0.000000 0.000000 
#    y 0.000000 3.644920 0.000000 
#    z 0.000000 0.000000 3.835400 
# 
# 
# High freq. dielectric constant tensor:
#      x y z
#    x 1.758270 0.000000 0.000000 
#    y 0.000000 1.791420 0.000000 
#    z 0.000000 0.000000 1.801380 
# 
# From -- ./inp_files/52422.got.cif
#   From: 2010.03.12/outbox.cif.g09.slc.cpg/sg66_27_cif.got.tgz:52422.got - 2010.04.10 21:57:39.
