data_PCOD8277277
_publ_section_title
;
Structure prediction by ZEFSAII (Michael W. Deem and Ramdas Pophale) SiO2 
 PCOD8277277
Probable space group: C C C M
;
_chemical_formula_sum "Si O2"
_cell_formula_units_Z 128
_cell_length_a 26.668900
_cell_length_b 10.433382
_cell_length_c 24.821499
_cell_angle_alpha 90.000000
_cell_angle_beta 90.000000
_cell_angle_gamma 90.000000
_cell_volume 6906.503195
_symmetry_space_group_name_H-M "C C C M"
_symmetry_group_IT_number 66
_symmetry_cell_setting 'orthorhombic'
loop_
_space_group_symop_operation_xyz
x,y,z
-x,-y,z
x,-y,1/2-z
-x,y,1/2-z
-x,-y,-z
x,y,-z
-x,y,1/2+z
x,-y,1/2+z
1/2+x,1/2+y,z
1/2-x,1/2-y,z
1/2+x,1/2-y,1/2-z
1/2-x,1/2+y,1/2-z
1/2-x,1/2-y,-z
1/2+x,1/2+y,-z
1/2-x,1/2+y,1/2+z
1/2+x,1/2-y,1/2+z
loop_
_atom_site_type_symbol
_atom_site_label
_atom_site_fract_x
_atom_site_fract_y
_atom_site_fract_z
Si Si1 0.488958 0.191303 0.059545
Si Si2 0.308912 0.736134 0.693599
Si Si3 0.307792 0.259470 0.318104
Si Si4 0.080163 0.450037 0.440010
Si Si5 0.330538 0.991579 0.362290
Si Si6 0.253881 0.599206 0.438694
Si Si7 0.344985 0.506261 0.379530
Si Si8 0.554351 0.559182 0.062724
O O1 0.545072 0.165538 0.084309
O O2 0.454089 0.297855 0.087418
O O3 0.457955 0.064435 0.054334
O O4 0.500567 0.247369 0.000000
O O5 0.250000 0.750000 0.679469
O O6 0.316340 0.705507 0.756143
O O7 0.334660 0.615996 0.664592
O O8 0.336240 0.868132 0.676346
O O9 0.250000 0.250000 0.333525
O O10 0.330517 0.118957 0.326767
O O11 0.333452 0.366302 0.355482
O O12 0.101208 0.415752 0.500000
O O13 0.122952 0.495773 0.401268
O O14 0.281398 0.980383 0.398960
O O15 0.237365 0.574863 0.500000
O O16 0.250000 0.750000 0.424954
O O17 0.309714 0.544092 0.430092
O O18 0.402008 0.498517 0.400539
O O19 0.500000 0.500000 0.072551
O O20 0.571151 0.553491 0.000000
#
# Coordination Sequence:
#
# PCOD8277277 Si02
#       8
#    16  16  16  16  16  16  16  16
#     4   8  16  33  52  78 108 145 194 229 269 325
#     4  11  21  40  62  85 112 152 202 249 285 345
#     4  11  24  38  59  84 120 150 197 250 291 346
#     4   9  18  31  54  83 115 147 181 232 281 346
#     4  12  20  36  56  89 115 151 191 231 301 349
#     4  11  22  36  55  87 126 157 191 230 279 364
#     4  12  21  40  60  88 114 158 201 238 302 348
#     4  10  22  37  57  84 117 156 198 239 284 354
#
# _framework density 18.533256999999999
#
# number of rings (size 3 to 8) (size 9 to 14) (size 15 to 20)
#    0.000    1.500    3.750    3.000    1.750    2.000 
#    0.000    2.500    0.000    1.500    0.000    3.500 
#    0.000    0.000    0.000    0.000    0.000    0.000 
#
# Total GULP energy -792948.838698 kJ/mol
# GULP energy per Si atom -12389.825605 kJ/mol
# Density = 1.849107 g / cm^3
# Si number density = 18.533257 Si / 1000 Ang^3
#
#
#
# Elastic Constant Matrix: (Units=GPa)
#
#
# Indices 1 2 3 4 5 6 
#
# 1 110.0141 27.2432 40.1679 0.0000 0.0000 0.0000
# 2 27.2432 89.4276 32.1393 0.0000 0.0000 0.0000
# 3 40.1679 32.1393 73.4656 0.0000 0.0000 0.0000
# 4 0.0000 0.0000 0.0000 16.9678 0.0000 0.0000
# 5 0.0000 0.0000 0.0000 0.0000 63.9751 0.0000
# 6 0.0000 0.0000 0.0000 0.0000 0.0000 27.2574
#
#
#
# Elastic Compliance Matrix: (Units=1/GPa)
#
#
# Indices 1 2 3 4 5 6 
#
# 1 0.011519 -0.001478 -0.005652 0.000000 0.000000 0.000000
# 2 -0.001478 0.013458 -0.005079 0.000000 0.000000 0.000000
# 3 -0.005652 -0.005079 0.018924 0.000000 0.000000 0.000000
# 4 0.000000 0.000000 0.000000 0.058935 0.000000 0.000000
# 5 0.000000 0.000000 0.000000 0.000000 0.015631 0.000000
# 6 0.000000 0.000000 0.000000 0.000000 0.000000 0.036687
#
#
# Mechanical properties :
#
#
# Convention : Reuss Voigt Hill
#
# Bulk Modulus (GPa) = 51.32663 52.44535 51.88599
# Shear Modulus (GPa) = 26.87201 33.19720 30.03460
#
# Velocity S-wave (km/s) = 3.81193 4.23688 4.03001
# Velocity P-wave (km/s) = 6.86505 7.23147 7.05064
#
# Compressibility (1/GPa) = 0.01948306
#
# Stress axis : x y z
#
# Youngs Moduli (GPa) = 86.81108 74.30532 52.84308
#
# Poissons Ratio (x) = 0.10983 0.29865
# Poissons Ratio (y) = 0.12832 0.26841
# Poissons Ratio (z) = 0.49062 0.37742
#
# Static dielectric constant tensor:
#      x y z
#    x 3.178720 0.000000 0.000000 
#    y 0.000000 3.997690 0.000000 
#    z 0.000000 0.000000 3.282970 
# 
# 
# High freq. dielectric constant tensor:
#      x y z
#    x 1.711920 0.000000 0.000000 
#    y 0.000000 1.732400 0.000000 
#    z 0.000000 0.000000 1.698220 
# 
# From -- ./inp_files/59953.got.cif
#   From: 2010.03.12/outbox.cif.g09.slc.cpg/sg66_30_cif.got.tgz:59953.got - 2010.04.10 21:57:39.
