data_PCOD8277716
_publ_section_title
;
Structure prediction by ZEFSAII (Michael W. Deem and Ramdas Pophale) SiO2 
 PCOD8277716
Probable space group: C C C M
;
_chemical_formula_sum "Si O2"
_cell_formula_units_Z 88
_cell_length_a 24.513597
_cell_length_b 14.384822
_cell_length_c 12.342981
_cell_angle_alpha 90.000000
_cell_angle_beta 90.000000
_cell_angle_gamma 90.000000
_cell_volume 4352.427992
_symmetry_space_group_name_H-M "C C C M"
_symmetry_group_IT_number 66
_symmetry_cell_setting 'orthorhombic'
loop_
_space_group_symop_operation_xyz
x,y,z
-x,-y,z
x,-y,1/2-z
-x,y,1/2-z
-x,-y,-z
x,y,-z
-x,y,1/2+z
x,-y,1/2+z
1/2+x,1/2+y,z
1/2-x,1/2-y,z
1/2+x,1/2-y,1/2-z
1/2-x,1/2+y,1/2-z
1/2-x,1/2-y,-z
1/2+x,1/2+y,-z
1/2-x,1/2+y,1/2+z
1/2+x,1/2-y,1/2+z
loop_
_atom_site_type_symbol
_atom_site_label
_atom_site_fract_x
_atom_site_fract_y
_atom_site_fract_z
Si Si1 0.135086 0.227608 0.872022
Si Si2 0.936393 0.896775 0.727109
Si Si3 0.330943 0.169824 0.500000
Si Si4 0.377858 0.368858 0.500000
Si Si5 0.775775 0.916626 0.190846
Si Si6 0.765310 0.039082 0.000000
Si Si7 0.338534 0.895794 0.228552
O O1 0.086674 0.171943 0.817084
O O2 0.190562 0.172087 0.845971
O O3 0.136307 0.329840 0.821048
O O4 0.125732 0.234942 0.000000
O O5 0.917071 0.870837 0.605118
O O6 0.000000 0.888995 0.750000
O O7 0.915579 0.000000 0.750000
O O8 0.338240 0.280041 0.500000
O O9 0.267553 0.136202 0.500000
O O10 0.359924 0.132246 0.390906
O O11 0.331751 0.450119 0.500000
O O12 0.727355 0.882613 0.269826
O O13 0.811173 0.000000 0.250000
O O14 0.745715 0.971264 0.095265
O O15 0.358667 0.000000 0.250000
#
# Coordination Sequence:
#
# PCOD8277716 Si02
#       7
#    16  16   8   8  16   8  16
#     4  12  25  40  64  93 129 169 222 270 327 392
#     4  11  27  46  70  99 131 168 213 275 346 399
#     4  12  23  42  60  94 137 179 223 264 312 393
#     4  12  25  43  70  97 133 180 231 270 324 402
#     4  11  22  36  58  92 133 173 213 256 318 386
#     4  12  21  36  61  94 139 181 215 264 316 392
#     4  11  25  40  61  89 132 179 222 265 322 382
#
# _framework density 20.218599000000001
#
# number of rings (size 3 to 8) (size 9 to 14) (size 15 to 20)
#    0.000    0.545    6.364    3.545    5.091    2.909 
#    0.000    0.000    0.000    0.545    0.000    2.545 
#    0.000    0.000    0.000    0.000    0.000    0.000 
#
# Total GULP energy -545163.178659 kJ/mol
# GULP energy per Si atom -12390.072242 kJ/mol
# Density = 2.017258 g / cm^3
# Si number density = 20.218599 Si / 1000 Ang^3
#
#
#
# Elastic Constant Matrix: (Units=GPa)
#
#
# Indices 1 2 3 4 5 6 
#
# 1 56.5060 35.6694 22.6999 0.0000 0.0000 0.0000
# 2 35.6694 141.7518 63.1213 0.0000 0.0000 0.0000
# 3 22.6999 63.1213 179.6045 0.0000 0.0000 0.0000
# 4 0.0000 0.0000 0.0000 34.2399 0.0000 0.0000
# 5 0.0000 0.0000 0.0000 0.0000 16.6427 0.0000
# 6 0.0000 0.0000 0.0000 0.0000 0.0000 31.5590
#
#
#
# Elastic Compliance Matrix: (Units=1/GPa)
#
#
# Indices 1 2 3 4 5 6 
#
# 1 0.021176 -0.004904 -0.000953 0.000000 0.000000 0.000000
# 2 -0.004904 0.009499 -0.002719 0.000000 0.000000 0.000000
# 3 -0.000953 -0.002719 0.006644 0.000000 0.000000 0.000000
# 4 0.000000 0.000000 0.000000 0.029206 0.000000 0.000000
# 5 0.000000 0.000000 0.000000 0.000000 0.060087 0.000000
# 6 0.000000 0.000000 0.000000 0.000000 0.000000 0.031687
#
#
# Mechanical properties :
#
#
# Convention : Reuss Voigt Hill
#
# Bulk Modulus (GPa) = 49.58505 68.98260 59.28383
# Shear Modulus (GPa) = 27.44666 33.57975 30.51320
#
# Velocity S-wave (km/s) = 3.68842 4.07975 3.88901
# Velocity P-wave (km/s) = 6.53582 7.50899 7.03924
#
# Compressibility (1/GPa) = 0.02016737
#
# Stress axis : x y z
#
# Youngs Moduli (GPa) = 47.22367 105.27149 150.51934
#
# Poissons Ratio (x) = 0.51628 0.14341
# Poissons Ratio (y) = 0.23160 0.40921
# Poissons Ratio (z) = 0.04499 0.28619
#
# Static dielectric constant tensor:
#      x y z
#    x 3.219130 0.000000 0.000000 
#    y 0.000000 3.820900 0.000000 
#    z 0.000000 0.000000 4.146210 
# 
# 
# High freq. dielectric constant tensor:
#      x y z
#    x 1.737690 0.000000 0.000000 
#    y 0.000000 1.800020 0.000000 
#    z 0.000000 0.000000 1.819840 
# 
# From -- ./inp_files/19743.got.cif
#   From: 2010.03.12/outbox.cif.g09.slc.cpg/sg66_10_cif.got.tgz:19743.got - 2010.04.10 21:57:39.
