data_PCOD8277914
_publ_section_title
;
Structure prediction by ZEFSAII (Michael W. Deem and Ramdas Pophale) SiO2 
 PCOD8277914
Probable space group: C C C M
;
_chemical_formula_sum "Si O2"
_cell_formula_units_Z 64
_cell_length_a 12.104242
_cell_length_b 24.842362
_cell_length_c 9.805895
_cell_angle_alpha 90.000000
_cell_angle_beta 90.000000
_cell_angle_gamma 90.000000
_cell_volume 2948.612637
_symmetry_space_group_name_H-M "C C C M"
_symmetry_group_IT_number 66
_symmetry_cell_setting 'orthorhombic'
loop_
_space_group_symop_operation_xyz
x,y,z
-x,-y,z
x,-y,1/2-z
-x,y,1/2-z
-x,-y,-z
x,y,-z
-x,y,1/2+z
x,-y,1/2+z
1/2+x,1/2+y,z
1/2-x,1/2-y,z
1/2+x,1/2-y,1/2-z
1/2-x,1/2+y,1/2-z
1/2-x,1/2-y,-z
1/2+x,1/2+y,-z
1/2-x,1/2+y,1/2+z
1/2+x,1/2-y,1/2+z
loop_
_atom_site_type_symbol
_atom_site_label
_atom_site_fract_x
_atom_site_fract_y
_atom_site_fract_z
Si Si1 0.279079 0.547519 0.160363
Si Si2 0.766996 0.313269 0.500000
Si Si3 0.626569 0.771573 0.500000
Si Si4 0.000000 0.906705 0.750000
Si Si5 0.516369 0.334273 0.500000
Si Si6 0.378757 0.856874 0.230864
O O1 0.221399 0.500000 0.250000
O O2 0.391470 0.556255 0.248442
O O3 0.201282 0.599533 0.163750
O O4 0.299054 0.532241 0.000000
O O5 0.750000 0.250000 0.500000
O O6 0.647057 0.338492 0.500000
O O7 0.832603 0.334301 0.370973
O O8 0.750000 0.750000 0.500000
O O9 0.534525 0.725048 0.500000
O O10 0.607129 0.805782 0.365750
O O11 0.026581 0.867192 0.873052
O O12 0.500000 0.883061 0.250000
#
# Coordination Sequence:
#
# PCOD8277914 Si02
#       6
#    16   8   8   8   8  16
#     4  12  28  49  76 105 142 194 245 310 375 428
#     4  12  26  42  70 107 141 192 246 294 354 436
#     4  12  26  44  70 105 150 201 239 289 364 435
#     4  12  25  48  72 110 148 182 237 302 368 444
#     4  12  26  42  73 105 148 192 239 292 362 446
#     4  12  26  48  69 103 148 189 245 304 359 432
#
# _framework density 21.705121999999999
#
# number of rings (size 3 to 8) (size 9 to 14) (size 15 to 20)
#    0.000    0.000    5.000    4.875    8.750    1.500 
#    0.000    1.250    0.000    0.000    0.000    0.000 
#    0.000    0.000    0.000    0.000    0.000    0.000 
#
# Total GULP energy -396812.404198 kJ/mol
# GULP energy per Si atom -12400.387631 kJ/mol
# Density = 2.165572 g / cm^3
# Si number density = 21.705122 Si / 1000 Ang^3
#
#
#
# Elastic Constant Matrix: (Units=GPa)
#
#
# Indices 1 2 3 4 5 6 
#
# 1 131.7507 19.2788 23.4812 0.0000 0.0000 0.0000
# 2 19.2788 102.6894 54.3720 0.0000 0.0000 0.0000
# 3 23.4812 54.3720 160.5496 0.0000 0.0000 0.0000
# 4 0.0000 0.0000 0.0000 77.0863 0.0000 0.0000
# 5 0.0000 0.0000 0.0000 0.0000 94.6556 0.0000
# 6 0.0000 0.0000 0.0000 0.0000 0.0000 32.3110
#
#
#
# Elastic Compliance Matrix: (Units=1/GPa)
#
#
# Indices 1 2 3 4 5 6 
#
# 1 0.007887 -0.001060 -0.000795 0.000000 0.000000 0.000000
# 2 -0.001060 0.012008 -0.003912 0.000000 0.000000 0.000000
# 3 -0.000795 -0.003912 0.007670 0.000000 0.000000 0.000000
# 4 0.000000 0.000000 0.000000 0.012972 0.000000 0.000000
# 5 0.000000 0.000000 0.000000 0.000000 0.010565 0.000000
# 6 0.000000 0.000000 0.000000 0.000000 0.000000 0.030949
#
#
# Mechanical properties :
#
#
# Convention : Reuss Voigt Hill
#
# Bulk Modulus (GPa) = 62.37440 65.47263 63.92352
# Shear Modulus (GPa) = 50.54209 60.66775 55.60492
#
# Velocity S-wave (km/s) = 4.83077 5.29260 5.06695
# Velocity P-wave (km/s) = 7.74046 8.22064 7.98416
#
# Compressibility (1/GPa) = 0.01603222
#
# Stress axis : x y z
#
# Youngs Moduli (GPa) = 126.79413 83.27587 130.38560
#
# Poissons Ratio (x) = 0.08827 0.10359
# Poissons Ratio (y) = 0.13440 0.51003
# Poissons Ratio (z) = 0.10074 0.32575
#
# Static dielectric constant tensor:
#      x y z
#    x 4.899050 0.000000 0.000000 
#    y 0.000000 3.951510 0.000000 
#    z 0.000000 0.000000 4.034600 
# 
# 
# High freq. dielectric constant tensor:
#      x y z
#    x 1.864450 0.000000 0.000000 
#    y 0.000000 1.858810 0.000000 
#    z 0.000000 0.000000 1.871210 
# 
# From -- ./inp_files/4045.got.cif
#   From: 2010.03.12/outbox.cif.g09.slc.cpg/sg66_3_cif.got.tgz:4045.got - 2010.04.10 21:57:39.
