data_PCOD8277162
_publ_section_title
;
Structure prediction by ZEFSAII (Michael W. Deem and Ramdas Pophale) SiO2 
 PCOD8277162
Probable space group: C C C M
;
_chemical_formula_sum "Si O2"
_cell_formula_units_Z 48
_cell_length_a 4.924145
_cell_length_b 25.734785
_cell_length_c 16.531110
_cell_angle_alpha 90.000000
_cell_angle_beta 90.000000
_cell_angle_gamma 90.000000
_cell_volume 2094.852228
_symmetry_space_group_name_H-M "C C C M"
_symmetry_group_IT_number 66
_symmetry_cell_setting 'orthorhombic'
loop_
_space_group_symop_operation_xyz
x,y,z
-x,-y,z
x,-y,1/2-z
-x,y,1/2-z
-x,-y,-z
x,y,-z
-x,y,1/2+z
x,-y,1/2+z
1/2+x,1/2+y,z
1/2-x,1/2-y,z
1/2+x,1/2-y,1/2-z
1/2-x,1/2+y,1/2-z
1/2-x,1/2-y,-z
1/2+x,1/2+y,-z
1/2-x,1/2+y,1/2+z
1/2+x,1/2-y,1/2+z
loop_
_atom_site_type_symbol
_atom_site_label
_atom_site_fract_x
_atom_site_fract_y
_atom_site_fract_z
Si Si1 0.760101 0.964638 0.908577
Si Si2 0.613769 0.857278 0.839084
Si Si3 0.874418 0.804302 0.592745
O O1 0.724816 0.915247 0.851133
O O2 0.500000 0.000000 0.907906
O O3 0.828992 0.945617 0.000000
O O4 0.000000 0.000000 0.872854
O O5 0.500000 0.848789 0.750000
O O6 0.362150 0.847514 0.899692
O O7 0.861380 0.817540 0.854135
O O8 0.969439 0.800723 0.500000
O O9 0.750000 0.750000 0.623939
#
# Coordination Sequence:
#
# PCOD8277162 Si02
#       3
#    16  16  16
#     4  10  21  39  65  94 127 172 221 267 319 388
#     4  12  25  42  66 101 139 174 218 279 346 400
#     4  11  24  44  70  97 131 179 229 274 327 401
#
# _framework density 22.913311
#
# number of rings (size 3 to 8) (size 9 to 14) (size 15 to 20)
#    0.000    1.000    0.000    7.000    0.000    8.667 
#    0.000    1.667    0.000    0.000    0.000    0.000 
#    0.000    0.000    0.000    0.000    0.000    0.000 
#
# Total GULP energy -297750.583093 kJ/mol
# GULP energy per Si atom -12406.274296 kJ/mol
# Density = 2.286116 g / cm^3
# Si number density = 22.913311 Si / 1000 Ang^3
#
#
#
# Elastic Constant Matrix: (Units=GPa)
#
#
# Indices 1 2 3 4 5 6 
#
# 1 178.4289 62.4534 67.3364 0.0000 0.0000 0.0000
# 2 62.4534 123.2402 73.4547 0.0000 0.0000 0.0000
# 3 67.3364 73.4547 107.0573 0.0000 0.0000 0.0000
# 4 0.0000 0.0000 0.0000 25.4852 0.0000 0.0000
# 5 0.0000 0.0000 0.0000 0.0000 41.9042 0.0000
# 6 0.0000 0.0000 0.0000 0.0000 0.0000 51.7752
#
#
#
# Elastic Compliance Matrix: (Units=1/GPa)
#
#
# Indices 1 2 3 4 5 6 
#
# 1 0.007550 -0.001685 -0.003593 0.000000 0.000000 0.000000
# 2 -0.001685 0.014104 -0.008618 0.000000 0.000000 0.000000
# 3 -0.003593 -0.008618 0.017514 0.000000 0.000000 0.000000
# 4 0.000000 0.000000 0.000000 0.039238 0.000000 0.000000
# 5 0.000000 0.000000 0.000000 0.000000 0.023864 0.000000
# 6 0.000000 0.000000 0.000000 0.000000 0.000000 0.019314
#
#
# Mechanical properties :
#
#
# Convention : Reuss Voigt Hill
#
# Bulk Modulus (GPa) = 87.89433 90.57950 89.23691
# Shear Modulus (GPa) = 32.64394 37.53170 35.08782
#
# Velocity S-wave (km/s) = 3.77858 4.05160 3.91747
# Velocity P-wave (km/s) = 7.58153 7.84248 7.71311
#
# Compressibility (1/GPa) = 0.01137730
#
# Stress axis : x y z
#
# Youngs Moduli (GPa) = 132.44977 70.90001 57.09858
#
# Poissons Ratio (x) = 0.11944 0.20515
# Poissons Ratio (y) = 0.22312 0.49207
# Poissons Ratio (z) = 0.47589 0.61100
#
# Static dielectric constant tensor:
#      x y z
#    x 4.368120 0.000000 0.000000 
#    y 0.000000 4.096240 0.000000 
#    z 0.000000 0.000000 3.901640 
# 
# 
# High freq. dielectric constant tensor:
#      x y z
#    x 1.929040 0.000000 0.000000 
#    y 0.000000 1.910510 0.000000 
#    z 0.000000 0.000000 1.886690 
# 
# From -- ./inp_files/22299.got.cif
#   From: 2010.03.12/outbox.cif.g09.slc.cpg/sg66_12_cif.got.tgz:22299.got - 2010.04.10 21:57:39.
