data_PCOD8277868
_publ_section_title
;
Structure prediction by ZEFSAII (Michael W. Deem and Ramdas Pophale) SiO2 
 PCOD8277868
Probable space group: C C C M
;
_chemical_formula_sum "Si O2"
_cell_formula_units_Z 72
_cell_length_a 9.301412
_cell_length_b 13.011276
_cell_length_c 26.028240
_cell_angle_alpha 90.000000
_cell_angle_beta 90.000000
_cell_angle_gamma 90.000000
_cell_volume 3150.021903
_symmetry_space_group_name_H-M "C C C M"
_symmetry_group_IT_number 66
_symmetry_cell_setting 'orthorhombic'
loop_
_space_group_symop_operation_xyz
x,y,z
-x,-y,z
x,-y,1/2-z
-x,y,1/2-z
-x,-y,-z
x,y,-z
-x,y,1/2+z
x,-y,1/2+z
1/2+x,1/2+y,z
1/2-x,1/2-y,z
1/2+x,1/2-y,1/2-z
1/2-x,1/2+y,1/2-z
1/2-x,1/2-y,-z
1/2+x,1/2+y,-z
1/2-x,1/2+y,1/2+z
1/2+x,1/2-y,1/2+z
loop_
_atom_site_type_symbol
_atom_site_label
_atom_site_fract_x
_atom_site_fract_y
_atom_site_fract_z
Si Si1 0.421672 0.245661 0.500000
Si Si2 0.316266 0.634637 0.500000
Si Si3 0.500000 0.500000 0.827908
Si Si4 0.405237 0.712247 0.795478
Si Si5 0.234683 0.466463 0.894685
Si Si6 0.456506 0.845472 0.108843
O O1 0.250000 0.250000 0.500000
O O2 0.507889 0.354676 0.500000
O O3 0.478567 0.188195 0.449662
O O4 0.250000 0.750000 0.500000
O O5 0.265529 0.567010 0.547586
O O6 0.424413 0.588571 0.794072
O O7 0.376752 0.445458 0.861786
O O8 0.500000 0.761410 0.750000
O O9 0.250000 0.750000 0.779317
O O10 0.440883 0.750414 0.852840
O O11 0.188905 0.586154 0.890271
O O12 0.099561 0.403524 0.872666
#
# Coordination Sequence:
#
# PCOD8277868 Si02
#       6
#     8   8   8  16  16  16
#     4  12  25  39  72 103 145 196 248 303 370 452
#     4  12  23  42  65 106 150 205 256 295 383 451
#     4  12  27  47  78 110 146 187 264 314 385 464
#     4  12  28  52  77 111 148 198 253 321 391 456
#     4  11  25  43  70 107 149 197 248 309 370 465
#     4  11  24  49  72 105 152 196 246 307 388 452
#
# _framework density 22.856983
#
# number of rings (size 3 to 8) (size 9 to 14) (size 15 to 20)
#    0.000    0.444    4.444    3.000    6.222    2.222 
#    0.000    2.222    0.000    0.000    0.000    0.000 
#    0.000    0.000    0.000    0.000    0.000    0.000 
#
# Total GULP energy -446352.017129 kJ/mol
# GULP energy per Si atom -12398.667142 kJ/mol
# Density = 2.280496 g / cm^3
# Si number density = 22.856983 Si / 1000 Ang^3
#
#
#
# Elastic Constant Matrix: (Units=GPa)
#
#
# Indices 1 2 3 4 5 6 
#
# 1 166.5522 45.4658 42.2625 0.0000 0.0000 0.0000
# 2 45.4658 116.9271 39.8427 0.0000 0.0000 0.0000
# 3 42.2625 39.8427 115.6180 0.0000 0.0000 0.0000
# 4 0.0000 0.0000 0.0000 -14.8726 0.0000 0.0000
# 5 0.0000 0.0000 0.0000 0.0000 19.9893 0.0000
# 6 0.0000 0.0000 0.0000 0.0000 0.0000 39.1956
#
#
#
# Elastic Compliance Matrix: (Units=1/GPa)
#
#
# Indices 1 2 3 4 5 6 
#
# 1 0.007050 -0.002111 -0.001849 0.000000 0.000000 0.000000
# 2 -0.002111 0.010322 -0.002785 0.000000 0.000000 0.000000
# 3 -0.001849 -0.002785 0.010285 0.000000 0.000000 0.000000
# 4 0.000000 0.000000 0.000000 -0.067238 0.000000 0.000000
# 5 0.000000 0.000000 0.000000 0.000000 0.050027 0.000000
# 6 0.000000 0.000000 0.000000 0.000000 0.000000 0.025513
#
#
# Mechanical properties :
#
#
# Convention : Reuss Voigt Hill
#
# Bulk Modulus (GPa) = 70.59532 72.69325 71.64429
# Shear Modulus (GPa) = 92.29762 26.96423 59.63092
#
# Velocity S-wave (km/s) = 6.36146 3.43839 5.11325
# Velocity P-wave (km/s) = 9.21468 6.90188 8.14083
#
# Compressibility (1/GPa) = 0.01416524
#
# Stress axis : x y z
#
# Youngs Moduli (GPa) = 141.85036 96.87740 97.22795
#
# Poissons Ratio (x) = 0.20451 0.17982
# Poissons Ratio (y) = 0.29945 0.27083
# Poissons Ratio (z) = 0.26234 0.26985
#
# Static dielectric constant tensor:
#      x y z
#    x 4.469550 0.000000 0.000000 
#    y 0.000000 4.076540 0.000000 
#    z 0.000000 0.000000 3.986490 
# 
# 
# High freq. dielectric constant tensor:
#      x y z
#    x 1.924860 0.000000 0.000000 
#    y 0.000000 1.896450 0.000000 
#    z 0.000000 0.000000 1.899860 
# 
# From -- ./inp_files/62232.got.cif
#   From: 2010.03.12/outbox.cif.g09.slc.cpg/sg66_32_cif.got.tgz:62232.got - 2010.04.10 21:57:39.
