data_PCOD8277312
_publ_section_title
;
Structure prediction by ZEFSAII (Michael W. Deem and Ramdas Pophale) SiO2 
 PCOD8277312
Probable space group: C C C M
;
_chemical_formula_sum "Si O2"
_cell_formula_units_Z 72
_cell_length_a 9.550136
_cell_length_b 26.905091
_cell_length_c 14.043919
_cell_angle_alpha 90.000000
_cell_angle_beta 90.000000
_cell_angle_gamma 90.000000
_cell_volume 3608.546762
_symmetry_space_group_name_H-M "C C C M"
_symmetry_group_IT_number 66
_symmetry_cell_setting 'orthorhombic'
loop_
_space_group_symop_operation_xyz
x,y,z
-x,-y,z
x,-y,1/2-z
-x,y,1/2-z
-x,-y,-z
x,y,-z
-x,y,1/2+z
x,-y,1/2+z
1/2+x,1/2+y,z
1/2-x,1/2-y,z
1/2+x,1/2-y,1/2-z
1/2-x,1/2+y,1/2-z
1/2-x,1/2-y,-z
1/2+x,1/2+y,-z
1/2-x,1/2+y,1/2+z
1/2+x,1/2-y,1/2+z
loop_
_atom_site_type_symbol
_atom_site_label
_atom_site_fract_x
_atom_site_fract_y
_atom_site_fract_z
Si Si1 0.722882 0.192284 0.235058
Si Si2 0.520445 0.845667 0.888612
Si Si3 0.904165 0.543435 0.111910
Si Si4 0.590035 0.547494 0.112382
Si Si5 0.000000 0.870088 0.750000
O O1 0.750000 0.250000 0.223489
O O2 0.628024 0.174343 0.147025
O O3 0.647033 0.182177 0.335598
O O4 0.868635 0.164345 0.229204
O O5 0.525803 0.904004 0.863419
O O6 0.538256 0.835283 0.000000
O O7 0.746978 0.540407 0.153247
O O8 0.000000 0.500000 0.157787
O O9 0.893995 0.535012 0.000000
O O10 0.500000 0.500000 0.143130
O O11 0.522153 0.596328 0.157168
O O12 0.589131 0.555884 0.000000
#
# Coordination Sequence:
#
# PCOD8277312 Si02
#       5
#    16  16  16  16   8
#     4  11  25  44  64  92 127 161 209 272 313 359
#     4  10  22  44  68  92 123 165 212 252 310 377
#     4   9  18  36  63  91 121 160 204 250 299 364
#     4  10  22  39  60  92 130 164 202 250 306 372
#     4  12  23  40  64  92 128 166 205 252 324 376
#
# _framework density 19.952629999999999
#
# number of rings (size 3 to 8) (size 9 to 14) (size 15 to 20)
#    0.000    1.778    2.222    1.667    3.111    1.778 
#    0.000    4.444    0.000    0.000    0.000    0.000 
#    0.000    0.000    0.000    0.000    0.000    0.000 
#
# Total GULP energy -446530.864512 kJ/mol
# GULP energy per Si atom -12403.635125 kJ/mol
# Density = 1.990722 g / cm^3
# Si number density = 19.952630 Si / 1000 Ang^3
#
#
#
# Elastic Constant Matrix: (Units=GPa)
#
#
# Indices 1 2 3 4 5 6 
#
# 1 186.2918 102.9494 50.5674 0.0000 0.0000 0.0000
# 2 102.9494 180.9700 43.4404 0.0000 0.0000 0.0000
# 3 50.5674 43.4404 74.3062 0.0000 0.0000 0.0000
# 4 0.0000 0.0000 0.0000 29.6315 0.0000 0.0000
# 5 0.0000 0.0000 0.0000 0.0000 24.1873 0.0000
# 6 0.0000 0.0000 0.0000 0.0000 0.0000 -15.8107
#
#
#
# Elastic Compliance Matrix: (Units=1/GPa)
#
#
# Indices 1 2 3 4 5 6 
#
# 1 0.008528 -0.004023 -0.003452 0.000000 0.000000 0.000000
# 2 -0.004023 0.008325 -0.002130 0.000000 0.000000 0.000000
# 3 -0.003452 -0.002130 0.017052 0.000000 0.000000 0.000000
# 4 0.000000 0.000000 0.000000 0.033748 0.000000 0.000000
# 5 0.000000 0.000000 0.000000 0.000000 0.041344 0.000000
# 6 0.000000 0.000000 0.000000 0.000000 0.000000 -0.063248
#
#
# Mechanical properties :
#
#
# Convention : Reuss Voigt Hill
#
# Bulk Modulus (GPa) = 68.04087 92.83137 80.43612
# Shear Modulus (GPa) = 71.57607 23.90902 47.74254
#
# Velocity S-wave (km/s) = 5.99591 3.46539 4.89693
# Velocity P-wave (km/s) = 9.06144 7.91447 8.50731
#
# Compressibility (1/GPa) = 0.01469705
#
# Stress axis : x y z
#
# Youngs Moduli (GPa) = 117.26142 120.11411 58.64487
#
# Poissons Ratio (x) = 0.48319 0.20243
# Poissons Ratio (y) = 0.47172 0.12489
# Poissons Ratio (z) = 0.40476 0.25579
#
# Static dielectric constant tensor:
#      x y z
#    x 3.932610 0.000000 0.000000 
#    y 0.000000 3.620740 0.000000 
#    z 0.000000 0.000000 3.503830 
# 
# 
# High freq. dielectric constant tensor:
#      x y z
#    x 1.793420 0.000000 0.000000 
#    y 0.000000 1.784180 0.000000 
#    z 0.000000 0.000000 1.775510 
# 
# From -- ./inp_files/24495.got.cif
#   From: 2010.03.12/outbox.cif.g09.slc.cpg/sg66_13_cif.got.tgz:24495.got - 2010.04.10 21:57:39.
