data_PCOD8277176
_publ_section_title
;
Structure prediction by ZEFSAII (Michael W. Deem and Ramdas Pophale) SiO2 
 PCOD8277176
Probable space group: C C C M
;
_chemical_formula_sum "Si O2"
_cell_formula_units_Z 88
_cell_length_a 17.385843
_cell_length_b 9.011461
_cell_length_c 26.778777
_cell_angle_alpha 90.000000
_cell_angle_beta 90.000000
_cell_angle_gamma 90.000000
_cell_volume 4195.480430
_symmetry_space_group_name_H-M "C C C M"
_symmetry_group_IT_number 66
_symmetry_cell_setting 'orthorhombic'
loop_
_space_group_symop_operation_xyz
x,y,z
-x,-y,z
x,-y,1/2-z
-x,y,1/2-z
-x,-y,-z
x,y,-z
-x,y,1/2+z
x,-y,1/2+z
1/2+x,1/2+y,z
1/2-x,1/2-y,z
1/2+x,1/2-y,1/2-z
1/2-x,1/2+y,1/2-z
1/2-x,1/2-y,-z
1/2+x,1/2+y,-z
1/2-x,1/2+y,1/2+z
1/2+x,1/2-y,1/2+z
loop_
_atom_site_type_symbol
_atom_site_label
_atom_site_fract_x
_atom_site_fract_y
_atom_site_fract_z
Si Si1 0.485573 0.166967 0.943795
Si Si2 0.557926 0.690477 0.649469
Si Si3 0.175573 0.673094 0.595570
Si Si4 0.301094 0.883078 0.845300
Si Si5 0.288420 0.500000 0.750000
Si Si6 0.395723 0.629950 0.678104
O O1 0.528321 0.282650 0.907369
O O2 0.393483 0.187024 0.943653
O O3 0.500000 0.000000 0.924936
O O4 0.516260 0.192943 0.000000
O O5 0.613328 0.822995 0.666692
O O6 0.482976 0.688250 0.685753
O O7 0.602367 0.533403 0.652131
O O8 0.250000 0.750000 0.570827
O O9 0.194935 0.505068 0.611354
O O10 0.153542 0.758333 0.645709
O O11 0.250000 0.750000 0.867867
O O12 0.264697 0.939519 0.793826
O O13 0.348079 0.625524 0.729898
#
# Coordination Sequence:
#
# PCOD8277176 Si02
#       6
#    16  16  16  16   8  16
#     4  10  21  39  68  94 120 161 209 257 310 386
#     4  10  21  43  61  89 123 165 200 252 324 366
#     4  11  21  39  63  92 126 162 199 258 325 367
#     4  12  24  39  62  88 124 169 208 261 305 373
#     4  12  24  39  62  95 124 172 220 260 303 368
#     4  10  23  38  63  88 127 165 205 259 308 371
#
# _framework density 20.974951999999998
#
# number of rings (size 3 to 8) (size 9 to 14) (size 15 to 20)
#    0.000    1.273    5.455    0.000    2.545    1.818 
#    0.000    7.273    8.000    4.364    0.000    0.000 
#    0.000    0.000    0.000    0.000    0.000    0.000 
#
# Total GULP energy -545498.575243 kJ/mol
# GULP energy per Si atom -12397.694892 kJ/mol
# Density = 2.092721 g / cm^3
# Si number density = 20.974952 Si / 1000 Ang^3
#
#
#
# Elastic Constant Matrix: (Units=GPa)
#
#
# Indices 1 2 3 4 5 6 
#
# 1 128.2374 32.0471 20.7400 0.0000 0.0000 0.0000
# 2 32.0471 80.3292 8.5674 0.0000 0.0000 0.0000
# 3 20.7400 8.5674 61.9356 0.0000 0.0000 0.0000
# 4 0.0000 0.0000 0.0000 15.6124 0.0000 0.0000
# 5 0.0000 0.0000 0.0000 0.0000 25.5554 0.0000
# 6 0.0000 0.0000 0.0000 0.0000 0.0000 47.8386
#
#
#
# Elastic Compliance Matrix: (Units=1/GPa)
#
#
# Indices 1 2 3 4 5 6 
#
# 1 0.009047 -0.003335 -0.002568 0.000000 0.000000 0.000000
# 2 -0.003335 0.013865 -0.000801 0.000000 0.000000 0.000000
# 3 -0.002568 -0.000801 0.017117 0.000000 0.000000 0.000000
# 4 0.000000 0.000000 0.000000 0.064052 0.000000 0.000000
# 5 0.000000 0.000000 0.000000 0.000000 0.039131 0.000000
# 6 0.000000 0.000000 0.000000 0.000000 0.000000 0.020904
#
#
# Mechanical properties :
#
#
# Convention : Reuss Voigt Hill
#
# Bulk Modulus (GPa) = 37.56661 43.69014 40.62838
# Shear Modulus (GPa) = 26.82457 31.74446 29.28451
#
# Velocity S-wave (km/s) = 3.58003 3.89452 3.74058
# Velocity P-wave (km/s) = 5.91929 6.41077 6.16992
#
# Compressibility (1/GPa) = 0.02661938
#
# Stress axis : x y z
#
# Youngs Moduli (GPa) = 110.53514 72.12494 58.42295
#
# Poissons Ratio (x) = 0.24056 0.15004
# Poissons Ratio (y) = 0.36867 0.04680
# Poissons Ratio (z) = 0.28387 0.05777
#
# Static dielectric constant tensor:
#      x y z
#    x 4.259060 0.000000 0.000000 
#    y 0.000000 3.964270 0.000000 
#    z 0.000000 0.000000 3.349290 
# 
# 
# High freq. dielectric constant tensor:
#      x y z
#    x 1.846940 0.000000 0.000000 
#    y 0.000000 1.824060 0.000000 
#    z 0.000000 0.000000 1.782610 
# 
# From -- ./inp_files/68182.got.cif
#   From: 2010.03.12/outbox.cif.g09.slc.cpg/sg66_35_cif.got.tgz:68182.got - 2010.04.10 21:57:39.
