data_PCOD8277787
_publ_section_title
;
Structure prediction by ZEFSAII (Michael W. Deem and Ramdas Pophale) SiO2 
 PCOD8277787
Probable space group: C C C M
;
_chemical_formula_sum "Si O2"
_cell_formula_units_Z 88
_cell_length_a 13.004761
_cell_length_b 29.973620
_cell_length_c 10.027811
_cell_angle_alpha 90.000000
_cell_angle_beta 90.000000
_cell_angle_gamma 90.000000
_cell_volume 3908.838365
_symmetry_space_group_name_H-M "C C C M"
_symmetry_group_IT_number 66
_symmetry_cell_setting 'orthorhombic'
loop_
_space_group_symop_operation_xyz
x,y,z
-x,-y,z
x,-y,1/2-z
-x,y,1/2-z
-x,-y,-z
x,y,-z
-x,y,1/2+z
x,-y,1/2+z
1/2+x,1/2+y,z
1/2-x,1/2-y,z
1/2+x,1/2-y,1/2-z
1/2-x,1/2+y,1/2-z
1/2-x,1/2-y,-z
1/2+x,1/2+y,-z
1/2-x,1/2+y,1/2+z
1/2+x,1/2-y,1/2+z
loop_
_atom_site_type_symbol
_atom_site_label
_atom_site_fract_x
_atom_site_fract_y
_atom_site_fract_z
Si Si1 0.598266 0.622321 0.345532
Si Si2 0.000000 0.262470 0.250000
Si Si3 0.189696 0.210095 0.249720
Si Si4 0.762023 0.450234 0.234876
Si Si5 0.195953 0.327558 0.000000
Si Si6 0.899485 0.415311 0.000000
Si Si7 0.143961 0.577446 0.500000
Si Si8 0.043518 0.317899 0.500000
O O1 0.500000 0.627018 0.250000
O O2 0.567173 0.613111 0.500000
O O3 0.663932 0.668225 0.343641
O O4 0.665491 0.582094 0.287209
O O5 0.914597 0.230177 0.315406
O O6 0.060516 0.290547 0.363225
O O7 0.250000 0.250000 0.328766
O O8 0.263679 0.196188 0.130409
O O9 0.716664 0.500000 0.250000
O O10 0.824763 0.448262 0.369876
O O11 0.847864 0.439394 0.124955
O O12 0.220501 0.379620 0.000000
O O13 0.074362 0.330745 0.000000
O O14 0.881026 0.361203 0.000000
O O15 0.021293 0.419476 0.000000
#
# Coordination Sequence:
#
# PCOD8277787 Si02
#       8
#    16   8  16  16   8   8   8   8
#     4  12  30  52  78 111 150 198 256 320 382 450
#     4  12  26  42  68 108 140 194 250 302 356 426
#     4  12  25  43  73 103 149 194 249 306 364 440
#     4  12  27  51  78 112 149 193 252 317 383 454
#     4  11  22  45  69  99 140 201 251 286 360 448
#     4  11  27  47  74 113 158 196 247 302 382 459
#     4  11  25  42  82 106 149 202 239 300 380 461
#     4  11  27  43  69 106 150 195 248 299 354 447
#
# _framework density 22.513081
#
# number of rings (size 3 to 8) (size 9 to 14) (size 15 to 20)
#    0.000    0.364    5.455    1.909   11.455    2.909 
#    0.000    0.909    0.000    0.000    0.000    0.000 
#    0.000    0.000    0.000    0.000    0.000    0.000 
#
# Total GULP energy -545197.789699 kJ/mol
# GULP energy per Si atom -12390.858857 kJ/mol
# Density = 2.246184 g / cm^3
# Si number density = 22.513081 Si / 1000 Ang^3
#
#
#
# Elastic Constant Matrix: (Units=GPa)
#
#
# Indices 1 2 3 4 5 6 
#
# 1 103.9496 58.4471 38.7759 0.0000 0.0000 0.0000
# 2 58.4471 168.5552 35.1095 0.0000 0.0000 0.0000
# 3 38.7759 35.1095 144.2655 0.0000 0.0000 0.0000
# 4 0.0000 0.0000 0.0000 55.3893 0.0000 0.0000
# 5 0.0000 0.0000 0.0000 0.0000 50.3563 0.0000
# 6 0.0000 0.0000 0.0000 0.0000 0.0000 27.6126
#
#
#
# Elastic Compliance Matrix: (Units=1/GPa)
#
#
# Indices 1 2 3 4 5 6 
#
# 1 0.012736 -0.003901 -0.002474 0.000000 0.000000 0.000000
# 2 -0.003901 0.007444 -0.000763 0.000000 0.000000 0.000000
# 3 -0.002474 -0.000763 0.007782 0.000000 0.000000 0.000000
# 4 0.000000 0.000000 0.000000 0.018054 0.000000 0.000000
# 5 0.000000 0.000000 0.000000 0.000000 0.019858 0.000000
# 6 0.000000 0.000000 0.000000 0.000000 0.000000 0.036215
#
#
# Mechanical properties :
#
#
# Convention : Reuss Voigt Hill
#
# Bulk Modulus (GPa) = 73.06316 75.71503 74.38909
# Shear Modulus (GPa) = 41.34639 45.63416 43.49027
#
# Velocity S-wave (km/s) = 4.29015 4.50711 4.39997
# Velocity P-wave (km/s) = 7.55411 7.79679 7.67641
#
# Compressibility (1/GPa) = 0.01368679
#
# Stress axis : x y z
#
# Youngs Moduli (GPa) = 78.51579 134.32826 128.49605
#
# Poissons Ratio (x) = 0.52402 0.31789
# Poissons Ratio (y) = 0.30629 0.09807
# Poissons Ratio (z) = 0.19424 0.10252
#
# Static dielectric constant tensor:
#      x y z
#    x 4.113210 0.000000 0.000000 
#    y 0.000000 4.488300 0.000000 
#    z 0.000000 0.000000 4.333900 
# 
# 
# High freq. dielectric constant tensor:
#      x y z
#    x 1.896400 0.000000 0.000000 
#    y 0.000000 1.900100 0.000000 
#    z 0.000000 0.000000 1.883070 
# 
# From -- ./inp_files/15098.got.cif
#   From: 2010.03.12/outbox.cif.g09.slc.cpg/sg66_8_cif.got.tgz:15098.got - 2010.04.10 21:57:39.
