data_PCOD8277943
_publ_section_title
;
Structure prediction by ZEFSAII (Michael W. Deem and Ramdas Pophale) SiO2 
 PCOD8277943
Probable space group: C M M A
;
_chemical_formula_sum "Si O2"
_cell_formula_units_Z 72
_cell_length_a 8.642487
_cell_length_b 25.345403
_cell_length_c 20.567685
_cell_angle_alpha 90.000000
_cell_angle_beta 90.000000
_cell_angle_gamma 90.000000
_cell_volume 4505.296194
_symmetry_space_group_name_H-M "C M M A"
_symmetry_group_IT_number 67
_symmetry_cell_setting 'orthorhombic'
loop_
_space_group_symop_operation_xyz
x,y,z
-x,1/2-y,z
x,-y,-z
-x,1/2+y,-z
-x,-y,-z
x,1/2+y,-z
-x,y,z
x,1/2-y,z
1/2+x,1/2+y,z
1/2-x,-y,z
1/2+x,1/2-y,-z
1/2-x,y,-z
1/2-x,1/2-y,-z
1/2+x,y,-z
1/2-x,1/2+y,z
1/2+x,-y,z
loop_
_atom_site_type_symbol
_atom_site_label
_atom_site_fract_x
_atom_site_fract_y
_atom_site_fract_z
Si Si1 0.316483 0.750000 0.427859
Si Si2 0.817802 0.058882 0.935244
Si Si3 0.678310 0.557129 0.191734
Si Si4 0.682385 0.143328 0.428562
Si Si5 0.180367 0.941841 0.664650
O O1 0.500000 0.750000 0.427040
O O2 0.250000 0.750000 0.500000
O O3 0.253260 0.696296 0.394945
O O4 0.763790 0.087889 0.868059
O O5 0.000000 0.058067 0.940165
O O6 0.750000 0.000000 0.932366
O O7 0.750000 0.087452 0.000000
O O8 0.500000 0.552190 0.172660
O O9 0.750000 0.500000 0.198880
O O10 0.700455 0.583476 0.262740
O O11 0.500000 0.149522 0.433983
O O12 0.750000 0.133815 0.500000
O O13 0.725293 0.093913 0.384657
O O14 0.000000 0.943777 0.645537
O O15 0.250000 0.000000 0.660091
#
# Coordination Sequence:
#
# PCOD8277943 Si02
#       5
#     8  16  16  16  16
#     4  10  18  32  52  72  92 112 139 176 221 268
#     4  10  16  22  33  49  71  98 134 174 212 249
#     4   9  16  26  39  54  76 105 139 175 212 254
#     4  11  21  34  51  70  91 115 146 183 223 266
#     4  10  20  33  47  65  89 119 152 185 222 265
#
# _framework density 15.981192
#
# number of rings (size 3 to 8) (size 9 to 14) (size 15 to 20)
#    0.000    2.000    0.000    9.667    0.000    3.111 
#    0.000    2.222    0.000    0.000    0.000    0.000 
#    0.000    0.000    0.000    1.000    0.000   13.778 
#
# Total GULP energy -446055.318269 kJ/mol
# GULP energy per Si atom -12390.425507 kJ/mol
# Density = 1.594482 g / cm^3
# Si number density = 15.981192 Si / 1000 Ang^3
#
#
#
# Elastic Constant Matrix: (Units=GPa)
#
#
# Indices 1 2 3 4 5 6 
#
# 1 159.5951 30.1244 53.3289 0.0000 0.0000 0.0000
# 2 30.1244 57.3558 37.0133 0.0000 0.0000 0.0000
# 3 53.3289 37.0133 102.7380 0.0000 0.0000 0.0000
# 4 0.0000 0.0000 0.0000 2.0719 0.0000 0.0000
# 5 0.0000 0.0000 0.0000 0.0000 29.9811 0.0000
# 6 0.0000 0.0000 0.0000 0.0000 0.0000 19.1515
#
#
#
# Elastic Compliance Matrix: (Units=1/GPa)
#
#
# Indices 1 2 3 4 5 6 
#
# 1 0.007739 -0.001918 -0.003326 0.000000 0.000000 0.000000
# 2 -0.001918 0.023192 -0.007360 0.000000 0.000000 0.000000
# 3 -0.003326 -0.007360 0.014111 0.000000 0.000000 0.000000
# 4 0.000000 0.000000 0.000000 0.482649 0.000000 0.000000
# 5 0.000000 0.000000 0.000000 0.000000 0.033354 0.000000
# 6 0.000000 0.000000 0.000000 0.000000 0.000000 0.052215
#
#
# Mechanical properties :
#
#
# Convention : Reuss Voigt Hill
#
# Bulk Modulus (GPa) = 50.41715 62.29135 56.35425
# Shear Modulus (GPa) = 7.75097 23.52239 15.63668
#
# Velocity S-wave (km/s) = 2.20467 3.84067 3.13140
# Velocity P-wave (km/s) = 6.17228 7.66356 6.95799
#
# Compressibility (1/GPa) = 0.01983452
#
# Stress axis : x y z
#
# Youngs Moduli (GPa) = 129.20870 43.11846 70.86433
#
# Poissons Ratio (x) = 0.08272 0.23571
# Poissons Ratio (y) = 0.24787 0.52153
# Poissons Ratio (z) = 0.42978 0.31733
#
# Static dielectric constant tensor:
#      x y z
#    x 3.229940 0.000000 0.000000 
#    y 0.000000 2.860630 0.000000 
#    z 0.000000 0.000000 3.986030 
# 
# 
# High freq. dielectric constant tensor:
#      x y z
#    x 1.642240 0.000000 0.000000 
#    y 0.000000 1.544170 0.000000 
#    z 0.000000 0.000000 1.623110 
# 
# From -- ./inp_files/32072.got.cif
#   From: 2010.03.12/outbox.cif.g09.slc.cpg/sg67_17_cif.got.tgz:32072.got - 2010.04.10 22:41:39.
