data_PCOD8277745
_publ_section_title
;
Structure prediction by ZEFSAII (Michael W. Deem and Ramdas Pophale) SiO2 
 PCOD8277745
Probable space group: C C C M
;
_chemical_formula_sum "Si O2"
_cell_formula_units_Z 96
_cell_length_a 23.404392
_cell_length_b 11.437825
_cell_length_c 17.074428
_cell_angle_alpha 90.000000
_cell_angle_beta 90.000000
_cell_angle_gamma 90.000000
_cell_volume 4570.744808
_symmetry_space_group_name_H-M "C C C M"
_symmetry_group_IT_number 66
_symmetry_cell_setting 'orthorhombic'
loop_
_space_group_symop_operation_xyz
x,y,z
-x,-y,z
x,-y,1/2-z
-x,y,1/2-z
-x,-y,-z
x,y,-z
-x,y,1/2+z
x,-y,1/2+z
1/2+x,1/2+y,z
1/2-x,1/2-y,z
1/2+x,1/2-y,1/2-z
1/2-x,1/2+y,1/2-z
1/2-x,1/2-y,-z
1/2+x,1/2+y,-z
1/2-x,1/2+y,1/2+z
1/2+x,1/2-y,1/2+z
loop_
_atom_site_type_symbol
_atom_site_label
_atom_site_fract_x
_atom_site_fract_y
_atom_site_fract_z
Si Si1 0.065391 0.985739 0.416716
Si Si2 0.733080 0.384716 0.411090
Si Si3 0.125095 0.206386 0.160729
Si Si4 0.554005 0.685279 0.696543
Si Si5 0.048557 0.405890 0.408628
Si Si6 0.155238 0.532679 0.658413
O O1 0.098129 0.005509 0.500000
O O2 0.082306 0.079788 0.351680
O O3 0.073159 0.852251 0.387114
O O4 0.000000 0.000000 0.434021
O O5 0.720453 0.426267 0.500000
O O6 0.750000 0.250000 0.411380
O O7 0.676671 0.385998 0.356348
O O8 0.779668 0.473642 0.373374
O O9 0.108551 0.219841 0.251299
O O10 0.136254 0.337353 0.133145
O O11 0.500000 0.645814 0.750000
O O12 0.534311 0.791756 0.641813
O O13 0.045740 0.374255 0.500000
O O14 0.112403 0.448663 0.388142
O O15 0.000000 0.500000 0.385668
O O16 0.153466 0.500000 0.750000
#
# Coordination Sequence:
#
# PCOD8277745 Si02
#       6
#    16  16  16  16  16  16
#     4  11  24  39  59  87 123 165 212 263 320 379
#     4   9  20  39  63  91 123 160 211 265 317 375
#     4  11  22  39  65  91 126 166 215 266 321 386
#     4  12  23  40  61  91 128 167 215 270 324 388
#     4  11  25  41  63  94 133 179 217 261 331 401
#     4  11  22  40  65  99 129 168 211 271 324 388
#
# _framework density 21.003143000000001
#
# number of rings (size 3 to 8) (size 9 to 14) (size 15 to 20)
#    0.000    1.167    3.333    3.000    0.000    3.333 
#    0.000    0.000    0.000    0.000    0.000    4.667 
#    0.000    0.000    0.000    0.000    0.000    0.000 
#
# Total GULP energy -594794.230111 kJ/mol
# GULP energy per Si atom -12391.546461 kJ/mol
# Density = 2.095534 g / cm^3
# Si number density = 21.003143 Si / 1000 Ang^3
#
#
#
# Elastic Constant Matrix: (Units=GPa)
#
#
# Indices 1 2 3 4 5 6 
#
# 1 74.5344 20.1635 35.7347 0.0000 0.0000 0.0000
# 2 20.1635 81.0117 39.0712 0.0000 0.0000 0.0000
# 3 35.7347 39.0712 133.0286 0.0000 0.0000 0.0000
# 4 0.0000 0.0000 0.0000 42.0248 0.0000 0.0000
# 5 0.0000 0.0000 0.0000 0.0000 53.2376 0.0000
# 6 0.0000 0.0000 0.0000 0.0000 0.0000 35.4529
#
#
#
# Elastic Compliance Matrix: (Units=1/GPa)
#
#
# Indices 1 2 3 4 5 6 
#
# 1 0.015726 -0.002186 -0.003582 0.000000 0.000000 0.000000
# 2 -0.002186 0.014685 -0.003726 0.000000 0.000000 0.000000
# 3 -0.003582 -0.003726 0.009574 0.000000 0.000000 0.000000
# 4 0.000000 0.000000 0.000000 0.023795 0.000000 0.000000
# 5 0.000000 0.000000 0.000000 0.000000 0.018784 0.000000
# 6 0.000000 0.000000 0.000000 0.000000 0.000000 0.028206
#
#
# Mechanical properties :
#
#
# Convention : Reuss Voigt Hill
#
# Bulk Modulus (GPa) = 47.62883 53.16817 50.39850
# Shear Modulus (GPa) = 36.56125 39.05007 37.80566
#
# Velocity S-wave (km/s) = 4.17676 4.31658 4.24724
# Velocity P-wave (km/s) = 6.78134 7.08612 6.93541
#
# Compressibility (1/GPa) = 0.02099569
#
# Stress axis : x y z
#
# Youngs Moduli (GPa) = 63.59096 68.09681 104.45297
#
# Poissons Ratio (x) = 0.14889 0.37416
# Poissons Ratio (y) = 0.13904 0.38916
# Poissons Ratio (z) = 0.22779 0.25371
#
# Static dielectric constant tensor:
#      x y z
#    x 4.047600 0.000000 0.000000 
#    y 0.000000 3.828100 0.000000 
#    z 0.000000 0.000000 4.105260 
# 
# 
# High freq. dielectric constant tensor:
#      x y z
#    x 1.820710 0.000000 0.000000 
#    y 0.000000 1.806070 0.000000 
#    z 0.000000 0.000000 1.837020 
# 
# From -- ./inp_files/43569.got.cif
#   From: 2010.03.12/outbox.cif.g09.slc.cpg/sg66_22_cif.got.tgz:43569.got - 2010.04.10 21:57:39.
