data_PCOD8277978
_publ_section_title
;
Structure prediction by ZEFSAII (Michael W. Deem and Ramdas Pophale) SiO2 
 PCOD8277978
Probable space group: C M M A
;
_chemical_formula_sum "Si O2"
_cell_formula_units_Z 64
_cell_length_a 16.418477
_cell_length_b 5.236005
_cell_length_c 36.959162
_cell_angle_alpha 90.000000
_cell_angle_beta 90.000000
_cell_angle_gamma 90.000000
_cell_volume 3177.276694
_symmetry_space_group_name_H-M "C M M A"
_symmetry_group_IT_number 67
_symmetry_cell_setting 'orthorhombic'
loop_
_space_group_symop_operation_xyz
x,y,z
-x,1/2-y,z
x,-y,-z
-x,1/2+y,-z
-x,-y,-z
x,1/2+y,-z
-x,y,z
x,1/2-y,z
1/2+x,1/2+y,z
1/2-x,-y,z
1/2+x,1/2-y,-z
1/2-x,y,-z
1/2-x,1/2-y,-z
1/2+x,y,-z
1/2-x,1/2+y,z
1/2+x,-y,z
loop_
_atom_site_type_symbol
_atom_site_label
_atom_site_fract_x
_atom_site_fract_y
_atom_site_fract_z
Si Si1 0.196537 0.750000 0.097817
Si Si2 0.096839 0.750000 0.332438
Si Si3 0.341412 0.250000 0.015657
Si Si4 0.903452 0.750000 0.168199
Si Si5 0.097129 0.250000 0.209252
Si Si6 0.304279 0.250000 0.404368
Si Si7 0.405483 0.250000 0.477184
Si Si8 0.403046 0.750000 0.290869
O O1 0.250000 0.500000 0.103040
O O2 0.154962 0.750000 0.058724
O O3 0.125066 0.750000 0.126971
O O4 0.129654 0.750000 0.372822
O O5 0.129555 0.500892 0.311359
O O6 0.000000 0.750000 0.334561
O O7 0.386993 0.500000 0.000000
O O8 0.250000 0.250000 0.000000
O O9 0.869486 0.500531 0.188825
O O10 0.000000 0.750000 0.168044
O O11 0.131207 0.250000 0.250079
O O12 0.000000 0.250000 0.209580
O O13 0.250000 0.500000 0.401289
O O14 0.352056 0.250000 0.441661
O O15 0.500000 0.250000 0.466095
O O16 0.382913 0.500000 0.500000
O O17 0.500000 0.750000 0.290184
#
# Coordination Sequence:
#
# PCOD8277978 Si02
#       8
#     8   8   8   8   8   8   8   8
#     4  12  21  33  55  80 103 136 175 225 257 312
#     4  10  20  36  58  85 111 140 185 239 280 315
#     4  10  16  30  49  75  96 124 173 219 255 300
#     4  10  21  35  53  78 112 144 173 215 275 330
#     4   9  17  33  55  80 107 141 181 223 267 323
#     4  12  25  39  58  84 121 157 188 228 277 346
#     4  10  22  41  64  88 114 149 194 241 288 331
#     4   9  17  31  58  86 104 134 189 238 267 311
#
# _framework density 20.143035000000001
#
# number of rings (size 3 to 8) (size 9 to 14) (size 15 to 20)
#    0.000    1.750    2.500    3.375    0.000    4.500 
#    0.000    5.000    0.000   15.750    0.000    0.000 
#    0.000    0.000    0.000    0.000    0.000    0.000 
#
# Total GULP energy -396840.549066 kJ/mol
# GULP energy per Si atom -12401.267158 kJ/mol
# Density = 2.009719 g / cm^3
# Si number density = 20.143035 Si / 1000 Ang^3
#
#
#
# Elastic Constant Matrix: (Units=GPa)
#
#
# Indices 1 2 3 4 5 6 
#
# 1 23.5796 29.5021 35.5009 0.0000 0.0000 0.0000
# 2 29.5021 217.6315 77.4021 0.0000 0.0000 0.0000
# 3 35.5009 77.4021 165.9922 0.0000 0.0000 0.0000
# 4 0.0000 0.0000 0.0000 38.7281 0.0000 0.0000
# 5 0.0000 0.0000 0.0000 0.0000 19.9964 0.0000
# 6 0.0000 0.0000 0.0000 0.0000 0.0000 16.1113
#
#
#
# Elastic Compliance Matrix: (Units=1/GPa)
#
#
# Indices 1 2 3 4 5 6 
#
# 1 0.066385 -0.004735 -0.011990 0.000000 0.000000 0.000000
# 2 -0.004735 0.005846 -0.001713 0.000000 0.000000 0.000000
# 3 -0.011990 -0.001713 0.009388 0.000000 0.000000 0.000000
# 4 0.000000 0.000000 0.000000 0.025821 0.000000 0.000000
# 5 0.000000 0.000000 0.000000 0.000000 0.050009 0.000000
# 6 0.000000 0.000000 0.000000 0.000000 0.000000 0.062068
#
#
# Mechanical properties :
#
#
# Convention : Reuss Voigt Hill
#
# Bulk Modulus (GPa) = 22.35004 76.89038 49.62021
# Shear Modulus (GPa) = 18.42920 32.62037 25.52479
#
# Velocity S-wave (km/s) = 3.02804 4.02859 3.56360
# Velocity P-wave (km/s) = 4.83168 7.73915 6.45134
#
# Compressibility (1/GPa) = 0.04474265
#
# Stress axis : x y z
#
# Youngs Moduli (GPa) = 15.06354 171.05221 106.52279
#
# Poissons Ratio (x) = 0.80991 1.27721
# Poissons Ratio (y) = 0.07132 0.18252
# Poissons Ratio (z) = 0.18061 0.29308
#
# Static dielectric constant tensor:
#      x y z
#    x 3.153790 0.000000 0.000000 
#    y 0.000000 0.433980 0.000000 
#    z 0.000000 0.000000 3.807830 
# 
# 
# High freq. dielectric constant tensor:
#      x y z
#    x 1.741220 0.000000 0.000000 
#    y 0.000000 1.816310 0.000000 
#    z 0.000000 0.000000 1.803100 
# 
# From -- ./inp_files/45743.got.cif
#   From: 2010.03.12/outbox.cif.g09.slc.cpg/sg67_23_cif.got.tgz:45743.got - 2010.04.10 22:41:39.
