data_PCOD8277347
_publ_section_title
;
Structure prediction by ZEFSAII (Michael W. Deem and Ramdas Pophale) SiO2 
 PCOD8277347
Probable space group: C C C M
;
_chemical_formula_sum "Si O2"
_cell_formula_units_Z 112
_cell_length_a 14.362963
_cell_length_b 24.542448
_cell_length_c 14.388810
_cell_angle_alpha 90.000000
_cell_angle_beta 90.000000
_cell_angle_gamma 90.000000
_cell_volume 5072.088224
_symmetry_space_group_name_H-M "C C C M"
_symmetry_group_IT_number 66
_symmetry_cell_setting 'orthorhombic'
loop_
_space_group_symop_operation_xyz
x,y,z
-x,-y,z
x,-y,1/2-z
-x,y,1/2-z
-x,-y,-z
x,y,-z
-x,y,1/2+z
x,-y,1/2+z
1/2+x,1/2+y,z
1/2-x,1/2-y,z
1/2+x,1/2-y,1/2-z
1/2-x,1/2+y,1/2-z
1/2-x,1/2-y,-z
1/2+x,1/2+y,-z
1/2-x,1/2+y,1/2+z
1/2+x,1/2-y,1/2+z
loop_
_atom_site_type_symbol
_atom_site_label
_atom_site_fract_x
_atom_site_fract_y
_atom_site_fract_z
Si Si1 0.778379 0.658913 0.713445
Si Si2 0.935466 0.286418 0.897289
Si Si3 0.748227 0.055128 0.104098
Si Si4 0.093983 0.521453 0.354526
Si Si5 0.064458 0.829948 0.162041
Si Si6 0.383662 0.853668 0.391498
Si Si7 0.048558 0.050754 0.349763
O O1 0.847139 0.703166 0.668241
O O2 0.803565 0.600738 0.666341
O O3 0.671271 0.671156 0.695124
O O4 0.796309 0.660633 0.824728
O O5 0.953569 0.221446 0.903935
O O6 0.028959 0.316124 0.862184
O O7 0.911552 0.308162 0.000000
O O8 0.842506 0.036728 0.156015
O O9 0.683752 0.002218 0.093213
O O10 0.770751 0.077255 0.000000
O O11 0.098993 0.500000 0.250000
O O12 0.088662 0.585508 0.366404
O O13 0.000000 0.500000 0.402764
O O14 0.040210 0.887433 0.108951
O O15 0.000000 0.822145 0.250000
O O16 0.355955 0.845951 0.500000
O O17 0.000000 0.052533 0.250000
O O18 0.000000 0.000000 0.406211
#
# Coordination Sequence:
#
# PCOD8277347 Si02
#       7
#    16  16  16  16  16  16  16
#     4  11  22  40  67  92 130 170 216 269 333 394
#     4  11  24  41  65  96 130 167 215 273 332 398
#     4  11  23  38  63  97 130 169 222 274 322 391
#     4  11  23  38  61  93 136 182 219 265 323 398
#     4  10  22  40  63  93 125 168 219 268 324 385
#     4  11  24  41  64  96 135 176 221 272 331 401
#     4   9  21  39  65  92 126 172 215 268 330 389
#
# _framework density 22.081634000000001
#
# number of rings (size 3 to 8) (size 9 to 14) (size 15 to 20)
#    0.000    1.429    1.429    3.429    4.000    7.143 
#    0.000    0.714    0.000   10.286    0.000    0.000 
#    0.000    0.000    0.000    0.000    0.000    0.000 
#
# Total GULP energy -693961.914265 kJ/mol
# GULP energy per Si atom -12392.177040 kJ/mol
# Density = 2.203138 g / cm^3
# Si number density = 22.081634 Si / 1000 Ang^3
#
#
#
# Elastic Constant Matrix: (Units=GPa)
#
#
# Indices 1 2 3 4 5 6 
#
# 1 106.7148 53.1768 40.8760 0.0000 0.0000 0.0000
# 2 53.1768 171.6940 20.9327 0.0000 0.0000 0.0000
# 3 40.8760 20.9327 108.5310 0.0000 0.0000 0.0000
# 4 0.0000 0.0000 0.0000 -6.7136 0.0000 0.0000
# 5 0.0000 0.0000 0.0000 0.0000 1.6928 0.0000
# 6 0.0000 0.0000 0.0000 0.0000 0.0000 32.9521
#
#
#
# Elastic Compliance Matrix: (Units=1/GPa)
#
#
# Indices 1 2 3 4 5 6 
#
# 1 0.012645 -0.003416 -0.004104 0.000000 0.000000 0.000000
# 2 -0.003416 0.006887 -0.000042 0.000000 0.000000 0.000000
# 3 -0.004104 -0.000042 0.010768 0.000000 0.000000 0.000000
# 4 0.000000 0.000000 0.000000 -0.148952 0.000000 0.000000
# 5 0.000000 0.000000 0.000000 0.000000 0.590743 0.000000
# 6 0.000000 0.000000 0.000000 0.000000 0.000000 0.030347
#
#
# Mechanical properties :
#
#
# Convention : Reuss Voigt Hill
#
# Bulk Modulus (GPa) = 65.88927 68.54564 67.21745
# Shear Modulus (GPa) = 9.56718 23.71654 16.64186
#
# Velocity S-wave (km/s) = 2.08376 3.28081 2.74825
# Velocity P-wave (km/s) = 5.97437 6.74247 6.37001
#
# Compressibility (1/GPa) = 0.01517698
#
# Stress axis : x y z
#
# Youngs Moduli (GPa) = 79.08367 145.19217 92.87172
#
# Poissons Ratio (x) = 0.49598 0.38110
# Poissons Ratio (y) = 0.27015 0.00388
# Poissons Ratio (z) = 0.32452 0.00607
#
# Static dielectric constant tensor:
#      x y z
#    x 4.038310 0.000000 0.000000 
#    y 0.000000 4.563970 0.000000 
#    z 0.000000 0.000000 3.845260 
# 
# 
# High freq. dielectric constant tensor:
#      x y z
#    x 1.867370 0.000000 0.000000 
#    y 0.000000 1.881500 0.000000 
#    z 0.000000 0.000000 1.856740 
# 
# From -- ./inp_files/28731.got.cif
#   From: 2010.03.12/outbox.cif.g09.slc.cpg/sg66_15_cif.got.tgz:28731.got - 2010.04.10 21:57:39.
