data_PCOD8277687
_publ_section_title
;
Structure prediction by ZEFSAII (Michael W. Deem and Ramdas Pophale) SiO2 
 PCOD8277687
Probable space group: C C C M
;
_chemical_formula_sum "Si O2"
_cell_formula_units_Z 112
_cell_length_a 31.093595
_cell_length_b 11.258669
_cell_length_c 14.596164
_cell_angle_alpha 90.000000
_cell_angle_beta 90.000000
_cell_angle_gamma 90.000000
_cell_volume 5109.715536
_symmetry_space_group_name_H-M "C C C M"
_symmetry_group_IT_number 66
_symmetry_cell_setting 'orthorhombic'
loop_
_space_group_symop_operation_xyz
x,y,z
-x,-y,z
x,-y,1/2-z
-x,y,1/2-z
-x,-y,-z
x,y,-z
-x,y,1/2+z
x,-y,1/2+z
1/2+x,1/2+y,z
1/2-x,1/2-y,z
1/2+x,1/2-y,1/2-z
1/2-x,1/2+y,1/2-z
1/2-x,1/2-y,-z
1/2+x,1/2+y,-z
1/2-x,1/2+y,1/2+z
1/2+x,1/2-y,1/2+z
loop_
_atom_site_type_symbol
_atom_site_label
_atom_site_fract_x
_atom_site_fract_y
_atom_site_fract_z
Si Si1 0.808388 0.820004 0.221732
Si Si2 0.193082 0.564815 0.656028
Si Si3 0.596803 0.636660 0.756234
Si Si4 0.779425 0.962296 0.394595
Si Si5 0.599626 0.014046 0.642114
Si Si6 0.944268 0.273605 0.101005
Si Si7 0.540967 0.766830 0.896650
O O1 0.789165 0.697886 0.179510
O O2 0.859009 0.791037 0.230854
O O3 0.803855 0.923819 0.146686
O O4 0.788130 0.854115 0.322120
O O5 0.186289 0.500000 0.750000
O O6 0.229061 0.495003 0.598352
O O7 0.146979 0.554585 0.605266
O O8 0.608704 0.500000 0.750000
O O9 0.577074 0.671776 0.660019
O O10 0.562899 0.664740 0.835934
O O11 0.794690 0.932677 0.500000
O O12 0.566378 0.111513 0.609628
O O13 0.597814 0.000000 0.750000
O O14 0.584772 0.891035 0.598581
O O15 0.992681 0.296285 0.137465
O O16 0.946254 0.220183 0.000000
O O17 0.541231 0.718887 0.000000
#
# Coordination Sequence:
#
# PCOD8277687 Si02
#       7
#    16  16  16  16  16  16  16
#     4  11  23  48  68  94 139 176 219 288 339 392
#     4  11  22  42  70  98 140 173 218 277 332 401
#     4  12  24  45  69  93 127 183 233 275 337 397
#     4  11  25  43  71 102 130 178 230 276 338 401
#     4  11  21  40  70 100 133 178 219 265 336 407
#     4  11  25  43  66 100 138 172 216 281 339 398
#     4  11  24  42  67 100 135 173 221 275 335 405
#
# _framework density 21.919027
#
# number of rings (size 3 to 8) (size 9 to 14) (size 15 to 20)
#    0.000    0.857    5.714    2.571    0.000    6.857 
#    0.000    2.857    0.000    0.000    0.000    0.000 
#    0.000    0.000    0.000    0.000    0.000    0.000 
#
# Total GULP energy -694248.290348 kJ/mol
# GULP energy per Si atom -12397.290899 kJ/mol
# Density = 2.186914 g / cm^3
# Si number density = 21.919027 Si / 1000 Ang^3
#
#
#
# Elastic Constant Matrix: (Units=GPa)
#
#
# Indices 1 2 3 4 5 6 
#
# 1 128.0300 14.0264 25.1079 0.0000 0.0000 0.0000
# 2 14.0264 71.6917 7.4021 0.0000 0.0000 0.0000
# 3 25.1079 7.4021 100.8351 0.0000 0.0000 0.0000
# 4 0.0000 0.0000 0.0000 5.8160 0.0000 0.0000
# 5 0.0000 0.0000 0.0000 0.0000 -4.8453 0.0000
# 6 0.0000 0.0000 0.0000 0.0000 0.0000 36.0193
#
#
#
# Elastic Compliance Matrix: (Units=1/GPa)
#
#
# Indices 1 2 3 4 5 6 
#
# 1 0.008355 -0.001431 -0.001975 0.000000 0.000000 0.000000
# 2 -0.001431 0.014300 -0.000694 0.000000 0.000000 0.000000
# 3 -0.001975 -0.000694 0.010460 0.000000 0.000000 0.000000
# 4 0.000000 0.000000 0.000000 0.171940 0.000000 0.000000
# 5 0.000000 0.000000 0.000000 0.000000 -0.206384 0.000000
# 6 0.000000 0.000000 0.000000 0.000000 0.000000 0.027763
#
#
# Mechanical properties :
#
#
# Convention : Reuss Voigt Hill
#
# Bulk Modulus (GPa) = 40.13504 43.73663 41.93584
# Shear Modulus (GPa) = 116.44778 24.33269 70.39023
#
# Velocity S-wave (km/s) = 7.29669 3.33546 5.67305
# Velocity P-wave (km/s) = 9.45194 5.90176 7.87940
#
# Compressibility (1/GPa) = 0.02491588
#
# Stress axis : x y z
#
# Youngs Moduli (GPa) = 119.69186 69.92948 95.60277
#
# Poissons Ratio (x) = 0.10004 0.18885
# Poissons Ratio (y) = 0.17124 0.06630
# Poissons Ratio (z) = 0.23643 0.04850
#
# Static dielectric constant tensor:
#      x y z
#    x 4.581600 0.000000 0.000000 
#    y 0.000000 3.856540 0.000000 
#    z 0.000000 0.000000 4.026930 
# 
# 
# High freq. dielectric constant tensor:
#      x y z
#    x 1.883680 0.000000 0.000000 
#    y 0.000000 1.850200 0.000000 
#    z 0.000000 0.000000 1.856500 
# 
# From -- ./inp_files/33808.got.cif
#   From: 2010.03.12/outbox.cif.g09.slc.cpg/sg66_17_cif.got.tgz:33808.got - 2010.04.10 21:57:39.
