data_PCOD8277962
_publ_section_title
;
Structure prediction by ZEFSAII (Michael W. Deem and Ramdas Pophale) SiO2 
 PCOD8277962
Probable space group: C M M A
;
_chemical_formula_sum "Si O2"
_cell_formula_units_Z 56
_cell_length_a 8.494759
_cell_length_b 14.884865
_cell_length_c 20.351957
_cell_angle_alpha 90.000000
_cell_angle_beta 90.000000
_cell_angle_gamma 90.000000
_cell_volume 2573.369437
_symmetry_space_group_name_H-M "C M M A"
_symmetry_group_IT_number 67
_symmetry_cell_setting 'orthorhombic'
loop_
_space_group_symop_operation_xyz
x,y,z
-x,1/2-y,z
x,-y,-z
-x,1/2+y,-z
-x,-y,-z
x,1/2+y,-z
-x,y,z
x,1/2-y,z
1/2+x,1/2+y,z
1/2-x,-y,z
1/2+x,1/2-y,-z
1/2-x,y,-z
1/2-x,1/2-y,-z
1/2+x,y,-z
1/2-x,1/2+y,z
1/2+x,-y,z
loop_
_atom_site_type_symbol
_atom_site_label
_atom_site_fract_x
_atom_site_fract_y
_atom_site_fract_z
Si Si1 0.313837 0.399134 0.933687
Si Si2 0.313456 0.600321 0.334018
Si Si3 0.186481 0.100497 0.801186
Si Si4 0.313256 0.750000 0.573041
O O1 0.500000 0.397669 0.933662
O O2 0.250000 0.500000 0.933642
O O3 0.249786 0.350199 0.867442
O O4 0.250000 0.350413 0.000000
O O5 0.500000 0.598711 0.333856
O O6 0.250000 0.500000 0.343867
O O7 0.252611 0.644870 0.265502
O O8 0.250961 0.660458 0.392972
O O9 0.000000 0.103380 0.800349
O O10 0.250000 0.000000 0.801980
O O11 0.500000 0.750000 0.574358
O O12 0.250000 0.750000 0.500000
#
# Coordination Sequence:
#
# PCOD8277962 Si02
#       4
#    16  16  16   8
#     4  10  16  23  35  58  94 138 185 238 293 349
#     4  11  22  40  64  93 125 163 204 250 301 358
#     4  10  17  28  46  72 105 146 192 242 293 350
#     4  12  26  46  68  96 127 160 199 246 298 360
#
# _framework density 21.761353
#
# number of rings (size 3 to 8) (size 9 to 14) (size 15 to 20)
#    0.000    1.429    0.000   13.286    0.000    0.571 
#    0.000    2.857    0.000    0.000    0.000    1.000 
#    0.000    0.000    0.000    0.857    0.000    0.286 
#
# Total GULP energy -347067.760190 kJ/mol
# GULP energy per Si atom -12395.277150 kJ/mol
# Density = 2.171182 g / cm^3
# Si number density = 21.761353 Si / 1000 Ang^3
#
#
#
# Elastic Constant Matrix: (Units=GPa)
#
#
# Indices 1 2 3 4 5 6 
#
# 1 271.1713 36.6131 102.4434 0.0000 0.0000 0.0000
# 2 36.6131 64.4776 53.8888 0.0000 0.0000 0.0000
# 3 102.4434 53.8888 248.6582 0.0000 0.0000 0.0000
# 4 0.0000 0.0000 0.0000-1946.3666 0.0000 0.0000
# 5 0.0000 0.0000 0.0000 0.0000 47.1298 0.0000
# 6 0.0000 0.0000 0.0000 0.0000 0.0000 18.0400
#
#
#
# Elastic Compliance Matrix: (Units=1/GPa)
#
#
# Indices 1 2 3 4 5 6 
#
# 1 0.004444 -0.001213 -0.001568 0.000000 0.000000 0.000000
# 2 -0.001213 0.019271 -0.003677 0.000000 0.000000 0.000000
# 3 -0.001568 -0.003677 0.005464 0.000000 0.000000 0.000000
# 4 0.000000 0.000000 0.000000 -0.000514 0.000000 0.000000
# 5 0.000000 0.000000 0.000000 0.000000 0.021218 0.000000
# 6 0.000000 0.000000 0.000000 0.000000 0.000000 0.055432
#
#
# Mechanical properties :
#
#
# Convention : Reuss Voigt Hill
#
# Bulk Modulus (GPa) = 61.48546 107.79974 84.64260
# Shear Modulus (GPa) = 40.43612 -350.14856 -154.85622
#
# Velocity S-wave (km/s) = 4.31532 -12.69855 -8.44486
# Velocity P-wave (km/s) = 7.29006 12.85922 7.49047
#
# Compressibility (1/GPa) = 0.01626401
#
# Stress axis : x y z
#
# Youngs Moduli (GPa) = 225.03245 51.89181 183.00508
#
# Poissons Ratio (x) = 0.06294 0.28694
# Poissons Ratio (y) = 0.27296 0.67284
# Poissons Ratio (z) = 0.35283 0.19079
#
# Static dielectric constant tensor:
#      x y z
#    x 4.033940 0.000000 0.000000 
#    y 0.000000 3.391810 0.000000 
#    z 0.000000 0.000000 5.639830 
# 
# 
# High freq. dielectric constant tensor:
#      x y z
#    x 1.878450 0.000000 0.000000 
#    y 0.000000 1.810940 0.000000 
#    z 0.000000 0.000000 1.883300 
# 
# From -- ./inp_files/33920.got.cif
#   From: 2010.03.12/outbox.cif.g09.slc.cpg/sg67_17_cif.got.tgz:33920.got - 2010.04.10 22:41:39.
