data_PCOD8277414
_publ_section_title
;
Structure prediction by ZEFSAII (Michael W. Deem and Ramdas Pophale) SiO2 
 PCOD8277414
Probable space group: C C C M
;
_chemical_formula_sum "Si O2"
_cell_formula_units_Z 96
_cell_length_a 15.211774
_cell_length_b 17.828932
_cell_length_c 16.075050
_cell_angle_alpha 90.000000
_cell_angle_beta 90.000000
_cell_angle_gamma 90.000000
_cell_volume 4359.709235
_symmetry_space_group_name_H-M "C C C M"
_symmetry_group_IT_number 66
_symmetry_cell_setting 'orthorhombic'
loop_
_space_group_symop_operation_xyz
x,y,z
-x,-y,z
x,-y,1/2-z
-x,y,1/2-z
-x,-y,-z
x,y,-z
-x,y,1/2+z
x,-y,1/2+z
1/2+x,1/2+y,z
1/2-x,1/2-y,z
1/2+x,1/2-y,1/2-z
1/2-x,1/2+y,1/2-z
1/2-x,1/2-y,-z
1/2+x,1/2+y,-z
1/2-x,1/2+y,1/2+z
1/2+x,1/2-y,1/2+z
loop_
_atom_site_type_symbol
_atom_site_label
_atom_site_fract_x
_atom_site_fract_y
_atom_site_fract_z
Si Si1 0.532518 0.659432 0.902371
Si Si2 0.148395 0.441344 0.901060
Si Si3 0.986759 0.681717 0.845842
Si Si4 0.334571 0.458188 0.838701
Si Si5 0.842434 0.389909 0.096874
Si Si6 0.346982 0.612043 0.093145
O O1 0.557741 0.746398 0.889355
O O2 0.594245 0.607457 0.845951
O O3 0.433479 0.648276 0.865294
O O4 0.540998 0.638047 0.000000
O O5 0.073155 0.390268 0.861609
O O6 0.240696 0.419835 0.858327
O O7 0.126166 0.527143 0.875567
O O8 0.151470 0.428898 0.000000
O O9 0.000000 0.697342 0.750000
O O10 0.083950 0.670480 0.883275
O O11 0.338032 0.500000 0.750000
O O12 0.355017 0.521532 0.907454
O O13 0.747030 0.367679 0.138032
O O14 0.822960 0.393038 0.000000
O O15 0.346538 0.642972 0.000000
#
# Coordination Sequence:
#
# PCOD8277414 Si02
#       6
#    16  16  16  16  16  16
#     4  11  24  44  66  95 135 181 224 266 334 418
#     4  10  22  43  69  98 130 176 228 276 336 409
#     4  12  27  39  62  95 142 179 223 275 334 391
#     4  11  24  39  70  96 130 163 220 287 343 391
#     4   9  19  40  67  95 126 170 224 274 325 396
#     4   9  20  39  67  94 123 165 219 270 328 399
#
# _framework density 22.019817
#
# number of rings (size 3 to 8) (size 9 to 14) (size 15 to 20)
#    0.000    1.667    0.000    5.000    7.000    5.333 
#    0.000    5.833    0.000    0.000    0.000    0.000 
#    0.000    0.000    0.000    0.000    0.000    0.000 
#
# Total GULP energy -595002.465585 kJ/mol
# GULP energy per Si atom -12395.884700 kJ/mol
# Density = 2.196970 g / cm^3
# Si number density = 22.019817 Si / 1000 Ang^3
#
#
#
# Elastic Constant Matrix: (Units=GPa)
#
#
# Indices 1 2 3 4 5 6 
#
# 1 127.2705 42.0332 30.7250 0.0000 0.0000 0.0000
# 2 42.0332 69.9727 20.1419 0.0000 0.0000 0.0000
# 3 30.7250 20.1419 65.6259 0.0000 0.0000 0.0000
# 4 0.0000 0.0000 0.0000 30.9181 0.0000 0.0000
# 5 0.0000 0.0000 0.0000 0.0000 10.6475 0.0000
# 6 0.0000 0.0000 0.0000 0.0000 0.0000 25.2955
#
#
#
# Elastic Compliance Matrix: (Units=1/GPa)
#
#
# Indices 1 2 3 4 5 6 
#
# 1 0.010393 -0.005312 -0.003235 0.000000 0.000000 0.000000
# 2 -0.005312 0.018391 -0.003158 0.000000 0.000000 0.000000
# 3 -0.003235 -0.003158 0.017722 0.000000 0.000000 0.000000
# 4 0.000000 0.000000 0.000000 0.032343 0.000000 0.000000
# 5 0.000000 0.000000 0.000000 0.000000 0.093918 0.000000
# 6 0.000000 0.000000 0.000000 0.000000 0.000000 0.039533
#
#
# Mechanical properties :
#
#
# Convention : Reuss Voigt Hill
#
# Bulk Modulus (GPa) = 43.29776 49.85215 46.57496
# Shear Modulus (GPa) = 20.54164 24.70351 22.62257
#
# Velocity S-wave (km/s) = 3.05761 3.35308 3.20874
# Velocity P-wave (km/s) = 5.67195 6.13837 5.90977
#
# Compressibility (1/GPa) = 0.02309588
#
# Stress axis : x y z
#
# Youngs Moduli (GPa) = 96.22229 54.37449 56.42759
#
# Poissons Ratio (x) = 0.28882 0.18257
# Poissons Ratio (y) = 0.51109 0.17818
# Poissons Ratio (z) = 0.31132 0.17170
#
# Static dielectric constant tensor:
#      x y z
#    x 2.984600 0.000000 0.000000 
#    y 0.000000 3.811940 0.000000 
#    z 0.000000 0.000000 3.808650 
# 
# 
# High freq. dielectric constant tensor:
#      x y z
#    x 1.879120 0.000000 0.000000 
#    y 0.000000 1.852930 0.000000 
#    z 0.000000 0.000000 1.853240 
# 
# From -- ./inp_files/28340.got.cif
#   From: 2010.03.12/outbox.cif.g09.slc.cpg/sg66_15_cif.got.tgz:28340.got - 2010.04.10 21:57:39.
