data_PCOD8277594
_publ_section_title
;
Structure prediction by ZEFSAII (Michael W. Deem and Ramdas Pophale) SiO2 
 PCOD8277594
Probable space group: C C C M
;
_chemical_formula_sum "Si O2"
_cell_formula_units_Z 116
_cell_length_a 26.615692
_cell_length_b 26.872385
_cell_length_c 8.965144
_cell_angle_alpha 90.000000
_cell_angle_beta 90.000000
_cell_angle_gamma 90.000000
_cell_volume 6412.114146
_symmetry_space_group_name_H-M "C C C M"
_symmetry_group_IT_number 66
_symmetry_cell_setting 'orthorhombic'
loop_
_space_group_symop_operation_xyz
x,y,z
-x,-y,z
x,-y,1/2-z
-x,y,1/2-z
-x,-y,-z
x,y,-z
-x,y,1/2+z
x,-y,1/2+z
1/2+x,1/2+y,z
1/2-x,1/2-y,z
1/2+x,1/2-y,1/2-z
1/2-x,1/2+y,1/2-z
1/2-x,1/2-y,-z
1/2+x,1/2+y,-z
1/2-x,1/2+y,1/2+z
1/2+x,1/2-y,1/2+z
loop_
_atom_site_type_symbol
_atom_site_label
_atom_site_fract_x
_atom_site_fract_y
_atom_site_fract_z
Si Si1 0.746843 0.634811 0.671970
Si Si2 0.000000 0.000000 0.250000
Si Si3 0.451476 0.210212 0.328614
Si Si4 0.413582 0.684166 0.828197
Si Si5 0.316263 0.712347 0.324410
Si Si6 0.418420 0.575022 0.163356
Si Si7 0.182471 0.051030 0.176270
Si Si8 0.657980 0.188222 0.828396
O O1 0.731490 0.626630 0.500000
O O2 0.729129 0.688416 0.731560
O O3 0.722174 0.592137 0.771067
O O4 0.808028 0.638242 0.689760
O O5 0.964128 0.036060 0.155394
O O6 0.500000 0.186406 0.250000
O O7 0.463604 0.205777 0.500000
O O8 0.446909 0.268508 0.279664
O O9 0.400788 0.179420 0.286741
O O10 0.365430 0.681262 0.721339
O O11 0.440789 0.630648 0.806027
O O12 0.396630 0.692100 0.000000
O O13 0.306239 0.707234 0.500000
O O14 0.321085 0.769644 0.280930
O O15 0.375493 0.561739 0.281783
O O16 0.392634 0.574212 0.000000
O O17 0.200547 0.000000 0.250000
O O18 0.185387 0.046712 0.000000
O O19 0.660671 0.207282 0.000000
#
# Coordination Sequence:
#
# PCOD8277594 Si02
#       8
#    16   4  16  16  16  16  16  16
#     4  11  21  36  57  78 104 141 178 216 267 323
#     4  12  26  36  60  82 102 128 190 248 292 328
#     4   9  18  33  51  74 103 139 179 216 257 309
#     4   9  19  35  52  68  97 139 179 217 268 330
#     4  11  20  30  49  79 109 136 172 220 268 318
#     4  11  23  40  57  74 101 137 178 232 287 333
#     4  12  25  41  61  82 106 136 174 223 276 334
#     4   9  20  36  53  74 107 146 180 213 258 322
#
# _framework density 18.090757
#
# number of rings (size 3 to 8) (size 9 to 14) (size 15 to 20)
#    0.000    1.655    2.069    4.345    0.966    5.517 
#    0.000    0.000    0.000    0.000    0.000    0.000 
#    0.000    0.552    0.000    6.345    0.000    1.931 
#
# Total GULP energy -718737.684211 kJ/mol
# GULP energy per Si atom -12392.029038 kJ/mol
# Density = 1.804958 g / cm^3
# Si number density = 18.090757 Si / 1000 Ang^3
#
#
#
# Elastic Constant Matrix: (Units=GPa)
#
#
# Indices 1 2 3 4 5 6 
#
# 1 120.5774 44.6976 39.4508 0.0000 0.0000 0.0000
# 2 44.6976 49.2447 23.0724 0.0000 0.0000 0.0000
# 3 39.4508 23.0724 100.5714 0.0000 0.0000 0.0000
# 4 0.0000 0.0000 0.0000 12.8176 0.0000 0.0000
# 5 0.0000 0.0000 0.0000 0.0000 24.1265 0.0000
# 6 0.0000 0.0000 0.0000 0.0000 0.0000 28.3721
#
#
#
# Elastic Compliance Matrix: (Units=1/GPa)
#
#
# Indices 1 2 3 4 5 6 
#
# 1 0.013125 -0.010645 -0.002706 0.000000 0.000000 0.000000
# 2 -0.010645 0.031386 -0.003025 0.000000 0.000000 0.000000
# 3 -0.002706 -0.003025 0.011699 0.000000 0.000000 0.000000
# 4 0.000000 0.000000 0.000000 0.078018 0.000000 0.000000
# 5 0.000000 0.000000 0.000000 0.000000 0.041448 0.000000
# 6 0.000000 0.000000 0.000000 0.000000 0.000000 0.035246
#
#
# Mechanical properties :
#
#
# Convention : Reuss Voigt Hill
#
# Bulk Modulus (GPa) = 42.63032 53.87058 48.25045
# Shear Modulus (GPa) = 19.88126 23.94140 21.91133
#
# Velocity S-wave (km/s) = 3.31867 3.64181 3.48399
# Velocity P-wave (km/s) = 6.18875 6.89393 6.55084
#
# Compressibility (1/GPa) = 0.02345748
#
# Stress axis : x y z
#
# Youngs Moduli (GPa) = 76.19051 31.86136 85.47954
#
# Poissons Ratio (x) = 0.33917 0.23134
# Poissons Ratio (y) = 0.81105 0.25855
# Poissons Ratio (z) = 0.20620 0.09637
#
# Static dielectric constant tensor:
#      x y z
#    x 3.396170 0.000000 0.000000 
#    y 0.000000 3.205500 0.000000 
#    z 0.000000 0.000000 3.285040 
# 
# 
# High freq. dielectric constant tensor:
#      x y z
#    x 1.691870 0.000000 0.000000 
#    y 0.000000 1.665220 0.000000 
#    z 0.000000 0.000000 1.704430 
# 
# From -- ./inp_files/10913.got.cif
#   From: 2010.03.12/outbox.cif.g09.slc.cpg/sg66_6_cif.got.tgz:10913.got - 2010.04.10 21:57:39.
