data_PCOD8277814
_publ_section_title
;
Structure prediction by ZEFSAII (Michael W. Deem and Ramdas Pophale) SiO2 
 PCOD8277814
Probable space group: C C C M
;
_chemical_formula_sum "Si O2"
_cell_formula_units_Z 56
_cell_length_a 34.237992
_cell_length_b 4.964334
_cell_length_c 14.686349
_cell_angle_alpha 90.000000
_cell_angle_beta 90.000000
_cell_angle_gamma 90.000000
_cell_volume 2496.221524
_symmetry_space_group_name_H-M "C C C M"
_symmetry_group_IT_number 66
_symmetry_cell_setting 'orthorhombic'
loop_
_space_group_symop_operation_xyz
x,y,z
-x,-y,z
x,-y,1/2-z
-x,y,1/2-z
-x,-y,-z
x,y,-z
-x,y,1/2+z
x,-y,1/2+z
1/2+x,1/2+y,z
1/2-x,1/2-y,z
1/2+x,1/2-y,1/2-z
1/2-x,1/2+y,1/2-z
1/2-x,1/2-y,-z
1/2+x,1/2+y,-z
1/2-x,1/2+y,1/2+z
1/2+x,1/2-y,1/2+z
loop_
_atom_site_type_symbol
_atom_site_label
_atom_site_fract_x
_atom_site_fract_y
_atom_site_fract_z
Si Si1 0.707777 0.682183 0.899745
Si Si2 0.924089 0.741631 0.686802
Si Si3 0.166499 0.338288 0.661467
Si Si4 0.527911 0.251224 0.000000
O O1 0.750000 0.750000 0.855729
O O2 0.685874 0.455692 0.840445
O O3 0.681611 0.952741 0.914579
O O4 0.714153 0.557344 0.000000
O O5 0.939740 0.500000 0.750000
O O6 0.879631 0.698551 0.657510
O O7 0.946634 0.759567 0.591717
O O8 0.929793 0.000000 0.750000
O O9 0.180860 0.500000 0.750000
O O10 0.500000 0.500000 0.000000
O O11 0.500000 0.000000 0.000000
#
# Coordination Sequence:
#
# PCOD8277814 Si02
#       4
#    16  16  16   8
#     4  11  24  40  63  96 134 177 225 282 342 393
#     4  11  25  47  71 103 144 182 226 287 341 404
#     4  11  23  43  65  95 131 178 230 275 338 402
#     4  12  28  46  74 112 135 180 233 266 348 430
#
# _framework density 22.433904999999999
#
# number of rings (size 3 to 8) (size 9 to 14) (size 15 to 20)
#    0.000    0.857    0.000    7.714    4.000    8.000 
#    0.000    1.429    0.000    0.000    0.000    0.000 
#    0.000    0.000    0.000    0.000    0.000    0.000 
#
# Total GULP energy -347072.671983 kJ/mol
# GULP energy per Si atom -12395.452571 kJ/mol
# Density = 2.238284 g / cm^3
# Si number density = 22.433905 Si / 1000 Ang^3
#
#
#
# Elastic Constant Matrix: (Units=GPa)
#
#
# Indices 1 2 3 4 5 6 
#
# 1 143.2417 79.5081 91.0150 0.0000 0.0000 0.0000
# 2 79.5081 190.5202 58.2936 0.0000 0.0000 0.0000
# 3 91.0150 58.2936 145.6429 0.0000 0.0000 0.0000
# 4 0.0000 0.0000 0.0000 38.0708 0.0000 0.0000
# 5 0.0000 0.0000 0.0000 0.0000 23.4435 0.0000
# 6 0.0000 0.0000 0.0000 0.0000 0.0000 27.3359
#
#
#
# Elastic Compliance Matrix: (Units=1/GPa)
#
#
# Indices 1 2 3 4 5 6 
#
# 1 0.013286 -0.003424 -0.006933 0.000000 0.000000 0.000000
# 2 -0.003424 0.006863 -0.000608 0.000000 0.000000 0.000000
# 3 -0.006933 -0.000608 0.011442 0.000000 0.000000 0.000000
# 4 0.000000 0.000000 0.000000 0.026267 0.000000 0.000000
# 5 0.000000 0.000000 0.000000 0.000000 0.042656 0.000000
# 6 0.000000 0.000000 0.000000 0.000000 0.000000 0.036582
#
#
# Mechanical properties :
#
#
# Convention : Reuss Voigt Hill
#
# Bulk Modulus (GPa) = 103.47869 104.11535 103.79702
# Shear Modulus (GPa) = 30.81753 34.47590 32.64672
#
# Velocity S-wave (km/s) = 3.71037 3.92443 3.81890
# Velocity P-wave (km/s) = 8.03629 8.18813 8.11256
#
# Compressibility (1/GPa) = 0.00966383
#
# Stress axis : x y z
#
# Youngs Moduli (GPa) = 75.26444 145.69982 87.39957
#
# Poissons Ratio (x) = 0.49881 0.60592
# Poissons Ratio (y) = 0.25767 0.05311
# Poissons Ratio (z) = 0.52179 0.08854
#
# Static dielectric constant tensor:
#      x y z
#    x 4.023760 0.000000 0.000000 
#    y 0.000000 4.358840 0.000000 
#    z 0.000000 0.000000 4.292640 
# 
# 
# High freq. dielectric constant tensor:
#      x y z
#    x 1.884380 0.000000 0.000000 
#    y 0.000000 1.905690 0.000000 
#    z 0.000000 0.000000 1.900380 
# 
# From -- ./inp_files/33533.got.cif
#   From: 2010.03.12/outbox.cif.g09.slc.cpg/sg66_17_cif.got.tgz:33533.got - 2010.04.10 21:57:39.
