data_PCOD8277110
_publ_section_title
;
Structure prediction by ZEFSAII (Michael W. Deem and Ramdas Pophale) SiO2 
 PCOD8277110
Probable space group: C C C M
;
_chemical_formula_sum "Si O2"
_cell_formula_units_Z 72
_cell_length_a 16.388553
_cell_length_b 8.150208
_cell_length_c 26.535038
_cell_angle_alpha 90.000000
_cell_angle_beta 90.000000
_cell_angle_gamma 90.000000
_cell_volume 3544.288098
_symmetry_space_group_name_H-M "C C C M"
_symmetry_group_IT_number 66
_symmetry_cell_setting 'orthorhombic'
loop_
_space_group_symop_operation_xyz
x,y,z
-x,-y,z
x,-y,1/2-z
-x,y,1/2-z
-x,-y,-z
x,y,-z
-x,y,1/2+z
x,-y,1/2+z
1/2+x,1/2+y,z
1/2-x,1/2-y,z
1/2+x,1/2-y,1/2-z
1/2-x,1/2+y,1/2-z
1/2-x,1/2-y,-z
1/2+x,1/2+y,-z
1/2-x,1/2+y,1/2+z
1/2+x,1/2-y,1/2+z
loop_
_atom_site_type_symbol
_atom_site_label
_atom_site_fract_x
_atom_site_fract_y
_atom_site_fract_z
Si Si1 0.095903 0.819512 0.827328
Si Si2 0.338908 0.180456 0.232170
Si Si3 0.917442 0.824724 0.856574
Si Si4 0.250000 0.250000 0.391385
Si Si5 0.803712 0.087725 0.442304
O O1 0.095189 0.765545 0.769161
O O2 0.169959 0.731507 0.856854
O O3 0.012480 0.775242 0.857234
O O4 0.103442 0.014594 0.823999
O O5 0.250000 0.250000 0.238806
O O6 0.367901 0.184903 0.173739
O O7 0.332045 0.000000 0.250000
O O8 0.886749 0.865673 0.912801
O O9 0.259562 0.419269 0.423644
O O10 0.827995 0.059072 0.500000
O O11 0.750000 0.250000 0.435369
#
# Coordination Sequence:
#
# PCOD8277110 Si02
#       5
#    16  16  16   8  16
#     4  10  21  39  59  89 121 163 201 244 317 373
#     4  12  24  36  58  90 122 162 202 247 306 377
#     4  10  22  39  61  86 124 161 199 259 304 373
#     4  10  21  40  64  90 124 160 207 262 308 374
#     4  10  22  41  65  91 120 164 211 258 314 366
#
# _framework density 20.314374999999998
#
# number of rings (size 3 to 8) (size 9 to 14) (size 15 to 20)
#    0.000    1.556    1.111    3.667    6.222    3.556 
#    0.000   10.000    0.000    2.667    0.000    0.000 
#    0.000    0.000    0.000    0.000    0.000    0.000 
#
# Total GULP energy -446132.736223 kJ/mol
# GULP energy per Si atom -12392.576006 kJ/mol
# Density = 2.026814 g / cm^3
# Si number density = 20.314375 Si / 1000 Ang^3
#
#
#
# Elastic Constant Matrix: (Units=GPa)
#
#
# Indices 1 2 3 4 5 6 
#
# 1 141.8604 43.7427 62.4858 0.0000 0.0000 0.0000
# 2 43.7427 88.0757 38.7488 0.0000 0.0000 0.0000
# 3 62.4858 38.7488 127.5808 0.0000 0.0000 0.0000
# 4 0.0000 0.0000 0.0000 35.2638 0.0000 0.0000
# 5 0.0000 0.0000 0.0000 0.0000 -27.4356 0.0000
# 6 0.0000 0.0000 0.0000 0.0000 0.0000 25.9443
#
#
#
# Elastic Compliance Matrix: (Units=1/GPa)
#
#
# Indices 1 2 3 4 5 6 
#
# 1 0.009688 -0.003144 -0.003790 0.000000 0.000000 0.000000
# 2 -0.003144 0.014125 -0.002750 0.000000 0.000000 0.000000
# 3 -0.003790 -0.002750 0.010530 0.000000 0.000000 0.000000
# 4 0.000000 0.000000 0.000000 0.028358 0.000000 0.000000
# 5 0.000000 0.000000 0.000000 0.000000 -0.036449 0.000000
# 6 0.000000 0.000000 0.000000 0.000000 0.000000 0.038544
#
#
# Mechanical properties :
#
#
# Convention : Reuss Voigt Hill
#
# Bulk Modulus (GPa) = 66.78085 71.94128 69.36106
# Shear Modulus (GPa) = 56.08130 20.92381 38.50256
#
# Velocity S-wave (km/s) = 5.25991 3.21284 4.35827
# Velocity P-wave (km/s) = 8.35667 7.01812 7.71647
#
# Compressibility (1/GPa) = 0.01497435
#
# Stress axis : x y z
#
# Youngs Moduli (GPa) = 103.21946 70.79462 94.96918
#
# Poissons Ratio (x) = 0.22259 0.35994
# Poissons Ratio (y) = 0.32454 0.26119
# Poissons Ratio (z) = 0.39121 0.19470
#
# Static dielectric constant tensor:
#      x y z
#    x 3.699410 0.000000 0.000000 
#    y 0.000000 3.885590 0.000000 
#    z 0.000000 0.000000 3.764000 
# 
# 
# High freq. dielectric constant tensor:
#      x y z
#    x 1.792530 0.000000 0.000000 
#    y 0.000000 1.802510 0.000000 
#    z 0.000000 0.000000 1.786820 
# 
# From -- ./inp_files/62205.got.cif
#   From: 2010.03.12/outbox.cif.g09.slc.cpg/sg66_32_cif.got.tgz:62205.got - 2010.04.10 21:57:39.
