data_PCOD8277391
_publ_section_title
;
Structure prediction by ZEFSAII (Michael W. Deem and Ramdas Pophale) SiO2 
 PCOD8277391
Probable space group: C C C M
;
_chemical_formula_sum "Si O2"
_cell_formula_units_Z 88
_cell_length_a 9.977156
_cell_length_b 26.580162
_cell_length_c 15.130320
_cell_angle_alpha 90.000000
_cell_angle_beta 90.000000
_cell_angle_gamma 90.000000
_cell_volume 4012.476479
_symmetry_space_group_name_H-M "C C C M"
_symmetry_group_IT_number 66
_symmetry_cell_setting 'orthorhombic'
loop_
_space_group_symop_operation_xyz
x,y,z
-x,-y,z
x,-y,1/2-z
-x,y,1/2-z
-x,-y,-z
x,y,-z
-x,y,1/2+z
x,-y,1/2+z
1/2+x,1/2+y,z
1/2-x,1/2-y,z
1/2+x,1/2-y,1/2-z
1/2-x,1/2+y,1/2-z
1/2-x,1/2-y,-z
1/2+x,1/2+y,-z
1/2-x,1/2+y,1/2+z
1/2+x,1/2-y,1/2+z
loop_
_atom_site_type_symbol
_atom_site_label
_atom_site_fract_x
_atom_site_fract_y
_atom_site_fract_z
Si Si1 0.500000 0.302427 0.250000
Si Si2 0.567664 0.121860 0.598814
Si Si3 0.194178 0.109780 0.228406
Si Si4 0.364913 0.469723 0.096210
Si Si5 0.789639 0.433673 0.099292
Si Si6 0.905159 0.738777 0.099948
O O1 0.368455 0.335191 0.230620
O O2 0.509779 0.267923 0.162903
O O3 0.625721 0.111886 0.500000
O O4 0.666160 0.106542 0.676854
O O5 0.440510 0.085716 0.612911
O O6 0.545135 0.181362 0.608732
O O7 0.105296 0.070542 0.173014
O O8 0.199916 0.095357 0.330479
O O9 0.500000 0.500000 0.091305
O O10 0.235717 0.506442 0.115474
O O11 0.340684 0.443902 0.000000
O O12 0.740840 0.419994 0.000000
O O13 0.750000 0.750000 0.127925
O O14 0.924966 0.758154 0.000000
#
# Coordination Sequence:
#
# PCOD8277391 Si02
#       6
#     8  16  16  16  16  16
#     4  12  26  36  65 102 130 171 232 280 336 418
#     4  10  22  42  66  92 125 172 230 283 341 412
#     4  12  23  38  63  96 129 171 218 280 338 414
#     4  10  22  42  66  93 132 175 221 280 348 416
#     4  10  23  41  62  91 129 173 218 276 339 408
#     4  10  22  43  66  91 134 182 225 279 347 421
#
# _framework density 21.931592999999999
#
# number of rings (size 3 to 8) (size 9 to 14) (size 15 to 20)
#    0.000    1.455    1.818    2.727    2.545    2.909 
#    0.000    4.545    0.000    3.818    0.000    0.000 
#    0.000    0.000    0.000    0.000    0.000    0.000 
#
# Total GULP energy -545091.744171 kJ/mol
# GULP energy per Si atom -12388.448731 kJ/mol
# Density = 2.188168 g / cm^3
# Si number density = 21.931593 Si / 1000 Ang^3
#
#
#
# Elastic Constant Matrix: (Units=GPa)
#
#
# Indices 1 2 3 4 5 6 
#
# 1 79.6549 37.3010 33.0098 0.0000 0.0000 0.0000
# 2 37.3010 72.3554 40.9400 0.0000 0.0000 0.0000
# 3 33.0098 40.9400 152.7689 0.0000 0.0000 0.0000
# 4 0.0000 0.0000 0.0000 70.9211 0.0000 0.0000
# 5 0.0000 0.0000 0.0000 0.0000 30.8344 0.0000
# 6 0.0000 0.0000 0.0000 0.0000 0.0000 43.0791
#
#
#
# Elastic Compliance Matrix: (Units=1/GPa)
#
#
# Indices 1 2 3 4 5 6 
#
# 1 0.016854 -0.007813 -0.001548 0.000000 0.000000 0.000000
# 2 -0.007813 0.019913 -0.003648 0.000000 0.000000 0.000000
# 3 -0.001548 -0.003648 0.007858 0.000000 0.000000 0.000000
# 4 0.000000 0.000000 0.000000 0.014100 0.000000 0.000000
# 5 0.000000 0.000000 0.000000 0.000000 0.032431 0.000000
# 6 0.000000 0.000000 0.000000 0.000000 0.000000 0.023213
#
#
# Mechanical properties :
#
#
# Convention : Reuss Voigt Hill
#
# Bulk Modulus (GPa) = 53.74402 58.58675 56.16538
# Shear Modulus (GPa) = 34.10875 41.86879 37.98877
#
# Velocity S-wave (km/s) = 3.94792 4.37402 4.16642
# Velocity P-wave (km/s) = 6.73350 7.23055 6.98644
#
# Compressibility (1/GPa) = 0.01860672
#
# Stress axis : x y z
#
# Youngs Moduli (GPa) = 59.33197 50.21951 127.25905
#
# Poissons Ratio (x) = 0.39236 0.19701
# Poissons Ratio (y) = 0.46355 0.46426
# Poissons Ratio (z) = 0.09185 0.18321
#
# Static dielectric constant tensor:
#      x y z
#    x 3.732730 0.000000 0.000000 
#    y 0.000000 4.095600 0.000000 
#    z 0.000000 0.000000 4.564070 
# 
# 
# High freq. dielectric constant tensor:
#      x y z
#    x 1.843960 0.000000 0.000000 
#    y 0.000000 1.862170 0.000000 
#    z 0.000000 0.000000 1.885170 
# 
# From -- ./inp_files/26763.got.cif
#   From: 2010.03.12/outbox.cif.g09.slc.cpg/sg66_14_cif.got.tgz:26763.got - 2010.04.10 21:57:39.
