data_PCOD8277658
_publ_section_title
;
Structure prediction by ZEFSAII (Michael W. Deem and Ramdas Pophale) SiO2 
 PCOD8277658
Probable space group: C C C M
;
_chemical_formula_sum "Si O2"
_cell_formula_units_Z 112
_cell_length_a 24.758382
_cell_length_b 14.354193
_cell_length_c 16.810207
_cell_angle_alpha 90.000000
_cell_angle_beta 90.000000
_cell_angle_gamma 90.000000
_cell_volume 5974.122203
_symmetry_space_group_name_H-M "C C C M"
_symmetry_group_IT_number 66
_symmetry_cell_setting 'orthorhombic'
loop_
_space_group_symop_operation_xyz
x,y,z
-x,-y,z
x,-y,1/2-z
-x,y,1/2-z
-x,-y,-z
x,y,-z
-x,y,1/2+z
x,-y,1/2+z
1/2+x,1/2+y,z
1/2-x,1/2-y,z
1/2+x,1/2-y,1/2-z
1/2-x,1/2+y,1/2-z
1/2-x,1/2-y,-z
1/2+x,1/2+y,-z
1/2-x,1/2+y,1/2+z
1/2+x,1/2-y,1/2+z
loop_
_atom_site_type_symbol
_atom_site_label
_atom_site_fract_x
_atom_site_fract_y
_atom_site_fract_z
Si Si1 0.337384 0.001761 0.842150
Si Si2 0.619641 0.179778 0.906240
Si Si3 0.993532 0.604485 0.594012
Si Si4 0.696198 0.303033 0.343379
Si Si5 0.700337 0.684736 0.342083
Si Si6 0.725575 0.486818 0.408109
Si Si7 0.106834 0.327608 0.908202
O O1 0.338573 0.899936 0.880307
O O2 0.276779 0.038444 0.852858
O O3 0.353696 0.000000 0.750000
O O4 0.377486 0.065595 0.892515
O O5 0.560409 0.153698 0.871985
O O6 0.642292 0.273026 0.866099
O O7 0.618933 0.193208 0.000000
O O8 0.988181 0.593544 0.500000
O O9 0.000000 0.500000 0.630845
O O10 0.043347 0.673805 0.614930
O O11 0.750000 0.250000 0.375397
O O12 0.703847 0.327935 0.251742
O O13 0.686082 0.398960 0.391985
O O14 0.642564 0.240421 0.354005
O O15 0.750000 0.750000 0.372416
O O16 0.699890 0.584243 0.383064
O O17 0.742147 0.490932 0.500000
O O18 0.116446 0.301664 0.000000
#
# Coordination Sequence:
#
# PCOD8277658 Si02
#       7
#    16  16  16  16  16  16  16
#     4  12  22  33  51  82 120 153 186 231 284 333
#     4  11  21  36  58  83 114 153 196 233 276 335
#     4   9  18  34  56  85 116 149 188 238 283 323
#     4  11  23  38  57  83 119 152 184 231 290 338
#     4  11  23  38  57  83 119 152 184 231 290 338
#     4  12  24  38  59  84 111 150 197 233 277 339
#     4  11  21  36  58  83 114 153 196 233 276 335
#
# _framework density 18.747523999999999
#
# number of rings (size 3 to 8) (size 9 to 14) (size 15 to 20)
#    0.000    1.000    4.286    4.286    0.000    1.143 
#    0.000    3.571    0.000    0.857    0.000    6.000 
#    0.000    0.000    0.000    0.000    0.000    0.000 
#
# Total GULP energy -694454.989964 kJ/mol
# GULP energy per Si atom -12400.981964 kJ/mol
# Density = 1.870485 g / cm^3
# Si number density = 18.747524 Si / 1000 Ang^3
#
#
#
# Elastic Constant Matrix: (Units=GPa)
#
#
# Indices 1 2 3 4 5 6 
#
# 1 103.0844 44.1502 21.2562 0.0000 0.0000 0.0000
# 2 44.1502 116.5591 28.2469 0.0000 0.0000 0.0000
# 3 21.2562 28.2469 53.2130 0.0000 0.0000 0.0000
# 4 0.0000 0.0000 0.0000 27.9234 0.0000 0.0000
# 5 0.0000 0.0000 0.0000 0.0000 15.5000 0.0000
# 6 0.0000 0.0000 0.0000 0.0000 0.0000 31.0308
#
#
#
# Elastic Compliance Matrix: (Units=1/GPa)
#
#
# Indices 1 2 3 4 5 6 
#
# 1 0.011911 -0.003854 -0.002712 0.000000 0.000000 0.000000
# 2 -0.003854 0.011093 -0.004349 0.000000 0.000000 0.000000
# 3 -0.002712 -0.004349 0.022184 0.000000 0.000000 0.000000
# 4 0.000000 0.000000 0.000000 0.035812 0.000000 0.000000
# 5 0.000000 0.000000 0.000000 0.000000 0.064516 0.000000
# 6 0.000000 0.000000 0.000000 0.000000 0.000000 0.032226
#
#
# Mechanical properties :
#
#
# Convention : Reuss Voigt Hill
#
# Bulk Modulus (GPa) = 42.81202 51.12922 46.97062
# Shear Modulus (GPa) = 24.11282 26.83775 25.47528
#
# Velocity S-wave (km/s) = 3.59024 3.78767 3.69027
# Velocity P-wave (km/s) = 6.33025 6.81618 6.57770
#
# Compressibility (1/GPa) = 0.02335792
#
# Stress axis : x y z
#
# Youngs Moduli (GPa) = 83.95764 90.14519 45.07722
#
# Poissons Ratio (x) = 0.34745 0.12224
# Poissons Ratio (y) = 0.32360 0.19604
# Poissons Ratio (z) = 0.22768 0.39203
#
# Static dielectric constant tensor:
#      x y z
#    x 3.495150 0.000000 0.000000 
#    y 0.000000 3.358660 0.000000 
#    z 0.000000 0.000000 3.277050 
# 
# 
# High freq. dielectric constant tensor:
#      x y z
#    x 1.714110 0.000000 0.000000 
#    y 0.000000 1.718830 0.000000 
#    z 0.000000 0.000000 1.726090 
# 
# From -- ./inp_files/28663.got.cif
#   From: 2010.03.12/outbox.cif.g09.slc.cpg/sg66_15_cif.got.tgz:28663.got - 2010.04.10 21:57:39.
