data_PCOD8277292
_publ_section_title
;
Structure prediction by ZEFSAII (Michael W. Deem and Ramdas Pophale) SiO2 
 PCOD8277292
Probable space group: C C C M
;
_chemical_formula_sum "Si O2"
_cell_formula_units_Z 96
_cell_length_a 19.215579
_cell_length_b 14.918465
_cell_length_c 16.982530
_cell_angle_alpha 90.000000
_cell_angle_beta 90.000000
_cell_angle_gamma 90.000000
_cell_volume 4868.329956
_symmetry_space_group_name_H-M "C C C M"
_symmetry_group_IT_number 66
_symmetry_cell_setting 'orthorhombic'
loop_
_space_group_symop_operation_xyz
x,y,z
-x,-y,z
x,-y,1/2-z
-x,y,1/2-z
-x,-y,-z
x,y,-z
-x,y,1/2+z
x,-y,1/2+z
1/2+x,1/2+y,z
1/2-x,1/2-y,z
1/2+x,1/2-y,1/2-z
1/2-x,1/2+y,1/2-z
1/2-x,1/2-y,-z
1/2+x,1/2+y,-z
1/2-x,1/2+y,1/2+z
1/2+x,1/2-y,1/2+z
loop_
_atom_site_type_symbol
_atom_site_label
_atom_site_fract_x
_atom_site_fract_y
_atom_site_fract_z
Si Si1 0.816893 0.629074 0.411530
Si Si2 0.675151 0.263405 0.771869
Si Si3 0.066732 0.942584 0.592492
Si Si4 0.692511 0.455151 0.172476
Si Si5 0.026201 0.406353 0.410254
Si Si6 0.044061 0.759808 0.676940
O O1 0.802591 0.663548 0.500000
O O2 0.819489 0.713020 0.354504
O O3 0.755811 0.560189 0.387806
O O4 0.891163 0.581853 0.406032
O O5 0.750000 0.250000 0.729144
O O6 0.656190 0.363969 0.797728
O O7 0.618275 0.225948 0.710837
O O8 0.079051 0.949547 0.500000
O O9 0.054722 0.838909 0.614356
O O10 0.134853 0.980784 0.634756
O O11 0.000000 0.000000 0.618812
O O12 0.725355 0.500000 0.250000
O O13 0.000545 0.393135 0.500000
O O14 0.000000 0.500000 0.374265
O O15 0.996944 0.323143 0.360822
O O16 0.000000 0.797956 0.750000
#
# Coordination Sequence:
#
# PCOD8277292 Si02
#       6
#    16  16  16  16  16  16
#     4  10  22  41  64  91 123 162 211 262 317 375
#     4  10  22  38  59  93 125 164 203 258 316 377
#     4  11  25  40  62  92 126 170 212 255 318 389
#     4  11  22  39  62  91 131 168 205 260 317 378
#     4  10  23  42  63  88 122 161 207 267 321 369
#     4  12  22  40  64  92 126 165 210 263 316 381
#
# _framework density 19.719287999999999
#
# number of rings (size 3 to 8) (size 9 to 14) (size 15 to 20)
#    0.000    1.333    3.333    2.000    0.000    6.667 
#    0.000    0.000    0.000    1.000    0.000    0.000 
#    0.000    0.000    0.000    0.000    0.000    0.000 
#
# Total GULP energy -595161.214683 kJ/mol
# GULP energy per Si atom -12399.191973 kJ/mol
# Density = 1.967441 g / cm^3
# Si number density = 19.719288 Si / 1000 Ang^3
#
#
#
# Elastic Constant Matrix: (Units=GPa)
#
#
# Indices 1 2 3 4 5 6 
#
# 1 126.9183 37.9071 46.6701 0.0000 0.0000 0.0000
# 2 37.9071 109.6319 31.3692 0.0000 0.0000 0.0000
# 3 46.6701 31.3692 85.2304 0.0000 0.0000 0.0000
# 4 0.0000 0.0000 0.0000 21.0791 0.0000 0.0000
# 5 0.0000 0.0000 0.0000 0.0000 33.0899 0.0000
# 6 0.0000 0.0000 0.0000 0.0000 0.0000 29.4051
#
#
#
# Elastic Compliance Matrix: (Units=1/GPa)
#
#
# Indices 1 2 3 4 5 6 
#
# 1 0.010311 -0.002179 -0.004844 0.000000 0.000000 0.000000
# 2 -0.002179 0.010656 -0.002729 0.000000 0.000000 0.000000
# 3 -0.004844 -0.002729 0.015390 0.000000 0.000000 0.000000
# 4 0.000000 0.000000 0.000000 0.047440 0.000000 0.000000
# 5 0.000000 0.000000 0.000000 0.000000 0.030221 0.000000
# 6 0.000000 0.000000 0.000000 0.000000 0.000000 0.034008
#
#
# Mechanical properties :
#
#
# Convention : Reuss Voigt Hill
#
# Bulk Modulus (GPa) = 59.33735 61.51928 60.42832
# Shear Modulus (GPa) = 28.87726 30.43711 29.65718
#
# Velocity S-wave (km/s) = 3.83092 3.93303 3.88231
# Velocity P-wave (km/s) = 7.05155 7.20348 7.12792
#
# Compressibility (1/GPa) = 0.01685279
#
# Stress axis : x y z
#
# Youngs Moduli (GPa) = 96.98167 93.84682 64.97866
#
# Poissons Ratio (x) = 0.20451 0.31476
# Poissons Ratio (y) = 0.21135 0.17730
# Poissons Ratio (z) = 0.46979 0.25606
#
# Static dielectric constant tensor:
#      x y z
#    x 4.268340 0.000000 0.000000 
#    y 0.000000 3.494040 0.000000 
#    z 0.000000 0.000000 3.651470 
# 
# 
# High freq. dielectric constant tensor:
#      x y z
#    x 1.783630 0.000000 0.000000 
#    y 0.000000 1.764190 0.000000 
#    z 0.000000 0.000000 1.770360 
# 
# From -- ./inp_files/28395.got.cif
#   From: 2010.03.12/outbox.cif.g09.slc.cpg/sg66_15_cif.got.tgz:28395.got - 2010.04.10 21:57:39.
