data_PCOD8277165
_publ_section_title
;
Structure prediction by ZEFSAII (Michael W. Deem and Ramdas Pophale) SiO2 
 PCOD8277165
Probable space group: C C C M
;
_chemical_formula_sum "Si O2"
_cell_formula_units_Z 112
_cell_length_a 11.587869
_cell_length_b 17.096214
_cell_length_c 26.832040
_cell_angle_alpha 90.000000
_cell_angle_beta 90.000000
_cell_angle_gamma 90.000000
_cell_volume 5315.660247
_symmetry_space_group_name_H-M "C C C M"
_symmetry_group_IT_number 66
_symmetry_cell_setting 'orthorhombic'
loop_
_space_group_symop_operation_xyz
x,y,z
-x,-y,z
x,-y,1/2-z
-x,y,1/2-z
-x,-y,-z
x,y,-z
-x,y,1/2+z
x,-y,1/2+z
1/2+x,1/2+y,z
1/2-x,1/2-y,z
1/2+x,1/2-y,1/2-z
1/2-x,1/2+y,1/2-z
1/2-x,1/2-y,-z
1/2+x,1/2+y,-z
1/2-x,1/2+y,1/2+z
1/2+x,1/2-y,1/2+z
loop_
_atom_site_type_symbol
_atom_site_label
_atom_site_fract_x
_atom_site_fract_y
_atom_site_fract_z
Si Si1 0.027715 0.311952 0.145002
Si Si2 0.685735 0.170404 0.206553
Si Si3 0.453298 0.365680 0.863968
Si Si4 0.200111 0.049148 0.943797
Si Si5 0.960403 0.586304 0.055337
Si Si6 0.805171 0.941120 0.359263
Si Si7 0.240797 0.398510 0.191887
O O1 0.018131 0.223783 0.125302
O O2 0.981872 0.359456 0.097118
O O3 0.152446 0.346319 0.159337
O O4 0.949160 0.318635 0.194727
O O5 0.750000 0.250000 0.221987
O O6 0.738009 0.137345 0.155052
O O7 0.704961 0.107288 0.250411
O O8 0.391383 0.400161 0.912865
O O9 0.560196 0.421628 0.849716
O O10 0.368041 0.363167 0.816346
O O11 0.321863 0.093418 0.943492
O O12 0.212114 0.963934 0.917262
O O13 0.155074 0.036650 0.000000
O O14 0.000000 0.500000 0.068992
O O15 0.004987 0.609727 0.000000
O O16 0.750863 0.011617 0.325973
#
# Coordination Sequence:
#
# PCOD8277165 Si02
#       7
#    16  16  16  16  16  16  16
#     4  12  23  41  67  96 134 173 214 287 332 392
#     4  12  25  43  64  93 135 179 223 273 340 396
#     4  11  23  41  65  98 142 171 212 277 344 394
#     4  10  21  40  69  98 129 173 223 273 331 406
#     4  10  21  39  65  96 129 170 221 274 335 398
#     4  11  23  44  64  97 136 179 215 277 330 396
#     4  11  24  41  68  96 129 175 230 268 324 400
#
# _framework density 21.069818999999999
#
# number of rings (size 3 to 8) (size 9 to 14) (size 15 to 20)
#    0.000    1.000    4.286    4.714    0.000    2.286 
#    0.000    5.714    0.000    0.857    0.000    0.000 
#    0.000    0.000    0.000    0.000    0.000    0.000 
#
# Total GULP energy -694028.949305 kJ/mol
# GULP energy per Si atom -12393.374095 kJ/mol
# Density = 2.102186 g / cm^3
# Si number density = 21.069819 Si / 1000 Ang^3
#
#
#
# Elastic Constant Matrix: (Units=GPa)
#
#
# Indices 1 2 3 4 5 6 
#
# 1 58.1148 7.1234 12.4249 0.0000 0.0000 0.0000
# 2 7.1234 76.0521 31.6373 0.0000 0.0000 0.0000
# 3 12.4249 31.6373 116.6703 0.0000 0.0000 0.0000
# 4 0.0000 0.0000 0.0000 19.4208 0.0000 0.0000
# 5 0.0000 0.0000 0.0000 0.0000 29.0379 0.0000
# 6 0.0000 0.0000 0.0000 0.0000 0.0000 36.2761
#
#
#
# Elastic Compliance Matrix: (Units=1/GPa)
#
#
# Indices 1 2 3 4 5 6 
#
# 1 0.017673 -0.000983 -0.001615 0.000000 0.000000 0.000000
# 2 -0.000983 0.014875 -0.003929 0.000000 0.000000 0.000000
# 3 -0.001615 -0.003929 0.009809 0.000000 0.000000 0.000000
# 4 0.000000 0.000000 0.000000 0.051491 0.000000 0.000000
# 5 0.000000 0.000000 0.000000 0.000000 0.034438 0.000000
# 6 0.000000 0.000000 0.000000 0.000000 0.000000 0.027566
#
#
# Mechanical properties :
#
#
# Convention : Reuss Voigt Hill
#
# Bulk Modulus (GPa) = 34.12779 39.24539 36.68659
# Shear Modulus (GPa) = 27.98367 30.25705 29.12036
#
# Velocity S-wave (km/s) = 3.64832 3.79362 3.72168
# Velocity P-wave (km/s) = 5.82920 6.15268 5.99313
#
# Compressibility (1/GPa) = 0.02930163
#
# Stress axis : x y z
#
# Youngs Moduli (GPa) = 56.58273 67.22493 101.95096
#
# Poissons Ratio (x) = 0.06610 0.16470
# Poissons Ratio (y) = 0.05564 0.40057
# Poissons Ratio (z) = 0.09141 0.26413
#
# Static dielectric constant tensor:
#      x y z
#    x 3.910930 0.000000 0.000000 
#    y 0.000000 3.774100 0.000000 
#    z 0.000000 0.000000 3.955810 
# 
# 
# High freq. dielectric constant tensor:
#      x y z
#    x 1.828850 0.000000 0.000000 
#    y 0.000000 1.820320 0.000000 
#    z 0.000000 0.000000 1.824720 
# 
# From -- ./inp_files/69081.got.cif
#   From: 2010.03.12/outbox.cif.g09.slc.cpg/sg66_35_cif.got.tgz:69081.got - 2010.04.10 21:57:39.
