data_PCOD8277807
_publ_section_title
;
Structure prediction by ZEFSAII (Michael W. Deem and Ramdas Pophale) SiO2 
 PCOD8277807
Probable space group: C C C M
;
_chemical_formula_sum "Si O2"
_cell_formula_units_Z 72
_cell_length_a 9.329892
_cell_length_b 26.690780
_cell_length_c 14.202875
_cell_angle_alpha 90.000000
_cell_angle_beta 90.000000
_cell_angle_gamma 90.000000
_cell_volume 3536.829685
_symmetry_space_group_name_H-M "C C C M"
_symmetry_group_IT_number 66
_symmetry_cell_setting 'orthorhombic'
loop_
_space_group_symop_operation_xyz
x,y,z
-x,-y,z
x,-y,1/2-z
-x,y,1/2-z
-x,-y,-z
x,y,-z
-x,y,1/2+z
x,-y,1/2+z
1/2+x,1/2+y,z
1/2-x,1/2-y,z
1/2+x,1/2-y,1/2-z
1/2-x,1/2+y,1/2-z
1/2-x,1/2-y,-z
1/2+x,1/2+y,-z
1/2-x,1/2+y,1/2+z
1/2+x,1/2-y,1/2+z
loop_
_atom_site_type_symbol
_atom_site_label
_atom_site_fract_x
_atom_site_fract_y
_atom_site_fract_z
Si Si1 0.926554 0.952172 0.851132
Si Si2 0.897125 0.453457 0.610824
Si Si3 0.000000 0.627803 0.250000
Si Si4 0.276088 0.691822 0.767747
Si Si5 0.970010 0.841518 0.104383
O O1 0.757559 0.963575 0.842772
O O2 0.000000 0.945537 0.750000
O O3 0.953664 0.901302 0.907301
O O4 0.000000 0.000000 0.902765
O O5 0.880806 0.443424 0.500000
O O6 0.000000 0.500000 0.632525
O O7 0.965417 0.404865 0.658371
O O8 0.870781 0.662976 0.280320
O O9 0.250000 0.750000 0.782256
O O10 0.379727 0.671703 0.848671
O O11 0.340449 0.681487 0.664555
O O12 0.963857 0.818009 0.000000
#
# Coordination Sequence:
#
# PCOD8277807 Si02
#       5
#    16  16   8  16  16
#     4  11  23  41  68 100 133 178 218 259 323 391
#     4  11  26  42  63 100 137 171 213 263 322 390
#     4  12  23  42  70  92 132 174 213 264 334 390
#     4  11  25  46  67  95 128 170 219 279 330 385
#     4  11  23  44  69  97 130 169 220 269 327 391
#
# _framework density 20.357213999999999
#
# number of rings (size 3 to 8) (size 9 to 14) (size 15 to 20)
#    0.000    0.889    4.444    2.333    9.333    3.556 
#    0.000    2.222    0.000    0.000    0.000    0.000 
#    0.000    0.000    0.000    0.000    0.000    0.000 
#
# Total GULP energy -446486.390732 kJ/mol
# GULP energy per Si atom -12402.399743 kJ/mol
# Density = 2.031088 g / cm^3
# Si number density = 20.357214 Si / 1000 Ang^3
#
#
#
# Elastic Constant Matrix: (Units=GPa)
#
#
# Indices 1 2 3 4 5 6 
#
# 1 189.1903 75.1032 60.3988 0.0000 0.0000 0.0000
# 2 75.1032 141.4275 17.3649 0.0000 0.0000 0.0000
# 3 60.3988 17.3649 114.4452 0.0000 0.0000 0.0000
# 4 0.0000 0.0000 0.0000 -13.0164 0.0000 0.0000
# 5 0.0000 0.0000 0.0000 0.0000 4.2483 0.0000
# 6 0.0000 0.0000 0.0000 0.0000 0.0000 68.7393
#
#
#
# Elastic Compliance Matrix: (Units=1/GPa)
#
#
# Indices 1 2 3 4 5 6 
#
# 1 0.007937 -0.003771 -0.003617 0.000000 0.000000 0.000000
# 2 -0.003771 0.008997 0.000625 0.000000 0.000000 0.000000
# 3 -0.003617 0.000625 0.010552 0.000000 0.000000 0.000000
# 4 0.000000 0.000000 0.000000 -0.076826 0.000000 0.000000
# 5 0.000000 0.000000 0.000000 0.000000 0.235391 0.000000
# 6 0.000000 0.000000 0.000000 0.000000 0.000000 0.014548
#
#
# Mechanical properties :
#
#
# Convention : Reuss Voigt Hill
#
# Bulk Modulus (GPa) = 71.63176 83.42186 77.52681
# Shear Modulus (GPa) = 22.85442 31.47398 27.16420
#
# Velocity S-wave (km/s) = 3.35426 3.93629 3.65688
# Velocity P-wave (km/s) = 7.08980 7.85667 7.48306
#
# Compressibility (1/GPa) = 0.01396029
#
# Stress axis : x y z
#
# Youngs Moduli (GPa) = 125.98789 111.15428 94.77132
#
# Poissons Ratio (x) = 0.41915 0.34276
# Poissons Ratio (y) = 0.47509 -0.05924
# Poissons Ratio (z) = 0.45567 -0.06948
#
# Static dielectric constant tensor:
#      x y z
#    x 3.903510 0.000000 0.000000 
#    y 0.000000 3.958880 0.000000 
#    z 0.000000 0.000000 3.583510 
# 
# 
# High freq. dielectric constant tensor:
#      x y z
#    x 1.811730 0.000000 0.000000 
#    y 0.000000 1.802910 0.000000 
#    z 0.000000 0.000000 1.794320 
# 
# From -- ./inp_files/24496.got.cif
#   From: 2010.03.12/outbox.cif.g09.slc.cpg/sg66_13_cif.got.tgz:24496.got - 2010.04.10 21:57:39.
