data_PCOD8277344
_publ_section_title
;
Structure prediction by ZEFSAII (Michael W. Deem and Ramdas Pophale) SiO2 
 PCOD8277344
Probable space group: C C C M
;
_chemical_formula_sum "Si O2"
_cell_formula_units_Z 64
_cell_length_a 9.787809
_cell_length_b 23.566542
_cell_length_c 13.650968
_cell_angle_alpha 90.000000
_cell_angle_beta 90.000000
_cell_angle_gamma 90.000000
_cell_volume 3148.797966
_symmetry_space_group_name_H-M "C C C M"
_symmetry_group_IT_number 66
_symmetry_cell_setting 'orthorhombic'
loop_
_space_group_symop_operation_xyz
x,y,z
-x,-y,z
x,-y,1/2-z
-x,y,1/2-z
-x,-y,-z
x,y,-z
-x,y,1/2+z
x,-y,1/2+z
1/2+x,1/2+y,z
1/2-x,1/2-y,z
1/2+x,1/2-y,1/2-z
1/2-x,1/2+y,1/2-z
1/2-x,1/2-y,-z
1/2+x,1/2+y,-z
1/2-x,1/2+y,1/2+z
1/2+x,1/2-y,1/2+z
loop_
_atom_site_type_symbol
_atom_site_label
_atom_site_fract_x
_atom_site_fract_y
_atom_site_fract_z
Si Si1 0.018789 0.660274 0.000000
Si Si2 0.676205 0.611177 0.500000
Si Si3 0.250000 0.750000 0.341478
Si Si4 0.355993 0.564401 0.784262
Si Si5 0.370010 0.139590 0.194065
Si Si6 0.457083 0.713839 0.500000
O O1 0.916793 0.639567 0.083237
O O2 0.168858 0.633774 0.000000
O O3 0.043099 0.727806 0.000000
O O4 0.660109 0.572941 0.598055
O O5 0.563427 0.661487 0.500000
O O6 0.325538 0.796324 0.273387
O O7 0.358002 0.713269 0.405474
O O8 0.343289 0.500000 0.750000
O O9 0.500000 0.589665 0.750000
O O10 0.247990 0.596437 0.718055
O O11 0.500000 0.117642 0.250000
#
# Coordination Sequence:
#
# PCOD8277344 Si02
#       6
#     8   8   8  16  16   8
#     4  10  22  40  63 100 137 175 217 272 335 405
#     4  12  22  43  70  96 134 177 222 288 334 393
#     4   9  20  36  60  97 136 178 210 275 336 405
#     4  11  27  46  68  98 130 173 234 283 338 400
#     4  11  22  41  63  95 134 173 225 271 332 405
#     4   9  19  36  63  95 134 175 218 263 342 406
#
# _framework density 20.325216999999999
#
# number of rings (size 3 to 8) (size 9 to 14) (size 15 to 20)
#    0.000    1.500    2.500    2.625    0.000    9.500 
#    0.000    1.250    0.000    0.000    0.000    0.000 
#    0.000    0.000    0.000    0.000    0.000    0.000 
#
# Total GULP energy -396469.899964 kJ/mol
# GULP energy per Si atom -12389.684374 kJ/mol
# Density = 2.027896 g / cm^3
# Si number density = 20.325217 Si / 1000 Ang^3
#
#
#
# Elastic Constant Matrix: (Units=GPa)
#
#
# Indices 1 2 3 4 5 6 
#
# 1 163.8081 78.0400 46.2464 0.0000 0.0000 0.0000
# 2 78.0400 103.9921 61.0188 0.0000 0.0000 0.0000
# 3 46.2464 61.0188 112.4227 0.0000 0.0000 0.0000
# 4 0.0000 0.0000 0.0000 20.1558 0.0000 0.0000
# 5 0.0000 0.0000 0.0000 0.0000 3.3946 0.0000
# 6 0.0000 0.0000 0.0000 0.0000 0.0000 33.7210
#
#
#
# Elastic Compliance Matrix: (Units=1/GPa)
#
#
# Indices 1 2 3 4 5 6 
#
# 1 0.009502 -0.007098 -0.000056 0.000000 0.000000 0.000000
# 2 -0.007098 0.019411 -0.007616 0.000000 0.000000 0.000000
# 3 -0.000056 -0.007616 0.013052 0.000000 0.000000 0.000000
# 4 0.000000 0.000000 0.000000 0.049614 0.000000 0.000000
# 5 0.000000 0.000000 0.000000 0.000000 0.294582 0.000000
# 6 0.000000 0.000000 0.000000 0.000000 0.000000 0.029655
#
#
# Mechanical properties :
#
#
# Convention : Reuss Voigt Hill
#
# Bulk Modulus (GPa) = 80.48258 83.42591 81.95425
# Shear Modulus (GPa) = 11.12354 24.44879 17.78616
#
# Velocity S-wave (km/s) = 2.34193 3.47202 2.96138
# Velocity P-wave (km/s) = 6.85538 7.56359 7.21817
#
# Compressibility (1/GPa) = 0.01242505
#
# Stress axis : x y z
#
# Youngs Moduli (GPa) = 105.24086 51.51656 76.61711
#
# Poissons Ratio (x) = 0.36564 0.00433
# Poissons Ratio (y) = 0.74696 0.58352
# Poissons Ratio (z) = 0.00594 0.39235
#
# Static dielectric constant tensor:
#      x y z
#    x 4.194020 0.000000 0.000000 
#    y 0.000000 3.552910 0.000000 
#    z 0.000000 0.000000 3.758410 
# 
# 
# High freq. dielectric constant tensor:
#      x y z
#    x 1.821560 0.000000 0.000000 
#    y 0.000000 1.779730 0.000000 
#    z 0.000000 0.000000 1.795380 
# 
# From -- ./inp_files/24247.got.cif
#   From: 2010.03.12/outbox.cif.g09.slc.cpg/sg66_13_cif.got.tgz:24247.got - 2010.04.10 21:57:39.
