data_PCOD8277585
_publ_section_title
;
Structure prediction by ZEFSAII (Michael W. Deem and Ramdas Pophale) SiO2 
 PCOD8277585
Probable space group: C C C M
;
_chemical_formula_sum "Si O2"
_cell_formula_units_Z 72
_cell_length_a 15.413115
_cell_length_b 13.194916
_cell_length_c 17.942887
_cell_angle_alpha 90.000000
_cell_angle_beta 90.000000
_cell_angle_gamma 90.000000
_cell_volume 3649.130296
_symmetry_space_group_name_H-M "C C C M"
_symmetry_group_IT_number 66
_symmetry_cell_setting 'orthorhombic'
loop_
_space_group_symop_operation_xyz
x,y,z
-x,-y,z
x,-y,1/2-z
-x,y,1/2-z
-x,-y,-z
x,y,-z
-x,y,1/2+z
x,-y,1/2+z
1/2+x,1/2+y,z
1/2-x,1/2-y,z
1/2+x,1/2-y,1/2-z
1/2-x,1/2+y,1/2-z
1/2-x,1/2-y,-z
1/2+x,1/2+y,-z
1/2-x,1/2+y,1/2+z
1/2+x,1/2-y,1/2+z
loop_
_atom_site_type_symbol
_atom_site_label
_atom_site_fract_x
_atom_site_fract_y
_atom_site_fract_z
Si Si1 0.340224 0.955033 0.331357
Si Si2 0.343567 0.595444 0.293848
Si Si3 0.387959 0.857403 0.086624
Si Si4 0.543260 0.232911 0.670029
Si Si5 0.750000 0.250000 0.185824
O O1 0.236145 0.945553 0.344816
O O2 0.375949 0.842177 0.336284
O O3 0.359321 0.000000 0.250000
O O4 0.391203 0.023041 0.392327
O O5 0.385199 0.500000 0.250000
O O6 0.418820 0.652548 0.341367
O O7 0.309952 0.677721 0.234681
O O8 0.474323 0.794489 0.106231
O O9 0.307145 0.819474 0.133441
O O10 0.369987 0.844124 0.000000
O O11 0.500000 0.220403 0.750000
#
# Coordination Sequence:
#
# PCOD8277585 Si02
#       5
#    16  16  16  16   8
#     4  11  19  37  65  90 121 159 214 261 305 372
#     4  11  20  37  67  99 119 158 223 264 314 361
#     4  12  26  40  61  95 131 168 206 260 326 386
#     4  12  21  36  63  92 127 162 204 263 319 367
#     4  12  19  42  66  90 119 172 208 262 309 388
#
# _framework density 19.730727999999999
#
# number of rings (size 3 to 8) (size 9 to 14) (size 15 to 20)
#    0.000    0.444   11.111    1.000    0.000    2.222 
#    0.000    1.111    0.000    4.000    0.000    0.000 
#    0.000    0.000    0.000    0.000    0.000    0.000 
#
# Total GULP energy -446341.304371 kJ/mol
# GULP energy per Si atom -12398.369566 kJ/mol
# Density = 1.968582 g / cm^3
# Si number density = 19.730728 Si / 1000 Ang^3
#
#
#
# Elastic Constant Matrix: (Units=GPa)
#
#
# Indices 1 2 3 4 5 6 
#
# 1 73.5477 35.0249 10.4955 0.0000 0.0000 0.0000
# 2 35.0249 123.8890 13.6025 0.0000 0.0000 0.0000
# 3 10.4955 13.6025 68.4419 0.0000 0.0000 0.0000
# 4 0.0000 0.0000 0.0000 28.4688 0.0000 0.0000
# 5 0.0000 0.0000 0.0000 0.0000 38.7466 0.0000
# 6 0.0000 0.0000 0.0000 0.0000 0.0000 44.8583
#
#
#
# Elastic Compliance Matrix: (Units=1/GPa)
#
#
# Indices 1 2 3 4 5 6 
#
# 1 0.015877 -0.004315 -0.001577 0.000000 0.000000 0.000000
# 2 -0.004315 0.009425 -0.001211 0.000000 0.000000 0.000000
# 3 -0.001577 -0.001211 0.015094 0.000000 0.000000 0.000000
# 4 0.000000 0.000000 0.000000 0.035126 0.000000 0.000000
# 5 0.000000 0.000000 0.000000 0.000000 0.025809 0.000000
# 6 0.000000 0.000000 0.000000 0.000000 0.000000 0.022292
#
#
# Mechanical properties :
#
#
# Convention : Reuss Voigt Hill
#
# Bulk Modulus (GPa) = 38.18619 42.68046 40.43333
# Shear Modulus (GPa) = 34.11595 36.19845 35.15720
#
# Velocity S-wave (km/s) = 4.16273 4.28790 4.22578
# Velocity P-wave (km/s) = 6.51921 6.79656 6.65933
#
# Compressibility (1/GPa) = 0.02618748
#
# Stress axis : x y z
#
# Youngs Moduli (GPa) = 62.98525 106.10353 66.25361
#
# Poissons Ratio (x) = 0.45788 0.10448
# Poissons Ratio (y) = 0.27181 0.08026
# Poissons Ratio (z) = 0.09933 0.12853
#
# Static dielectric constant tensor:
#      x y z
#    x 3.850430 0.000000 0.000000 
#    y 0.000000 4.154880 0.000000 
#    z 0.000000 0.000000 3.198850 
# 
# 
# High freq. dielectric constant tensor:
#      x y z
#    x 1.777320 0.000000 0.000000 
#    y 0.000000 1.787900 0.000000 
#    z 0.000000 0.000000 1.713670 
# 
# From -- ./inp_files/38295.got.cif
#   From: 2010.03.12/outbox.cif.g09.slc.cpg/sg66_20_cif.got.tgz:38295.got - 2010.04.10 21:57:39.
