data_PCOD8277640
_publ_section_title
;
Structure prediction by ZEFSAII (Michael W. Deem and Ramdas Pophale) SiO2 
 PCOD8277640
Probable space group: C C C M
;
_chemical_formula_sum "Si O2"
_cell_formula_units_Z 112
_cell_length_a 34.460504
_cell_length_b 23.112372
_cell_length_c 9.497564
_cell_angle_alpha 90.000000
_cell_angle_beta 90.000000
_cell_angle_gamma 90.000000
_cell_volume 7564.467697
_symmetry_space_group_name_H-M "C C C M"
_symmetry_group_IT_number 66
_symmetry_cell_setting 'orthorhombic'
loop_
_space_group_symop_operation_xyz
x,y,z
-x,-y,z
x,-y,1/2-z
-x,y,1/2-z
-x,-y,-z
x,y,-z
-x,y,1/2+z
x,-y,1/2+z
1/2+x,1/2+y,z
1/2-x,1/2-y,z
1/2+x,1/2-y,1/2-z
1/2-x,1/2+y,1/2-z
1/2-x,1/2-y,-z
1/2+x,1/2+y,-z
1/2-x,1/2+y,1/2+z
1/2+x,1/2-y,1/2+z
loop_
_atom_site_type_symbol
_atom_site_label
_atom_site_fract_x
_atom_site_fract_y
_atom_site_fract_z
Si Si1 0.965210 0.895330 0.842963
Si Si2 0.379677 0.257727 0.833535
Si Si3 0.189300 0.273361 0.660309
Si Si4 0.034335 0.242764 0.844244
Si Si5 0.881370 0.887284 0.833987
Si Si6 0.735823 0.342121 0.837981
Si Si7 0.698621 0.557600 0.168110
O O1 0.966999 0.826287 0.844443
O O2 0.922777 0.912684 0.778522
O O3 0.000000 0.921879 0.750000
O O4 0.970651 0.920151 0.000000
O O5 0.348208 0.216825 0.758333
O O6 0.423091 0.236892 0.791816
O O7 0.373225 0.323022 0.774821
O O8 0.373314 0.254155 0.000000
O O9 0.175088 0.272268 0.500000
O O10 0.219087 0.326039 0.684369
O O11 0.209960 0.213261 0.699237
O O12 0.000000 0.269333 0.750000
O O13 0.026958 0.266777 0.000000
O O14 0.846196 0.929177 0.792446
O O15 0.886159 0.880485 0.000000
O O16 0.725984 0.392097 0.727300
O O17 0.728600 0.361768 0.000000
O O18 0.710771 0.500000 0.250000
O O19 0.704498 0.551539 0.000000
#
# Coordination Sequence:
#
# PCOD8277640 Si02
#       7
#    16  16  16  16  16  16  16
#     4   8  13  23  37  53  72  94 122 158 200 243
#     4   9  15  25  40  59  81 106 137 170 203 244
#     4   9  17  28  44  64  87 109 130 166 209 246
#     4   8  14  22  33  50  76 105 133 166 198 234
#     4   8  15  27  41  56  77 102 128 162 204 248
#     4   9  18  32  45  62  86 108 132 165 207 250
#     4  11  21  33  48  63  80 106 137 170 209 251
#
# _framework density 14.806063999999999
#
# number of rings (size 3 to 8) (size 9 to 14) (size 15 to 20)
#    0.000    3.143    1.429    3.000    0.000    1.143 
#    0.000    5.000    0.000    0.429    0.000    3.000 
#    0.000    0.000    0.000    0.000    0.000    0.714 
#
# Total GULP energy -693987.037376 kJ/mol
# GULP energy per Si atom -12392.625667 kJ/mol
# Density = 1.477237 g / cm^3
# Si number density = 14.806064 Si / 1000 Ang^3
#
#
#
# Elastic Constant Matrix: (Units=GPa)
#
#
# Indices 1 2 3 4 5 6 
#
# 1 101.3002 30.6405 56.8441 0.0000 0.0000 0.0000
# 2 30.6405 39.3590 27.5995 0.0000 0.0000 0.0000
# 3 56.8441 27.5995 69.0461 0.0000 0.0000 0.0000
# 4 0.0000 0.0000 0.0000 13.3937 0.0000 0.0000
# 5 0.0000 0.0000 0.0000 0.0000 29.8922 0.0000
# 6 0.0000 0.0000 0.0000 0.0000 0.0000 10.9256
#
#
#
# Elastic Compliance Matrix: (Units=1/GPa)
#
#
# Indices 1 2 3 4 5 6 
#
# 1 0.019125 -0.005346 -0.013608 0.000000 0.000000 0.000000
# 2 -0.005346 0.036797 -0.010307 0.000000 0.000000 0.000000
# 3 -0.013608 -0.010307 0.029806 0.000000 0.000000 0.000000
# 4 0.000000 0.000000 0.000000 0.074662 0.000000 0.000000
# 5 0.000000 0.000000 0.000000 0.000000 0.033453 0.000000
# 6 0.000000 0.000000 0.000000 0.000000 0.000000 0.091528
#
#
# Mechanical properties :
#
#
# Convention : Reuss Voigt Hill
#
# Bulk Modulus (GPa) = 36.75791 48.87486 42.81638
# Shear Modulus (GPa) = 14.16578 17.15037 15.65808
#
# Velocity S-wave (km/s) = 3.09650 3.40712 3.25552
# Velocity P-wave (km/s) = 6.13715 6.96848 6.56598
#
# Compressibility (1/GPa) = 0.02720503
#
# Stress axis : x y z
#
# Youngs Moduli (GPa) = 52.28817 27.17632 33.54984
#
# Poissons Ratio (x) = 0.14529 0.45655
# Poissons Ratio (y) = 0.27954 0.34581
# Poissons Ratio (z) = 0.71154 0.28011
#
# Static dielectric constant tensor:
#      x y z
#    x 3.090030 0.000000 0.000000 
#    y 0.000000 2.362230 0.000000 
#    z 0.000000 0.000000 2.842810 
# 
# 
# High freq. dielectric constant tensor:
#      x y z
#    x 1.573860 0.000000 0.000000 
#    y 0.000000 1.498880 0.000000 
#    z 0.000000 0.000000 1.561940 
# 
# From -- ./inp_files/20833.got.cif
#   From: 2010.03.12/outbox.cif.g09.slc.cpg/sg66_11_cif.got.tgz:20833.got - 2010.04.10 21:57:39.
