data_PCOD8277881
_publ_section_title
;
Structure prediction by ZEFSAII (Michael W. Deem and Ramdas Pophale) SiO2 
 PCOD8277881
Probable space group: C C C M
;
_chemical_formula_sum "Si O2"
_cell_formula_units_Z 32
_cell_length_a 7.229989
_cell_length_b 7.591415
_cell_length_c 22.853622
_cell_angle_alpha 90.000000
_cell_angle_beta 90.000000
_cell_angle_gamma 90.000000
_cell_volume 1254.340399
_symmetry_space_group_name_H-M "C C C M"
_symmetry_group_IT_number 66
_symmetry_cell_setting 'orthorhombic'
loop_
_space_group_symop_operation_xyz
x,y,z
-x,-y,z
x,-y,1/2-z
-x,y,1/2-z
-x,-y,-z
x,y,-z
-x,y,1/2+z
x,-y,1/2+z
1/2+x,1/2+y,z
1/2-x,1/2-y,z
1/2+x,1/2-y,1/2-z
1/2-x,1/2+y,1/2-z
1/2-x,1/2-y,-z
1/2+x,1/2+y,-z
1/2-x,1/2+y,1/2+z
1/2+x,1/2-y,1/2+z
loop_
_atom_site_type_symbol
_atom_site_label
_atom_site_fract_x
_atom_site_fract_y
_atom_site_fract_z
Si Si1 0.966088 0.702636 0.000000
Si Si2 0.750000 0.750000 0.597512
Si Si3 0.212033 0.452732 0.812331
O O1 0.750000 0.750000 0.000000
O O2 0.000000 0.500000 0.000000
O O3 0.065417 0.768514 0.941319
O O4 0.715826 0.576709 0.636186
O O5 0.309623 0.500000 0.750000
O O6 0.250000 0.250000 0.829047
O O7 0.000000 0.500000 0.805954
#
# Coordination Sequence:
#
# PCOD8277881 Si02
#       3
#     8   8  16
#     4  11  28  51  79 118 157 215 288 343 415 490
#     4  11  26  50  84 114 166 219 270 352 420 501
#     4  11  25  47  76 117 163 214 272 338 419 516
#
# _framework density 25.511416000000001
#
# number of rings (size 3 to 8) (size 9 to 14) (size 15 to 20)
#    0.000    1.000    2.500    1.500    0.000   18.000 
#    0.000    3.750    0.000    0.000    0.000    0.000 
#    0.000    0.000    0.000    0.000    0.000    0.000 
#
# Total GULP energy -198284.334466 kJ/mol
# GULP energy per Si atom -12392.770904 kJ/mol
# Density = 2.545335 g / cm^3
# Si number density = 25.511416 Si / 1000 Ang^3
#
#
#
# Elastic Constant Matrix: (Units=GPa)
#
#
# Indices 1 2 3 4 5 6 
#
# 1 179.4118 75.5499 78.7234 0.0000 0.0000 0.0000
# 2 75.5499 257.6479 116.5407 0.0000 0.0000 0.0000
# 3 78.7234 116.5407 244.4293 0.0000 0.0000 0.0000
# 4 0.0000 0.0000 0.0000 -9.6727 0.0000 0.0000
# 5 0.0000 0.0000 0.0000 0.0000 12.0187 0.0000
# 6 0.0000 0.0000 0.0000 0.0000 0.0000 44.5951
#
#
#
# Elastic Compliance Matrix: (Units=1/GPa)
#
#
# Indices 1 2 3 4 5 6 
#
# 1 0.006807 -0.001281 -0.001582 0.000000 0.000000 0.000000
# 2 -0.001281 0.005189 -0.002062 0.000000 0.000000 0.000000
# 3 -0.001582 -0.002062 0.005584 0.000000 0.000000 0.000000
# 4 0.000000 0.000000 0.000000 -0.103383 0.000000 0.000000
# 5 0.000000 0.000000 0.000000 0.000000 0.083204 0.000000
# 6 0.000000 0.000000 0.000000 0.000000 0.000000 0.022424
#
#
# Mechanical properties :
#
#
# Convention : Reuss Voigt Hill
#
# Bulk Modulus (GPa) = 129.33604 135.90189 132.61896
# Shear Modulus (GPa) = 155.03906 36.76654 95.90280
#
# Velocity S-wave (km/s) = 7.80412 3.80041 6.13789
# Velocity P-wave (km/s) = 11.48970 8.52315 10.11576
#
# Compressibility (1/GPa) = 0.00773180
#
# Stress axis : x y z
#
# Youngs Moduli (GPa) = 146.90585 192.70198 179.09411
#
# Poissons Ratio (x) = 0.24676 0.28329
# Poissons Ratio (y) = 0.18812 0.36926
# Poissons Ratio (z) = 0.23238 0.39731
#
# Static dielectric constant tensor:
#      x y z
#    x 4.482680 0.000000 0.000000 
#    y 0.000000 4.553030 0.000000 
#    z 0.000000 0.000000 5.059070 
# 
# 
# High freq. dielectric constant tensor:
#      x y z
#    x 2.020220 0.000000 0.000000 
#    y 0.000000 2.029280 0.000000 
#    z 0.000000 0.000000 2.052810 
# 
# From -- ./inp_files/45971.got.cif
#   From: 2010.03.12/outbox.cif.g09.slc.cpg/sg66_23_cif.got.tgz:45971.got - 2010.04.10 21:57:39.
