data_PCOD8277777
_publ_section_title
;
Structure prediction by ZEFSAII (Michael W. Deem and Ramdas Pophale) SiO2 
 PCOD8277777
Probable space group: C C C M
;
_chemical_formula_sum "Si O2"
_cell_formula_units_Z 64
_cell_length_a 10.270304
_cell_length_b 15.241915
_cell_length_c 19.549178
_cell_angle_alpha 90.000000
_cell_angle_beta 90.000000
_cell_angle_gamma 90.000000
_cell_volume 3060.210741
_symmetry_space_group_name_H-M "C C C M"
_symmetry_group_IT_number 66
_symmetry_cell_setting 'orthorhombic'
loop_
_space_group_symop_operation_xyz
x,y,z
-x,-y,z
x,-y,1/2-z
-x,y,1/2-z
-x,-y,-z
x,y,-z
-x,y,1/2+z
x,-y,1/2+z
1/2+x,1/2+y,z
1/2-x,1/2-y,z
1/2+x,1/2-y,1/2-z
1/2-x,1/2+y,1/2-z
1/2-x,1/2-y,-z
1/2+x,1/2+y,-z
1/2-x,1/2+y,1/2+z
1/2+x,1/2-y,1/2+z
loop_
_atom_site_type_symbol
_atom_site_label
_atom_site_fract_x
_atom_site_fract_y
_atom_site_fract_z
Si Si1 0.124564 0.050691 0.131577
Si Si2 0.280600 0.997868 0.000000
Si Si3 0.690374 0.000000 0.750000
Si Si4 0.901917 0.751865 0.878187
Si Si5 0.003336 0.357561 0.500000
Si Si6 0.000000 0.646301 0.750000
O O1 0.064198 0.146382 0.119721
O O2 0.187359 0.006943 0.064959
O O3 0.230024 0.048735 0.191308
O O4 0.000000 0.000000 0.157806
O O5 0.355351 0.904352 0.000000
O O6 0.386970 0.073529 0.000000
O O7 0.605872 0.079406 0.783413
O O8 0.750000 0.750000 0.896765
O O9 0.990435 0.702642 0.933405
O O10 0.932786 0.708441 0.805451
#
# Coordination Sequence:
#
# PCOD8277777 Si02
#       6
#    16   8   8  16   8   8
#     4  12  26  42  65  95 138 176 216 277 341 396
#     4  11  22  43  68 101 132 177 224 270 342 388
#     4  11  23  44  62  92 131 175 222 268 338 401
#     4  12  23  42  67 101 131 172 225 274 333 395
#     4  11  22  42  74  98 132 176 227 282 317 403
#     4  11  24  40  67  96 128 170 225 280 322 407
#
# _framework density 20.913592000000001
#
# number of rings (size 3 to 8) (size 9 to 14) (size 15 to 20)
#    0.000    0.500    5.000    3.375    3.500    4.000 
#    0.000    5.000    0.000    0.000    0.000    0.000 
#    0.000    0.000    0.000    0.000    0.000    0.000 
#
# Total GULP energy -396775.102983 kJ/mol
# GULP energy per Si atom -12399.221968 kJ/mol
# Density = 2.086599 g / cm^3
# Si number density = 20.913592 Si / 1000 Ang^3
#
#
#
# Elastic Constant Matrix: (Units=GPa)
#
#
# Indices 1 2 3 4 5 6 
#
# 1 86.4915 58.2741 21.1053 0.0000 0.0000 0.0000
# 2 58.2741 158.9038 42.1864 0.0000 0.0000 0.0000
# 3 21.1053 42.1864 97.5249 0.0000 0.0000 0.0000
# 4 0.0000 0.0000 0.0000 33.7278 0.0000 0.0000
# 5 0.0000 0.0000 0.0000 0.0000 24.6202 0.0000
# 6 0.0000 0.0000 0.0000 0.0000 0.0000 42.1787
#
#
#
# Elastic Compliance Matrix: (Units=1/GPa)
#
#
# Indices 1 2 3 4 5 6 
#
# 1 0.015443 -0.005396 -0.001008 0.000000 0.000000 0.000000
# 2 -0.005396 0.008995 -0.002723 0.000000 0.000000 0.000000
# 3 -0.001008 -0.002723 0.011650 0.000000 0.000000 0.000000
# 4 0.000000 0.000000 0.000000 0.029649 0.000000 0.000000
# 5 0.000000 0.000000 0.000000 0.000000 0.040617 0.000000
# 6 0.000000 0.000000 0.000000 0.000000 0.000000 0.023709
#
#
# Mechanical properties :
#
#
# Convention : Reuss Voigt Hill
#
# Bulk Modulus (GPa) = 56.07271 65.11688 60.59479
# Shear Modulus (GPa) = 32.41247 34.86231 33.63739
#
# Velocity S-wave (km/s) = 3.94106 4.08728 4.01483
# Velocity P-wave (km/s) = 6.89776 7.31288 7.10835
#
# Compressibility (1/GPa) = 0.01783399
#
# Stress axis : x y z
#
# Youngs Moduli (GPa) = 64.75316 111.17438 85.83756
#
# Poissons Ratio (x) = 0.59988 0.08652
# Poissons Ratio (y) = 0.34940 0.23375
# Poissons Ratio (z) = 0.06527 0.30275
#
# Static dielectric constant tensor:
#      x y z
#    x 3.912980 0.000000 0.000000 
#    y 0.000000 4.658050 0.000000 
#    z 0.000000 0.000000 3.862660 
# 
# 
# High freq. dielectric constant tensor:
#      x y z
#    x 1.821110 0.000000 0.000000 
#    y 0.000000 1.836550 0.000000 
#    z 0.000000 0.000000 1.816530 
# 
# From -- ./inp_files/38101.got.cif
#   From: 2010.03.12/outbox.cif.g09.slc.cpg/sg66_20_cif.got.tgz:38101.got - 2010.04.10 21:57:39.
