data_PCOD8277352
_publ_section_title
;
Structure prediction by ZEFSAII (Michael W. Deem and Ramdas Pophale) SiO2 
 PCOD8277352
Probable space group: C C C M
;
_chemical_formula_sum "Si O2"
_cell_formula_units_Z 112
_cell_length_a 31.695434
_cell_length_b 11.176132
_cell_length_c 14.393237
_cell_angle_alpha 90.000000
_cell_angle_beta 90.000000
_cell_angle_gamma 90.000000
_cell_volume 5098.550227
_symmetry_space_group_name_H-M "C C C M"
_symmetry_group_IT_number 66
_symmetry_cell_setting 'orthorhombic'
loop_
_space_group_symop_operation_xyz
x,y,z
-x,-y,z
x,-y,1/2-z
-x,y,1/2-z
-x,-y,-z
x,y,-z
-x,y,1/2+z
x,-y,1/2+z
1/2+x,1/2+y,z
1/2-x,1/2-y,z
1/2+x,1/2-y,1/2-z
1/2-x,1/2+y,1/2-z
1/2-x,1/2-y,-z
1/2+x,1/2+y,-z
1/2-x,1/2+y,1/2+z
1/2+x,1/2-y,1/2+z
loop_
_atom_site_type_symbol
_atom_site_label
_atom_site_fract_x
_atom_site_fract_y
_atom_site_fract_z
Si Si1 0.516721 0.622547 0.604807
Si Si2 0.604130 0.290505 0.897153
Si Si3 0.771678 0.512397 0.394214
Si Si4 0.312574 0.595307 0.177851
Si Si5 0.021945 0.374104 0.110485
Si Si6 0.895162 0.367599 0.728409
Si Si7 0.197380 0.325375 0.231805
O O1 0.500000 0.500000 0.655349
O O2 0.499227 0.621234 0.500000
O O3 0.567396 0.610131 0.608598
O O4 0.501989 0.752629 0.646251
O O5 0.649290 0.349959 0.879950
O O6 0.589903 0.189811 0.825126
O O7 0.604613 0.232192 0.000000
O O8 0.787969 0.524604 0.500000
O O9 0.721955 0.541711 0.392004
O O10 0.799944 0.594009 0.325987
O O11 0.776836 0.377328 0.355467
O O12 0.331156 0.500000 0.250000
O O13 0.286573 0.693877 0.238514
O O14 0.069093 0.362109 0.150227
O O15 0.000000 0.500000 0.146003
O O16 0.024339 0.378667 0.000000
O O17 0.881647 0.500000 0.750000
O O18 0.851292 0.305315 0.698337
#
# Coordination Sequence:
#
# PCOD8277352 Si02
#       7
#    16  16  16  16  16  16  16
#     4   9  19  38  62  88 125 167 211 263 316 385
#     4  10  23  41  63  96 131 170 221 275 328 395
#     4  11  22  41  70  94 122 173 220 261 329 401
#     4  11  23  41  67  93 136 169 212 277 331 393
#     4  10  22  40  64  95 131 172 219 273 334 401
#     4  11  22  39  61  93 129 169 212 270 332 378
#     4  10  23  43  61  96 134 164 214 281 320 385
#
# _framework density 21.967027999999999
#
# number of rings (size 3 to 8) (size 9 to 14) (size 15 to 20)
#    0.000    1.714    2.857    1.714    0.000   10.000 
#    0.000    2.857    0.000    1.286    0.000    0.000 
#    0.000    0.000    0.000    0.000    0.000    0.000 
#
# Total GULP energy -693860.883880 kJ/mol
# GULP energy per Si atom -12390.372926 kJ/mol
# Density = 2.191703 g / cm^3
# Si number density = 21.967028 Si / 1000 Ang^3
#
#
#
# Elastic Constant Matrix: (Units=GPa)
#
#
# Indices 1 2 3 4 5 6 
#
# 1 102.1108 26.1636 35.7054 0.0000 0.0000 0.0000
# 2 26.1636 125.4732 33.0010 0.0000 0.0000 0.0000
# 3 35.7054 33.0010 104.7200 0.0000 0.0000 0.0000
# 4 0.0000 0.0000 0.0000 10.3782 0.0000 0.0000
# 5 0.0000 0.0000 0.0000 0.0000 21.1478 0.0000
# 6 0.0000 0.0000 0.0000 0.0000 0.0000 26.5871
#
#
#
# Elastic Compliance Matrix: (Units=1/GPa)
#
#
# Indices 1 2 3 4 5 6 
#
# 1 0.011363 -0.001472 -0.003410 0.000000 0.000000 0.000000
# 2 -0.001472 0.008881 -0.002297 0.000000 0.000000 0.000000
# 3 -0.003410 -0.002297 0.011436 0.000000 0.000000 0.000000
# 4 0.000000 0.000000 0.000000 0.096356 0.000000 0.000000
# 5 0.000000 0.000000 0.000000 0.000000 0.047286 0.000000
# 6 0.000000 0.000000 0.000000 0.000000 0.000000 0.037612
#
#
# Mechanical properties :
#
#
# Convention : Reuss Voigt Hill
#
# Bulk Modulus (GPa) = 57.73363 58.00489 57.86926
# Shear Modulus (GPa) = 21.45312 27.45156 24.45234
#
# Velocity S-wave (km/s) = 3.12846 3.53890 3.33999
# Velocity P-wave (km/s) = 6.27604 6.56972 6.42456
#
# Compressibility (1/GPa) = 0.01732093
#
# Stress axis : x y z
#
# Youngs Moduli (GPa) = 88.00437 112.60110 87.44457
#
# Poissons Ratio (x) = 0.16580 0.29821
# Poissons Ratio (y) = 0.12958 0.20083
# Poissons Ratio (z) = 0.30012 0.25860
#
# Static dielectric constant tensor:
#      x y z
#    x 3.981230 0.000000 0.000000 
#    y 0.000000 4.249580 0.000000 
#    z 0.000000 0.000000 3.890860 
# 
# 
# High freq. dielectric constant tensor:
#      x y z
#    x 1.876550 0.000000 0.000000 
#    y 0.000000 1.863410 0.000000 
#    z 0.000000 0.000000 1.843850 
# 
# From -- ./inp_files/33845.got.cif
#   From: 2010.03.12/outbox.cif.g09.slc.cpg/sg66_17_cif.got.tgz:33845.got - 2010.04.10 21:57:39.
