data_PCOD8277029
_publ_section_title
;
Structure prediction by ZEFSAII (Michael W. Deem and Ramdas Pophale) SiO2 
 PCOD8277029
Probable space group: C C C M
;
_chemical_formula_sum "Si O2"
_cell_formula_units_Z 96
_cell_length_a 15.240935
_cell_length_b 19.224589
_cell_length_c 16.308598
_cell_angle_alpha 90.000000
_cell_angle_beta 90.000000
_cell_angle_gamma 90.000000
_cell_volume 4778.430815
_symmetry_space_group_name_H-M "C C C M"
_symmetry_group_IT_number 66
_symmetry_cell_setting 'orthorhombic'
loop_
_space_group_symop_operation_xyz
x,y,z
-x,-y,z
x,-y,1/2-z
-x,y,1/2-z
-x,-y,-z
x,y,-z
-x,y,1/2+z
x,-y,1/2+z
1/2+x,1/2+y,z
1/2-x,1/2-y,z
1/2+x,1/2-y,1/2-z
1/2-x,1/2+y,1/2-z
1/2-x,1/2-y,-z
1/2+x,1/2+y,-z
1/2-x,1/2+y,1/2+z
1/2+x,1/2-y,1/2+z
loop_
_atom_site_type_symbol
_atom_site_label
_atom_site_fract_x
_atom_site_fract_y
_atom_site_fract_z
Si Si1 0.045571 0.303819 0.829459
Si Si2 0.623664 0.672114 0.095680
Si Si3 0.589871 0.524117 0.155991
Si Si4 0.761822 0.453712 0.173584
Si Si5 0.766012 0.676087 0.224520
Si Si6 0.946605 0.433634 0.904083
O O1 0.063201 0.240480 0.892124
O O2 0.134127 0.341152 0.798543
O O3 0.000000 0.270116 0.750000
O O4 0.982666 0.362252 0.866691
O O5 0.584308 0.606281 0.143190
O O6 0.717844 0.682633 0.136861
O O7 0.635170 0.656490 0.000000
O O8 0.500000 0.500000 0.111463
O O9 0.588490 0.500000 0.250000
O O10 0.681173 0.489729 0.122344
O O11 0.793391 0.500000 0.250000
O O12 0.728233 0.381281 0.213197
O O13 0.843371 0.442093 0.113532
O O14 0.750000 0.750000 0.270021
O O15 0.000000 0.500000 0.868742
O O16 0.961312 0.428445 0.000000
#
# Coordination Sequence:
#
# PCOD8277029 Si02
#       6
#    16  16  16  16  16  16
#     4  11  23  39  66  93 129 175 214 258 320 398
#     4  11  24  41  64  96 131 164 213 276 333 377
#     4  10  22  39  66  91 122 164 215 270 316 386
#     4  11  20  40  63  92 127 165 217 263 315 396
#     4  10  21  37  61  94 123 169 212 259 319 391
#     4  11  25  40  62  95 132 169 211 267 326 386
#
# _framework density 20.090278000000001
#
# number of rings (size 3 to 8) (size 9 to 14) (size 15 to 20)
#    0.000    1.333    5.000    1.500    2.333    4.667 
#    0.000    0.000    0.000    0.500    0.000    0.000 
#    0.000    0.000    0.000    0.000    0.000    0.000 
#
# Total GULP energy -594872.847767 kJ/mol
# GULP energy per Si atom -12393.184328 kJ/mol
# Density = 2.004455 g / cm^3
# Si number density = 20.090278 Si / 1000 Ang^3
#
#
#
# Elastic Constant Matrix: (Units=GPa)
#
#
# Indices 1 2 3 4 5 6 
#
# 1 140.1340 44.1725 15.9400 0.0000 0.0000 0.0000
# 2 44.1725 145.1402 29.7754 0.0000 0.0000 0.0000
# 3 15.9400 29.7754 61.5696 0.0000 0.0000 0.0000
# 4 0.0000 0.0000 0.0000 23.5900 0.0000 0.0000
# 5 0.0000 0.0000 0.0000 0.0000 19.9979 0.0000
# 6 0.0000 0.0000 0.0000 0.0000 0.0000 27.7689
#
#
#
# Elastic Compliance Matrix: (Units=1/GPa)
#
#
# Indices 1 2 3 4 5 6 
#
# 1 0.007947 -0.002216 -0.000986 0.000000 0.000000 0.000000
# 2 -0.002216 0.008267 -0.003424 0.000000 0.000000 0.000000
# 3 -0.000986 -0.003424 0.018153 0.000000 0.000000 0.000000
# 4 0.000000 0.000000 0.000000 0.042391 0.000000 0.000000
# 5 0.000000 0.000000 0.000000 0.000000 0.050005 0.000000
# 6 0.000000 0.000000 0.000000 0.000000 0.000000 0.036011
#
#
# Mechanical properties :
#
#
# Convention : Reuss Voigt Hill
#
# Bulk Modulus (GPa) = 47.36082 58.51330 52.93706
# Shear Modulus (GPa) = 27.31282 31.40176 29.35729
#
# Velocity S-wave (km/s) = 3.69115 3.95781 3.82680
# Velocity P-wave (km/s) = 6.46462 7.07630 6.77736
#
# Compressibility (1/GPa) = 0.02111450
#
# Stress axis : x y z
#
# Youngs Moduli (GPa) = 125.83737 120.96467 55.08775
#
# Poissons Ratio (x) = 0.26810 0.05429
# Poissons Ratio (y) = 0.27890 0.18863
# Poissons Ratio (z) = 0.12402 0.41420
#
# Static dielectric constant tensor:
#      x y z
#    x 4.107250 0.000000 0.000000 
#    y 0.000000 4.052230 0.000000 
#    z 0.000000 0.000000 3.283850 
# 
# 
# High freq. dielectric constant tensor:
#      x y z
#    x 1.794450 0.000000 0.000000 
#    y 0.000000 1.802240 0.000000 
#    z 0.000000 0.000000 1.749740 
# 
# From -- ./inp_files/28394.got.cif
#   From: 2010.03.12/outbox.cif.g09.slc.cpg/sg66_15_cif.got.tgz:28394.got - 2010.04.10 21:57:39.
