data_PCOD8277931
_publ_section_title
;
Structure prediction by ZEFSAII (Michael W. Deem and Ramdas Pophale) SiO2 
 PCOD8277931
Probable space group: C C C M
;
_chemical_formula_sum "Si O2"
_cell_formula_units_Z 48
_cell_length_a 27.000000
_cell_length_b 21.000000
_cell_length_c 9.000000
_cell_angle_alpha 90.000000
_cell_angle_beta 90.000000
_cell_angle_gamma 90.000000
_cell_volume 5103.000000
_symmetry_space_group_name_H-M "C C C M"
_symmetry_group_IT_number 66
_symmetry_cell_setting 'orthorhombic'
loop_
_space_group_symop_operation_xyz
x,y,z
-x,-y,z
x,-y,1/2-z
-x,y,1/2-z
-x,-y,-z
x,y,-z
-x,y,1/2+z
x,-y,1/2+z
1/2+x,1/2+y,z
1/2-x,1/2-y,z
1/2+x,1/2-y,1/2-z
1/2-x,1/2+y,1/2-z
1/2-x,1/2-y,-z
1/2+x,1/2+y,-z
1/2-x,1/2+y,1/2+z
1/2+x,1/2-y,1/2+z
loop_
_atom_site_type_symbol
_atom_site_label
_atom_site_fract_x
_atom_site_fract_y
_atom_site_fract_z
Si Si1 0.780719 0.814367 0.175595
Si Si2 0.726133 0.933600 0.676007
Si Si3 0.886811 0.182527 0.177244
Si Si4 0.446509 0.567480 0.319013
Si Si5 0.889423 0.435236 0.827153
Si Si6 0.447020 0.190144 0.674895
O O1 0.750000 0.750000 0.204905
O O2 0.753100 0.875206 0.244166
O O3 0.831967 0.806467 0.262245
O O4 0.789294 0.825286 0.000000
O O5 0.738128 0.934399 0.500000
O O6 0.668150 0.924152 0.707219
O O7 0.744271 0.000000 0.750000
O O8 0.909543 0.122387 0.264641
O O9 0.916995 0.246309 0.217349
O O10 0.886375 0.169672 0.000000
O O11 0.428290 0.500000 0.250000
O O12 0.500000 0.583710 0.250000
O O13 0.448561 0.564404 0.500000
O O14 0.908902 0.500000 0.750000
O O15 0.918459 0.373038 0.766681
O O16 0.899179 0.444452 0.000000
O O17 0.500000 0.194003 0.750000
O O18 0.454443 0.185855 0.500000
#
# Coordination Sequence:
#
# PCOD8277931 Si02
#       6
#    16  16  16  16  16  16
#     4  11  24  40  59  86 118 151 191 239 290 346
#     4  10  20  37  61  86 115 151 191 235 285 341
#     4  11  23  40  61  85 114 151 194 240 290 343
#     4  11  22  39  62  89 120 154 193 236 286 343
#     4   9  19  36  57  83 113 148 188 230 277 331
#     4  10  22  38  57  82 113 148 188 232 280 334
#
# _framework density 9.4062319999999993
#
# number of rings (size 3 to 8) (size 9 to 14) (size 15 to 20)
#    0.000    1.667    0.000    5.000    0.000    7.667 
#    0.000    5.000    0.000    0.000    0.000    0.000 
#    0.000    0.000    0.000    0.000    0.000    0.000 
#
# Total GULP energy -595244.717391 kJ/mol
# GULP energy per Si atom -12400.931612 kJ/mol
# Density = 0.938482 g / cm^3
# Si number density = 9.406232 Si / 1000 Ang^3
#
#
#
# Elastic Constant Matrix: (Units=GPa)
#
#
# Indices 1 2 3 4 5 6 
#
# 1 117.4646 81.2452 52.4545 0.0000 0.0000 0.0000
# 2 81.2452 191.5632 68.8271 0.0000 0.0000 0.0000
# 3 52.4545 68.8271 131.5667 0.0000 0.0000 0.0000
# 4 0.0000 0.0000 0.0000 41.1449 0.0000 0.0000
# 5 0.0000 0.0000 0.0000 0.0000 38.2383 0.0000
# 6 0.0000 0.0000 0.0000 0.0000 0.0000 45.8794
#
#
#
# Elastic Compliance Matrix: (Units=1/GPa)
#
#
# Indices 1 2 3 4 5 6 
#
# 1 0.012830 -0.004438 -0.002794 0.000000 0.000000 0.000000
# 2 -0.004438 0.007963 -0.002397 0.000000 0.000000 0.000000
# 3 -0.002794 -0.002397 0.009968 0.000000 0.000000 0.000000
# 4 0.000000 0.000000 0.000000 0.024304 0.000000 0.000000
# 5 0.000000 0.000000 0.000000 0.000000 0.026152 0.000000
# 6 0.000000 0.000000 0.000000 0.000000 0.000000 0.021796
#
#
# Mechanical properties :
#
#
# Convention : Reuss Voigt Hill
#
# Bulk Modulus (GPa) = 86.91382 93.96090 90.43736
# Shear Modulus (GPa) = 39.64925 40.92369 40.28647
#
# Velocity S-wave (km/s) = 4.59585 4.66912 4.63263
# Velocity P-wave (km/s) = 8.62919 8.89506 8.76313
#
# Compressibility (1/GPa) = 0.01150565
#
# Stress axis : x y z
#
# Youngs Moduli (GPa) = 77.94142 125.57412 100.31770
#
# Poissons Ratio (x) = 0.55726 0.28026
# Poissons Ratio (y) = 0.34588 0.24043
# Poissons Ratio (z) = 0.21775 0.30096
#
# Static dielectric constant tensor:
#      x y z
#    x 3.518300 0.000000 0.000000 
#    y 0.000000 3.890830 0.000000 
#    z 0.000000 0.000000 3.751450 
# 
# 
# High freq. dielectric constant tensor:
#      x y z
#    x 1.738230 0.000000 0.000000 
#    y 0.000000 1.766290 0.000000 
#    z 0.000000 0.000000 1.754060 
# 
# From -- ./inp_files/10244.got.cif
#   From: 2010.03.12/outbox.ucp.g09.slc.cvg/sg66_6_cif.got.tgz:10244.got - 2010.05.04 19:46:57.
