data_PCOD8277129
_publ_section_title
;
Structure prediction by ZEFSAII (Michael W. Deem and Ramdas Pophale) SiO2 
 PCOD8277129
Probable space group: C C C M
;
_chemical_formula_sum "Si O2"
_cell_formula_units_Z 96
_cell_length_a 28.383442
_cell_length_b 8.948455
_cell_length_c 19.548075
_cell_angle_alpha 90.000000
_cell_angle_beta 90.000000
_cell_angle_gamma 90.000000
_cell_volume 4964.975564
_symmetry_space_group_name_H-M "C C C M"
_symmetry_group_IT_number 66
_symmetry_cell_setting 'orthorhombic'
loop_
_space_group_symop_operation_xyz
x,y,z
-x,-y,z
x,-y,1/2-z
-x,y,1/2-z
-x,-y,-z
x,y,-z
-x,y,1/2+z
x,-y,1/2+z
1/2+x,1/2+y,z
1/2-x,1/2-y,z
1/2+x,1/2-y,1/2-z
1/2-x,1/2+y,1/2-z
1/2-x,1/2-y,-z
1/2+x,1/2+y,-z
1/2-x,1/2+y,1/2+z
1/2+x,1/2-y,1/2+z
loop_
_atom_site_type_symbol
_atom_site_label
_atom_site_fract_x
_atom_site_fract_y
_atom_site_fract_z
Si Si1 0.701950 0.655899 0.658401
Si Si2 0.382223 0.800660 0.080991
Si Si3 0.128485 0.426188 0.181230
Si Si4 0.800333 0.818704 0.815716
Si Si5 0.481986 0.662093 0.921129
Si Si6 0.974408 0.656790 0.811801
O O1 0.750000 0.750000 0.645404
O O2 0.663851 0.712680 0.604564
O O3 0.684996 0.673208 0.736219
O O4 0.704521 0.477601 0.645924
O O5 0.428027 0.699939 0.099850
O O6 0.383005 0.957519 0.120946
O O7 0.379800 0.832155 0.000000
O O8 0.151957 0.500000 0.250000
O O9 0.161851 0.295248 0.150817
O O10 0.080201 0.352914 0.206591
O O11 0.750000 0.750000 0.824705
O O12 0.500000 0.500000 0.899357
O O13 0.519080 0.768511 0.884654
O O14 0.489400 0.691950 0.000000
O O15 0.000000 0.500000 0.816263
O O16 0.000000 0.748637 0.750000
#
# Coordination Sequence:
#
# PCOD8277129 Si02
#       6
#    16  16  16  16  16  16
#     4  10  21  39  62  90 121 155 200 252 309 368
#     4  11  23  39  60  88 123 166 203 245 313 364
#     4  12  21  38  62  88 124 156 200 256 300 362
#     4  10  22  37  64  93 115 155 206 252 304 366
#     4  10  23  41  59  81 119 164 204 243 290 361
#     4  11  21  37  57  90 120 153 196 247 307 352
#
# _framework density 19.335443000000001
#
# number of rings (size 3 to 8) (size 9 to 14) (size 15 to 20)
#    0.000    1.333    5.000    1.000    4.667    1.667 
#    0.000    0.833    0.000    2.000    0.000    0.000 
#    0.000    0.000    0.000    0.000    0.000    0.000 
#
# Total GULP energy -594917.333695 kJ/mol
# GULP energy per Si atom -12394.111119 kJ/mol
# Density = 1.929143 g / cm^3
# Si number density = 19.335443 Si / 1000 Ang^3
#
#
#
# Elastic Constant Matrix: (Units=GPa)
#
#
# Indices 1 2 3 4 5 6 
#
# 1 107.3067 68.3034 39.8198 0.0000 0.0000 0.0000
# 2 68.3034 130.6463 49.0016 0.0000 0.0000 0.0000
# 3 39.8198 49.0016 59.3618 0.0000 0.0000 0.0000
# 4 0.0000 0.0000 0.0000 10.5768 0.0000 0.0000
# 5 0.0000 0.0000 0.0000 0.0000 38.7655 0.0000
# 6 0.0000 0.0000 0.0000 0.0000 0.0000 43.1749
#
#
#
# Elastic Compliance Matrix: (Units=1/GPa)
#
#
# Indices 1 2 3 4 5 6 
#
# 1 0.014998 -0.005892 -0.005197 0.000000 0.000000 0.000000
# 2 -0.005892 0.013401 -0.007110 0.000000 0.000000 0.000000
# 3 -0.005197 -0.007110 0.026201 0.000000 0.000000 0.000000
# 4 0.000000 0.000000 0.000000 0.094546 0.000000 0.000000
# 5 0.000000 0.000000 0.000000 0.000000 0.025796 0.000000
# 6 0.000000 0.000000 0.000000 0.000000 0.000000 0.023162
#
#
# Mechanical properties :
#
#
# Convention : Reuss Voigt Hill
#
# Bulk Modulus (GPa) = 54.93782 67.95161 61.44472
# Shear Modulus (GPa) = 20.78394 27.84944 24.31669
#
# Velocity S-wave (km/s) = 3.28214 3.79929 3.55014
# Velocity P-wave (km/s) = 6.54507 7.38010 6.97510
#
# Compressibility (1/GPa) = 0.01820240
#
# Stress axis : x y z
#
# Youngs Moduli (GPa) = 66.67587 74.61881 38.16597
#
# Poissons Ratio (x) = 0.43964 0.19835
# Poissons Ratio (y) = 0.39284 0.27137
# Poissons Ratio (z) = 0.34652 0.53056
#
# Static dielectric constant tensor:
#      x y z
#    x 3.461060 0.000000 0.000000 
#    y 0.000000 3.964830 0.000000 
#    z 0.000000 0.000000 3.749010 
# 
# 
# High freq. dielectric constant tensor:
#      x y z
#    x 1.762080 0.000000 0.000000 
#    y 0.000000 1.755580 0.000000 
#    z 0.000000 0.000000 1.734650 
# 
# From -- ./inp_files/52991.got.cif
#   From: 2010.03.12/outbox.cif.g09.slc.cpg/sg66_27_cif.got.tgz:52991.got - 2010.04.10 21:57:39.
