data_PCOD8277056
_publ_section_title
;
Structure prediction by ZEFSAII (Michael W. Deem and Ramdas Pophale) SiO2 
 PCOD8277056
Probable space group: C C C M
;
_chemical_formula_sum "Si O2"
_cell_formula_units_Z 96
_cell_length_a 28.778535
_cell_length_b 20.221550
_cell_length_c 8.697360
_cell_angle_alpha 90.000000
_cell_angle_beta 90.000000
_cell_angle_gamma 90.000000
_cell_volume 5061.398946
_symmetry_space_group_name_H-M "C C C M"
_symmetry_group_IT_number 66
_symmetry_cell_setting 'orthorhombic'
loop_
_space_group_symop_operation_xyz
x,y,z
-x,-y,z
x,-y,1/2-z
-x,y,1/2-z
-x,-y,-z
x,y,-z
-x,y,1/2+z
x,-y,1/2+z
1/2+x,1/2+y,z
1/2-x,1/2-y,z
1/2+x,1/2-y,1/2-z
1/2-x,1/2+y,1/2-z
1/2-x,1/2-y,-z
1/2+x,1/2+y,-z
1/2-x,1/2+y,1/2+z
1/2+x,1/2-y,1/2+z
loop_
_atom_site_type_symbol
_atom_site_label
_atom_site_fract_x
_atom_site_fract_y
_atom_site_fract_z
Si Si1 0.551563 0.318203 0.818856
Si Si2 0.308406 0.191271 0.681669
Si Si3 0.596341 0.188734 0.319617
Si Si4 0.708677 0.340061 0.180815
Si Si5 0.050265 0.563776 0.182155
Si Si6 0.125416 0.072032 0.680755
O O1 0.500000 0.322291 0.750000
O O2 0.581946 0.258957 0.750310
O O3 0.579694 0.385119 0.778705
O O4 0.547317 0.307370 0.000000
O O5 0.318709 0.187451 0.500000
O O6 0.351568 0.165568 0.778963
O O7 0.302168 0.266487 0.738017
O O8 0.262908 0.146573 0.723120
O O9 0.588367 0.190936 0.500000
O O10 0.565255 0.133993 0.243144
O O11 0.672189 0.393054 0.251419
O O12 0.702096 0.341016 0.000000
O O13 0.079048 0.500000 0.250000
O O14 0.000000 0.554995 0.250000
O O15 0.051957 0.562683 0.000000
O O16 0.131070 0.064479 0.500000
O O17 0.118921 0.000000 0.750000
#
# Coordination Sequence:
#
# PCOD8277056 Si02
#       6
#    16  16  16  16  16  16
#     4  11  23  40  60  83 114 150 197 248 298 349
#     4   9  16  32  59  84 109 144 187 232 282 337
#     4  12  23  36  56  87 121 153 191 236 289 342
#     4   8  15  32  58  83 107 143 189 231 280 343
#     4  11  22  39  60  83 113 150 191 232 281 340
#     4  10  21  38  59  83 114 153 195 240 295 355
#
# _framework density 18.967089000000001
#
# number of rings (size 3 to 8) (size 9 to 14) (size 15 to 20)
#    0.000    1.833    1.667    5.500    0.000    1.667 
#    0.000    5.000    0.000    2.000    0.000    0.000 
#    0.000    0.000    0.000    0.000    0.000    0.000 
#
# Total GULP energy -594813.094076 kJ/mol
# GULP energy per Si atom -12391.939460 kJ/mol
# Density = 1.892392 g / cm^3
# Si number density = 18.967089 Si / 1000 Ang^3
#
#
#
# Elastic Constant Matrix: (Units=GPa)
#
#
# Indices 1 2 3 4 5 6 
#
# 1 117.1698 35.6145 47.7552 0.0000 0.0000 0.0000
# 2 35.6145 94.9464 49.2927 0.0000 0.0000 0.0000
# 3 47.7552 49.2927 101.1811 0.0000 0.0000 0.0000
# 4 0.0000 0.0000 0.0000 31.0344 0.0000 0.0000
# 5 0.0000 0.0000 0.0000 0.0000 45.4512 0.0000
# 6 0.0000 0.0000 0.0000 0.0000 0.0000 30.2019
#
#
#
# Elastic Compliance Matrix: (Units=1/GPa)
#
#
# Indices 1 2 3 4 5 6 
#
# 1 0.010813 -0.001883 -0.004186 0.000000 0.000000 0.000000
# 2 -0.001883 0.014426 -0.006139 0.000000 0.000000 0.000000
# 3 -0.004186 -0.006139 0.014850 0.000000 0.000000 0.000000
# 4 0.000000 0.000000 0.000000 0.032222 0.000000 0.000000
# 5 0.000000 0.000000 0.000000 0.000000 0.022002 0.000000
# 6 0.000000 0.000000 0.000000 0.000000 0.000000 0.033111
#
#
# Mechanical properties :
#
#
# Convention : Reuss Voigt Hill
#
# Bulk Modulus (GPa) = 63.80671 64.29136 64.04903
# Shear Modulus (GPa) = 31.83416 33.37982 32.60699
#
# Velocity S-wave (km/s) = 4.10126 4.19964 4.15074
# Velocity P-wave (km/s) = 7.49272 7.58194 7.53747
#
# Compressibility (1/GPa) = 0.01567233
#
# Stress axis : x y z
#
# Youngs Moduli (GPa) = 92.48036 69.32069 67.33986
#
# Poissons Ratio (x) = 0.13050 0.28191
# Poissons Ratio (y) = 0.17410 0.41342
# Poissons Ratio (z) = 0.38716 0.42558
#
# Static dielectric constant tensor:
#      x y z
#    x 3.757890 0.000000 0.000000 
#    y 0.000000 3.649580 0.000000 
#    z 0.000000 0.000000 3.333970 
# 
# 
# High freq. dielectric constant tensor:
#      x y z
#    x 1.745960 0.000000 0.000000 
#    y 0.000000 1.731260 0.000000 
#    z 0.000000 0.000000 1.723990 
# 
# From -- ./inp_files/10252.got.cif
#   From: 2010.03.12/outbox.cif.g09.slc.cpg/sg66_6_cif.got.tgz:10252.got - 2010.04.10 21:57:39.
