data_PCOD8277367
_publ_section_title
;
Structure prediction by ZEFSAII (Michael W. Deem and Ramdas Pophale) SiO2 
 PCOD8277367
Probable space group: C C C M
;
_chemical_formula_sum "Si O2"
_cell_formula_units_Z 112
_cell_length_a 25.894972
_cell_length_b 14.372760
_cell_length_c 15.319909
_cell_angle_alpha 90.000000
_cell_angle_beta 90.000000
_cell_angle_gamma 90.000000
_cell_volume 5701.797708
_symmetry_space_group_name_H-M "C C C M"
_symmetry_group_IT_number 66
_symmetry_cell_setting 'orthorhombic'
loop_
_space_group_symop_operation_xyz
x,y,z
-x,-y,z
x,-y,1/2-z
-x,y,1/2-z
-x,-y,-z
x,y,-z
-x,y,1/2+z
x,-y,1/2+z
1/2+x,1/2+y,z
1/2-x,1/2-y,z
1/2+x,1/2-y,1/2-z
1/2-x,1/2+y,1/2-z
1/2-x,1/2-y,-z
1/2+x,1/2+y,-z
1/2-x,1/2+y,1/2+z
1/2+x,1/2-y,1/2+z
loop_
_atom_site_type_symbol
_atom_site_label
_atom_site_fract_x
_atom_site_fract_y
_atom_site_fract_z
Si Si1 0.709433 0.173321 0.197393
Si Si2 0.873442 0.616707 0.170528
Si Si3 0.946542 0.277371 0.207383
Si Si4 0.866138 0.190596 0.898434
Si Si5 0.291936 0.533236 0.151647
Si Si6 0.781508 0.889104 0.000000
Si Si7 0.055996 0.460378 0.397985
Si Si8 0.330046 0.198719 0.000000
O O1 0.750000 0.250000 0.237014
O O2 0.679682 0.116975 0.273678
O O3 0.670027 0.223412 0.131837
O O4 0.740659 0.096332 0.142785
O O5 0.914682 0.684618 0.212072
O O6 0.898575 0.513708 0.156393
O O7 0.863335 0.664970 0.079983
O O8 0.918517 0.191091 0.159385
O O9 0.948252 0.354842 0.131949
O O10 0.000000 0.244442 0.250000
O O11 0.840759 0.091651 0.880499
O O12 0.878492 0.203127 0.000000
O O13 0.300995 0.500000 0.250000
O O14 0.287018 0.446291 0.088633
O O15 0.725616 0.845959 0.000000
O O16 0.825505 0.810381 0.000000
O O17 0.069271 0.466343 0.500000
O O18 0.000000 0.500000 0.375455
#
# Coordination Sequence:
#
# PCOD8277367 Si02
#       8
#    16  16  16  16  16   8  16   8
#     4   9  22  37  63  89 130 161 212 257 308 374
#     4  11  22  39  60  86 124 172 209 254 305 376
#     4  11  23  39  63  87 124 163 205 261 317 371
#     4  10  22  41  64  94 123 161 216 259 313 382
#     4  11  23  41  64  91 124 170 206 262 320 376
#     4  11  26  40  65  87 131 165 205 264 313 370
#     4  11  22  38  58  87 125 162 209 255 305 376
#     4  11  26  40  57  93 125 161 214 250 311 377
#
# _framework density 19.642928000000001
#
# number of rings (size 3 to 8) (size 9 to 14) (size 15 to 20)
#    0.000    1.429    2.857    1.714    9.000    6.571 
#    1.286    0.000    0.000    0.429    0.000    2.000 
#    0.000    0.000    0.000    0.000    0.000    0.000 
#
# Total GULP energy -694381.586755 kJ/mol
# GULP energy per Si atom -12399.671192 kJ/mol
# Density = 1.959822 g / cm^3
# Si number density = 19.642928 Si / 1000 Ang^3
#
#
#
# Elastic Constant Matrix: (Units=GPa)
#
#
# Indices 1 2 3 4 5 6 
#
# 1 106.9357 27.2067 34.8729 0.0000 0.0000 0.0000
# 2 27.2067 76.6522 23.1508 0.0000 0.0000 0.0000
# 3 34.8729 23.1508 98.9539 0.0000 0.0000 0.0000
# 4 0.0000 0.0000 0.0000 54.0429 0.0000 0.0000
# 5 0.0000 0.0000 0.0000 0.0000 33.9313 0.0000
# 6 0.0000 0.0000 0.0000 0.0000 0.0000 26.3896
#
#
#
# Elastic Compliance Matrix: (Units=1/GPa)
#
#
# Indices 1 2 3 4 5 6 
#
# 1 0.011167 -0.002986 -0.003237 0.000000 0.000000 0.000000
# 2 -0.002986 0.014836 -0.002419 0.000000 0.000000 0.000000
# 3 -0.003237 -0.002419 0.011812 0.000000 0.000000 0.000000
# 4 0.000000 0.000000 0.000000 0.018504 0.000000 0.000000
# 5 0.000000 0.000000 0.000000 0.000000 0.029471 0.000000
# 6 0.000000 0.000000 0.000000 0.000000 0.000000 0.037894
#
#
# Mechanical properties :
#
#
# Convention : Reuss Voigt Hill
#
# Bulk Modulus (GPa) = 48.70344 50.33362 49.51853
# Shear Modulus (GPa) = 33.82701 36.02685 34.92693
#
# Velocity S-wave (km/s) = 4.15432 4.28727 4.22132
# Velocity P-wave (km/s) = 6.91804 7.08431 7.00167
#
# Compressibility (1/GPa) = 0.02053243
#
# Stress axis : x y z
#
# Youngs Moduli (GPa) = 89.55262 67.40247 84.65776
#
# Poissons Ratio (x) = 0.20126 0.27401
# Poissons Ratio (y) = 0.26739 0.20477
# Poissons Ratio (z) = 0.28986 0.16303
#
# Static dielectric constant tensor:
#      x y z
#    x 3.900260 0.000000 0.000000 
#    y 0.000000 3.659550 0.000000 
#    z 0.000000 0.000000 2.771040 
# 
# 
# High freq. dielectric constant tensor:
#      x y z
#    x 1.763170 0.000000 0.000000 
#    y 0.000000 1.749810 0.000000 
#    z 0.000000 0.000000 1.780640 
# 
# From -- ./inp_files/28916.got.cif
#   From: 2010.03.12/outbox.cif.g09.slc.cpg/sg66_15_cif.got.tgz:28916.got - 2010.04.10 21:57:39.
