data_PCOD8277249
_publ_section_title
;
Structure prediction by ZEFSAII (Michael W. Deem and Ramdas Pophale) SiO2 
 PCOD8277249
Probable space group: C C C M
;
_chemical_formula_sum "Si O2"
_cell_formula_units_Z 68
_cell_length_a 16.165672
_cell_length_b 10.010199
_cell_length_c 20.510887
_cell_angle_alpha 90.000000
_cell_angle_beta 90.000000
_cell_angle_gamma 90.000000
_cell_volume 3319.104422
_symmetry_space_group_name_H-M "C C C M"
_symmetry_group_IT_number 66
_symmetry_cell_setting 'orthorhombic'
loop_
_space_group_symop_operation_xyz
x,y,z
-x,-y,z
x,-y,1/2-z
-x,y,1/2-z
-x,-y,-z
x,y,-z
-x,y,1/2+z
x,-y,1/2+z
1/2+x,1/2+y,z
1/2-x,1/2-y,z
1/2+x,1/2-y,1/2-z
1/2-x,1/2+y,1/2-z
1/2-x,1/2-y,-z
1/2+x,1/2+y,-z
1/2-x,1/2+y,1/2+z
1/2+x,1/2-y,1/2+z
loop_
_atom_site_type_symbol
_atom_site_label
_atom_site_fract_x
_atom_site_fract_y
_atom_site_fract_z
Si Si1 0.501586 0.350180 0.426678
Si Si2 0.000000 0.500000 0.750000
Si Si3 0.884773 0.307576 0.333275
Si Si4 0.181468 0.143941 0.426130
Si Si5 0.219250 0.936381 0.681554
O O1 0.500000 0.500000 0.395411
O O2 0.534964 0.364498 0.500000
O O3 0.562299 0.244556 0.393728
O O4 0.409125 0.288152 0.424179
O O5 0.942735 0.400842 0.709493
O O6 0.847097 0.177162 0.296930
O O7 0.803093 0.388447 0.354738
O O8 0.199638 0.091124 0.500000
O O9 0.250000 0.250000 0.404193
O O10 0.177485 0.028036 0.372784
O O11 0.245653 0.000000 0.750000
#
# Coordination Sequence:
#
# PCOD8277249 Si02
#       5
#    16   4  16  16  16
#     4  10  21  42  68  98 127 164 221 276 332 408
#     4  12  28  44  60  96 132 170 232 276 332 392
#     4  11  26  42  64  92 127 178 212 278 338 386
#     4  10  23  42  69  99 133 173 218 275 334 403
#     4  11  25  43  64  96 132 177 223 271 336 409
#
# _framework density 20.487454
#
# number of rings (size 3 to 8) (size 9 to 14) (size 15 to 20)
#    0.000    1.412    3.529    0.000    9.882    0.941 
#    0.000    2.941    0.000    0.000    0.000    0.000 
#    0.000    0.000    0.000    0.000    0.000    0.000 
#
# Total GULP energy -421285.354610 kJ/mol
# GULP energy per Si atom -12390.745724 kJ/mol
# Density = 2.044082 g / cm^3
# Si number density = 20.487454 Si / 1000 Ang^3
#
#
#
# Elastic Constant Matrix: (Units=GPa)
#
#
# Indices 1 2 3 4 5 6 
#
# 1 143.5686 61.5603 46.8194 0.0000 0.0000 0.0000
# 2 61.5603 102.6486 54.7705 0.0000 0.0000 0.0000
# 3 46.8194 54.7705 95.0909 0.0000 0.0000 0.0000
# 4 0.0000 0.0000 0.0000 32.0679 0.0000 0.0000
# 5 0.0000 0.0000 0.0000 0.0000 29.7579 0.0000
# 6 0.0000 0.0000 0.0000 0.0000 0.0000 39.6819
#
#
#
# Elastic Compliance Matrix: (Units=1/GPa)
#
#
# Indices 1 2 3 4 5 6 
#
# 1 0.009645 -0.004692 -0.002046 0.000000 0.000000 0.000000
# 2 -0.004692 0.016347 -0.007105 0.000000 0.000000 0.000000
# 3 -0.002046 -0.007105 0.015616 0.000000 0.000000 0.000000
# 4 0.000000 0.000000 0.000000 0.031184 0.000000 0.000000
# 5 0.000000 0.000000 0.000000 0.000000 0.033604 0.000000
# 6 0.000000 0.000000 0.000000 0.000000 0.000000 0.025200
#
#
# Mechanical properties :
#
#
# Convention : Reuss Voigt Hill
#
# Bulk Modulus (GPa) = 71.83559 74.17872 73.00715
# Shear Modulus (GPa) = 30.50190 32.17875 31.34032
#
# Velocity S-wave (km/s) = 3.86269 3.96745 3.91542
# Velocity P-wave (km/s) = 7.41844 7.56790 7.49354
#
# Compressibility (1/GPa) = 0.01392068
#
# Stress axis : x y z
#
# Youngs Moduli (GPa) = 103.68567 61.17214 64.03626
#
# Poissons Ratio (x) = 0.28704 0.13101
# Poissons Ratio (y) = 0.48653 0.45500
# Poissons Ratio (z) = 0.21213 0.43465
#
# Static dielectric constant tensor:
#      x y z
#    x 4.151460 0.000000 0.000000 
#    y 0.000000 4.020470 0.000000 
#    z 0.000000 0.000000 3.452330 
# 
# 
# High freq. dielectric constant tensor:
#      x y z
#    x 1.829760 0.000000 0.000000 
#    y 0.000000 1.793520 0.000000 
#    z 0.000000 0.000000 1.781100 
# 
# From -- ./inp_files/48236.got.cif
#   From: 2010.03.12/outbox.cif.g09.slc.cpg/sg66_25_cif.got.tgz:48236.got - 2010.04.10 21:57:39.
