data_PCOD8277551
_publ_section_title
;
Structure prediction by ZEFSAII (Michael W. Deem and Ramdas Pophale) SiO2 
 PCOD8277551
Probable space group: C C C M
;
_chemical_formula_sum "Si O2"
_cell_formula_units_Z 88
_cell_length_a 4.931318
_cell_length_b 27.225717
_cell_length_c 28.333267
_cell_angle_alpha 90.000000
_cell_angle_beta 90.000000
_cell_angle_gamma 90.000000
_cell_volume 3803.986696
_symmetry_space_group_name_H-M "C C C M"
_symmetry_group_IT_number 66
_symmetry_cell_setting 'orthorhombic'
loop_
_space_group_symop_operation_xyz
x,y,z
-x,-y,z
x,-y,1/2-z
-x,y,1/2-z
-x,-y,-z
x,y,-z
-x,y,1/2+z
x,-y,1/2+z
1/2+x,1/2+y,z
1/2-x,1/2-y,z
1/2+x,1/2-y,1/2-z
1/2-x,1/2+y,1/2-z
1/2-x,1/2-y,-z
1/2+x,1/2+y,-z
1/2-x,1/2+y,1/2+z
1/2+x,1/2-y,1/2+z
loop_
_atom_site_type_symbol
_atom_site_label
_atom_site_fract_x
_atom_site_fract_y
_atom_site_fract_z
Si Si1 0.744106 0.672395 0.500000
Si Si2 0.751075 0.104847 0.500000
Si Si3 0.956979 0.289562 0.583764
Si Si4 0.017851 0.391163 0.625805
Si Si5 0.456785 0.557295 0.592737
Si Si6 0.757171 0.153403 0.218746
Si Si7 0.750000 0.750000 0.330724
O O1 0.945398 0.625287 0.500000
O O2 0.792469 0.705429 0.547061
O O3 0.434741 0.654416 0.500000
O O4 0.805458 0.069982 0.544230
O O5 0.750000 0.250000 0.560674
O O6 0.874940 0.345826 0.596738
O O7 0.015378 0.268277 0.635155
O O8 0.257004 0.414679 0.594467
O O9 0.160774 0.380559 0.675713
O O10 0.760778 0.427241 0.633619
O O11 0.500000 0.500000 0.597718
O O12 0.500000 0.165001 0.250000
O O13 0.869068 0.205567 0.200154
O O14 0.000000 0.129160 0.250000
#
# Coordination Sequence:
#
# PCOD8277551 Si02
#       7
#     8   8  16  16  16  16   8
#     4  12  25  41  63  90 145 189 239 279 329 396
#     4  12  23  44  66 100 135 183 239 289 334 399
#     4  11  25  40  63  95 138 196 224 281 328 402
#     4  11  25  44  69 103 140 174 231 281 348 422
#     4  12  24  45  73 102 137 182 228 292 348 401
#     4  11  24  43  69  98 135 176 218 282 346 404
#     4  10  26  37  66  94 136 176 240 269 328 412
#
# _framework density 23.133624999999999
#
# number of rings (size 3 to 8) (size 9 to 14) (size 15 to 20)
#    0.000    0.727    3.636    2.727   12.727    0.364 
#    0.000    2.727    0.000    8.182    0.000    0.000 
#    0.000    0.000    0.000    0.000    0.000    0.000 
#
# Total GULP energy -545266.788560 kJ/mol
# GULP energy per Si atom -12392.427013 kJ/mol
# Density = 2.308097 g / cm^3
# Si number density = 23.133625 Si / 1000 Ang^3
#
#
#
# Elastic Constant Matrix: (Units=GPa)
#
#
# Indices 1 2 3 4 5 6 
#
# 1 96.8284 44.4516 11.7089 0.0000 0.0000 0.0000
# 2 44.4516 136.6361 34.3726 0.0000 0.0000 0.0000
# 3 11.7089 34.3726 94.3928 0.0000 0.0000 0.0000
# 4 0.0000 0.0000 0.0000 11.0349 0.0000 0.0000
# 5 0.0000 0.0000 0.0000 0.0000 33.1202 0.0000
# 6 0.0000 0.0000 0.0000 0.0000 0.0000 31.3175
#
#
#
# Elastic Compliance Matrix: (Units=1/GPa)
#
#
# Indices 1 2 3 4 5 6 
#
# 1 0.012141 -0.003931 -0.000075 0.000000 0.000000 0.000000
# 2 -0.003931 0.009330 -0.002910 0.000000 0.000000 0.000000
# 3 -0.000075 -0.002910 0.011663 0.000000 0.000000 0.000000
# 4 0.000000 0.000000 0.000000 0.090622 0.000000 0.000000
# 5 0.000000 0.000000 0.000000 0.000000 0.030193 0.000000
# 6 0.000000 0.000000 0.000000 0.000000 0.000000 0.031931
#
#
# Mechanical properties :
#
#
# Convention : Reuss Voigt Hill
#
# Bulk Modulus (GPa) = 51.80561 56.54702 54.17632
# Shear Modulus (GPa) = 24.25484 30.91613 27.58548
#
# Velocity S-wave (km/s) = 3.24152 3.65967 3.45692
# Velocity P-wave (km/s) = 6.03760 6.50802 6.27722
#
# Compressibility (1/GPa) = 0.01930293
#
# Stress axis : x y z
#
# Youngs Moduli (GPa) = 82.36382 107.18588 85.74255
#
# Poissons Ratio (x) = 0.42136 0.00639
# Poissons Ratio (y) = 0.32378 0.24948
# Poissons Ratio (z) = 0.00614 0.31188
#
# Static dielectric constant tensor:
#      x y z
#    x 4.157750 0.000000 0.000000 
#    y 0.000000 4.186930 0.000000 
#    z 0.000000 0.000000 4.473480 
# 
# 
# High freq. dielectric constant tensor:
#      x y z
#    x 1.918080 0.000000 0.000000 
#    y 0.000000 1.898890 0.000000 
#    z 0.000000 0.000000 1.919870 
# 
# From -- ./inp_files/67293.got.cif
#   From: 2010.03.12/outbox.cif.g09.slc.cpg/sg66_34_cif.got.tgz:67293.got - 2010.04.10 21:57:39.
