data_PCOD8277169
_publ_section_title
;
Structure prediction by ZEFSAII (Michael W. Deem and Ramdas Pophale) SiO2 
 PCOD8277169
Probable space group: C C C M
;
_chemical_formula_sum "Si O2"
_cell_formula_units_Z 112
_cell_length_a 30.827197
_cell_length_b 11.443143
_cell_length_c 14.376618
_cell_angle_alpha 90.000000
_cell_angle_beta 90.000000
_cell_angle_gamma 90.000000
_cell_volume 5071.496104
_symmetry_space_group_name_H-M "C C C M"
_symmetry_group_IT_number 66
_symmetry_cell_setting 'orthorhombic'
loop_
_space_group_symop_operation_xyz
x,y,z
-x,-y,z
x,-y,1/2-z
-x,y,1/2-z
-x,-y,-z
x,y,-z
-x,y,1/2+z
x,-y,1/2+z
1/2+x,1/2+y,z
1/2-x,1/2-y,z
1/2+x,1/2-y,1/2-z
1/2-x,1/2+y,1/2-z
1/2-x,1/2-y,-z
1/2+x,1/2+y,-z
1/2-x,1/2+y,1/2+z
1/2+x,1/2-y,1/2+z
loop_
_atom_site_type_symbol
_atom_site_label
_atom_site_fract_x
_atom_site_fract_y
_atom_site_fract_z
Si Si1 0.809779 0.820430 0.219612
Si Si2 0.190220 0.566729 0.659254
Si Si3 0.594353 0.634211 0.757129
Si Si4 0.778458 0.964554 0.392840
Si Si5 0.596779 0.029745 0.603969
Si Si6 0.939465 0.290612 0.107513
Si Si7 0.539642 0.764258 0.891969
O O1 0.790343 0.695196 0.185852
O O2 0.861141 0.797693 0.221764
O O3 0.801925 0.917872 0.141077
O O4 0.790697 0.859398 0.321150
O O5 0.174533 0.500000 0.750000
O O6 0.227172 0.490566 0.609083
O O7 0.147195 0.566357 0.597017
O O8 0.606500 0.500000 0.750000
O O9 0.577766 0.675470 0.657160
O O10 0.556658 0.652222 0.834454
O O11 0.791713 0.933429 0.500000
O O12 0.578072 0.019903 0.500000
O O13 0.568728 0.131480 0.651537
O O14 0.585764 0.904081 0.649883
O O15 0.990492 0.299577 0.127713
O O16 0.928946 0.272733 0.000000
O O17 0.548187 0.737911 0.000000
#
# Coordination Sequence:
#
# PCOD8277169 Si02
#       7
#    16  16  16  16  16  16  16
#     4  11  24  47  67  98 137 173 221 287 339 395
#     4  12  23  41  70  98 141 171 216 277 333 401
#     4  12  24  43  65  91 128 178 230 272 329 392
#     4  11  25  45  71  99 130 179 229 276 337 401
#     4  10  21  39  66 101 133 170 216 266 336 405
#     4  10  23  42  65  97 135 171 214 275 336 396
#     4  10  22  41  66  97 133 171 216 273 333 397
#
# _framework density 22.084212999999998
#
# number of rings (size 3 to 8) (size 9 to 14) (size 15 to 20)
#    0.000    1.143    4.286    2.571    0.000    6.286 
#    0.000    5.000    0.000    0.000    0.000    0.000 
#    0.000    0.000    0.000    0.000    0.000    0.000 
#
# Total GULP energy -694281.326827 kJ/mol
# GULP energy per Si atom -12397.880836 kJ/mol
# Density = 2.203395 g / cm^3
# Si number density = 22.084213 Si / 1000 Ang^3
#
#
#
# Elastic Constant Matrix: (Units=GPa)
#
#
# Indices 1 2 3 4 5 6 
#
# 1 114.0050 12.8384 19.2527 0.0000 0.0000 0.0000
# 2 12.8384 74.1868 15.8187 0.0000 0.0000 0.0000
# 3 19.2527 15.8187 84.7294 0.0000 0.0000 0.0000
# 4 0.0000 0.0000 0.0000 19.4947 0.0000 0.0000
# 5 0.0000 0.0000 0.0000 0.0000 27.6080 0.0000
# 6 0.0000 0.0000 0.0000 0.0000 0.0000 38.2829
#
#
#
# Elastic Compliance Matrix: (Units=1/GPa)
#
#
# Indices 1 2 3 4 5 6 
#
# 1 0.009222 -0.001197 -0.001872 0.000000 0.000000 0.000000
# 2 -0.001197 0.014194 -0.002378 0.000000 0.000000 0.000000
# 3 -0.001872 -0.002378 0.012672 0.000000 0.000000 0.000000
# 4 0.000000 0.000000 0.000000 0.051296 0.000000 0.000000
# 5 0.000000 0.000000 0.000000 0.000000 0.036221 0.000000
# 6 0.000000 0.000000 0.000000 0.000000 0.000000 0.026121
#
#
# Mechanical properties :
#
#
# Convention : Reuss Voigt Hill
#
# Bulk Modulus (GPa) = 39.69208 40.97120 40.33164
# Shear Modulus (GPa) = 29.58258 32.07787 30.83023
#
# Velocity S-wave (km/s) = 3.66394 3.81534 3.74040
# Velocity P-wave (km/s) = 5.99260 6.16454 6.07918
#
# Compressibility (1/GPa) = 0.02519395
#
# Stress axis : x y z
#
# Youngs Moduli (GPa) = 108.43074 70.45404 78.91644
#
# Poissons Ratio (x) = 0.08432 0.14774
# Poissons Ratio (y) = 0.12977 0.18766
# Poissons Ratio (z) = 0.20300 0.16754
#
# Static dielectric constant tensor:
#      x y z
#    x 3.993930 0.000000 0.000000 
#    y 0.000000 3.914240 0.000000 
#    z 0.000000 0.000000 3.878190 
# 
# 
# High freq. dielectric constant tensor:
#      x y z
#    x 1.882830 0.000000 0.000000 
#    y 0.000000 1.861050 0.000000 
#    z 0.000000 0.000000 1.864570 
# 
# From -- ./inp_files/26991.got.cif
#   From: 2010.03.12/outbox.cif.g09.slc.cpg/sg66_14_cif.got.tgz:26991.got - 2010.04.10 21:57:39.
