data_PCOD8277959
_publ_section_title
;
Structure prediction by ZEFSAII (Michael W. Deem and Ramdas Pophale) SiO2 
 PCOD8277959
Probable space group: C M M A
;
_chemical_formula_sum "Si O2"
_cell_formula_units_Z 96
_cell_length_a 18.565937
_cell_length_b 8.676523
_cell_length_c 31.529198
_cell_angle_alpha 90.000000
_cell_angle_beta 90.000000
_cell_angle_gamma 90.000000
_cell_volume 5078.968492
_symmetry_space_group_name_H-M "C M M A"
_symmetry_group_IT_number 67
_symmetry_cell_setting 'orthorhombic'
loop_
_space_group_symop_operation_xyz
x,y,z
-x,1/2-y,z
x,-y,-z
-x,1/2+y,-z
-x,-y,-z
x,1/2+y,-z
-x,y,z
x,1/2-y,z
1/2+x,1/2+y,z
1/2-x,-y,z
1/2+x,1/2-y,-z
1/2-x,y,-z
1/2-x,1/2-y,-z
1/2+x,y,-z
1/2-x,1/2+y,z
1/2+x,-y,z
loop_
_atom_site_type_symbol
_atom_site_label
_atom_site_fract_x
_atom_site_fract_y
_atom_site_fract_z
Si Si1 0.085024 0.925726 0.286073
Si Si2 0.669960 0.933090 0.872967
Si Si3 0.585915 0.576587 0.542799
Si Si4 0.914353 0.577481 0.627904
Si Si5 0.169625 0.566697 0.957593
Si Si6 0.171656 0.569154 0.787700
O O1 0.108382 0.750000 0.277719
O O2 0.000000 0.947474 0.282295
O O3 0.112148 0.973806 0.332807
O O4 0.121057 0.037527 0.252110
O O5 0.669639 0.750000 0.876272
O O6 0.750000 0.000000 0.870989
O O7 0.630462 0.004642 0.914731
O O8 0.633833 0.990056 0.829102
O O9 0.616497 0.500000 0.500000
O O10 0.500000 0.570609 0.542767
O O11 0.614393 0.750000 0.544564
O O12 0.617027 0.489163 0.583969
O O13 0.884831 0.750000 0.634101
O O14 0.000000 0.576391 0.625754
O O15 0.170191 0.750000 0.958646
O O16 0.250000 0.500000 0.956823
O O17 0.130614 0.500000 0.000000
O O18 0.178919 0.750000 0.795840
O O19 0.250000 0.500000 0.778343
#
# Coordination Sequence:
#
# PCOD8277959 Si02
#       6
#    16  16  16  16  16  16
#     4  10  20  34  51  71  96 126 160 198 240 285
#     4  10  17  27  41  59  84 115 150 187 230 277
#     4   9  15  22  33  51  77 110 146 183 224 272
#     4   9  16  26  40  59  84 115 150 187 229 277
#     4  10  16  23  34  52  78 110 146 182 223 271
#     4  11  21  34  51  71  96 126 161 199 240 285
#
# _framework density 18.901475999999999
#
# number of rings (size 3 to 8) (size 9 to 14) (size 15 to 20)
#    0.000    2.167    0.000    8.500    0.000    5.000 
#    0.000    0.000    0.000    0.000    0.000    0.000 
#    0.000    1.333    0.000    9.167    0.000   19.667 
#
# Total GULP energy -594996.886230 kJ/mol
# GULP energy per Si atom -12395.768463 kJ/mol
# Density = 1.885846 g / cm^3
# Si number density = 18.901476 Si / 1000 Ang^3
#
#
#
# Elastic Constant Matrix: (Units=GPa)
#
#
# Indices 1 2 3 4 5 6 
#
# 1 10.6314 14.9244 19.9278 0.0000 0.0000 0.0000
# 2 14.9244 168.9208 61.9268 0.0000 0.0000 0.0000
# 3 19.9278 61.9268 179.2179 0.0000 0.0000 0.0000
# 4 0.0000 0.0000 0.0000 43.7406 0.0000 0.0000
# 5 0.0000 0.0000 0.0000 0.0000 12.6463 0.0000
# 6 0.0000 0.0000 0.0000 0.0000 0.0000 12.5380
#
#
#
# Elastic Compliance Matrix: (Units=1/GPa)
#
#
# Indices 1 2 3 4 5 6 
#
# 1 0.125351 -0.006830 -0.011578 0.000000 0.000000 0.000000
# 2 -0.006830 0.007151 -0.001711 0.000000 0.000000 0.000000
# 3 -0.011578 -0.001711 0.007459 0.000000 0.000000 0.000000
# 4 0.000000 0.000000 0.000000 0.022862 0.000000 0.000000
# 5 0.000000 0.000000 0.000000 0.000000 0.079075 0.000000
# 6 0.000000 0.000000 0.000000 0.000000 0.000000 0.079758
#
#
# Mechanical properties :
#
#
# Convention : Reuss Voigt Hill
#
# Bulk Modulus (GPa) = 10.02799 61.36977 35.69888
# Shear Modulus (GPa) = 12.65391 31.25104 21.95248
#
# Velocity S-wave (km/s) = 2.59021 4.07057 3.41165
# Velocity P-wave (km/s) = 3.77657 7.39131 5.86916
#
# Compressibility (1/GPa) = 0.09972091
#
# Stress axis : x y z
#
# Youngs Moduli (GPa) = 7.97759 139.84431 134.07448
#
# Poissons Ratio (x) = 0.95520 1.55231
# Poissons Ratio (y) = 0.05449 0.22945
# Poissons Ratio (z) = 0.09236 0.23933
#
# Static dielectric constant tensor:
#      x y z
#    x 2.618120 0.000000 0.000000 
#    y 0.000000 3.615860 0.000000 
#    z 0.000000 0.000000 4.539120 
# 
# 
# High freq. dielectric constant tensor:
#      x y z
#    x 1.631450 0.000000 0.000000 
#    y 0.000000 1.756950 0.000000 
#    z 0.000000 0.000000 1.769090 
# 
# From -- ./inp_files/44574.got.cif
#   From: 2010.03.12/outbox.cif.g09.slc.cpg/sg67_23_cif.got.tgz:44574.got - 2010.04.10 22:41:39.
