data_PCOD8277207
_publ_section_title
;
Structure prediction by ZEFSAII (Michael W. Deem and Ramdas Pophale) SiO2 
 PCOD8277207
Probable space group: C C C M
;
_chemical_formula_sum "Si O2"
_cell_formula_units_Z 80
_cell_length_a 14.500692
_cell_length_b 14.720415
_cell_length_c 18.818994
_cell_angle_alpha 90.000000
_cell_angle_beta 90.000000
_cell_angle_gamma 90.000000
_cell_volume 4017.031023
_symmetry_space_group_name_H-M "C C C M"
_symmetry_group_IT_number 66
_symmetry_cell_setting 'orthorhombic'
loop_
_space_group_symop_operation_xyz
x,y,z
-x,-y,z
x,-y,1/2-z
-x,y,1/2-z
-x,-y,-z
x,y,-z
-x,y,1/2+z
x,-y,1/2+z
1/2+x,1/2+y,z
1/2-x,1/2-y,z
1/2+x,1/2-y,1/2-z
1/2-x,1/2+y,1/2-z
1/2-x,1/2-y,-z
1/2+x,1/2+y,-z
1/2-x,1/2+y,1/2+z
1/2+x,1/2-y,1/2+z
loop_
_atom_site_type_symbol
_atom_site_label
_atom_site_fract_x
_atom_site_fract_y
_atom_site_fract_z
Si Si1 0.742735 0.515573 0.830103
Si Si2 0.460675 0.410662 0.828988
Si Si3 0.312887 0.832359 0.579106
Si Si4 0.798805 0.654457 0.418427
Si Si5 0.014558 0.259566 0.579030
O O1 0.776113 0.500000 0.750000
O O2 0.648465 0.573750 0.829794
O O3 0.812935 0.580688 0.870445
O O4 0.744461 0.418610 0.870085
O O5 0.500000 0.500000 0.867410
O O6 0.500000 0.402713 0.750000
O O7 0.499565 0.324975 0.869948
O O8 0.275060 0.856137 0.500000
O O9 0.250000 0.750000 0.609711
O O10 0.419643 0.811649 0.575300
O O11 0.794032 0.620999 0.500000
O O12 0.750000 0.750000 0.407360
O O13 0.905318 0.671423 0.394053
O O14 0.042804 0.224639 0.500000
#
# Coordination Sequence:
#
# PCOD8277207 Si02
#       5
#    16  16  16  16  16
#     4  12  24  39  63  93 128 167 210 259 316 376
#     4  11  22  38  60  90 126 162 208 260 314 378
#     4  10  21  40  66  94 125 163 214 266 314 374
#     4  10  23  42  64  92 128 167 210 261 319 378
#     4  10  22  41  65  93 124 163 210 264 319 372
#
# _framework density 19.915205
#
# number of rings (size 3 to 8) (size 9 to 14) (size 15 to 20)
#    0.000    1.400    4.000    1.800    0.000    4.400 
#    0.000    4.000    0.000    0.000    0.000    0.000 
#    0.000    0.000    0.000    0.000    0.000    0.000 
#
# Total GULP energy -495747.990747 kJ/mol
# GULP energy per Si atom -12393.699769 kJ/mol
# Density = 1.986988 g / cm^3
# Si number density = 19.915205 Si / 1000 Ang^3
#
#
#
# Elastic Constant Matrix: (Units=GPa)
#
#
# Indices 1 2 3 4 5 6 
#
# 1 96.5430 17.3146 24.7814 0.0000 0.0000 0.0000
# 2 17.3146 96.7574 64.7362 0.0000 0.0000 0.0000
# 3 24.7814 64.7362 109.3816 0.0000 0.0000 0.0000
# 4 0.0000 0.0000 0.0000 33.1720 0.0000 0.0000
# 5 0.0000 0.0000 0.0000 0.0000 16.0721 0.0000
# 6 0.0000 0.0000 0.0000 0.0000 0.0000 22.1451
#
#
#
# Elastic Compliance Matrix: (Units=1/GPa)
#
#
# Indices 1 2 3 4 5 6 
#
# 1 0.011012 -0.000499 -0.002200 0.000000 0.000000 0.000000
# 2 -0.000499 0.017133 -0.010027 0.000000 0.000000 0.000000
# 3 -0.002200 -0.010027 0.015575 0.000000 0.000000 0.000000
# 4 0.000000 0.000000 0.000000 0.030146 0.000000 0.000000
# 5 0.000000 0.000000 0.000000 0.000000 0.062219 0.000000
# 6 0.000000 0.000000 0.000000 0.000000 0.000000 0.045157
#
#
# Mechanical properties :
#
#
# Convention : Reuss Voigt Hill
#
# Bulk Modulus (GPa) = 54.73701 57.37182 56.05442
# Shear Modulus (GPa) = 23.49813 27.33450 25.41631
#
# Velocity S-wave (km/s) = 3.43871 3.70881 3.57631
# Velocity P-wave (km/s) = 6.58111 6.87102 6.72763
#
# Compressibility (1/GPa) = 0.01826917
#
# Stress axis : x y z
#
# Youngs Moduli (GPa) = 90.80862 58.36688 64.20558
#
# Poissons Ratio (x) = 0.02912 0.14123
# Poissons Ratio (y) = 0.04531 0.64378
# Poissons Ratio (z) = 0.19974 0.58524
#
# Static dielectric constant tensor:
#      x y z
#    x 3.891100 0.000000 0.000000 
#    y 0.000000 3.766200 0.000000 
#    z 0.000000 0.000000 3.763860 
# 
# 
# High freq. dielectric constant tensor:
#      x y z
#    x 1.787190 0.000000 0.000000 
#    y 0.000000 1.776140 0.000000 
#    z 0.000000 0.000000 1.771140 
# 
# From -- ./inp_files/49763.got.cif
#   From: 2010.03.12/outbox.cif.g09.slc.cpg/sg66_25_cif.got.tgz:49763.got - 2010.04.10 21:57:39.
