data_PCOD8277724
_publ_section_title
;
Structure prediction by ZEFSAII (Michael W. Deem and Ramdas Pophale) SiO2 
 PCOD8277724
Probable space group: C C C M
;
_chemical_formula_sum "Si O2"
_cell_formula_units_Z 96
_cell_length_a 7.405635
_cell_length_b 26.299980
_cell_length_c 22.073343
_cell_angle_alpha 90.000000
_cell_angle_beta 90.000000
_cell_angle_gamma 90.000000
_cell_volume 4299.182026
_symmetry_space_group_name_H-M "C C C M"
_symmetry_group_IT_number 66
_symmetry_cell_setting 'orthorhombic'
loop_
_space_group_symop_operation_xyz
x,y,z
-x,-y,z
x,-y,1/2-z
-x,y,1/2-z
-x,-y,-z
x,y,-z
-x,y,1/2+z
x,-y,1/2+z
1/2+x,1/2+y,z
1/2-x,1/2-y,z
1/2+x,1/2-y,1/2-z
1/2-x,1/2+y,1/2-z
1/2-x,1/2-y,-z
1/2+x,1/2+y,-z
1/2-x,1/2+y,1/2+z
1/2+x,1/2-y,1/2+z
loop_
_atom_site_type_symbol
_atom_site_label
_atom_site_fract_x
_atom_site_fract_y
_atom_site_fract_z
Si Si1 0.718601 0.543432 0.131916
Si Si2 0.996183 0.390548 0.567600
Si Si3 0.291955 0.308288 0.066402
Si Si4 0.152148 0.803939 0.301139
Si Si5 0.836386 0.073788 0.875906
Si Si6 0.207149 0.404908 0.753971
O O1 0.903639 0.567888 0.110044
O O2 0.728424 0.484272 0.118489
O O3 0.545435 0.573023 0.101795
O O4 0.698605 0.552882 0.203647
O O5 0.971867 0.410206 0.500000
O O6 0.901806 0.335976 0.576925
O O7 0.210198 0.389775 0.583073
O O8 0.250000 0.250000 0.059761
O O9 0.413079 0.316014 0.128276
O O10 0.376344 0.326059 0.000000
O O11 0.250000 0.750000 0.300888
O O12 0.288651 0.848743 0.283330
O O13 0.000000 0.802716 0.250000
O O14 0.818047 0.094942 0.808089
O O15 0.000000 0.420966 0.750000
#
# Coordination Sequence:
#
# PCOD8277724 Si02
#       6
#    16  16  16  16  16  16
#     4  11  23  40  60  92 122 169 210 268 321 393
#     4  11  23  41  65  90 122 167 219 272 325 392
#     4   9  19  39  66  91 123 171 221 267 329 402
#     4  11  22  37  62  96 129 165 213 275 336 393
#     4  11  24  39  62  88 129 165 213 260 335 395
#     4  12  22  38  62  89 125 164 211 265 327 392
#
# _framework density 22.329829
#
# number of rings (size 3 to 8) (size 9 to 14) (size 15 to 20)
#    0.000    1.167    3.333    3.000    0.000    5.333 
#    0.000    1.667    0.000    0.500    0.000    0.000 
#    0.000    0.000    0.000    0.000    0.000    0.000 
#
# Total GULP energy -594660.096848 kJ/mol
# GULP energy per Si atom -12388.752018 kJ/mol
# Density = 2.227901 g / cm^3
# Si number density = 22.329829 Si / 1000 Ang^3
#
#
#
# Elastic Constant Matrix: (Units=GPa)
#
#
# Indices 1 2 3 4 5 6 
#
# 1 80.0418 10.0889 32.3361 0.0000 0.0000 0.0000
# 2 10.0889 57.6238 12.7573 0.0000 0.0000 0.0000
# 3 32.3361 12.7573 156.3141 0.0000 0.0000 0.0000
# 4 0.0000 0.0000 0.0000 331.6111 0.0000 0.0000
# 5 0.0000 0.0000 0.0000 0.0000 -585.2412 0.0000
# 6 0.0000 0.0000 0.0000 0.0000 0.0000 24.8304
#
#
#
# Elastic Compliance Matrix: (Units=1/GPa)
#
#
# Indices 1 2 3 4 5 6 
#
# 1 0.013818 -0.001819 -0.002710 0.000000 0.000000 0.000000
# 2 -0.001819 0.017913 -0.001086 0.000000 0.000000 0.000000
# 3 -0.002710 -0.001086 0.007047 0.000000 0.000000 0.000000
# 4 0.000000 0.000000 0.000000 0.003016 0.000000 0.000000
# 5 0.000000 0.000000 0.000000 0.000000 -0.001709 0.000000
# 6 0.000000 0.000000 0.000000 0.000000 0.000000 0.040273
#
#
# Mechanical properties :
#
#
# Convention : Reuss Voigt Hill
#
# Bulk Modulus (GPa) = 36.30105 44.92714 40.61409
# Shear Modulus (GPa) = 49.61840 -29.84012 9.88914
#
# Velocity S-wave (km/s) = 4.71900 -3.65956 2.10672
# Velocity P-wave (km/s) = 6.78115 1.51888 4.91380
#
# Compressibility (1/GPa) = 0.02754742
#
# Stress axis : x y z
#
# Youngs Moduli (GPa) = 72.37168 55.82599 141.91319
#
# Poissons Ratio (x) = 0.10156 0.38457
# Poissons Ratio (y) = 0.13166 0.15406
# Poissons Ratio (z) = 0.19612 0.06060
#
# Static dielectric constant tensor:
#      x y z
#    x 3.941620 0.000000 0.000000 
#    y 0.000000 4.140560 0.000000 
#    z 0.000000 0.000000 4.569110 
# 
# 
# High freq. dielectric constant tensor:
#      x y z
#    x 1.855900 0.000000 0.000000 
#    y 0.000000 1.886160 0.000000 
#    z 0.000000 0.000000 1.891840 
# 
# From -- ./inp_files/47271.got.cif
#   From: 2010.03.12/outbox.cif.g09.slc.cpg/sg66_24_cif.got.tgz:47271.got - 2010.04.10 21:57:39.
