data_PCOD8277172
_publ_section_title
;
Structure prediction by ZEFSAII (Michael W. Deem and Ramdas Pophale) SiO2 
 PCOD8277172
Probable space group: C C C M
;
_chemical_formula_sum "Si O2"
_cell_formula_units_Z 112
_cell_length_a 17.860416
_cell_length_b 22.021631
_cell_length_c 14.950395
_cell_angle_alpha 90.000000
_cell_angle_beta 90.000000
_cell_angle_gamma 90.000000
_cell_volume 5880.221945
_symmetry_space_group_name_H-M "C C C M"
_symmetry_group_IT_number 66
_symmetry_cell_setting 'orthorhombic'
loop_
_space_group_symop_operation_xyz
x,y,z
-x,-y,z
x,-y,1/2-z
-x,y,1/2-z
-x,-y,-z
x,y,-z
-x,y,1/2+z
x,-y,1/2+z
1/2+x,1/2+y,z
1/2-x,1/2-y,z
1/2+x,1/2-y,1/2-z
1/2-x,1/2+y,1/2-z
1/2-x,1/2-y,-z
1/2+x,1/2+y,-z
1/2-x,1/2+y,1/2+z
1/2+x,1/2-y,1/2+z
loop_
_atom_site_type_symbol
_atom_site_label
_atom_site_fract_x
_atom_site_fract_y
_atom_site_fract_z
Si Si1 0.087814 0.500000 0.352338
Si Si2 0.336818 0.241032 0.603136
Si Si3 0.663182 0.241032 0.396864
Si Si4 0.588440 0.678098 0.750000
Si Si5 0.314774 0.107679 0.100126
Si Si6 0.685226 0.107679 0.899874
Si Si7 0.300116 0.428955 0.750000
O O1 0.115500 0.500000 0.250000
O O2 0.118834 0.559307 0.400374
O O3 0.118834 0.440693 0.400373
O O4 0.000000 0.500000 0.361734
O O5 0.355698 0.255099 0.500000
O O6 0.250000 0.250000 0.625267
O O7 0.387405 0.285122 0.662013
O O8 0.352819 0.171072 0.629614
O O9 0.644301 0.255098 0.500000
O O10 0.750000 0.250000 0.374735
O O11 0.612595 0.285122 0.337987
O O12 0.647181 0.171072 0.370384
O O13 0.500000 0.669231 0.750000
O O14 0.624897 0.611193 0.750000
O O15 0.246944 0.086993 0.162084
O O16 0.281493 0.114717 0.000000
O O17 0.753056 0.086993 0.837916
O O18 0.718507 0.114716 0.000000
O O19 0.321897 0.500000 0.750000
#
# Coordination Sequence:
#
# PCOD8277172 Si02
#       7
#    16  16  16  16  16  16  16
#     4  11  23  37  55  88 131 164 194 242 300 359
#     4  10  21  39  66  94 118 153 205 252 294 362
#     4  10  21  39  66  94 118 153 205 252 294 362
#     4  12  26  41  63  90 126 164 194 254 324 362
#     4  11  21  37  64  91 116 159 204 245 297 354
#     4  11  21  37  64  91 116 159 204 245 297 354
#     4  12  23  40  62  90 118 152 213 262 291 358
#
# _framework density 19.046900999999998
#
# number of rings (size 3 to 8) (size 9 to 14) (size 15 to 20)
#    0.000    1.000    5.714    1.714    0.000    3.143 
#    0.000    2.857    0.000    0.000    0.000    4.000 
#    0.000    0.000    0.000    0.000    0.000    0.000 
#
# Total GULP energy -694544.921163 kJ/mol
# GULP energy per Si atom -12402.587878 kJ/mol
# Density = 1.900355 g / cm^3
# Si number density = 19.046901 Si / 1000 Ang^3
#
#
#
# Elastic Constant Matrix: (Units=GPa)
#
#
# Indices 1 2 3 4 5 6 
#
# 1 103.7249 57.6632 49.1151 0.0000 0.0000 0.0000
# 2 57.6632 167.4853 58.5683 0.0000 0.0000 0.0000
# 3 49.1151 58.5683 106.5277 0.0000 0.0000 0.0000
# 4 0.0000 0.0000 0.0000 26.8440 0.0000 0.0000
# 5 0.0000 0.0000 0.0000 0.0000 15.0351 0.0000
# 6 0.0000 0.0000 0.0000 0.0000 0.0000 25.5357
#
#
#
# Elastic Compliance Matrix: (Units=1/GPa)
#
#
# Indices 1 2 3 4 5 6 
#
# 1 0.013490 -0.003057 -0.004539 0.000000 0.000000 0.000000
# 2 -0.003057 0.008085 -0.003035 0.000000 0.000000 0.000000
# 3 -0.004539 -0.003035 0.013149 0.000000 0.000000 0.000000
# 4 0.000000 0.000000 0.000000 0.037252 0.000000 0.000000
# 5 0.000000 0.000000 0.000000 0.000000 0.066511 0.000000
# 6 0.000000 0.000000 0.000000 0.000000 0.000000 0.039161
#
#
# Mechanical properties :
#
#
# Convention : Reuss Voigt Hill
#
# Bulk Modulus (GPa) = 74.29143 78.71458 76.50301
# Shear Modulus (GPa) = 24.58259 27.64238 26.11249
#
# Velocity S-wave (km/s) = 3.59644 3.81370 3.70666
# Velocity P-wave (km/s) = 7.50566 7.79800 7.65323
#
# Compressibility (1/GPa) = 0.01346050
#
# Stress axis : x y z
#
# Youngs Moduli (GPa) = 74.13160 123.69083 76.05371
#
# Poissons Ratio (x) = 0.37814 0.34518
# Poissons Ratio (y) = 0.22663 0.23085
# Poissons Ratio (z) = 0.33645 0.37545
#
# Static dielectric constant tensor:
#      x y z
#    x 3.168670 0.000000 0.000000 
#    y 0.000000 4.905870 0.000000 
#    z 0.000000 0.000000 3.699500 
# 
# 
# High freq. dielectric constant tensor:
#      x y z
#    x 1.706690 0.000000 0.000000 
#    y 0.000000 1.759920 0.000000 
#    z 0.000000 0.000000 1.757890 
# 
# From -- ./inp_files/28721.got.cif
#   From: 2010.03.12/outbox.cif.g09.slc.cpg/sg66_15_cif.got.tgz:28721.got - 2010.04.10 21:57:39.
