data_PCOD8277996
_publ_section_title
;
Structure prediction by ZEFSAII (Michael W. Deem and Ramdas Pophale) SiO2 
 PCOD8277996
Probable space group: C M M A
;
_chemical_formula_sum "Si O2"
_cell_formula_units_Z 96
_cell_length_a 8.604804
_cell_length_b 27.481687
_cell_length_c 24.258768
_cell_angle_alpha 90.000000
_cell_angle_beta 90.000000
_cell_angle_gamma 90.000000
_cell_volume 5736.580767
_symmetry_space_group_name_H-M "C M M A"
_symmetry_group_IT_number 67
_symmetry_cell_setting 'orthorhombic'
loop_
_space_group_symop_operation_xyz
x,y,z
-x,1/2-y,z
x,-y,-z
-x,1/2+y,-z
-x,-y,-z
x,1/2+y,-z
-x,y,z
x,1/2-y,z
1/2+x,1/2+y,z
1/2-x,-y,z
1/2+x,1/2-y,-z
1/2-x,y,-z
1/2-x,1/2-y,-z
1/2+x,y,-z
1/2-x,1/2+y,z
1/2+x,-y,z
loop_
_atom_site_type_symbol
_atom_site_label
_atom_site_fract_x
_atom_site_fract_y
_atom_site_fract_z
Si Si1 0.682710 0.856356 0.557524
Si Si2 0.185269 0.554001 0.832761
Si Si3 0.681695 0.195196 0.659373
Si Si4 0.316938 0.103072 0.723039
Si Si5 0.816043 0.052142 0.386331
Si Si6 0.184352 0.554294 0.055229
O O1 0.500000 0.861789 0.553672
O O2 0.750000 0.836743 0.500000
O O3 0.725726 0.817056 0.604010
O O4 0.756147 0.908978 0.569628
O O5 0.250000 0.500000 0.824600
O O6 0.250244 0.586489 0.782032
O O7 0.252270 0.579017 0.888642
O O8 0.000000 0.552184 0.835955
O O9 0.500000 0.188050 0.646270
O O10 0.720381 0.250000 0.678360
O O11 0.732508 0.158618 0.708694
O O12 0.500000 0.098465 0.726292
O O13 0.255438 0.067628 0.674545
O O14 0.000000 0.050959 0.388654
O O15 0.750000 0.000000 0.402483
O O16 0.250000 0.500000 0.055666
O O17 0.000000 0.554355 0.054264
O O18 0.250000 0.580961 0.000000
#
# Coordination Sequence:
#
# PCOD8277996 Si02
#       6
#    16  16  16  16  16  16
#     4  11  22  36  52  71  94 119 150 187 226 270
#     4  10  17  26  40  61  90 122 155 186 218 256
#     4   9  18  35  56  74  93 118 147 183 229 277
#     4   8  16  29  46  68  93 119 149 185 222 266
#     4  10  19  33  50  70  95 124 156 187 224 266
#     4  10  17  26  38  55  81 116 156 191 224 257
#
# _framework density 16.734708000000001
#
# number of rings (size 3 to 8) (size 9 to 14) (size 15 to 20)
#    0.000    2.333    0.000    7.000    0.000    1.000 
#    0.000    9.167    0.000    0.000    0.000    0.000 
#    0.000    0.667    0.000    1.167    0.000    2.000 
#
# Total GULP energy -595016.111140 kJ/mol
# GULP energy per Si atom -12396.168982 kJ/mol
# Density = 1.669662 g / cm^3
# Si number density = 16.734708 Si / 1000 Ang^3
#
#
#
# Elastic Constant Matrix: (Units=GPa)
#
#
# Indices 1 2 3 4 5 6 
#
# 1 93.9543 21.9903 35.9319 0.0000 0.0000 0.0000
# 2 21.9903 80.5157 33.8395 0.0000 0.0000 0.0000
# 3 35.9319 33.8395 134.1276 0.0000 0.0000 0.0000
# 4 0.0000 0.0000 0.0000 14.4969 0.0000 0.0000
# 5 0.0000 0.0000 0.0000 0.0000 20.9147 0.0000
# 6 0.0000 0.0000 0.0000 0.0000 0.0000 17.2968
#
#
#
# Elastic Compliance Matrix: (Units=1/GPa)
#
#
# Indices 1 2 3 4 5 6 
#
# 1 0.012194 -0.002190 -0.002714 0.000000 0.000000 0.000000
# 2 -0.002190 0.014286 -0.003018 0.000000 0.000000 0.000000
# 3 -0.002714 -0.003018 0.008944 0.000000 0.000000 0.000000
# 4 0.000000 0.000000 0.000000 0.068980 0.000000 0.000000
# 5 0.000000 0.000000 0.000000 0.000000 0.047813 0.000000
# 6 0.000000 0.000000 0.000000 0.000000 0.000000 0.057814
#
#
# Mechanical properties :
#
#
# Convention : Reuss Voigt Hill
#
# Bulk Modulus (GPa) = 51.06974 54.68011 52.87493
# Shear Modulus (GPa) = 21.51440 24.99741 23.25591
#
# Velocity S-wave (km/s) = 3.58944 3.86909 3.73189
# Velocity P-wave (km/s) = 6.91102 7.25985 7.08759
#
# Compressibility (1/GPa) = 0.01958107
#
# Stress axis : x y z
#
# Youngs Moduli (GPa) = 82.00754 69.99726 111.80590
#
# Poissons Ratio (x) = 0.15327 0.30347
# Poissons Ratio (y) = 0.17957 0.33740
# Poissons Ratio (z) = 0.22259 0.21123
#
# Static dielectric constant tensor:
#      x y z
#    x 3.084190 0.000000 0.000000 
#    y 0.000000 3.046750 0.000000 
#    z 0.000000 0.000000 3.849850 
# 
# 
# High freq. dielectric constant tensor:
#      x y z
#    x 1.646840 0.000000 0.000000 
#    y 0.000000 1.604360 0.000000 
#    z 0.000000 0.000000 1.650450 
# 
# From -- ./inp_files/40950.got.cif
#   From: 2010.03.12/outbox.cif.g09.slc.cpg/sg67_21_cif.got.tgz:40950.got - 2010.04.10 22:41:39.
