data_PCOD8277919
_publ_section_title
;
Structure prediction by ZEFSAII (Michael W. Deem and Ramdas Pophale) SiO2 
 PCOD8277919
Probable space group: C C C M
;
_chemical_formula_sum "Si O2"
_cell_formula_units_Z 64
_cell_length_a 6.643101
_cell_length_b 28.517846
_cell_length_c 14.222821
_cell_angle_alpha 90.000000
_cell_angle_beta 90.000000
_cell_angle_gamma 90.000000
_cell_volume 2694.469793
_symmetry_space_group_name_H-M "C C C M"
_symmetry_group_IT_number 66
_symmetry_cell_setting 'orthorhombic'
loop_
_space_group_symop_operation_xyz
x,y,z
-x,-y,z
x,-y,1/2-z
-x,y,1/2-z
-x,-y,-z
x,y,-z
-x,y,1/2+z
x,-y,1/2+z
1/2+x,1/2+y,z
1/2-x,1/2-y,z
1/2+x,1/2-y,1/2-z
1/2-x,1/2+y,1/2-z
1/2-x,1/2-y,-z
1/2+x,1/2+y,-z
1/2-x,1/2+y,1/2+z
1/2+x,1/2-y,1/2+z
loop_
_atom_site_type_symbol
_atom_site_label
_atom_site_fract_x
_atom_site_fract_y
_atom_site_fract_z
Si Si1 0.438821 0.313338 0.000000
Si Si2 0.671483 0.584381 0.000000
Si Si3 0.699700 0.063183 0.000000
Si Si4 0.909044 0.663845 0.500000
Si Si5 0.265442 0.490988 0.145495
Si Si6 0.524641 0.238385 0.860705
O O1 0.289747 0.358801 0.000000
O O2 0.393057 0.280857 0.906922
O O3 0.667657 0.331141 0.000000
O O4 0.765297 0.559700 0.905870
O O5 0.431655 0.577967 0.000000
O O6 0.547503 0.107840 0.000000
O O7 0.647602 0.031854 0.090484
O O8 0.014835 0.687987 0.590906
O O9 0.500000 0.500000 0.141418
O O10 0.182184 0.500000 0.250000
O O11 0.500000 0.236051 0.750000
O O12 0.750000 0.250000 0.889514
#
# Coordination Sequence:
#
# PCOD8277919 Si02
#       6
#     8   8   8   8  16  16
#     4   8  15  29  42  61  90 128 161 185 239 297
#     4   8  13  23  34  53  87 121 153 182 223 288
#     4   8  13  23  38  55  81 122 155 177 225 283
#     4   8  15  29  46  61  88 125 163 194 227 293
#     4   8  13  21  33  56  89 119 148 187 228 275
#     4   9  17  31  48  68  94 125 162 201 236 278
#
# _framework density 23.752352999999999
#
# number of rings (size 3 to 8) (size 9 to 14) (size 15 to 20)
#    0.000    3.750    0.000    3.000    0.000    0.000 
#   18.000    2.500    0.000    0.000    0.000    0.000 
#    0.000    3.000    0.000    1.750    0.000    1.500 
#
# Total GULP energy -396443.368796 kJ/mol
# GULP energy per Si atom -12388.855275 kJ/mol
# Density = 2.369829 g / cm^3
# Si number density = 23.752353 Si / 1000 Ang^3
#
#
#
# Elastic Constant Matrix: (Units=GPa)
#
#
# Indices 1 2 3 4 5 6 
#
# 1 55.5212 40.3621 -1.3569 0.0000 0.0000 0.0000
# 2 40.3621 255.5425 131.8026 0.0000 0.0000 0.0000
# 3 -1.3569 131.8026 257.2572 0.0000 0.0000 0.0000
# 4 0.0000 0.0000 0.0000 25.3249 0.0000 0.0000
# 5 0.0000 0.0000 0.0000 0.0000 -9.2896 0.0000
# 6 0.0000 0.0000 0.0000 0.0000 0.0000 42.2793
#
#
#
# Elastic Compliance Matrix: (Units=1/GPa)
#
#
# Indices 1 2 3 4 5 6 
#
# 1 0.021483 -0.004691 0.002517 0.000000 0.000000 0.000000
# 2 -0.004691 0.006343 -0.003275 0.000000 0.000000 0.000000
# 3 0.002517 -0.003275 0.005578 0.000000 0.000000 0.000000
# 4 0.000000 0.000000 0.000000 0.039487 0.000000 0.000000
# 5 0.000000 0.000000 0.000000 0.000000 -0.107648 0.000000
# 6 0.000000 0.000000 0.000000 0.000000 0.000000 0.023652
#
#
# Mechanical properties :
#
#
# Convention : Reuss Voigt Hill
#
# Bulk Modulus (GPa) = 44.43207 101.10404 72.76805
# Shear Modulus (GPa) = 685.33017 38.16381 361.74699
#
# Velocity S-wave (km/s) = 17.00464 4.01276 12.35435
# Velocity P-wave (km/s) = 20.10698 8.00800 15.30390
#
# Compressibility (1/GPa) = 0.02250627
#
# Stress axis : x y z
#
# Youngs Moduli (GPa) = 46.54830 157.64978 179.27144
#
# Poissons Ratio (x) = 0.73958 -0.45120
# Poissons Ratio (y) = 0.21837 0.58704
# Poissons Ratio (z) = -0.11715 0.51624
#
# Static dielectric constant tensor:
#      x y z
#    x 4.407700 0.000000 0.000000 
#    y 0.000000 4.640520 0.000000 
#    z 0.000000 0.000000 4.479470 
# 
# 
# High freq. dielectric constant tensor:
#      x y z
#    x 1.992800 0.000000 0.000000 
#    y 0.000000 1.941300 0.000000 
#    z 0.000000 0.000000 1.916770 
# 
# From -- ./inp_files/24411.got.cif
#   From: 2010.03.12/outbox.cif.g09.slc.cpg/sg66_13_cif.got.tgz:24411.got - 2010.04.10 21:57:39.
