data_PCOD8277132
_publ_section_title
;
Structure prediction by ZEFSAII (Michael W. Deem and Ramdas Pophale) SiO2 
 PCOD8277132
Probable space group: C C C M
;
_chemical_formula_sum "Si O2"
_cell_formula_units_Z 52
_cell_length_a 9.913112
_cell_length_b 10.300139
_cell_length_c 26.004633
_cell_angle_alpha 90.000000
_cell_angle_beta 90.000000
_cell_angle_gamma 90.000000
_cell_volume 2655.240279
_symmetry_space_group_name_H-M "C C C M"
_symmetry_group_IT_number 66
_symmetry_cell_setting 'orthorhombic'
loop_
_space_group_symop_operation_xyz
x,y,z
-x,-y,z
x,-y,1/2-z
-x,y,1/2-z
-x,-y,-z
x,y,-z
-x,y,1/2+z
x,-y,1/2+z
1/2+x,1/2+y,z
1/2-x,1/2-y,z
1/2+x,1/2-y,1/2-z
1/2-x,1/2+y,1/2-z
1/2-x,1/2-y,-z
1/2+x,1/2+y,-z
1/2-x,1/2+y,1/2+z
1/2+x,1/2-y,1/2+z
loop_
_atom_site_type_symbol
_atom_site_label
_atom_site_fract_x
_atom_site_fract_y
_atom_site_fract_z
Si Si1 0.500000 0.500000 0.250000
Si Si2 0.246233 0.609365 0.214179
Si Si3 0.639828 0.854436 0.060029
Si Si4 0.654574 0.866285 0.400691
O O1 0.405894 0.578385 0.209921
O O2 0.173783 0.500000 0.250000
O O3 0.250000 0.750000 0.241385
O O4 0.172771 0.613006 0.159870
O O5 0.750000 0.750000 0.079350
O O6 0.500831 0.828493 0.090043
O O7 0.693311 0.000353 0.070387
O O8 0.610855 0.837036 0.000000
O O9 0.750000 0.750000 0.421133
#
# Coordination Sequence:
#
# PCOD8277132 Si02
#       4
#     4  16  16  16
#     4   8  20  40  54  82 134 148 194 254 288 356
#     4   9  20  40  58  88 120 163 196 245 299 354
#     4  10  23  42  61  89 125 160 198 250 309 362
#     4  10  21  39  62  93 119 156 207 249 293 362
#
# _framework density 19.583915999999999
#
# number of rings (size 3 to 8) (size 9 to 14) (size 15 to 20)
#    0.923    1.538    0.000    1.846    0.000    9.846 
#   22.154    3.077    0.000    0.000    0.000    0.000 
#    0.000    0.000    0.000    0.000    0.000    0.000 
#
# Total GULP energy -322117.982683 kJ/mol
# GULP energy per Si atom -12389.153180 kJ/mol
# Density = 1.953934 g / cm^3
# Si number density = 19.583916 Si / 1000 Ang^3
#
#
#
# Elastic Constant Matrix: (Units=GPa)
#
#
# Indices 1 2 3 4 5 6 
#
# 1 144.9605 88.6332 57.7222 0.0000 0.0000 0.0000
# 2 88.6332 167.1551 42.0559 0.0000 0.0000 0.0000
# 3 57.7222 42.0559 92.1059 0.0000 0.0000 0.0000
# 4 0.0000 0.0000 0.0000 23.9830 0.0000 0.0000
# 5 0.0000 0.0000 0.0000 0.0000 -177.4985 0.0000
# 6 0.0000 0.0000 0.0000 0.0000 0.0000 41.8341
#
#
#
# Elastic Compliance Matrix: (Units=1/GPa)
#
#
# Indices 1 2 3 4 5 6 
#
# 1 0.012111 -0.005098 -0.005262 0.000000 0.000000 0.000000
# 2 -0.005098 0.008905 -0.000871 0.000000 0.000000 0.000000
# 3 -0.005262 -0.000871 0.014553 0.000000 0.000000 0.000000
# 4 0.000000 0.000000 0.000000 0.041696 0.000000 0.000000
# 5 0.000000 0.000000 0.000000 0.000000 -0.005634 0.000000
# 6 0.000000 0.000000 0.000000 0.000000 0.000000 0.023904
#
#
# Mechanical properties :
#
#
# Convention : Reuss Voigt Hill
#
# Bulk Modulus (GPa) = 76.30103 86.78268 81.54186
# Shear Modulus (GPa) = 40.86143 -7.94896 16.45623
#
# Velocity S-wave (km/s) = 4.57275 -2.01686 2.90193
# Velocity P-wave (km/s) = 8.18082 6.24386 7.27707
#
# Compressibility (1/GPa) = 0.01310598
#
# Stress axis : x y z
#
# Youngs Moduli (GPa) = 82.57227 112.30036 68.71644
#
# Poissons Ratio (x) = 0.57247 0.36159
# Poissons Ratio (y) = 0.42093 0.05987
# Poissons Ratio (z) = 0.43450 0.09784
#
# Static dielectric constant tensor:
#      x y z
#    x 3.500500 0.000000 0.000000 
#    y 0.000000 3.986710 0.000000 
#    z 0.000000 0.000000 3.273180 
# 
# 
# High freq. dielectric constant tensor:
#      x y z
#    x 1.759490 0.000000 0.000000 
#    y 0.000000 1.779650 0.000000 
#    z 0.000000 0.000000 1.749020 
# 
# From -- ./inp_files/63162.got.cif
#   From: 2010.03.12/outbox.cif.g09.slc.cpg/sg66_32_cif.got.tgz:63162.got - 2010.04.10 21:57:39.
