data_PCOD8277283
_publ_section_title
;
Structure prediction by ZEFSAII (Michael W. Deem and Ramdas Pophale) SiO2 
 PCOD8277283
Probable space group: C C C M
;
_chemical_formula_sum "Si O2"
_cell_formula_units_Z 104
_cell_length_a 19.145991
_cell_length_b 9.303700
_cell_length_c 27.897233
_cell_angle_alpha 90.000000
_cell_angle_beta 90.000000
_cell_angle_gamma 90.000000
_cell_volume 4969.293844
_symmetry_space_group_name_H-M "C C C M"
_symmetry_group_IT_number 66
_symmetry_cell_setting 'orthorhombic'
loop_
_space_group_symop_operation_xyz
x,y,z
-x,-y,z
x,-y,1/2-z
-x,y,1/2-z
-x,-y,-z
x,y,-z
-x,y,1/2+z
x,-y,1/2+z
1/2+x,1/2+y,z
1/2-x,1/2-y,z
1/2+x,1/2-y,1/2-z
1/2-x,1/2+y,1/2-z
1/2-x,1/2-y,-z
1/2+x,1/2+y,-z
1/2-x,1/2+y,1/2+z
1/2+x,1/2-y,1/2+z
loop_
_atom_site_type_symbol
_atom_site_label
_atom_site_fract_x
_atom_site_fract_y
_atom_site_fract_z
Si Si1 0.145559 0.859178 0.500000
Si Si2 0.104958 0.732160 0.864074
Si Si3 0.872130 0.969583 0.100434
Si Si4 0.617368 0.203264 0.335557
Si Si5 0.500000 0.000000 0.856900
Si Si6 0.291569 0.985155 0.105517
Si Si7 0.081950 0.833016 0.242773
Si Si8 0.694136 0.061504 0.500000
O O1 0.110154 0.927428 0.453684
O O2 0.227735 0.881685 0.500000
O O3 0.136180 0.687547 0.500000
O O4 0.182227 0.666104 0.872932
O O5 0.101301 0.765738 0.808007
O O6 0.049927 0.613194 0.885160
O O7 0.089116 0.879707 0.891562
O O8 0.903011 0.846750 0.134850
O O9 0.790590 0.995503 0.110667
O O10 0.551223 0.099966 0.326520
O O11 0.632550 0.251835 0.281194
O O12 0.678013 0.121232 0.364565
O O13 0.316371 0.976445 0.049753
O O14 0.000000 0.806770 0.250000
O O15 0.100230 0.000000 0.250000
#
# Coordination Sequence:
#
# PCOD8277283 Si02
#       8
#     8  16  16  16   8  16  16   8
#     4   9  18  33  63  92 116 162 218 244 286 374
#     4  11  23  40  61  90 128 155 211 254 305 358
#     4  11  21  39  64  93 124 163 202 248 310 368
#     4  11  21  38  64  90 124 154 209 250 304 363
#     4  10  24  39  58  93 110 160 202 267 302 341
#     4  10  22  37  62  97 127 163 196 251 307 369
#     4  11  22  39  63  92 113 161 219 258 289 356
#     4   9  16  35  61  90 125 160 208 250 291 355
#
# _framework density 20.928526000000002
#
# number of rings (size 3 to 8) (size 9 to 14) (size 15 to 20)
#    0.000    1.538    4.615    0.923    0.000    4.308 
#    0.000    6.923    0.000   17.538    0.000    0.000 
#    0.000    0.000    0.000    0.000    0.000    0.000 
#
# Total GULP energy -644197.458472 kJ/mol
# GULP energy per Si atom -12388.412663 kJ/mol
# Density = 2.088089 g / cm^3
# Si number density = 20.928526 Si / 1000 Ang^3
#
#
#
# Elastic Constant Matrix: (Units=GPa)
#
#
# Indices 1 2 3 4 5 6 
#
# 1 44.0370 22.4080 28.4085 0.0000 0.0000 0.0000
# 2 22.4080 139.6257 51.5028 0.0000 0.0000 0.0000
# 3 28.4085 51.5028 151.1378 0.0000 0.0000 0.0000
# 4 0.0000 0.0000 0.0000 26.5872 0.0000 0.0000
# 5 0.0000 0.0000 0.0000 0.0000 17.4248 0.0000
# 6 0.0000 0.0000 0.0000 0.0000 0.0000 29.0994
#
#
#
# Elastic Compliance Matrix: (Units=1/GPa)
#
#
# Indices 1 2 3 4 5 6 
#
# 1 0.026759 -0.002790 -0.004079 0.000000 0.000000 0.000000
# 2 -0.002790 0.008483 -0.002366 0.000000 0.000000 0.000000
# 3 -0.004079 -0.002366 0.008190 0.000000 0.000000 0.000000
# 4 0.000000 0.000000 0.000000 0.037612 0.000000 0.000000
# 5 0.000000 0.000000 0.000000 0.000000 0.057389 0.000000
# 6 0.000000 0.000000 0.000000 0.000000 0.000000 0.034365
#
#
# Mechanical properties :
#
#
# Convention : Reuss Voigt Hill
#
# Bulk Modulus (GPa) = 40.06244 59.93767 50.00005
# Shear Modulus (GPa) = 25.05156 30.12103 27.58629
#
# Velocity S-wave (km/s) = 3.46353 3.79784 3.63453
# Velocity P-wave (km/s) = 5.93117 6.92335 6.44638
#
# Compressibility (1/GPa) = 0.02496103
#
# Stress axis : x y z
#
# Youngs Moduli (GPa) = 37.37028 117.88929 122.10733
#
# Poissons Ratio (x) = 0.32889 0.49809
# Poissons Ratio (y) = 0.10426 0.28893
# Poissons Ratio (z) = 0.15244 0.27895
#
# Static dielectric constant tensor:
#      x y z
#    x 3.601860 0.000000 0.000000 
#    y 0.000000 4.181630 0.000000 
#    z 0.000000 0.000000 3.865860 
# 
# 
# High freq. dielectric constant tensor:
#      x y z
#    x 1.791990 0.000000 0.000000 
#    y 0.000000 1.840790 0.000000 
#    z 0.000000 0.000000 1.810950 
# 
# From -- ./inp_files/65765.got.cif
#   From: 2010.03.12/outbox.cif.g09.slc.cpg/sg66_33_cif.got.tgz:65765.got - 2010.04.10 21:57:39.
