data_PCOD8277440
_publ_section_title
;
Structure prediction by ZEFSAII (Michael W. Deem and Ramdas Pophale) SiO2 
 PCOD8277440
Probable space group: C C C M
;
_chemical_formula_sum "Si O2"
_cell_formula_units_Z 112
_cell_length_a 14.520842
_cell_length_b 13.375940
_cell_length_c 29.151091
_cell_angle_alpha 90.000000
_cell_angle_beta 90.000000
_cell_angle_gamma 90.000000
_cell_volume 5662.013820
_symmetry_space_group_name_H-M "C C C M"
_symmetry_group_IT_number 66
_symmetry_cell_setting 'orthorhombic'
loop_
_space_group_symop_operation_xyz
x,y,z
-x,-y,z
x,-y,1/2-z
-x,y,1/2-z
-x,-y,-z
x,y,-z
-x,y,1/2+z
x,-y,1/2+z
1/2+x,1/2+y,z
1/2-x,1/2-y,z
1/2+x,1/2-y,1/2-z
1/2-x,1/2+y,1/2-z
1/2-x,1/2-y,-z
1/2+x,1/2+y,-z
1/2-x,1/2+y,1/2+z
1/2+x,1/2-y,1/2+z
loop_
_atom_site_type_symbol
_atom_site_label
_atom_site_fract_x
_atom_site_fract_y
_atom_site_fract_z
Si Si1 0.979669 0.774789 0.390872
Si Si2 0.318579 0.341351 0.448282
Si Si3 0.573324 0.089993 0.634457
Si Si4 0.656574 0.805969 0.317495
Si Si5 0.642756 0.230737 0.286398
Si Si6 0.422543 0.421503 0.831080
Si Si7 0.244431 0.478921 0.369947
O O1 0.920472 0.804379 0.435093
O O2 0.918001 0.755786 0.345794
O O3 0.032639 0.671342 0.401471
O O4 0.047411 0.866737 0.378524
O O5 0.320847 0.383034 0.500000
O O6 0.250000 0.250000 0.443167
O O7 0.285464 0.427172 0.414506
O O8 0.594186 0.147175 0.682273
O O9 0.500000 0.000000 0.641782
O O10 0.671630 0.060989 0.612315
O O11 0.750000 0.750000 0.325571
O O12 0.627326 0.809517 0.264747
O O13 0.675488 0.915845 0.337210
O O14 0.750000 0.250000 0.298479
O O15 0.592319 0.337937 0.291966
O O16 0.500000 0.500000 0.814590
O O17 0.327001 0.478836 0.839466
#
# Coordination Sequence:
#
# PCOD8277440 Si02
#       7
#    16  16  16  16  16  16  16
#     4  11  21  40  59  91 123 161 200 257 315 362
#     4  11  21  39  69  96 119 155 208 259 314 377
#     4  11  22  38  62  88 123 166 204 249 306 366
#     4  11  20  39  60  80 126 161 209 262 292 348
#     4  10  23  39  56  90 124 166 210 256 296 354
#     4  11  22  39  65  87 124 168 208 251 306 366
#     4  12  21  41  61  90 120 163 203 253 314 365
#
# _framework density 19.780947999999999
#
# number of rings (size 3 to 8) (size 9 to 14) (size 15 to 20)
#    0.000    1.000    7.143    0.000    0.000    2.857 
#    2.571    7.857    0.000    2.571    0.000    3.000 
#    0.000    0.000    0.000    0.000    0.000    0.000 
#
# Total GULP energy -694207.923614 kJ/mol
# GULP energy per Si atom -12396.570065 kJ/mol
# Density = 1.973593 g / cm^3
# Si number density = 19.780948 Si / 1000 Ang^3
#
#
#
# Elastic Constant Matrix: (Units=GPa)
#
#
# Indices 1 2 3 4 5 6 
#
# 1 84.1679 29.3568 24.6071 0.0000 0.0000 0.0000
# 2 29.3568 98.4246 38.0814 0.0000 0.0000 0.0000
# 3 24.6071 38.0814 84.9816 0.0000 0.0000 0.0000
# 4 0.0000 0.0000 0.0000 15.5212 0.0000 0.0000
# 5 0.0000 0.0000 0.0000 0.0000 27.3934 0.0000
# 6 0.0000 0.0000 0.0000 0.0000 0.0000 46.6950
#
#
#
# Elastic Compliance Matrix: (Units=1/GPa)
#
#
# Indices 1 2 3 4 5 6 
#
# 1 0.013715 -0.003090 -0.002587 0.000000 0.000000 0.000000
# 2 -0.003090 0.012987 -0.004925 0.000000 0.000000 0.000000
# 3 -0.002587 -0.004925 0.014723 0.000000 0.000000 0.000000
# 4 0.000000 0.000000 0.000000 0.064428 0.000000 0.000000
# 5 0.000000 0.000000 0.000000 0.000000 0.036505 0.000000
# 6 0.000000 0.000000 0.000000 0.000000 0.000000 0.021416
#
#
# Mechanical properties :
#
#
# Convention : Reuss Voigt Hill
#
# Bulk Modulus (GPa) = 49.45062 50.18497 49.81779
# Shear Modulus (GPa) = 26.07994 29.62382 27.85188
#
# Velocity S-wave (km/s) = 3.63497 3.87407 3.75642
# Velocity P-wave (km/s) = 6.53228 6.74067 6.63730
#
# Compressibility (1/GPa) = 0.02022219
#
# Stress axis : x y z
#
# Youngs Moduli (GPa) = 72.91303 76.99867 67.91994
#
# Poissons Ratio (x) = 0.23792 0.17568
# Poissons Ratio (y) = 0.22530 0.33451
# Poissons Ratio (z) = 0.18860 0.37922
#
# Static dielectric constant tensor:
#      x y z
#    x 3.775550 0.000000 0.000000 
#    y 0.000000 3.848310 0.000000 
#    z 0.000000 0.000000 3.365830 
# 
# 
# High freq. dielectric constant tensor:
#      x y z
#    x 1.798600 0.000000 0.000000 
#    y 0.000000 1.782760 0.000000 
#    z 0.000000 0.000000 1.723540 
# 
# From -- ./inp_files/69549.got.cif
#   From: 2010.03.12/outbox.cif.g09.slc.cpg/sg66_35_cif.got.tgz:69549.got - 2010.04.10 21:57:39.
