data_PCOD8277854
_publ_section_title
;
Structure prediction by ZEFSAII (Michael W. Deem and Ramdas Pophale) SiO2 
 PCOD8277854
Probable space group: C C C M
;
_chemical_formula_sum "Si O2"
_cell_formula_units_Z 44
_cell_length_a 7.785501
_cell_length_b 6.754483
_cell_length_c 37.273618
_cell_angle_alpha 90.000000
_cell_angle_beta 90.000000
_cell_angle_gamma 90.000000
_cell_volume 1960.109023
_symmetry_space_group_name_H-M "C C C M"
_symmetry_group_IT_number 66
_symmetry_cell_setting 'orthorhombic'
loop_
_space_group_symop_operation_xyz
x,y,z
-x,-y,z
x,-y,1/2-z
-x,y,1/2-z
-x,-y,-z
x,y,-z
-x,y,1/2+z
x,-y,1/2+z
1/2+x,1/2+y,z
1/2-x,1/2-y,z
1/2+x,1/2-y,1/2-z
1/2-x,1/2+y,1/2-z
1/2-x,1/2-y,-z
1/2+x,1/2+y,-z
1/2-x,1/2+y,1/2+z
1/2+x,1/2-y,1/2+z
loop_
_atom_site_type_symbol
_atom_site_label
_atom_site_fract_x
_atom_site_fract_y
_atom_site_fract_z
Si Si1 0.500000 0.000000 0.847035
Si Si2 0.945571 0.721448 0.500000
Si Si3 0.000000 0.000000 0.250000
Si Si4 0.250000 0.750000 0.606798
Si Si5 0.500000 0.500000 0.936711
Si Si6 0.750000 0.250000 0.200917
O O1 0.588464 0.829863 0.870732
O O2 0.350630 0.906372 0.823208
O O3 0.750000 0.750000 0.500000
O O4 0.000000 0.500000 0.500000
O O5 0.006312 0.811006 0.537379
O O6 0.884351 0.136988 0.225394
O O7 0.329069 0.555710 0.586185
#
# Coordination Sequence:
#
# PCOD8277854 Si02
#       6
#     8   8   4   8   8   8
#     4  12  26  45  68  99 144 182 226 282 336 404
#     4  11  24  43  70  95 135 174 222 315 350 411
#     4  12  24  42  76 102 136 180 224 282 334 402
#     4  12  26  44  70  98 136 189 230 280 342 423
#     4  11  26  43  66 103 130 177 244 284 358 417
#     4  12  24  45  68 104 138 176 228 276 340 396
#
# _framework density 22.447731000000001
#
# number of rings (size 3 to 8) (size 9 to 14) (size 15 to 20)
#    0.000    0.364    0.000    8.727    7.636    2.909 
#    0.000    0.000    0.000    0.000    0.000    0.000 
#    0.000    0.000    0.000    0.000    0.000    0.000 
#
# Total GULP energy -272629.593438 kJ/mol
# GULP energy per Si atom -12392.254247 kJ/mol
# Density = 2.239664 g / cm^3
# Si number density = 22.447731 Si / 1000 Ang^3
#
#
#
# Elastic Constant Matrix: (Units=GPa)
#
#
# Indices 1 2 3 4 5 6 
#
# 1 141.0110 59.6046 60.4002 0.0000 0.0000 0.0000
# 2 59.6046 157.4804 61.2594 0.0000 0.0000 0.0000
# 3 60.4002 61.2594 123.9698 0.0000 0.0000 0.0000
# 4 0.0000 0.0000 0.0000 52.4564 0.0000 0.0000
# 5 0.0000 0.0000 0.0000 0.0000 50.0327 0.0000
# 6 0.0000 0.0000 0.0000 0.0000 0.0000 69.3460
#
#
#
# Elastic Compliance Matrix: (Units=1/GPa)
#
#
# Indices 1 2 3 4 5 6 
#
# 1 0.009558 -0.002236 -0.003552 0.000000 0.000000 0.000000
# 2 -0.002236 0.008384 -0.003054 0.000000 0.000000 0.000000
# 3 -0.003552 -0.003054 0.011306 0.000000 0.000000 0.000000
# 4 0.000000 0.000000 0.000000 0.019063 0.000000 0.000000
# 5 0.000000 0.000000 0.000000 0.000000 0.019987 0.000000
# 6 0.000000 0.000000 0.000000 0.000000 0.000000 0.014420
#
#
# Mechanical properties :
#
#
# Convention : Reuss Voigt Hill
#
# Bulk Modulus (GPa) = 86.46636 87.22105 86.84371
# Shear Modulus (GPa) = 47.95819 50.44682 49.20250
#
# Velocity S-wave (km/s) = 4.62718 4.74571 4.68682
# Velocity P-wave (km/s) = 8.19453 8.30473 8.24981
#
# Compressibility (1/GPa) = 0.01156519
#
# Stress axis : x y z
#
# Youngs Moduli (GPa) = 104.62172 119.27308 88.44841
#
# Poissons Ratio (x) = 0.26669 0.31417
# Poissons Ratio (y) = 0.23393 0.27009
# Poissons Ratio (z) = 0.37162 0.36421
#
# Static dielectric constant tensor:
#      x y z
#    x 4.238110 0.000000 0.000000 
#    y 0.000000 4.074050 0.000000 
#    z 0.000000 0.000000 4.458860 
# 
# 
# High freq. dielectric constant tensor:
#      x y z
#    x 1.903890 0.000000 0.000000 
#    y 0.000000 1.894680 0.000000 
#    z 0.000000 0.000000 1.908200 
# 
# From -- ./inp_files/67715.got.cif
#   From: 2010.03.12/outbox.cif.g09.slc.cpg/sg66_34_cif.got.tgz:67715.got - 2010.04.10 21:57:39.
