data_PCOD8277416
_publ_section_title
;
Structure prediction by ZEFSAII (Michael W. Deem and Ramdas Pophale) SiO2 
 PCOD8277416
Probable space group: C C C M
;
_chemical_formula_sum "Si O2"
_cell_formula_units_Z 72
_cell_length_a 9.463563
_cell_length_b 24.382955
_cell_length_c 13.805538
_cell_angle_alpha 90.000000
_cell_angle_beta 90.000000
_cell_angle_gamma 90.000000
_cell_volume 3185.622796
_symmetry_space_group_name_H-M "C C C M"
_symmetry_group_IT_number 66
_symmetry_cell_setting 'orthorhombic'
loop_
_space_group_symop_operation_xyz
x,y,z
-x,-y,z
x,-y,1/2-z
-x,y,1/2-z
-x,-y,-z
x,y,-z
-x,y,1/2+z
x,-y,1/2+z
1/2+x,1/2+y,z
1/2-x,1/2-y,z
1/2+x,1/2-y,1/2-z
1/2-x,1/2+y,1/2-z
1/2-x,1/2-y,-z
1/2+x,1/2+y,-z
1/2-x,1/2+y,1/2+z
1/2+x,1/2-y,1/2+z
loop_
_atom_site_type_symbol
_atom_site_label
_atom_site_fract_x
_atom_site_fract_y
_atom_site_fract_z
Si Si1 0.506402 0.680273 0.390385
Si Si2 0.436328 0.916592 0.000000
Si Si3 0.765539 0.474080 0.500000
Si Si4 0.500000 0.222949 0.250000
Si Si5 0.870066 0.926192 0.188770
Si Si6 0.300336 0.136838 0.673876
O O1 0.458916 0.685378 0.500000
O O2 0.480250 0.739300 0.343836
O O3 0.407545 0.635887 0.339470
O O4 0.667214 0.660505 0.383760
O O5 0.418352 0.880729 0.096293
O O6 0.596351 0.936777 0.000000
O O7 0.314424 0.963137 0.000000
O O8 0.670275 0.463055 0.404197
O O9 0.362153 0.185011 0.259573
O O10 0.737719 0.917210 0.261538
O O11 0.000000 0.953226 0.250000
#
# Coordination Sequence:
#
# PCOD8277416 Si02
#       6
#    16   8   8   8  16  16
#     4  11  22  40  65  97 135 179 229 288 345 424
#     4  11  26  45  73  98 138 186 239 298 350 426
#     4  11  24  47  72 104 135 188 242 292 360 421
#     4  12  24  38  66  99 135 186 228 286 358 422
#     4  10  22  43  71 101 144 175 232 302 349 416
#     4  11  23  43  63  98 139 183 230 289 356 424
#
# _framework density 22.601545000000002
#
# number of rings (size 3 to 8) (size 9 to 14) (size 15 to 20)
#    0.000    1.111    5.556    2.000    1.556    1.778 
#    2.000   15.556    0.000    0.000    0.000    0.000 
#    0.000    0.000    0.000    0.000    0.000    0.000 
#
# Total GULP energy -446475.056733 kJ/mol
# GULP energy per Si atom -12402.084909 kJ/mol
# Density = 2.255010 g / cm^3
# Si number density = 22.601545 Si / 1000 Ang^3
#
#
#
# Elastic Constant Matrix: (Units=GPa)
#
#
# Indices 1 2 3 4 5 6 
#
# 1 75.7277 21.8016 34.6111 0.0000 0.0000 0.0000
# 2 21.8016 79.3983 25.1932 0.0000 0.0000 0.0000
# 3 34.6111 25.1932 143.6320 0.0000 0.0000 0.0000
# 4 0.0000 0.0000 0.0000 27.6414 0.0000 0.0000
# 5 0.0000 0.0000 0.0000 0.0000 37.0770 0.0000
# 6 0.0000 0.0000 0.0000 0.0000 0.0000 74.3854
#
#
#
# Elastic Compliance Matrix: (Units=1/GPa)
#
#
# Indices 1 2 3 4 5 6 
#
# 1 0.015604 -0.003274 -0.003186 0.000000 0.000000 0.000000
# 2 -0.003274 0.014024 -0.001671 0.000000 0.000000 0.000000
# 3 -0.003186 -0.001671 0.008023 0.000000 0.000000 0.000000
# 4 0.000000 0.000000 0.000000 0.036178 0.000000 0.000000
# 5 0.000000 0.000000 0.000000 0.000000 0.026971 0.000000
# 6 0.000000 0.000000 0.000000 0.000000 0.000000 0.013443
#
#
# Mechanical properties :
#
#
# Convention : Reuss Voigt Hill
#
# Bulk Modulus (GPa) = 46.75152 51.32997 49.04075
# Shear Modulus (GPa) = 36.32838 42.29757 39.31298
#
# Velocity S-wave (km/s) = 4.01351 4.33071 4.17513
# Velocity P-wave (km/s) = 6.49675 6.91136 6.70726
#
# Compressibility (1/GPa) = 0.02138968
#
# Stress axis : x y z
#
# Youngs Moduli (GPa) = 64.08715 71.30721 124.64147
#
# Poissons Ratio (x) = 0.23344 0.39709
# Poissons Ratio (y) = 0.20980 0.20827
# Poissons Ratio (z) = 0.20417 0.11915
#
# Static dielectric constant tensor:
#      x y z
#    x 3.672260 0.000000 0.000000 
#    y 0.000000 3.920640 0.000000 
#    z 0.000000 0.000000 4.253440 
# 
# 
# High freq. dielectric constant tensor:
#      x y z
#    x 1.885650 0.000000 0.000000 
#    y 0.000000 1.890050 0.000000 
#    z 0.000000 0.000000 1.904630 
# 
# From -- ./inp_files/24523.got.cif
#   From: 2010.03.12/outbox.cif.g09.slc.cpg/sg66_13_cif.got.tgz:24523.got - 2010.04.10 21:57:39.
