data_PCOD8277082
_publ_section_title
;
Structure prediction by ZEFSAII (Michael W. Deem and Ramdas Pophale) SiO2 
 PCOD8277082
Probable space group: C C C M
;
_chemical_formula_sum "Si O2"
_cell_formula_units_Z 64
_cell_length_a 34.255297
_cell_length_b 4.995363
_cell_length_c 17.346333
_cell_angle_alpha 90.000000
_cell_angle_beta 90.000000
_cell_angle_gamma 90.000000
_cell_volume 2968.263621
_symmetry_space_group_name_H-M "C C C M"
_symmetry_group_IT_number 66
_symmetry_cell_setting 'orthorhombic'
loop_
_space_group_symop_operation_xyz
x,y,z
-x,-y,z
x,-y,1/2-z
-x,y,1/2-z
-x,-y,-z
x,y,-z
-x,y,1/2+z
x,-y,1/2+z
1/2+x,1/2+y,z
1/2-x,1/2-y,z
1/2+x,1/2-y,1/2-z
1/2-x,1/2+y,1/2-z
1/2-x,1/2-y,-z
1/2+x,1/2+y,-z
1/2-x,1/2+y,1/2+z
1/2+x,1/2-y,1/2+z
loop_
_atom_site_type_symbol
_atom_site_label
_atom_site_fract_x
_atom_site_fract_y
_atom_site_fract_z
Si Si1 0.974046 0.757051 0.914474
Si Si2 0.358085 0.477061 0.410140
Si Si3 0.723263 0.496358 0.161829
Si Si4 0.602926 0.963294 0.159641
O O1 0.938151 0.674334 0.861193
O O2 0.000000 0.500000 0.922737
O O3 0.959075 0.844922 0.000000
O O4 0.000000 0.000000 0.878273
O O5 0.366198 0.510089 0.500000
O O6 0.312702 0.431054 0.394352
O O7 0.387813 0.247367 0.380318
O O8 0.364449 0.756320 0.366626
O O9 0.708047 0.500000 0.250000
O O10 0.750000 0.750000 0.140128
O O11 0.750000 0.250000 0.146720
O O12 0.604683 0.000000 0.250000
#
# Coordination Sequence:
#
# PCOD8277082 Si02
#       4
#    16  16  16  16
#     4  10  21  39  64  92 124 161 201 251 312 375
#     4  12  25  42  66  95 130 171 218 271 326 387
#     4  10  21  38  61  90 126 167 211 263 325 388
#     4  12  25  43  66  95 131 171 218 268 323 388
#
# _framework density 21.561429
#
# number of rings (size 3 to 8) (size 9 to 14) (size 15 to 20)
#    0.000    1.000    0.000    7.500    0.000    5.500 
#    0.000    1.250    0.000    0.000    0.000    0.000 
#    0.000    0.000    0.000    0.000    0.000    0.000 
#
# Total GULP energy -396721.921743 kJ/mol
# GULP energy per Si atom -12397.560054 kJ/mol
# Density = 2.151235 g / cm^3
# Si number density = 21.561429 Si / 1000 Ang^3
#
#
#
# Elastic Constant Matrix: (Units=GPa)
#
#
# Indices 1 2 3 4 5 6 
#
# 1 99.0867 28.2430 63.7666 0.0000 0.0000 0.0000
# 2 28.2430 133.3480 61.4935 0.0000 0.0000 0.0000
# 3 63.7666 61.4935 155.9374 0.0000 0.0000 0.0000
# 4 0.0000 0.0000 0.0000 13.5245 0.0000 0.0000
# 5 0.0000 0.0000 0.0000 0.0000 41.0434 0.0000
# 6 0.0000 0.0000 0.0000 0.0000 0.0000 70.2140
#
#
#
# Elastic Compliance Matrix: (Units=1/GPa)
#
#
# Indices 1 2 3 4 5 6 
#
# 1 0.013713 -0.000389 -0.005454 0.000000 0.000000 0.000000
# 2 -0.000389 0.009177 -0.003460 0.000000 0.000000 0.000000
# 3 -0.005454 -0.003460 0.010008 0.000000 0.000000 0.000000
# 4 0.000000 0.000000 0.000000 0.073940 0.000000 0.000000
# 5 0.000000 0.000000 0.000000 0.000000 0.024364 0.000000
# 6 0.000000 0.000000 0.000000 0.000000 0.000000 0.014242
#
#
# Mechanical properties :
#
#
# Convention : Reuss Voigt Hill
#
# Bulk Modulus (GPa) = 69.97226 77.26428 73.61827
# Shear Modulus (GPa) = 29.61830 40.61430 35.11630
#
# Velocity S-wave (km/s) = 3.71033 4.34482 4.04005
# Velocity P-wave (km/s) = 7.13291 7.81551 7.48200
#
# Compressibility (1/GPa) = 0.01429138
#
# Stress axis : x y z
#
# Youngs Moduli (GPa) = 72.92310 108.96679 99.92493
#
# Poissons Ratio (x) = 0.04242 0.54500
# Poissons Ratio (y) = 0.02839 0.34572
# Poissons Ratio (z) = 0.39773 0.37700
#
# Static dielectric constant tensor:
#      x y z
#    x 3.723110 0.000000 0.000000 
#    y 0.000000 4.185150 0.000000 
#    z 0.000000 0.000000 3.585500 
# 
# 
# High freq. dielectric constant tensor:
#      x y z
#    x 1.858560 0.000000 0.000000 
#    y 0.000000 1.869570 0.000000 
#    z 0.000000 0.000000 1.837140 
# 
# From -- ./inp_files/44487.got.cif
#   From: 2010.03.12/outbox.cif.g09.slc.cpg/sg66_23_cif.got.tgz:44487.got - 2010.04.10 21:57:39.
