data_PCOD8277608
_publ_section_title
;
Structure prediction by ZEFSAII (Michael W. Deem and Ramdas Pophale) SiO2 
 PCOD8277608
Probable space group: C C C M
;
_chemical_formula_sum "Si O2"
_cell_formula_units_Z 64
_cell_length_a 18.677745
_cell_length_b 6.976035
_cell_length_c 21.847443
_cell_angle_alpha 90.000000
_cell_angle_beta 90.000000
_cell_angle_gamma 90.000000
_cell_volume 2846.647604
_symmetry_space_group_name_H-M "C C C M"
_symmetry_group_IT_number 66
_symmetry_cell_setting 'orthorhombic'
loop_
_space_group_symop_operation_xyz
x,y,z
-x,-y,z
x,-y,1/2-z
-x,y,1/2-z
-x,-y,-z
x,y,-z
-x,y,1/2+z
x,-y,1/2+z
1/2+x,1/2+y,z
1/2-x,1/2-y,z
1/2+x,1/2-y,1/2-z
1/2-x,1/2+y,1/2-z
1/2-x,1/2-y,-z
1/2+x,1/2+y,-z
1/2-x,1/2+y,1/2+z
1/2+x,1/2-y,1/2+z
loop_
_atom_site_type_symbol
_atom_site_label
_atom_site_fract_x
_atom_site_fract_y
_atom_site_fract_z
Si Si1 0.858802 0.630063 0.500000
Si Si2 0.583395 0.977779 0.366352
Si Si3 0.171902 0.834825 0.799705
Si Si4 0.677226 0.322607 0.625101
Si Si5 0.699565 0.466255 0.500000
O O1 0.899340 0.571732 0.437155
O O2 0.779443 0.546765 0.500000
O O3 0.856679 0.860447 0.500000
O O4 0.615095 0.833706 0.314327
O O5 0.500000 0.000000 0.356095
O O6 0.614346 0.188025 0.350012
O O7 0.250000 0.750000 0.784431
O O8 0.149123 0.000000 0.750000
O O9 0.170726 0.951127 0.862829
O O10 0.750000 0.250000 0.657574
O O11 0.683428 0.312877 0.552680
#
# Coordination Sequence:
#
# PCOD8277608 Si02
#       5
#     8  16  16  16   8
#     4  11  20  41  70 108 149 192 230 291 359 436
#     4  12  27  46  71 109 152 191 229 294 370 435
#     4  12  26  47  77 105 132 182 253 304 345 418
#     4  12  22  42  72 104 139 186 240 290 350 425
#     4  11  20  36  72 109 142 187 242 292 353 414
#
# _framework density 22.482586999999999
#
# number of rings (size 3 to 8) (size 9 to 14) (size 15 to 20)
#    0.000    0.250    7.500    2.250    0.000    1.000 
#    0.000    5.000    0.000    0.000    0.000    0.000 
#    0.000    0.000    0.000    0.000    0.000    0.000 
#
# Total GULP energy -396418.334251 kJ/mol
# GULP energy per Si atom -12388.072945 kJ/mol
# Density = 2.243142 g / cm^3
# Si number density = 22.482587 Si / 1000 Ang^3
#
#
#
# Elastic Constant Matrix: (Units=GPa)
#
#
# Indices 1 2 3 4 5 6 
#
# 1 165.8419 58.2507 30.4385 0.0000 0.0000 0.0000
# 2 58.2507 135.4481 26.7467 0.0000 0.0000 0.0000
# 3 30.4385 26.7467 99.2573 0.0000 0.0000 0.0000
# 4 0.0000 0.0000 0.0000 34.5505 0.0000 0.0000
# 5 0.0000 0.0000 0.0000 0.0000 30.9678 0.0000
# 6 0.0000 0.0000 0.0000 0.0000 0.0000 34.8862
#
#
#
# Elastic Compliance Matrix: (Units=1/GPa)
#
#
# Indices 1 2 3 4 5 6 
#
# 1 0.007301 -0.002849 -0.001471 0.000000 0.000000 0.000000
# 2 -0.002849 0.008910 -0.001527 0.000000 0.000000 0.000000
# 3 -0.001471 -0.001527 0.010937 0.000000 0.000000 0.000000
# 4 0.000000 0.000000 0.000000 0.028943 0.000000 0.000000
# 5 0.000000 0.000000 0.000000 0.000000 0.032292 0.000000
# 6 0.000000 0.000000 0.000000 0.000000 0.000000 0.028665
#
#
# Mechanical properties :
#
#
# Convention : Reuss Voigt Hill
#
# Bulk Modulus (GPa) = 64.71228 70.15769 67.43499
# Shear Modulus (GPa) = 37.34326 39.08835 38.21580
#
# Velocity S-wave (km/s) = 4.07994 4.17418 4.12733
# Velocity P-wave (km/s) = 7.14425 7.38274 7.26447
#
# Compressibility (1/GPa) = 0.01545302
#
# Stress axis : x y z
#
# Youngs Moduli (GPa) = 136.97515 112.23609 91.42889
#
# Poissons Ratio (x) = 0.31978 0.13450
# Poissons Ratio (y) = 0.39027 0.13963
# Poissons Ratio (z) = 0.20150 0.17140
#
# Static dielectric constant tensor:
#      x y z
#    x 3.656910 0.000000 0.000000 
#    y 0.000000 4.826680 0.000000 
#    z 0.000000 0.000000 4.305630 
# 
# 
# High freq. dielectric constant tensor:
#      x y z
#    x 1.844470 0.000000 0.000000 
#    y 0.000000 1.917840 0.000000 
#    z 0.000000 0.000000 1.902190 
# 
# From -- ./inp_files/65481.got.cif
#   From: 2010.03.12/outbox.cif.g09.slc.cpg/sg66_33_cif.got.tgz:65481.got - 2010.04.10 21:57:39.
