data_PCOD8277619
_publ_section_title
;
Structure prediction by ZEFSAII (Michael W. Deem and Ramdas Pophale) SiO2 
 PCOD8277619
Probable space group: C C C M
;
_chemical_formula_sum "Si O2"
_cell_formula_units_Z 96
_cell_length_a 15.847401
_cell_length_b 11.393693
_cell_length_c 26.862025
_cell_angle_alpha 90.000000
_cell_angle_beta 90.000000
_cell_angle_gamma 90.000000
_cell_volume 4850.218566
_symmetry_space_group_name_H-M "C C C M"
_symmetry_group_IT_number 66
_symmetry_cell_setting 'orthorhombic'
loop_
_space_group_symop_operation_xyz
x,y,z
-x,-y,z
x,-y,1/2-z
-x,y,1/2-z
-x,-y,-z
x,y,-z
-x,y,1/2+z
x,-y,1/2+z
1/2+x,1/2+y,z
1/2-x,1/2-y,z
1/2+x,1/2-y,1/2-z
1/2-x,1/2+y,1/2-z
1/2-x,1/2-y,-z
1/2+x,1/2+y,-z
1/2-x,1/2+y,1/2+z
1/2+x,1/2-y,1/2+z
loop_
_atom_site_type_symbol
_atom_site_label
_atom_site_fract_x
_atom_site_fract_y
_atom_site_fract_z
Si Si1 0.191645 0.923263 0.054488
Si Si2 0.723135 0.880812 0.283883
Si Si3 0.021695 0.158993 0.193198
Si Si4 0.952153 0.383424 0.841642
Si Si5 0.869085 0.020938 0.846532
Si Si6 0.373323 0.838567 0.055491
O O1 0.149886 0.007739 0.095650
O O2 0.292647 0.923662 0.059470
O O3 0.156149 0.793708 0.063375
O O4 0.165503 0.970408 0.000000
O O5 0.750000 0.750000 0.260425
O O6 0.632300 0.866737 0.309384
O O7 0.790461 0.905519 0.326636
O O8 0.723606 0.000000 0.250000
O O9 0.000000 0.134187 0.250000
O O10 0.022991 0.293703 0.178400
O O11 0.951971 0.100126 0.157948
O O12 0.113732 0.101913 0.182204
O O13 0.938249 0.372970 0.900965
O O14 0.000000 0.500000 0.828210
O O15 0.414186 0.853394 0.000000
#
# Coordination Sequence:
#
# PCOD8277619 Si02
#       6
#    16  16  16  16  16  16
#     4   9  16  31  62  93 115 147 198 260 308 359
#     4  12  25  42  66  91 124 168 220 260 306 378
#     4  11  24  39  59  87 126 164 201 249 317 364
#     4  12  26  40  61  92 128 160 204 266 314 364
#     4  11  20  39  64  88 118 159 207 249 299 378
#     4   9  17  35  60  88 119 155 199 250 311 372
#
# _framework density 19.792922000000001
#
# number of rings (size 3 to 8) (size 9 to 14) (size 15 to 20)
#    0.000    1.333    5.000    3.000    2.333    0.333 
#    0.000    2.500    0.000    0.000    0.000    2.333 
#    0.000    0.000    0.000    0.000    0.000    0.000 
#
# Total GULP energy -594699.013222 kJ/mol
# GULP energy per Si atom -12389.562775 kJ/mol
# Density = 1.974787 g / cm^3
# Si number density = 19.792922 Si / 1000 Ang^3
#
#
#
# Elastic Constant Matrix: (Units=GPa)
#
#
# Indices 1 2 3 4 5 6 
#
# 1 48.0835 33.6356 18.2292 0.0000 0.0000 0.0000
# 2 33.6356 123.0535 42.1452 0.0000 0.0000 0.0000
# 3 18.2292 42.1452 132.6575 0.0000 0.0000 0.0000
# 4 0.0000 0.0000 0.0000 -27.9055 0.0000 0.0000
# 5 0.0000 0.0000 0.0000 0.0000 7.4332 0.0000
# 6 0.0000 0.0000 0.0000 0.0000 0.0000 28.2374
#
#
#
# Elastic Compliance Matrix: (Units=1/GPa)
#
#
# Indices 1 2 3 4 5 6 
#
# 1 0.025968 -0.006593 -0.001474 0.000000 0.000000 0.000000
# 2 -0.006593 0.010793 -0.002523 0.000000 0.000000 0.000000
# 3 -0.001474 -0.002523 0.008542 0.000000 0.000000 0.000000
# 4 0.000000 0.000000 0.000000 -0.035835 0.000000 0.000000
# 5 0.000000 0.000000 0.000000 0.000000 0.134531 0.000000
# 6 0.000000 0.000000 0.000000 0.000000 0.000000 0.035414
#
#
# Mechanical properties :
#
#
# Convention : Reuss Voigt Hill
#
# Bulk Modulus (GPa) = 41.45371 54.64604 48.04988
# Shear Modulus (GPa) = 23.96538 15.53866 19.75202
#
# Velocity S-wave (km/s) = 3.48344 2.80493 3.16244
# Velocity P-wave (km/s) = 6.09658 6.17730 6.13707
#
# Compressibility (1/GPa) = 0.02412329
#
# Stress axis : x y z
#
# Youngs Moduli (GPa) = 38.50869 92.65374 117.06550
#
# Poissons Ratio (x) = 0.61091 0.17252
# Poissons Ratio (y) = 0.25391 0.29534
# Poissons Ratio (z) = 0.05675 0.23375
#
# Static dielectric constant tensor:
#      x y z
#    x 4.636910 0.000000 0.000000 
#    y 0.000000 3.919120 0.000000 
#    z 0.000000 0.000000 3.838120 
# 
# 
# High freq. dielectric constant tensor:
#      x y z
#    x 1.756060 0.000000 0.000000 
#    y 0.000000 1.751310 0.000000 
#    z 0.000000 0.000000 1.779630 
# 
# From -- ./inp_files/58758.got.cif
#   From: 2010.03.12/outbox.cif.g09.slc.cpg/sg66_30_cif.got.tgz:58758.got - 2010.04.10 21:57:39.
