data_PCOD8277657
_publ_section_title
;
Structure prediction by ZEFSAII (Michael W. Deem and Ramdas Pophale) SiO2 
 PCOD8277657
Probable space group: C C C M
;
_chemical_formula_sum "Si O2"
_cell_formula_units_Z 68
_cell_length_a 15.032736
_cell_length_b 9.047253
_cell_length_c 27.326898
_cell_angle_alpha 90.000000
_cell_angle_beta 90.000000
_cell_angle_gamma 90.000000
_cell_volume 3716.593830
_symmetry_space_group_name_H-M "C C C M"
_symmetry_group_IT_number 66
_symmetry_cell_setting 'orthorhombic'
loop_
_space_group_symop_operation_xyz
x,y,z
-x,-y,z
x,-y,1/2-z
-x,y,1/2-z
-x,-y,-z
x,y,-z
-x,y,1/2+z
x,-y,1/2+z
1/2+x,1/2+y,z
1/2-x,1/2-y,z
1/2+x,1/2-y,1/2-z
1/2-x,1/2+y,1/2-z
1/2-x,1/2-y,-z
1/2+x,1/2+y,-z
1/2-x,1/2+y,1/2+z
1/2+x,1/2-y,1/2+z
loop_
_atom_site_type_symbol
_atom_site_label
_atom_site_fract_x
_atom_site_fract_y
_atom_site_fract_z
Si Si1 0.500000 0.000000 0.250000
Si Si2 0.706886 0.987411 0.500000
Si Si3 0.582497 0.087780 0.843715
Si Si4 0.610093 0.320504 0.000000
Si Si5 0.510282 0.336474 0.900040
Si Si6 0.169273 0.649849 0.600362
O O1 0.434049 0.903169 0.215247
O O2 0.641762 0.848070 0.500000
O O3 0.808826 0.935667 0.500000
O O4 0.687013 0.087411 0.546640
O O5 0.583499 0.251921 0.866218
O O6 0.500000 0.000000 0.868611
O O7 0.666059 0.988043 0.860875
O O8 0.548444 0.350724 0.045980
O O9 0.500000 0.500000 0.877621
O O10 0.417003 0.252896 0.899681
O O11 0.250000 0.750000 0.618596
#
# Coordination Sequence:
#
# PCOD8277657 Si02
#       6
#     4   8  16   8  16  16
#     4   8  16  40  66  86 100 148 196 244 304 346
#     4  11  22  35  54  84 120 160 200 227 287 333
#     4   8  18  35  61  83 106 147 191 238 288 355
#     4  11  22  35  54  82 128 160 190 243 269 341
#     4  11  21  36  56  87 117 156 196 233 282 342
#     4  11  21  36  57  84 117 153 194 235 283 345
#
# _framework density 18.296322
#
# number of rings (size 3 to 8) (size 9 to 14) (size 15 to 20)
#    0.706    1.176    2.353    2.824    0.000    0.941 
#    0.000    0.588    0.000    5.647    0.000    0.000 
#    0.000    0.000    0.000    0.000    0.000    0.000 
#
# Total GULP energy -421301.845478 kJ/mol
# GULP energy per Si atom -12391.230749 kJ/mol
# Density = 1.825468 g / cm^3
# Si number density = 18.296322 Si / 1000 Ang^3
#
#
#
# Elastic Constant Matrix: (Units=GPa)
#
#
# Indices 1 2 3 4 5 6 
#
# 1 79.1658 50.3409 25.3726 0.0000 0.0000 0.0000
# 2 50.3409 146.6578 55.8018 0.0000 0.0000 0.0000
# 3 25.3726 55.8018 125.7201 0.0000 0.0000 0.0000
# 4 0.0000 0.0000 0.0000 -17.7707 0.0000 0.0000
# 5 0.0000 0.0000 0.0000 0.0000 -7.0049 0.0000
# 6 0.0000 0.0000 0.0000 0.0000 0.0000 32.3583
#
#
#
# Elastic Compliance Matrix: (Units=1/GPa)
#
#
# Indices 1 2 3 4 5 6 
#
# 1 0.016256 -0.005212 -0.000967 0.000000 0.000000 0.000000
# 2 -0.005212 0.009875 -0.003331 0.000000 0.000000 0.000000
# 3 -0.000967 -0.003331 0.009628 0.000000 0.000000 0.000000
# 4 0.000000 0.000000 0.000000 -0.056272 0.000000 0.000000
# 5 0.000000 0.000000 0.000000 0.000000 -0.142757 0.000000
# 6 0.000000 0.000000 0.000000 0.000000 0.000000 0.030904
#
#
# Mechanical properties :
#
#
# Convention : Reuss Voigt Hill
#
# Bulk Modulus (GPa) = 59.74441 68.28605 64.01523
# Shear Modulus (GPa) = -46.39676 16.18510 -15.10583
#
# Velocity S-wave (km/s) = -5.04119 2.97747 -2.87648
# Velocity P-wave (km/s) = 1.07707 7.01596 4.90222
#
# Compressibility (1/GPa) = 0.01673797
#
# Stress axis : x y z
#
# Youngs Moduli (GPa) = 61.51599 101.26487 103.86325
#
# Poissons Ratio (x) = 0.52777 0.10048
# Poissons Ratio (y) = 0.32061 0.34600
# Poissons Ratio (z) = 0.05951 0.33734
#
# Static dielectric constant tensor:
#      x y z
#    x 3.338910 0.000000 0.000000 
#    y 0.000000 3.635150 0.000000 
#    z 0.000000 0.000000 3.120200 
# 
# 
# High freq. dielectric constant tensor:
#      x y z
#    x 1.696840 0.000000 0.000000 
#    y 0.000000 1.719950 0.000000 
#    z 0.000000 0.000000 1.684940 
# 
# From -- ./inp_files/69847.got.cif
#   From: 2010.03.12/outbox.cif.g09.slc.cpg/sg66_35_cif.got.tgz:69847.got - 2010.04.10 21:57:39.
