data_PCOD8277678
_publ_section_title
;
Structure prediction by ZEFSAII (Michael W. Deem and Ramdas Pophale) SiO2 
 PCOD8277678
Probable space group: C C C M
;
_chemical_formula_sum "Si O2"
_cell_formula_units_Z 80
_cell_length_a 8.645446
_cell_length_b 16.782546
_cell_length_c 24.949664
_cell_angle_alpha 90.000000
_cell_angle_beta 90.000000
_cell_angle_gamma 90.000000
_cell_volume 3620.011499
_symmetry_space_group_name_H-M "C C C M"
_symmetry_group_IT_number 66
_symmetry_cell_setting 'orthorhombic'
loop_
_space_group_symop_operation_xyz
x,y,z
-x,-y,z
x,-y,1/2-z
-x,y,1/2-z
-x,-y,-z
x,y,-z
-x,y,1/2+z
x,-y,1/2+z
1/2+x,1/2+y,z
1/2-x,1/2-y,z
1/2+x,1/2-y,1/2-z
1/2-x,1/2+y,1/2-z
1/2-x,1/2-y,-z
1/2+x,1/2+y,-z
1/2-x,1/2+y,1/2+z
1/2+x,1/2-y,1/2+z
loop_
_atom_site_type_symbol
_atom_site_label
_atom_site_fract_x
_atom_site_fract_y
_atom_site_fract_z
Si Si1 0.327043 0.968101 0.059712
Si Si2 0.626980 0.188070 0.117303
Si Si3 0.872100 0.935186 0.865240
Si Si4 0.589751 0.705511 0.060443
Si Si5 0.436035 0.917461 0.309857
O O1 0.290510 0.890541 0.095114
O O2 0.500000 0.000000 0.060188
O O3 0.222595 0.037709 0.082915
O O4 0.271265 0.949133 0.000000
O O5 0.750000 0.250000 0.143043
O O6 0.542663 0.228058 0.066582
O O7 0.502764 0.161266 0.161962
O O8 0.945869 0.855185 0.890113
O O9 0.751963 0.918577 0.815750
O O10 0.000000 0.000000 0.846137
O O11 0.750000 0.750000 0.069752
O O12 0.580707 0.669183 0.000000
O O13 0.500000 0.915279 0.250000
O O14 0.500000 0.000000 0.336919
#
# Coordination Sequence:
#
# PCOD8277678 Si02
#       5
#    16  16  16  16  16
#     4  11  21  39  67  94 132 185 230 262 320 407
#     4  12  23  41  66  95 132 175 224 270 329 404
#     4  12  23  41  69  98 132 170 224 277 339 403
#     4  11  23  39  63  99 147 182 207 265 341 402
#     4  11  24  49  73  89 125 175 226 290 344 395
#
# _framework density 22.099375999999999
#
# number of rings (size 3 to 8) (size 9 to 14) (size 15 to 20)
#    0.000    0.600    6.000    2.400    0.000    8.000 
#    3.600    2.000    0.000    0.000    0.000    0.000 
#    0.000    0.000    0.000    0.000    0.000    0.000 
#
# Total GULP energy -495816.816797 kJ/mol
# GULP energy per Si atom -12395.420420 kJ/mol
# Density = 2.204908 g / cm^3
# Si number density = 22.099376 Si / 1000 Ang^3
#
#
#
# Elastic Constant Matrix: (Units=GPa)
#
#
# Indices 1 2 3 4 5 6 
#
# 1 102.0287 24.8591 36.0738 0.0000 0.0000 0.0000
# 2 24.8591 90.0980 28.6585 0.0000 0.0000 0.0000
# 3 36.0738 28.6585 106.7182 0.0000 0.0000 0.0000
# 4 0.0000 0.0000 0.0000 18.4162 0.0000 0.0000
# 5 0.0000 0.0000 0.0000 0.0000-2145.5170 0.0000
# 6 0.0000 0.0000 0.0000 0.0000 0.0000 45.7112
#
#
#
# Elastic Compliance Matrix: (Units=1/GPa)
#
#
# Indices 1 2 3 4 5 6 
#
# 1 0.011489 -0.002115 -0.003315 0.000000 0.000000 0.000000
# 2 -0.002115 0.012525 -0.002649 0.000000 0.000000 0.000000
# 3 -0.003315 -0.002649 0.011202 0.000000 0.000000 0.000000
# 4 0.000000 0.000000 0.000000 0.054300 0.000000 0.000000
# 5 0.000000 0.000000 0.000000 0.000000 -0.000466 0.000000
# 6 0.000000 0.000000 0.000000 0.000000 0.000000 0.021876
#
#
# Mechanical properties :
#
#
# Convention : Reuss Voigt Hill
#
# Bulk Modulus (GPa) = 52.47210 53.11420 52.79315
# Shear Modulus (GPa) = 37.47063 -402.32766 -182.42852
#
# Velocity S-wave (km/s) = 4.12217 -13.50737 -9.09551
# Velocity P-wave (km/s) = 6.81555 14.80470 9.29321
#
# Compressibility (1/GPa) = 0.01905775
#
# Stress axis : x y z
#
# Youngs Moduli (GPa) = 87.04133 79.83969 89.26626
#
# Poissons Ratio (x) = 0.16888 0.29596
# Poissons Ratio (y) = 0.18412 0.23642
# Poissons Ratio (z) = 0.28858 0.21146
#
# Static dielectric constant tensor:
#      x y z
#    x 3.632440 0.000000 0.000000 
#    y 0.000000 10.678880 0.000000 
#    z 0.000000 0.000000 3.772540 
# 
# 
# High freq. dielectric constant tensor:
#      x y z
#    x 1.872200 0.000000 0.000000 
#    y 0.000000 1.878520 0.000000 
#    z 0.000000 0.000000 1.842730 
# 
# From -- ./inp_files/62377.got.cif
#   From: 2010.03.12/outbox.cif.g09.slc.cpg/sg66_32_cif.got.tgz:62377.got - 2010.04.10 21:57:39.
