data_PCOD8277015
_publ_section_title
;
Structure prediction by ZEFSAII (Michael W. Deem and Ramdas Pophale) SiO2 
 PCOD8277015
Probable space group: C C C M
;
_chemical_formula_sum "Si O2"
_cell_formula_units_Z 116
_cell_length_a 8.405665
_cell_length_b 23.889801
_cell_length_c 27.723579
_cell_angle_alpha 90.000000
_cell_angle_beta 90.000000
_cell_angle_gamma 90.000000
_cell_volume 5567.162587
_symmetry_space_group_name_H-M "C C C M"
_symmetry_group_IT_number 66
_symmetry_cell_setting 'orthorhombic'
loop_
_space_group_symop_operation_xyz
x,y,z
-x,-y,z
x,-y,1/2-z
-x,y,1/2-z
-x,-y,-z
x,y,-z
-x,y,1/2+z
x,-y,1/2+z
1/2+x,1/2+y,z
1/2-x,1/2-y,z
1/2+x,1/2-y,1/2-z
1/2-x,1/2+y,1/2-z
1/2-x,1/2-y,-z
1/2+x,1/2+y,-z
1/2-x,1/2+y,1/2+z
1/2+x,1/2-y,1/2+z
loop_
_atom_site_type_symbol
_atom_site_label
_atom_site_fract_x
_atom_site_fract_y
_atom_site_fract_z
Si Si1 0.972811 0.360587 0.107908
Si Si2 0.831202 0.407225 0.312968
Si Si3 0.114151 0.545115 0.445583
Si Si4 0.359029 0.361446 0.557972
Si Si5 0.000000 0.500000 0.250000
Si Si6 0.633519 0.698203 0.209784
Si Si7 0.427122 0.736684 0.878110
Si Si8 0.405804 0.448176 0.105477
O O1 0.800522 0.376418 0.087341
O O2 0.010636 0.294735 0.107194
O O3 0.006267 0.383556 0.162182
O O4 0.098912 0.391705 0.073935
O O5 0.882671 0.459831 0.280462
O O6 0.742439 0.357288 0.284493
O O7 0.702459 0.425506 0.352003
O O8 0.062027 0.546349 0.500000
O O9 0.295009 0.526393 0.437170
O O10 0.000000 0.500000 0.418421
O O11 0.338501 0.366412 0.500000
O O12 0.408913 0.298441 0.572444
O O13 0.489357 0.402236 0.579273
O O14 0.500000 0.696628 0.250000
O O15 0.750000 0.750000 0.217807
O O16 0.539321 0.703133 0.158982
O O17 0.250000 0.750000 0.856149
O O18 0.500000 0.500000 0.127899
#
# Coordination Sequence:
#
# PCOD8277015 Si02
#       8
#    16  16  16  16   4  16  16  16
#     4  10  22  40  68  91 138 183 224 278 352 415
#     4  11  27  48  71  99 140 179 228 293 356 435
#     4  10  21  37  59  91 127 177 235 280 329 407
#     4  11  23  39  66 104 141 186 239 288 344 418
#     4  12  32  48  78 108 134 180 250 298 372 444
#     4  12  25  45  75 107 139 181 236 292 362 436
#     4  10  22  42  66 100 142 182 230 286 351 416
#     4  11  24  40  65  92 132 178 222 284 351 412
#
# _framework density 20.836466000000001
#
# number of rings (size 3 to 8) (size 9 to 14) (size 15 to 20)
#    0.000    1.241    2.759    2.069    6.759    8.552 
#    0.000    0.000    0.000    2.897    0.000    0.000 
#    0.000    0.000    0.000    0.000    0.000    0.000 
#
# Total GULP energy -718723.180224 kJ/mol
# GULP energy per Si atom -12391.778969 kJ/mol
# Density = 2.078904 g / cm^3
# Si number density = 20.836466 Si / 1000 Ang^3
#
#
#
# Elastic Constant Matrix: (Units=GPa)
#
#
# Indices 1 2 3 4 5 6 
#
# 1 124.2699 66.8342 63.6599 0.0000 0.0000 0.0000
# 2 66.8342 139.0480 54.0921 0.0000 0.0000 0.0000
# 3 63.6599 54.0921 106.9763 0.0000 0.0000 0.0000
# 4 0.0000 0.0000 0.0000 32.6411 0.0000 0.0000
# 5 0.0000 0.0000 0.0000 0.0000 27.4314 0.0000
# 6 0.0000 0.0000 0.0000 0.0000 0.0000 46.0165
#
#
#
# Elastic Compliance Matrix: (Units=1/GPa)
#
#
# Indices 1 2 3 4 5 6 
#
# 1 0.013220 -0.004101 -0.005794 0.000000 0.000000 0.000000
# 2 -0.004101 0.010225 -0.002730 0.000000 0.000000 0.000000
# 3 -0.005794 -0.002730 0.014176 0.000000 0.000000 0.000000
# 4 0.000000 0.000000 0.000000 0.030636 0.000000 0.000000
# 5 0.000000 0.000000 0.000000 0.000000 0.036455 0.000000
# 6 0.000000 0.000000 0.000000 0.000000 0.000000 0.021731
#
#
# Mechanical properties :
#
#
# Convention : Reuss Voigt Hill
#
# Bulk Modulus (GPa) = 80.82392 82.16296 81.49344
# Shear Modulus (GPa) = 32.08917 33.59833 32.84375
#
# Velocity S-wave (km/s) = 3.92860 4.01992 3.97452
# Velocity P-wave (km/s) = 7.71054 7.81436 7.76262
#
# Compressibility (1/GPa) = 0.01237257
#
# Stress axis : x y z
#
# Youngs Moduli (GPa) = 75.64112 97.80242 70.54162
#
# Poissons Ratio (x) = 0.40104 0.40870
# Poissons Ratio (y) = 0.31017 0.19257
# Poissons Ratio (z) = 0.43825 0.26699
#
# Static dielectric constant tensor:
#      x y z
#    x 4.313720 0.000000 0.000000 
#    y 0.000000 4.034520 0.000000 
#    z 0.000000 0.000000 3.717650 
# 
# 
# High freq. dielectric constant tensor:
#      x y z
#    x 1.829170 0.000000 0.000000 
#    y 0.000000 1.832500 0.000000 
#    z 0.000000 0.000000 1.800730 
# 
# From -- ./inp_files/62910.got.cif
#   From: 2010.03.12/outbox.cif.g09.slc.cpg/sg66_32_cif.got.tgz:62910.got - 2010.04.10 21:57:39.
