data_PCOD8277269
_publ_section_title
;
Structure prediction by ZEFSAII (Michael W. Deem and Ramdas Pophale) SiO2 
 PCOD8277269
Probable space group: C C C M
;
_chemical_formula_sum "Si O2"
_cell_formula_units_Z 88
_cell_length_a 8.991531
_cell_length_b 17.511288
_cell_length_c 27.997729
_cell_angle_alpha 90.000000
_cell_angle_beta 90.000000
_cell_angle_gamma 90.000000
_cell_volume 4408.334513
_symmetry_space_group_name_H-M "C C C M"
_symmetry_group_IT_number 66
_symmetry_cell_setting 'orthorhombic'
loop_
_space_group_symop_operation_xyz
x,y,z
-x,-y,z
x,-y,1/2-z
-x,y,1/2-z
-x,-y,-z
x,y,-z
-x,y,1/2+z
x,-y,1/2+z
1/2+x,1/2+y,z
1/2-x,1/2-y,z
1/2+x,1/2-y,1/2-z
1/2-x,1/2+y,1/2-z
1/2-x,1/2-y,-z
1/2+x,1/2+y,-z
1/2-x,1/2+y,1/2+z
1/2+x,1/2-y,1/2+z
loop_
_atom_site_type_symbol
_atom_site_label
_atom_site_fract_x
_atom_site_fract_y
_atom_site_fract_z
Si Si1 0.592334 0.286260 0.153936
Si Si2 0.219915 0.066427 0.375317
Si Si3 0.000000 0.148855 0.250000
Si Si4 0.045896 0.635797 0.634321
Si Si5 0.841499 0.539877 0.052822
Si Si6 0.756590 0.547740 0.793894
O O1 0.750000 0.250000 0.143346
O O2 0.593230 0.367267 0.125039
O O3 0.574550 0.297583 0.210340
O O4 0.463843 0.228393 0.135543
O O5 0.383378 0.099809 0.366587
O O6 0.220958 0.019880 0.425266
O O7 0.184428 0.009764 0.332056
O O8 0.876567 0.098045 0.274597
O O9 0.142242 0.613010 0.587668
O O10 0.121143 0.602687 0.682173
O O11 0.000000 0.500000 0.049031
O O12 0.787470 0.565269 0.000000
O O13 0.828628 0.500000 0.750000
#
# Coordination Sequence:
#
# PCOD8277269 Si02
#       6
#    16  16   8  16  16  16
#     4  10  22  36  48  72 111 142 176 221 271 331
#     4   9  18  34  52  76 106 139 174 226 271 320
#     4  12  25  34  50  72 101 144 188 220 263 320
#     4   9  20  34  52  77 107 143 177 222 277 327
#     4   8  14  29  54  81 104 133 179 226 273 330
#     4  11  21  34  51  73 101 138 187 228 260 317
#
# _framework density 19.962187
#
# number of rings (size 3 to 8) (size 9 to 14) (size 15 to 20)
#    0.000    2.364    1.818    1.909    2.545    1.455 
#    0.000    0.909    0.000    5.455    0.000   20.364 
#    0.000    0.000    0.000    0.000    0.000    0.000 
#
# Total GULP energy -545313.828912 kJ/mol
# GULP energy per Si atom -12393.496112 kJ/mol
# Density = 1.991675 g / cm^3
# Si number density = 19.962187 Si / 1000 Ang^3
#
#
#
# Elastic Constant Matrix: (Units=GPa)
#
#
# Indices 1 2 3 4 5 6 
#
# 1 35.8229 38.3544 26.1937 0.0000 0.0000 0.0000
# 2 38.3544 147.9922 70.4648 0.0000 0.0000 0.0000
# 3 26.1937 70.4648 150.2182 0.0000 0.0000 0.0000
# 4 0.0000 0.0000 0.0000 12.4934 0.0000 0.0000
# 5 0.0000 0.0000 0.0000 0.0000 4.1641 0.0000
# 6 0.0000 0.0000 0.0000 0.0000 0.0000 11.9095
#
#
#
# Elastic Compliance Matrix: (Units=1/GPa)
#
#
# Indices 1 2 3 4 5 6 
#
# 1 0.039458 -0.008949 -0.002683 0.000000 0.000000 0.000000
# 2 -0.008949 0.010730 -0.003473 0.000000 0.000000 0.000000
# 3 -0.002683 -0.003473 0.008754 0.000000 0.000000 0.000000
# 4 0.000000 0.000000 0.000000 0.080042 0.000000 0.000000
# 5 0.000000 0.000000 0.000000 0.000000 0.240146 0.000000
# 6 0.000000 0.000000 0.000000 0.000000 0.000000 0.083967
#
#
# Mechanical properties :
#
#
# Convention : Reuss Voigt Hill
#
# Bulk Modulus (GPa) = 34.80306 67.11769 50.96037
# Shear Modulus (GPa) = 9.94268 18.98142 14.46205
#
# Velocity S-wave (km/s) = 2.23418 3.08696 2.69452
# Velocity P-wave (km/s) = 4.91200 6.81184 5.93839
#
# Compressibility (1/GPa) = 0.02873310
#
# Stress axis : x y z
#
# Youngs Moduli (GPa) = 25.34354 93.19795 114.23654
#
# Poissons Ratio (x) = 0.83401 0.30645
# Poissons Ratio (y) = 0.22679 0.39672
# Poissons Ratio (z) = 0.06799 0.32366
#
# Static dielectric constant tensor:
#      x y z
#    x 3.479860 0.000000 0.000000 
#    y 0.000000 4.124810 0.000000 
#    z 0.000000 0.000000 3.882220 
# 
# 
# High freq. dielectric constant tensor:
#      x y z
#    x 1.754670 0.000000 0.000000 
#    y 0.000000 1.782660 0.000000 
#    z 0.000000 0.000000 1.762010 
# 
# From -- ./inp_files/68194.got.cif
#   From: 2010.03.12/outbox.cif.g09.slc.cpg/sg66_35_cif.got.tgz:68194.got - 2010.04.10 21:57:39.
