data_PCOD8277289
_publ_section_title
;
Structure prediction by ZEFSAII (Michael W. Deem and Ramdas Pophale) SiO2 
 PCOD8277289
Probable space group: C C C M
;
_chemical_formula_sum "Si O2"
_cell_formula_units_Z 116
_cell_length_a 25.401232
_cell_length_b 8.245268
_cell_length_c 29.451599
_cell_angle_alpha 90.000000
_cell_angle_beta 90.000000
_cell_angle_gamma 90.000000
_cell_volume 6168.341875
_symmetry_space_group_name_H-M "C C C M"
_symmetry_group_IT_number 66
_symmetry_cell_setting 'orthorhombic'
loop_
_space_group_symop_operation_xyz
x,y,z
-x,-y,z
x,-y,1/2-z
-x,y,1/2-z
-x,-y,-z
x,y,-z
-x,y,1/2+z
x,-y,1/2+z
1/2+x,1/2+y,z
1/2-x,1/2-y,z
1/2+x,1/2-y,1/2-z
1/2-x,1/2+y,1/2-z
1/2-x,1/2-y,-z
1/2+x,1/2+y,-z
1/2-x,1/2+y,1/2+z
1/2+x,1/2-y,1/2+z
loop_
_atom_site_type_symbol
_atom_site_label
_atom_site_fract_x
_atom_site_fract_y
_atom_site_fract_z
Si Si1 0.500000 0.500000 0.250000
Si Si2 0.114064 0.511351 0.695622
Si Si3 0.439269 0.330615 0.823785
Si Si4 0.327741 0.629155 0.448142
Si Si5 0.468721 0.849938 0.869607
Si Si6 0.710269 0.021241 0.447122
Si Si7 0.194056 0.683613 0.139658
Si Si8 0.107990 0.089497 0.385352
O O1 0.538047 0.623317 0.224502
O O2 0.113934 0.500000 0.750000
O O3 0.107613 0.699708 0.681617
O O4 0.064733 0.414078 0.673860
O O5 0.169577 0.446889 0.675025
O O6 0.486327 0.270134 0.854682
O O7 0.420285 0.496512 0.845352
O O8 0.341090 0.606029 0.500000
O O9 0.325130 0.820278 0.436329
O O10 0.271325 0.553075 0.436676
O O11 0.376085 0.538097 0.424115
O O12 0.429188 0.742731 0.901715
O O13 0.500000 0.000000 0.894292
O O14 0.702621 0.967644 0.500000
O O15 0.693252 0.882691 0.412251
O O16 0.250000 0.750000 0.156884
O O17 0.159916 0.844346 0.138357
#
# Coordination Sequence:
#
# PCOD8277289 Si02
#       8
#     4  16  16  16  16  16  16  16
#     4  12  20  32  62  88 106 132 186 252 304 316
#     4  10  22  38  58  80 112 154 189 234 285 340
#     4  11  21  35  57  85 110 139 183 242 291 333
#     4   9  18  33  58  85 110 142 186 233 285 340
#     4   9  19  36  55  80 109 144 184 234 290 333
#     4   9  18  35  57  84 113 144 186 240 288 329
#     4  11  22  37  53  80 117 155 191 228 277 338
#     4  11  20  34  54  84 114 146 186 231 283 341
#
# _framework density 18.805700999999999
#
# number of rings (size 3 to 8) (size 9 to 14) (size 15 to 20)
#    0.000    1.931    2.759    2.483    1.931    2.759 
#    0.000    1.379    0.000    2.069    0.000    1.931 
#    0.000    0.000    0.000    0.000    0.000    0.000 
#
# Total GULP energy -718659.656579 kJ/mol
# GULP energy per Si atom -12390.683734 kJ/mol
# Density = 1.876290 g / cm^3
# Si number density = 18.805701 Si / 1000 Ang^3
#
#
#
# Elastic Constant Matrix: (Units=GPa)
#
#
# Indices 1 2 3 4 5 6 
#
# 1 107.4831 57.4804 30.8869 0.0000 0.0000 0.0000
# 2 57.4804 102.0459 30.5224 0.0000 0.0000 0.0000
# 3 30.8869 30.5224 62.1201 0.0000 0.0000 0.0000
# 4 0.0000 0.0000 0.0000 -64.6237 0.0000 0.0000
# 5 0.0000 0.0000 0.0000 0.0000 24.5583 0.0000
# 6 0.0000 0.0000 0.0000 0.0000 0.0000 41.3931
#
#
#
# Elastic Compliance Matrix: (Units=1/GPa)
#
#
# Indices 1 2 3 4 5 6 
#
# 1 0.013973 -0.006791 -0.003611 0.000000 0.000000 0.000000
# 2 -0.006791 0.014788 -0.003890 0.000000 0.000000 0.000000
# 3 -0.003611 -0.003890 0.019804 0.000000 0.000000 0.000000
# 4 0.000000 0.000000 0.000000 -0.015474 0.000000 0.000000
# 5 0.000000 0.000000 0.000000 0.000000 0.040719 0.000000
# 6 0.000000 0.000000 0.000000 0.000000 0.000000 0.024159
#
#
# Mechanical properties :
#
#
# Convention : Reuss Voigt Hill
#
# Bulk Modulus (GPa) = 50.04282 56.60317 53.32299
# Shear Modulus (GPa) = 37.53399 10.44951 23.99175
#
# Velocity S-wave (km/s) = 4.47238 2.35979 3.57567
# Velocity P-wave (km/s) = 7.30327 6.13100 6.74266
#
# Compressibility (1/GPa) = 0.01998289
#
# Stress axis : x y z
#
# Youngs Moduli (GPa) = 71.56655 67.62266 50.49383
#
# Poissons Ratio (x) = 0.45920 0.18233
# Poissons Ratio (y) = 0.48598 0.19640
# Poissons Ratio (z) = 0.25843 0.26302
#
# Static dielectric constant tensor:
#      x y z
#    x 3.682060 0.000000 0.000000 
#    y 0.000000 3.117620 0.000000 
#    z 0.000000 0.000000 3.195420 
# 
# 
# High freq. dielectric constant tensor:
#      x y z
#    x 1.728480 0.000000 0.000000 
#    y 0.000000 1.751640 0.000000 
#    z 0.000000 0.000000 1.694930 
# 
# From -- ./inp_files/66128.got.cif
#   From: 2010.03.12/outbox.cif.g09.slc.cpg/sg66_34_cif.got.tgz:66128.got - 2010.04.10 21:57:39.
