data_PCOD8277339
_publ_section_title
;
Structure prediction by ZEFSAII (Michael W. Deem and Ramdas Pophale) SiO2 
 PCOD8277339
Probable space group: C C C M
;
_chemical_formula_sum "Si O2"
_cell_formula_units_Z 92
_cell_length_a 9.568643
_cell_length_b 20.062694
_cell_length_c 23.614116
_cell_angle_alpha 90.000000
_cell_angle_beta 90.000000
_cell_angle_gamma 90.000000
_cell_volume 4533.266941
_symmetry_space_group_name_H-M "C C C M"
_symmetry_group_IT_number 66
_symmetry_cell_setting 'orthorhombic'
loop_
_space_group_symop_operation_xyz
x,y,z
-x,-y,z
x,-y,1/2-z
-x,y,1/2-z
-x,-y,-z
x,y,-z
-x,y,1/2+z
x,-y,1/2+z
1/2+x,1/2+y,z
1/2-x,1/2-y,z
1/2+x,1/2-y,1/2-z
1/2-x,1/2+y,1/2-z
1/2-x,1/2-y,-z
1/2+x,1/2+y,-z
1/2-x,1/2+y,1/2+z
1/2+x,1/2-y,1/2+z
loop_
_atom_site_type_symbol
_atom_site_label
_atom_site_fract_x
_atom_site_fract_y
_atom_site_fract_z
Si Si1 0.404551 0.776059 0.610705
Si Si2 0.494016 0.831806 0.000000
Si Si3 0.391716 0.127575 0.203819
Si Si4 0.922183 0.841443 0.192139
Si Si5 0.256509 0.572124 0.500000
Si Si6 0.213213 0.913946 0.000000
Si Si7 0.484702 0.422559 0.087410
Si Si8 0.000000 0.500000 0.750000
O O1 0.250000 0.750000 0.595453
O O2 0.492218 0.781874 0.553314
O O3 0.423593 0.848896 0.639832
O O4 0.463983 0.723814 0.656300
O O5 0.345316 0.866385 0.000000
O O6 0.609595 0.890178 0.000000
O O7 0.500000 0.159336 0.250000
O O8 0.236786 0.154880 0.213692
O O9 0.402950 0.046706 0.209524
O O10 0.970336 0.902497 0.152700
O O11 0.000000 0.843509 0.250000
O O12 0.239368 0.491779 0.500000
O O13 0.341968 0.597825 0.444950
O O14 0.121821 0.894330 0.944486
O O15 0.500000 0.500000 0.083368
#
# Coordination Sequence:
#
# PCOD8277339 Si02
#       8
#    16   8  16  16   8   8  16   4
#     4  10  22  40  60  87 125 166 209 253 313 381
#     4  12  22  37  62  94 116 157 216 267 309 375
#     4   9  20  41  61  90 123 160 197 256 316 357
#     4  11  23  39  63  89 118 167 215 247 300 378
#     4   9  17  38  64  86 120 161 202 252 319 377
#     4   9  21  39  58  92 128 155 200 259 326 362
#     4   9  20  40  61  85 126 167 199 253 312 384
#     4   8  20  40  66  90 128 156 192 260 326 356
#
# _framework density 20.294414
#
# number of rings (size 3 to 8) (size 9 to 14) (size 15 to 20)
#    0.522    1.739    0.000    4.174    0.000    4.522 
#    9.391    3.478    0.000    0.000    0.000    0.000 
#    0.000    0.000    0.000    0.000    0.000    0.000 
#
# Total GULP energy -569872.733711 kJ/mol
# GULP energy per Si atom -12388.537689 kJ/mol
# Density = 2.024822 g / cm^3
# Si number density = 20.294414 Si / 1000 Ang^3
#
#
#
# Elastic Constant Matrix: (Units=GPa)
#
#
# Indices 1 2 3 4 5 6 
#
# 1 122.0723 33.5144 77.8275 0.0000 0.0000 0.0000
# 2 33.5144 64.9289 40.1776 0.0000 0.0000 0.0000
# 3 77.8275 40.1776 164.2706 0.0000 0.0000 0.0000
# 4 0.0000 0.0000 0.0000 23.4388 0.0000 0.0000
# 5 0.0000 0.0000 0.0000 0.0000 27.4665 0.0000
# 6 0.0000 0.0000 0.0000 0.0000 0.0000 22.6466
#
#
#
# Elastic Compliance Matrix: (Units=1/GPa)
#
#
# Indices 1 2 3 4 5 6 
#
# 1 0.012286 -0.003228 -0.005031 0.000000 0.000000 0.000000
# 2 -0.003228 0.018996 -0.003117 0.000000 0.000000 0.000000
# 3 -0.005031 -0.003117 0.009233 0.000000 0.000000 0.000000
# 4 0.000000 0.000000 0.000000 0.042664 0.000000 0.000000
# 5 0.000000 0.000000 0.000000 0.000000 0.036408 0.000000
# 6 0.000000 0.000000 0.000000 0.000000 0.000000 0.044157
#
#
# Mechanical properties :
#
#
# Convention : Reuss Voigt Hill
#
# Bulk Modulus (GPa) = 56.29565 72.70121 64.49843
# Shear Modulus (GPa) = 25.98509 28.02721 27.00615
#
# Velocity S-wave (km/s) = 3.58216 3.72025 3.65186
# Velocity P-wave (km/s) = 6.70141 7.37257 7.04498
#
# Compressibility (1/GPa) = 0.01776336
#
# Stress axis : x y z
#
# Youngs Moduli (GPa) = 81.39478 52.64158 108.30226
#
# Poissons Ratio (x) = 0.16995 0.54488
# Poissons Ratio (y) = 0.26277 0.33754
# Poissons Ratio (z) = 0.40951 0.16407
#
# Static dielectric constant tensor:
#      x y z
#    x 3.745470 0.000000 0.000000 
#    y 0.000000 3.660360 0.000000 
#    z 0.000000 0.000000 5.460360 
# 
# 
# High freq. dielectric constant tensor:
#      x y z
#    x 1.779160 0.000000 0.000000 
#    y 0.000000 1.792630 0.000000 
#    z 0.000000 0.000000 1.797140 
# 
# From -- ./inp_files/55547.got.cif
#   From: 2010.03.12/outbox.cif.g09.slc.cpg/sg66_28_cif.got.tgz:55547.got - 2010.04.10 21:57:39.
