data_PCOD8277196
_publ_section_title
;
Structure prediction by ZEFSAII (Michael W. Deem and Ramdas Pophale) SiO2 
 PCOD8277196
Probable space group: C C C M
;
_chemical_formula_sum "Si O2"
_cell_formula_units_Z 96
_cell_length_a 14.392430
_cell_length_b 14.236505
_cell_length_c 22.181630
_cell_angle_alpha 90.000000
_cell_angle_beta 90.000000
_cell_angle_gamma 90.000000
_cell_volume 4544.969442
_symmetry_space_group_name_H-M "C C C M"
_symmetry_group_IT_number 66
_symmetry_cell_setting 'orthorhombic'
loop_
_space_group_symop_operation_xyz
x,y,z
-x,-y,z
x,-y,1/2-z
-x,y,1/2-z
-x,-y,-z
x,y,-z
-x,y,1/2+z
x,-y,1/2+z
1/2+x,1/2+y,z
1/2-x,1/2-y,z
1/2+x,1/2-y,1/2-z
1/2-x,1/2+y,1/2-z
1/2-x,1/2-y,-z
1/2+x,1/2+y,-z
1/2-x,1/2+y,1/2+z
1/2+x,1/2-y,1/2+z
loop_
_atom_site_type_symbol
_atom_site_label
_atom_site_fract_x
_atom_site_fract_y
_atom_site_fract_z
Si Si1 0.395982 0.995781 0.180120
Si Si2 0.500000 0.500000 0.400028
Si Si3 0.160867 0.683244 0.370708
Si Si4 0.846196 0.303247 0.872205
Si Si5 0.654386 0.508789 0.500000
Si Si6 0.504887 0.682448 0.821321
Si Si7 0.186549 0.338153 0.500000
Si Si8 0.297085 0.846702 0.500000
O O1 0.342937 0.899289 0.165306
O O2 0.500000 0.000000 0.150010
O O3 0.410942 0.000000 0.250000
O O4 0.329695 0.083113 0.162397
O O5 0.589989 0.522807 0.441040
O O6 0.474652 0.587166 0.357351
O O7 0.250000 0.750000 0.364591
O O8 0.078789 0.738888 0.338990
O O9 0.140155 0.649621 0.439668
O O10 0.750000 0.250000 0.874312
O O11 0.908680 0.225149 0.841898
O O12 0.877442 0.334558 0.940075
O O13 0.743345 0.575247 0.500000
O O14 0.704173 0.409354 0.500000
O O15 0.500000 0.662401 0.750000
O O16 0.250000 0.250000 0.500000
O O17 0.250000 0.750000 0.500000
#
# Coordination Sequence:
#
# PCOD8277196 Si02
#       8
#    16   8  16  16   8  16   8   8
#     4  11  23  43  65  92 134 179 221 271 327 395
#     4  11  23  40  68  96 133 179 216 274 356 405
#     4  11  24  43  69  98 133 178 226 280 342 403
#     4  11  24  43  69  98 133 178 226 280 342 403
#     4  11  22  42  68  99 132 168 216 279 348 417
#     4  12  26  44  64  97 139 180 233 281 327 406
#     4  10  21  40  64  94 131 165 216 276 333 402
#     4  10  21  40  64  94 131 165 216 276 333 402
#
# _framework density 21.122254000000002
#
# number of rings (size 3 to 8) (size 9 to 14) (size 15 to 20)
#    0.000    1.000    1.667    6.250    0.000    6.000 
#    0.000    0.833    0.000    0.000    0.000    0.000 
#    0.000    0.000    0.000    0.000    0.000    0.000 
#
# Total GULP energy -594785.354951 kJ/mol
# GULP energy per Si atom -12391.361561 kJ/mol
# Density = 2.107418 g / cm^3
# Si number density = 21.122254 Si / 1000 Ang^3
#
#
#
# Elastic Constant Matrix: (Units=GPa)
#
#
# Indices 1 2 3 4 5 6 
#
# 1 54.0769 14.5771 37.3837 0.0000 0.0000 0.0000
# 2 14.5771 110.6743 28.4844 0.0000 0.0000 0.0000
# 3 37.3837 28.4844 152.2094 0.0000 0.0000 0.0000
# 4 0.0000 0.0000 0.0000 43.2590 0.0000 0.0000
# 5 0.0000 0.0000 0.0000 0.0000 20.8330 0.0000
# 6 0.0000 0.0000 0.0000 0.0000 0.0000 -13.4290
#
#
#
# Elastic Compliance Matrix: (Units=1/GPa)
#
#
# Indices 1 2 3 4 5 6 
#
# 1 0.022548 -0.001623 -0.005234 0.000000 0.000000 0.000000
# 2 -0.001623 0.009610 -0.001400 0.000000 0.000000 0.000000
# 3 -0.005234 -0.001400 0.008117 0.000000 0.000000 0.000000
# 4 0.000000 0.000000 0.000000 0.023117 0.000000 0.000000
# 5 0.000000 0.000000 0.000000 0.000000 0.048001 0.000000
# 6 0.000000 0.000000 0.000000 0.000000 0.000000 -0.074466
#
#
# Mechanical properties :
#
#
# Convention : Reuss Voigt Hill
#
# Bulk Modulus (GPa) = 42.08485 53.09455 47.58970
# Shear Modulus (GPa) = 81.48505 25.90028 53.69267
#
# Velocity S-wave (km/s) = 6.21784 3.50552 5.04729
# Velocity P-wave (km/s) = 8.45674 6.44797 7.51973
#
# Compressibility (1/GPa) = 0.02376152
#
# Stress axis : x y z
#
# Youngs Moduli (GPa) = 44.34958 104.06361 123.19172
#
# Poissons Ratio (x) = 0.16886 0.64482
# Poissons Ratio (y) = 0.07197 0.17244
# Poissons Ratio (z) = 0.23214 0.14567
#
# Static dielectric constant tensor:
#      x y z
#    x 3.219650 0.000000 0.000000 
#    y 0.000000 4.053490 0.000000 
#    z 0.000000 0.000000 5.070150 
# 
# 
# High freq. dielectric constant tensor:
#      x y z
#    x 1.812180 0.000000 0.000000 
#    y 0.000000 1.851130 0.000000 
#    z 0.000000 0.000000 1.843690 
# 
# From -- ./inp_files/49934.got.cif
#   From: 2010.03.12/outbox.cif.g09.slc.cpg/sg66_25_cif.got.tgz:49934.got - 2010.04.10 21:57:39.
