data_PCOD8277933
_publ_section_title
;
Structure prediction by ZEFSAII (Michael W. Deem and Ramdas Pophale) SiO2 
 PCOD8277933
Probable space group: C M M A
;
_chemical_formula_sum "Si O2"
_cell_formula_units_Z 80
_cell_length_a 19.796879
_cell_length_b 24.083704
_cell_length_c 8.811620
_cell_angle_alpha 90.000000
_cell_angle_beta 90.000000
_cell_angle_gamma 90.000000
_cell_volume 4201.223340
_symmetry_space_group_name_H-M "C M M A"
_symmetry_group_IT_number 67
_symmetry_cell_setting 'orthorhombic'
loop_
_space_group_symop_operation_xyz
x,y,z
-x,1/2-y,z
x,-y,-z
-x,1/2+y,-z
-x,-y,-z
x,1/2+y,-z
-x,y,z
x,1/2-y,z
1/2+x,1/2+y,z
1/2-x,-y,z
1/2+x,1/2-y,-z
1/2-x,y,-z
1/2-x,1/2-y,-z
1/2+x,y,-z
1/2-x,1/2+y,z
1/2+x,-y,z
loop_
_atom_site_type_symbol
_atom_site_label
_atom_site_fract_x
_atom_site_fract_y
_atom_site_fract_z
Si Si1 0.235385 0.635345 0.676609
Si Si2 0.194719 0.750000 0.632845
Si Si3 0.372410 0.943052 0.425748
Si Si4 0.116021 0.867681 0.288456
Si Si5 0.079216 0.750000 0.409237
Si Si6 0.000000 0.083105 0.904886
Si Si7 0.500000 0.460892 0.780320
O O1 0.250000 0.643868 0.500000
O O2 0.203799 0.694032 0.734669
O O3 0.183966 0.583551 0.686801
O O4 0.305817 0.622966 0.763310
O O5 0.250000 0.750000 0.500000
O O6 0.118762 0.750000 0.568152
O O7 0.397183 0.900596 0.555314
O O8 0.435333 0.956535 0.323346
O O9 0.343879 0.000000 0.500000
O O10 0.100916 0.803116 0.311959
O O11 0.067763 0.887918 0.154811
O O12 0.000000 0.750000 0.445561
O O13 0.000000 0.020332 0.854800
O O14 0.000000 0.086021 0.088219
#
# Coordination Sequence:
#
# PCOD8277933 Si02
#       7
#    16   8  16  16   8   8   8
#     4   9  18  30  53  83 117 143 173 235 286 333
#     4  10  14  30  48  80 123 140 174 225 296 331
#     4  11  20  34  58  88 112 143 187 238 287 339
#     4  11  20  35  59  85 115 146 191 234 283 340
#     4  12  20  28  54  90 117 145 187 235 284 338
#     4  11  23  41  54  76 111 159 192 225 278 336
#     4  11  24  39  55  75 116 153 186 231 279 341
#
# _framework density 19.042074
#
# number of rings (size 3 to 8) (size 9 to 14) (size 15 to 20)
#    0.000    1.400    9.000    0.900    0.000    3.600 
#    0.000    1.000    0.000    7.200    0.000    2.800 
#    0.000    0.000    0.000    0.000    0.000    0.000 
#
# Total GULP energy -495803.751673 kJ/mol
# GULP energy per Si atom -12395.093792 kJ/mol
# Density = 1.899873 g / cm^3
# Si number density = 19.042074 Si / 1000 Ang^3
#
#
#
# Elastic Constant Matrix: (Units=GPa)
#
#
# Indices 1 2 3 4 5 6 
#
# 1 152.3053 51.5536 17.8827 0.0000 0.0000 0.0000
# 2 51.5536 132.9821 24.3524 0.0000 0.0000 0.0000
# 3 17.8827 24.3524 32.3710 0.0000 0.0000 0.0000
# 4 0.0000 0.0000 0.0000 14.7925 0.0000 0.0000
# 5 0.0000 0.0000 0.0000 0.0000 1.6796 0.0000
# 6 0.0000 0.0000 0.0000 0.0000 0.0000 33.1634
#
#
#
# Elastic Compliance Matrix: (Units=1/GPa)
#
#
# Indices 1 2 3 4 5 6 
#
# 1 0.007706 -0.002561 -0.002331 0.000000 0.000000 0.000000
# 2 -0.002561 0.009572 -0.005786 0.000000 0.000000 0.000000
# 3 -0.002331 -0.005786 0.036533 0.000000 0.000000 0.000000
# 4 0.000000 0.000000 0.000000 0.067602 0.000000 0.000000
# 5 0.000000 0.000000 0.000000 0.000000 0.595370 0.000000
# 6 0.000000 0.000000 0.000000 0.000000 0.000000 0.030154
#
#
# Mechanical properties :
#
#
# Convention : Reuss Voigt Hill
#
# Bulk Modulus (GPa) = 30.81177 56.13729 43.47453
# Shear Modulus (GPa) = 6.41758 24.85176 15.63467
#
# Velocity S-wave (km/s) = 1.83780 3.61653 2.86852
# Velocity P-wave (km/s) = 4.55185 6.85447 5.81821
#
# Compressibility (1/GPa) = 0.03245513
#
# Stress axis : x y z
#
# Youngs Moduli (GPa) = 129.76605 104.46969 27.37285
#
# Poissons Ratio (x) = 0.26751 0.06380
# Poissons Ratio (y) = 0.33229 0.15839
# Poissons Ratio (z) = 0.30245 0.60451
#
# Static dielectric constant tensor:
#      x y z
#    x 3.937100 0.000000 0.000000 
#    y 0.000000 4.060980 0.000000 
#    z 0.000000 0.000000 3.054670 
# 
# 
# High freq. dielectric constant tensor:
#      x y z
#    x 1.755510 0.000000 0.000000 
#    y 0.000000 1.762980 0.000000 
#    z 0.000000 0.000000 1.670050 
# 
# From -- ./inp_files/11206.got.cif
#   From: 2010.03.12/outbox.cif.g09.slc.cpg/sg67_6_cif.got.tgz:11206.got - 2010.04.10 22:41:39.
