data_PCOD8277977
_publ_section_title
;
Structure prediction by ZEFSAII (Michael W. Deem and Ramdas Pophale) SiO2 
 PCOD8277977
Probable space group: C M M A
;
_chemical_formula_sum "Si O2"
_cell_formula_units_Z 60
_cell_length_a 23.933908
_cell_length_b 5.293631
_cell_length_c 24.471911
_cell_angle_alpha 90.000000
_cell_angle_beta 90.000000
_cell_angle_gamma 90.000000
_cell_volume 3100.524495
_symmetry_space_group_name_H-M "C M M A"
_symmetry_group_IT_number 67
_symmetry_cell_setting 'orthorhombic'
loop_
_space_group_symop_operation_xyz
x,y,z
-x,1/2-y,z
x,-y,-z
-x,1/2+y,-z
-x,-y,-z
x,1/2+y,-z
-x,y,z
x,1/2-y,z
1/2+x,1/2+y,z
1/2-x,-y,z
1/2+x,1/2-y,-z
1/2-x,y,-z
1/2-x,1/2-y,-z
1/2+x,y,-z
1/2-x,1/2+y,z
1/2+x,-y,z
loop_
_atom_site_type_symbol
_atom_site_label
_atom_site_fract_x
_atom_site_fract_y
_atom_site_fract_z
Si Si1 0.435016 0.250000 0.296037
Si Si2 0.273329 0.750000 0.438931
Si Si3 0.895631 0.250000 0.109581
Si Si4 0.900889 0.250000 0.464972
Si Si5 0.062810 0.750000 0.652936
Si Si6 0.774066 0.250000 0.062374
Si Si7 0.000000 0.250000 0.033997
Si Si8 0.933621 0.750000 0.167485
O O1 0.500000 0.250000 0.311789
O O2 0.406812 0.499013 0.323301
O O3 0.425653 0.250000 0.231869
O O4 0.250000 0.500000 0.408315
O O5 0.250000 0.750000 0.500000
O O6 0.339423 0.750000 0.439833
O O7 0.840541 0.250000 0.071329
O O8 0.945016 0.250000 0.068123
O O9 0.901517 0.502126 0.145893
O O10 0.912705 0.500000 0.500000
O O11 0.940699 0.250000 0.412698
O O12 0.000000 0.750000 0.676338
O O13 0.750000 0.500000 0.091824
O O14 0.750000 0.250000 0.000000
O O15 0.000000 0.500000 0.000000
O O16 0.000000 0.750000 0.151436
#
# Coordination Sequence:
#
# PCOD8277977 Si02
#       8
#     8   8   8   8   8   8   4   8
#     4   9  19  36  59  78 111 147 180 234 290 339
#     4  10  16  30  47  68  97 124 166 221 268 310
#     4  12  23  39  60  91 123 154 205 244 298 356
#     4  12  21  31  51  76 106 147 182 226 263 328
#     4  10  21  36  50  78 113 152 189 216 269 348
#     4  10  23  40  58  79 114 162 212 247 262 327
#     4  12  26  36  56  86 136 174 170 228 312 368
#     4  11  20  38  62  95 119 143 189 255 313 370
#
# _framework density 19.351565000000001
#
# number of rings (size 3 to 8) (size 9 to 14) (size 15 to 20)
#    0.000    1.333    4.000    3.200    3.733    2.667 
#    0.000    0.000    0.000    0.000    0.000   18.667 
#    0.000    0.000    0.000    0.000    0.000    0.000 
#
# Total GULP energy -371772.646397 kJ/mol
# GULP energy per Si atom -12392.421547 kJ/mol
# Density = 1.930752 g / cm^3
# Si number density = 19.351565 Si / 1000 Ang^3
#
#
#
# Elastic Constant Matrix: (Units=GPa)
#
#
# Indices 1 2 3 4 5 6 
#
# 1 84.9624 35.2433 28.3287 0.0000 0.0000 0.0000
# 2 35.2433 235.8722 67.2551 0.0000 0.0000 0.0000
# 3 28.3287 67.2551 95.2627 0.0000 0.0000 0.0000
# 4 0.0000 0.0000 0.0000 5.2379 0.0000 0.0000
# 5 0.0000 0.0000 0.0000 0.0000 17.0315 0.0000
# 6 0.0000 0.0000 0.0000 0.0000 0.0000 16.8473
#
#
#
# Elastic Compliance Matrix: (Units=1/GPa)
#
#
# Indices 1 2 3 4 5 6 
#
# 1 0.013279 -0.001074 -0.003190 0.000000 0.000000 0.000000
# 2 -0.001074 0.005395 -0.003489 0.000000 0.000000 0.000000
# 3 -0.003190 -0.003489 0.013910 0.000000 0.000000 0.000000
# 4 0.000000 0.000000 0.000000 0.190915 0.000000 0.000000
# 5 0.000000 0.000000 0.000000 0.000000 0.058715 0.000000
# 6 0.000000 0.000000 0.000000 0.000000 0.000000 0.059357
#
#
# Mechanical properties :
#
#
# Convention : Reuss Voigt Hill
#
# Bulk Modulus (GPa) = 58.56343 75.30570 66.93456
# Shear Modulus (GPa) = 13.78281 26.84135 20.31208
#
# Velocity S-wave (km/s) = 2.67166 3.72834 3.24332
# Velocity P-wave (km/s) = 6.31234 7.58505 6.97777
#
# Compressibility (1/GPa) = 0.01707550
#
# Stress axis : x y z
#
# Youngs Moduli (GPa) = 75.30473 185.35455 71.89330
#
# Poissons Ratio (x) = 0.19916 0.22937
# Poissons Ratio (y) = 0.08091 0.25086
# Poissons Ratio (z) = 0.24025 0.64677
#
# Static dielectric constant tensor:
#      x y z
#    x 3.220850 0.000000 0.000000 
#    y 0.000000 4.034330 0.000000 
#    z 0.000000 0.000000 3.194820 
# 
# 
# High freq. dielectric constant tensor:
#      x y z
#    x 1.723650 0.000000 0.000000 
#    y 0.000000 1.795980 0.000000 
#    z 0.000000 0.000000 1.722490 
# 
# From -- ./inp_files/39470.got.cif
#   From: 2010.03.12/outbox.cif.g09.slc.cpg/sg67_20_cif.got.tgz:39470.got - 2010.04.10 22:41:39.
