data_PCOD8277634
_publ_section_title
;
Structure prediction by ZEFSAII (Michael W. Deem and Ramdas Pophale) SiO2 
 PCOD8277634
Probable space group: C C C M
;
_chemical_formula_sum "Si O2"
_cell_formula_units_Z 96
_cell_length_a 26.054820
_cell_length_b 27.840973
_cell_length_c 9.347215
_cell_angle_alpha 90.000000
_cell_angle_beta 90.000000
_cell_angle_gamma 90.000000
_cell_volume 6780.390685
_symmetry_space_group_name_H-M "C C C M"
_symmetry_group_IT_number 66
_symmetry_cell_setting 'orthorhombic'
loop_
_space_group_symop_operation_xyz
x,y,z
-x,-y,z
x,-y,1/2-z
-x,y,1/2-z
-x,-y,-z
x,y,-z
-x,y,1/2+z
x,-y,1/2+z
1/2+x,1/2+y,z
1/2-x,1/2-y,z
1/2+x,1/2-y,1/2-z
1/2-x,1/2+y,1/2-z
1/2-x,1/2-y,-z
1/2+x,1/2+y,-z
1/2-x,1/2+y,1/2+z
1/2+x,1/2-y,1/2+z
loop_
_atom_site_type_symbol
_atom_site_label
_atom_site_fract_x
_atom_site_fract_y
_atom_site_fract_z
Si Si1 0.280720 0.700470 0.838141
Si Si2 0.398530 0.892753 0.238068
Si Si3 0.953802 0.567140 0.000000
Si Si4 0.302159 0.155492 0.841002
Si Si5 0.635008 0.746500 0.162375
Si Si6 0.051621 0.296002 0.336788
Si Si7 0.072282 0.459399 0.500000
O O1 0.250000 0.750000 0.839627
O O2 0.245573 0.659023 0.767680
O O3 0.332048 0.705723 0.743398
O O4 0.295022 0.685249 0.000000
O O5 0.438564 0.901057 0.365240
O O6 0.340289 0.887007 0.293002
O O7 0.416243 0.845303 0.154312
O O8 0.398902 0.939558 0.138725
O O9 0.923886 0.516646 0.000000
O O10 0.014110 0.559109 0.000000
O O11 0.333226 0.204770 0.843977
O O12 0.281144 0.144328 0.000000
O O13 0.583354 0.754884 0.253381
O O14 0.622035 0.729689 0.000000
O O15 0.040706 0.279438 0.500000
O O16 0.000000 0.304799 0.250000
#
# Coordination Sequence:
#
# PCOD8277634 Si02
#       7
#    16  16   8  16  16  16   8
#     4   9  16  25  41  59  79  98 121 148 182 227
#     4  11  21  32  46  60  77  96 126 165 205 249
#     4  11  22  36  46  58  75  98 126 162 208 259
#     4   9  17  28  41  57  76  98 120 149 193 237
#     4   9  17  28  41  58  80 102 125 151 186 229
#     4  11  21  30  43  59  79 104 133 164 200 235
#     4  11  22  34  48  60  73  96 128 164 208 253
#
# _framework density 14.158476
#
# number of rings (size 3 to 8) (size 9 to 14) (size 15 to 20)
#    0.000    2.000    1.667    3.500    3.500    5.333 
#    0.000    0.000    0.000    0.000    0.000    0.000 
#    0.000    0.000    0.000    0.000    0.000    0.000 
#
# Total GULP energy -595173.411902 kJ/mol
# GULP energy per Si atom -12399.446081 kJ/mol
# Density = 1.412625 g / cm^3
# Si number density = 14.158476 Si / 1000 Ang^3
#
#
#
# Elastic Constant Matrix: (Units=GPa)
#
#
# Indices 1 2 3 4 5 6 
#
# 1 45.0310 25.2720 30.2236 0.0000 0.0000 0.0000
# 2 25.2720 27.8607 20.2671 0.0000 0.0000 0.0000
# 3 30.2236 20.2671 126.1873 0.0000 0.0000 0.0000
# 4 0.0000 0.0000 0.0000 13.7971 0.0000 0.0000
# 5 0.0000 0.0000 0.0000 0.0000 25.7694 0.0000
# 6 0.0000 0.0000 0.0000 0.0000 0.0000 22.1106
#
#
#
# Elastic Compliance Matrix: (Units=1/GPa)
#
#
# Indices 1 2 3 4 5 6 
#
# 1 0.047963 -0.039800 -0.005096 0.000000 0.000000 0.000000
# 2 -0.039800 0.073667 -0.002299 0.000000 0.000000 0.000000
# 3 -0.005096 -0.002299 0.009514 0.000000 0.000000 0.000000
# 4 0.000000 0.000000 0.000000 0.072479 0.000000 0.000000
# 5 0.000000 0.000000 0.000000 0.000000 0.038806 0.000000
# 6 0.000000 0.000000 0.000000 0.000000 0.000000 0.045227
#
#
# Mechanical properties :
#
#
# Convention : Reuss Voigt Hill
#
# Bulk Modulus (GPa) = 27.20667 38.95601 33.08134
# Shear Modulus (GPa) = 12.68078 20.55652 16.61865
#
# Velocity S-wave (km/s) = 2.99596 3.81450 3.42973
# Velocity P-wave (km/s) = 5.58795 6.85380 6.25299
#
# Compressibility (1/GPa) = 0.03675569
#
# Stress axis : x y z
#
# Youngs Moduli (GPa) = 20.84938 13.57456 105.10335
#
# Poissons Ratio (x) = 0.54027 0.53556
# Poissons Ratio (y) = 0.82980 0.24165
# Poissons Ratio (z) = 0.10624 0.03121
#
# Static dielectric constant tensor:
#      x y z
#    x 2.719400 0.000000 0.000000 
#    y 0.000000 2.417500 0.000000 
#    z 0.000000 0.000000 3.028440 
# 
# 
# High freq. dielectric constant tensor:
#      x y z
#    x 1.518600 0.000000 0.000000 
#    y 0.000000 1.475100 0.000000 
#    z 0.000000 0.000000 1.567940 
# 
# From -- ./inp_files/9330.got.cif
#   From: 2010.03.12/outbox.cif.g09.slc.cpg/sg66_5_cif.got.tgz:9330.got - 2010.04.10 21:57:39.
