data_PCOD8277862
_publ_section_title
;
Structure prediction by ZEFSAII (Michael W. Deem and Ramdas Pophale) SiO2 
 PCOD8277862
Probable space group: C C C M
;
_chemical_formula_sum "Si O2"
_cell_formula_units_Z 72
_cell_length_a 8.799495
_cell_length_b 15.558056
_cell_length_c 24.918941
_cell_angle_alpha 90.000000
_cell_angle_beta 90.000000
_cell_angle_gamma 90.000000
_cell_volume 3411.478676
_symmetry_space_group_name_H-M "C C C M"
_symmetry_group_IT_number 66
_symmetry_cell_setting 'orthorhombic'
loop_
_space_group_symop_operation_xyz
x,y,z
-x,-y,z
x,-y,1/2-z
-x,y,1/2-z
-x,-y,-z
x,y,-z
-x,y,1/2+z
x,-y,1/2+z
1/2+x,1/2+y,z
1/2-x,1/2-y,z
1/2+x,1/2-y,1/2-z
1/2-x,1/2+y,1/2-z
1/2-x,1/2-y,-z
1/2+x,1/2+y,-z
1/2-x,1/2+y,1/2+z
1/2+x,1/2-y,1/2+z
loop_
_atom_site_type_symbol
_atom_site_label
_atom_site_fract_x
_atom_site_fract_y
_atom_site_fract_z
Si Si1 0.750000 0.250000 0.187475
Si Si2 0.000000 0.000000 0.330339
Si Si3 0.000000 0.146193 0.250000
Si Si4 0.929460 0.256644 0.000000
Si Si5 0.552094 0.138067 0.104478
Si Si6 0.104264 0.082133 0.000000
Si Si7 0.279354 0.971050 0.400320
O O1 0.859626 0.201303 0.228607
O O2 0.647573 0.187133 0.150501
O O3 0.950473 0.084399 0.298075
O O4 0.849451 0.985242 0.364153
O O5 0.750000 0.250000 0.000000
O O6 0.987391 0.301124 0.945538
O O7 0.994819 0.162288 0.000000
O O8 0.395587 0.096433 0.129005
O O9 0.639169 0.057027 0.078641
O O10 0.209988 0.084222 0.051821
O O11 0.000000 0.000000 0.000000
#
# Coordination Sequence:
#
# PCOD8277862 Si02
#       7
#     8   8   8   8  16   8  16
#     4  12  26  49  70 108 132 187 232 304 362 420
#     4  11  24  49  68  98 132 187 230 293 354 422
#     4  11  28  46  70  95 140 172 240 299 360 412
#     4  12  25  42  67 108 148 186 227 289 346 425
#     4  11  25  45  72 103 145 183 233 287 357 422
#     4  12  25  40  69 106 148 190 233 273 350 425
#     4  11  24  45  71 103 140 189 230 282 349 430
#
# _framework density 21.105218000000001
#
# number of rings (size 3 to 8) (size 9 to 14) (size 15 to 20)
#    0.000    0.667    4.444    2.667    6.222    3.556 
#    0.000    0.000    0.000    0.000    0.000    0.000 
#    0.000    0.000    0.000    0.000    0.000    0.000 
#
# Total GULP energy -446112.902330 kJ/mol
# GULP energy per Si atom -12392.025065 kJ/mol
# Density = 2.105718 g / cm^3
# Si number density = 21.105218 Si / 1000 Ang^3
#
#
#
# Elastic Constant Matrix: (Units=GPa)
#
#
# Indices 1 2 3 4 5 6 
#
# 1 137.8391 78.0790 56.9450 0.0000 0.0000 0.0000
# 2 78.0790 155.0884 55.8995 0.0000 0.0000 0.0000
# 3 56.9450 55.8995 108.8901 0.0000 0.0000 0.0000
# 4 0.0000 0.0000 0.0000 27.9720 0.0000 0.0000
# 5 0.0000 0.0000 0.0000 0.0000 37.9574 0.0000
# 6 0.0000 0.0000 0.0000 0.0000 0.0000 52.6165
#
#
#
# Elastic Compliance Matrix: (Units=1/GPa)
#
#
# Indices 1 2 3 4 5 6 
#
# 1 0.011213 -0.004333 -0.003639 0.000000 0.000000 0.000000
# 2 -0.004333 0.009587 -0.002655 0.000000 0.000000 0.000000
# 3 -0.003639 -0.002655 0.012450 0.000000 0.000000 0.000000
# 4 0.000000 0.000000 0.000000 0.035750 0.000000 0.000000
# 5 0.000000 0.000000 0.000000 0.000000 0.026345 0.000000
# 6 0.000000 0.000000 0.000000 0.000000 0.000000 0.019005
#
#
# Mechanical properties :
#
#
# Convention : Reuss Voigt Hill
#
# Bulk Modulus (GPa) = 83.37769 87.07386 85.22577
# Shear Modulus (GPa) = 35.81560 37.76879 36.79219
#
# Velocity S-wave (km/s) = 4.12394 4.23489 4.17978
# Velocity P-wave (km/s) = 7.89096 8.07831 7.98518
#
# Compressibility (1/GPa) = 0.01199362
#
# Stress axis : x y z
#
# Youngs Moduli (GPa) = 89.18207 104.31230 80.32226
#
# Poissons Ratio (x) = 0.45203 0.29232
# Poissons Ratio (y) = 0.38646 0.21327
# Poissons Ratio (z) = 0.32457 0.27696
#
# Static dielectric constant tensor:
#      x y z
#    x 3.927600 0.000000 0.000000 
#    y 0.000000 4.118410 0.000000 
#    z 0.000000 0.000000 3.795360 
# 
# 
# High freq. dielectric constant tensor:
#      x y z
#    x 1.843910 0.000000 0.000000 
#    y 0.000000 1.845690 0.000000 
#    z 0.000000 0.000000 1.812410 
# 
# From -- ./inp_files/62289.got.cif
#   From: 2010.03.12/outbox.cif.g09.slc.cpg/sg66_32_cif.got.tgz:62289.got - 2010.04.10 21:57:39.
