data_PCOD8277099
_publ_section_title
;
Structure prediction by ZEFSAII (Michael W. Deem and Ramdas Pophale) SiO2 
 PCOD8277099
Probable space group: C C C M
;
_chemical_formula_sum "Si O2"
_cell_formula_units_Z 80
_cell_length_a 21.115241
_cell_length_b 11.423543
_cell_length_c 14.690494
_cell_angle_alpha 90.000000
_cell_angle_beta 90.000000
_cell_angle_gamma 90.000000
_cell_volume 3543.506743
_symmetry_space_group_name_H-M "C C C M"
_symmetry_group_IT_number 66
_symmetry_cell_setting 'orthorhombic'
loop_
_space_group_symop_operation_xyz
x,y,z
-x,-y,z
x,-y,1/2-z
-x,y,1/2-z
-x,-y,-z
x,y,-z
-x,y,1/2+z
x,-y,1/2+z
1/2+x,1/2+y,z
1/2-x,1/2-y,z
1/2+x,1/2-y,1/2-z
1/2-x,1/2+y,1/2-z
1/2-x,1/2-y,-z
1/2+x,1/2+y,-z
1/2-x,1/2+y,1/2+z
1/2+x,1/2-y,1/2+z
loop_
_atom_site_type_symbol
_atom_site_label
_atom_site_fract_x
_atom_site_fract_y
_atom_site_fract_z
Si Si1 0.396158 0.798537 0.395482
Si Si2 0.460467 0.799086 0.103668
Si Si3 0.096931 0.127514 0.732210
Si Si4 0.763222 0.121865 0.799013
Si Si5 0.149458 0.460857 0.395507
O O1 0.379633 0.760444 0.500000
O O2 0.468292 0.846992 0.391184
O O3 0.387027 0.689005 0.328760
O O4 0.351353 0.904711 0.358259
O O5 0.456146 0.686836 0.169577
O O6 0.409694 0.889370 0.146806
O O7 0.442883 0.764299 0.000000
O O8 0.162914 0.117232 0.675349
O O9 0.069265 0.000000 0.750000
O O10 0.750000 0.250000 0.751293
O O11 0.714940 0.111159 0.884285
O O12 0.744040 0.000000 0.750000
O O13 0.133112 0.475796 0.500000
#
# Coordination Sequence:
#
# PCOD8277099 Si02
#       5
#    16  16  16  16  16
#     4  10  22  41  64  93 129 166 212 268 325 388
#     4  10  21  38  63  95 128 163 208 268 330 389
#     4  11  24  40  60  90 128 175 221 263 317 386
#     4  11  22  39  62  88 125 170 215 270 322 387
#     4  10  21  38  63  94 124 159 209 268 334 394
#
# _framework density 22.576506999999999
#
# number of rings (size 3 to 8) (size 9 to 14) (size 15 to 20)
#    0.000    1.600    2.000    2.400    0.000    6.000 
#    0.000    7.000    0.000   10.800    0.000    0.000 
#    0.000    0.000    0.000    0.000    0.000    0.000 
#
# Total GULP energy -495579.429138 kJ/mol
# GULP energy per Si atom -12389.485728 kJ/mol
# Density = 2.252512 g / cm^3
# Si number density = 22.576507 Si / 1000 Ang^3
#
#
#
# Elastic Constant Matrix: (Units=GPa)
#
#
# Indices 1 2 3 4 5 6 
#
# 1 78.0275 9.8423 15.0730 0.0000 0.0000 0.0000
# 2 9.8423 153.8975 45.2447 0.0000 0.0000 0.0000
# 3 15.0730 45.2447 65.1526 0.0000 0.0000 0.0000
# 4 0.0000 0.0000 0.0000 24.1851 0.0000 0.0000
# 5 0.0000 0.0000 0.0000 0.0000 24.4997 0.0000
# 6 0.0000 0.0000 0.0000 0.0000 0.0000 34.4950
#
#
#
# Elastic Compliance Matrix: (Units=1/GPa)
#
#
# Indices 1 2 3 4 5 6 
#
# 1 0.013416 0.000068 -0.003151 0.000000 0.000000 0.000000
# 2 0.000068 0.008165 -0.005686 0.000000 0.000000 0.000000
# 3 -0.003151 -0.005686 0.020026 0.000000 0.000000 0.000000
# 4 0.000000 0.000000 0.000000 0.041348 0.000000 0.000000
# 5 0.000000 0.000000 0.000000 0.000000 0.040817 0.000000
# 6 0.000000 0.000000 0.000000 0.000000 0.000000 0.028990
#
#
# Mechanical properties :
#
#
# Convention : Reuss Voigt Hill
#
# Bulk Modulus (GPa) = 41.54608 48.59973 45.07290
# Shear Modulus (GPa) = 28.03902 31.76380 29.90141
#
# Velocity S-wave (km/s) = 3.52796 3.75499 3.64324
# Velocity P-wave (km/s) = 5.91926 6.35400 6.14048
#
# Compressibility (1/GPa) = 0.02406966
#
# Stress axis : x y z
#
# Youngs Moduli (GPa) = 74.53721 122.47248 49.93441
#
# Poissons Ratio (x) = -0.00839 0.15736
# Poissons Ratio (y) = -0.00510 0.28393
# Poissons Ratio (z) = 0.23489 0.69638
#
# Static dielectric constant tensor:
#      x y z
#    x 4.038010 0.000000 0.000000 
#    y 0.000000 4.339900 0.000000 
#    z 0.000000 0.000000 3.795470 
# 
# 
# High freq. dielectric constant tensor:
#      x y z
#    x 1.898580 0.000000 0.000000 
#    y 0.000000 1.895600 0.000000 
#    z 0.000000 0.000000 1.862870 
# 
# From -- ./inp_files/26362.got.cif
#   From: 2010.03.12/outbox.cif.g09.slc.cpg/sg66_14_cif.got.tgz:26362.got - 2010.04.10 21:57:39.
