data_PCOD8277307
_publ_section_title
;
Structure prediction by ZEFSAII (Michael W. Deem and Ramdas Pophale) SiO2 
 PCOD8277307
Probable space group: C C C M
;
_chemical_formula_sum "Si O2"
_cell_formula_units_Z 112
_cell_length_a 24.430912
_cell_length_b 14.721225
_cell_length_c 14.485247
_cell_angle_alpha 90.000000
_cell_angle_beta 90.000000
_cell_angle_gamma 90.000000
_cell_volume 5209.661851
_symmetry_space_group_name_H-M "C C C M"
_symmetry_group_IT_number 66
_symmetry_cell_setting 'orthorhombic'
loop_
_space_group_symop_operation_xyz
x,y,z
-x,-y,z
x,-y,1/2-z
-x,y,1/2-z
-x,-y,-z
x,y,-z
-x,y,1/2+z
x,-y,1/2+z
1/2+x,1/2+y,z
1/2-x,1/2-y,z
1/2+x,1/2-y,1/2-z
1/2-x,1/2+y,1/2-z
1/2-x,1/2-y,-z
1/2+x,1/2+y,-z
1/2-x,1/2+y,1/2+z
1/2+x,1/2-y,1/2+z
loop_
_atom_site_type_symbol
_atom_site_label
_atom_site_fract_x
_atom_site_fract_y
_atom_site_fract_z
Si Si1 0.720234 0.577908 0.897446
Si Si2 0.032397 0.082578 0.608465
Si Si3 0.951561 0.561554 0.893000
Si Si4 0.050082 0.230678 0.108351
Si Si5 0.158010 0.781251 0.279203
Si Si6 0.667620 0.073428 0.678407
Si Si7 0.844081 0.898846 0.608254
O O1 0.703665 0.663490 0.835458
O O2 0.786366 0.572261 0.901258
O O3 0.694752 0.482374 0.862600
O O4 0.698094 0.596149 0.000000
O O5 0.026469 0.075910 0.500000
O O6 0.094923 0.072443 0.636099
O O7 0.004116 0.176639 0.639559
O O8 0.000000 0.000000 0.656168
O O9 0.965724 0.665564 0.872858
O O10 0.891608 0.538589 0.854314
O O11 0.000000 0.500000 0.847607
O O12 0.948708 0.538734 0.000000
O O13 0.099851 0.196594 0.172446
O O14 0.065992 0.216225 0.000000
O O15 0.166349 0.673716 0.278734
O O16 0.166019 0.811183 0.172543
O O17 0.689888 0.000000 0.750000
O O18 0.837559 0.871921 0.500000
#
# Coordination Sequence:
#
# PCOD8277307 Si02
#       7
#    16  16  16  16  16  16  16
#     4  11  23  41  66  92 119 151 192 248 306 359
#     4   9  17  31  52  80 117 158 195 234 286 348
#     4   9  19  37  60  85 115 153 198 250 304 352
#     4   9  18  33  56  88 120 152 199 253 299 348
#     4  11  22  38  62  89 121 158 200 248 299 357
#     4  11  24  40  60  88 121 156 200 250 297 352
#     4  10  22  39  59  87 124 163 200 241 296 363
#
# _framework density 21.498515999999999
#
# number of rings (size 3 to 8) (size 9 to 14) (size 15 to 20)
#    0.000    2.000    0.000    3.429    0.000    6.571 
#    0.000    6.429    0.000    3.429    0.000    0.000 
#    0.000    5.143    0.000    0.000    0.000    0.000 
#
# Total GULP energy -694149.800845 kJ/mol
# GULP energy per Si atom -12395.532158 kJ/mol
# Density = 2.144958 g / cm^3
# Si number density = 21.498516 Si / 1000 Ang^3
#
#
#
# Elastic Constant Matrix: (Units=GPa)
#
#
# Indices 1 2 3 4 5 6 
#
# 1 149.4177 56.7447 28.2437 0.0000 0.0000 0.0000
# 2 56.7447 111.1463 45.2093 0.0000 0.0000 0.0000
# 3 28.2437 45.2093 77.0545 0.0000 0.0000 0.0000
# 4 0.0000 0.0000 0.0000 22.7987 0.0000 0.0000
# 5 0.0000 0.0000 0.0000 0.0000 15.2250 0.0000
# 6 0.0000 0.0000 0.0000 0.0000 0.0000 30.3475
#
#
#
# Elastic Compliance Matrix: (Units=1/GPa)
#
#
# Indices 1 2 3 4 5 6 
#
# 1 0.008334 -0.003956 -0.000733 0.000000 0.000000 0.000000
# 2 -0.003956 0.013696 -0.006585 0.000000 0.000000 0.000000
# 3 -0.000733 -0.006585 0.017110 0.000000 0.000000 0.000000
# 4 0.000000 0.000000 0.000000 0.043862 0.000000 0.000000
# 5 0.000000 0.000000 0.000000 0.000000 0.065682 0.000000
# 6 0.000000 0.000000 0.000000 0.000000 0.000000 0.032952
#
#
# Mechanical properties :
#
#
# Convention : Reuss Voigt Hill
#
# Bulk Modulus (GPa) = 60.27867 66.44597 63.36232
# Shear Modulus (GPa) = 23.84184 27.50228 25.67206
#
# Velocity S-wave (km/s) = 3.33378 3.58056 3.45937
# Velocity P-wave (km/s) = 6.55119 6.93312 6.74486
#
# Compressibility (1/GPa) = 0.01658962
#
# Stress axis : x y z
#
# Youngs Moduli (GPa) = 119.99290 73.01565 58.44412
#
# Poissons Ratio (x) = 0.28888 0.04286
# Poissons Ratio (y) = 0.47475 0.38487
# Poissons Ratio (z) = 0.08800 0.48083
#
# Static dielectric constant tensor:
#      x y z
#    x 4.075140 0.000000 0.000000 
#    y 0.000000 3.895370 0.000000 
#    z 0.000000 0.000000 3.760640 
# 
# 
# High freq. dielectric constant tensor:
#      x y z
#    x 1.850830 0.000000 0.000000 
#    y 0.000000 1.841460 0.000000 
#    z 0.000000 0.000000 1.836610 
# 
# From -- ./inp_files/32513.got.cif
#   From: 2010.03.12/outbox.cif.g09.slc.cpg/sg66_17_cif.got.tgz:32513.got - 2010.04.10 21:57:39.
