data_PCOD8277349
_publ_section_title
;
Structure prediction by ZEFSAII (Michael W. Deem and Ramdas Pophale) SiO2 
 PCOD8277349
Probable space group: C C C M
;
_chemical_formula_sum "Si O2"
_cell_formula_units_Z 80
_cell_length_a 11.766438
_cell_length_b 15.498348
_cell_length_c 21.688962
_cell_angle_alpha 90.000000
_cell_angle_beta 90.000000
_cell_angle_gamma 90.000000
_cell_volume 3955.206720
_symmetry_space_group_name_H-M "C C C M"
_symmetry_group_IT_number 66
_symmetry_cell_setting 'orthorhombic'
loop_
_space_group_symop_operation_xyz
x,y,z
-x,-y,z
x,-y,1/2-z
-x,y,1/2-z
-x,-y,-z
x,y,-z
-x,y,1/2+z
x,-y,1/2+z
1/2+x,1/2+y,z
1/2-x,1/2-y,z
1/2+x,1/2-y,1/2-z
1/2-x,1/2+y,1/2-z
1/2-x,1/2-y,-z
1/2+x,1/2+y,-z
1/2-x,1/2+y,1/2+z
1/2+x,1/2-y,1/2+z
loop_
_atom_site_type_symbol
_atom_site_label
_atom_site_fract_x
_atom_site_fract_y
_atom_site_fract_z
Si Si1 0.735505 0.844914 0.683528
Si Si2 0.809015 0.576270 0.800387
Si Si3 0.483956 0.904199 0.887181
Si Si4 0.177749 0.885551 0.000000
Si Si5 0.129969 0.977049 0.125507
Si Si6 0.923588 0.700829 0.500000
O O1 0.750000 0.750000 0.655523
O O2 0.720689 0.841490 0.757365
O O3 0.637087 0.897461 0.647291
O O4 0.852435 0.894546 0.669481
O O5 0.830243 0.500000 0.750000
O O6 0.709087 0.555174 0.849285
O O7 0.920452 0.607451 0.835727
O O8 0.500000 0.000000 0.916294
O O9 0.493262 0.830899 0.939782
O O10 0.162392 0.949831 0.056686
O O11 0.088486 0.805003 0.000000
O O12 0.303052 0.846740 0.000000
O O13 0.000000 0.000000 0.129908
#
# Coordination Sequence:
#
# PCOD8277349 Si02
#       6
#    16  16  16   8  16   8
#     4  11  23  41  65  95 129 170 212 266 322 379
#     4  10  22  40  63  94 131 169 213 265 322 385
#     4  12  20  38  67  96 128 164 215 269 321 379
#     4  11  21  44  61  95 131 167 214 274 323 378
#     4  11  23  41  68  91 129 174 221 255 315 395
#     4  11  23  36  69  99 125 161 219 275 328 378
#
# _framework density 20.226502
#
# number of rings (size 3 to 8) (size 9 to 14) (size 15 to 20)
#    0.000    1.000    6.000    2.400    0.000    4.400 
#   10.800    0.000    0.000    1.200    0.000    0.000 
#    0.000    0.000    0.000    0.000    0.000    0.000 
#
# Total GULP energy -495743.072338 kJ/mol
# GULP energy per Si atom -12393.576808 kJ/mol
# Density = 2.018047 g / cm^3
# Si number density = 20.226502 Si / 1000 Ang^3
#
#
#
# Elastic Constant Matrix: (Units=GPa)
#
#
# Indices 1 2 3 4 5 6 
#
# 1 107.5320 34.4193 48.4477 0.0000 0.0000 0.0000
# 2 34.4193 72.6140 28.0660 0.0000 0.0000 0.0000
# 3 48.4477 28.0660 142.2507 0.0000 0.0000 0.0000
# 4 0.0000 0.0000 0.0000 26.1373 0.0000 0.0000
# 5 0.0000 0.0000 0.0000 0.0000 1.8624 0.0000
# 6 0.0000 0.0000 0.0000 0.0000 0.0000 25.4654
#
#
#
# Elastic Compliance Matrix: (Units=1/GPa)
#
#
# Indices 1 2 3 4 5 6 
#
# 1 0.012222 -0.004530 -0.003269 0.000000 0.000000 0.000000
# 2 -0.004530 0.016587 -0.001730 0.000000 0.000000 0.000000
# 3 -0.003269 -0.001730 0.008484 0.000000 0.000000 0.000000
# 4 0.000000 0.000000 0.000000 0.038259 0.000000 0.000000
# 5 0.000000 0.000000 0.000000 0.000000 0.536929 0.000000
# 6 0.000000 0.000000 0.000000 0.000000 0.000000 0.039269
#
#
# Mechanical properties :
#
#
# Convention : Reuss Voigt Hill
#
# Bulk Modulus (GPa) = 54.83474 60.47363 57.65418
# Shear Modulus (GPa) = 7.38675 24.79062 16.08869
#
# Velocity S-wave (km/s) = 1.91310 3.50473 2.82339
# Velocity P-wave (km/s) = 5.66119 6.80739 6.26058
#
# Compressibility (1/GPa) = 0.01823661
#
# Stress axis : x y z
#
# Youngs Moduli (GPa) = 81.81765 60.28723 117.86249
#
# Poissons Ratio (x) = 0.27310 0.38528
# Poissons Ratio (y) = 0.37063 0.20388
# Poissons Ratio (z) = 0.26745 0.10429
#
# Static dielectric constant tensor:
#      x y z
#    x 3.577960 0.000000 0.000000 
#    y 0.000000 3.682250 0.000000 
#    z 0.000000 0.000000 4.142710 
# 
# 
# High freq. dielectric constant tensor:
#      x y z
#    x 1.774700 0.000000 0.000000 
#    y 0.000000 1.773890 0.000000 
#    z 0.000000 0.000000 1.808050 
# 
# From -- ./inp_files/48438.got.cif
#   From: 2010.03.12/outbox.cif.g09.slc.cpg/sg66_25_cif.got.tgz:48438.got - 2010.04.10 21:57:39.
