data_PCOD8277487
_publ_section_title
;
Structure prediction by ZEFSAII (Michael W. Deem and Ramdas Pophale) SiO2 
 PCOD8277487
Probable space group: C C C M
;
_chemical_formula_sum "Si O2"
_cell_formula_units_Z 64
_cell_length_a 12.352081
_cell_length_b 12.799306
_cell_length_c 18.262242
_cell_angle_alpha 90.000000
_cell_angle_beta 90.000000
_cell_angle_gamma 90.000000
_cell_volume 2887.225113
_symmetry_space_group_name_H-M "C C C M"
_symmetry_group_IT_number 66
_symmetry_cell_setting 'orthorhombic'
loop_
_space_group_symop_operation_xyz
x,y,z
-x,-y,z
x,-y,1/2-z
-x,y,1/2-z
-x,-y,-z
x,y,-z
-x,y,1/2+z
x,-y,1/2+z
1/2+x,1/2+y,z
1/2-x,1/2-y,z
1/2+x,1/2-y,1/2-z
1/2-x,1/2+y,1/2-z
1/2-x,1/2-y,-z
1/2+x,1/2+y,-z
1/2-x,1/2+y,1/2+z
1/2+x,1/2-y,1/2+z
loop_
_atom_site_type_symbol
_atom_site_label
_atom_site_fract_x
_atom_site_fract_y
_atom_site_fract_z
Si Si1 0.207950 0.547859 0.324070
Si Si2 0.301850 0.145839 0.582976
Si Si3 0.951642 0.308538 0.416227
Si Si4 0.554330 0.389137 0.676752
O O1 0.154573 0.500000 0.250000
O O2 0.244299 0.454769 0.377123
O O3 0.126935 0.627776 0.362995
O O4 0.318887 0.605401 0.304095
O O5 0.260994 0.139596 0.500000
O O6 0.250000 0.250000 0.619133
O O7 0.431018 0.139997 0.588650
O O8 0.908429 0.312046 0.500000
O O9 0.961591 0.188534 0.391303
O O10 0.500000 0.500000 0.656670
O O11 0.500000 0.342058 0.750000
#
# Coordination Sequence:
#
# PCOD8277487 Si02
#       4
#    16  16  16  16
#     4  12  25  41  68 102 137 183 231 294 353 420
#     4  10  23  43  68  98 136 183 230 281 349 427
#     4  11  26  45  71 104 140 184 232 295 361 427
#     4  11  24  46  68 100 138 180 236 291 354 434
#
# _framework density 22.166611
#
# number of rings (size 3 to 8) (size 9 to 14) (size 15 to 20)
#    0.000    1.000    2.500    3.750    3.500    6.500 
#    0.000    0.000    0.000    0.000    0.000    0.000 
#    0.000    0.000    0.000    0.000    0.000    0.000 
#
# Total GULP energy -396913.654044 kJ/mol
# GULP energy per Si atom -12403.551689 kJ/mol
# Density = 2.211616 g / cm^3
# Si number density = 22.166611 Si / 1000 Ang^3
#
#
#
# Elastic Constant Matrix: (Units=GPa)
#
#
# Indices 1 2 3 4 5 6 
#
# 1 102.6387 16.6799 50.3476 0.0000 0.0000 0.0000
# 2 16.6799 94.5369 54.8696 0.0000 0.0000 0.0000
# 3 50.3476 54.8696 135.8646 0.0000 0.0000 0.0000
# 4 0.0000 0.0000 0.0000 44.3103 0.0000 0.0000
# 5 0.0000 0.0000 0.0000 0.0000 24.0418 0.0000
# 6 0.0000 0.0000 0.0000 0.0000 0.0000 41.1060
#
#
#
# Elastic Compliance Matrix: (Units=1/GPa)
#
#
# Indices 1 2 3 4 5 6 
#
# 1 0.011934 0.000602 -0.004666 0.000000 0.000000 0.000000
# 2 0.000602 0.013847 -0.005815 0.000000 0.000000 0.000000
# 3 -0.004666 -0.005815 0.011438 0.000000 0.000000 0.000000
# 4 0.000000 0.000000 0.000000 0.022568 0.000000 0.000000
# 5 0.000000 0.000000 0.000000 0.000000 0.041594 0.000000
# 6 0.000000 0.000000 0.000000 0.000000 0.000000 0.024327
#
#
# Mechanical properties :
#
#
# Convention : Reuss Voigt Hill
#
# Bulk Modulus (GPa) = 57.26989 64.09269 60.68129
# Shear Modulus (GPa) = 33.05013 35.96781 34.50897
#
# Velocity S-wave (km/s) = 3.86552 4.03254 3.94991
# Velocity P-wave (km/s) = 6.76869 7.11749 6.94528
#
# Compressibility (1/GPa) = 0.01746118
#
# Stress axis : x y z
#
# Youngs Moduli (GPa) = 83.79690 72.21860 87.42992
#
# Poissons Ratio (x) = -0.04350 0.40791
# Poissons Ratio (y) = -0.05047 0.50843
# Poissons Ratio (z) = 0.39096 0.41997
#
# Static dielectric constant tensor:
#      x y z
#    x 3.940480 0.000000 0.000000 
#    y 0.000000 4.024450 0.000000 
#    z 0.000000 0.000000 4.076490 
# 
# 
# High freq. dielectric constant tensor:
#      x y z
#    x 1.878300 0.000000 0.000000 
#    y 0.000000 1.877450 0.000000 
#    z 0.000000 0.000000 1.874860 
# 
# From -- ./inp_files/38011.got.cif
#   From: 2010.03.12/outbox.cif.g09.slc.cpg/sg66_20_cif.got.tgz:38011.got - 2010.04.10 21:57:39.
