data_PCOD8277879
_publ_section_title
;
Structure prediction by ZEFSAII (Michael W. Deem and Ramdas Pophale) SiO2 
 PCOD8277879
Probable space group: C C C M
;
_chemical_formula_sum "Si O2"
_cell_formula_units_Z 36
_cell_length_a 4.741285
_cell_length_b 18.463717
_cell_length_c 17.713442
_cell_angle_alpha 90.000000
_cell_angle_beta 90.000000
_cell_angle_gamma 90.000000
_cell_volume 1550.665613
_symmetry_space_group_name_H-M "C C C M"
_symmetry_group_IT_number 66
_symmetry_cell_setting 'orthorhombic'
loop_
_space_group_symop_operation_xyz
x,y,z
-x,-y,z
x,-y,1/2-z
-x,y,1/2-z
-x,-y,-z
x,y,-z
-x,y,1/2+z
x,-y,1/2+z
1/2+x,1/2+y,z
1/2-x,1/2-y,z
1/2+x,1/2-y,1/2-z
1/2-x,1/2+y,1/2-z
1/2-x,1/2-y,-z
1/2+x,1/2+y,-z
1/2-x,1/2+y,1/2+z
1/2+x,1/2-y,1/2+z
loop_
_atom_site_type_symbol
_atom_site_label
_atom_site_fract_x
_atom_site_fract_y
_atom_site_fract_z
Si Si1 0.000000 0.000000 0.250000
Si Si2 0.635980 0.120497 0.174944
Si Si3 0.142141 0.168841 0.915258
O O1 0.209564 0.045566 0.303472
O O2 0.500000 0.156850 0.250000
O O3 0.374541 0.111955 0.116791
O O4 0.866332 0.171698 0.136773
O O5 0.250000 0.250000 0.915001
O O6 0.063902 0.143778 0.000000
#
# Coordination Sequence:
#
# PCOD8277879 Si02
#       3
#     4  16  16
#     4  12  26  48  68  96 146 180 240 302 318 396
#     4  12  24  45  73  99 139 184 233 282 345 400
#     4  11  25  46  71 105 145 178 222 288 356 417
#
# _framework density 23.215835999999999
#
# number of rings (size 3 to 8) (size 9 to 14) (size 15 to 20)
#    0.000    0.444    4.444    3.333    0.000    7.111 
#    4.000    6.667    0.000    0.000    0.000    0.000 
#    0.000    0.000    0.000    0.000    0.000    0.000 
#
# Total GULP energy -223095.965963 kJ/mol
# GULP energy per Si atom -12394.220331 kJ/mol
# Density = 2.316300 g / cm^3
# Si number density = 23.215836 Si / 1000 Ang^3
#
#
#
# Elastic Constant Matrix: (Units=GPa)
#
#
# Indices 1 2 3 4 5 6 
#
# 1 190.3273 34.7642 106.5475 0.0000 0.0000 0.0000
# 2 34.7642 49.5249 61.9511 0.0000 0.0000 0.0000
# 3 106.5475 61.9511 197.4714 0.0000 0.0000 0.0000
# 4 0.0000 0.0000 0.0000 7.0371 0.0000 0.0000
# 5 0.0000 0.0000 0.0000 0.0000 39.8699 0.0000
# 6 0.0000 0.0000 0.0000 0.0000 0.0000 41.9006
#
#
#
# Elastic Compliance Matrix: (Units=1/GPa)
#
#
# Indices 1 2 3 4 5 6 
#
# 1 0.007531 -0.000335 -0.003959 0.000000 0.000000 0.000000
# 2 -0.000335 0.033249 -0.010250 0.000000 0.000000 0.000000
# 3 -0.003959 -0.010250 0.010416 0.000000 0.000000 0.000000
# 4 0.000000 0.000000 0.000000 0.142104 0.000000 0.000000
# 5 0.000000 0.000000 0.000000 0.000000 0.025082 0.000000
# 6 0.000000 0.000000 0.000000 0.000000 0.000000 0.023866
#
#
# Mechanical properties :
#
#
# Convention : Reuss Voigt Hill
#
# Bulk Modulus (GPa) = 45.23119 93.76104 69.49611
# Shear Modulus (GPa) = 17.94014 33.36557 25.65285
#
# Velocity S-wave (km/s) = 2.78286 3.79514 3.32772
# Velocity P-wave (km/s) = 5.46360 7.72519 6.69064
#
# Compressibility (1/GPa) = 0.02210864
#
# Stress axis : x y z
#
# Youngs Moduli (GPa) = 132.77912 30.07603 96.00969
#
# Poissons Ratio (x) = 0.01007 0.38006
# Poissons Ratio (y) = 0.04447 0.98413
# Poissons Ratio (z) = 0.52561 0.30829
#
# Static dielectric constant tensor:
#      x y z
#    x 4.813340 0.000000 0.000000 
#    y 0.000000 3.727360 0.000000 
#    z 0.000000 0.000000 4.711820 
# 
# 
# High freq. dielectric constant tensor:
#      x y z
#    x 1.953820 0.000000 0.000000 
#    y 0.000000 1.879290 0.000000 
#    z 0.000000 0.000000 1.927230 
# 
# From -- ./inp_files/21987.got.cif
#   From: 2010.03.12/outbox.cif.g09.slc.cpg/sg66_11_cif.got.tgz:21987.got - 2010.04.10 21:57:39.
