data_PCOD8277910
_publ_section_title
;
Structure prediction by ZEFSAII (Michael W. Deem and Ramdas Pophale) SiO2 
 PCOD8277910
Probable space group: C C C M
;
_chemical_formula_sum "Si O2"
_cell_formula_units_Z 80
_cell_length_a 17.550751
_cell_length_b 27.563222
_cell_length_c 9.065671
_cell_angle_alpha 90.000000
_cell_angle_beta 90.000000
_cell_angle_gamma 90.000000
_cell_volume 4385.565905
_symmetry_space_group_name_H-M "C C C M"
_symmetry_group_IT_number 66
_symmetry_cell_setting 'orthorhombic'
loop_
_space_group_symop_operation_xyz
x,y,z
-x,-y,z
x,-y,1/2-z
-x,y,1/2-z
-x,-y,-z
x,y,-z
-x,y,1/2+z
x,-y,1/2+z
1/2+x,1/2+y,z
1/2-x,1/2-y,z
1/2+x,1/2-y,1/2-z
1/2-x,1/2+y,1/2-z
1/2-x,1/2-y,-z
1/2+x,1/2+y,-z
1/2-x,1/2+y,1/2+z
1/2+x,1/2-y,1/2+z
loop_
_atom_site_type_symbol
_atom_site_label
_atom_site_fract_x
_atom_site_fract_y
_atom_site_fract_z
Si Si1 0.149483 0.696438 0.831313
Si Si2 0.190341 0.853121 0.830492
Si Si3 0.076911 0.595650 0.172225
Si Si4 0.768396 0.549032 0.673935
Si Si5 0.581089 0.714387 0.174181
O O1 0.236480 0.680955 0.808909
O O2 0.093987 0.651805 0.792369
O O3 0.132245 0.739885 0.720594
O O4 0.136212 0.713464 0.000000
O O5 0.210189 0.908051 0.783231
O O6 0.122272 0.834829 0.726895
O O7 0.163455 0.851303 0.000000
O O8 0.146890 0.562869 0.230405
O O9 0.000000 0.578359 0.250000
O O10 0.066451 0.587920 0.000000
O O11 0.739870 0.500000 0.750000
O O12 0.769481 0.541904 0.500000
O O13 0.500000 0.719021 0.250000
O O14 0.570755 0.713451 0.000000
#
# Coordination Sequence:
#
# PCOD8277910 Si02
#       5
#    16  16  16  16  16
#     4   9  18  34  54  75 104 141 175 207 248 297
#     4   9  19  37  57  76 103 137 170 208 255 304
#     4   9  18  31  47  71 103 139 175 209 247 292
#     4   9  19  35  54  75  99 130 169 211 257 306
#     4  12  24  35  51  77 107 137 171 210 253 301
#
# _framework density 18.241658999999999
#
# number of rings (size 3 to 8) (size 9 to 14) (size 15 to 20)
#    0.000    2.400    0.000    5.400    0.000    7.600 
#    0.000    6.000    0.000    0.600    0.000    4.200 
#    0.000    0.000    0.000    0.000    0.000    0.000 
#
# Total GULP energy -496046.353428 kJ/mol
# GULP energy per Si atom -12401.158836 kJ/mol
# Density = 1.820014 g / cm^3
# Si number density = 18.241659 Si / 1000 Ang^3
#
#
#
# Elastic Constant Matrix: (Units=GPa)
#
#
# Indices 1 2 3 4 5 6 
#
# 1 37.7282 30.8383 27.8043 0.0000 0.0000 0.0000
# 2 30.8383 117.0177 49.3390 0.0000 0.0000 0.0000
# 3 27.8043 49.3390 84.7160 0.0000 0.0000 0.0000
# 4 0.0000 0.0000 0.0000 31.8071 0.0000 0.0000
# 5 0.0000 0.0000 0.0000 0.0000 31.0705 0.0000
# 6 0.0000 0.0000 0.0000 0.0000 0.0000 14.4279
#
#
#
# Elastic Compliance Matrix: (Units=1/GPa)
#
#
# Indices 1 2 3 4 5 6 
#
# 1 0.038207 -0.006338 -0.008848 0.000000 0.000000 0.000000
# 2 -0.006338 0.012379 -0.005129 0.000000 0.000000 0.000000
# 3 -0.008848 -0.005129 0.017696 0.000000 0.000000 0.000000
# 4 0.000000 0.000000 0.000000 0.031440 0.000000 0.000000
# 5 0.000000 0.000000 0.000000 0.000000 0.032185 0.000000
# 6 0.000000 0.000000 0.000000 0.000000 0.000000 0.069310
#
#
# Mechanical properties :
#
#
# Convention : Reuss Voigt Hill
#
# Bulk Modulus (GPa) = 36.16668 50.60279 43.38474
# Shear Modulus (GPa) = 19.91529 24.22647 22.07088
#
# Velocity S-wave (km/s) = 3.30775 3.64824 3.48216
# Velocity P-wave (km/s) = 5.87007 6.74883 6.32473
#
# Compressibility (1/GPa) = 0.02764976
#
# Stress axis : x y z
#
# Youngs Moduli (GPa) = 26.17327 80.78399 56.51142
#
# Poissons Ratio (x) = 0.51201 0.50004
# Poissons Ratio (y) = 0.16589 0.28986
# Poissons Ratio (z) = 0.23159 0.41436
#
# Static dielectric constant tensor:
#      x y z
#    x 3.324190 0.000000 0.000000 
#    y 0.000000 3.400590 0.000000 
#    z 0.000000 0.000000 3.196580 
# 
# 
# High freq. dielectric constant tensor:
#      x y z
#    x 1.695310 0.000000 0.000000 
#    y 0.000000 1.703320 0.000000 
#    z 0.000000 0.000000 1.696940 
# 
# From -- ./inp_files/6641.got.cif
#   From: 2010.03.12/outbox.cif.g09.slc.cpg/sg66_4_cif.got.tgz:6641.got - 2010.04.10 21:57:39.
