data_PCOD8277588
_publ_section_title
;
Structure prediction by ZEFSAII (Michael W. Deem and Ramdas Pophale) SiO2 
 PCOD8277588
Probable space group: C C C M
;
_chemical_formula_sum "Si O2"
_cell_formula_units_Z 72
_cell_length_a 26.846029
_cell_length_b 9.507464
_cell_length_c 14.507035
_cell_angle_alpha 90.000000
_cell_angle_beta 90.000000
_cell_angle_gamma 90.000000
_cell_volume 3702.741584
_symmetry_space_group_name_H-M "C C C M"
_symmetry_group_IT_number 66
_symmetry_cell_setting 'orthorhombic'
loop_
_space_group_symop_operation_xyz
x,y,z
-x,-y,z
x,-y,1/2-z
-x,y,1/2-z
-x,-y,-z
x,y,-z
-x,y,1/2+z
x,-y,1/2+z
1/2+x,1/2+y,z
1/2-x,1/2-y,z
1/2+x,1/2-y,1/2-z
1/2-x,1/2+y,1/2-z
1/2-x,1/2-y,-z
1/2+x,1/2+y,-z
1/2-x,1/2+y,1/2+z
1/2+x,1/2-y,1/2+z
loop_
_atom_site_type_symbol
_atom_site_label
_atom_site_fract_x
_atom_site_fract_y
_atom_site_fract_z
Si Si1 0.801727 0.927355 0.654226
Si Si2 0.123101 0.005027 0.500000
Si Si3 0.692955 0.115574 0.893539
Si Si4 0.445091 0.776982 0.000000
Si Si5 0.590182 0.998162 0.355870
Si Si6 0.060291 0.275614 0.000000
O O1 0.745883 0.960878 0.618695
O O2 0.809407 0.759895 0.663985
O O3 0.811235 0.000000 0.750000
O O4 0.842012 0.996686 0.588501
O O5 0.090899 0.865850 0.500000
O O6 0.086850 0.137217 0.500000
O O7 0.650311 0.009988 0.859205
O O8 0.684325 0.157440 0.000000
O O9 0.433177 0.864232 0.092462
O O10 0.502571 0.736032 0.000000
O O11 0.571729 0.000000 0.250000
O O12 0.572906 0.138642 0.407311
#
# Coordination Sequence:
#
# PCOD8277588 Si02
#       6
#    16   8  16   8  16   8
#     4  11  22  37  64  93 127 167 207 245 304 376
#     4  12  23  43  64  92 127 167 205 261 315 372
#     4  11  19  42  66  89 126 173 206 242 308 378
#     4  11  23  46  65  87 121 172 206 261 324 367
#     4  11  22  41  66  94 125 164 206 257 313 373
#     4  11  27  40  64  95 122 153 224 268 307 367
#
# _framework density 19.445052
#
# number of rings (size 3 to 8) (size 9 to 14) (size 15 to 20)
#    0.000    0.889    6.667    3.000    3.111    1.778 
#    0.000    1.111    0.000    4.000    0.000    0.000 
#    0.000    0.000    0.000    0.000    0.000    0.000 
#
# Total GULP energy -446544.418041 kJ/mol
# GULP energy per Si atom -12404.011612 kJ/mol
# Density = 1.940079 g / cm^3
# Si number density = 19.445052 Si / 1000 Ang^3
#
#
#
# Elastic Constant Matrix: (Units=GPa)
#
#
# Indices 1 2 3 4 5 6 
#
# 1 152.6077 51.3148 51.4195 0.0000 0.0000 0.0000
# 2 51.3148 105.2135 68.6864 0.0000 0.0000 0.0000
# 3 51.4195 68.6864 173.0305 0.0000 0.0000 0.0000
# 4 0.0000 0.0000 0.0000 10.6058 0.0000 0.0000
# 5 0.0000 0.0000 0.0000 0.0000 8.0404 0.0000
# 6 0.0000 0.0000 0.0000 0.0000 0.0000 34.0858
#
#
#
# Elastic Compliance Matrix: (Units=1/GPa)
#
#
# Indices 1 2 3 4 5 6 
#
# 1 0.007995 -0.003170 -0.001118 0.000000 0.000000 0.000000
# 2 -0.003170 0.014086 -0.004650 0.000000 0.000000 0.000000
# 3 -0.001118 -0.004650 0.007957 0.000000 0.000000 0.000000
# 4 0.000000 0.000000 0.000000 0.094288 0.000000 0.000000
# 5 0.000000 0.000000 0.000000 0.000000 0.124372 0.000000
# 6 0.000000 0.000000 0.000000 0.000000 0.000000 0.029338
#
#
# Mechanical properties :
#
#
# Convention : Reuss Voigt Hill
#
# Bulk Modulus (GPa) = 82.20864 85.96592 84.08728
# Shear Modulus (GPa) = 16.66862 27.84180 22.25521
#
# Velocity S-wave (km/s) = 2.93100 3.78804 3.38674
# Velocity P-wave (km/s) = 7.33645 7.96480 7.65707
#
# Compressibility (1/GPa) = 0.01216417
#
# Stress axis : x y z
#
# Youngs Moduli (GPa) = 125.07542 70.99333 125.67306
#
# Poissons Ratio (x) = 0.22503 0.14046
# Poissons Ratio (y) = 0.39646 0.58432
# Poissons Ratio (z) = 0.13979 0.33009
#
# Static dielectric constant tensor:
#      x y z
#    x 3.843510 0.000000 0.000000 
#    y 0.000000 3.932100 0.000000 
#    z 0.000000 0.000000 3.533720 
# 
# 
# High freq. dielectric constant tensor:
#      x y z
#    x 1.776050 0.000000 0.000000 
#    y 0.000000 1.741650 0.000000 
#    z 0.000000 0.000000 1.758360 
# 
# From -- ./inp_files/24525.got.cif
#   From: 2010.03.12/outbox.cif.g09.slc.cpg/sg66_13_cif.got.tgz:24525.got - 2010.04.10 21:57:39.
