data_PCOD8277097
_publ_section_title
;
Structure prediction by ZEFSAII (Michael W. Deem and Ramdas Pophale) SiO2 
 PCOD8277097
Probable space group: C C C M
;
_chemical_formula_sum "Si O2"
_cell_formula_units_Z 112
_cell_length_a 25.358616
_cell_length_b 14.471527
_cell_length_c 14.179695
_cell_angle_alpha 90.000000
_cell_angle_beta 90.000000
_cell_angle_gamma 90.000000
_cell_volume 5203.634639
_symmetry_space_group_name_H-M "C C C M"
_symmetry_group_IT_number 66
_symmetry_cell_setting 'orthorhombic'
loop_
_space_group_symop_operation_xyz
x,y,z
-x,-y,z
x,-y,1/2-z
-x,y,1/2-z
-x,-y,-z
x,y,-z
-x,y,1/2+z
x,-y,1/2+z
1/2+x,1/2+y,z
1/2-x,1/2-y,z
1/2+x,1/2-y,1/2-z
1/2-x,1/2+y,1/2-z
1/2-x,1/2-y,-z
1/2+x,1/2+y,-z
1/2-x,1/2+y,1/2+z
1/2+x,1/2-y,1/2+z
loop_
_atom_site_type_symbol
_atom_site_label
_atom_site_fract_x
_atom_site_fract_y
_atom_site_fract_z
Si Si1 0.320242 0.161222 0.251024
Si Si2 0.958772 0.073065 0.611114
Si Si3 0.604525 0.920533 0.108722
Si Si4 0.410790 0.130860 0.390959
Si Si5 0.343963 0.503130 0.889131
Si Si6 0.517254 0.777265 0.887651
Si Si7 0.201739 0.133432 0.754138
O O1 0.342594 0.094090 0.169505
O O2 0.356803 0.161117 0.342691
O O3 0.262153 0.128062 0.280518
O O4 0.316744 0.265790 0.213399
O O5 0.966857 0.079550 0.500000
O O6 0.901137 0.036872 0.636359
O O7 0.969996 0.175265 0.652937
O O8 0.000000 0.000000 0.654951
O O9 0.562415 0.846866 0.147796
O O10 0.580038 0.021665 0.124806
O O11 0.619170 0.904020 0.000000
O O12 0.404016 0.155080 0.500000
O O13 0.460806 0.187093 0.348692
O O14 0.302558 0.429564 0.847622
O O15 0.334863 0.598765 0.832915
O O16 0.335574 0.518883 0.000000
O O17 0.516246 0.779663 0.000000
#
# Coordination Sequence:
#
# PCOD8277097 Si02
#       7
#    16  16  16  16  16  16  16
#     4  11  24  42  61  88 129 166 211 270 315 374
#     4   9  18  33  60  94 124 160 204 252 312 379
#     4  10  21  38  63  91 123 166 212 257 317 379
#     4  10  22  37  62  93 126 166 208 254 320 386
#     4  10  22  42  68  91 124 167 211 263 320 376
#     4   9  18  35  58  90 130 161 202 261 310 378
#     4  10  25  43  61  90 126 165 214 269 317 367
#
# _framework density 21.523417999999999
#
# number of rings (size 3 to 8) (size 9 to 14) (size 15 to 20)
#    0.000    2.143    0.000    1.714    6.000    5.714 
#    0.000    5.714    0.000    0.000    0.000    0.000 
#    0.000    0.000    0.000    0.000    0.000    0.000 
#
# Total GULP energy -694437.914121 kJ/mol
# GULP energy per Si atom -12400.677038 kJ/mol
# Density = 2.147443 g / cm^3
# Si number density = 21.523418 Si / 1000 Ang^3
#
#
#
# Elastic Constant Matrix: (Units=GPa)
#
#
# Indices 1 2 3 4 5 6 
#
# 1 134.0647 53.5437 30.7983 0.0000 0.0000 0.0000
# 2 53.5437 110.2124 12.5535 0.0000 0.0000 0.0000
# 3 30.7983 12.5535 67.3007 0.0000 0.0000 0.0000
# 4 0.0000 0.0000 0.0000 23.9755 0.0000 0.0000
# 5 0.0000 0.0000 0.0000 0.0000 32.0271 0.0000
# 6 0.0000 0.0000 0.0000 0.0000 0.0000 38.7648
#
#
#
# Elastic Compliance Matrix: (Units=1/GPa)
#
#
# Indices 1 2 3 4 5 6 
#
# 1 0.010122 -0.004485 -0.003796 0.000000 0.000000 0.000000
# 2 -0.004485 0.011258 -0.000047 0.000000 0.000000 0.000000
# 3 -0.003796 -0.000047 0.016604 0.000000 0.000000 0.000000
# 4 0.000000 0.000000 0.000000 0.041709 0.000000 0.000000
# 5 0.000000 0.000000 0.000000 0.000000 0.031224 0.000000
# 6 0.000000 0.000000 0.000000 0.000000 0.000000 0.025797
#
#
# Mechanical properties :
#
#
# Convention : Reuss Voigt Hill
#
# Bulk Modulus (GPa) = 46.88630 56.15211 51.51920
# Shear Modulus (GPa) = 31.15651 33.26564 32.21107
#
# Velocity S-wave (km/s) = 3.80881 3.93562 3.87274
# Velocity P-wave (km/s) = 6.41669 6.84088 6.63218
#
# Compressibility (1/GPa) = 0.02132819
#
# Stress axis : x y z
#
# Youngs Moduli (GPa) = 98.79044 88.82667 60.22478
#
# Poissons Ratio (x) = 0.39842 0.22859
# Poissons Ratio (y) = 0.44311 0.00285
# Poissons Ratio (z) = 0.37497 0.00420
#
# Static dielectric constant tensor:
#      x y z
#    x 3.952140 0.000000 0.000000 
#    y 0.000000 4.124540 0.000000 
#    z 0.000000 0.000000 3.652730 
# 
# 
# High freq. dielectric constant tensor:
#      x y z
#    x 1.845550 0.000000 0.000000 
#    y 0.000000 1.856990 0.000000 
#    z 0.000000 0.000000 1.835180 
# 
# From -- ./inp_files/32458.got.cif
#   From: 2010.03.12/outbox.cif.g09.slc.cpg/sg66_17_cif.got.tgz:32458.got - 2010.04.10 21:57:39.
