data_PCOD8277086
_publ_section_title
;
Structure prediction by ZEFSAII (Michael W. Deem and Ramdas Pophale) SiO2 
 PCOD8277086
Probable space group: C C C M
;
_chemical_formula_sum "Si O2"
_cell_formula_units_Z 96
_cell_length_a 19.203733
_cell_length_b 15.161133
_cell_length_c 14.144142
_cell_angle_alpha 90.000000
_cell_angle_beta 90.000000
_cell_angle_gamma 90.000000
_cell_volume 4118.071895
_symmetry_space_group_name_H-M "C C C M"
_symmetry_group_IT_number 66
_symmetry_cell_setting 'orthorhombic'
loop_
_space_group_symop_operation_xyz
x,y,z
-x,-y,z
x,-y,1/2-z
-x,y,1/2-z
-x,-y,-z
x,y,-z
-x,y,1/2+z
x,-y,1/2+z
1/2+x,1/2+y,z
1/2-x,1/2-y,z
1/2+x,1/2-y,1/2-z
1/2-x,1/2+y,1/2-z
1/2-x,1/2-y,-z
1/2+x,1/2+y,-z
1/2-x,1/2+y,1/2+z
1/2+x,1/2-y,1/2+z
loop_
_atom_site_type_symbol
_atom_site_label
_atom_site_fract_x
_atom_site_fract_y
_atom_site_fract_z
Si Si1 0.550872 0.420720 0.388381
Si Si2 0.670185 0.171836 0.389745
Si Si3 0.458187 0.269553 0.396989
Si Si4 0.190853 0.178472 0.394354
Si Si5 0.188561 0.863339 0.692081
Si Si6 0.024233 0.407500 0.143457
O O1 0.500000 0.500000 0.358230
O O2 0.564271 0.418573 0.500000
O O3 0.514549 0.332030 0.345052
O O4 0.626807 0.429001 0.340131
O O5 0.668339 0.198193 0.500000
O O6 0.740617 0.117781 0.365974
O O7 0.666360 0.261385 0.328335
O O8 0.606778 0.106224 0.365430
O O9 0.453471 0.313273 0.500000
O O10 0.380065 0.273765 0.358088
O O11 0.484059 0.170420 0.408319
O O12 0.184728 0.132723 0.500000
O O13 0.250000 0.250000 0.402567
O O14 0.205773 0.116144 0.303749
O O15 0.000000 0.500000 0.097019
O O16 0.000000 0.404420 0.250000
#
# Coordination Sequence:
#
# PCOD8277086 Si02
#       6
#    16  16  16  16  16  16
#     4  10  21  39  65 100 140 179 228 283 347 423
#     4  11  21  36  64 102 137 172 222 285 355 413
#     4  10  21  38  62  90 127 177 225 281 341 404
#     4  10  21  38  61  92 127 179 239 285 343 419
#     4  11  20  37  65  99 136 180 225 288 356 412
#     4  11  24  40  63  95 131 176 228 281 332 410
#
# _framework density 23.311881
#
# number of rings (size 3 to 8) (size 9 to 14) (size 15 to 20)
#    0.000    1.500    3.333    3.500    0.000    1.333 
#    0.000    3.333    0.000    5.500    0.000    0.000 
#    0.000    0.000    0.000    0.000    0.000    0.000 
#
# Total GULP energy -594678.567649 kJ/mol
# GULP energy per Si atom -12389.136826 kJ/mol
# Density = 2.325882 g / cm^3
# Si number density = 23.311881 Si / 1000 Ang^3
#
#
#
# Elastic Constant Matrix: (Units=GPa)
#
#
# Indices 1 2 3 4 5 6 
#
# 1 153.5443 20.7779 26.7846 0.0000 0.0000 0.0000
# 2 20.7779 72.4638 7.6094 0.0000 0.0000 0.0000
# 3 26.7846 7.6094 145.5364 0.0000 0.0000 0.0000
# 4 0.0000 0.0000 0.0000 18.6359 0.0000 0.0000
# 5 0.0000 0.0000 0.0000 0.0000 -44.3163 0.0000
# 6 0.0000 0.0000 0.0000 0.0000 0.0000 42.5651
#
#
#
# Elastic Compliance Matrix: (Units=1/GPa)
#
#
# Indices 1 2 3 4 5 6 
#
# 1 0.006973 -0.001875 -0.001185 0.000000 0.000000 0.000000
# 2 -0.001875 0.014380 -0.000407 0.000000 0.000000 0.000000
# 3 -0.001185 -0.000407 0.007111 0.000000 0.000000 0.000000
# 4 0.000000 0.000000 0.000000 0.053660 0.000000 0.000000
# 5 0.000000 0.000000 0.000000 0.000000 -0.022565 0.000000
# 6 0.000000 0.000000 0.000000 0.000000 0.000000 0.023493
#
#
# Mechanical properties :
#
#
# Convention : Reuss Voigt Hill
#
# Bulk Modulus (GPa) = 46.44706 53.54313 49.99510
# Shear Modulus (GPa) = 51.45980 24.46845 37.96412
#
# Velocity S-wave (km/s) = 4.70345 3.24329 4.03988
# Velocity P-wave (km/s) = 7.03307 6.08632 6.57675
#
# Compressibility (1/GPa) = 0.02152989
#
# Stress axis : x y z
#
# Youngs Moduli (GPa) = 143.40450 69.53941 140.63602
#
# Poissons Ratio (x) = 0.13039 0.16670
# Poissons Ratio (y) = 0.26889 0.05721
# Poissons Ratio (z) = 0.16998 0.02829
#
# Static dielectric constant tensor:
#      x y z
#    x 4.529860 0.000000 0.000000 
#    y 0.000000 4.134060 0.000000 
#    z 0.000000 0.000000 4.183640 
# 
# 
# High freq. dielectric constant tensor:
#      x y z
#    x 1.941070 0.000000 0.000000 
#    y 0.000000 1.875420 0.000000 
#    z 0.000000 0.000000 1.938590 
# 
# From -- ./inp_files/31199.got.cif
#   From: 2010.03.12/outbox.cif.g09.slc.cpg/sg66_16_cif.got.tgz:31199.got - 2010.04.10 21:57:39.
