data_PCOD8277480
_publ_section_title
;
Structure prediction by ZEFSAII (Michael W. Deem and Ramdas Pophale) SiO2 
 PCOD8277480
Probable space group: C C C M
;
_chemical_formula_sum "Si O2"
_cell_formula_units_Z 52
_cell_length_a 7.661754
_cell_length_b 19.379513
_cell_length_c 14.743007
_cell_angle_alpha 90.000000
_cell_angle_beta 90.000000
_cell_angle_gamma 90.000000
_cell_volume 2189.057325
_symmetry_space_group_name_H-M "C C C M"
_symmetry_group_IT_number 66
_symmetry_cell_setting 'orthorhombic'
loop_
_space_group_symop_operation_xyz
x,y,z
-x,-y,z
x,-y,1/2-z
-x,y,1/2-z
-x,-y,-z
x,y,-z
-x,y,1/2+z
x,-y,1/2+z
1/2+x,1/2+y,z
1/2-x,1/2-y,z
1/2+x,1/2-y,1/2-z
1/2-x,1/2+y,1/2-z
1/2-x,1/2-y,-z
1/2+x,1/2+y,-z
1/2-x,1/2+y,1/2+z
1/2+x,1/2-y,1/2+z
loop_
_atom_site_type_symbol
_atom_site_label
_atom_site_fract_x
_atom_site_fract_y
_atom_site_fract_z
Si Si1 0.500000 0.500000 0.750000
Si Si2 0.861183 0.902515 0.603214
Si Si3 0.992010 0.578544 0.856279
Si Si4 0.815319 0.179734 0.396723
O O1 0.370353 0.460989 0.681089
O O2 0.913655 0.925865 0.500000
O O3 0.658694 0.879221 0.603482
O O4 0.993478 0.843221 0.638913
O O5 0.000000 0.500000 0.894239
O O6 0.000000 0.580536 0.750000
O O7 0.816009 0.615586 0.888018
O O8 0.841875 0.199789 0.500000
O O9 0.750000 0.250000 0.345754
#
# Coordination Sequence:
#
# PCOD8277480 Si02
#       4
#     4  16  16  16
#     4  12  22  40  66  98 144 162 216 288 330 390
#     4  11  23  40  67  97 132 181 223 270 341 403
#     4  11  23  41  65  96 132 172 223 277 332 398
#     4  10  23  43  63  91 130 169 220 279 332 400
#
# _framework density 23.754515999999999
#
# number of rings (size 3 to 8) (size 9 to 14) (size 15 to 20)
#    0.000    1.231    0.000    6.923    0.000    6.154 
#    8.308    4.615    0.000    0.000    0.000    0.000 
#    0.000    0.000    0.000    0.000    0.000    0.000 
#
# Total GULP energy -322173.410485 kJ/mol
# GULP energy per Si atom -12391.285019 kJ/mol
# Density = 2.370045 g / cm^3
# Si number density = 23.754516 Si / 1000 Ang^3
#
#
#
# Elastic Constant Matrix: (Units=GPa)
#
#
# Indices 1 2 3 4 5 6 
#
# 1 182.5927 62.3282 1.2008 0.0000 0.0000 0.0000
# 2 62.3282 125.8734 11.3550 0.0000 0.0000 0.0000
# 3 1.2008 11.3550 99.9546 0.0000 0.0000 0.0000
# 4 0.0000 0.0000 0.0000 -13.3754 0.0000 0.0000
# 5 0.0000 0.0000 0.0000 0.0000 28.3289 0.0000
# 6 0.0000 0.0000 0.0000 0.0000 0.0000 24.7834
#
#
#
# Elastic Compliance Matrix: (Units=1/GPa)
#
#
# Indices 1 2 3 4 5 6 
#
# 1 0.006599 -0.003294 0.000295 0.000000 0.000000 0.000000
# 2 -0.003294 0.009671 -0.001059 0.000000 0.000000 0.000000
# 3 0.000295 -0.001059 0.010121 0.000000 0.000000 0.000000
# 4 0.000000 0.000000 0.000000 -0.074764 0.000000 0.000000
# 5 0.000000 0.000000 0.000000 0.000000 0.035300 0.000000
# 6 0.000000 0.000000 0.000000 0.000000 0.000000 0.040350
#
#
# Mechanical properties :
#
#
# Convention : Reuss Voigt Hill
#
# Bulk Modulus (GPa) = 54.71983 62.02096 58.37039
# Shear Modulus (GPa) = 120.52309 30.18314 75.35311
#
# Velocity S-wave (km/s) = 7.13071 3.56845 5.63830
# Velocity P-wave (km/s) = 9.53319 6.56843 8.18614
#
# Compressibility (1/GPa) = 0.01827491
#
# Stress axis : x y z
#
# Youngs Moduli (GPa) = 151.53225 103.39897 98.80141
#
# Poissons Ratio (x) = 0.34063 -0.02914
# Poissons Ratio (y) = 0.49920 0.10464
# Poissons Ratio (z) = -0.04470 0.10951
#
# Static dielectric constant tensor:
#      x y z
#    x 4.834600 0.000000 0.000000 
#    y 0.000000 4.489380 0.000000 
#    z 0.000000 0.000000 4.322780 
# 
# 
# High freq. dielectric constant tensor:
#      x y z
#    x 1.963850 0.000000 0.000000 
#    y 0.000000 1.904840 0.000000 
#    z 0.000000 0.000000 1.943450 
# 
# From -- ./inp_files/35981.got.cif
#   From: 2010.03.12/outbox.cif.g09.slc.cpg/sg66_18_cif.got.tgz:35981.got - 2010.04.10 21:57:39.
