data_PCOD8277776
_publ_section_title
;
Structure prediction by ZEFSAII (Michael W. Deem and Ramdas Pophale) SiO2 
 PCOD8277776
Probable space group: C C C M
;
_chemical_formula_sum "Si O2"
_cell_formula_units_Z 104
_cell_length_a 15.630261
_cell_length_b 12.186918
_cell_length_c 26.667250
_cell_angle_alpha 90.000000
_cell_angle_beta 90.000000
_cell_angle_gamma 90.000000
_cell_volume 5079.703359
_symmetry_space_group_name_H-M "C C C M"
_symmetry_group_IT_number 66
_symmetry_cell_setting 'orthorhombic'
loop_
_space_group_symop_operation_xyz
x,y,z
-x,-y,z
x,-y,1/2-z
-x,y,1/2-z
-x,-y,-z
x,y,-z
-x,y,1/2+z
x,-y,1/2+z
1/2+x,1/2+y,z
1/2-x,1/2-y,z
1/2+x,1/2-y,1/2-z
1/2-x,1/2+y,1/2-z
1/2-x,1/2-y,-z
1/2+x,1/2+y,-z
1/2-x,1/2+y,1/2+z
1/2+x,1/2-y,1/2+z
loop_
_atom_site_type_symbol
_atom_site_label
_atom_site_fract_x
_atom_site_fract_y
_atom_site_fract_z
Si Si1 0.822810 0.667291 0.764066
Si Si2 0.999179 0.162302 0.359702
Si Si3 0.122313 0.323110 0.500000
Si Si4 0.192288 0.919117 0.000000
Si Si5 0.637338 0.502903 0.605236
Si Si6 0.050823 0.388143 0.395924
Si Si7 0.000000 0.212160 0.250000
Si Si8 0.199466 0.530259 0.829736
O O1 0.750000 0.750000 0.784483
O O2 0.913745 0.716245 0.747835
O O3 0.844103 0.579615 0.807697
O O4 0.778897 0.611623 0.715789
O O5 0.996421 0.292884 0.368448
O O6 0.995520 0.137565 0.299994
O O7 0.919405 0.105682 0.387264
O O8 0.086025 0.113729 0.382380
O O9 0.141077 0.194305 0.500000
O O10 0.207164 0.396249 0.500000
O O11 0.064903 0.352210 0.452638
O O12 0.168437 0.992158 0.048017
O O13 0.714964 0.494040 0.643081
O O14 0.140845 0.404974 0.368787
O O15 0.000000 0.500000 0.393278
#
# Coordination Sequence:
#
# PCOD8277776 Si02
#       8
#    16  16   8   8  16  16   8  16
#     4  11  24  40  64  95 136 180 225 274 329 411
#     4  11  25  41  68  99 134 175 217 276 336 399
#     4  11  23  41  73  98 126 173 224 282 331 398
#     4  11  22  42  72  99 128 167 224 279 342 398
#     4  11  24  43  67  97 134 169 219 283 340 401
#     4  12  24  43  65  98 131 174 224 278 324 397
#     4  12  22  42  66  94 138 180 223 265 336 404
#     4  11  24  39  65  95 132 175 226 268 338 392
#
# _framework density 20.473637
#
# number of rings (size 3 to 8) (size 9 to 14) (size 15 to 20)
#    0.000    0.769    4.615    3.000    0.000    4.923 
#    0.000    0.000    0.000    0.923    0.000    0.000 
#    0.000    0.000    0.000    0.000    0.000    0.000 
#
# Total GULP energy -644996.790713 kJ/mol
# GULP energy per Si atom -12403.784437 kJ/mol
# Density = 2.042704 g / cm^3
# Si number density = 20.473637 Si / 1000 Ang^3
#
#
#
# Elastic Constant Matrix: (Units=GPa)
#
#
# Indices 1 2 3 4 5 6 
#
# 1 89.9511 36.2373 27.3868 0.0000 0.0000 0.0000
# 2 36.2373 87.8422 13.3788 0.0000 0.0000 0.0000
# 3 27.3868 13.3788 116.5116 0.0000 0.0000 0.0000
# 4 0.0000 0.0000 0.0000 28.5961 0.0000 0.0000
# 5 0.0000 0.0000 0.0000 0.0000 31.2070 0.0000
# 6 0.0000 0.0000 0.0000 0.0000 0.0000 27.2247
#
#
#
# Elastic Compliance Matrix: (Units=1/GPa)
#
#
# Indices 1 2 3 4 5 6 
#
# 1 0.014119 -0.005414 -0.002697 0.000000 0.000000 0.000000
# 2 -0.005414 0.013663 -0.000296 0.000000 0.000000 0.000000
# 3 -0.002697 -0.000296 0.009251 0.000000 0.000000 0.000000
# 4 0.000000 0.000000 0.000000 0.034970 0.000000 0.000000
# 5 0.000000 0.000000 0.000000 0.000000 0.032044 0.000000
# 6 0.000000 0.000000 0.000000 0.000000 0.000000 0.036731
#
#
# Mechanical properties :
#
#
# Convention : Reuss Voigt Hill
#
# Bulk Modulus (GPa) = 49.46058 49.81232 49.63645
# Shear Modulus (GPa) = 30.42624 31.89236 31.15930
#
# Velocity S-wave (km/s) = 3.85920 3.95109 3.90542
# Velocity P-wave (km/s) = 6.63841 6.72292 6.68080
#
# Compressibility (1/GPa) = 0.02021812
#
# Stress axis : x y z
#
# Youngs Moduli (GPa) = 70.82490 73.19288 108.09819
#
# Poissons Ratio (x) = 0.39625 0.29156
# Poissons Ratio (y) = 0.38343 0.03203
# Poissons Ratio (z) = 0.19103 0.02169
#
# Static dielectric constant tensor:
#      x y z
#    x 3.593100 0.000000 0.000000 
#    y 0.000000 3.665960 0.000000 
#    z 0.000000 0.000000 3.895610 
# 
# 
# High freq. dielectric constant tensor:
#      x y z
#    x 1.801150 0.000000 0.000000 
#    y 0.000000 1.798080 0.000000 
#    z 0.000000 0.000000 1.814650 
# 
# From -- ./inp_files/65313.got.cif
#   From: 2010.03.12/outbox.cif.g09.slc.cpg/sg66_33_cif.got.tgz:65313.got - 2010.04.10 21:57:39.
