data_PCOD8277042
_publ_section_title
;
Structure prediction by ZEFSAII (Michael W. Deem and Ramdas Pophale) SiO2 
 PCOD8277042
Probable space group: C C C M
;
_chemical_formula_sum "Si O2"
_cell_formula_units_Z 56
_cell_length_a 15.132084
_cell_length_b 16.108494
_cell_length_c 9.958017
_cell_angle_alpha 90.000000
_cell_angle_beta 90.000000
_cell_angle_gamma 90.000000
_cell_volume 2427.317274
_symmetry_space_group_name_H-M "C C C M"
_symmetry_group_IT_number 66
_symmetry_cell_setting 'orthorhombic'
loop_
_space_group_symop_operation_xyz
x,y,z
-x,-y,z
x,-y,1/2-z
-x,y,1/2-z
-x,-y,-z
x,y,-z
-x,y,1/2+z
x,-y,1/2+z
1/2+x,1/2+y,z
1/2-x,1/2-y,z
1/2+x,1/2-y,1/2-z
1/2-x,1/2+y,1/2-z
1/2-x,1/2-y,-z
1/2+x,1/2+y,-z
1/2-x,1/2+y,1/2+z
1/2+x,1/2-y,1/2+z
loop_
_atom_site_type_symbol
_atom_site_label
_atom_site_fract_x
_atom_site_fract_y
_atom_site_fract_z
Si Si1 0.714667 0.013725 0.500000
Si Si2 0.624822 0.566382 0.851196
Si Si3 0.150793 0.751316 0.277256
Si Si4 0.433065 0.857217 0.500000
Si Si5 0.366142 0.838811 0.000000
O O1 0.703161 0.914438 0.500000
O O2 0.770943 0.042298 0.630903
O O3 0.619125 0.056354 0.500000
O O4 0.580194 0.500000 0.750000
O O5 0.613138 0.655661 0.783042
O O6 0.579301 0.564736 0.000000
O O7 0.250000 0.750000 0.337207
O O8 0.088471 0.694381 0.367062
O O9 0.150775 0.719898 0.126024
O O10 0.536284 0.877724 0.500000
#
# Coordination Sequence:
#
# PCOD8277042 Si02
#       5
#     8  16  16   8   8
#     4  10  22  41  61  99 138 177 220 253 340 396
#     4  10  21  37  66  98 124 171 231 276 317 377
#     4  12  22  44  65  96 130 186 228 269 323 399
#     4  12  23  43  65  96 141 187 210 267 347 406
#     4  12  28  37  67 104 142 169 219 282 337 401
#
# _framework density 23.070739
#
# number of rings (size 3 to 8) (size 9 to 14) (size 15 to 20)
#    0.857    0.000    4.286    3.857    2.000    0.000 
#    0.000    2.857    0.000    5.143    0.000    0.000 
#    0.000    0.000    0.000    0.000    0.000    0.000 
#
# Total GULP energy -347219.861575 kJ/mol
# GULP energy per Si atom -12400.709342 kJ/mol
# Density = 2.301823 g / cm^3
# Si number density = 23.070739 Si / 1000 Ang^3
#
#
#
# Elastic Constant Matrix: (Units=GPa)
#
#
# Indices 1 2 3 4 5 6 
#
# 1 53.2831 -13.1754 -3.7457 0.0000 0.0000 0.0000
# 2 -13.1754 165.5374 79.7868 0.0000 0.0000 0.0000
# 3 -3.7457 79.7868 143.7430 0.0000 0.0000 0.0000
# 4 0.0000 0.0000 0.0000 30.5847 0.0000 0.0000
# 5 0.0000 0.0000 0.0000 0.0000 -28.9893 0.0000
# 6 0.0000 0.0000 0.0000 0.0000 0.0000 20.0722
#
#
#
# Elastic Compliance Matrix: (Units=1/GPa)
#
#
# Indices 1 2 3 4 5 6 
#
# 1 0.019168 0.001754 -0.000474 0.000000 0.000000 0.000000
# 2 0.001754 0.008408 -0.004621 0.000000 0.000000 0.000000
# 3 -0.000474 -0.004621 0.009510 0.000000 0.000000 0.000000
# 4 0.000000 0.000000 0.000000 0.032696 0.000000 0.000000
# 5 0.000000 0.000000 0.000000 0.000000 -0.034495 0.000000
# 6 0.000000 0.000000 0.000000 0.000000 0.000000 0.049820
#
#
# Mechanical properties :
#
#
# Convention : Reuss Voigt Hill
#
# Bulk Modulus (GPa) = 32.89137 54.25501 43.57319
# Shear Modulus (GPa) = 49.05651 24.31337 36.68494
#
# Velocity S-wave (km/s) = 4.61624 3.24985 3.99194
# Velocity P-wave (km/s) = 6.53457 6.13595 6.33839
#
# Compressibility (1/GPa) = 0.03040312
#
# Stress axis : x y z
#
# Youngs Moduli (GPa) = 52.16997 118.93543 105.15697
#
# Poissons Ratio (x) = -0.20863 0.04986
# Poissons Ratio (y) = -0.09152 0.48596
# Poissons Ratio (z) = 0.02474 0.54963
#
# Static dielectric constant tensor:
#      x y z
#    x 3.914780 0.000000 0.000000 
#    y 0.000000 3.984200 0.000000 
#    z 0.000000 0.000000 4.101250 
# 
# 
# High freq. dielectric constant tensor:
#      x y z
#    x 1.894570 0.000000 0.000000 
#    y 0.000000 1.918210 0.000000 
#    z 0.000000 0.000000 1.915620 
# 
# From -- ./inp_files/6040.got.cif
#   From: 2010.03.12/outbox.cif.g09.slc.cpg/sg66_4_cif.got.tgz:6040.got - 2010.04.10 21:57:39.
