data_PCOD8277244
_publ_section_title
;
Structure prediction by ZEFSAII (Michael W. Deem and Ramdas Pophale) SiO2 
 PCOD8277244
Probable space group: C C C M
;
_chemical_formula_sum "Si O2"
_cell_formula_units_Z 68
_cell_length_a 12.630330
_cell_length_b 26.961242
_cell_length_c 9.795222
_cell_angle_alpha 90.000000
_cell_angle_beta 90.000000
_cell_angle_gamma 90.000000
_cell_volume 3335.560911
_symmetry_space_group_name_H-M "C C C M"
_symmetry_group_IT_number 66
_symmetry_cell_setting 'orthorhombic'
loop_
_space_group_symop_operation_xyz
x,y,z
-x,-y,z
x,-y,1/2-z
-x,y,1/2-z
-x,-y,-z
x,y,-z
-x,y,1/2+z
x,-y,1/2+z
1/2+x,1/2+y,z
1/2-x,1/2-y,z
1/2+x,1/2-y,1/2-z
1/2-x,1/2+y,1/2-z
1/2-x,1/2-y,-z
1/2+x,1/2+y,-z
1/2-x,1/2+y,1/2+z
1/2+x,1/2-y,1/2+z
loop_
_atom_site_type_symbol
_atom_site_label
_atom_site_fract_x
_atom_site_fract_y
_atom_site_fract_z
Si Si1 0.632664 0.960517 0.000000
Si Si2 0.602523 0.144187 0.000000
Si Si3 0.000000 0.500000 0.750000
Si Si4 0.092779 0.881963 0.849406
Si Si5 0.247867 0.057518 0.500000
Si Si6 0.352176 0.849898 0.500000
Si Si7 0.736212 0.192315 0.770074
O O1 0.568374 0.966246 0.855875
O O2 0.688142 0.906795 0.000000
O O3 0.729176 0.999532 0.000000
O O4 0.639181 0.086376 0.000000
O O5 0.477905 0.146685 0.000000
O O6 0.647611 0.171576 0.130424
O O7 0.149528 0.833050 0.791560
O O8 0.000000 0.899827 0.750000
O O9 0.045742 0.869366 0.000000
O O10 0.180107 0.926196 0.865543
O O11 0.307280 0.818264 0.622192
O O12 0.750000 0.250000 0.796166
#
# Coordination Sequence:
#
# PCOD8277244 Si02
#       7
#     8   8   4  16   8   8  16
#     4  11  24  39  66  95 142 166 212 253 328 401
#     4  10  21  42  66  95 133 178 210 266 332 394
#     4  10  24  38  64 102 130 178 212 246 328 422
#     4   9  21  40  68  93 125 170 226 274 320 377
#     4   8  20  41  62  95 129 165 213 261 329 385
#     4  12  27  37  68 102 137 171 214 270 324 411
#     4  11  24  44  62  96 136 173 224 274 331 390
#
# _framework density 20.386375999999998
#
# number of rings (size 3 to 8) (size 9 to 14) (size 15 to 20)
#    0.706    1.176    1.176    2.824   11.529    1.882 
#    0.000    0.000    0.000    4.235    0.000    0.000 
#    0.000    0.000    0.000    0.000    0.000    0.000 
#
# Total GULP energy -421386.733002 kJ/mol
# GULP energy per Si atom -12393.727441 kJ/mol
# Density = 2.033998 g / cm^3
# Si number density = 20.386376 Si / 1000 Ang^3
#
#
#
# Elastic Constant Matrix: (Units=GPa)
#
#
# Indices 1 2 3 4 5 6 
#
# 1 90.7149 23.3608 36.9059 0.0000 0.0000 0.0000
# 2 23.3608 82.0243 -9.2266 0.0000 0.0000 0.0000
# 3 36.9059 -9.2266 120.2245 0.0000 0.0000 0.0000
# 4 0.0000 0.0000 0.0000 37.5547 0.0000 0.0000
# 5 0.0000 0.0000 0.0000 0.0000 33.1570 0.0000
# 6 0.0000 0.0000 0.0000 0.0000 0.0000 19.8480
#
#
#
# Elastic Compliance Matrix: (Units=1/GPa)
#
#
# Indices 1 2 3 4 5 6 
#
# 1 0.014095 -0.004540 -0.004675 0.000000 0.000000 0.000000
# 2 -0.004540 0.013760 0.002450 0.000000 0.000000 0.000000
# 3 -0.004675 0.002450 0.009941 0.000000 0.000000 0.000000
# 4 0.000000 0.000000 0.000000 0.026628 0.000000 0.000000
# 5 0.000000 0.000000 0.000000 0.000000 0.030160 0.000000
# 6 0.000000 0.000000 0.000000 0.000000 0.000000 0.050383
#
#
# Mechanical properties :
#
#
# Convention : Reuss Voigt Hill
#
# Bulk Modulus (GPa) = 41.21221 43.89377 42.55299
# Shear Modulus (GPa) = 30.01463 34.24017 32.12740
#
# Velocity S-wave (km/s) = 3.84120 4.10269 3.97410
# Velocity P-wave (km/s) = 6.31922 6.63479 6.47893
#
# Compressibility (1/GPa) = 0.02426466
#
# Stress axis : x y z
#
# Youngs Moduli (GPa) = 70.94855 72.67383 100.59417
#
# Poissons Ratio (x) = 0.32995 0.47029
# Poissons Ratio (y) = 0.32212 -0.24643
# Poissons Ratio (z) = 0.33170 -0.17803
#
# Static dielectric constant tensor:
#      x y z
#    x 3.522770 0.000000 0.000000 
#    y 0.000000 3.570190 0.000000 
#    z 0.000000 0.000000 3.859640 
# 
# 
# High freq. dielectric constant tensor:
#      x y z
#    x 1.785140 0.000000 0.000000 
#    y 0.000000 1.785310 0.000000 
#    z 0.000000 0.000000 1.812110 
# 
# From -- ./inp_files/5315.got.cif
#   From: 2010.03.12/outbox.cif.g09.slc.cpg/sg66_3_cif.got.tgz:5315.got - 2010.04.10 21:57:39.
