data_PCOD8277540
_publ_section_title
;
Structure prediction by ZEFSAII (Michael W. Deem and Ramdas Pophale) SiO2 
 PCOD8277540
Probable space group: C C C M
;
_chemical_formula_sum "Si O2"
_cell_formula_units_Z 48
_cell_length_a 13.699481
_cell_length_b 5.660356
_cell_length_c 25.825618
_cell_angle_alpha 90.000000
_cell_angle_beta 90.000000
_cell_angle_gamma 90.000000
_cell_volume 2002.620159
_symmetry_space_group_name_H-M "C C C M"
_symmetry_group_IT_number 66
_symmetry_cell_setting 'orthorhombic'
loop_
_space_group_symop_operation_xyz
x,y,z
-x,-y,z
x,-y,1/2-z
-x,y,1/2-z
-x,-y,-z
x,y,-z
-x,y,1/2+z
x,-y,1/2+z
1/2+x,1/2+y,z
1/2-x,1/2-y,z
1/2+x,1/2-y,1/2-z
1/2-x,1/2+y,1/2-z
1/2-x,1/2-y,-z
1/2+x,1/2+y,-z
1/2-x,1/2+y,1/2+z
1/2+x,1/2-y,1/2+z
loop_
_atom_site_type_symbol
_atom_site_label
_atom_site_fract_x
_atom_site_fract_y
_atom_site_fract_z
Si Si1 0.143636 0.327064 0.293623
Si Si2 0.690973 0.999383 0.000000
Si Si3 0.500000 0.500000 0.656268
Si Si4 0.643568 0.138116 0.392914
O O1 0.098798 0.500000 0.250000
O O2 0.250000 0.250000 0.274035
O O3 0.145903 0.442356 0.349518
O O4 0.076156 0.102471 0.302289
O O5 0.750000 0.750000 0.000000
O O6 0.624800 0.991483 0.948078
O O7 0.750000 0.250000 0.000000
O O8 0.444448 0.681493 0.618411
O O9 0.750000 0.250000 0.393208
#
# Coordination Sequence:
#
# PCOD8277540 Si02
#       4
#    16   8   8  16
#     4  12  27  50  76 108 152 202 254 324 391 474
#     4  10  24  45  83 115 157 213 262 326 393 467
#     4  12  28  48  76 110 152 199 260 321 402 468
#     4  11  24  48  77 111 155 200 259 321 389 473
#
# _framework density 23.968599999999999
#
# number of rings (size 3 to 8) (size 9 to 14) (size 15 to 20)
#    0.000    0.667    3.333    3.000    4.667    4.667 
#    0.000    3.333    0.000    0.000    0.000    0.000 
#    0.000    0.000    0.000    0.000    0.000    0.000 
#
# Total GULP energy -297507.459386 kJ/mol
# GULP energy per Si atom -12396.144141 kJ/mol
# Density = 2.391405 g / cm^3
# Si number density = 23.968600 Si / 1000 Ang^3
#
#
#
# Elastic Constant Matrix: (Units=GPa)
#
#
# Indices 1 2 3 4 5 6 
#
# 1 125.5214 34.0627 21.7852 0.0000 0.0000 0.0000
# 2 34.0627 121.1892 42.6792 0.0000 0.0000 0.0000
# 3 21.7852 42.6792 185.2975 0.0000 0.0000 0.0000
# 4 0.0000 0.0000 0.0000 56.4657 0.0000 0.0000
# 5 0.0000 0.0000 0.0000 0.0000-1058.2513 0.0000
# 6 0.0000 0.0000 0.0000 0.0000 0.0000 24.4444
#
#
#
# Elastic Compliance Matrix: (Units=1/GPa)
#
#
# Indices 1 2 3 4 5 6 
#
# 1 0.008667 -0.002260 -0.000498 0.000000 0.000000 0.000000
# 2 -0.002260 0.009570 -0.001938 0.000000 0.000000 0.000000
# 3 -0.000498 -0.001938 0.005902 0.000000 0.000000 0.000000
# 4 0.000000 0.000000 0.000000 0.017710 0.000000 0.000000
# 5 0.000000 0.000000 0.000000 0.000000 -0.000945 0.000000
# 6 0.000000 0.000000 0.000000 0.000000 0.000000 0.040909
#
#
# Mechanical properties :
#
#
# Convention : Reuss Voigt Hill
#
# Bulk Modulus (GPa) = 67.82535 69.89580 68.86058
# Shear Modulus (GPa) = 52.01784 -173.23617 -60.60916
#
# Velocity S-wave (km/s) = 4.66365 -8.51077 -5.03406
# Velocity P-wave (km/s) = 7.57354 8.20688 2.23544
#
# Compressibility (1/GPa) = 0.01474375
#
# Stress axis : x y z
#
# Youngs Moduli (GPa) = 115.38454 104.49814 169.44070
#
# Poissons Ratio (x) = 0.23621 0.08443
# Poissons Ratio (y) = 0.26082 0.32844
# Poissons Ratio (z) = 0.05749 0.20256
#
# Static dielectric constant tensor:
#      x y z
#    x 4.074060 0.000000 0.000000 
#    y 0.000000 4.567200 0.000000 
#    z 0.000000 0.000000 5.052190 
# 
# 
# High freq. dielectric constant tensor:
#      x y z
#    x 1.947960 0.000000 0.000000 
#    y 0.000000 1.960680 0.000000 
#    z 0.000000 0.000000 1.972940 
# 
# From -- ./inp_files/64122.got.cif
#   From: 2010.03.12/outbox.cif.g09.slc.cpg/sg66_33_cif.got.tgz:64122.got - 2010.04.10 21:57:39.
