data_PCOD8277122
_publ_section_title
;
Structure prediction by ZEFSAII (Michael W. Deem and Ramdas Pophale) SiO2 
 PCOD8277122
Probable space group: C C C M
;
_chemical_formula_sum "Si O2"
_cell_formula_units_Z 88
_cell_length_a 25.552142
_cell_length_b 11.084003
_cell_length_c 14.627696
_cell_angle_alpha 90.000000
_cell_angle_beta 90.000000
_cell_angle_gamma 90.000000
_cell_volume 4142.856333
_symmetry_space_group_name_H-M "C C C M"
_symmetry_group_IT_number 66
_symmetry_cell_setting 'orthorhombic'
loop_
_space_group_symop_operation_xyz
x,y,z
-x,-y,z
x,-y,1/2-z
-x,y,1/2-z
-x,-y,-z
x,y,-z
-x,y,1/2+z
x,-y,1/2+z
1/2+x,1/2+y,z
1/2-x,1/2-y,z
1/2+x,1/2-y,1/2-z
1/2-x,1/2+y,1/2-z
1/2-x,1/2-y,-z
1/2+x,1/2+y,-z
1/2-x,1/2+y,1/2+z
1/2+x,1/2-y,1/2+z
loop_
_atom_site_type_symbol
_atom_site_label
_atom_site_fract_x
_atom_site_fract_y
_atom_site_fract_z
Si Si1 0.048956 0.202412 0.000000
Si Si2 0.101482 0.543201 0.500000
Si Si3 0.430520 0.767409 0.000000
Si Si4 0.855781 0.769309 0.658911
Si Si5 0.820715 0.512223 0.350950
Si Si6 0.392578 0.389118 0.821991
Si Si7 0.795092 0.992508 0.605631
O O1 0.063605 0.343362 0.000000
O O2 0.066564 0.134718 0.905368
O O3 0.986834 0.206475 0.000000
O O4 0.070155 0.415091 0.500000
O O5 0.139114 0.559366 0.413451
O O6 0.402160 0.710264 0.912718
O O7 0.823140 0.653746 0.627058
O O8 0.884051 0.769630 0.758880
O O9 0.813126 0.875262 0.661136
O O10 0.842363 0.500000 0.250000
O O11 0.761863 0.463099 0.361467
O O12 0.407395 0.500000 0.750000
O O13 0.337288 0.405040 0.873619
O O14 0.792477 0.959962 0.500000
#
# Coordination Sequence:
#
# PCOD8277122 Si02
#       7
#     8   8   8  16  16  16  16
#     4  12  23  44  66  84 125 164 199 261 316 345
#     4  10  23  40  62  94 122 157 204 250 301 363
#     4  10  23  40  66  92 116 153 208 257 301 364
#     4  10  21  39  61  87 120 157 204 249 303 366
#     4  11  21  36  60  90 123 160 199 245 299 369
#     4  10  23  41  62  89 125 163 205 253 304 366
#     4  11  20  37  59  87 123 159 199 244 302 366
#
# _framework density 21.241384
#
# number of rings (size 3 to 8) (size 9 to 14) (size 15 to 20)
#    0.000    1.455    2.727    3.545    0.000    1.455 
#    0.000   13.636    0.000    3.273    0.000    0.000 
#    0.000    0.000    0.000    0.000    0.000    0.000 
#
# Total GULP energy -545214.009494 kJ/mol
# GULP energy per Si atom -12391.227489 kJ/mol
# Density = 2.119304 g / cm^3
# Si number density = 21.241384 Si / 1000 Ang^3
#
#
#
# Elastic Constant Matrix: (Units=GPa)
#
#
# Indices 1 2 3 4 5 6 
#
# 1 109.8952 2.9444 31.1990 0.0000 0.0000 0.0000
# 2 2.9444 28.0812 -1.8667 0.0000 0.0000 0.0000
# 3 31.1990 -1.8667 138.9823 0.0000 0.0000 0.0000
# 4 0.0000 0.0000 0.0000 28.3744 0.0000 0.0000
# 5 0.0000 0.0000 0.0000 0.0000 -9.1551 0.0000
# 6 0.0000 0.0000 0.0000 0.0000 0.0000 25.9217
#
#
#
# Elastic Compliance Matrix: (Units=1/GPa)
#
#
# Indices 1 2 3 4 5 6 
#
# 1 0.009757 -0.001170 -0.002206 0.000000 0.000000 0.000000
# 2 -0.001170 0.035783 0.000743 0.000000 0.000000 0.000000
# 3 -0.002206 0.000743 0.007700 0.000000 0.000000 0.000000
# 4 0.000000 0.000000 0.000000 0.035243 0.000000 0.000000
# 5 0.000000 0.000000 0.000000 0.000000 -0.109229 0.000000
# 6 0.000000 0.000000 0.000000 0.000000 0.000000 0.038578
#
#
# Mechanical properties :
#
#
# Convention : Reuss Voigt Hill
#
# Bulk Modulus (GPa) = 20.84394 37.94578 29.39486
# Shear Modulus (GPa) = 127.91105 25.34033 76.62569
#
# Velocity S-wave (km/s) = 7.76843 3.45769 6.01266
# Velocity P-wave (km/s) = 9.50258 5.81753 7.87853
#
# Compressibility (1/GPa) = 0.04797557
#
# Stress axis : x y z
#
# Youngs Moduli (GPa) = 102.48839 27.94614 129.86417
#
# Poissons Ratio (x) = 0.03269 0.28648
# Poissons Ratio (y) = 0.11988 -0.09651
# Poissons Ratio (z) = 0.22609 -0.02077
#
# Static dielectric constant tensor:
#      x y z
#    x 3.639270 0.000000 0.000000 
#    y 0.000000 3.769450 0.000000 
#    z 0.000000 0.000000 4.356840 
# 
# 
# High freq. dielectric constant tensor:
#      x y z
#    x 1.816140 0.000000 0.000000 
#    y 0.000000 1.818500 0.000000 
#    z 0.000000 0.000000 1.857990 
# 
# From -- ./inp_files/26565.got.cif
#   From: 2010.03.12/outbox.cif.g09.slc.cpg/sg66_14_cif.got.tgz:26565.got - 2010.04.10 21:57:39.
