data_PCOD8277171
_publ_section_title
;
Structure prediction by ZEFSAII (Michael W. Deem and Ramdas Pophale) SiO2 
 PCOD8277171
Probable space group: C C C M
;
_chemical_formula_sum "Si O2"
_cell_formula_units_Z 56
_cell_length_a 15.423765
_cell_length_b 9.041239
_cell_length_c 20.138475
_cell_angle_alpha 90.000000
_cell_angle_beta 90.000000
_cell_angle_gamma 90.000000
_cell_volume 2808.309244
_symmetry_space_group_name_H-M "C C C M"
_symmetry_group_IT_number 66
_symmetry_cell_setting 'orthorhombic'
loop_
_space_group_symop_operation_xyz
x,y,z
-x,-y,z
x,-y,1/2-z
-x,y,1/2-z
-x,-y,-z
x,y,-z
-x,y,1/2+z
x,-y,1/2+z
1/2+x,1/2+y,z
1/2-x,1/2-y,z
1/2+x,1/2-y,1/2-z
1/2-x,1/2+y,1/2-z
1/2-x,1/2-y,-z
1/2+x,1/2+y,-z
1/2-x,1/2+y,1/2+z
1/2+x,1/2-y,1/2+z
loop_
_atom_site_type_symbol
_atom_site_label
_atom_site_fract_x
_atom_site_fract_y
_atom_site_fract_z
Si Si1 0.414637 0.408775 0.379389
Si Si2 0.841713 0.000000 0.750000
Si Si3 0.255032 0.414142 0.125111
Si Si4 0.411295 0.074742 0.422977
O O1 0.500000 0.500000 0.398446
O O2 0.402097 0.399950 0.298876
O O3 0.331680 0.493802 0.411582
O O4 0.419588 0.247822 0.410084
O O5 0.780323 0.898563 0.796690
O O6 0.250000 0.250000 0.094000
O O7 0.165551 0.501987 0.118936
O O8 0.393068 0.044081 0.500000
O O9 0.500000 0.000000 0.399218
#
# Coordination Sequence:
#
# PCOD8277171 Si02
#       4
#    16   8  16  16
#     4  10  21  39  66  91 128 162 203 252 316 363
#     4   8  23  36  65  92 134 152 205 256 299 396
#     4  10  22  38  65  91 128 162 202 254 316 360
#     4  11  25  44  63  90 124 166 218 257 300 366
#
# _framework density 19.940823999999999
#
# number of rings (size 3 to 8) (size 9 to 14) (size 15 to 20)
#    1.714    0.286    0.000    3.000    4.000    3.429 
#    0.000    0.714    0.000    0.000    0.000    0.000 
#    0.000    0.000    0.000    0.000    0.000    0.000 
#
# Total GULP energy -346954.998870 kJ/mol
# GULP energy per Si atom -12391.249960 kJ/mol
# Density = 1.989544 g / cm^3
# Si number density = 19.940824 Si / 1000 Ang^3
#
#
#
# Elastic Constant Matrix: (Units=GPa)
#
#
# Indices 1 2 3 4 5 6 
#
# 1 163.6606 74.6164 7.8800 0.0000 0.0000 0.0000
# 2 74.6164 161.2449 -3.0176 0.0000 0.0000 0.0000
# 3 7.8800 -3.0176 23.3721 0.0000 0.0000 0.0000
# 4 0.0000 0.0000 0.0000 18.9641 0.0000 0.0000
# 5 0.0000 0.0000 0.0000 0.0000 14.7805 0.0000
# 6 0.0000 0.0000 0.0000 0.0000 0.0000 41.9732
#
#
#
# Elastic Compliance Matrix: (Units=1/GPa)
#
#
# Indices 1 2 3 4 5 6 
#
# 1 0.007972 -0.003748 -0.003172 0.000000 0.000000 0.000000
# 2 -0.003748 0.007979 0.002294 0.000000 0.000000 0.000000
# 3 -0.003172 0.002294 0.044152 0.000000 0.000000 0.000000
# 4 0.000000 0.000000 0.000000 0.052731 0.000000 0.000000
# 5 0.000000 0.000000 0.000000 0.000000 0.067657 0.000000
# 6 0.000000 0.000000 0.000000 0.000000 0.000000 0.023825
#
#
# Mechanical properties :
#
#
# Convention : Reuss Voigt Hill
#
# Bulk Modulus (GPa) = 19.66550 56.35948 38.01249
# Shear Modulus (GPa) = 21.69029 33.06347 27.37688
#
# Velocity S-wave (km/s) = 3.30166 4.07637 3.70929
# Velocity P-wave (km/s) = 4.94145 7.10496 6.11957
#
# Compressibility (1/GPa) = 0.05085047
#
# Stress axis : x y z
#
# Youngs Moduli (GPa) = 125.44104 125.32528 22.64927
#
# Poissons Ratio (x) = 0.46976 0.07184
# Poissons Ratio (y) = 0.47020 -0.05196
# Poissons Ratio (z) = 0.39786 -0.28749
#
# Static dielectric constant tensor:
#      x y z
#    x 3.692910 0.000000 0.000000 
#    y 0.000000 3.491650 0.000000 
#    z 0.000000 0.000000 3.355480 
# 
# 
# High freq. dielectric constant tensor:
#      x y z
#    x 1.791770 0.000000 0.000000 
#    y 0.000000 1.774510 0.000000 
#    z 0.000000 0.000000 1.756610 
# 
# From -- ./inp_files/41074.got.cif
#   From: 2010.03.12/outbox.cif.g09.slc.cpg/sg66_21_cif.got.tgz:41074.got - 2010.04.10 21:57:39.
