data_PCOD8277571
_publ_section_title
;
Structure prediction by ZEFSAII (Michael W. Deem and Ramdas Pophale) SiO2 
 PCOD8277571
Probable space group: C C C M
;
_chemical_formula_sum "Si O2"
_cell_formula_units_Z 96
_cell_length_a 28.561216
_cell_length_b 26.501722
_cell_length_c 8.676868
_cell_angle_alpha 90.000000
_cell_angle_beta 90.000000
_cell_angle_gamma 90.000000
_cell_volume 6567.707130
_symmetry_space_group_name_H-M "C C C M"
_symmetry_group_IT_number 66
_symmetry_cell_setting 'orthorhombic'
loop_
_space_group_symop_operation_xyz
x,y,z
-x,-y,z
x,-y,1/2-z
-x,y,1/2-z
-x,-y,-z
x,y,-z
-x,y,1/2+z
x,-y,1/2+z
1/2+x,1/2+y,z
1/2-x,1/2-y,z
1/2+x,1/2-y,1/2-z
1/2-x,1/2+y,1/2-z
1/2-x,1/2-y,-z
1/2+x,1/2+y,-z
1/2-x,1/2+y,1/2+z
1/2+x,1/2-y,1/2+z
loop_
_atom_site_type_symbol
_atom_site_label
_atom_site_fract_x
_atom_site_fract_y
_atom_site_fract_z
Si Si1 0.639266 0.757309 0.321657
Si Si2 0.217369 0.798769 0.670375
Si Si3 0.692786 0.849431 0.819913
Si Si4 0.548992 0.897663 0.682882
Si Si5 0.548578 0.787965 0.818311
Si Si6 0.137512 0.552018 0.319016
O O1 0.627292 0.756428 0.500000
O O2 0.673462 0.710150 0.283044
O O3 0.662708 0.810459 0.279305
O O4 0.590712 0.750662 0.228691
O O5 0.197026 0.808983 0.500000
O O6 0.250000 0.750000 0.669178
O O7 0.251712 0.844645 0.722761
O O8 0.676397 0.905762 0.781355
O O9 0.685083 0.835855 0.000000
O O10 0.500000 0.917913 0.750000
O O11 0.546050 0.894327 0.500000
O O12 0.560485 0.842765 0.750305
O O13 0.588950 0.936103 0.734367
O O14 0.500000 0.766813 0.750000
O O15 0.544053 0.792366 0.000000
O O16 0.157332 0.500000 0.250000
O O17 0.128248 0.547551 0.500000
#
# Coordination Sequence:
#
# PCOD8277571 Si02
#       6
#    16  16  16  16  16  16
#     4  11  19  27  43  66  87 108 135 168 206 247
#     4   8  15  28  44  62  82 107 134 163 204 249
#     4   9  18  32  47  60  81 109 136 169 211 254
#     4  11  21  34  49  64  79 102 135 175 219 263
#     4  11  20  31  45  62  84 111 140 172 209 251
#     4  11  22  35  49  64  82 107 138 176 218 261
#
# _framework density 14.616974000000001
#
# number of rings (size 3 to 8) (size 9 to 14) (size 15 to 20)
#    0.000    1.833    1.667    7.000    0.000    4.000 
#    0.000    1.667    0.000    0.000    0.000    0.000 
#    0.000    0.000    0.000    0.000    0.000    0.833 
#
# Total GULP energy -595127.527717 kJ/mol
# GULP energy per Si atom -12398.490161 kJ/mol
# Density = 1.458370 g / cm^3
# Si number density = 14.616974 Si / 1000 Ang^3
#
#
#
# Elastic Constant Matrix: (Units=GPa)
#
#
# Indices 1 2 3 4 5 6 
#
# 1 94.5218 48.3793 40.8276 0.0000 0.0000 0.0000
# 2 48.3793 51.4470 25.8725 0.0000 0.0000 0.0000
# 3 40.8276 25.8725 108.8389 0.0000 0.0000 0.0000
# 4 0.0000 0.0000 0.0000 11.9393 0.0000 0.0000
# 5 0.0000 0.0000 0.0000 0.0000 21.2507 0.0000
# 6 0.0000 0.0000 0.0000 0.0000 0.0000 16.9123
#
#
#
# Elastic Compliance Matrix: (Units=1/GPa)
#
#
# Indices 1 2 3 4 5 6 
#
# 1 0.021651 -0.018486 -0.003727 0.000000 0.000000 0.000000
# 2 -0.018486 0.037860 -0.002065 0.000000 0.000000 0.000000
# 3 -0.003727 -0.002065 0.011077 0.000000 0.000000 0.000000
# 4 0.000000 0.000000 0.000000 0.083757 0.000000 0.000000
# 5 0.000000 0.000000 0.000000 0.000000 0.047057 0.000000
# 6 0.000000 0.000000 0.000000 0.000000 0.000000 0.059129
#
#
# Mechanical properties :
#
#
# Convention : Reuss Voigt Hill
#
# Bulk Modulus (GPa) = 45.39106 53.88519 49.63812
# Shear Modulus (GPa) = 15.80123 19.33568 17.56845
#
# Velocity S-wave (km/s) = 3.29145 3.64101 3.47064
# Velocity P-wave (km/s) = 6.75026 7.39059 7.07767
#
# Compressibility (1/GPa) = 0.02203077
#
# Stress axis : x y z
#
# Youngs Moduli (GPa) = 46.18694 26.41345 90.27608
#
# Poissons Ratio (x) = 0.48827 0.33650
# Poissons Ratio (y) = 0.85379 0.18646
# Poissons Ratio (z) = 0.17216 0.05456
#
# Static dielectric constant tensor:
#      x y z
#    x 3.104080 0.000000 0.000000 
#    y 0.000000 2.663850 0.000000 
#    z 0.000000 0.000000 2.904660 
# 
# 
# High freq. dielectric constant tensor:
#      x y z
#    x 1.557110 0.000000 0.000000 
#    y 0.000000 1.502190 0.000000 
#    z 0.000000 0.000000 1.573980 
# 
# From -- ./inp_files/10480.got.cif
#   From: 2010.03.12/outbox.cif.g09.slc.cpg/sg66_6_cif.got.tgz:10480.got - 2010.04.10 21:57:39.
