data_PCOD8277143
_publ_section_title
;
Structure prediction by ZEFSAII (Michael W. Deem and Ramdas Pophale) SiO2 
 PCOD8277143
Probable space group: C C C M
;
_chemical_formula_sum "Si O2"
_cell_formula_units_Z 96
_cell_length_a 8.837918
_cell_length_b 19.305998
_cell_length_c 28.943822
_cell_angle_alpha 90.000000
_cell_angle_beta 90.000000
_cell_angle_gamma 90.000000
_cell_volume 4938.534628
_symmetry_space_group_name_H-M "C C C M"
_symmetry_group_IT_number 66
_symmetry_cell_setting 'orthorhombic'
loop_
_space_group_symop_operation_xyz
x,y,z
-x,-y,z
x,-y,1/2-z
-x,y,1/2-z
-x,-y,-z
x,y,-z
-x,y,1/2+z
x,-y,1/2+z
1/2+x,1/2+y,z
1/2-x,1/2-y,z
1/2+x,1/2-y,1/2-z
1/2-x,1/2+y,1/2-z
1/2-x,1/2-y,-z
1/2+x,1/2+y,-z
1/2-x,1/2+y,1/2+z
1/2+x,1/2-y,1/2+z
loop_
_atom_site_type_symbol
_atom_site_label
_atom_site_fract_x
_atom_site_fract_y
_atom_site_fract_z
Si Si1 0.398491 0.099417 0.132609
Si Si2 0.734103 0.048808 0.869868
Si Si3 0.845369 0.682590 0.225400
Si Si4 0.744926 0.332309 0.448084
Si Si5 0.163135 0.068998 0.272002
Si Si6 0.951931 0.079371 0.947686
O O1 0.573110 0.082894 0.139050
O O2 0.353251 0.141746 0.177637
O O3 0.376496 0.143865 0.086342
O O4 0.290766 0.033168 0.125160
O O5 0.847637 0.061025 0.827097
O O6 0.808124 0.086714 0.914015
O O7 0.750000 0.750000 0.214244
O O8 0.765268 0.634884 0.262930
O O9 0.000000 0.705285 0.250000
O O10 0.782755 0.358248 0.500000
O O11 0.750000 0.250000 0.446047
O O12 0.583224 0.365993 0.433396
O O13 0.000000 0.080288 0.250000
O O14 0.239472 0.000000 0.250000
O O15 0.899094 0.095055 0.000000
O O16 0.000000 0.000000 0.942397
#
# Coordination Sequence:
#
# PCOD8277143 Si02
#       6
#    16  16  16  16  16  16
#     4  11  23  40  64  94 127 165 204 264 322 379
#     4  11  23  39  64  96 126 161 210 261 323 380
#     4  12  25  45  63  88 130 168 214 259 317 381
#     4  10  22  42  66  93 127 170 212 255 317 382
#     4  11  24  39  63  92 122 166 208 260 312 375
#     4  10  21  39  63  93 129 164 210 266 312 373
#
# _framework density 19.438965
#
# number of rings (size 3 to 8) (size 9 to 14) (size 15 to 20)
#    0.000    1.167    5.000    1.000    4.667    1.000 
#    3.000    2.500    0.000    3.000    0.000    0.000 
#    0.000    0.000    0.000    0.000    0.000    0.000 
#
# Total GULP energy -595168.410158 kJ/mol
# GULP energy per Si atom -12399.341878 kJ/mol
# Density = 1.939472 g / cm^3
# Si number density = 19.438965 Si / 1000 Ang^3
#
#
#
# Elastic Constant Matrix: (Units=GPa)
#
#
# Indices 1 2 3 4 5 6 
#
# 1 88.6602 39.8987 43.1861 0.0000 0.0000 0.0000
# 2 39.8987 99.0510 25.8917 0.0000 0.0000 0.0000
# 3 43.1861 25.8917 114.8702 0.0000 0.0000 0.0000
# 4 0.0000 0.0000 0.0000 102.7369 0.0000 0.0000
# 5 0.0000 0.0000 0.0000 0.0000 33.6348 0.0000
# 6 0.0000 0.0000 0.0000 0.0000 0.0000 32.6921
#
#
#
# Elastic Compliance Matrix: (Units=1/GPa)
#
#
# Indices 1 2 3 4 5 6 
#
# 1 0.015958 -0.005164 -0.004836 0.000000 0.000000 0.000000
# 2 -0.005164 0.012399 -0.000853 0.000000 0.000000 0.000000
# 3 -0.004836 -0.000853 0.010716 0.000000 0.000000 0.000000
# 4 0.000000 0.000000 0.000000 0.009734 0.000000 0.000000
# 5 0.000000 0.000000 0.000000 0.000000 0.029731 0.000000
# 6 0.000000 0.000000 0.000000 0.000000 0.000000 0.030588
#
#
# Mechanical properties :
#
#
# Convention : Reuss Voigt Hill
#
# Bulk Modulus (GPa) = 57.58013 57.83715 57.70864
# Shear Modulus (GPa) = 36.59742 46.71973 41.65858
#
# Velocity S-wave (km/s) = 4.34370 4.90777 4.63433
# Velocity P-wave (km/s) = 7.40555 7.86974 7.64117
#
# Compressibility (1/GPa) = 0.01736710
#
# Stress axis : x y z
#
# Youngs Moduli (GPa) = 62.66280 80.65148 93.32022
#
# Poissons Ratio (x) = 0.41650 0.45126
# Poissons Ratio (y) = 0.32360 0.07962
# Poissons Ratio (z) = 0.30302 0.06881
#
# Static dielectric constant tensor:
#      x y z
#    x 3.424620 0.000000 0.000000 
#    y 0.000000 3.612420 0.000000 
#    z 0.000000 0.000000 3.692110 
# 
# 
# High freq. dielectric constant tensor:
#      x y z
#    x 1.748950 0.000000 0.000000 
#    y 0.000000 1.756460 0.000000 
#    z 0.000000 0.000000 1.772640 
# 
# From -- ./inp_files/62590.got.cif
#   From: 2010.03.12/outbox.cif.g09.slc.cpg/sg66_32_cif.got.tgz:62590.got - 2010.04.10 21:57:39.
