data_PCOD8277395
_publ_section_title
;
Structure prediction by ZEFSAII (Michael W. Deem and Ramdas Pophale) SiO2 
 PCOD8277395
Probable space group: C C C M
;
_chemical_formula_sum "Si O2"
_cell_formula_units_Z 112
_cell_length_a 21.759499
_cell_length_b 17.068909
_cell_length_c 15.059968
_cell_angle_alpha 90.000000
_cell_angle_beta 90.000000
_cell_angle_gamma 90.000000
_cell_volume 5593.436394
_symmetry_space_group_name_H-M "C C C M"
_symmetry_group_IT_number 66
_symmetry_cell_setting 'orthorhombic'
loop_
_space_group_symop_operation_xyz
x,y,z
-x,-y,z
x,-y,1/2-z
-x,y,1/2-z
-x,-y,-z
x,y,-z
-x,y,1/2+z
x,-y,1/2+z
1/2+x,1/2+y,z
1/2-x,1/2-y,z
1/2+x,1/2-y,1/2-z
1/2-x,1/2+y,1/2-z
1/2-x,1/2-y,-z
1/2+x,1/2+y,-z
1/2-x,1/2+y,1/2+z
1/2+x,1/2-y,1/2+z
loop_
_atom_site_type_symbol
_atom_site_label
_atom_site_fract_x
_atom_site_fract_y
_atom_site_fract_z
Si Si1 0.928757 0.302756 0.102829
Si Si2 0.355005 0.649118 0.099747
Si Si3 0.428266 0.500000 0.146684
Si Si4 0.644996 0.649117 0.900253
Si Si5 0.125997 0.408152 0.250000
Si Si6 0.928756 0.697245 0.102829
Si Si7 0.260338 0.341900 0.750000
O O1 0.891568 0.225714 0.132468
O O2 0.905583 0.374679 0.161581
O O3 0.000001 0.286156 0.121705
O O4 0.917270 0.323665 0.000000
O O5 0.400941 0.576483 0.100941
O O6 0.297079 0.633158 0.162225
O O7 0.330173 0.661062 0.000000
O O8 0.500000 0.500000 0.128228
O O9 0.411781 0.500000 0.250000
O O10 0.400940 0.423517 0.100941
O O11 0.608433 0.725713 0.867532
O O12 0.702922 0.633156 0.837775
O O13 0.669829 0.661060 0.000000
O O14 0.114861 0.500000 0.250000
O O15 0.094419 0.374678 0.161580
O O16 0.197873 0.389780 0.250002
O O17 0.917268 0.676335 0.000000
O O18 0.250000 0.250000 0.750001
#
# Coordination Sequence:
#
# PCOD8277395 Si02
#       7
#    16  16  16  16  16  16  16
#     4  10  22  42  68  96 124 159 208 261 319 386
#     4  11  23  41  66  95 129 171 214 258 316 379
#     4  11  23  39  65 100 139 173 206 261 324 382
#     4  11  23  41  66  95 129 171 214 258 316 379
#     4  12  27  43  64  91 128 166 209 263 317 367
#     4  10  22  42  68  96 124 159 208 261 319 386
#     4  12  24  44  65  89 126 166 216 266 304 374
#
# _framework density 20.02347
#
# number of rings (size 3 to 8) (size 9 to 14) (size 15 to 20)
#    0.000    1.000    4.286    1.714    2.000    5.714 
#    0.000    1.429    0.000    0.000    0.000    0.000 
#    0.000    0.000    0.000    0.000    0.000    0.000 
#
# Total GULP energy -694783.735829 kJ/mol
# GULP energy per Si atom -12406.852426 kJ/mol
# Density = 1.997790 g / cm^3
# Si number density = 20.023470 Si / 1000 Ang^3
#
#
#
# Elastic Constant Matrix: (Units=GPa)
#
#
# Indices 1 2 3 4 5 6 
#
# 1 90.6415 11.1149 51.0959 0.0000 0.0000 0.0000
# 2 11.1149 122.5406 31.9405 0.0000 0.0000 0.0000
# 3 51.0959 31.9405 113.8490 0.0000 0.0000 0.0000
# 4 0.0000 0.0000 0.0000 78.5868 0.0000 0.0000
# 5 0.0000 0.0000 0.0000 0.0000 15.3855 0.0000
# 6 0.0000 0.0000 0.0000 0.0000 0.0000 25.3289
#
#
#
# Elastic Compliance Matrix: (Units=1/GPa)
#
#
# Indices 1 2 3 4 5 6 
#
# 1 0.014789 0.000419 -0.006755 0.000000 0.000000 0.000000
# 2 0.000419 0.008816 -0.002662 0.000000 0.000000 0.000000
# 3 -0.006755 -0.002662 0.012562 0.000000 0.000000 0.000000
# 4 0.000000 0.000000 0.000000 0.012725 0.000000 0.000000
# 5 0.000000 0.000000 0.000000 0.000000 0.064996 0.000000
# 6 0.000000 0.000000 0.000000 0.000000 0.000000 0.039481
#
#
# Mechanical properties :
#
#
# Convention : Reuss Voigt Hill
#
# Bulk Modulus (GPa) = 55.02790 57.25929 56.14360
# Shear Modulus (GPa) = 28.18158 39.38558 33.78358
#
# Velocity S-wave (km/s) = 3.75564 4.43987 4.11201
# Velocity P-wave (km/s) = 6.80792 7.41225 7.11650
#
# Compressibility (1/GPa) = 0.01817260
#
# Stress axis : x y z
#
# Youngs Moduli (GPa) = 67.61816 113.42653 79.60563
#
# Poissons Ratio (x) = -0.04756 0.53773
# Poissons Ratio (y) = -0.02835 0.21188
# Poissons Ratio (z) = 0.45676 0.30190
#
# Static dielectric constant tensor:
#      x y z
#    x 3.822210 0.000000 0.000000 
#    y 0.000000 3.563190 0.000000 
#    z 0.000000 0.000000 3.831610 
# 
# 
# High freq. dielectric constant tensor:
#      x y z
#    x 1.786770 0.000000 0.000000 
#    y 0.000000 1.779700 0.000000 
#    z 0.000000 0.000000 1.797920 
# 
# From -- ./inp_files/32439.got.cif
#   From: 2010.03.12/outbox.cif.g09.slc.cpg/sg66_17_cif.got.tgz:32439.got - 2010.04.10 21:57:39.
