data_PCOD8277103
_publ_section_title
;
Structure prediction by ZEFSAII (Michael W. Deem and Ramdas Pophale) SiO2 
 PCOD8277103
Probable space group: C C C M
;
_chemical_formula_sum "Si O2"
_cell_formula_units_Z 88
_cell_length_a 13.154373
_cell_length_b 21.430004
_cell_length_c 15.055328
_cell_angle_alpha 90.000000
_cell_angle_beta 90.000000
_cell_angle_gamma 90.000000
_cell_volume 4244.070857
_symmetry_space_group_name_H-M "C C C M"
_symmetry_group_IT_number 66
_symmetry_cell_setting 'orthorhombic'
loop_
_space_group_symop_operation_xyz
x,y,z
-x,-y,z
x,-y,1/2-z
-x,y,1/2-z
-x,-y,-z
x,y,-z
-x,y,1/2+z
x,-y,1/2+z
1/2+x,1/2+y,z
1/2-x,1/2-y,z
1/2+x,1/2-y,1/2-z
1/2-x,1/2+y,1/2-z
1/2-x,1/2-y,-z
1/2+x,1/2+y,-z
1/2-x,1/2+y,1/2+z
1/2+x,1/2-y,1/2+z
loop_
_atom_site_type_symbol
_atom_site_label
_atom_site_fract_x
_atom_site_fract_y
_atom_site_fract_z
Si Si1 0.423858 0.288308 0.000000
Si Si2 0.937128 0.211789 0.167162
Si Si3 0.879555 0.000034 0.146445
Si Si4 0.442357 0.856434 0.835258
Si Si5 0.298395 0.591089 0.500000
Si Si6 0.085735 0.353659 0.000000
Si Si7 0.772325 0.123809 0.101256
O O1 0.495009 0.301326 0.917288
O O2 0.333629 0.337424 0.000000
O O3 0.377395 0.218559 0.000000
O O4 0.913770 0.284356 0.180570
O O5 0.829879 0.176815 0.157718
O O6 0.000000 0.184061 0.250000
O O7 0.838480 0.061684 0.099734
O O8 0.846198 0.000000 0.250000
O O9 0.000000 0.000000 0.137177
O O10 0.834747 0.941966 0.090891
O O11 0.500000 0.884669 0.750000
O O12 0.517867 0.867354 0.915403
O O13 0.335987 0.891119 0.853111
O O14 0.176733 0.596630 0.500000
O O15 0.755211 0.147040 0.000000
#
# Coordination Sequence:
#
# PCOD8277103 Si02
#       7
#     8  16  16  16   8   8  16
#     4  10  21  38  63  99 134 168 209 259 334 391
#     4  10  22  37  63 100 133 168 210 263 326 391
#     4  11  27  45  65  93 127 163 212 268 321 385
#     4  10  23  42  63  95 134 169 215 268 316 380
#     4  12  24  43  66  91 130 170 214 264 322 382
#     4  10  23  41  65  96 132 170 211 269 320 381
#     4  12  23  41  69  94 126 174 219 262 323 381
#
# _framework density 20.734808999999998
#
# number of rings (size 3 to 8) (size 9 to 14) (size 15 to 20)
#    0.000    1.273    2.727    2.182    7.636    0.727 
#    0.000    7.273    0.000    0.000    0.000    0.000 
#    0.000    0.000    0.000    0.000    0.000    0.000 
#
# Total GULP energy -545732.164014 kJ/mol
# GULP energy per Si atom -12403.003728 kJ/mol
# Density = 2.068762 g / cm^3
# Si number density = 20.734809 Si / 1000 Ang^3
#
#
#
# Elastic Constant Matrix: (Units=GPa)
#
#
# Indices 1 2 3 4 5 6 
#
# 1 144.3319 43.8434 66.0397 0.0000 0.0000 0.0000
# 2 43.8434 54.5233 25.1503 0.0000 0.0000 0.0000
# 3 66.0397 25.1503 166.5697 0.0000 0.0000 0.0000
# 4 0.0000 0.0000 0.0000 472.0678 0.0000 0.0000
# 5 0.0000 0.0000 0.0000 0.0000 45.9067 0.0000
# 6 0.0000 0.0000 0.0000 0.0000 0.0000 35.1985
#
#
#
# Elastic Compliance Matrix: (Units=1/GPa)
#
#
# Indices 1 2 3 4 5 6 
#
# 1 0.010468 -0.006990 -0.003095 0.000000 0.000000 0.000000
# 2 -0.006990 0.024381 -0.000910 0.000000 0.000000 0.000000
# 3 -0.003095 -0.000910 0.007368 0.000000 0.000000 0.000000
# 4 0.000000 0.000000 0.000000 0.002118 0.000000 0.000000
# 5 0.000000 0.000000 0.000000 0.000000 0.021783 0.000000
# 6 0.000000 0.000000 0.000000 0.000000 0.000000 0.028410
#
#
# Mechanical properties :
#
#
# Convention : Reuss Voigt Hill
#
# Bulk Modulus (GPa) = 49.43740 70.61019 60.02380
# Shear Modulus (GPa) = 40.56440 125.99402 83.27921
#
# Velocity S-wave (km/s) = 4.42786 7.80362 6.34438
# Velocity P-wave (km/s) = 7.07359 10.73886 9.09282
#
# Compressibility (1/GPa) = 0.02022760
#
# Stress axis : x y z
#
# Youngs Moduli (GPa) = 95.53116 41.01509 135.72425
#
# Poissons Ratio (x) = 0.28669 0.42003
# Poissons Ratio (y) = 0.66775 0.12352
# Poissons Ratio (z) = 0.29565 0.03733
#
# Static dielectric constant tensor:
#      x y z
#    x 3.697790 0.000000 0.000000 
#    y 0.000000 3.595990 0.000000 
#    z 0.000000 0.000000 3.947710 
# 
# 
# High freq. dielectric constant tensor:
#      x y z
#    x 1.816910 0.000000 0.000000 
#    y 0.000000 1.793300 0.000000 
#    z 0.000000 0.000000 1.826880 
# 
# From -- ./inp_files/26583.got.cif
#   From: 2010.03.12/outbox.cif.g09.slc.cpg/sg66_14_cif.got.tgz:26583.got - 2010.04.10 21:57:39.
