data_PCOD8277095
_publ_section_title
;
Structure prediction by ZEFSAII (Michael W. Deem and Ramdas Pophale) SiO2 
 PCOD8277095
Probable space group: C C C M
;
_chemical_formula_sum "Si O2"
_cell_formula_units_Z 88
_cell_length_a 21.726580
_cell_length_b 11.798137
_cell_length_c 15.861749
_cell_angle_alpha 90.000000
_cell_angle_beta 90.000000
_cell_angle_gamma 90.000000
_cell_volume 4065.892361
_symmetry_space_group_name_H-M "C C C M"
_symmetry_group_IT_number 66
_symmetry_cell_setting 'orthorhombic'
loop_
_space_group_symop_operation_xyz
x,y,z
-x,-y,z
x,-y,1/2-z
-x,y,1/2-z
-x,-y,-z
x,y,-z
-x,y,1/2+z
x,-y,1/2+z
1/2+x,1/2+y,z
1/2-x,1/2-y,z
1/2+x,1/2-y,1/2-z
1/2-x,1/2+y,1/2-z
1/2-x,1/2-y,-z
1/2+x,1/2+y,-z
1/2-x,1/2+y,1/2+z
1/2+x,1/2-y,1/2+z
loop_
_atom_site_type_symbol
_atom_site_label
_atom_site_fract_x
_atom_site_fract_y
_atom_site_fract_z
Si Si1 0.694584 0.471065 0.599251
Si Si2 0.299067 0.902060 0.808673
Si Si3 0.250000 0.750000 0.320672
Si Si4 0.943207 0.075481 0.399845
Si Si5 0.913950 0.557212 0.598266
Si Si6 0.965426 0.674074 0.100231
O O1 0.703514 0.492331 0.500000
O O2 0.732080 0.566580 0.651346
O O3 0.721087 0.346465 0.620438
O O4 0.622812 0.478432 0.626015
O O5 0.299807 0.795634 0.746328
O O6 0.348517 0.885560 0.882427
O O7 0.324780 0.000000 0.750000
O O8 0.947378 0.079853 0.500000
O O9 0.947469 0.203131 0.361878
O O10 0.000000 0.000000 0.363987
O O11 0.924637 0.556780 0.500000
O O12 0.917710 0.425214 0.628651
O O13 0.967971 0.635659 0.636560
O O14 0.966219 0.685894 0.000000
#
# Coordination Sequence:
#
# PCOD8277095 Si02
#       6
#    16  16   8  16  16  16
#     4  10  21  38  63  90 112 153 211 247 283 361
#     4  10  22  37  55  81 120 155 189 251 310 352
#     4  10  23  40  57  82 124 160 188 248 315 360
#     4   9  18  32  54  86 117 143 186 247 293 333
#     4   9  17  33  56  81 110 148 194 239 292 356
#     4   8  16  30  52  82 114 146 187 245 295 340
#
# _framework density 21.643466
#
# number of rings (size 3 to 8) (size 9 to 14) (size 15 to 20)
#    0.000    2.727    0.000    1.909    5.091    1.455 
#    0.000    5.455    0.000   11.455    0.000    0.000 
#    0.000    0.000    0.000    0.000    0.000    0.000 
#
# Total GULP energy -545079.610151 kJ/mol
# GULP energy per Si atom -12388.172958 kJ/mol
# Density = 2.159420 g / cm^3
# Si number density = 21.643466 Si / 1000 Ang^3
#
#
#
# Elastic Constant Matrix: (Units=GPa)
#
#
# Indices 1 2 3 4 5 6 
#
# 1 121.3766 -2.7040 18.6680 0.0000 0.0000 0.0000
# 2 -2.7040 20.4347 10.2129 0.0000 0.0000 0.0000
# 3 18.6680 10.2129 31.9089 0.0000 0.0000 0.0000
# 4 0.0000 0.0000 0.0000 9.9386 0.0000 0.0000
# 5 0.0000 0.0000 0.0000 0.0000 19.6215 0.0000
# 6 0.0000 0.0000 0.0000 0.0000 0.0000 18.5757
#
#
#
# Elastic Compliance Matrix: (Units=1/GPa)
#
#
# Indices 1 2 3 4 5 6 
#
# 1 0.009428 0.004767 -0.007041 0.000000 0.000000 0.000000
# 2 0.004767 0.060665 -0.022205 0.000000 0.000000 0.000000
# 3 -0.007041 -0.022205 0.042566 0.000000 0.000000 0.000000
# 4 0.000000 0.000000 0.000000 0.100618 0.000000 0.000000
# 5 0.000000 0.000000 0.000000 0.000000 0.050964 0.000000
# 6 0.000000 0.000000 0.000000 0.000000 0.000000 0.053834
#
#
# Mechanical properties :
#
#
# Convention : Reuss Voigt Hill
#
# Bulk Modulus (GPa) = 15.69890 25.11935 20.40912
# Shear Modulus (GPa) = 12.87769 19.46338 16.17054
#
# Velocity S-wave (km/s) = 2.44189 3.00204 2.73634
# Velocity P-wave (km/s) = 3.90123 4.86287 4.40835
#
# Compressibility (1/GPa) = 0.06369872
#
# Stress axis : x y z
#
# Youngs Moduli (GPa) = 106.06707 16.48395 23.49299
#
# Poissons Ratio (x) = -0.07857 0.16542
# Poissons Ratio (y) = -0.50559 0.52167
# Poissons Ratio (z) = 0.74686 0.36603
#
# Static dielectric constant tensor:
#      x y z
#    x 3.920400 0.000000 0.000000 
#    y 0.000000 4.051780 0.000000 
#    z 0.000000 0.000000 3.549740 
# 
# 
# High freq. dielectric constant tensor:
#      x y z
#    x 1.850170 0.000000 0.000000 
#    y 0.000000 1.842230 0.000000 
#    z 0.000000 0.000000 1.823300 
# 
# From -- ./inp_files/32231.got.cif
#   From: 2010.03.12/outbox.cif.g09.slc.cpg/sg66_17_cif.got.tgz:32231.got - 2010.04.10 21:57:39.
