data_PCOD8277194
_publ_section_title
;
Structure prediction by ZEFSAII (Michael W. Deem and Ramdas Pophale) SiO2 
 PCOD8277194
Probable space group: C C C M
;
_chemical_formula_sum "Si O2"
_cell_formula_units_Z 48
_cell_length_a 8.548189
_cell_length_b 15.803459
_cell_length_c 15.940497
_cell_angle_alpha 90.000000
_cell_angle_beta 90.000000
_cell_angle_gamma 90.000000
_cell_volume 2153.416953
_symmetry_space_group_name_H-M "C C C M"
_symmetry_group_IT_number 66
_symmetry_cell_setting 'orthorhombic'
loop_
_space_group_symop_operation_xyz
x,y,z
-x,-y,z
x,-y,1/2-z
-x,y,1/2-z
-x,-y,-z
x,y,-z
-x,y,1/2+z
x,-y,1/2+z
1/2+x,1/2+y,z
1/2-x,1/2-y,z
1/2+x,1/2-y,1/2-z
1/2-x,1/2+y,1/2-z
1/2-x,1/2-y,-z
1/2+x,1/2+y,-z
1/2-x,1/2+y,1/2+z
1/2+x,1/2-y,1/2+z
loop_
_atom_site_type_symbol
_atom_site_label
_atom_site_fract_x
_atom_site_fract_y
_atom_site_fract_z
Si Si1 0.434539 0.743067 0.156995
Si Si2 0.403553 0.581006 0.595965
Si Si3 0.564487 0.914520 0.844123
O O1 0.500000 0.731242 0.250000
O O2 0.250000 0.750000 0.159300
O O3 0.488040 0.663471 0.102275
O O4 0.501381 0.828538 0.112870
O O5 0.500000 0.500000 0.627216
O O6 0.348670 0.569652 0.500000
O O7 0.252113 0.587786 0.655130
O O8 0.500000 0.913985 0.750000
O O9 0.500000 0.000000 0.889482
#
# Coordination Sequence:
#
# PCOD8277194 Si02
#       3
#    16  16  16
#     4  11  22  39  64  94 126 162 211 262 309 367
#     4  11  25  43  63  91 128 168 208 255 312 371
#     4  10  21  40  64  93 124 160 207 255 309 368
#
# _framework density 22.290154999999999
#
# number of rings (size 3 to 8) (size 9 to 14) (size 15 to 20)
#    0.000    1.333    0.000    7.000    0.000    7.333 
#    0.000    0.000    0.000    0.000    0.000    0.000 
#    0.000    0.000    0.000    0.000    0.000    0.000 
#
# Total GULP energy -297622.334500 kJ/mol
# GULP energy per Si atom -12400.930604 kJ/mol
# Density = 2.223942 g / cm^3
# Si number density = 22.290155 Si / 1000 Ang^3
#
#
#
# Elastic Constant Matrix: (Units=GPa)
#
#
# Indices 1 2 3 4 5 6 
#
# 1 227.0160 85.9857 38.5870 0.0000 0.0000 0.0000
# 2 85.9857 235.1589 14.6927 0.0000 0.0000 0.0000
# 3 38.5870 14.6927 51.6691 0.0000 0.0000 0.0000
# 4 0.0000 0.0000 0.0000 0.2773 0.0000 0.0000
# 5 0.0000 0.0000 0.0000 0.0000 22.1487 0.0000
# 6 0.0000 0.0000 0.0000 0.0000 0.0000 45.7416
#
#
#
# Elastic Compliance Matrix: (Units=1/GPa)
#
#
# Indices 1 2 3 4 5 6 
#
# 1 0.005752 -0.001868 -0.003765 0.000000 0.000000 0.000000
# 2 -0.001868 0.004936 -0.000008 0.000000 0.000000 0.000000
# 3 -0.003765 -0.000008 0.022168 0.000000 0.000000 0.000000
# 4 0.000000 0.000000 0.000000 3.606708 0.000000 0.000000
# 5 0.000000 0.000000 0.000000 0.000000 0.045149 0.000000
# 6 0.000000 0.000000 0.000000 0.000000 0.000000 0.021862
#
#
# Mechanical properties :
#
#
# Convention : Reuss Voigt Hill
#
# Bulk Modulus (GPa) = 46.35287 88.04163 67.19725
# Shear Modulus (GPa) = 1.34226 38.60542 19.97384
#
# Velocity S-wave (km/s) = 0.77684 4.16618 2.99671
# Velocity P-wave (km/s) = 4.65242 7.92001 6.49506
#
# Compressibility (1/GPa) = 0.02157364
#
# Stress axis : x y z
#
# Youngs Moduli (GPa) = 173.83773 202.59044 45.11028
#
# Poissons Ratio (x) = 0.37847 0.16983
# Poissons Ratio (y) = 0.32476 0.00038
# Poissons Ratio (z) = 0.65446 0.00171
#
# Static dielectric constant tensor:
#      x y z
#    x 3.957140 0.000000 0.000000 
#    y 0.000000 5.331640 0.000000 
#    z 0.000000 0.000000 3.714860 
# 
# 
# High freq. dielectric constant tensor:
#      x y z
#    x 1.889200 0.000000 0.000000 
#    y 0.000000 1.913690 0.000000 
#    z 0.000000 0.000000 1.839140 
# 
# From -- ./inp_files/23488.got.cif
#   From: 2010.03.12/outbox.cif.g09.slc.cpg/sg66_12_cif.got.tgz:23488.got - 2010.04.10 21:57:39.
