data_PCOD8277282
_publ_section_title
;
Structure prediction by ZEFSAII (Michael W. Deem and Ramdas Pophale) SiO2 
 PCOD8277282
Probable space group: C C C M
;
_chemical_formula_sum "Si O2"
_cell_formula_units_Z 96
_cell_length_a 20.524333
_cell_length_b 14.107027
_cell_length_c 16.990918
_cell_angle_alpha 90.000000
_cell_angle_beta 90.000000
_cell_angle_gamma 90.000000
_cell_volume 4919.504858
_symmetry_space_group_name_H-M "C C C M"
_symmetry_group_IT_number 66
_symmetry_cell_setting 'orthorhombic'
loop_
_space_group_symop_operation_xyz
x,y,z
-x,-y,z
x,-y,1/2-z
-x,y,1/2-z
-x,-y,-z
x,y,-z
-x,y,1/2+z
x,-y,1/2+z
1/2+x,1/2+y,z
1/2-x,1/2-y,z
1/2+x,1/2-y,1/2-z
1/2-x,1/2+y,1/2-z
1/2-x,1/2-y,-z
1/2+x,1/2+y,-z
1/2-x,1/2+y,1/2+z
1/2+x,1/2-y,1/2+z
loop_
_atom_site_type_symbol
_atom_site_label
_atom_site_fract_x
_atom_site_fract_y
_atom_site_fract_z
Si Si1 0.822458 0.757505 0.808901
Si Si2 0.569817 0.034932 0.161022
Si Si3 0.557831 0.568352 0.592035
Si Si4 0.184797 0.571440 0.590874
Si Si5 0.560963 0.245943 0.807328
Si Si6 0.681256 0.467717 0.340123
O O1 0.750000 0.750000 0.772132
O O2 0.832531 0.671726 0.869173
O O3 0.872000 0.758993 0.737912
O O4 0.832608 0.856496 0.854110
O O5 0.568353 0.147099 0.148488
O O6 0.500000 0.000000 0.133097
O O7 0.585761 0.000000 0.250000
O O8 0.623057 0.995794 0.101206
O O9 0.500000 0.500000 0.623816
O O10 0.550285 0.584424 0.500000
O O11 0.549430 0.669876 0.631988
O O12 0.628469 0.525138 0.610026
O O13 0.199116 0.591096 0.500000
O O14 0.245745 0.514801 0.628590
O O15 0.500000 0.240630 0.750000
O O16 0.676346 0.500000 0.250000
#
# Coordination Sequence:
#
# PCOD8277282 Si02
#       6
#    16  16  16  16  16  16
#     4  10  22  37  62  94 118 164 212 261 299 369
#     4  11  21  40  65  91 119 162 211 261 305 372
#     4  11  26  43  63  95 133 165 205 263 319 370
#     4  11  24  40  62  94 131 165 204 264 325 369
#     4  12  22  39  67  92 122 164 215 255 306 375
#     4  11  22  40  66  93 123 169 218 253 303 377
#
# _framework density 19.51416
#
# number of rings (size 3 to 8) (size 9 to 14) (size 15 to 20)
#    0.000    1.000    5.000    2.000    2.333    4.667 
#    0.000    4.167    0.000    2.500    0.000    0.000 
#    0.000    0.000    0.000    0.000    0.000    0.000 
#
# Total GULP energy -595291.480569 kJ/mol
# GULP energy per Si atom -12401.905845 kJ/mol
# Density = 1.946974 g / cm^3
# Si number density = 19.514160 Si / 1000 Ang^3
#
#
#
# Elastic Constant Matrix: (Units=GPa)
#
#
# Indices 1 2 3 4 5 6 
#
# 1 105.3343 35.7810 28.6635 0.0000 0.0000 0.0000
# 2 35.7810 135.2918 33.9653 0.0000 0.0000 0.0000
# 3 28.6635 33.9653 77.8104 0.0000 0.0000 0.0000
# 4 0.0000 0.0000 0.0000 19.6651 0.0000 0.0000
# 5 0.0000 0.0000 0.0000 0.0000 26.6467 0.0000
# 6 0.0000 0.0000 0.0000 0.0000 0.0000 30.4588
#
#
#
# Elastic Compliance Matrix: (Units=1/GPa)
#
#
# Indices 1 2 3 4 5 6 
#
# 1 0.011077 -0.002140 -0.003146 0.000000 0.000000 0.000000
# 2 -0.002140 0.008714 -0.003016 0.000000 0.000000 0.000000
# 3 -0.003146 -0.003016 0.015327 0.000000 0.000000 0.000000
# 4 0.000000 0.000000 0.000000 0.050852 0.000000 0.000000
# 5 0.000000 0.000000 0.000000 0.000000 0.037528 0.000000
# 6 0.000000 0.000000 0.000000 0.000000 0.000000 0.032831
#
#
# Mechanical properties :
#
#
# Convention : Reuss Voigt Hill
#
# Bulk Modulus (GPa) = 54.01104 57.25067 55.63086
# Shear Modulus (GPa) = 27.91672 30.02256 28.96964
#
# Velocity S-wave (km/s) = 3.78641 3.92663 3.85716
# Velocity P-wave (km/s) = 6.84499 7.06821 6.95749
#
# Compressibility (1/GPa) = 0.01851473
#
# Stress axis : x y z
#
# Youngs Moduli (GPa) = 90.28071 114.75252 65.24325
#
# Poissons Ratio (x) = 0.24552 0.20528
# Poissons Ratio (y) = 0.19316 0.19676
# Poissons Ratio (z) = 0.28406 0.34607
#
# Static dielectric constant tensor:
#      x y z
#    x 3.823310 0.000000 0.000000 
#    y 0.000000 3.875260 0.000000 
#    z 0.000000 0.000000 3.299750 
# 
# 
# High freq. dielectric constant tensor:
#      x y z
#    x 1.782130 0.000000 0.000000 
#    y 0.000000 1.775760 0.000000 
#    z 0.000000 0.000000 1.736230 
# 
# From -- ./inp_files/31215.got.cif
#   From: 2010.03.12/outbox.cif.g09.slc.cpg/sg66_16_cif.got.tgz:31215.got - 2010.04.10 21:57:39.
