data_PCOD8277254
_publ_section_title
;
Structure prediction by ZEFSAII (Michael W. Deem and Ramdas Pophale) SiO2 
 PCOD8277254
Probable space group: C C C M
;
_chemical_formula_sum "Si O2"
_cell_formula_units_Z 64
_cell_length_a 27.488049
_cell_length_b 11.070364
_cell_length_c 9.375843
_cell_angle_alpha 90.000000
_cell_angle_beta 90.000000
_cell_angle_gamma 90.000000
_cell_volume 2853.094415
_symmetry_space_group_name_H-M "C C C M"
_symmetry_group_IT_number 66
_symmetry_cell_setting 'orthorhombic'
loop_
_space_group_symop_operation_xyz
x,y,z
-x,-y,z
x,-y,1/2-z
-x,y,1/2-z
-x,-y,-z
x,y,-z
-x,y,1/2+z
x,-y,1/2+z
1/2+x,1/2+y,z
1/2-x,1/2-y,z
1/2+x,1/2-y,1/2-z
1/2-x,1/2+y,1/2-z
1/2-x,1/2-y,-z
1/2+x,1/2+y,-z
1/2-x,1/2+y,1/2+z
1/2+x,1/2-y,1/2+z
loop_
_atom_site_type_symbol
_atom_site_label
_atom_site_fract_x
_atom_site_fract_y
_atom_site_fract_z
Si Si1 0.634962 0.590908 0.500000
Si Si2 0.343965 0.791821 0.500000
Si Si3 0.693526 0.739948 0.703139
Si Si4 0.432311 0.361104 0.000000
Si Si5 0.500000 0.710578 0.250000
Si Si6 0.849506 0.570595 0.500000
Si Si7 0.558887 0.198352 0.000000
O O1 0.669428 0.619039 0.636059
O O2 0.611151 0.459150 0.500000
O O3 0.589559 0.679583 0.500000
O O4 0.316657 0.730741 0.631039
O O5 0.402129 0.764918 0.500000
O O6 0.333350 0.933596 0.500000
O O7 0.750000 0.750000 0.667205
O O8 0.669292 0.861338 0.640857
O O9 0.465157 0.371135 0.145069
O O10 0.471879 0.800666 0.145022
O O11 0.908280 0.578499 0.500000
#
# Coordination Sequence:
#
# PCOD8277254 Si02
#       7
#     8   8  16   8   8   8   8
#     4  10  22  42  66  85 126 178 205 257 323 391
#     4  12  24  41  65  98 127 163 215 272 322 380
#     4  10  22  44  66  93 127 165 218 261 325 382
#     4  11  24  43  63  98 132 176 221 264 337 375
#     4  10  22  39  63  94 134 166 219 277 310 406
#     4  10  21  43  67  87 125 176 204 261 326 390
#     4   9  20  38  62  89 123 168 213 257 331 374
#
# _framework density 22.431784
#
# number of rings (size 3 to 8) (size 9 to 14) (size 15 to 20)
#    0.000    2.000    0.000    5.625    0.000    7.000 
#   13.500    5.000    0.000    0.000    0.000    0.000 
#    0.000    0.000    0.000    0.000    0.000    0.000 
#
# Total GULP energy -396624.183965 kJ/mol
# GULP energy per Si atom -12394.505749 kJ/mol
# Density = 2.238073 g / cm^3
# Si number density = 22.431784 Si / 1000 Ang^3
#
#
#
# Elastic Constant Matrix: (Units=GPa)
#
#
# Indices 1 2 3 4 5 6 
#
# 1 152.2422 37.0952 63.0066 0.0000 0.0000 0.0000
# 2 37.0952 73.2859 35.2092 0.0000 0.0000 0.0000
# 3 63.0066 35.2092 196.1742 0.0000 0.0000 0.0000
# 4 0.0000 0.0000 0.0000 5.6262 0.0000 0.0000
# 5 0.0000 0.0000 0.0000 0.0000 43.6871 0.0000
# 6 0.0000 0.0000 0.0000 0.0000 0.0000 25.5417
#
#
#
# Elastic Compliance Matrix: (Units=1/GPa)
#
#
# Indices 1 2 3 4 5 6 
#
# 1 0.008192 -0.003154 -0.002065 0.000000 0.000000 0.000000
# 2 -0.003154 0.016147 -0.001885 0.000000 0.000000 0.000000
# 3 -0.002065 -0.001885 0.006099 0.000000 0.000000 0.000000
# 4 0.000000 0.000000 0.000000 0.177741 0.000000 0.000000
# 5 0.000000 0.000000 0.000000 0.000000 0.022890 0.000000
# 6 0.000000 0.000000 0.000000 0.000000 0.000000 0.039152
#
#
# Mechanical properties :
#
#
# Convention : Reuss Voigt Hill
#
# Bulk Modulus (GPa) = 61.61545 76.92491 69.27018
# Shear Modulus (GPa) = 17.25096 34.06375 25.65735
#
# Velocity S-wave (km/s) = 2.77617 3.90108 3.38567
# Velocity P-wave (km/s) = 6.14847 7.39314 6.79935
#
# Compressibility (1/GPa) = 0.01622969
#
# Stress axis : x y z
#
# Youngs Moduli (GPa) = 122.07617 61.92924 163.96125
#
# Poissons Ratio (x) = 0.19535 0.33855
# Poissons Ratio (y) = 0.38507 0.30907
# Poissons Ratio (z) = 0.25206 0.11674
#
# Static dielectric constant tensor:
#      x y z
#    x 4.288610 0.000000 0.000000 
#    y 0.000000 3.605790 0.000000 
#    z 0.000000 0.000000 4.229570 
# 
# 
# High freq. dielectric constant tensor:
#      x y z
#    x 1.897750 0.000000 0.000000 
#    y 0.000000 1.846760 0.000000 
#    z 0.000000 0.000000 1.903400 
# 
# From -- ./inp_files/11232.got.cif
#   From: 2010.03.12/outbox.cif.g09.slc.cpg/sg66_6_cif.got.tgz:11232.got - 2010.04.10 21:57:39.
