data_PCOD8277093
_publ_section_title
;
Structure prediction by ZEFSAII (Michael W. Deem and Ramdas Pophale) SiO2 
 PCOD8277093
Probable space group: C C C M
;
_chemical_formula_sum "Si O2"
_cell_formula_units_Z 80
_cell_length_a 14.962270
_cell_length_b 28.656281
_cell_length_c 8.621905
_cell_angle_alpha 90.000000
_cell_angle_beta 90.000000
_cell_angle_gamma 90.000000
_cell_volume 3696.753970
_symmetry_space_group_name_H-M "C C C M"
_symmetry_group_IT_number 66
_symmetry_cell_setting 'orthorhombic'
loop_
_space_group_symop_operation_xyz
x,y,z
-x,-y,z
x,-y,1/2-z
-x,y,1/2-z
-x,-y,-z
x,y,-z
-x,y,1/2+z
x,-y,1/2+z
1/2+x,1/2+y,z
1/2-x,1/2-y,z
1/2+x,1/2-y,1/2-z
1/2-x,1/2+y,1/2-z
1/2-x,1/2-y,-z
1/2+x,1/2+y,-z
1/2-x,1/2+y,1/2+z
1/2+x,1/2-y,1/2+z
loop_
_atom_site_type_symbol
_atom_site_label
_atom_site_fract_x
_atom_site_fract_y
_atom_site_fract_z
Si Si1 0.404421 0.901838 0.180277
Si Si2 0.840122 0.224634 0.180967
Si Si3 0.589856 0.187572 0.681637
Si Si4 0.275449 0.450414 0.679603
Si Si5 0.598960 0.628413 0.182222
O O1 0.500000 0.919250 0.250000
O O2 0.351520 0.856883 0.263990
O O3 0.330557 0.942060 0.204650
O O4 0.418492 0.889609 0.000000
O O5 0.750000 0.250000 0.239450
O O6 0.910984 0.264416 0.222238
O O7 0.857644 0.178135 0.274678
O O8 0.839477 0.212787 0.000000
O O9 0.500000 0.163772 0.750000
O O10 0.595981 0.197728 0.500000
O O11 0.301166 0.500000 0.750000
O O12 0.300442 0.449696 0.500000
O O13 0.337487 0.412250 0.760358
O O14 0.500000 0.623869 0.250000
O O15 0.589962 0.626162 0.000000
#
# Coordination Sequence:
#
# PCOD8277093 Si02
#       5
#    16  16  16  16  16
#     4  10  21  38  62  93 131 171 212 260 316 383
#     4  11  23  39  60  88 125 165 205 252 307 368
#     4  11  21  34  55  83 118 158 200 242 290 354
#     4  11  25  45  68  95 126 163 211 268 329 389
#     4  12  26  45  69  96 129 169 217 271 325 384
#
# _framework density 21.640606999999999
#
# number of rings (size 3 to 8) (size 9 to 14) (size 15 to 20)
#    0.000    1.000    0.000    8.400    0.000   10.400 
#    0.000    4.000    0.000    0.000    0.000    0.000 
#    0.000    0.000    0.000    0.000    0.000    0.000 
#
# Total GULP energy -495642.235516 kJ/mol
# GULP energy per Si atom -12391.055888 kJ/mol
# Density = 2.159135 g / cm^3
# Si number density = 21.640607 Si / 1000 Ang^3
#
#
#
# Elastic Constant Matrix: (Units=GPa)
#
#
# Indices 1 2 3 4 5 6 
#
# 1 110.5267 43.7471 62.4973 0.0000 0.0000 0.0000
# 2 43.7471 115.6406 48.1032 0.0000 0.0000 0.0000
# 3 62.4973 48.1032 148.7044 0.0000 0.0000 0.0000
# 4 0.0000 0.0000 0.0000 -131.9877 0.0000 0.0000
# 5 0.0000 0.0000 0.0000 0.0000 23.5616 0.0000
# 6 0.0000 0.0000 0.0000 0.0000 0.0000 20.0157
#
#
#
# Elastic Compliance Matrix: (Units=1/GPa)
#
#
# Indices 1 2 3 4 5 6 
#
# 1 0.012702 -0.002986 -0.004372 0.000000 0.000000 0.000000
# 2 -0.002986 0.010694 -0.002204 0.000000 0.000000 0.000000
# 3 -0.004372 -0.002204 0.009275 0.000000 0.000000 0.000000
# 4 0.000000 0.000000 0.000000 -0.007576 0.000000 0.000000
# 5 0.000000 0.000000 0.000000 0.000000 0.042442 0.000000
# 6 0.000000 0.000000 0.000000 0.000000 0.000000 0.049961
#
#
# Mechanical properties :
#
#
# Convention : Reuss Voigt Hill
#
# Bulk Modulus (GPa) = 73.82501 75.95187 74.88844
# Shear Modulus (GPa) = 35.42611 -2.98047 16.22282
#
# Velocity S-wave (km/s) = 4.05040 -1.17484 2.74094
# Velocity P-wave (km/s) = 7.48749 5.77345 6.68563
#
# Compressibility (1/GPa) = 0.01354555
#
# Stress axis : x y z
#
# Youngs Moduli (GPa) = 78.72809 93.50902 107.81250
#
# Poissons Ratio (x) = 0.27926 0.47139
# Poissons Ratio (y) = 0.23512 0.23764
# Poissons Ratio (z) = 0.34422 0.20612
#
# Static dielectric constant tensor:
#      x y z
#    x 3.364380 0.000000 0.000000 
#    y 0.000000 4.023850 0.000000 
#    z 0.000000 0.000000 3.913070 
# 
# 
# High freq. dielectric constant tensor:
#      x y z
#    x 1.854850 0.000000 0.000000 
#    y 0.000000 1.860270 0.000000 
#    z 0.000000 0.000000 1.860420 
# 
# From -- ./inp_files/6701.got.cif
#   From: 2010.03.12/outbox.cif.g09.slc.cpg/sg66_4_cif.got.tgz:6701.got - 2010.04.10 21:57:39.
