data_PCOD8277946
_publ_section_title
;
Structure prediction by ZEFSAII (Michael W. Deem and Ramdas Pophale) SiO2 
 PCOD8277946
Probable space group: C M M A
;
_chemical_formula_sum "Si O2"
_cell_formula_units_Z 64
_cell_length_a 19.318903
_cell_length_b 8.759419
_cell_length_c 20.930678
_cell_angle_alpha 90.000000
_cell_angle_beta 90.000000
_cell_angle_gamma 90.000000
_cell_volume 3541.938853
_symmetry_space_group_name_H-M "C M M A"
_symmetry_group_IT_number 67
_symmetry_cell_setting 'orthorhombic'
loop_
_space_group_symop_operation_xyz
x,y,z
-x,1/2-y,z
x,-y,-z
-x,1/2+y,-z
-x,-y,-z
x,1/2+y,-z
-x,y,z
x,1/2-y,z
1/2+x,1/2+y,z
1/2-x,-y,z
1/2+x,1/2-y,-z
1/2-x,y,-z
1/2-x,1/2-y,-z
1/2+x,y,-z
1/2-x,1/2+y,z
1/2+x,-y,z
loop_
_atom_site_type_symbol
_atom_site_label
_atom_site_fract_x
_atom_site_fract_y
_atom_site_fract_z
Si Si1 0.420569 0.570564 0.565779
Si Si2 0.827027 0.930978 0.063305
Si Si3 0.324417 0.426407 0.812940
Si Si4 0.825355 0.072939 0.328316
O O1 0.391777 0.500000 0.500000
O O2 0.500000 0.521595 0.576060
O O3 0.411462 0.750000 0.561885
O O4 0.377753 0.507829 0.624637
O O5 0.825994 0.750000 0.058974
O O6 0.750000 0.000000 0.066032
O O7 0.865051 0.986885 0.128984
O O8 0.864442 0.000000 0.000000
O O9 0.317538 0.250000 0.831958
O O10 0.250000 0.500000 0.805823
O O11 0.358560 0.447112 0.743004
O O12 0.818331 0.250000 0.345840
O O13 0.750000 0.000000 0.334803
#
# Coordination Sequence:
#
# PCOD8277946 Si02
#       4
#    16  16  16  16
#     4  10  21  37  56  76  99 127 160 199 242 289
#     4  10  16  22  33  50  76 112 152 191 230 275
#     4   9  16  26  39  58  85 117 152 190 233 278
#     4  10  20  33  51  74 101 131 163 201 243 290
#
# _framework density 18.069199999999999
#
# number of rings (size 3 to 8) (size 9 to 14) (size 15 to 20)
#    0.000    2.250    0.000    6.750    0.000    5.000 
#    0.000    2.500    0.000    0.000    0.000    0.000 
#    0.000    1.000    0.000    3.250    0.000   13.000 
#
# Total GULP energy -396526.566322 kJ/mol
# GULP energy per Si atom -12391.455198 kJ/mol
# Density = 1.802807 g / cm^3
# Si number density = 18.069200 Si / 1000 Ang^3
#
#
#
# Elastic Constant Matrix: (Units=GPa)
#
#
# Indices 1 2 3 4 5 6 
#
# 1 32.5741 26.8009 41.7066 0.0000 0.0000 0.0000
# 2 26.8009 136.9321 71.3071 0.0000 0.0000 0.0000
# 3 41.7066 71.3071 171.4901 0.0000 0.0000 0.0000
# 4 0.0000 0.0000 0.0000 38.3820 0.0000 0.0000
# 5 0.0000 0.0000 0.0000 0.0000 -5.9335 0.0000
# 6 0.0000 0.0000 0.0000 0.0000 0.0000 18.1569
#
#
#
# Elastic Compliance Matrix: (Units=1/GPa)
#
#
# Indices 1 2 3 4 5 6 
#
# 1 0.046303 -0.004082 -0.009563 0.000000 0.000000 0.000000
# 2 -0.004082 0.009681 -0.003033 0.000000 0.000000 0.000000
# 3 -0.009563 -0.003033 0.009418 0.000000 0.000000 0.000000
# 4 0.000000 0.000000 0.000000 0.026054 0.000000 0.000000
# 5 0.000000 0.000000 0.000000 0.000000 -0.168534 0.000000
# 6 0.000000 0.000000 0.000000 0.000000 0.000000 0.055076
#
#
# Mechanical properties :
#
#
# Convention : Reuss Voigt Hill
#
# Bulk Modulus (GPa) = 31.20618 68.95839 50.08228
# Shear Modulus (GPa) = 226.90927 23.53320 125.22123
#
# Velocity S-wave (km/s) = 11.21831 3.61278 8.33375
# Velocity P-wave (km/s) = 13.60546 7.45984 10.97173
#
# Compressibility (1/GPa) = 0.03204494
#
# Stress axis : x y z
#
# Youngs Moduli (GPa) = 21.59707 103.29327 106.17907
#
# Poissons Ratio (x) = 0.42169 1.01542
# Poissons Ratio (y) = 0.08817 0.32200
# Poissons Ratio (z) = 0.20654 0.31325
#
# Static dielectric constant tensor:
#      x y z
#    x 2.707670 0.000000 0.000000 
#    y 0.000000 3.513020 0.000000 
#    z 0.000000 0.000000 4.703140 
# 
# 
# High freq. dielectric constant tensor:
#      x y z
#    x 1.614530 0.000000 0.000000 
#    y 0.000000 1.723670 0.000000 
#    z 0.000000 0.000000 1.736210 
# 
# From -- ./inp_files/31739.got.cif
#   From: 2010.03.12/outbox.cif.g09.slc.cpg/sg67_16_cif.got.tgz:31739.got - 2010.04.10 22:41:39.
