data_PCOD8277473
_publ_section_title
;
Structure prediction by ZEFSAII (Michael W. Deem and Ramdas Pophale) SiO2 
 PCOD8277473
Probable space group: C C C M
;
_chemical_formula_sum "Si O2"
_cell_formula_units_Z 96
_cell_length_a 14.790531
_cell_length_b 13.550066
_cell_length_c 22.170317
_cell_angle_alpha 90.000000
_cell_angle_beta 90.000000
_cell_angle_gamma 90.000000
_cell_volume 4443.212452
_symmetry_space_group_name_H-M "C C C M"
_symmetry_group_IT_number 66
_symmetry_cell_setting 'orthorhombic'
loop_
_space_group_symop_operation_xyz
x,y,z
-x,-y,z
x,-y,1/2-z
-x,y,1/2-z
-x,-y,-z
x,y,-z
-x,y,1/2+z
x,-y,1/2+z
1/2+x,1/2+y,z
1/2-x,1/2-y,z
1/2+x,1/2-y,1/2-z
1/2-x,1/2+y,1/2-z
1/2-x,1/2-y,-z
1/2+x,1/2+y,-z
1/2-x,1/2+y,1/2+z
1/2+x,1/2-y,1/2+z
loop_
_atom_site_type_symbol
_atom_site_label
_atom_site_fract_x
_atom_site_fract_y
_atom_site_fract_z
Si Si1 0.396190 0.997412 0.321077
Si Si2 0.500000 0.500000 0.400340
Si Si3 0.153185 0.700223 0.373617
Si Si4 0.846458 0.302558 0.873073
Si Si5 0.637811 0.493070 0.500000
Si Si6 0.491895 0.679335 0.819495
Si Si7 0.353861 0.270796 0.500000
Si Si8 0.305542 0.849091 0.500000
O O1 0.339834 0.081561 0.357327
O O2 0.500000 0.000000 0.343875
O O3 0.391395 0.000000 0.250000
O O4 0.346821 0.894922 0.332166
O O5 0.582547 0.457831 0.440976
O O6 0.539269 0.585162 0.357792
O O7 0.250000 0.750000 0.371304
O O8 0.131444 0.656725 0.440760
O O9 0.082796 0.779592 0.349182
O O10 0.750000 0.250000 0.868077
O O11 0.913212 0.260526 0.822217
O O12 0.892304 0.280410 0.938938
O O13 0.634478 0.611771 0.500000
O O14 0.737738 0.444820 0.500000
O O15 0.500000 0.648930 0.750000
O O16 0.250000 0.250000 0.500000
O O17 0.250000 0.750000 0.500000
#
# Coordination Sequence:
#
# PCOD8277473 Si02
#       8
#    16   8  16  16   8  16   8   8
#     4  11  24  45  68  95 137 186 229 277 342 416
#     4  11  23  40  68 100 135 183 228 280 360 419
#     4  11  25  44  70 100 135 179 231 291 347 416
#     4  11  25  44  70 101 136 180 233 289 356 421
#     4  11  22  42  69  98 137 181 224 281 364 430
#     4  12  25  44  66  98 141 184 237 290 340 416
#     4  10  23  42  68  99 135 171 221 291 351 418
#     4  10  23  42  65  99 136 173 225 287 346 417
#
# _framework density 21.605991
#
# number of rings (size 3 to 8) (size 9 to 14) (size 15 to 20)
#    0.000    1.000    3.333    3.250    4.667    5.333 
#    0.000    0.833    0.000    0.000    0.000    0.000 
#    0.000    0.000    0.000    0.000    0.000    0.000 
#
# Total GULP energy -595046.143428 kJ/mol
# GULP energy per Si atom -12396.794655 kJ/mol
# Density = 2.155681 g / cm^3
# Si number density = 21.605991 Si / 1000 Ang^3
#
#
#
# Elastic Constant Matrix: (Units=GPa)
#
#
# Indices 1 2 3 4 5 6 
#
# 1 85.5279 16.2971 38.6211 0.0000 0.0000 0.0000
# 2 16.2971 105.8813 39.2555 0.0000 0.0000 0.0000
# 3 38.6211 39.2555 146.2966 0.0000 0.0000 0.0000
# 4 0.0000 0.0000 0.0000 44.3127 0.0000 0.0000
# 5 0.0000 0.0000 0.0000 0.0000 -11.8250 0.0000
# 6 0.0000 0.0000 0.0000 0.0000 0.0000 33.0319
#
#
#
# Elastic Compliance Matrix: (Units=1/GPa)
#
#
# Indices 1 2 3 4 5 6 
#
# 1 0.013340 -0.000830 -0.003299 0.000000 0.000000 0.000000
# 2 -0.000830 0.010540 -0.002609 0.000000 0.000000 0.000000
# 3 -0.003299 -0.002609 0.008406 0.000000 0.000000 0.000000
# 4 0.000000 0.000000 0.000000 0.022567 0.000000 0.000000
# 5 0.000000 0.000000 0.000000 0.000000 -0.084567 0.000000
# 6 0.000000 0.000000 0.000000 0.000000 0.000000 0.030274
#
#
# Mechanical properties :
#
#
# Convention : Reuss Voigt Hill
#
# Bulk Modulus (GPa) = 53.16348 58.45035 55.80692
# Shear Modulus (GPa) = 246.23828 29.33940 137.78884
#
# Velocity S-wave (km/s) = 10.68714 3.68901 7.99449
# Velocity P-wave (km/s) = 13.30210 6.72730 10.54046
#
# Compressibility (1/GPa) = 0.01880991
#
# Stress axis : x y z
#
# Youngs Moduli (GPa) = 74.96296 94.88054 118.95785
#
# Poissons Ratio (x) = 0.07877 0.39243
# Poissons Ratio (y) = 0.06223 0.31035
# Poissons Ratio (z) = 0.24729 0.24753
#
# Static dielectric constant tensor:
#      x y z
#    x 3.874940 0.000000 0.000000 
#    y 0.000000 6.572540 0.000000 
#    z 0.000000 0.000000 4.848530 
# 
# 
# High freq. dielectric constant tensor:
#      x y z
#    x 1.830830 0.000000 0.000000 
#    y 0.000000 1.858110 0.000000 
#    z 0.000000 0.000000 1.866090 
# 
# From -- ./inp_files/49933.got.cif
#   From: 2010.03.12/outbox.cif.g09.slc.cpg/sg66_25_cif.got.tgz:49933.got - 2010.04.10 21:57:39.
