data_PCOD8277803
_publ_section_title
;
Structure prediction by ZEFSAII (Michael W. Deem and Ramdas Pophale) SiO2 
 PCOD8277803
Probable space group: C C C M
;
_chemical_formula_sum "Si O2"
_cell_formula_units_Z 64
_cell_length_a 24.395768
_cell_length_b 4.883630
_cell_length_c 24.585427
_cell_angle_alpha 90.000000
_cell_angle_beta 90.000000
_cell_angle_gamma 90.000000
_cell_volume 2929.105424
_symmetry_space_group_name_H-M "C C C M"
_symmetry_group_IT_number 66
_symmetry_cell_setting 'orthorhombic'
loop_
_space_group_symop_operation_xyz
x,y,z
-x,-y,z
x,-y,1/2-z
-x,y,1/2-z
-x,-y,-z
x,y,-z
-x,y,1/2+z
x,-y,1/2+z
1/2+x,1/2+y,z
1/2-x,1/2-y,z
1/2+x,1/2-y,1/2-z
1/2-x,1/2+y,1/2-z
1/2-x,1/2-y,-z
1/2+x,1/2+y,-z
1/2-x,1/2+y,1/2+z
1/2+x,1/2-y,1/2+z
loop_
_atom_site_type_symbol
_atom_site_label
_atom_site_fract_x
_atom_site_fract_y
_atom_site_fract_z
Si Si1 0.940035 0.887221 0.623458
Si Si2 0.642319 0.250631 0.213967
Si Si3 0.713282 0.013750 0.880519
Si Si4 0.102373 0.608989 0.436677
O O1 0.908191 0.876694 0.680330
O O2 0.939517 0.588051 0.595863
O O3 0.909021 0.081849 0.580990
O O4 0.000000 0.000000 0.635821
O O5 0.666355 0.500000 0.250000
O O6 0.619672 0.000000 0.250000
O O7 0.690032 0.132265 0.175968
O O8 0.750000 0.750000 0.867864
O O9 0.665364 0.952154 0.922987
O O10 0.750000 0.250000 0.907929
O O11 0.091402 0.573945 0.500000
#
# Coordination Sequence:
#
# PCOD8277803 Si02
#       4
#    16  16  16  16
#     4  11  24  43  65  93 128 163 206 258 309 368
#     4  11  23  42  64  90 125 163 207 257 308 367
#     4  11  23  41  63  90 124 162 206 256 308 366
#     4  11  24  42  65  94 127 163 207 257 308 369
#
# _framework density 21.849675000000001
#
# number of rings (size 3 to 8) (size 9 to 14) (size 15 to 20)
#    0.000    1.000    0.000    9.000    0.000    6.500 
#    0.000    6.250    0.000    0.000    0.000    0.000 
#    0.000    0.000    0.000    0.000    0.000    0.000 
#
# Total GULP energy -396944.634640 kJ/mol
# GULP energy per Si atom -12404.519832 kJ/mol
# Density = 2.179994 g / cm^3
# Si number density = 21.849675 Si / 1000 Ang^3
#
#
#
# Elastic Constant Matrix: (Units=GPa)
#
#
# Indices 1 2 3 4 5 6 
#
# 1 113.1233 27.8371 -1.4992 0.0000 0.0000 0.0000
# 2 27.8371 113.5960 16.4343 0.0000 0.0000 0.0000
# 3 -1.4992 16.4343 50.3774 0.0000 0.0000 0.0000
# 4 0.0000 0.0000 0.0000 38.6886 0.0000 0.0000
# 5 0.0000 0.0000 0.0000 0.0000 6.5290 0.0000
# 6 0.0000 0.0000 0.0000 0.0000 0.0000 45.1401
#
#
#
# Elastic Compliance Matrix: (Units=1/GPa)
#
#
# Indices 1 2 3 4 5 6 
#
# 1 0.009464 -0.002477 0.001090 0.000000 0.000000 0.000000
# 2 -0.002477 0.009887 -0.003299 0.000000 0.000000 0.000000
# 3 0.001090 -0.003299 0.020959 0.000000 0.000000 0.000000
# 4 0.000000 0.000000 0.000000 0.025847 0.000000 0.000000
# 5 0.000000 0.000000 0.000000 0.000000 0.153163 0.000000
# 6 0.000000 0.000000 0.000000 0.000000 0.000000 0.022153
#
#
# Mechanical properties :
#
#
# Convention : Reuss Voigt Hill
#
# Bulk Modulus (GPa) = 32.32337 40.29345 36.30841
# Shear Modulus (GPa) = 19.14545 33.69317 26.41931
#
# Velocity S-wave (km/s) = 2.96334 3.93115 3.48104
# Velocity P-wave (km/s) = 5.15113 6.25192 5.72803
#
# Compressibility (1/GPa) = 0.03093736
#
# Stress axis : x y z
#
# Youngs Moduli (GPa) = 105.66541 101.13906 47.71251
#
# Poissons Ratio (x) = 0.25050 -0.05199
# Poissons Ratio (y) = 0.26171 0.15741
# Poissons Ratio (z) = -0.11514 0.33368
#
# Static dielectric constant tensor:
#      x y z
#    x 3.888040 0.000000 0.000000 
#    y 0.000000 4.326210 0.000000 
#    z 0.000000 0.000000 3.760510 
# 
# 
# High freq. dielectric constant tensor:
#      x y z
#    x 1.857400 0.000000 0.000000 
#    y 0.000000 1.887250 0.000000 
#    z 0.000000 0.000000 1.850140 
# 
# From -- ./inp_files/59164.got.cif
#   From: 2010.03.12/outbox.cif.g09.slc.cpg/sg66_30_cif.got.tgz:59164.got - 2010.04.10 21:57:39.
