data_PCOD8277345
_publ_section_title
;
Structure prediction by ZEFSAII (Michael W. Deem and Ramdas Pophale) SiO2 
 PCOD8277345
Probable space group: C C C M
;
_chemical_formula_sum "Si O2"
_cell_formula_units_Z 116
_cell_length_a 22.636667
_cell_length_b 25.880209
_cell_length_c 9.159697
_cell_angle_alpha 90.000000
_cell_angle_beta 90.000000
_cell_angle_gamma 90.000000
_cell_volume 5366.132215
_symmetry_space_group_name_H-M "C C C M"
_symmetry_group_IT_number 66
_symmetry_cell_setting 'orthorhombic'
loop_
_space_group_symop_operation_xyz
x,y,z
-x,-y,z
x,-y,1/2-z
-x,y,1/2-z
-x,-y,-z
x,y,-z
-x,y,1/2+z
x,-y,1/2+z
1/2+x,1/2+y,z
1/2-x,1/2-y,z
1/2+x,1/2-y,1/2-z
1/2-x,1/2+y,1/2-z
1/2-x,1/2-y,-z
1/2+x,1/2+y,-z
1/2-x,1/2+y,1/2+z
1/2+x,1/2-y,1/2+z
loop_
_atom_site_type_symbol
_atom_site_label
_atom_site_fract_x
_atom_site_fract_y
_atom_site_fract_z
Si Si1 0.120501 0.276521 0.832818
Si Si2 0.729918 0.191793 0.836415
Si Si3 0.441272 0.310569 0.673808
Si Si4 0.000000 0.000000 0.750000
Si Si5 0.836330 0.552165 0.171644
Si Si6 0.442450 0.877315 0.334946
Si Si7 0.283306 0.395291 0.831654
Si Si8 0.085265 0.088052 0.838296
O O1 0.174078 0.310620 0.770498
O O2 0.111391 0.225158 0.735210
O O3 0.064870 0.315225 0.823384
O O4 0.133363 0.260048 0.000000
O O5 0.750000 0.250000 0.844106
O O6 0.781798 0.156564 0.766815
O O7 0.714683 0.172014 0.000000
O O8 0.500000 0.288620 0.750000
O O9 0.444687 0.306067 0.500000
O O10 0.434600 0.370626 0.717409
O O11 0.044449 0.963133 0.660088
O O12 0.854071 0.500000 0.250000
O O13 0.883775 0.594500 0.224858
O O14 0.770458 0.568711 0.221453
O O15 0.838017 0.543472 0.000000
O O16 0.500000 0.895777 0.250000
O O17 0.452913 0.894456 0.500000
O O18 0.345709 0.425075 0.807862
O O19 0.274893 0.379210 0.000000
O O20 0.079035 0.113041 0.000000
#
# Coordination Sequence:
#
# PCOD8277345 Si02
#       8
#    16  16  16   4  16  16  16  16
#     4  11  22  40  65  93 132 178 220 270 332 399
#     4  11  23  38  60  96 136 171 217 273 329 392
#     4  12  25  42  64  94 134 175 224 281 336 404
#     4  12  26  44  76 106 142 172 228 292 344 412
#     4  10  22  42  64  92 128 167 216 273 325 389
#     4  10  22  40  63  92 128 167 213 264 319 383
#     4  10  22  43  67  93 131 175 222 270 332 407
#     4  11  25  45  70  99 132 176 223 276 344 409
#
# _framework density 21.617059999999999
#
# number of rings (size 3 to 8) (size 9 to 14) (size 15 to 20)
#    0.000    1.241    2.069    3.517    0.966    8.000 
#    0.000    1.379    0.000    0.000    0.000    0.000 
#    0.000    0.000    0.000    0.000    0.000    0.000 
#
# Total GULP energy -719126.132595 kJ/mol
# GULP energy per Si atom -12398.726424 kJ/mol
# Density = 2.156786 g / cm^3
# Si number density = 21.617060 Si / 1000 Ang^3
#
#
#
# Elastic Constant Matrix: (Units=GPa)
#
#
# Indices 1 2 3 4 5 6 
#
# 1 139.4127 43.5631 52.5306 0.0000 0.0000 0.0000
# 2 43.5631 108.0103 45.2685 0.0000 0.0000 0.0000
# 3 52.5306 45.2685 129.1162 0.0000 0.0000 0.0000
# 4 0.0000 0.0000 0.0000 28.0485 0.0000 0.0000
# 5 0.0000 0.0000 0.0000 0.0000 29.9159 0.0000
# 6 0.0000 0.0000 0.0000 0.0000 0.0000 36.7874
#
#
#
# Elastic Compliance Matrix: (Units=1/GPa)
#
#
# Indices 1 2 3 4 5 6 
#
# 1 0.008995 -0.002455 -0.002799 0.000000 0.000000 0.000000
# 2 -0.002455 0.011523 -0.003041 0.000000 0.000000 0.000000
# 3 -0.002799 -0.003041 0.009950 0.000000 0.000000 0.000000
# 4 0.000000 0.000000 0.000000 0.035653 0.000000 0.000000
# 5 0.000000 0.000000 0.000000 0.000000 0.033427 0.000000
# 6 0.000000 0.000000 0.000000 0.000000 0.000000 0.027183
#
#
# Mechanical properties :
#
#
# Convention : Reuss Voigt Hill
#
# Bulk Modulus (GPa) = 72.05689 73.25152 72.65421
# Shear Modulus (GPa) = 33.79611 34.62883 34.21247
#
# Velocity S-wave (km/s) = 3.95827 4.00674 3.98258
# Velocity P-wave (km/s) = 7.36860 7.44076 7.40477
#
# Compressibility (1/GPa) = 0.01387792
#
# Stress axis : x y z
#
# Youngs Moduli (GPa) = 111.17827 86.78235 100.50311
#
# Poissons Ratio (x) = 0.21303 0.28129
# Poissons Ratio (y) = 0.27291 0.30566
# Poissons Ratio (z) = 0.31116 0.26393
#
# Static dielectric constant tensor:
#      x y z
#    x 4.105880 0.000000 0.000000 
#    y 0.000000 3.696190 0.000000 
#    z 0.000000 0.000000 3.868010 
# 
# 
# High freq. dielectric constant tensor:
#      x y z
#    x 1.859550 0.000000 0.000000 
#    y 0.000000 1.838650 0.000000 
#    z 0.000000 0.000000 1.844360 
# 
# From -- ./inp_files/9450.got.cif
#   From: 2010.03.12/outbox.cif.g09.slc.cpg/sg66_5_cif.got.tgz:9450.got - 2010.04.10 21:57:39.
