data_PCOD8277909
_publ_section_title
;
Structure prediction by ZEFSAII (Michael W. Deem and Ramdas Pophale) SiO2 
 PCOD8277909
Probable space group: C C C M
;
_chemical_formula_sum "Si O2"
_cell_formula_units_Z 48
_cell_length_a 4.936708
_cell_length_b 29.185235
_cell_length_c 14.710414
_cell_angle_alpha 90.000000
_cell_angle_beta 90.000000
_cell_angle_gamma 90.000000
_cell_volume 2119.461490
_symmetry_space_group_name_H-M "C C C M"
_symmetry_group_IT_number 66
_symmetry_cell_setting 'orthorhombic'
loop_
_space_group_symop_operation_xyz
x,y,z
-x,-y,z
x,-y,1/2-z
-x,y,1/2-z
-x,-y,-z
x,y,-z
-x,y,1/2+z
x,-y,1/2+z
1/2+x,1/2+y,z
1/2-x,1/2-y,z
1/2+x,1/2-y,1/2-z
1/2-x,1/2+y,1/2-z
1/2-x,1/2-y,-z
1/2+x,1/2+y,-z
1/2-x,1/2+y,1/2+z
1/2+x,1/2-y,1/2+z
loop_
_atom_site_type_symbol
_atom_site_label
_atom_site_fract_x
_atom_site_fract_y
_atom_site_fract_z
Si Si1 0.096843 0.102454 0.847512
Si Si2 0.750000 0.750000 0.310261
Si Si3 0.420462 0.842841 0.102231
Si Si4 0.245584 0.966917 0.500000
O O1 0.333485 0.140472 0.832423
O O2 0.235097 0.063315 0.908677
O O3 0.000000 0.082927 0.750000
O O4 0.837843 0.123988 0.896268
O O5 0.500000 0.732519 0.250000
O O6 0.658054 0.791556 0.372981
O O7 0.536315 0.843456 0.000000
O O8 0.500000 0.000000 0.500000
O O9 0.000000 0.000000 0.500000
#
# Coordination Sequence:
#
# PCOD8277909 Si02
#       4
#    16   8  16   8
#     4  12  25  46  74 104 141 188 233 285 356 423
#     4  12  25  40  63 102 146 190 246 291 336 407
#     4  12  23  44  69 102 143 191 237 288 346 412
#     4  12  26  48  76 105 144 177 228 300 360 426
#
# _framework density 22.647262999999999
#
# number of rings (size 3 to 8) (size 9 to 14) (size 15 to 20)
#    0.000    0.000    3.333    8.500    0.000    0.667 
#    0.000    6.667    0.000    0.000    0.000    0.000 
#    0.000    0.000    0.000    0.000    0.000    0.000 
#
# Total GULP energy -297723.752382 kJ/mol
# GULP energy per Si atom -12405.156349 kJ/mol
# Density = 2.259572 g / cm^3
# Si number density = 22.647263 Si / 1000 Ang^3
#
#
#
# Elastic Constant Matrix: (Units=GPa)
#
#
# Indices 1 2 3 4 5 6 
#
# 1 158.2960 48.8602 48.7164 0.0000 0.0000 0.0000
# 2 48.8602 122.5071 66.6915 0.0000 0.0000 0.0000
# 3 48.7164 66.6915 146.5338 0.0000 0.0000 0.0000
# 4 0.0000 0.0000 0.0000 23.2839 0.0000 0.0000
# 5 0.0000 0.0000 0.0000 0.0000 38.5873 0.0000
# 6 0.0000 0.0000 0.0000 0.0000 0.0000 51.3546
#
#
#
# Elastic Compliance Matrix: (Units=1/GPa)
#
#
# Indices 1 2 3 4 5 6 
#
# 1 0.007442 -0.002155 -0.001493 0.000000 0.000000 0.000000
# 2 -0.002155 0.011476 -0.004506 0.000000 0.000000 0.000000
# 3 -0.001493 -0.004506 0.009372 0.000000 0.000000 0.000000
# 4 0.000000 0.000000 0.000000 0.042948 0.000000 0.000000
# 5 0.000000 0.000000 0.000000 0.000000 0.025915 0.000000
# 6 0.000000 0.000000 0.000000 0.000000 0.000000 0.019472
#
#
# Mechanical properties :
#
#
# Convention : Reuss Voigt Hill
#
# Bulk Modulus (GPa) = 83.47420 83.98590 83.73005
# Shear Modulus (GPa) = 36.51549 40.18307 38.34928
#
# Velocity S-wave (km/s) = 4.01977 4.21682 4.11947
# Velocity P-wave (km/s) = 7.64743 7.80215 7.72518
#
# Compressibility (1/GPa) = 0.01197975
#
# Stress axis : x y z
#
# Youngs Moduli (GPa) = 134.37087 87.14163 106.70353
#
# Poissons Ratio (x) = 0.18781 0.15934
# Poissons Ratio (y) = 0.28960 0.48084
# Poissons Ratio (z) = 0.20065 0.39269
#
# Static dielectric constant tensor:
#      x y z
#    x 4.380640 0.000000 0.000000 
#    y 0.000000 4.048100 0.000000 
#    z 0.000000 0.000000 4.026670 
# 
# 
# High freq. dielectric constant tensor:
#      x y z
#    x 1.918250 0.000000 0.000000 
#    y 0.000000 1.889420 0.000000 
#    z 0.000000 0.000000 1.901610 
# 
# From -- ./inp_files/22323.got.cif
#   From: 2010.03.12/outbox.cif.g09.slc.cpg/sg66_12_cif.got.tgz:22323.got - 2010.04.10 21:57:39.
