data_PCOD8277351
_publ_section_title
;
Structure prediction by ZEFSAII (Michael W. Deem and Ramdas Pophale) SiO2 
 PCOD8277351
Probable space group: C C C M
;
_chemical_formula_sum "Si O2"
_cell_formula_units_Z 48
_cell_length_a 10.827639
_cell_length_b 12.085787
_cell_length_c 15.700805
_cell_angle_alpha 90.000000
_cell_angle_beta 90.000000
_cell_angle_gamma 90.000000
_cell_volume 2054.615800
_symmetry_space_group_name_H-M "C C C M"
_symmetry_group_IT_number 66
_symmetry_cell_setting 'orthorhombic'
loop_
_space_group_symop_operation_xyz
x,y,z
-x,-y,z
x,-y,1/2-z
-x,y,1/2-z
-x,-y,-z
x,y,-z
-x,y,1/2+z
x,-y,1/2+z
1/2+x,1/2+y,z
1/2-x,1/2-y,z
1/2+x,1/2-y,1/2-z
1/2-x,1/2+y,1/2-z
1/2-x,1/2-y,-z
1/2+x,1/2+y,-z
1/2-x,1/2+y,1/2+z
1/2+x,1/2-y,1/2+z
loop_
_atom_site_type_symbol
_atom_site_label
_atom_site_fract_x
_atom_site_fract_y
_atom_site_fract_z
Si Si1 0.230614 0.908273 0.100370
Si Si2 0.055437 0.262600 0.342281
Si Si3 0.812176 0.644699 0.902696
O O1 0.092287 0.858082 0.117016
O O2 0.322454 0.836439 0.158115
O O3 0.253022 0.032516 0.135714
O O4 0.262424 0.897608 0.000000
O O5 0.000000 0.242174 0.250000
O O6 0.958910 0.337153 0.396178
O O7 0.750000 0.750000 0.855436
O O8 0.770921 0.642483 0.000000
#
# Coordination Sequence:
#
# PCOD8277351 Si02
#       3
#    16  16  16
#     4  10  22  43  69  93 126 175 223 267 324 398
#     4  11  23  39  63  97 130 166 218 273 331 393
#     4  10  22  40  64  93 127 169 218 267 320 390
#
# _framework density 23.362031000000002
#
# number of rings (size 3 to 8) (size 9 to 14) (size 15 to 20)
#    0.000    1.667    0.000    5.000    4.667    6.667 
#    0.000    6.667    0.000    0.000    0.000    0.000 
#    0.000    0.000    0.000    0.000    0.000    0.000 
#
# Total GULP energy -297322.055062 kJ/mol
# GULP energy per Si atom -12388.418961 kJ/mol
# Density = 2.330886 g / cm^3
# Si number density = 23.362031 Si / 1000 Ang^3
#
#
#
# Elastic Constant Matrix: (Units=GPa)
#
#
# Indices 1 2 3 4 5 6 
#
# 1 78.2632 73.3160 39.3781 0.0000 0.0000 0.0000
# 2 73.3160 236.8474 42.9679 0.0000 0.0000 0.0000
# 3 39.3781 42.9679 62.8988 0.0000 0.0000 0.0000
# 4 0.0000 0.0000 0.0000 5.2741 0.0000 0.0000
# 5 0.0000 0.0000 0.0000 0.0000 43.5959 0.0000
# 6 0.0000 0.0000 0.0000 0.0000 0.0000 56.1539
#
#
#
# Elastic Compliance Matrix: (Units=1/GPa)
#
#
# Indices 1 2 3 4 5 6 
#
# 1 0.023134 -0.005175 -0.010948 0.000000 0.000000 0.000000
# 2 -0.005175 0.005977 -0.000843 0.000000 0.000000 0.000000
# 3 -0.010948 -0.000843 0.023329 0.000000 0.000000 0.000000
# 4 0.000000 0.000000 0.000000 0.189606 0.000000 0.000000
# 5 0.000000 0.000000 0.000000 0.000000 0.022938 0.000000
# 6 0.000000 0.000000 0.000000 0.000000 0.000000 0.017808
#
#
# Mechanical properties :
#
#
# Convention : Reuss Voigt Hill
#
# Bulk Modulus (GPa) = 54.03302 76.59260 65.31281
# Shear Modulus (GPa) = 15.48503 35.82792 25.65648
#
# Velocity S-wave (km/s) = 2.57734 3.92036 3.31752
# Velocity P-wave (km/s) = 5.66001 7.30401 6.53392
#
# Compressibility (1/GPa) = 0.01850720
#
# Stress axis : x y z
#
# Youngs Moduli (GPa) = 43.22729 167.30812 42.86596
#
# Poissons Ratio (x) = 0.86580 0.46929
# Poissons Ratio (y) = 0.22370 0.03615
# Poissons Ratio (z) = 0.47324 0.14109
#
# Static dielectric constant tensor:
#      x y z
#    x 4.492920 0.000000 0.000000 
#    y 0.000000 4.987620 0.000000 
#    z 0.000000 0.000000 3.776760 
# 
# 
# High freq. dielectric constant tensor:
#      x y z
#    x 1.920170 0.000000 0.000000 
#    y 0.000000 1.937440 0.000000 
#    z 0.000000 0.000000 1.903440 
# 
# From -- ./inp_files/25171.got.cif
#   From: 2010.03.12/outbox.cif.g09.slc.cpg/sg66_13_cif.got.tgz:25171.got - 2010.04.10 21:57:39.
