data_PCOD8277614
_publ_section_title
;
Structure prediction by ZEFSAII (Michael W. Deem and Ramdas Pophale) SiO2 
 PCOD8277614
Probable space group: C C C M
;
_chemical_formula_sum "Si O2"
_cell_formula_units_Z 64
_cell_length_a 17.153865
_cell_length_b 17.777456
_cell_length_c 9.897118
_cell_angle_alpha 90.000000
_cell_angle_beta 90.000000
_cell_angle_gamma 90.000000
_cell_volume 3018.146723
_symmetry_space_group_name_H-M "C C C M"
_symmetry_group_IT_number 66
_symmetry_cell_setting 'orthorhombic'
loop_
_space_group_symop_operation_xyz
x,y,z
-x,-y,z
x,-y,1/2-z
-x,y,1/2-z
-x,-y,-z
x,y,-z
-x,y,1/2+z
x,-y,1/2+z
1/2+x,1/2+y,z
1/2-x,1/2-y,z
1/2+x,1/2-y,1/2-z
1/2-x,1/2+y,1/2-z
1/2-x,1/2-y,-z
1/2+x,1/2+y,-z
1/2-x,1/2+y,1/2+z
1/2+x,1/2-y,1/2+z
loop_
_atom_site_type_symbol
_atom_site_label
_atom_site_fract_x
_atom_site_fract_y
_atom_site_fract_z
Si Si1 0.427375 0.422581 0.500000
Si Si2 0.076694 0.304507 0.658896
Si Si3 0.694280 0.070545 0.152553
Si Si4 0.655268 0.657576 0.726291
Si Si5 0.889687 0.917872 0.000000
O O1 0.412513 0.377091 0.635533
O O2 0.366185 0.493847 0.500000
O O3 0.518915 0.433799 0.500000
O O4 0.057773 0.289305 0.500000
O O5 0.111905 0.387942 0.678777
O O6 0.142659 0.247080 0.715025
O O7 0.000000 0.296419 0.750000
O O8 0.760454 0.133508 0.173067
O O9 0.704980 0.000000 0.250000
O O10 0.697094 0.039795 0.000000
O O11 0.643844 0.628003 0.876228
#
# Coordination Sequence:
#
# PCOD8277614 Si02
#       5
#     8  16  16  16   8
#     4  11  20  38  59  88 134 178 225 263 324 396
#     4  11  25  46  71  99 134 177 224 275 334 397
#     4  11  25  46  71  99 134 177 224 275 334 397
#     4  12  23  40  66  97 132 174 219 273 333 394
#     4  11  24  34  57  96 136 176 223 269 322 388
#
# _framework density 21.205065000000001
#
# number of rings (size 3 to 8) (size 9 to 14) (size 15 to 20)
#    0.000    0.750    2.500    5.250    3.500    5.500 
#    0.000    3.750    0.000    0.000    0.000    0.000 
#    0.000    0.000    0.000    0.000    0.000    0.000 
#
# Total GULP energy -396735.977130 kJ/mol
# GULP energy per Si atom -12397.999285 kJ/mol
# Density = 2.115680 g / cm^3
# Si number density = 21.205065 Si / 1000 Ang^3
#
#
#
# Elastic Constant Matrix: (Units=GPa)
#
#
# Indices 1 2 3 4 5 6 
#
# 1 62.7483 36.4462 21.4370 0.0000 0.0000 0.0000
# 2 36.4462 92.6708 35.9608 0.0000 0.0000 0.0000
# 3 21.4370 35.9608 130.4505 0.0000 0.0000 0.0000
# 4 0.0000 0.0000 0.0000 12.5998 0.0000 0.0000
# 5 0.0000 0.0000 0.0000 0.0000 73.9837 0.0000
# 6 0.0000 0.0000 0.0000 0.0000 0.0000 32.6328
#
#
#
# Elastic Compliance Matrix: (Units=1/GPa)
#
#
# Indices 1 2 3 4 5 6 
#
# 1 0.020852 -0.007694 -0.001306 0.000000 0.000000 0.000000
# 2 -0.007694 0.014923 -0.002849 0.000000 0.000000 0.000000
# 3 -0.001306 -0.002849 0.008666 0.000000 0.000000 0.000000
# 4 0.000000 0.000000 0.000000 0.079366 0.000000 0.000000
# 5 0.000000 0.000000 0.000000 0.000000 0.013516 0.000000
# 6 0.000000 0.000000 0.000000 0.000000 0.000000 0.030644
#
#
# Mechanical properties :
#
#
# Convention : Reuss Voigt Hill
#
# Bulk Modulus (GPa) = 48.21108 52.61750 50.41429
# Shear Modulus (GPa) = 25.17899 36.64499 30.91199
#
# Velocity S-wave (km/s) = 3.44961 4.16158 3.82221
# Velocity P-wave (km/s) = 6.21703 6.92526 6.58068
#
# Compressibility (1/GPa) = 0.02074212
#
# Stress axis : x y z
#
# Youngs Moduli (GPa) = 47.95783 67.01283 115.39703
#
# Poissons Ratio (x) = 0.51560 0.15066
# Poissons Ratio (y) = 0.36899 0.32880
# Poissons Ratio (z) = 0.06261 0.19094
#
# Static dielectric constant tensor:
#      x y z
#    x 3.694970 0.000000 0.000000 
#    y 0.000000 3.937770 0.000000 
#    z 0.000000 0.000000 3.705830 
# 
# 
# High freq. dielectric constant tensor:
#      x y z
#    x 1.827170 0.000000 0.000000 
#    y 0.000000 1.836330 0.000000 
#    z 0.000000 0.000000 1.841130 
# 
# From -- ./inp_files/7407.got.cif
#   From: 2010.03.12/outbox.cif.g09.slc.cpg/sg66_4_cif.got.tgz:7407.got - 2010.04.10 21:57:39.
