data_PCOD8277736
_publ_section_title
;
Structure prediction by ZEFSAII (Michael W. Deem and Ramdas Pophale) SiO2 
 PCOD8277736
Probable space group: C C C M
;
_chemical_formula_sum "Si O2"
_cell_formula_units_Z 64
_cell_length_a 11.265842
_cell_length_b 15.587993
_cell_length_c 16.499406
_cell_angle_alpha 90.000000
_cell_angle_beta 90.000000
_cell_angle_gamma 90.000000
_cell_volume 2897.491479
_symmetry_space_group_name_H-M "C C C M"
_symmetry_group_IT_number 66
_symmetry_cell_setting 'orthorhombic'
loop_
_space_group_symop_operation_xyz
x,y,z
-x,-y,z
x,-y,1/2-z
-x,y,1/2-z
-x,-y,-z
x,y,-z
-x,y,1/2+z
x,-y,1/2+z
1/2+x,1/2+y,z
1/2-x,1/2-y,z
1/2+x,1/2-y,1/2-z
1/2-x,1/2+y,1/2-z
1/2-x,1/2-y,-z
1/2+x,1/2+y,-z
1/2-x,1/2+y,1/2+z
1/2+x,1/2-y,1/2+z
loop_
_atom_site_type_symbol
_atom_site_label
_atom_site_fract_x
_atom_site_fract_y
_atom_site_fract_z
Si Si1 0.878258 0.451571 0.091969
Si Si2 0.881008 0.720610 0.306264
Si Si3 0.476289 0.632189 0.908180
Si Si4 0.661671 0.476019 0.657475
O O1 0.869069 0.373111 0.154612
O O2 0.796348 0.527828 0.128145
O O3 0.000000 0.500000 0.092408
O O4 0.845234 0.422785 0.000000
O O5 0.750000 0.750000 0.267983
O O6 0.905231 0.785732 0.378670
O O7 0.000000 0.722660 0.250000
O O8 0.597863 0.615434 0.857375
O O9 0.394445 0.548978 0.899619
O O10 0.512729 0.648178 0.000000
O O11 0.644145 0.500000 0.750000
#
# Coordination Sequence:
#
# PCOD8277736 Si02
#       4
#    16  16  16  16
#     4  11  26  45  68  99 138 182 227 278 348 419
#     4  12  27  45  71 101 139 180 235 287 348 410
#     4  11  22  40  68  99 133 174 226 283 338 400
#     4  11  22  38  67 100 138 172 224 280 338 404
#
# _framework density 22.088069999999998
#
# number of rings (size 3 to 8) (size 9 to 14) (size 15 to 20)
#    0.000    0.750    2.500    6.750    3.500    1.000 
#    0.000    0.000    0.000    6.000    0.000    0.000 
#    0.000    0.000    0.000    0.000    0.000    0.000 
#
# Total GULP energy -396476.938314 kJ/mol
# GULP energy per Si atom -12389.904322 kJ/mol
# Density = 2.203780 g / cm^3
# Si number density = 22.088070 Si / 1000 Ang^3
#
#
#
# Elastic Constant Matrix: (Units=GPa)
#
#
# Indices 1 2 3 4 5 6 
#
# 1 145.0980 28.1272 60.6394 0.0000 0.0000 0.0000
# 2 28.1272 54.8570 1.1700 0.0000 0.0000 0.0000
# 3 60.6394 1.1700 109.1029 0.0000 0.0000 0.0000
# 4 0.0000 0.0000 0.0000 33.1756 0.0000 0.0000
# 5 0.0000 0.0000 0.0000 0.0000 44.4977 0.0000
# 6 0.0000 0.0000 0.0000 0.0000 0.0000 32.3719
#
#
#
# Elastic Compliance Matrix: (Units=1/GPa)
#
#
# Indices 1 2 3 4 5 6 
#
# 1 0.010243 -0.005132 -0.005638 0.000000 0.000000 0.000000
# 2 -0.005132 0.020804 0.002629 0.000000 0.000000 0.000000
# 3 -0.005638 0.002629 0.012271 0.000000 0.000000 0.000000
# 4 0.000000 0.000000 0.000000 0.030143 0.000000 0.000000
# 5 0.000000 0.000000 0.000000 0.000000 0.022473 0.000000
# 6 0.000000 0.000000 0.000000 0.000000 0.000000 0.030891
#
#
# Mechanical properties :
#
#
# Convention : Reuss Voigt Hill
#
# Bulk Modulus (GPa) = 36.98614 54.32568 45.65591
# Shear Modulus (GPa) = 32.86913 36.61713 34.74313
#
# Velocity S-wave (km/s) = 3.86177 4.07600 3.97033
# Velocity P-wave (km/s) = 6.05521 6.84106 6.46010
#
# Compressibility (1/GPa) = 0.02703715
#
# Stress axis : x y z
#
# Youngs Moduli (GPa) = 97.62881 48.06694 81.49264
#
# Poissons Ratio (x) = 0.24666 0.45945
# Poissons Ratio (y) = 0.50100 -0.21425
# Poissons Ratio (z) = 0.55043 -0.12637
#
# Static dielectric constant tensor:
#      x y z
#    x 4.925520 0.000000 0.000000 
#    y 0.000000 4.405490 0.000000 
#    z 0.000000 0.000000 4.077300 
# 
# 
# High freq. dielectric constant tensor:
#      x y z
#    x 1.892370 0.000000 0.000000 
#    y 0.000000 1.853590 0.000000 
#    z 0.000000 0.000000 1.870340 
# 
# From -- ./inp_files/25743.got.cif
#   From: 2010.03.12/outbox.cif.g09.slc.cpg/sg66_13_cif.got.tgz:25743.got - 2010.04.10 21:57:39.
