data_PCOD8277150
_publ_section_title
;
Structure prediction by ZEFSAII (Michael W. Deem and Ramdas Pophale) SiO2 
 PCOD8277150
Probable space group: C C C M
;
_chemical_formula_sum "Si O2"
_cell_formula_units_Z 56
_cell_length_a 30.794939
_cell_length_b 4.978351
_cell_length_c 16.333595
_cell_angle_alpha 90.000000
_cell_angle_beta 90.000000
_cell_angle_gamma 90.000000
_cell_volume 2504.071033
_symmetry_space_group_name_H-M "C C C M"
_symmetry_group_IT_number 66
_symmetry_cell_setting 'orthorhombic'
loop_
_space_group_symop_operation_xyz
x,y,z
-x,-y,z
x,-y,1/2-z
-x,y,1/2-z
-x,-y,-z
x,y,-z
-x,y,1/2+z
x,-y,1/2+z
1/2+x,1/2+y,z
1/2-x,1/2-y,z
1/2+x,1/2-y,1/2-z
1/2-x,1/2+y,1/2-z
1/2-x,1/2-y,-z
1/2+x,1/2+y,-z
1/2-x,1/2+y,1/2+z
1/2+x,1/2-y,1/2+z
loop_
_atom_site_type_symbol
_atom_site_label
_atom_site_fract_x
_atom_site_fract_y
_atom_site_fract_z
Si Si1 0.880756 0.398394 0.840971
Si Si2 0.750000 0.750000 0.192320
Si Si3 0.334885 0.386401 0.094243
Si Si4 0.970948 0.240431 0.907793
O O1 0.872972 0.500000 0.750000
O O2 0.871161 0.650956 0.900281
O O3 0.929403 0.289582 0.851606
O O4 0.848431 0.153137 0.857394
O O5 0.759158 0.500000 0.250000
O O6 0.709262 0.717811 0.133116
O O7 0.327843 0.462876 0.000000
O O8 0.000000 0.500000 0.908624
O O9 0.955361 0.165889 0.000000
O O10 0.000000 0.000000 0.870622
#
# Coordination Sequence:
#
# PCOD8277150 Si02
#       4
#    16   8  16  16
#     4  12  25  43  67  98 135 174 220 276 333 388
#     4  12  25  44  69  98 136 172 214 272 333 388
#     4  12  25  44  69  98 132 175 223 268 325 397
#     4  10  21  39  64  93 127 168 213 262 319 384
#
# _framework density 22.363579999999999
#
# number of rings (size 3 to 8) (size 9 to 14) (size 15 to 20)
#    0.000    0.571    0.000    9.857    0.000    2.857 
#    0.000    5.714    0.000    0.000    0.000    0.000 
#    0.000    0.000    0.000    0.000    0.000    0.000 
#
# Total GULP energy -347415.202950 kJ/mol
# GULP energy per Si atom -12407.685820 kJ/mol
# Density = 2.231268 g / cm^3
# Si number density = 22.363580 Si / 1000 Ang^3
#
#
#
# Elastic Constant Matrix: (Units=GPa)
#
#
# Indices 1 2 3 4 5 6 
#
# 1 122.6646 58.5806 78.7054 0.0000 0.0000 0.0000
# 2 58.5806 174.0402 66.0894 0.0000 0.0000 0.0000
# 3 78.7054 66.0894 124.8870 0.0000 0.0000 0.0000
# 4 0.0000 0.0000 0.0000 34.4703 0.0000 0.0000
# 5 0.0000 0.0000 0.0000 0.0000 31.8465 0.0000
# 6 0.0000 0.0000 0.0000 0.0000 0.0000 46.7495
#
#
#
# Elastic Compliance Matrix: (Units=1/GPa)
#
#
# Indices 1 2 3 4 5 6 
#
# 1 0.014084 -0.001715 -0.007969 0.000000 0.000000 0.000000
# 2 -0.001715 0.007400 -0.002835 0.000000 0.000000 0.000000
# 3 -0.007969 -0.002835 0.014530 0.000000 0.000000 0.000000
# 4 0.000000 0.000000 0.000000 0.029010 0.000000 0.000000
# 5 0.000000 0.000000 0.000000 0.000000 0.031401 0.000000
# 6 0.000000 0.000000 0.000000 0.000000 0.000000 0.021391
#
#
# Mechanical properties :
#
#
# Convention : Reuss Voigt Hill
#
# Bulk Modulus (GPa) = 91.10555 92.03806 91.57180
# Shear Modulus (GPa) = 34.12727 37.16104 35.64415
#
# Velocity S-wave (km/s) = 3.91067 4.08079 3.99663
# Velocity P-wave (km/s) = 7.82419 7.96545 7.89514
#
# Compressibility (1/GPa) = 0.01097628
#
# Stress axis : x y z
#
# Youngs Moduli (GPa) = 71.00233 135.14313 68.82541
#
# Poissons Ratio (x) = 0.23172 0.54844
# Poissons Ratio (y) = 0.12174 0.19514
# Poissons Ratio (z) = 0.56579 0.38316
#
# Static dielectric constant tensor:
#      x y z
#    x 4.015380 0.000000 0.000000 
#    y 0.000000 4.356690 0.000000 
#    z 0.000000 0.000000 4.001440 
# 
# 
# High freq. dielectric constant tensor:
#      x y z
#    x 1.890780 0.000000 0.000000 
#    y 0.000000 1.904720 0.000000 
#    z 0.000000 0.000000 1.878990 
# 
# From -- ./inp_files/33542.got.cif
#   From: 2010.03.12/outbox.cif.g09.slc.cpg/sg66_17_cif.got.tgz:33542.got - 2010.04.10 21:57:39.
