data_PCOD8277363
_publ_section_title
;
Structure prediction by ZEFSAII (Michael W. Deem and Ramdas Pophale) SiO2 
 PCOD8277363
Probable space group: C C C M
;
_chemical_formula_sum "Si O2"
_cell_formula_units_Z 96
_cell_length_a 9.599589
_cell_length_b 21.185247
_cell_length_c 22.594498
_cell_angle_alpha 90.000000
_cell_angle_beta 90.000000
_cell_angle_gamma 90.000000
_cell_volume 4595.035468
_symmetry_space_group_name_H-M "C C C M"
_symmetry_group_IT_number 66
_symmetry_cell_setting 'orthorhombic'
loop_
_space_group_symop_operation_xyz
x,y,z
-x,-y,z
x,-y,1/2-z
-x,y,1/2-z
-x,-y,-z
x,y,-z
-x,y,1/2+z
x,-y,1/2+z
1/2+x,1/2+y,z
1/2-x,1/2-y,z
1/2+x,1/2-y,1/2-z
1/2-x,1/2+y,1/2-z
1/2-x,1/2-y,-z
1/2+x,1/2+y,-z
1/2-x,1/2+y,1/2+z
1/2+x,1/2-y,1/2+z
loop_
_atom_site_type_symbol
_atom_site_label
_atom_site_fract_x
_atom_site_fract_y
_atom_site_fract_z
Si Si1 0.051660 0.339045 0.114510
Si Si2 0.956390 0.205121 0.067916
Si Si3 0.151742 0.607651 0.268482
Si Si4 0.652215 0.488464 0.668652
Si Si5 0.740549 0.124770 0.144362
Si Si6 0.311411 0.396613 0.936218
O O1 0.133555 0.342953 0.177701
O O2 0.152773 0.372171 0.067776
O O3 0.007580 0.268732 0.098561
O O4 0.910664 0.379273 0.114613
O O5 0.835791 0.173809 0.108140
O O6 0.092967 0.164059 0.068298
O O7 0.902467 0.215399 0.000000
O O8 0.248572 0.546918 0.283992
O O9 0.224210 0.645215 0.213721
O O10 0.000000 0.580861 0.250000
O O11 0.500000 0.500000 0.697174
O O12 0.708757 0.553503 0.643263
O O13 0.636502 0.445143 0.611733
O O14 0.327859 0.429587 0.000000
#
# Coordination Sequence:
#
# PCOD8277363 Si02
#       6
#    16  16  16  16  16  16
#     4  10  22  41  63  92 124 168 215 261 322 382
#     4  11  23  42  67  93 130 172 215 268 320 383
#     4   9  22  42  64  90 128 169 210 266 323 389
#     4  11  22  41  66  95 127 166 215 261 321 391
#     4  11  23  40  63  94 129 164 209 265 327 384
#     4  10  22  41  65  92 124 166 212 264 314 375
#
# _framework density 20.892113999999999
#
# number of rings (size 3 to 8) (size 9 to 14) (size 15 to 20)
#    0.000    1.667    1.667    2.000    0.000   13.667 
#    0.000   19.167    0.000    0.000    0.000    0.000 
#    0.000    0.000    0.000    0.000    0.000    0.000 
#
# Total GULP energy -594897.508461 kJ/mol
# GULP energy per Si atom -12393.698093 kJ/mol
# Density = 2.084456 g / cm^3
# Si number density = 20.892114 Si / 1000 Ang^3
#
#
#
# Elastic Constant Matrix: (Units=GPa)
#
#
# Indices 1 2 3 4 5 6 
#
# 1 121.1513 34.7999 66.4798 0.0000 0.0000 0.0000
# 2 34.7999 90.3111 59.0338 0.0000 0.0000 0.0000
# 3 66.4798 59.0338 127.7134 0.0000 0.0000 0.0000
# 4 0.0000 0.0000 0.0000 19.2782 0.0000 0.0000
# 5 0.0000 0.0000 0.0000 0.0000 -34.7394 0.0000
# 6 0.0000 0.0000 0.0000 0.0000 0.0000 -34.0862
#
#
#
# Elastic Compliance Matrix: (Units=1/GPa)
#
#
# Indices 1 2 3 4 5 6 
#
# 1 0.011590 -0.000749 -0.005687 0.000000 0.000000 0.000000
# 2 -0.000749 0.015915 -0.006967 0.000000 0.000000 0.000000
# 3 -0.005687 -0.006967 0.014011 0.000000 0.000000 0.000000
# 4 0.000000 0.000000 0.000000 0.051872 0.000000 0.000000
# 5 0.000000 0.000000 0.000000 0.000000 -0.028786 0.000000
# 6 0.000000 0.000000 0.000000 0.000000 0.000000 -0.029337
#
#
# Mechanical properties :
#
#
# Convention : Reuss Voigt Hill
#
# Bulk Modulus (GPa) = 67.97684 73.31142 70.64413
# Shear Modulus (GPa) = 74.65620 2.01465 38.33543
#
# Velocity S-wave (km/s) = 5.98429 0.98306 4.28825
# Velocity P-wave (km/s) = 8.96419 6.03781 7.64238
#
# Compressibility (1/GPa) = 0.01471089
#
# Stress axis : x y z
#
# Youngs Moduli (GPa) = 86.28306 62.83205 71.37388
#
# Poissons Ratio (x) = 0.04703 0.40590
# Poissons Ratio (y) = 0.06459 0.49727
# Poissons Ratio (z) = 0.49069 0.43775
#
# Static dielectric constant tensor:
#      x y z
#    x 4.173580 0.000000 0.000000 
#    y 0.000000 3.582650 0.000000 
#    z 0.000000 0.000000 4.185750 
# 
# 
# High freq. dielectric constant tensor:
#      x y z
#    x 1.836880 0.000000 0.000000 
#    y 0.000000 1.803090 0.000000 
#    z 0.000000 0.000000 1.833470 
# 
# From -- ./inp_files/55590.got.cif
#   From: 2010.03.12/outbox.cif.g09.slc.cpg/sg66_28_cif.got.tgz:55590.got - 2010.04.10 21:57:39.
