data_PCOD8277783
_publ_section_title
;
Structure prediction by ZEFSAII (Michael W. Deem and Ramdas Pophale) SiO2 
 PCOD8277783
Probable space group: C C C M
;
_chemical_formula_sum "Si O2"
_cell_formula_units_Z 68
_cell_length_a 15.220590
_cell_length_b 20.041095
_cell_length_c 10.241016
_cell_angle_alpha 90.000000
_cell_angle_beta 90.000000
_cell_angle_gamma 90.000000
_cell_volume 3123.891769
_symmetry_space_group_name_H-M "C C C M"
_symmetry_group_IT_number 66
_symmetry_cell_setting 'orthorhombic'
loop_
_space_group_symop_operation_xyz
x,y,z
-x,-y,z
x,-y,1/2-z
-x,y,1/2-z
-x,-y,-z
x,y,-z
-x,y,1/2+z
x,-y,1/2+z
1/2+x,1/2+y,z
1/2-x,1/2-y,z
1/2+x,1/2-y,1/2-z
1/2-x,1/2+y,1/2-z
1/2-x,1/2-y,-z
1/2+x,1/2+y,-z
1/2-x,1/2+y,1/2+z
1/2+x,1/2-y,1/2+z
loop_
_atom_site_type_symbol
_atom_site_label
_atom_site_fract_x
_atom_site_fract_y
_atom_site_fract_z
Si Si1 0.127478 0.389042 0.852498
Si Si2 0.571989 0.257981 0.350410
Si Si3 0.000000 0.500000 0.750000
Si Si4 0.403295 0.563961 0.500000
Si Si5 0.814220 0.870436 0.764467
Si Si6 0.593170 0.592241 0.500000
O O1 0.075626 0.320967 0.827556
O O2 0.063364 0.452317 0.834309
O O3 0.210359 0.386303 0.754603
O O4 0.164121 0.391531 0.000000
O O5 0.500000 0.287558 0.250000
O O6 0.545262 0.272462 0.500000
O O7 0.664017 0.295360 0.316264
O O8 0.352149 0.577425 0.632884
O O9 0.490004 0.611873 0.500000
O O10 0.416715 0.486214 0.500000
O O11 0.855612 0.879867 0.623449
#
# Coordination Sequence:
#
# PCOD8277783 Si02
#       6
#    16  16   4   8  16   8
#     4  11  25  47  71 100 136 184 239 283 352 416
#     4  11  23  44  71 102 138 184 233 286 348 413
#     4  12  26  48  72 106 138 182 226 304 346 406
#     4  11  22  44  65  96 140 188 229 281 354 422
#     4  12  24  42  71 102 136 186 232 290 343 419
#     4  11  26  40  63 104 144 176 233 287 352 416
#
# _framework density 21.767719
#
# number of rings (size 3 to 8) (size 9 to 14) (size 15 to 20)
#    0.000    0.706    3.529    3.882    4.941    3.765 
#    4.235    1.176    0.000    0.000    0.000    0.000 
#    0.000    0.000    0.000    0.000    0.000    0.000 
#
# Total GULP energy -421483.328621 kJ/mol
# GULP energy per Si atom -12396.568489 kJ/mol
# Density = 2.171817 g / cm^3
# Si number density = 21.767719 Si / 1000 Ang^3
#
#
#
# Elastic Constant Matrix: (Units=GPa)
#
#
# Indices 1 2 3 4 5 6 
#
# 1 122.4045 35.9764 51.5184 0.0000 0.0000 0.0000
# 2 35.9764 115.8593 17.0883 0.0000 0.0000 0.0000
# 3 51.5184 17.0883 141.8538 0.0000 0.0000 0.0000
# 4 0.0000 0.0000 0.0000 22.8059 0.0000 0.0000
# 5 0.0000 0.0000 0.0000 0.0000 36.1121 0.0000
# 6 0.0000 0.0000 0.0000 0.0000 0.0000 33.0193
#
#
#
# Elastic Compliance Matrix: (Units=1/GPa)
#
#
# Indices 1 2 3 4 5 6 
#
# 1 0.010427 -0.002728 -0.003458 0.000000 0.000000 0.000000
# 2 -0.002728 0.009501 -0.000154 0.000000 0.000000 0.000000
# 3 -0.003458 -0.000154 0.008324 0.000000 0.000000 0.000000
# 4 0.000000 0.000000 0.000000 0.043848 0.000000 0.000000
# 5 0.000000 0.000000 0.000000 0.000000 0.027692 0.000000
# 6 0.000000 0.000000 0.000000 0.000000 0.000000 0.030285
#
#
# Mechanical properties :
#
#
# Convention : Reuss Voigt Hill
#
# Bulk Modulus (GPa) = 64.21719 65.47596 64.84657
# Shear Modulus (GPa) = 33.79584 36.75642 35.27613
#
# Velocity S-wave (km/s) = 3.94454 4.11368 4.03000
# Velocity P-wave (km/s) = 7.09302 7.26002 7.17701
#
# Compressibility (1/GPa) = 0.01557216
#
# Stress axis : x y z
#
# Youngs Moduli (GPa) = 95.90615 105.25377 120.13441
#
# Poissons Ratio (x) = 0.28710 0.41545
# Poissons Ratio (y) = 0.26160 0.01849
# Poissons Ratio (z) = 0.33167 0.01620
#
# Static dielectric constant tensor:
#      x y z
#    x 3.914890 0.000000 0.000000 
#    y 0.000000 3.979070 0.000000 
#    z 0.000000 0.000000 3.841040 
# 
# 
# High freq. dielectric constant tensor:
#      x y z
#    x 1.852860 0.000000 0.000000 
#    y 0.000000 1.872770 0.000000 
#    z 0.000000 0.000000 1.853840 
# 
# From -- ./inp_files/16179.got.cif
#   From: 2010.03.12/outbox.cif.g09.slc.cpg/sg66_9_cif.got.tgz:16179.got - 2010.04.10 21:57:39.
