data_PCOD8277158
_publ_section_title
;
Structure prediction by ZEFSAII (Michael W. Deem and Ramdas Pophale) SiO2 
 PCOD8277158
Probable space group: C C C M
;
_chemical_formula_sum "Si O2"
_cell_formula_units_Z 112
_cell_length_a 26.725952
_cell_length_b 11.596342
_cell_length_c 17.223331
_cell_angle_alpha 90.000000
_cell_angle_beta 90.000000
_cell_angle_gamma 90.000000
_cell_volume 5337.911230
_symmetry_space_group_name_H-M "C C C M"
_symmetry_group_IT_number 66
_symmetry_cell_setting 'orthorhombic'
loop_
_space_group_symop_operation_xyz
x,y,z
-x,-y,z
x,-y,1/2-z
-x,y,1/2-z
-x,-y,-z
x,y,-z
-x,y,1/2+z
x,-y,1/2+z
1/2+x,1/2+y,z
1/2-x,1/2-y,z
1/2+x,1/2-y,1/2-z
1/2-x,1/2+y,1/2-z
1/2-x,1/2-y,-z
1/2+x,1/2+y,-z
1/2-x,1/2+y,1/2+z
1/2+x,1/2-y,1/2+z
loop_
_atom_site_type_symbol
_atom_site_label
_atom_site_fract_x
_atom_site_fract_y
_atom_site_fract_z
Si Si1 0.567733 0.988171 0.661121
Si Si2 0.309455 0.259900 0.410864
Si Si3 0.045832 0.914550 0.412021
Si Si4 0.680189 0.024139 0.836797
Si Si5 0.352585 0.503265 0.841434
Si Si6 0.500658 0.177820 0.409486
Si Si7 0.736308 0.624934 0.909553
O O1 0.539573 0.075843 0.604867
O O2 0.550418 0.000000 0.750000
O O3 0.625045 0.026690 0.652355
O O4 0.551927 0.858389 0.632708
O O5 0.327791 0.246531 0.500000
O O6 0.250000 0.250000 0.407357
O O7 0.328192 0.158145 0.355465
O O8 0.332597 0.376898 0.376873
O O9 0.064223 0.893908 0.500000
O O10 0.025474 0.794639 0.375159
O O11 0.091340 0.971338 0.365557
O O12 0.000000 0.000000 0.408511
O O13 0.700194 0.000000 0.750000
O O14 0.719449 0.966402 0.894881
O O15 0.350168 0.500000 0.750000
O O16 0.315539 0.404418 0.869520
O O17 0.489259 0.195374 0.500000
O O18 0.750000 0.750000 0.876211
O O19 0.726152 0.628275 0.000000
#
# Coordination Sequence:
#
# PCOD8277158 Si02
#       7
#    16  16  16  16  16  16  16
#     4  10  22  40  61  95 131 168 206 269 331 387
#     4  11  24  43  68  96 131 179 229 274 326 402
#     4  10  24  46  67  93 129 170 219 273 328 398
#     4  11  25  40  66  99 134 170 220 276 334 397
#     4  12  27  44  69  98 137 177 222 282 340 400
#     4  10  21  39  65  91 122 167 217 263 316 386
#     4  11  25  43  67  97 134 178 221 268 331 406
#
# _framework density 20.981992000000002
#
# number of rings (size 3 to 8) (size 9 to 14) (size 15 to 20)
#    0.000    1.286    1.429    3.857    6.000    3.714 
#    2.571    0.000    0.000    0.000    0.000    0.000 
#    0.000    0.000    0.000    0.000    0.000    0.000 
#
# Total GULP energy -694275.162682 kJ/mol
# GULP energy per Si atom -12397.770762 kJ/mol
# Density = 2.093424 g / cm^3
# Si number density = 20.981992 Si / 1000 Ang^3
#
#
#
# Elastic Constant Matrix: (Units=GPa)
#
#
# Indices 1 2 3 4 5 6 
#
# 1 93.9716 25.5116 27.4421 0.0000 0.0000 0.0000
# 2 25.5116 131.4423 45.5193 0.0000 0.0000 0.0000
# 3 27.4421 45.5193 112.1686 0.0000 0.0000 0.0000
# 4 0.0000 0.0000 0.0000 49.3115 0.0000 0.0000
# 5 0.0000 0.0000 0.0000 0.0000 20.5032 0.0000
# 6 0.0000 0.0000 0.0000 0.0000 0.0000 32.9934
#
#
#
# Elastic Compliance Matrix: (Units=1/GPa)
#
#
# Indices 1 2 3 4 5 6 
#
# 1 0.011706 -0.001490 -0.002259 0.000000 0.000000 0.000000
# 2 -0.001490 0.009041 -0.003305 0.000000 0.000000 0.000000
# 3 -0.002259 -0.003305 0.010809 0.000000 0.000000 0.000000
# 4 0.000000 0.000000 0.000000 0.020279 0.000000 0.000000
# 5 0.000000 0.000000 0.000000 0.000000 0.048773 0.000000
# 6 0.000000 0.000000 0.000000 0.000000 0.000000 0.030309
#
#
# Mechanical properties :
#
#
# Convention : Reuss Voigt Hill
#
# Bulk Modulus (GPa) = 57.30996 59.39204 58.35100
# Shear Modulus (GPa) = 33.14752 36.50225 34.82489
#
# Velocity S-wave (km/s) = 3.97899 4.17549 4.07842
# Velocity P-wave (km/s) = 6.96297 7.18428 7.07449
#
# Compressibility (1/GPa) = 0.01744897
#
# Stress axis : x y z
#
# Youngs Moduli (GPa) = 85.42868 110.60180 92.51564
#
# Poissons Ratio (x) = 0.16474 0.20902
# Poissons Ratio (y) = 0.12725 0.30574
# Poissons Ratio (z) = 0.19301 0.36551
#
# Static dielectric constant tensor:
#      x y z
#    x 4.074240 0.000000 0.000000 
#    y 0.000000 4.127640 0.000000 
#    z 0.000000 0.000000 3.828430 
# 
# 
# High freq. dielectric constant tensor:
#      x y z
#    x 1.832570 0.000000 0.000000 
#    y 0.000000 1.827890 0.000000 
#    z 0.000000 0.000000 1.823650 
# 
# From -- ./inp_files/33835.got.cif
#   From: 2010.03.12/outbox.cif.g09.slc.cpg/sg66_17_cif.got.tgz:33835.got - 2010.04.10 21:57:39.
