data_PCOD8277651
_publ_section_title
;
Structure prediction by ZEFSAII (Michael W. Deem and Ramdas Pophale) SiO2 
 PCOD8277651
Probable space group: C C C M
;
_chemical_formula_sum "Si O2"
_cell_formula_units_Z 64
_cell_length_a 19.469755
_cell_length_b 20.571913
_cell_length_c 8.352085
_cell_angle_alpha 90.000000
_cell_angle_beta 90.000000
_cell_angle_gamma 90.000000
_cell_volume 3345.261490
_symmetry_space_group_name_H-M "C C C M"
_symmetry_group_IT_number 66
_symmetry_cell_setting 'orthorhombic'
loop_
_space_group_symop_operation_xyz
x,y,z
-x,-y,z
x,-y,1/2-z
-x,y,1/2-z
-x,-y,-z
x,y,-z
-x,y,1/2+z
x,-y,1/2+z
1/2+x,1/2+y,z
1/2-x,1/2-y,z
1/2+x,1/2-y,1/2-z
1/2-x,1/2+y,1/2-z
1/2-x,1/2-y,-z
1/2+x,1/2+y,-z
1/2-x,1/2+y,1/2+z
1/2+x,1/2-y,1/2+z
loop_
_atom_site_type_symbol
_atom_site_label
_atom_site_fract_x
_atom_site_fract_y
_atom_site_fract_z
Si Si1 0.703355 0.067715 0.685900
Si Si2 0.212355 0.184355 0.313819
Si Si3 0.429025 0.128310 0.313468
Si Si4 0.073897 0.229438 0.186816
O O1 0.686331 0.063280 0.500000
O O2 0.758252 0.124077 0.715503
O O3 0.632729 0.079175 0.782012
O O4 0.734621 0.000000 0.750000
O O5 0.227010 0.172406 0.500000
O O6 0.250000 0.250000 0.254978
O O7 0.131424 0.188641 0.280396
O O8 0.500000 0.096795 0.250000
O O9 0.435013 0.145189 0.500000
O O10 0.414505 0.194507 0.218186
O O11 0.000000 0.206100 0.250000
O O12 0.080365 0.215037 0.000000
#
# Coordination Sequence:
#
# PCOD8277651 Si02
#       4
#    16  16  16  16
#     4  12  25  41  60  85 118 157 199 243 295 351
#     4  11  22  38  62  89 119 154 197 245 294 345
#     4  11  21  36  56  83 117 156 198 241 289 346
#     4  11  21  35  58  88 120 154 194 242 295 347
#
# _framework density 19.131539
#
# number of rings (size 3 to 8) (size 9 to 14) (size 15 to 20)
#    0.000    0.750    2.500    9.000    0.000    1.500 
#    0.000    2.500    0.000    0.750    0.000    5.250 
#    0.000    0.000    0.000    0.000    0.000    0.000 
#
# Total GULP energy -397029.509513 kJ/mol
# GULP energy per Si atom -12407.172172 kJ/mol
# Density = 1.908799 g / cm^3
# Si number density = 19.131539 Si / 1000 Ang^3
#
#
#
# Elastic Constant Matrix: (Units=GPa)
#
#
# Indices 1 2 3 4 5 6 
#
# 1 119.1530 48.5276 18.8501 0.0000 0.0000 0.0000
# 2 48.5276 91.1843 14.5321 0.0000 0.0000 0.0000
# 3 18.8501 14.5321 85.6833 0.0000 0.0000 0.0000
# 4 0.0000 0.0000 0.0000 27.7001 0.0000 0.0000
# 5 0.0000 0.0000 0.0000 0.0000 33.2289 0.0000
# 6 0.0000 0.0000 0.0000 0.0000 0.0000 16.6779
#
#
#
# Elastic Compliance Matrix: (Units=1/GPa)
#
#
# Indices 1 2 3 4 5 6 
#
# 1 0.010888 -0.005563 -0.001452 0.000000 0.000000 0.000000
# 2 -0.005563 0.014114 -0.001170 0.000000 0.000000 0.000000
# 3 -0.001452 -0.001170 0.012189 0.000000 0.000000 0.000000
# 4 0.000000 0.000000 0.000000 0.036101 0.000000 0.000000
# 5 0.000000 0.000000 0.000000 0.000000 0.030094 0.000000
# 6 0.000000 0.000000 0.000000 0.000000 0.000000 0.059960
#
#
# Mechanical properties :
#
#
# Convention : Reuss Voigt Hill
#
# Bulk Modulus (GPa) = 48.02857 51.09336 49.56096
# Shear Modulus (GPa) = 26.78733 29.79543 28.29138
#
# Velocity S-wave (km/s) = 3.74594 3.95067 3.84967
# Velocity P-wave (km/s) = 6.62332 6.89744 6.76177
#
# Compressibility (1/GPa) = 0.02082094
#
# Stress axis : x y z
#
# Youngs Moduli (GPa) = 91.84470 70.85222 82.04321
#
# Poissons Ratio (x) = 0.39416 0.11911
# Poissons Ratio (y) = 0.51094 0.09598
# Poissons Ratio (z) = 0.13334 0.08289
#
# Static dielectric constant tensor:
#      x y z
#    x 3.665690 0.000000 0.000000 
#    y 0.000000 3.273190 0.000000 
#    z 0.000000 0.000000 3.549400 
# 
# 
# High freq. dielectric constant tensor:
#      x y z
#    x 1.749000 0.000000 0.000000 
#    y 0.000000 1.712390 0.000000 
#    z 0.000000 0.000000 1.764410 
# 
# From -- ./inp_files/6165.got.cif
#   From: 2010.03.12/outbox.cif.g09.slc.cpg/sg66_4_cif.got.tgz:6165.got - 2010.04.10 21:57:39.
