data_PCOD8277926
_publ_section_title
;
Structure prediction by ZEFSAII (Michael W. Deem and Ramdas Pophale) SiO2 
 PCOD8277926
Probable space group: C C C M
;
_chemical_formula_sum "Si O2"
_cell_formula_units_Z 52
_cell_length_a 10.136803
_cell_length_b 30.916936
_cell_length_c 9.891992
_cell_angle_alpha 90.000000
_cell_angle_beta 90.000000
_cell_angle_gamma 90.000000
_cell_volume 3100.139309
_symmetry_space_group_name_H-M "C C C M"
_symmetry_group_IT_number 66
_symmetry_cell_setting 'orthorhombic'
loop_
_space_group_symop_operation_xyz
x,y,z
-x,-y,z
x,-y,1/2-z
-x,y,1/2-z
-x,-y,-z
x,y,-z
-x,y,1/2+z
x,-y,1/2+z
1/2+x,1/2+y,z
1/2-x,1/2-y,z
1/2+x,1/2-y,1/2-z
1/2-x,1/2+y,1/2-z
1/2-x,1/2-y,-z
1/2+x,1/2+y,-z
1/2-x,1/2+y,1/2+z
1/2+x,1/2-y,1/2+z
loop_
_atom_site_type_symbol
_atom_site_label
_atom_site_fract_x
_atom_site_fract_y
_atom_site_fract_z
Si Si1 0.881671 0.376231 0.155285
Si Si2 0.000000 0.000000 0.750000
Si Si3 0.609235 0.416797 0.152005
Si Si4 0.119679 0.275603 0.344478
O O1 0.754065 0.403326 0.200677
O O2 0.850829 0.325969 0.178523
O O3 0.000000 0.392255 0.250000
O O4 0.919840 0.385618 0.000000
O O5 0.093879 0.030864 0.658640
O O6 0.500000 0.394662 0.250000
O O7 0.584753 0.400124 0.000000
O O8 0.082206 0.265794 0.500000
O O9 0.250000 0.250000 0.300469
O O10 0.000000 0.259818 0.250000
#
# Coordination Sequence:
#
# PCOD8277926 Si02
#       4
#    16   4  16  16
#     4   9  18  33  49  70  97 126 159 195 235 281
#     4   8  18  32  52  68  98 120 156 196 242 280
#     4   9  18  31  50  71  94 122 156 195 236 281
#     4   9  18  32  49  69  97 128 158 196 236 276
#
# _framework density 16.773440999999998
#
# number of rings (size 3 to 8) (size 9 to 14) (size 15 to 20)
#    0.923    2.154    0.000    0.462    0.000    3.077 
#    0.000    0.769    0.000    3.692    0.000    0.000 
#    0.000    0.000    0.000    0.000    0.000    0.000 
#
# Total GULP energy -322264.399195 kJ/mol
# GULP energy per Si atom -12394.784584 kJ/mol
# Density = 1.673526 g / cm^3
# Si number density = 16.773441 Si / 1000 Ang^3
#
#
#
# Elastic Constant Matrix: (Units=GPa)
#
#
# Indices 1 2 3 4 5 6 
#
# 1 175.7015 62.3190 90.9059 0.0000 0.0000 0.0000
# 2 62.3190 50.7030 29.0954 0.0000 0.0000 0.0000
# 3 90.9059 29.0954 91.5884 0.0000 0.0000 0.0000
# 4 0.0000 0.0000 0.0000 9.4046 0.0000 0.0000
# 5 0.0000 0.0000 0.0000 0.0000 38.3958 0.0000
# 6 0.0000 0.0000 0.0000 0.0000 0.0000 36.9802
#
#
#
# Elastic Compliance Matrix: (Units=1/GPa)
#
#
# Indices 1 2 3 4 5 6 
#
# 1 0.017094 -0.013787 -0.012586 0.000000 0.000000 0.000000
# 2 -0.013787 0.035240 0.002490 0.000000 0.000000 0.000000
# 3 -0.012586 0.002490 0.022620 0.000000 0.000000 0.000000
# 4 0.000000 0.000000 0.000000 0.106330 0.000000 0.000000
# 5 0.000000 0.000000 0.000000 0.000000 0.026044 0.000000
# 6 0.000000 0.000000 0.000000 0.000000 0.000000 0.027042
#
#
# Mechanical properties :
#
#
# Convention : Reuss Voigt Hill
#
# Bulk Modulus (GPa) = 36.78399 75.84816 56.31608
# Shear Modulus (GPa) = 17.17031 26.00098 21.58564
#
# Velocity S-wave (km/s) = 3.20294 3.94144 3.59122
# Velocity P-wave (km/s) = 5.97126 8.12592 7.13045
#
# Compressibility (1/GPa) = 0.02718574
#
# Stress axis : x y z
#
# Youngs Moduli (GPa) = 58.50097 28.37685 44.20833
#
# Poissons Ratio (x) = 0.39124 0.55643
# Poissons Ratio (y) = 0.80657 -0.11006
# Poissons Ratio (z) = 0.73632 -0.07065
#
# Static dielectric constant tensor:
#      x y z
#    x 3.100150 0.000000 0.000000 
#    y 0.000000 2.953200 0.000000 
#    z 0.000000 0.000000 3.143390 
# 
# 
# High freq. dielectric constant tensor:
#      x y z
#    x 1.642820 0.000000 0.000000 
#    y 0.000000 1.627890 0.000000 
#    z 0.000000 0.000000 1.648530 
# 
# From -- ./inp_files/3612.got.cif
#   From: 2010.03.12/outbox.cif.g09.slc.cpg/sg66_2_cif.got.tgz:3612.got - 2010.04.10 21:57:39.
