data_PCOD8277731
_publ_section_title
;
Structure prediction by ZEFSAII (Michael W. Deem and Ramdas Pophale) SiO2 
 PCOD8277731
Probable space group: C C C M
;
_chemical_formula_sum "Si O2"
_cell_formula_units_Z 112
_cell_length_a 13.538621
_cell_length_b 26.739923
_cell_length_c 14.773216
_cell_angle_alpha 90.000000
_cell_angle_beta 90.000000
_cell_angle_gamma 90.000000
_cell_volume 5348.224521
_symmetry_space_group_name_H-M "C C C M"
_symmetry_group_IT_number 66
_symmetry_cell_setting 'orthorhombic'
loop_
_space_group_symop_operation_xyz
x,y,z
-x,-y,z
x,-y,1/2-z
-x,y,1/2-z
-x,-y,-z
x,y,-z
-x,y,1/2+z
x,-y,1/2+z
1/2+x,1/2+y,z
1/2-x,1/2-y,z
1/2+x,1/2-y,1/2-z
1/2-x,1/2+y,1/2-z
1/2-x,1/2-y,-z
1/2+x,1/2+y,-z
1/2-x,1/2+y,1/2+z
1/2+x,1/2-y,1/2+z
loop_
_atom_site_type_symbol
_atom_site_label
_atom_site_fract_x
_atom_site_fract_y
_atom_site_fract_z
Si Si1 0.343854 0.170022 0.101222
Si Si2 0.440380 0.842697 0.901110
Si Si3 0.237667 0.305637 0.283729
Si Si4 0.223697 0.922352 0.399557
Si Si5 0.455033 0.050818 0.349125
Si Si6 0.614133 0.610524 0.270428
Si Si7 0.265408 0.538768 0.106900
O O1 0.457489 0.186155 0.119089
O O2 0.277858 0.198288 0.175679
O O3 0.325344 0.109564 0.110282
O O4 0.312058 0.187275 0.000000
O O5 0.358678 0.831910 0.826223
O O6 0.479837 0.899890 0.905387
O O7 0.397712 0.828268 0.000000
O O8 0.250000 0.250000 0.324110
O O9 0.334553 0.338445 0.307151
O O10 0.178949 0.916180 0.500000
O O11 0.147043 0.900246 0.330396
O O12 0.235674 0.980043 0.376978
O O13 0.500000 0.055061 0.250000
O O14 0.336056 0.054115 0.345183
O O15 0.500000 0.000000 0.395318
O O16 0.500000 0.618162 0.250000
O O17 0.643376 0.566097 0.341171
O O18 0.268399 0.552822 0.000000
#
# Coordination Sequence:
#
# PCOD8277731 Si02
#       7
#    16  16  16  16  16  16  16
#     4   9  19  37  63  94 125 154 194 257 332 399
#     4  11  22  38  61  92 130 167 201 251 327 399
#     4  11  24  42  66  88 121 163 217 273 326 384
#     4   9  20  38  62  91 124 166 212 258 315 384
#     4  11  23  33  59  96 134 171 208 250 318 397
#     4  11  25  42  63  87 121 168 221 274 321 373
#     4  11  23  39  61  92 134 174 212 258 317 389
#
# _framework density 20.941528999999999
#
# number of rings (size 3 to 8) (size 9 to 14) (size 15 to 20)
#    0.000    1.571    1.429    3.000    6.000    5.714 
#    0.000    1.429    0.000    0.000    0.000    0.000 
#    0.000    0.000    0.000    0.000    0.000    0.000 
#
# Total GULP energy -693770.616002 kJ/mol
# GULP energy per Si atom -12388.761000 kJ/mol
# Density = 2.089386 g / cm^3
# Si number density = 20.941529 Si / 1000 Ang^3
#
#
#
# Elastic Constant Matrix: (Units=GPa)
#
#
# Indices 1 2 3 4 5 6 
#
# 1 110.1653 15.6535 43.7218 0.0000 0.0000 0.0000
# 2 15.6535 82.5231 25.3882 0.0000 0.0000 0.0000
# 3 43.7218 25.3882 86.2078 0.0000 0.0000 0.0000
# 4 0.0000 0.0000 0.0000 29.4465 0.0000 0.0000
# 5 0.0000 0.0000 0.0000 0.0000 16.0866 0.0000
# 6 0.0000 0.0000 0.0000 0.0000 0.0000 16.6225
#
#
#
# Elastic Compliance Matrix: (Units=1/GPa)
#
#
# Indices 1 2 3 4 5 6 
#
# 1 0.011378 -0.000421 -0.005647 0.000000 0.000000 0.000000
# 2 -0.000421 0.013341 -0.003715 0.000000 0.000000 0.000000
# 3 -0.005647 -0.003715 0.015558 0.000000 0.000000 0.000000
# 4 0.000000 0.000000 0.000000 0.033960 0.000000 0.000000
# 5 0.000000 0.000000 0.000000 0.000000 0.062163 0.000000
# 6 0.000000 0.000000 0.000000 0.000000 0.000000 0.060159
#
#
# Mechanical properties :
#
#
# Convention : Reuss Voigt Hill
#
# Bulk Modulus (GPa) = 48.28430 49.82482 49.05456
# Shear Modulus (GPa) = 22.41863 25.37331 23.89597
#
# Velocity S-wave (km/s) = 3.27545 3.48462 3.38165
# Velocity P-wave (km/s) = 6.11650 6.32725 6.22277
#
# Compressibility (1/GPa) = 0.02071067
#
# Stress axis : x y z
#
# Youngs Moduli (GPa) = 87.88821 74.95865 64.27643
#
# Poissons Ratio (x) = 0.03157 0.36294
# Poissons Ratio (y) = 0.03701 0.23880
# Poissons Ratio (z) = 0.49627 0.27849
#
# Static dielectric constant tensor:
#      x y z
#    x 3.660670 0.000000 0.000000 
#    y 0.000000 3.766920 0.000000 
#    z 0.000000 0.000000 3.960300 
# 
# 
# High freq. dielectric constant tensor:
#      x y z
#    x 1.802990 0.000000 0.000000 
#    y 0.000000 1.803290 0.000000 
#    z 0.000000 0.000000 1.829890 
# 
# From -- ./inp_files/27027.got.cif
#   From: 2010.03.12/outbox.cif.g09.slc.cpg/sg66_14_cif.got.tgz:27027.got - 2010.04.10 21:57:39.
