data_PCOD8277955
_publ_section_title
;
Structure prediction by ZEFSAII (Michael W. Deem and Ramdas Pophale) SiO2 
 PCOD8277955
Probable space group: C M M A
;
_chemical_formula_sum "Si O2"
_cell_formula_units_Z 96
_cell_length_a 19.104721
_cell_length_b 8.750756
_cell_length_c 31.720311
_cell_angle_alpha 90.000000
_cell_angle_beta 90.000000
_cell_angle_gamma 90.000000
_cell_volume 5303.025444
_symmetry_space_group_name_H-M "C M M A"
_symmetry_group_IT_number 67
_symmetry_cell_setting 'orthorhombic'
loop_
_space_group_symop_operation_xyz
x,y,z
-x,1/2-y,z
x,-y,-z
-x,1/2+y,-z
-x,-y,-z
x,1/2+y,-z
-x,y,z
x,1/2-y,z
1/2+x,1/2+y,z
1/2-x,-y,z
1/2+x,1/2-y,-z
1/2-x,y,-z
1/2-x,1/2-y,-z
1/2+x,y,-z
1/2-x,1/2+y,z
1/2+x,-y,z
loop_
_atom_site_type_symbol
_atom_site_label
_atom_site_fract_x
_atom_site_fract_y
_atom_site_fract_z
Si Si1 0.083310 0.921910 0.126165
Si Si2 0.921047 0.570032 0.788681
Si Si3 0.172045 0.067259 0.457960
Si Si4 0.916548 0.921867 0.957851
Si Si5 0.173507 0.068011 0.289179
Si Si6 0.172320 0.567366 0.374034
O O1 0.110562 0.750000 0.127072
O O2 0.000000 0.932785 0.125186
O O3 0.111569 0.003958 0.168197
O O4 0.114230 0.998612 0.083994
O O5 0.920835 0.750000 0.793065
O O6 0.874232 0.515979 0.749692
O O7 0.000000 0.508973 0.781377
O O8 0.172521 0.250000 0.458623
O O9 0.134120 0.000000 0.500000
O O10 0.250000 0.000000 0.457432
O O11 0.133951 0.003043 0.415632
O O12 0.889453 0.750000 0.957709
O O13 0.000000 0.931445 0.957756
O O14 0.886484 0.000000 0.000000
O O15 0.177929 0.250000 0.294421
O O16 0.250000 0.000000 0.281180
O O17 0.137141 0.993973 0.330936
O O18 0.172359 0.750000 0.376151
O O19 0.250000 0.500000 0.372721
#
# Coordination Sequence:
#
# PCOD8277955 Si02
#       6
#    16  16  16  16  16  16
#     4   9  16  25  38  57  81 109 141 177 218 262
#     4   9  18  32  48  65  87 117 151 185 222 264
#     4  10  16  23  34  51  76 106 140 174 212 257
#     4   9  15  22  33  50  75 107 141 175 212 257
#     4  10  19  31  47  66  89 117 149 185 224 265
#     4  10  17  26  39  56  80 110 143 177 216 260
#
# _framework density 18.102872999999999
#
# number of rings (size 3 to 8) (size 9 to 14) (size 15 to 20)
#    0.000    2.500    0.000    7.000    0.000    5.333 
#    0.000    0.000    0.000    0.000    0.000    0.000 
#    0.000    1.333    0.000    8.833    0.000   17.667 
#
# Total GULP energy -594883.973535 kJ/mol
# GULP energy per Si atom -12393.416115 kJ/mol
# Density = 1.806167 g / cm^3
# Si number density = 18.102873 Si / 1000 Ang^3
#
#
#
# Elastic Constant Matrix: (Units=GPa)
#
#
# Indices 1 2 3 4 5 6 
#
# 1 20.3413 16.7650 33.7610 0.0000 0.0000 0.0000
# 2 16.7650 124.0220 82.4605 0.0000 0.0000 0.0000
# 3 33.7610 82.4605 227.4548 0.0000 0.0000 0.0000
# 4 0.0000 0.0000 0.0000 38.3887 0.0000 0.0000
# 5 0.0000 0.0000 0.0000 0.0000 16.9110 0.0000
# 6 0.0000 0.0000 0.0000 0.0000 0.0000 8.7494
#
#
#
# Elastic Compliance Matrix: (Units=1/GPa)
#
#
# Indices 1 2 3 4 5 6 
#
# 1 0.066170 -0.003181 -0.008668 0.000000 0.000000 0.000000
# 2 -0.003181 0.010777 -0.003435 0.000000 0.000000 0.000000
# 3 -0.008668 -0.003435 0.006928 0.000000 0.000000 0.000000
# 4 0.000000 0.000000 0.000000 0.026049 0.000000 0.000000
# 5 0.000000 0.000000 0.000000 0.000000 0.059133 0.000000
# 6 0.000000 0.000000 0.000000 0.000000 0.000000 0.114293
#
#
# Mechanical properties :
#
#
# Convention : Reuss Voigt Hill
#
# Bulk Modulus (GPa) = 18.75941 70.86568 44.81254
# Shear Modulus (GPa) = 15.07439 28.73194 21.90316
#
# Velocity S-wave (km/s) = 2.88880 3.98822 3.48217
# Velocity P-wave (km/s) = 4.63811 7.77425 6.40121
#
# Compressibility (1/GPa) = 0.05330657
#
# Stress axis : x y z
#
# Youngs Moduli (GPa) = 15.11257 92.79124 144.33471
#
# Poissons Ratio (x) = 0.29520 1.25113
# Poissons Ratio (y) = 0.04808 0.49576
# Poissons Ratio (z) = 0.13100 0.31872
#
# Static dielectric constant tensor:
#      x y z
#    x 2.597060 0.000000 0.000000 
#    y 0.000000 3.421150 0.000000 
#    z 0.000000 0.000000 4.496020 
# 
# 
# High freq. dielectric constant tensor:
#      x y z
#    x 1.599660 0.000000 0.000000 
#    y 0.000000 1.717330 0.000000 
#    z 0.000000 0.000000 1.737220 
# 
# From -- ./inp_files/44794.got.cif
#   From: 2010.03.12/outbox.cif.g09.slc.cpg/sg67_23_cif.got.tgz:44794.got - 2010.04.10 22:41:39.
