data_PCOD8277781
_publ_section_title
;
Structure prediction by ZEFSAII (Michael W. Deem and Ramdas Pophale) SiO2 
 PCOD8277781
Probable space group: C C C M
;
_chemical_formula_sum "Si O2"
_cell_formula_units_Z 64
_cell_length_a 22.066799
_cell_length_b 10.317399
_cell_length_c 13.550981
_cell_angle_alpha 90.000000
_cell_angle_beta 90.000000
_cell_angle_gamma 90.000000
_cell_volume 3085.178539
_symmetry_space_group_name_H-M "C C C M"
_symmetry_group_IT_number 66
_symmetry_cell_setting 'orthorhombic'
loop_
_space_group_symop_operation_xyz
x,y,z
-x,-y,z
x,-y,1/2-z
-x,y,1/2-z
-x,-y,-z
x,y,-z
-x,y,1/2+z
x,-y,1/2+z
1/2+x,1/2+y,z
1/2-x,1/2-y,z
1/2+x,1/2-y,1/2-z
1/2-x,1/2+y,1/2-z
1/2-x,1/2-y,-z
1/2+x,1/2+y,-z
1/2-x,1/2+y,1/2+z
1/2+x,1/2-y,1/2+z
loop_
_atom_site_type_symbol
_atom_site_label
_atom_site_fract_x
_atom_site_fract_y
_atom_site_fract_z
Si Si1 0.847505 0.366990 0.289590
Si Si2 0.250000 0.250000 0.663019
Si Si3 0.194546 0.913727 0.000000
Si Si4 0.205994 0.370707 0.000000
Si Si5 0.065884 0.146930 0.716456
Si Si6 0.562229 0.417891 0.000000
O O1 0.878276 0.500000 0.250000
O O2 0.783594 0.353193 0.232860
O O3 0.837855 0.373322 0.406295
O O4 0.887723 0.242044 0.268401
O O5 0.199555 0.176425 0.597224
O O6 0.252118 0.004536 0.000000
O O7 0.129244 0.989404 0.000000
O O8 0.250000 0.250000 0.000000
O O9 0.064303 0.167281 0.598396
O O10 0.000000 0.188401 0.750000
O O11 0.081515 0.000000 0.750000
O O12 0.500000 0.500000 0.000000
#
# Coordination Sequence:
#
# PCOD8277781 Si02
#       6
#    16   8   8   8  16   8
#     4  12  26  44  67 102 146 182 237 289 360 425
#     4  11  22  43  70  94 136 193 230 281 350 438
#     4  11  24  42  70 100 137 184 239 279 356 418
#     4  12  27  37  66 104 136 183 227 291 359 417
#     4  11  26  45  71 102 137 185 240 294 351 410
#     4  12  23  43  76 103 133 184 251 288 340 420
#
# _framework density 20.744344000000002
#
# number of rings (size 3 to 8) (size 9 to 14) (size 15 to 20)
#    0.000    0.500    8.750    0.000    3.500    3.500 
#    0.000    0.000    0.000    3.000    0.000    0.000 
#    0.000    0.000    0.000    0.000    0.000    0.000 
#
# Total GULP energy -396703.775178 kJ/mol
# GULP energy per Si atom -12396.992974 kJ/mol
# Density = 2.069713 g / cm^3
# Si number density = 20.744344 Si / 1000 Ang^3
#
#
#
# Elastic Constant Matrix: (Units=GPa)
#
#
# Indices 1 2 3 4 5 6 
#
# 1 131.2850 44.6141 59.0406 0.0000 0.0000 0.0000
# 2 44.6141 93.6780 47.1598 0.0000 0.0000 0.0000
# 3 59.0406 47.1598 197.7561 0.0000 0.0000 0.0000
# 4 0.0000 0.0000 0.0000 -10.8494 0.0000 0.0000
# 5 0.0000 0.0000 0.0000 0.0000 23.3357 0.0000
# 6 0.0000 0.0000 0.0000 0.0000 0.0000 36.9758
#
#
#
# Elastic Compliance Matrix: (Units=1/GPa)
#
#
# Indices 1 2 3 4 5 6 
#
# 1 0.009771 -0.003619 -0.002054 0.000000 0.000000 0.000000
# 2 -0.003619 0.013472 -0.002132 0.000000 0.000000 0.000000
# 3 -0.002054 -0.002132 0.006178 0.000000 0.000000 0.000000
# 4 0.000000 0.000000 0.000000 -0.092171 0.000000 0.000000
# 5 0.000000 0.000000 0.000000 0.000000 0.042853 0.000000
# 6 0.000000 0.000000 0.000000 0.000000 0.000000 0.027045
#
#
# Mechanical properties :
#
#
# Convention : Reuss Voigt Hill
#
# Bulk Modulus (GPa) = 72.41016 80.48313 76.44665
# Shear Modulus (GPa) = 182.73845 28.01939 105.37892
#
# Velocity S-wave (km/s) = 9.39585 3.67917 7.13506
# Velocity P-wave (km/s) = 12.35682 7.54522 10.23771
#
# Compressibility (1/GPa) = 0.01381022
#
# Stress axis : x y z
#
# Youngs Moduli (GPa) = 102.34764 74.22851 161.85382
#
# Poissons Ratio (x) = 0.26865 0.33244
# Poissons Ratio (y) = 0.37042 0.34510
# Poissons Ratio (z) = 0.21022 0.15827
#
# Static dielectric constant tensor:
#      x y z
#    x 3.753970 0.000000 0.000000 
#    y 0.000000 3.460300 0.000000 
#    z 0.000000 0.000000 4.552970 
# 
# 
# High freq. dielectric constant tensor:
#      x y z
#    x 1.810900 0.000000 0.000000 
#    y 0.000000 1.791540 0.000000 
#    z 0.000000 0.000000 1.840290 
# 
# From -- ./inp_files/31950.got.cif
#   From: 2010.03.12/outbox.cif.g09.slc.cpg/sg66_16_cif.got.tgz:31950.got - 2010.04.10 21:57:39.
