data_PCOD8277932
_publ_section_title
;
Structure prediction by ZEFSAII (Michael W. Deem and Ramdas Pophale) SiO2 
 PCOD8277932
Probable space group: C C C M
;
_chemical_formula_sum "Si O2"
_cell_formula_units_Z 52
_cell_length_a 9.000000
_cell_length_b 21.000000
_cell_length_c 30.000000
_cell_angle_alpha 90.000000
_cell_angle_beta 90.000000
_cell_angle_gamma 90.000000
_cell_volume 5670.000000
_symmetry_space_group_name_H-M "C C C M"
_symmetry_group_IT_number 66
_symmetry_cell_setting 'orthorhombic'
loop_
_space_group_symop_operation_xyz
x,y,z
-x,-y,z
x,-y,1/2-z
-x,y,1/2-z
-x,-y,-z
x,y,-z
-x,y,1/2+z
x,-y,1/2+z
1/2+x,1/2+y,z
1/2-x,1/2-y,z
1/2+x,1/2-y,1/2-z
1/2-x,1/2+y,1/2-z
1/2-x,1/2-y,-z
1/2+x,1/2+y,-z
1/2-x,1/2+y,1/2+z
1/2+x,1/2-y,1/2+z
loop_
_atom_site_type_symbol
_atom_site_label
_atom_site_fract_x
_atom_site_fract_y
_atom_site_fract_z
Si Si1 0.469479 0.151340 0.885435
Si Si2 0.982087 0.200508 0.389419
Si Si3 0.326986 0.571298 0.240561
Si Si4 0.000000 0.000000 0.409383
Si Si5 0.787944 0.897848 0.362191
Si Si6 0.250701 0.321160 0.189093
Si Si7 0.799979 0.111058 0.447385
O O1 0.501878 0.224628 0.900259
O O2 0.618650 0.107691 0.881261
O O3 0.399531 0.158802 0.836324
O O4 0.356518 0.116015 0.919986
O O5 0.881696 0.181852 0.347042
O O6 0.905072 0.169939 0.433133
O O7 0.140015 0.168592 0.378376
O O8 0.260298 0.500000 0.250000
O O9 0.500000 0.568207 0.250000
O O10 0.285441 0.594197 0.191064
O O11 0.265043 0.625001 0.273679
O O12 0.885626 0.957445 0.380145
O O13 0.108691 0.954483 0.438134
O O14 0.250000 0.250000 0.211128
O O15 0.764810 0.115056 0.500000
#
# Coordination Sequence:
#
# PCOD8277932 Si02
#       7
#    16  16  16   8  16  16  16
#     4  10  22  37  60  91 123 153 194 251 313 362
#     4   9  19  38  62  87 119 157 199 239 303 375
#     4  11  22  36  60  87 115 161 221 259 291 354
#     4  10  23  42  63  84 116 166 204 237 295 376
#     4  11  22  38  60  86 120 163 201 250 301 357
#     4   9  19  38  56  83 121 160 202 251 304 362
#     4  10  21  40  67  91 118 154 199 249 302 368
#
# _framework density 9.1710759999999993
#
# number of rings (size 3 to 8) (size 9 to 14) (size 15 to 20)
#    0.000    2.000    1.538    3.000    4.308    3.692 
#    0.000    5.385    0.000    4.615    0.000    0.000 
#    0.000    0.000    0.000    0.000    0.000    0.000 
#
# Total GULP energy -644356.171453 kJ/mol
# GULP energy per Si atom -12391.464836 kJ/mol
# Density = 0.915020 g / cm^3
# Si number density = 9.171076 Si / 1000 Ang^3
#
#
#
# Elastic Constant Matrix: (Units=GPa)
#
#
# Indices 1 2 3 4 5 6 
#
# 1 127.5211 54.8071 45.4527 0.0000 0.0000 0.0000
# 2 54.8071 151.8512 61.7273 0.0000 0.0000 0.0000
# 3 45.4527 61.7273 121.9506 0.0000 0.0000 0.0000
# 4 0.0000 0.0000 0.0000 -137.5782 0.0000 0.0000
# 5 0.0000 0.0000 0.0000 0.0000 24.7305 0.0000
# 6 0.0000 0.0000 0.0000 0.0000 0.0000 38.8260
#
#
#
# Elastic Compliance Matrix: (Units=1/GPa)
#
#
# Indices 1 2 3 4 5 6 
#
# 1 0.009785 -0.002580 -0.002341 0.000000 0.000000 0.000000
# 2 -0.002580 0.008972 -0.003580 0.000000 0.000000 0.000000
# 3 -0.002341 -0.003580 0.010884 0.000000 0.000000 0.000000
# 4 0.000000 0.000000 0.000000 -0.007269 0.000000 0.000000
# 5 0.000000 0.000000 0.000000 0.000000 0.040436 0.000000
# 6 0.000000 0.000000 0.000000 0.000000 0.000000 0.025756
#
#
# Mechanical properties :
#
#
# Convention : Reuss Voigt Hill
#
# Bulk Modulus (GPa) = 79.11485 80.58855 79.85170
# Shear Modulus (GPa) = 45.54592 1.15138 23.34865
#
# Velocity S-wave (km/s) = 4.98851 0.79315 3.57171
# Velocity P-wave (km/s) = 8.74109 6.69854 7.78708
#
# Compressibility (1/GPa) = 0.01263985
#
# Stress axis : x y z
#
# Youngs Moduli (GPa) = 102.19542 111.46182 91.87410
#
# Poissons Ratio (x) = 0.28758 0.21509
# Poissons Ratio (y) = 0.26367 0.32887
# Poissons Ratio (z) = 0.23925 0.39898
#
# Static dielectric constant tensor:
#      x y z
#    x 3.555090 0.000000 0.000000 
#    y 0.000000 3.850520 0.000000 
#    z 0.000000 0.000000 3.340510 
# 
# 
# High freq. dielectric constant tensor:
#      x y z
#    x 1.721560 0.000000 0.000000 
#    y 0.000000 1.740930 0.000000 
#    z 0.000000 0.000000 1.707920 
# 
# From -- ./inp_files/68266.got.cif
#   From: 2010.03.12/outbox.ucp.g09.slc.cvg/sg66_35_cif.got.tgz:68266.got - 2010.05.04 19:46:57.
