data_PCOD8277992
_publ_section_title
;
Structure prediction by ZEFSAII (Michael W. Deem and Ramdas Pophale) SiO2 
 PCOD8277992
Probable space group: C M M A
;
_chemical_formula_sum "Si O2"
_cell_formula_units_Z 64
_cell_length_a 23.960001
_cell_length_b 23.248739
_cell_length_c 6.742548
_cell_angle_alpha 90.000000
_cell_angle_beta 90.000000
_cell_angle_gamma 90.000000
_cell_volume 3755.867655
_symmetry_space_group_name_H-M "C M M A"
_symmetry_group_IT_number 67
_symmetry_cell_setting 'orthorhombic'
loop_
_space_group_symop_operation_xyz
x,y,z
-x,1/2-y,z
x,-y,-z
-x,1/2+y,-z
-x,-y,-z
x,1/2+y,-z
-x,y,z
x,1/2-y,z
1/2+x,1/2+y,z
1/2-x,-y,z
1/2+x,1/2-y,-z
1/2-x,y,-z
1/2-x,1/2-y,-z
1/2+x,y,-z
1/2-x,1/2+y,z
1/2+x,-y,z
loop_
_atom_site_type_symbol
_atom_site_label
_atom_site_fract_x
_atom_site_fract_y
_atom_site_fract_z
Si Si1 0.197137 0.554846 0.125719
Si Si2 0.000000 0.250000 0.318129
Si Si3 0.250000 0.500000 0.500000
Si Si4 0.911208 0.124858 0.816766
Si Si5 0.500000 0.567159 0.541811
Si Si6 0.500000 0.869405 0.135220
Si Si7 0.437757 0.750000 0.696445
O O1 0.212479 0.538854 0.352892
O O2 0.150939 0.603483 0.144674
O O3 0.174452 0.500000 0.000000
O O4 0.250000 0.579242 0.000000
O O5 0.000000 0.302342 0.171010
O O6 0.944529 0.250000 0.457024
O O7 0.943678 0.088204 0.649895
O O8 0.905968 0.192262 0.761534
O O9 0.944378 0.114527 0.018092
O O10 0.500000 0.500000 0.500000
O O11 0.500000 0.595353 0.331531
O O12 0.500000 0.750000 0.792859
#
# Coordination Sequence:
#
# PCOD8277992 Si02
#       7
#    16   4   4  16   8   8   8
#     4   9  21  39  57  85 107 147 196 232 286 341
#     4  10  16  38  56  74 112 154 200 206 272 342
#     4   8  18  40  64  70 112 148 186 236 282 336
#     4  11  22  36  58  82 118 149 188 240 273 346
#     4  11  24  32  49  88 120 149 182 226 297 348
#     4  11  20  34  56  81 114 152 181 226 282 339
#     4  10  17  40  52  82 114 149 195 225 269 350
#
# _framework density 17.040002999999999
#
# number of rings (size 3 to 8) (size 9 to 14) (size 15 to 20)
#    0.375    1.750    5.000    0.750    5.250    3.000 
#    0.000    0.625    0.000    0.750    0.000    0.000 
#    0.000    0.000    0.000    0.000    0.000    0.000 
#
# Total GULP energy -396568.202902 kJ/mol
# GULP energy per Si atom -12392.756341 kJ/mol
# Density = 1.700122 g / cm^3
# Si number density = 17.040003 Si / 1000 Ang^3
#
#
#
# Elastic Constant Matrix: (Units=GPa)
#
#
# Indices 1 2 3 4 5 6 
#
# 1 123.1167 73.0619 53.0937 0.0000 0.0000 0.0000
# 2 73.0619 140.8406 49.5156 0.0000 0.0000 0.0000
# 3 53.0937 49.5156 137.6716 0.0000 0.0000 0.0000
# 4 0.0000 0.0000 0.0000 40.8100 0.0000 0.0000
# 5 0.0000 0.0000 0.0000 0.0000 11.1447 0.0000
# 6 0.0000 0.0000 0.0000 0.0000 0.0000 6.0192
#
#
#
# Elastic Compliance Matrix: (Units=1/GPa)
#
#
# Indices 1 2 3 4 5 6 
#
# 1 0.012663 -0.005554 -0.002886 0.000000 0.000000 0.000000
# 2 -0.005554 0.010564 -0.001658 0.000000 0.000000 0.000000
# 3 -0.002886 -0.001658 0.008973 0.000000 0.000000 0.000000
# 4 0.000000 0.000000 0.000000 0.024504 0.000000 0.000000
# 5 0.000000 0.000000 0.000000 0.000000 0.089729 0.000000
# 6 0.000000 0.000000 0.000000 0.000000 0.000000 0.166135
#
#
# Mechanical properties :
#
#
# Convention : Reuss Voigt Hill
#
# Bulk Modulus (GPa) = 83.30168 83.66349 83.48259
# Shear Modulus (GPa) = 14.84712 26.65861 20.75287
#
# Velocity S-wave (km/s) = 2.95500 3.95963 3.49362
# Velocity P-wave (km/s) = 7.78683 8.37316 8.08531
#
# Compressibility (1/GPa) = 0.01200456
#
# Stress axis : x y z
#
# Youngs Moduli (GPa) = 78.96941 94.65755 111.44853
#
# Poissons Ratio (x) = 0.52578 0.32162
# Poissons Ratio (y) = 0.43864 0.18473
# Poissons Ratio (z) = 0.22789 0.15690
#
# Static dielectric constant tensor:
#      x y z
#    x 2.926910 0.000000 0.000000 
#    y 0.000000 3.090940 0.000000 
#    z 0.000000 0.000000 3.361180 
# 
# 
# High freq. dielectric constant tensor:
#      x y z
#    x 1.629850 0.000000 0.000000 
#    y 0.000000 1.654750 0.000000 
#    z 0.000000 0.000000 1.679710 
# 
# From -- ./inp_files/4135.got.cif
#   From: 2010.03.12/outbox.cif.g09.slc.cpg/sg67_3_cif.got.tgz:4135.got - 2010.04.10 22:41:39.
