data_PCOD8277702
_publ_section_title
;
Structure prediction by ZEFSAII (Michael W. Deem and Ramdas Pophale) SiO2 
 PCOD8277702
Probable space group: C C C M
;
_chemical_formula_sum "Si O2"
_cell_formula_units_Z 80
_cell_length_a 8.635879
_cell_length_b 17.792459
_cell_length_c 25.388693
_cell_angle_alpha 90.000000
_cell_angle_beta 90.000000
_cell_angle_gamma 90.000000
_cell_volume 3901.062125
_symmetry_space_group_name_H-M "C C C M"
_symmetry_group_IT_number 66
_symmetry_cell_setting 'orthorhombic'
loop_
_space_group_symop_operation_xyz
x,y,z
-x,-y,z
x,-y,1/2-z
-x,y,1/2-z
-x,-y,-z
x,y,-z
-x,y,1/2+z
x,-y,1/2+z
1/2+x,1/2+y,z
1/2-x,1/2-y,z
1/2+x,1/2-y,1/2-z
1/2-x,1/2+y,1/2-z
1/2-x,1/2-y,-z
1/2+x,1/2+y,-z
1/2-x,1/2+y,1/2+z
1/2+x,1/2-y,1/2+z
loop_
_atom_site_type_symbol
_atom_site_label
_atom_site_fract_x
_atom_site_fract_y
_atom_site_fract_z
Si Si1 0.233693 0.019205 0.500000
Si Si2 0.594049 0.705457 0.701131
Si Si3 0.849665 0.175700 0.608707
Si Si4 0.838379 0.041912 0.796288
Si Si5 0.525653 0.374669 0.500000
Si Si6 0.330991 0.981232 0.611324
O O1 0.155766 0.102258 0.500000
O O2 0.109238 0.953841 0.500000
O O3 0.337307 0.009635 0.551531
O O4 0.500000 0.744837 0.750000
O O5 0.750000 0.750000 0.684523
O O6 0.483506 0.686319 0.651873
O O7 0.652707 0.626670 0.723524
O O8 0.750000 0.250000 0.610178
O O9 0.931856 0.171956 0.551940
O O10 0.735315 0.103968 0.618319
O O11 0.739132 0.000000 0.750000
O O12 0.773056 0.037591 0.854977
O O13 0.000000 0.000000 0.799668
O O14 0.500000 0.000000 0.634185
#
# Coordination Sequence:
#
# PCOD8277702 Si02
#       6
#     8  16  16  16   8  16
#     4   9  19  36  63  94 120 155 219 263 315 374
#     4  12  25  43  67  94 128 170 215 268 328 387
#     4  11  23  41  62  93 132 164 207 262 324 386
#     4  11  21  43  67  89 122 166 215 264 314 384
#     4   9  19  38  66  87 117 173 209 258 316 386
#     4  11  23  38  65  95 126 164 210 266 318 380
#
# _framework density 20.507234
#
# number of rings (size 3 to 8) (size 9 to 14) (size 15 to 20)
#    0.000    1.200    4.000    2.400    5.600    0.400 
#    0.000    0.500    0.000    0.000    0.000    0.000 
#    0.000    0.000    0.000    0.000    0.000    0.000 
#
# Total GULP energy -495524.965796 kJ/mol
# GULP energy per Si atom -12388.124145 kJ/mol
# Density = 2.046056 g / cm^3
# Si number density = 20.507234 Si / 1000 Ang^3
#
#
#
# Elastic Constant Matrix: (Units=GPa)
#
#
# Indices 1 2 3 4 5 6 
#
# 1 112.0929 56.5800 48.0706 0.0000 0.0000 0.0000
# 2 56.5800 92.6429 23.2523 0.0000 0.0000 0.0000
# 3 48.0706 23.2523 142.3191 0.0000 0.0000 0.0000
# 4 0.0000 0.0000 0.0000 22.5382 0.0000 0.0000
# 5 0.0000 0.0000 0.0000 0.0000 -0.3225 0.0000
# 6 0.0000 0.0000 0.0000 0.0000 0.0000 29.4296
#
#
#
# Elastic Compliance Matrix: (Units=1/GPa)
#
#
# Indices 1 2 3 4 5 6 
#
# 1 0.014465 -0.007933 -0.003590 0.000000 0.000000 0.000000
# 2 -0.007933 0.015607 0.000130 0.000000 0.000000 0.000000
# 3 -0.003590 0.000130 0.008218 0.000000 0.000000 0.000000
# 4 0.000000 0.000000 0.000000 0.044369 0.000000 0.000000
# 5 0.000000 0.000000 0.000000 0.000000 -3.100342 0.000000
# 6 0.000000 0.000000 0.000000 0.000000 0.000000 0.033979
#
#
# Mechanical properties :
#
#
# Convention : Reuss Voigt Hill
#
# Bulk Modulus (GPa) = 64.50336 66.98451 65.74393
# Shear Modulus (GPa) = -1.69162 24.93918 11.62378
#
# Velocity S-wave (km/s) = -0.90922 3.49107 2.38337
# Velocity P-wave (km/s) = 5.51543 6.99892 6.30099
#
# Compressibility (1/GPa) = 0.01550307
#
# Stress axis : x y z
#
# Youngs Moduli (GPa) = 69.13264 64.07518 121.68830
#
# Poissons Ratio (x) = 0.50832 0.43681
# Poissons Ratio (y) = 0.54845 -0.01579
# Poissons Ratio (z) = 0.24816 -0.00831
#
# Static dielectric constant tensor:
#      x y z
#    x 3.716170 0.000000 0.000000 
#    y 0.000000 3.764750 0.000000 
#    z 0.000000 0.000000 5.000680 
# 
# 
# High freq. dielectric constant tensor:
#      x y z
#    x 1.791850 0.000000 0.000000 
#    y 0.000000 1.790950 0.000000 
#    z 0.000000 0.000000 1.823670 
# 
# From -- ./inp_files/62475.got.cif
#   From: 2010.03.12/outbox.cif.g09.slc.cpg/sg66_32_cif.got.tgz:62475.got - 2010.04.10 21:57:39.
