data_PCOD8277761
_publ_section_title
;
Structure prediction by ZEFSAII (Michael W. Deem and Ramdas Pophale) SiO2 
 PCOD8277761
Probable space group: C C C M
;
_chemical_formula_sum "Si O2"
_cell_formula_units_Z 64
_cell_length_a 17.855004
_cell_length_b 8.398185
_cell_length_c 20.399212
_cell_angle_alpha 90.000000
_cell_angle_beta 90.000000
_cell_angle_gamma 90.000000
_cell_volume 3058.854226
_symmetry_space_group_name_H-M "C C C M"
_symmetry_group_IT_number 66
_symmetry_cell_setting 'orthorhombic'
loop_
_space_group_symop_operation_xyz
x,y,z
-x,-y,z
x,-y,1/2-z
-x,y,1/2-z
-x,-y,-z
x,y,-z
-x,y,1/2+z
x,-y,1/2+z
1/2+x,1/2+y,z
1/2-x,1/2-y,z
1/2+x,1/2-y,1/2-z
1/2-x,1/2+y,1/2-z
1/2-x,1/2-y,-z
1/2+x,1/2+y,-z
1/2-x,1/2+y,1/2+z
1/2+x,1/2-y,1/2+z
loop_
_atom_site_type_symbol
_atom_site_label
_atom_site_fract_x
_atom_site_fract_y
_atom_site_fract_z
Si Si1 0.886885 0.888892 0.000000
Si Si2 0.333478 0.788123 0.373355
Si Si3 0.077419 0.411779 0.368804
Si Si4 0.555294 0.720125 0.500000
Si Si5 0.912875 0.175594 0.248151
O O1 0.846238 0.822163 0.936096
O O2 0.972825 0.847859 0.000000
O O3 0.882031 0.081024 0.000000
O O4 0.250000 0.750000 0.348941
O O5 0.390382 0.758546 0.314782
O O6 0.352848 0.972399 0.387417
O O7 0.061413 0.322670 0.435500
O O8 0.107247 0.287301 0.313908
O O9 0.000000 0.500000 0.346294
O O10 0.000000 0.148663 0.250000
O O11 0.873920 0.000000 0.250000
#
# Coordination Sequence:
#
# PCOD8277761 Si02
#       5
#     8  16  16   8  16
#     4  11  22  43  66  99 140 173 230 288 353 404
#     4  12  26  42  65  99 140 178 224 289 356 411
#     4  12  22  41  70 100 131 175 238 283 339 420
#     4  11  22  40  72 102 126 178 235 292 331 420
#     4  11  23  41  66  97 131 176 230 283 340 414
#
# _framework density 20.922865999999999
#
# number of rings (size 3 to 8) (size 9 to 14) (size 15 to 20)
#    0.000    0.500    5.000    3.750    0.000    6.000 
#    0.000    5.000    0.000    0.000    0.000    0.000 
#    0.000    0.000    0.000    0.000    0.000    0.000 
#
# Total GULP energy -396669.314801 kJ/mol
# GULP energy per Si atom -12395.916088 kJ/mol
# Density = 2.087525 g / cm^3
# Si number density = 20.922866 Si / 1000 Ang^3
#
#
#
# Elastic Constant Matrix: (Units=GPa)
#
#
# Indices 1 2 3 4 5 6 
#
# 1 79.6981 34.2319 17.6269 0.0000 0.0000 0.0000
# 2 34.2319 124.0861 33.0234 0.0000 0.0000 0.0000
# 3 17.6269 33.0234 143.2530 0.0000 0.0000 0.0000
# 4 0.0000 0.0000 0.0000 39.3609 0.0000 0.0000
# 5 0.0000 0.0000 0.0000 0.0000 22.8501 0.0000
# 6 0.0000 0.0000 0.0000 0.0000 0.0000 21.5129
#
#
#
# Elastic Compliance Matrix: (Units=1/GPa)
#
#
# Indices 1 2 3 4 5 6 
#
# 1 0.014344 -0.003715 -0.000909 0.000000 0.000000 0.000000
# 2 -0.003715 0.009548 -0.001744 0.000000 0.000000 0.000000
# 3 -0.000909 -0.001744 0.007494 0.000000 0.000000 0.000000
# 4 0.000000 0.000000 0.000000 0.025406 0.000000 0.000000
# 5 0.000000 0.000000 0.000000 0.000000 0.043763 0.000000
# 6 0.000000 0.000000 0.000000 0.000000 0.000000 0.046484
#
#
# Mechanical properties :
#
#
# Convention : Reuss Voigt Hill
#
# Bulk Modulus (GPa) = 53.61634 57.42240 55.51937
# Shear Modulus (GPa) = 30.12189 34.22178 32.17184
#
# Velocity S-wave (km/s) = 3.79841 4.04866 3.92553
# Velocity P-wave (km/s) = 6.70213 7.02566 6.86580
#
# Compressibility (1/GPa) = 0.01865103
#
# Stress axis : x y z
#
# Youngs Moduli (GPa) = 69.71511 104.73413 133.43198
#
# Poissons Ratio (x) = 0.38912 0.12123
# Poissons Ratio (y) = 0.25902 0.23269
# Poissons Ratio (z) = 0.06334 0.18264
#
# Static dielectric constant tensor:
#      x y z
#    x 3.543810 0.000000 0.000000 
#    y 0.000000 4.652980 0.000000 
#    z 0.000000 0.000000 3.898530 
# 
# 
# High freq. dielectric constant tensor:
#      x y z
#    x 1.789610 0.000000 0.000000 
#    y 0.000000 1.842600 0.000000 
#    z 0.000000 0.000000 1.833650 
# 
# From -- ./inp_files/36419.got.cif
#   From: 2010.03.12/outbox.cif.g09.slc.cpg/sg66_19_cif.got.tgz:36419.got - 2010.04.10 21:57:39.
