data_PCOD8277199
_publ_section_title
;
Structure prediction by ZEFSAII (Michael W. Deem and Ramdas Pophale) SiO2 
 PCOD8277199
Probable space group: C C C M
;
_chemical_formula_sum "Si O2"
_cell_formula_units_Z 116
_cell_length_a 9.622337
_cell_length_b 24.610760
_cell_length_c 24.588980
_cell_angle_alpha 90.000000
_cell_angle_beta 90.000000
_cell_angle_gamma 90.000000
_cell_volume 5822.990773
_symmetry_space_group_name_H-M "C C C M"
_symmetry_group_IT_number 66
_symmetry_cell_setting 'orthorhombic'
loop_
_space_group_symop_operation_xyz
x,y,z
-x,-y,z
x,-y,1/2-z
-x,y,1/2-z
-x,-y,-z
x,y,-z
-x,y,1/2+z
x,-y,1/2+z
1/2+x,1/2+y,z
1/2-x,1/2-y,z
1/2+x,1/2-y,1/2-z
1/2-x,1/2+y,1/2-z
1/2-x,1/2-y,-z
1/2+x,1/2+y,-z
1/2-x,1/2+y,1/2+z
1/2+x,1/2-y,1/2+z
loop_
_atom_site_type_symbol
_atom_site_label
_atom_site_fract_x
_atom_site_fract_y
_atom_site_fract_z
Si Si1 0.162388 0.993126 0.438271
Si Si2 0.990548 0.155521 0.687587
Si Si3 0.187224 0.065750 0.336381
Si Si4 0.967321 0.382968 0.811242
Si Si5 0.091513 0.263931 0.355207
Si Si6 0.000000 0.000000 0.750000
Si Si7 0.730878 0.888516 0.876064
Si Si8 0.380080 0.211201 0.940140
O O1 0.227023 0.999253 0.500000
O O2 0.199134 0.935090 0.412133
O O3 0.211143 0.038230 0.395220
O O4 0.000000 0.000000 0.444113
O O5 0.839738 0.140350 0.664335
O O6 0.000000 0.136832 0.750000
O O7 0.107241 0.122573 0.653697
O O8 0.021772 0.219764 0.685050
O O9 0.341608 0.074814 0.314626
O O10 0.099251 0.032769 0.291253
O O11 0.924451 0.324508 0.833895
O O12 0.000000 0.371250 0.750000
O O13 0.101824 0.410105 0.840041
O O14 0.250000 0.250000 0.366092
O O15 0.008054 0.259249 0.411146
O O16 0.664693 0.845820 0.916341
O O17 0.250000 0.250000 0.938339
O O18 0.434300 0.199721 0.000000
#
# Coordination Sequence:
#
# PCOD8277199 Si02
#       8
#    16  16  16  16  16   4  16  16
#     4  11  24  44  69  97 127 168 229 280 325 393
#     4  12  22  39  67  94 132 175 214 260 320 398
#     4  12  24  44  67 100 127 172 221 269 335 383
#     4  11  26  42  64 101 140 172 213 271 332 399
#     4  11  23  41  63  96 138 171 217 264 322 399
#     4  12  24  44  72  92 132 168 226 278 316 402
#     4  11  23  43  65  96 130 173 216 267 335 394
#     4  10  21  40  65  92 125 168 220 271 321 384
#
# _framework density 19.921035
#
# number of rings (size 3 to 8) (size 9 to 14) (size 15 to 20)
#    0.000    0.828    5.517    1.655    1.931    0.828 
#    0.000    4.828    0.000    0.000    0.000    0.000 
#    0.000    0.000    0.000    0.000    0.000    0.000 
#
# Total GULP energy -718971.621686 kJ/mol
# GULP energy per Si atom -12396.062443 kJ/mol
# Density = 1.987569 g / cm^3
# Si number density = 19.921035 Si / 1000 Ang^3
#
#
#
# Elastic Constant Matrix: (Units=GPa)
#
#
# Indices 1 2 3 4 5 6 
#
# 1 138.2136 29.0542 51.3886 0.0000 0.0000 0.0000
# 2 29.0542 68.8978 30.3504 0.0000 0.0000 0.0000
# 3 51.3886 30.3504 135.4775 0.0000 0.0000 0.0000
# 4 0.0000 0.0000 0.0000 -4.4232 0.0000 0.0000
# 5 0.0000 0.0000 0.0000 0.0000 43.9569 0.0000
# 6 0.0000 0.0000 0.0000 0.0000 0.0000 25.4679
#
#
#
# Elastic Compliance Matrix: (Units=1/GPa)
#
#
# Indices 1 2 3 4 5 6 
#
# 1 0.008790 -0.002483 -0.002778 0.000000 0.000000 0.000000
# 2 -0.002483 0.016805 -0.002823 0.000000 0.000000 0.000000
# 3 -0.002778 -0.002823 0.009067 0.000000 0.000000 0.000000
# 4 0.000000 0.000000 0.000000 -0.226079 0.000000 0.000000
# 5 0.000000 0.000000 0.000000 0.000000 0.022750 0.000000
# 6 0.000000 0.000000 0.000000 0.000000 0.000000 0.039265
#
#
# Mechanical properties :
#
#
# Convention : Reuss Voigt Hill
#
# Bulk Modulus (GPa) = 54.06977 62.68616 58.37797
# Shear Modulus (GPa) = -46.69854 28.45335 -9.12260
#
# Velocity S-wave (km/s) = -4.84693 3.78339 -2.14227
# Velocity P-wave (km/s) = 2.03043 7.11485 4.82174
#
# Compressibility (1/GPa) = 0.01849462
#
# Stress axis : x y z
#
# Youngs Moduli (GPa) = 113.76586 59.50660 110.28520
#
# Poissons Ratio (x) = 0.14776 0.30636
# Poissons Ratio (y) = 0.28248 0.31132
# Poissons Ratio (z) = 0.31603 0.16798
#
# Static dielectric constant tensor:
#      x y z
#    x 3.843690 0.000000 0.000000 
#    y 0.000000 3.517870 0.000000 
#    z 0.000000 0.000000 4.015560 
# 
# 
# High freq. dielectric constant tensor:
#      x y z
#    x 1.784630 0.000000 0.000000 
#    y 0.000000 1.782550 0.000000 
#    z 0.000000 0.000000 1.781490 
# 
# From -- ./inp_files/55914.got.cif
#   From: 2010.03.12/outbox.cif.g09.slc.cpg/sg66_28_cif.got.tgz:55914.got - 2010.04.10 21:57:39.
