data_PCOD8277876
_publ_section_title
;
Structure prediction by ZEFSAII (Michael W. Deem and Ramdas Pophale) SiO2 
 PCOD8277876
Probable space group: C C C M
;
_chemical_formula_sum "Si O2"
_cell_formula_units_Z 104
_cell_length_a 8.475594
_cell_length_b 22.250483
_cell_length_c 27.982250
_cell_angle_alpha 90.000000
_cell_angle_beta 90.000000
_cell_angle_gamma 90.000000
_cell_volume 5277.062283
_symmetry_space_group_name_H-M "C C C M"
_symmetry_group_IT_number 66
_symmetry_cell_setting 'orthorhombic'
loop_
_space_group_symop_operation_xyz
x,y,z
-x,-y,z
x,-y,1/2-z
-x,y,1/2-z
-x,-y,-z
x,y,-z
-x,y,1/2+z
x,-y,1/2+z
1/2+x,1/2+y,z
1/2-x,1/2-y,z
1/2+x,1/2-y,1/2-z
1/2-x,1/2+y,1/2-z
1/2-x,1/2-y,-z
1/2+x,1/2+y,-z
1/2-x,1/2+y,1/2+z
1/2+x,1/2-y,1/2+z
loop_
_atom_site_type_symbol
_atom_site_label
_atom_site_fract_x
_atom_site_fract_y
_atom_site_fract_z
Si Si1 0.317629 0.511888 0.305341
Si Si2 0.824141 0.814425 0.274058
Si Si3 0.339881 0.134981 0.813102
Si Si4 0.692521 0.152382 0.052762
Si Si5 0.750000 0.750000 0.873709
Si Si6 0.816445 0.396960 0.845837
Si Si7 0.501297 0.730935 0.552155
O O1 0.500000 0.500000 0.314674
O O2 0.274818 0.500000 0.250000
O O3 0.271916 0.577967 0.324817
O O4 0.218131 0.466180 0.336974
O O5 0.750000 0.750000 0.286037
O O6 0.699957 0.849142 0.241200
O O7 0.821149 0.853279 0.323361
O O8 0.000000 0.811324 0.250000
O O9 0.310889 0.195808 0.842023
O O10 0.520407 0.118651 0.820123
O O11 0.672022 0.106941 0.096634
O O12 0.551486 0.199815 0.055352
O O13 0.855025 0.186659 0.059896
O O14 0.688981 0.120512 0.000000
O O15 0.620282 0.717973 0.906172
O O16 0.424760 0.719027 0.500000
#
# Coordination Sequence:
#
# PCOD8277876 Si02
#       7
#    16  16  16  16   8  16  16
#     4  11  25  45  66  89 124 171 223 261 307 381
#     4  12  26  39  58  92 134 170 209 259 320 384
#     4  12  25  41  60  99 128 167 207 259 316 387
#     4   9  20  38  62  94 125 165 216 254 313 381
#     4  12  23  36  62  98 140 156 207 262 326 376
#     4  12  24  41  69  88 128 172 211 265 320 373
#     4   9  19  37  60  90 128 168 209 260 314 378
#
# _framework density 19.707936
#
# number of rings (size 3 to 8) (size 9 to 14) (size 15 to 20)
#    0.000    1.077    3.846    3.923    6.462    0.615 
#    0.000    0.000    0.000    4.154    0.000    0.000 
#    0.000    0.000    0.000    0.000    0.000    0.000 
#
# Total GULP energy -644511.910991 kJ/mol
# GULP energy per Si atom -12394.459827 kJ/mol
# Density = 1.966308 g / cm^3
# Si number density = 19.707936 Si / 1000 Ang^3
#
#
#
# Elastic Constant Matrix: (Units=GPa)
#
#
# Indices 1 2 3 4 5 6 
#
# 1 66.2743 13.5513 26.9902 0.0000 0.0000 0.0000
# 2 13.5513 92.8486 15.7582 0.0000 0.0000 0.0000
# 3 26.9902 15.7582 100.1577 0.0000 0.0000 0.0000
# 4 0.0000 0.0000 0.0000 24.5509 0.0000 0.0000
# 5 0.0000 0.0000 0.0000 0.0000 29.2195 0.0000
# 6 0.0000 0.0000 0.0000 0.0000 0.0000 26.8721
#
#
#
# Elastic Compliance Matrix: (Units=1/GPa)
#
#
# Indices 1 2 3 4 5 6 
#
# 1 0.017229 -0.001774 -0.004364 0.000000 0.000000 0.000000
# 2 -0.001774 0.011248 -0.001292 0.000000 0.000000 0.000000
# 3 -0.004364 -0.001292 0.011363 0.000000 0.000000 0.000000
# 4 0.000000 0.000000 0.000000 0.040732 0.000000 0.000000
# 5 0.000000 0.000000 0.000000 0.000000 0.034224 0.000000
# 6 0.000000 0.000000 0.000000 0.000000 0.000000 0.037213
#
#
# Mechanical properties :
#
#
# Convention : Reuss Voigt Hill
#
# Bulk Modulus (GPa) = 40.02910 41.31999 40.67454
# Shear Modulus (GPa) = 28.53966 29.66058 29.10012
#
# Velocity S-wave (km/s) = 3.80956 3.88365 3.84678
# Velocity P-wave (km/s) = 6.30124 6.41264 6.35718
#
# Compressibility (1/GPa) = 0.02498183
#
# Stress axis : x y z
#
# Youngs Moduli (GPa) = 58.04304 88.90185 88.00205
#
# Poissons Ratio (x) = 0.15771 0.38401
# Poissons Ratio (y) = 0.10296 0.11367
# Poissons Ratio (z) = 0.25328 0.11484
#
# Static dielectric constant tensor:
#      x y z
#    x 3.416310 0.000000 0.000000 
#    y 0.000000 3.534240 0.000000 
#    z 0.000000 0.000000 3.822610 
# 
# 
# High freq. dielectric constant tensor:
#      x y z
#    x 1.774250 0.000000 0.000000 
#    y 0.000000 1.752010 0.000000 
#    z 0.000000 0.000000 1.767870 
# 
# From -- ./inp_files/68282.got.cif
#   From: 2010.03.12/outbox.cif.g09.slc.cpg/sg66_35_cif.got.tgz:68282.got - 2010.04.10 21:57:39.
