data_PCOD8277968
_publ_section_title
;
Structure prediction by ZEFSAII (Michael W. Deem and Ramdas Pophale) SiO2 
 PCOD8277968
Probable space group: C M M A
;
_chemical_formula_sum "Si O2"
_cell_formula_units_Z 36
_cell_length_a 5.308847
_cell_length_b 15.737122
_cell_length_c 21.886824
_cell_angle_alpha 90.000000
_cell_angle_beta 90.000000
_cell_angle_gamma 90.000000
_cell_volume 1828.556005
_symmetry_space_group_name_H-M "C M M A"
_symmetry_group_IT_number 67
_symmetry_cell_setting 'orthorhombic'
loop_
_space_group_symop_operation_xyz
x,y,z
-x,1/2-y,z
x,-y,-z
-x,1/2+y,-z
-x,-y,-z
x,1/2+y,-z
-x,y,z
x,1/2-y,z
1/2+x,1/2+y,z
1/2-x,-y,z
1/2+x,1/2-y,-z
1/2-x,y,-z
1/2-x,1/2-y,-z
1/2+x,y,-z
1/2-x,1/2+y,z
1/2+x,-y,z
loop_
_atom_site_type_symbol
_atom_site_label
_atom_site_fract_x
_atom_site_fract_y
_atom_site_fract_z
Si Si1 0.500000 0.750000 0.460002
Si Si2 0.500000 0.155733 0.657116
Si Si3 0.500000 0.904394 0.974212
Si Si4 0.500000 0.555084 0.836050
Si Si5 0.000000 0.149600 0.714111
O O1 0.750000 0.750000 0.500000
O O2 0.500000 0.834469 0.416921
O O3 0.500000 0.250000 0.687369
O O4 0.247205 0.108795 0.681170
O O5 0.500000 0.899820 0.901433
O O6 0.250000 0.857640 0.000000
O O7 0.500000 0.000000 0.000000
O O8 0.750000 0.500000 0.828297
O O9 0.500000 0.628576 0.785576
O O10 0.000000 0.250000 0.703325
#
# Coordination Sequence:
#
# PCOD8277968 Si02
#       5
#     4   8   8   8   8
#     4  10  16  26  50  80 106 132 174 212 238 292
#     4   8  17  30  47  68 105 143 155 197 260 298
#     4  10  16  30  47  67  94 123 156 218 280 282
#     4  12  21  31  52  80  95 126 185 221 242 315
#     4  10  19  35  49  68 106 149 159 196 272 318
#
# _framework density 19.687667999999999
#
# number of rings (size 3 to 8) (size 9 to 14) (size 15 to 20)
#    0.667    1.333    4.444    2.667    0.000    0.000 
#    0.000    0.000    0.000    1.333    0.000    0.000 
#    0.000   62.222    0.000    0.000    0.000    0.000 
#
# Total GULP energy -223027.155167 kJ/mol
# GULP energy per Si atom -12390.397509 kJ/mol
# Density = 1.964286 g / cm^3
# Si number density = 19.687668 Si / 1000 Ang^3
#
#
#
# Elastic Constant Matrix: (Units=GPa)
#
#
# Indices 1 2 3 4 5 6 
#
# 1 242.9976 13.0844 84.7949 0.0000 0.0000 0.0000
# 2 13.0844 6.7361 9.8821 0.0000 0.0000 0.0000
# 3 84.7949 9.8821 177.6664 0.0000 0.0000 0.0000
# 4 0.0000 0.0000 0.0000 29.0917 0.0000 0.0000
# 5 0.0000 0.0000 0.0000 0.0000 49.7228 0.0000
# 6 0.0000 0.0000 0.0000 0.0000 0.0000 -6.3399
#
#
#
# Elastic Compliance Matrix: (Units=1/GPa)
#
#
# Indices 1 2 3 4 5 6 
#
# 1 0.005230 -0.007074 -0.002103 0.000000 0.000000 0.000000
# 2 -0.007074 0.171211 -0.006147 0.000000 0.000000 0.000000
# 3 -0.002103 -0.006147 0.006974 0.000000 0.000000 0.000000
# 4 0.000000 0.000000 0.000000 0.034374 0.000000 0.000000
# 5 0.000000 0.000000 0.000000 0.000000 0.020112 0.000000
# 6 0.000000 0.000000 0.000000 0.000000 0.000000 -0.157730
#
#
# Mechanical properties :
#
#
# Convention : Reuss Voigt Hill
#
# Bulk Modulus (GPa) = 6.54587 71.43590 38.99089
# Shear Modulus (GPa) = 30.91374 35.80415 33.35894
#
# Velocity S-wave (km/s) = 3.96688 4.26914 4.12078
# Velocity P-wave (km/s) = 4.93089 7.78872 6.51835
#
# Compressibility (1/GPa) = 0.15276817
#
# Stress axis : x y z
#
# Youngs Moduli (GPa) = 191.20883 5.84073 143.39113
#
# Poissons Ratio (x) = 0.04132 0.30149
# Poissons Ratio (y) = 1.35262 0.88140
# Poissons Ratio (z) = 0.40204 0.03590
#
# Static dielectric constant tensor:
#      x y z
#    x 5.590560 0.000000 0.000000 
#    y 0.000000 2.838880 0.000000 
#    z 0.000000 0.000000 3.588930 
# 
# 
# High freq. dielectric constant tensor:
#      x y z
#    x 1.809460 0.000000 0.000000 
#    y 0.000000 1.683720 0.000000 
#    z 0.000000 0.000000 1.770300 
# 
# From -- ./inp_files/31335.got.cif
#   From: 2010.03.12/outbox.cif.g09.slc.cpg/sg67_16_cif.got.tgz:31335.got - 2010.04.10 22:41:39.
