data_PCOD8277320
_publ_section_title
;
Structure prediction by ZEFSAII (Michael W. Deem and Ramdas Pophale) SiO2 
 PCOD8277320
Probable space group: C C C M
;
_chemical_formula_sum "Si O2"
_cell_formula_units_Z 96
_cell_length_a 28.184984
_cell_length_b 9.890203
_cell_length_c 17.100412
_cell_angle_alpha 90.000000
_cell_angle_beta 90.000000
_cell_angle_gamma 90.000000
_cell_volume 4766.828995
_symmetry_space_group_name_H-M "C C C M"
_symmetry_group_IT_number 66
_symmetry_cell_setting 'orthorhombic'
loop_
_space_group_symop_operation_xyz
x,y,z
-x,-y,z
x,-y,1/2-z
-x,y,1/2-z
-x,-y,-z
x,y,-z
-x,y,1/2+z
x,-y,1/2+z
1/2+x,1/2+y,z
1/2-x,1/2-y,z
1/2+x,1/2-y,1/2-z
1/2-x,1/2+y,1/2-z
1/2-x,1/2-y,-z
1/2+x,1/2+y,-z
1/2-x,1/2+y,1/2+z
1/2+x,1/2-y,1/2+z
loop_
_atom_site_type_symbol
_atom_site_label
_atom_site_fract_x
_atom_site_fract_y
_atom_site_fract_z
Si Si1 0.354372 0.002545 0.157573
Si Si2 0.992430 0.850315 0.091874
Si Si3 0.092250 0.734999 0.908704
Si Si4 0.755221 0.593337 0.324771
Si Si5 0.846438 0.968899 0.657899
Si Si6 0.608881 0.270102 0.590823
O O1 0.359840 0.157854 0.133676
O O2 0.360228 0.000000 0.250000
O O3 0.395696 0.918061 0.114954
O O4 0.303830 0.939069 0.128124
O O5 0.037113 0.756716 0.112106
O O6 0.944822 0.779552 0.125464
O O7 0.984723 0.868405 0.000000
O O8 0.000000 0.000000 0.128860
O O9 0.124103 0.833414 0.856543
O O10 0.101733 0.762287 0.000000
O O11 0.759286 0.500000 0.250000
O O12 0.750000 0.750000 0.300326
O O13 0.707739 0.552857 0.371580
O O14 0.866841 0.086476 0.604648
O O15 0.848416 0.000000 0.750000
O O16 0.608367 0.235035 0.500000
#
# Coordination Sequence:
#
# PCOD8277320 Si02
#       6
#    16  16  16  16  16  16
#     4  11  24  42  62  88 125 159 201 254 306 360
#     4   9  18  36  62  88 118 161 204 240 295 374
#     4  11  21  39  64  90 120 160 204 247 300 361
#     4  10  22  39  63  89 121 165 207 242 299 379
#     4  11  22  38  63  91 121 158 204 248 301 361
#     4  11  23  41  63  91 124 160 204 253 304 360
#
# _framework density 20.139174000000001
#
# number of rings (size 3 to 8) (size 9 to 14) (size 15 to 20)
#    0.000    1.500    3.333    2.000    7.000    0.667 
#    0.000   12.500    0.000    0.000    0.000    0.000 
#    0.000    0.000    0.000    0.000    0.000    0.000 
#
# Total GULP energy -595159.582785 kJ/mol
# GULP energy per Si atom -12399.157975 kJ/mol
# Density = 2.009334 g / cm^3
# Si number density = 20.139174 Si / 1000 Ang^3
#
#
#
# Elastic Constant Matrix: (Units=GPa)
#
#
# Indices 1 2 3 4 5 6 
#
# 1 154.1832 44.8636 26.1630 0.0000 0.0000 0.0000
# 2 44.8636 70.5987 1.3083 0.0000 0.0000 0.0000
# 3 26.1630 1.3083 50.5802 0.0000 0.0000 0.0000
# 4 0.0000 0.0000 0.0000 36.0742 0.0000 0.0000
# 5 0.0000 0.0000 0.0000 0.0000 24.0072 0.0000
# 6 0.0000 0.0000 0.0000 0.0000 0.0000 36.8006
#
#
#
# Elastic Compliance Matrix: (Units=1/GPa)
#
#
# Indices 1 2 3 4 5 6 
#
# 1 0.008851 -0.005542 -0.004435 0.000000 0.000000 0.000000
# 2 -0.005542 0.017642 0.002411 0.000000 0.000000 0.000000
# 3 -0.004435 0.002411 0.022002 0.000000 0.000000 0.000000
# 4 0.000000 0.000000 0.000000 0.027721 0.000000 0.000000
# 5 0.000000 0.000000 0.000000 0.000000 0.041654 0.000000
# 6 0.000000 0.000000 0.000000 0.000000 0.000000 0.027173
#
#
# Mechanical properties :
#
#
# Convention : Reuss Voigt Hill
#
# Bulk Modulus (GPa) = 29.97456 46.67021 38.32238
# Shear Modulus (GPa) = 29.18895 32.91154 31.05024
#
# Velocity S-wave (km/s) = 3.81118 4.04692 3.93081
# Velocity P-wave (km/s) = 5.85515 6.71274 6.29856
#
# Compressibility (1/GPa) = 0.03336162
#
# Stress axis : x y z
#
# Youngs Moduli (GPa) = 112.98095 56.68309 45.44997
#
# Poissons Ratio (x) = 0.31416 0.20157
# Poissons Ratio (y) = 0.62619 -0.10956
# Poissons Ratio (z) = 0.50106 -0.13664
#
# Static dielectric constant tensor:
#      x y z
#    x 4.316130 0.000000 0.000000 
#    y 0.000000 3.703790 0.000000 
#    z 0.000000 0.000000 3.338630 
# 
# 
# High freq. dielectric constant tensor:
#      x y z
#    x 1.806290 0.000000 0.000000 
#    y 0.000000 1.795510 0.000000 
#    z 0.000000 0.000000 1.752930 
# 
# From -- ./inp_files/47310.got.cif
#   From: 2010.03.12/outbox.cif.g09.slc.cpg/sg66_24_cif.got.tgz:47310.got - 2010.04.10 21:57:39.
