data_PCOD8277733
_publ_section_title
;
Structure prediction by ZEFSAII (Michael W. Deem and Ramdas Pophale) SiO2 
 PCOD8277733
Probable space group: C C C M
;
_chemical_formula_sum "Si O2"
_cell_formula_units_Z 116
_cell_length_a 22.477401
_cell_length_b 27.633415
_cell_length_c 9.224037
_cell_angle_alpha 90.000000
_cell_angle_beta 90.000000
_cell_angle_gamma 90.000000
_cell_volume 5729.301658
_symmetry_space_group_name_H-M "C C C M"
_symmetry_group_IT_number 66
_symmetry_cell_setting 'orthorhombic'
loop_
_space_group_symop_operation_xyz
x,y,z
-x,-y,z
x,-y,1/2-z
-x,y,1/2-z
-x,-y,-z
x,y,-z
-x,y,1/2+z
x,-y,1/2+z
1/2+x,1/2+y,z
1/2-x,1/2-y,z
1/2+x,1/2-y,1/2-z
1/2-x,1/2+y,1/2-z
1/2-x,1/2-y,-z
1/2+x,1/2+y,-z
1/2-x,1/2+y,1/2+z
1/2+x,1/2-y,1/2+z
loop_
_atom_site_type_symbol
_atom_site_label
_atom_site_fract_x
_atom_site_fract_y
_atom_site_fract_z
Si Si1 0.229568 0.452779 0.669459
Si Si2 0.865478 0.335746 0.330534
Si Si3 0.000000 0.500000 0.250000
Si Si4 0.403460 0.923240 0.162172
Si Si5 0.943613 0.136953 0.333171
Si Si6 0.749810 0.693179 0.669676
Si Si7 0.055522 0.246185 0.165922
Si Si8 0.314175 0.620256 0.669811
O O1 0.252657 0.500000 0.750000
O O2 0.242686 0.456984 0.500000
O O3 0.159726 0.446939 0.702734
O O4 0.269675 0.411162 0.736101
O O5 0.852317 0.345967 0.500000
O O6 0.910881 0.377693 0.272281
O O7 0.806180 0.336021 0.234589
O O8 0.890134 0.282019 0.306253
O O9 0.043970 0.536461 0.164489
O O10 0.402024 0.902128 0.000000
O O11 0.961188 0.136577 0.500000
O O12 0.930533 0.191846 0.279228
O O13 0.883523 0.105908 0.306544
O O14 0.000000 0.113957 0.250000
O O15 0.745022 0.680063 0.500000
O O16 0.750000 0.750000 0.695428
O O17 0.693828 0.674155 0.763441
O O18 0.000000 0.268506 0.250000
O O19 0.037209 0.245288 0.000000
O O20 0.297683 0.619094 0.500000
#
# Coordination Sequence:
#
# PCOD8277733 Si02
#       8
#    16  16   4  16  16  16  16  16
#     4  11  23  42  66  92 123 157 200 254 311 373
#     4  11  23  38  58  83 117 158 202 254 313 371
#     4  12  26  48  68  90 118 160 214 270 334 388
#     4  11  25  43  64  88 117 153 202 260 318 378
#     4   9  19  36  59  87 122 159 200 244 289 351
#     4  11  23  37  56  86 123 163 207 255 309 369
#     4   9  19  35  53  79 113 156 202 244 292 352
#     4  11  22  38  62  91 122 159 204 250 305 370
#
# _framework density 20.246794000000001
#
# number of rings (size 3 to 8) (size 9 to 14) (size 15 to 20)
#    0.000    1.517    2.069    2.690    0.966    6.069 
#    0.000    2.759    0.000    0.414    0.000    2.897 
#    0.000    0.000    0.000    0.000    0.000    0.000 
#
# Total GULP energy -718824.702144 kJ/mol
# GULP energy per Si atom -12393.529347 kJ/mol
# Density = 2.020071 g / cm^3
# Si number density = 20.246794 Si / 1000 Ang^3
#
#
#
# Elastic Constant Matrix: (Units=GPa)
#
#
# Indices 1 2 3 4 5 6 
#
# 1 120.1253 31.4871 53.0980 0.0000 0.0000 0.0000
# 2 31.4871 62.2096 36.0902 0.0000 0.0000 0.0000
# 3 53.0980 36.0902 99.5916 0.0000 0.0000 0.0000
# 4 0.0000 0.0000 0.0000 -148.2384 0.0000 0.0000
# 5 0.0000 0.0000 0.0000 0.0000 27.3184 0.0000
# 6 0.0000 0.0000 0.0000 0.0000 0.0000 22.0441
#
#
#
# Elastic Compliance Matrix: (Units=1/GPa)
#
#
# Indices 1 2 3 4 5 6 
#
# 1 0.011266 -0.002808 -0.004989 0.000000 0.000000 0.000000
# 2 -0.002808 0.021053 -0.006132 0.000000 0.000000 0.000000
# 3 -0.004989 -0.006132 0.014923 0.000000 0.000000 0.000000
# 4 0.000000 0.000000 0.000000 -0.006746 0.000000 0.000000
# 5 0.000000 0.000000 0.000000 0.000000 0.036605 0.000000
# 6 0.000000 0.000000 0.000000 0.000000 0.000000 0.045364
#
#
# Mechanical properties :
#
#
# Convention : Reuss Voigt Hill
#
# Bulk Modulus (GPa) = 51.58858 58.14188 54.86523
# Shear Modulus (GPa) = 31.89071 -9.02510 11.43280
#
# Velocity S-wave (km/s) = 3.97306 -2.11358 2.37886
# Velocity P-wave (km/s) = 6.82511 4.77730 5.89087
#
# Compressibility (1/GPa) = 0.01938414
#
# Stress axis : x y z
#
# Youngs Moduli (GPa) = 88.76371 47.49805 67.00991
#
# Poissons Ratio (x) = 0.13337 0.33431
# Poissons Ratio (y) = 0.24924 0.41093
# Poissons Ratio (z) = 0.44284 0.29128
#
# Static dielectric constant tensor:
#      x y z
#    x 3.769070 0.000000 0.000000 
#    y 0.000000 3.861960 0.000000 
#    z 0.000000 0.000000 3.708520 
# 
# 
# High freq. dielectric constant tensor:
#      x y z
#    x 1.789020 0.000000 0.000000 
#    y 0.000000 1.776950 0.000000 
#    z 0.000000 0.000000 1.796380 
# 
# From -- ./inp_files/9624.got.cif
#   From: 2010.03.12/outbox.cif.g09.slc.cpg/sg66_5_cif.got.tgz:9624.got - 2010.04.10 21:57:39.
