data_PCOD8277711
_publ_section_title
;
Structure prediction by ZEFSAII (Michael W. Deem and Ramdas Pophale) SiO2 
 PCOD8277711
Probable space group: C C C M
;
_chemical_formula_sum "Si O2"
_cell_formula_units_Z 96
_cell_length_a 25.961894
_cell_length_b 11.274509
_cell_length_c 17.352516
_cell_angle_alpha 90.000000
_cell_angle_beta 90.000000
_cell_angle_gamma 90.000000
_cell_volume 5079.213444
_symmetry_space_group_name_H-M "C C C M"
_symmetry_group_IT_number 66
_symmetry_cell_setting 'orthorhombic'
loop_
_space_group_symop_operation_xyz
x,y,z
-x,-y,z
x,-y,1/2-z
-x,y,1/2-z
-x,-y,-z
x,y,-z
-x,y,1/2+z
x,-y,1/2+z
1/2+x,1/2+y,z
1/2-x,1/2-y,z
1/2+x,1/2-y,1/2-z
1/2-x,1/2+y,1/2-z
1/2-x,1/2-y,-z
1/2+x,1/2+y,-z
1/2-x,1/2+y,1/2+z
1/2+x,1/2-y,1/2+z
loop_
_atom_site_type_symbol
_atom_site_label
_atom_site_fract_x
_atom_site_fract_y
_atom_site_fract_z
Si Si1 0.107329 0.147262 0.413932
Si Si2 0.369971 0.998615 0.839984
Si Si3 0.946816 0.954789 0.837136
Si Si4 0.958665 0.362013 0.085843
Si Si5 0.071202 0.296321 0.909299
Si Si6 0.197237 0.307694 0.408376
O O1 0.124470 0.120009 0.500000
O O2 0.053987 0.221510 0.408993
O O3 0.153232 0.221314 0.375226
O O4 0.101667 0.021141 0.374036
O O5 0.423097 0.927554 0.852759
O O6 0.318835 0.938576 0.877632
O O7 0.359103 0.000000 0.750000
O O8 0.379796 0.129184 0.877584
O O9 0.936726 0.816286 0.852906
O O10 0.948388 0.000000 0.750000
O O11 0.000000 0.000000 0.876552
O O12 0.019750 0.378387 0.100019
O O13 0.943432 0.408548 0.000000
O O14 0.078417 0.261285 0.000000
O O15 0.198588 0.316993 0.500000
O O16 0.250000 0.250000 0.376300
#
# Coordination Sequence:
#
# PCOD8277711 Si02
#       6
#    16  16  16  16  16  16
#     4   9  17  33  55  77 103 143 194 234 271 332
#     4  11  23  34  56  86 121 145 185 238 303 353
#     4  11  23  33  50  78 119 158 199 235 279 338
#     4   9  18  33  53  77 113 158 196 228 270 341
#     4  11  22  35  54  81 120 164 199 238 286 341
#     4   9  19  39  66  85 103 140 193 242 284 348
#
# _framework density 18.900563999999999
#
# number of rings (size 3 to 8) (size 9 to 14) (size 15 to 20)
#    0.000    2.000    1.667    3.500    4.667    3.333 
#    0.000    0.833    0.000    0.000    0.000    4.667 
#    0.000    0.000    0.000    0.000    0.000    0.000 
#
# Total GULP energy -594739.596831 kJ/mol
# GULP energy per Si atom -12390.408267 kJ/mol
# Density = 1.885755 g / cm^3
# Si number density = 18.900564 Si / 1000 Ang^3
#
#
#
# Elastic Constant Matrix: (Units=GPa)
#
#
# Indices 1 2 3 4 5 6 
#
# 1 90.5756 40.8654 27.6801 0.0000 0.0000 0.0000
# 2 40.8654 97.5643 37.5332 0.0000 0.0000 0.0000
# 3 27.6801 37.5332 72.4232 0.0000 0.0000 0.0000
# 4 0.0000 0.0000 0.0000 33.4308 0.0000 0.0000
# 5 0.0000 0.0000 0.0000 0.0000 12.0494 0.0000
# 6 0.0000 0.0000 0.0000 0.0000 0.0000 32.4623
#
#
#
# Elastic Compliance Matrix: (Units=1/GPa)
#
#
# Indices 1 2 3 4 5 6 
#
# 1 0.014086 -0.004782 -0.002905 0.000000 0.000000 0.000000
# 2 -0.004782 0.014426 -0.005648 0.000000 0.000000 0.000000
# 3 -0.002905 -0.005648 0.017845 0.000000 0.000000 0.000000
# 4 0.000000 0.000000 0.000000 0.029913 0.000000 0.000000
# 5 0.000000 0.000000 0.000000 0.000000 0.082992 0.000000
# 6 0.000000 0.000000 0.000000 0.000000 0.000000 0.030805
#
#
# Mechanical properties :
#
#
# Convention : Reuss Voigt Hill
#
# Bulk Modulus (GPa) = 50.79932 52.52450 51.66191
# Shear Modulus (GPa) = 22.39145 25.88746 24.13945
#
# Velocity S-wave (km/s) = 3.44568 3.70491 3.57764
# Velocity P-wave (km/s) = 6.53955 6.79353 6.66775
#
# Compressibility (1/GPa) = 0.01968530
#
# Stress axis : x y z
#
# Youngs Moduli (GPa) = 70.99231 69.32089 56.03722
#
# Poissons Ratio (x) = 0.33152 0.16280
# Poissons Ratio (y) = 0.33951 0.31651
# Poissons Ratio (z) = 0.20625 0.39154
#
# Static dielectric constant tensor:
#      x y z
#    x 3.408740 0.000000 0.000000 
#    y 0.000000 3.529840 0.000000 
#    z 0.000000 0.000000 3.306270 
# 
# 
# High freq. dielectric constant tensor:
#      x y z
#    x 1.698770 0.000000 0.000000 
#    y 0.000000 1.737720 0.000000 
#    z 0.000000 0.000000 1.721470 
# 
# From -- ./inp_files/44267.got.cif
#   From: 2010.03.12/outbox.cif.g09.slc.cpg/sg66_23_cif.got.tgz:44267.got - 2010.04.10 21:57:39.
