data_PCOD8277628
_publ_section_title
;
Structure prediction by ZEFSAII (Michael W. Deem and Ramdas Pophale) SiO2 
 PCOD8277628
Probable space group: C C C M
;
_chemical_formula_sum "Si O2"
_cell_formula_units_Z 48
_cell_length_a 9.489304
_cell_length_b 15.983613
_cell_length_c 14.707280
_cell_angle_alpha 90.000000
_cell_angle_beta 90.000000
_cell_angle_gamma 90.000000
_cell_volume 2230.702615
_symmetry_space_group_name_H-M "C C C M"
_symmetry_group_IT_number 66
_symmetry_cell_setting 'orthorhombic'
loop_
_space_group_symop_operation_xyz
x,y,z
-x,-y,z
x,-y,1/2-z
-x,y,1/2-z
-x,-y,-z
x,y,-z
-x,y,1/2+z
x,-y,1/2+z
1/2+x,1/2+y,z
1/2-x,1/2-y,z
1/2+x,1/2-y,1/2-z
1/2-x,1/2+y,1/2-z
1/2-x,1/2-y,-z
1/2+x,1/2+y,-z
1/2-x,1/2+y,1/2+z
1/2+x,1/2-y,1/2+z
loop_
_atom_site_type_symbol
_atom_site_label
_atom_site_fract_x
_atom_site_fract_y
_atom_site_fract_z
Si Si1 0.516751 0.743431 0.500000
Si Si2 0.649042 0.526736 0.899123
Si Si3 0.629047 0.692689 0.817695
Si Si4 0.228693 0.613542 0.000000
O O1 0.421810 0.735084 0.589030
O O2 0.641417 0.676691 0.500000
O O3 0.581455 0.838025 0.500000
O O4 0.500000 0.500000 0.856126
O O5 0.703080 0.602137 0.835646
O O6 0.617872 0.564873 0.000000
O O7 0.756058 0.447305 0.910106
O O8 0.500000 0.684001 0.750000
O O9 0.750000 0.750000 0.772720
#
# Coordination Sequence:
#
# PCOD8277628 Si02
#       4
#     8  16  16   8
#     4  11  20  41  68  95 139 164 208 286 317 398
#     4   9  16  38  62  95 118 164 224 251 305 392
#     4  12  26  41  64  95 133 173 222 270 329 385
#     4   9  18  34  74 100 118 164 225 254 340 373
#
# _framework density 21.517885
#
# number of rings (size 3 to 8) (size 9 to 14) (size 15 to 20)
#    1.000    0.667    5.000    0.500    4.667    0.667 
#    0.000    3.333    0.000    2.000    0.000    0.000 
#    0.000    0.000    0.000    0.000    0.000    0.000 
#
# Total GULP energy -297325.344698 kJ/mol
# GULP energy per Si atom -12388.556029 kJ/mol
# Density = 2.146891 g / cm^3
# Si number density = 21.517885 Si / 1000 Ang^3
#
#
#
# Elastic Constant Matrix: (Units=GPa)
#
#
# Indices 1 2 3 4 5 6 
#
# 1 47.3378 47.0169 12.2836 0.0000 0.0000 0.0000
# 2 47.0169 165.8996 27.4703 0.0000 0.0000 0.0000
# 3 12.2836 27.4703 61.9803 0.0000 0.0000 0.0000
# 4 0.0000 0.0000 0.0000 2.2643 0.0000 0.0000
# 5 0.0000 0.0000 0.0000 0.0000 15.0603 0.0000
# 6 0.0000 0.0000 0.0000 0.0000 0.0000 44.4565
#
#
#
# Elastic Compliance Matrix: (Units=1/GPa)
#
#
# Indices 1 2 3 4 5 6 
#
# 1 0.029708 -0.008034 -0.002327 0.000000 0.000000 0.000000
# 2 -0.008034 0.008678 -0.002254 0.000000 0.000000 0.000000
# 3 -0.002327 -0.002254 0.017594 0.000000 0.000000 0.000000
# 4 0.000000 0.000000 0.000000 0.441638 0.000000 0.000000
# 5 0.000000 0.000000 0.000000 0.000000 0.066400 0.000000
# 6 0.000000 0.000000 0.000000 0.000000 0.000000 0.022494
#
#
# Mechanical properties :
#
#
# Convention : Reuss Voigt Hill
#
# Bulk Modulus (GPa) = 32.51983 49.86216 41.19100
# Shear Modulus (GPa) = 8.03869 24.91934 16.47902
#
# Velocity S-wave (km/s) = 1.93492 3.40674 2.77036
# Velocity P-wave (km/s) = 4.48750 6.22071 5.42379
#
# Compressibility (1/GPa) = 0.03075047
#
# Stress axis : x y z
#
# Youngs Moduli (GPa) = 33.66060 115.23544 56.83672
#
# Poissons Ratio (x) = 0.92583 0.13225
# Poissons Ratio (y) = 0.27044 0.12810
# Poissons Ratio (z) = 0.07833 0.25972
#
# Static dielectric constant tensor:
#      x y z
#    x 3.493310 0.000000 0.000000 
#    y 0.000000 4.241540 0.000000 
#    z 0.000000 0.000000 3.646660 
# 
# 
# High freq. dielectric constant tensor:
#      x y z
#    x 1.800480 0.000000 0.000000 
#    y 0.000000 1.863860 0.000000 
#    z 0.000000 0.000000 1.820290 
# 
# From -- ./inp_files/23555.got.cif
#   From: 2010.03.12/outbox.cif.g09.slc.cpg/sg66_12_cif.got.tgz:23555.got - 2010.04.10 21:57:39.
