data_PCOD8277863
_publ_section_title
;
Structure prediction by ZEFSAII (Michael W. Deem and Ramdas Pophale) SiO2 
 PCOD8277863
Probable space group: C C C M
;
_chemical_formula_sum "Si O2"
_cell_formula_units_Z 48
_cell_length_a 15.951203
_cell_length_b 8.362202
_cell_length_c 14.830948
_cell_angle_alpha 90.000000
_cell_angle_beta 90.000000
_cell_angle_gamma 90.000000
_cell_volume 1978.258355
_symmetry_space_group_name_H-M "C C C M"
_symmetry_group_IT_number 66
_symmetry_cell_setting 'orthorhombic'
loop_
_space_group_symop_operation_xyz
x,y,z
-x,-y,z
x,-y,1/2-z
-x,y,1/2-z
-x,-y,-z
x,y,-z
-x,y,1/2+z
x,-y,1/2+z
1/2+x,1/2+y,z
1/2-x,1/2-y,z
1/2+x,1/2-y,1/2-z
1/2-x,1/2+y,1/2-z
1/2-x,1/2-y,-z
1/2+x,1/2+y,-z
1/2-x,1/2+y,1/2+z
1/2+x,1/2-y,1/2+z
loop_
_atom_site_type_symbol
_atom_site_label
_atom_site_fract_x
_atom_site_fract_y
_atom_site_fract_z
Si Si1 0.747793 0.507888 0.000000
Si Si2 0.108397 0.238741 0.000000
Si Si3 0.316972 0.862505 0.821573
Si Si4 0.483809 0.686298 0.148089
O O1 0.762940 0.416893 0.092796
O O2 0.812997 0.650039 0.000000
O O3 0.649471 0.561168 0.000000
O O4 0.051100 0.277766 0.913282
O O5 0.250000 0.750000 0.767486
O O6 0.391777 0.758751 0.866642
O O7 0.345472 0.000000 0.750000
O O8 0.500000 0.500000 0.125870
O O9 0.500000 0.727655 0.250000
#
# Coordination Sequence:
#
# PCOD8277863 Si02
#       4
#     8   8  16  16
#     4  11  26  45  74 109 148 199 249 305 377 440
#     4  11  24  45  74 103 152 193 250 308 367 448
#     4  12  28  46  77 109 152 197 253 309 375 447
#     4  11  25  44  72 105 149 195 249 308 378 435
#
# _framework density 24.263767000000001
#
# number of rings (size 3 to 8) (size 9 to 14) (size 15 to 20)
#    0.000    0.667    0.000    6.000   14.000    6.000 
#    0.000    0.000    0.000    0.000    0.000    0.000 
#    0.000    0.000    0.000    0.000    0.000    0.000 
#
# Total GULP energy -297358.031957 kJ/mol
# GULP energy per Si atom -12389.917998 kJ/mol
# Density = 2.420854 g / cm^3
# Si number density = 24.263767 Si / 1000 Ang^3
#
#
#
# Elastic Constant Matrix: (Units=GPa)
#
#
# Indices 1 2 3 4 5 6 
#
# 1 189.1904 60.2872 40.6188 0.0000 0.0000 0.0000
# 2 60.2872 101.1691 25.7358 0.0000 0.0000 0.0000
# 3 40.6188 25.7358 125.5170 0.0000 0.0000 0.0000
# 4 0.0000 0.0000 0.0000 41.3202 0.0000 0.0000
# 5 0.0000 0.0000 0.0000 0.0000 38.5773 0.0000
# 6 0.0000 0.0000 0.0000 0.0000 0.0000 47.8975
#
#
#
# Elastic Compliance Matrix: (Units=1/GPa)
#
#
# Indices 1 2 3 4 5 6 
#
# 1 0.006762 -0.003664 -0.001437 0.000000 0.000000 0.000000
# 2 -0.003664 0.012414 -0.001360 0.000000 0.000000 0.000000
# 3 -0.001437 -0.001360 0.008711 0.000000 0.000000 0.000000
# 4 0.000000 0.000000 0.000000 0.024201 0.000000 0.000000
# 5 0.000000 0.000000 0.000000 0.000000 0.025922 0.000000
# 6 0.000000 0.000000 0.000000 0.000000 0.000000 0.020878
#
#
# Mechanical properties :
#
#
# Convention : Reuss Voigt Hill
#
# Bulk Modulus (GPa) = 66.82080 74.35113 70.58596
# Shear Modulus (GPa) = 42.80952 44.84130 43.82541
#
# Velocity S-wave (km/s) = 4.20496 4.30359 4.25456
# Velocity P-wave (km/s) = 7.15365 7.44338 7.29995
#
# Compressibility (1/GPa) = 0.01496540
#
# Stress axis : x y z
#
# Youngs Moduli (GPa) = 147.89207 80.55699 114.79962
#
# Poissons Ratio (x) = 0.29514 0.16496
# Poissons Ratio (y) = 0.54185 0.15608
# Poissons Ratio (z) = 0.21251 0.10953
#
# Static dielectric constant tensor:
#      x y z
#    x 4.685630 0.000000 0.000000 
#    y 0.000000 4.868330 0.000000 
#    z 0.000000 0.000000 4.267220 
# 
# 
# High freq. dielectric constant tensor:
#      x y z
#    x 1.982580 0.000000 0.000000 
#    y 0.000000 1.964670 0.000000 
#    z 0.000000 0.000000 1.968930 
# 
# From -- ./inp_files/23517.got.cif
#   From: 2010.03.12/outbox.cif.g09.slc.cpg/sg66_12_cif.got.tgz:23517.got - 2010.04.10 21:57:39.
