data_PCOD8277666
_publ_section_title
;
Structure prediction by ZEFSAII (Michael W. Deem and Ramdas Pophale) SiO2 
 PCOD8277666
Probable space group: C C C M
;
_chemical_formula_sum "Si O2"
_cell_formula_units_Z 96
_cell_length_a 11.709408
_cell_length_b 22.328905
_cell_length_c 16.005785
_cell_angle_alpha 90.000000
_cell_angle_beta 90.000000
_cell_angle_gamma 90.000000
_cell_volume 4184.844677
_symmetry_space_group_name_H-M "C C C M"
_symmetry_group_IT_number 66
_symmetry_cell_setting 'orthorhombic'
loop_
_space_group_symop_operation_xyz
x,y,z
-x,-y,z
x,-y,1/2-z
-x,y,1/2-z
-x,-y,-z
x,y,-z
-x,y,1/2+z
x,-y,1/2+z
1/2+x,1/2+y,z
1/2-x,1/2-y,z
1/2+x,1/2-y,1/2-z
1/2-x,1/2+y,1/2-z
1/2-x,1/2-y,-z
1/2+x,1/2+y,-z
1/2-x,1/2+y,1/2+z
1/2+x,1/2-y,1/2+z
loop_
_atom_site_type_symbol
_atom_site_label
_atom_site_fract_x
_atom_site_fract_y
_atom_site_fract_z
Si Si1 0.150800 0.171921 0.346556
Si Si2 0.112185 0.705911 0.092893
Si Si3 0.206560 0.181091 0.834313
Si Si4 0.555151 0.127877 0.670092
Si Si5 0.644708 0.379225 0.500000
Si Si6 0.603177 0.587318 0.500000
Si Si7 0.297438 0.990732 0.500000
Si Si8 0.000000 0.500000 0.875155
O O1 0.074410 0.227611 0.378734
O O2 0.286456 0.184970 0.346767
O O3 0.127620 0.163479 0.246499
O O4 0.129641 0.118349 0.410874
O O5 0.003399 0.661770 0.091932
O O6 0.163357 0.707668 0.000000
O O7 0.250000 0.250000 0.834253
O O8 0.310652 0.134378 0.833718
O O9 0.138778 0.164672 0.919098
O O10 0.500000 0.161577 0.750000
O O11 0.514007 0.059553 0.678351
O O12 0.533454 0.422818 0.500000
O O13 0.758271 0.421000 0.500000
O O14 0.680941 0.528496 0.500000
O O15 0.379972 0.005554 0.576672
#
# Coordination Sequence:
#
# PCOD8277666 Si02
#       8
#    16  16  16  16   8   8   8   8
#     4  11  21  43  66 105 138 182 236 291 351 424
#     4  11  21  37  67 100 142 179 231 289 354 420
#     4  12  26  46  69 103 152 191 232 295 364 440
#     4  12  24  41  69 106 144 188 233 296 369 431
#     4  12  29  51  68 103 142 192 247 292 360 433
#     4  12  26  45  79  99 136 189 243 302 356 430
#     4  11  25  49  73 102 138 184 243 304 365 430
#     4  11  25  44  76 102 140 188 236 305 365 428
#
# _framework density 22.939919
#
# number of rings (size 3 to 8) (size 9 to 14) (size 15 to 20)
#    0.000    0.500    6.667    2.250    5.833    0.667 
#    0.000    0.833    0.000    2.000    0.000    0.000 
#    0.000    0.000    0.000    0.000    0.000    0.000 
#
# Total GULP energy -594730.988063 kJ/mol
# GULP energy per Si atom -12390.228918 kJ/mol
# Density = 2.288771 g / cm^3
# Si number density = 22.939919 Si / 1000 Ang^3
#
#
#
# Elastic Constant Matrix: (Units=GPa)
#
#
# Indices 1 2 3 4 5 6 
#
# 1 89.8430 26.4174 21.3411 0.0000 0.0000 0.0000
# 2 26.4174 106.2150 31.6197 0.0000 0.0000 0.0000
# 3 21.3411 31.6197 159.1534 0.0000 0.0000 0.0000
# 4 0.0000 0.0000 0.0000 14.0715 0.0000 0.0000
# 5 0.0000 0.0000 0.0000 0.0000 16.8970 0.0000
# 6 0.0000 0.0000 0.0000 0.0000 0.0000 37.6811
#
#
#
# Elastic Compliance Matrix: (Units=1/GPa)
#
#
# Indices 1 2 3 4 5 6 
#
# 1 0.012186 -0.002704 -0.001097 0.000000 0.000000 0.000000
# 2 -0.002704 0.010607 -0.001745 0.000000 0.000000 0.000000
# 3 -0.001097 -0.001745 0.006777 0.000000 0.000000 0.000000
# 4 0.000000 0.000000 0.000000 0.071066 0.000000 0.000000
# 5 0.000000 0.000000 0.000000 0.000000 0.059182 0.000000
# 6 0.000000 0.000000 0.000000 0.000000 0.000000 0.026538
#
#
# Mechanical properties :
#
#
# Convention : Reuss Voigt Hill
#
# Bulk Modulus (GPa) = 54.11741 57.10754 55.61247
# Shear Modulus (GPa) = 24.55703 32.11880 28.33792
#
# Velocity S-wave (km/s) = 3.27539 3.74589 3.51851
# Velocity P-wave (km/s) = 6.16006 6.60737 6.38763
#
# Compressibility (1/GPa) = 0.01847834
#
# Stress axis : x y z
#
# Youngs Moduli (GPa) = 82.05959 94.27846 147.55934
#
# Poissons Ratio (x) = 0.25497 0.16184
# Poissons Ratio (y) = 0.22192 0.25744
# Poissons Ratio (z) = 0.09000 0.16449
#
# Static dielectric constant tensor:
#      x y z
#    x 3.955960 0.000000 0.000000 
#    y 0.000000 3.914790 0.000000 
#    z 0.000000 0.000000 4.257430 
# 
# 
# High freq. dielectric constant tensor:
#      x y z
#    x 1.903550 0.000000 0.000000 
#    y 0.000000 1.888210 0.000000 
#    z 0.000000 0.000000 1.920750 
# 
# From -- ./inp_files/38937.got.cif
#   From: 2010.03.12/outbox.cif.g09.slc.cpg/sg66_20_cif.got.tgz:38937.got - 2010.04.10 21:57:39.
