data_PCOD8277370
_publ_section_title
;
Structure prediction by ZEFSAII (Michael W. Deem and Ramdas Pophale) SiO2 
 PCOD8277370
Probable space group: C C C M
;
_chemical_formula_sum "Si O2"
_cell_formula_units_Z 80
_cell_length_a 18.302459
_cell_length_b 25.095925
_cell_length_c 8.573852
_cell_angle_alpha 90.000000
_cell_angle_beta 90.000000
_cell_angle_gamma 90.000000
_cell_volume 3938.117166
_symmetry_space_group_name_H-M "C C C M"
_symmetry_group_IT_number 66
_symmetry_cell_setting 'orthorhombic'
loop_
_space_group_symop_operation_xyz
x,y,z
-x,-y,z
x,-y,1/2-z
-x,y,1/2-z
-x,-y,-z
x,y,-z
-x,y,1/2+z
x,-y,1/2+z
1/2+x,1/2+y,z
1/2-x,1/2-y,z
1/2+x,1/2-y,1/2-z
1/2-x,1/2+y,1/2-z
1/2-x,1/2-y,-z
1/2+x,1/2+y,-z
1/2-x,1/2+y,1/2+z
1/2+x,1/2-y,1/2+z
loop_
_atom_site_type_symbol
_atom_site_label
_atom_site_fract_x
_atom_site_fract_y
_atom_site_fract_z
Si Si1 0.665577 0.745222 0.679903
Si Si2 0.578986 0.851862 0.317670
Si Si3 0.078306 0.151009 0.182031
Si Si4 0.830687 0.057666 0.183958
Si Si5 0.824286 0.557564 0.183795
O O1 0.653648 0.728743 0.500000
O O2 0.750000 0.750000 0.721990
O O3 0.628951 0.801301 0.718493
O O4 0.632272 0.700029 0.789050
O O5 0.500000 0.839142 0.250000
O O6 0.574502 0.864464 0.500000
O O7 0.611633 0.902594 0.229982
O O8 0.106385 0.098090 0.266727
O O9 0.000000 0.166774 0.250000
O O10 0.072506 0.139441 0.000000
O O11 0.752715 0.077957 0.247658
O O12 0.851094 0.000000 0.250000
O O13 0.825522 0.054213 0.000000
O O14 0.845113 0.500000 0.250000
O O15 0.816664 0.553644 0.000000
#
# Coordination Sequence:
#
# PCOD8277370 Si02
#       5
#    16  16  16  16  16
#     4  10  22  41  65  91 121 158 199 246 300 358
#     4  11  23  39  60  88 123 161 202 249 303 360
#     4  12  25  41  62  90 124 161 202 248 301 358
#     4  11  22  40  64  91 123 159 202 248 298 354
#     4  11  22  39  63  91 122 158 202 248 299 357
#
# _framework density 20.314277000000001
#
# number of rings (size 3 to 8) (size 9 to 14) (size 15 to 20)
#    0.000    1.000    0.000    9.000    0.000    6.000 
#    0.000    4.000    0.000    0.000    0.000    0.000 
#    0.000    0.000    0.000    0.000    0.000    0.000 
#
# Total GULP energy -496338.500269 kJ/mol
# GULP energy per Si atom -12408.462507 kJ/mol
# Density = 2.026804 g / cm^3
# Si number density = 20.314277 Si / 1000 Ang^3
#
#
#
# Elastic Constant Matrix: (Units=GPa)
#
#
# Indices 1 2 3 4 5 6 
#
# 1 135.2413 62.3467 47.7633 0.0000 0.0000 0.0000
# 2 62.3467 102.5152 54.8981 0.0000 0.0000 0.0000
# 3 47.7633 54.8981 168.2344 0.0000 0.0000 0.0000
# 4 0.0000 0.0000 0.0000 28.3623 0.0000 0.0000
# 5 0.0000 0.0000 0.0000 0.0000 35.2410 0.0000
# 6 0.0000 0.0000 0.0000 0.0000 0.0000 153.5274
#
#
#
# Elastic Compliance Matrix: (Units=1/GPa)
#
#
# Indices 1 2 3 4 5 6 
#
# 1 0.010435 -0.005767 -0.001080 0.000000 0.000000 0.000000
# 2 -0.005767 0.015008 -0.003260 0.000000 0.000000 0.000000
# 3 -0.001080 -0.003260 0.007315 0.000000 0.000000 0.000000
# 4 0.000000 0.000000 0.000000 0.035258 0.000000 0.000000
# 5 0.000000 0.000000 0.000000 0.000000 0.028376 0.000000
# 6 0.000000 0.000000 0.000000 0.000000 0.000000 0.006513
#
#
# Mechanical properties :
#
#
# Convention : Reuss Voigt Hill
#
# Bulk Modulus (GPa) = 79.73520 81.77857 80.75688
# Shear Modulus (GPa) = 39.27704 59.49167 49.38436
#
# Velocity S-wave (km/s) = 4.40189 5.41749 4.93588
# Velocity P-wave (km/s) = 8.07289 8.91495 8.50435
#
# Compressibility (1/GPa) = 0.01254151
#
# Stress axis : x y z
#
# Youngs Moduli (GPa) = 95.83537 66.63137 136.71239
#
# Poissons Ratio (x) = 0.38429 0.14771
# Poissons Ratio (y) = 0.55272 0.44568
# Poissons Ratio (z) = 0.10355 0.21722
#
# Static dielectric constant tensor:
#      x y z
#    x 3.729960 0.000000 0.000000 
#    y 0.000000 3.720360 0.000000 
#    z 0.000000 0.000000 3.820290 
# 
# 
# High freq. dielectric constant tensor:
#      x y z
#    x 1.801210 0.000000 0.000000 
#    y 0.000000 1.805030 0.000000 
#    z 0.000000 0.000000 1.808520 
# 
# From -- ./inp_files/6694.got.cif
#   From: 2010.03.12/outbox.cif.g09.slc.cpg/sg66_4_cif.got.tgz:6694.got - 2010.04.10 21:57:39.
