data_PCOD8277021
_publ_section_title
;
Structure prediction by ZEFSAII (Michael W. Deem and Ramdas Pophale) SiO2 
 PCOD8277021
Probable space group: C C C M
;
_chemical_formula_sum "Si O2"
_cell_formula_units_Z 112
_cell_length_a 13.158924
_cell_length_b 24.983191
_cell_length_c 16.846330
_cell_angle_alpha 90.000000
_cell_angle_beta 90.000000
_cell_angle_gamma 90.000000
_cell_volume 5538.263192
_symmetry_space_group_name_H-M "C C C M"
_symmetry_group_IT_number 66
_symmetry_cell_setting 'orthorhombic'
loop_
_space_group_symop_operation_xyz
x,y,z
-x,-y,z
x,-y,1/2-z
-x,y,1/2-z
-x,-y,-z
x,y,-z
-x,y,1/2+z
x,-y,1/2+z
1/2+x,1/2+y,z
1/2-x,1/2-y,z
1/2+x,1/2-y,1/2-z
1/2-x,1/2+y,1/2-z
1/2-x,1/2-y,-z
1/2+x,1/2+y,-z
1/2-x,1/2+y,1/2+z
1/2+x,1/2-y,1/2+z
loop_
_atom_site_type_symbol
_atom_site_label
_atom_site_fract_x
_atom_site_fract_y
_atom_site_fract_z
Si Si1 0.410533 0.656730 0.407143
Si Si2 0.957787 0.943433 0.594391
Si Si3 0.298708 0.160874 0.815302
Si Si4 0.694937 0.197820 0.140063
Si Si5 0.381177 0.058776 0.262662
Si Si6 0.528040 0.775693 0.093003
Si Si7 0.263801 0.913132 0.088665
O O1 0.388725 0.649527 0.500000
O O2 0.476293 0.606749 0.373514
O O3 0.304295 0.658099 0.363331
O O4 0.469067 0.712152 0.390036
O O5 0.960836 0.942478 0.500000
O O6 0.841373 0.937303 0.622686
O O7 0.000000 0.000000 0.627669
O O8 0.279797 0.190369 0.732461
O O9 0.333350 0.099994 0.799779
O O10 0.379106 0.194146 0.865964
O O11 0.750000 0.250000 0.106889
O O12 0.574131 0.200653 0.129894
O O13 0.743967 0.151043 0.087093
O O14 0.500000 0.059638 0.250000
O O15 0.357079 0.073069 0.353793
O O16 0.335065 0.000000 0.250000
O O17 0.533328 0.788038 0.000000
O O18 0.286479 0.934731 0.000000
#
# Coordination Sequence:
#
# PCOD8277021 Si02
#       7
#    16  16  16  16  16  16  16
#     4  10  21  37  60  92 125 160 203 254 313 374
#     4   9  19  36  60  89 122 157 199 256 309 360
#     4  11  22  38  60  84 120 161 203 247 313 378
#     4  11  22  36  57  85 119 160 199 247 308 368
#     4  10  23  43  62  84 121 160 201 260 310 358
#     4  11  22  37  59  88 123 159 203 255 308 375
#     4  10  21  39  63  89 119 156 205 252 302 366
#
# _framework density 20.222947000000001
#
# number of rings (size 3 to 8) (size 9 to 14) (size 15 to 20)
#    0.000    1.714    0.000    5.143    2.000    3.429 
#    0.000    8.571    0.000    0.000    0.000    0.000 
#    0.000    0.000    0.000    0.000    0.000    0.000 
#
# Total GULP energy -694470.137458 kJ/mol
# GULP energy per Si atom -12401.252455 kJ/mol
# Density = 2.017692 g / cm^3
# Si number density = 20.222947 Si / 1000 Ang^3
#
#
#
# Elastic Constant Matrix: (Units=GPa)
#
#
# Indices 1 2 3 4 5 6 
#
# 1 114.9671 37.3724 37.1310 0.0000 0.0000 0.0000
# 2 37.3724 138.3402 30.7309 0.0000 0.0000 0.0000
# 3 37.1310 30.7309 75.7286 0.0000 0.0000 0.0000
# 4 0.0000 0.0000 0.0000 13.3660 0.0000 0.0000
# 5 0.0000 0.0000 0.0000 0.0000 0.0431 0.0000
# 6 0.0000 0.0000 0.0000 0.0000 0.0000 31.8234
#
#
#
# Elastic Compliance Matrix: (Units=1/GPa)
#
#
# Indices 1 2 3 4 5 6 
#
# 1 0.010775 -0.001909 -0.004508 0.000000 0.000000 0.000000
# 2 -0.001909 0.008283 -0.002425 0.000000 0.000000 0.000000
# 3 -0.004508 -0.002425 0.016400 0.000000 0.000000 0.000000
# 4 0.000000 0.000000 0.000000 0.074817 0.000000 0.000000
# 5 0.000000 0.000000 0.000000 0.000000 23.211772 0.000000
# 6 0.000000 0.000000 0.000000 0.000000 0.000000 0.031423
#
#
# Mechanical properties :
#
#
# Convention : Reuss Voigt Hill
#
# Bulk Modulus (GPa) = 56.26790 59.94495 58.10642
# Shear Modulus (GPa) = 0.21388 23.96659 12.09024
#
# Velocity S-wave (km/s) = 0.32557 3.44629 2.44774
# Velocity P-wave (km/s) = 5.29391 6.74850 6.06497
#
# Compressibility (1/GPa) = 0.01777212
#
# Stress axis : x y z
#
# Youngs Moduli (GPa) = 92.80872 120.72809 60.97690
#
# Poissons Ratio (x) = 0.23051 0.27490
# Poissons Ratio (y) = 0.17720 0.14788
# Poissons Ratio (z) = 0.41841 0.29278
#
# Static dielectric constant tensor:
#      x y z
#    x 3.706840 0.000000 0.000000 
#    y 0.000000 4.208510 0.000000 
#    z 0.000000 0.000000 3.519410 
# 
# 
# High freq. dielectric constant tensor:
#      x y z
#    x 1.795160 0.000000 0.000000 
#    y 0.000000 1.804810 0.000000 
#    z 0.000000 0.000000 1.780520 
# 
# From -- ./inp_files/28672.got.cif
#   From: 2010.03.12/outbox.cif.g09.slc.cpg/sg66_15_cif.got.tgz:28672.got - 2010.04.10 21:57:39.
