data_PCOD8277573
_publ_section_title
;
Structure prediction by ZEFSAII (Michael W. Deem and Ramdas Pophale) SiO2 
 PCOD8277573
Probable space group: C C C M
;
_chemical_formula_sum "Si O2"
_cell_formula_units_Z 88
_cell_length_a 16.830714
_cell_length_b 24.712907
_cell_length_c 13.225317
_cell_angle_alpha 90.000000
_cell_angle_beta 90.000000
_cell_angle_gamma 90.000000
_cell_volume 5500.883730
_symmetry_space_group_name_H-M "C C C M"
_symmetry_group_IT_number 66
_symmetry_cell_setting 'orthorhombic'
loop_
_space_group_symop_operation_xyz
x,y,z
-x,-y,z
x,-y,1/2-z
-x,y,1/2-z
-x,-y,-z
x,y,-z
-x,y,1/2+z
x,-y,1/2+z
1/2+x,1/2+y,z
1/2-x,1/2-y,z
1/2+x,1/2-y,1/2-z
1/2-x,1/2+y,1/2-z
1/2-x,1/2-y,-z
1/2+x,1/2+y,-z
1/2-x,1/2+y,1/2+z
1/2+x,1/2-y,1/2+z
loop_
_atom_site_type_symbol
_atom_site_label
_atom_site_fract_x
_atom_site_fract_y
_atom_site_fract_z
Si Si1 0.570065 0.738696 0.181511
Si Si2 0.591302 0.557516 0.716133
Si Si3 0.195796 0.195392 0.500000
Si Si4 0.991478 0.177758 0.000000
Si Si5 0.298212 0.194667 0.109980
Si Si6 0.309031 0.659445 0.222209
Si Si7 0.953377 0.943348 0.500000
O O1 0.500000 0.761853 0.250000
O O2 0.609571 0.790545 0.128010
O O3 0.634032 0.710025 0.254645
O O4 0.536685 0.696892 0.099671
O O5 0.625542 0.500000 0.750000
O O6 0.500000 0.565399 0.750000
O O7 0.645074 0.605565 0.756461
O O8 0.602143 0.558411 0.596427
O O9 0.250000 0.250000 0.500000
O O10 0.217266 0.162802 0.396210
O O11 0.099192 0.200810 0.500000
O O12 0.003317 0.112618 0.000000
O O13 0.250000 0.250000 0.105409
O O14 0.267160 0.158851 0.203561
O O15 0.289969 0.165201 0.000000
O O16 0.000000 0.000000 0.500000
#
# Coordination Sequence:
#
# PCOD8277573 Si02
#       7
#    16  16   8   8  16  16   8
#     4  11  19  31  50  73  95 126 169 206 247 299
#     4  11  21  34  48  71  96 128 177 215 248 290
#     4  12  22  34  48  71  99 137 173 208 261 315
#     4  12  22  32  51  71  98 137 175 211 250 300
#     4   9  19  34  46  68  97 129 163 203 248 302
#     4  11  21  34  49  67 100 132 169 207 258 297
#     4  12  20  34  46  66  99 133 164 217 250 283
#
# _framework density 15.99743
#
# number of rings (size 3 to 8) (size 9 to 14) (size 15 to 20)
#    0.000    1.091    6.364    3.273    1.273    0.000 
#    3.273    0.000    0.000    0.000    0.000    0.000 
#    0.000    0.727    0.000    3.273    0.000    0.000 
#
# Total GULP energy -545157.518721 kJ/mol
# GULP energy per Si atom -12389.943607 kJ/mol
# Density = 1.596102 g / cm^3
# Si number density = 15.997430 Si / 1000 Ang^3
#
#
#
# Elastic Constant Matrix: (Units=GPa)
#
#
# Indices 1 2 3 4 5 6 
#
# 1 66.6420 37.1410 35.4972 0.0000 0.0000 0.0000
# 2 37.1410 71.5649 27.1547 0.0000 0.0000 0.0000
# 3 35.4972 27.1547 138.7136 0.0000 0.0000 0.0000
# 4 0.0000 0.0000 0.0000 19.1481 0.0000 0.0000
# 5 0.0000 0.0000 0.0000 0.0000 23.2179 0.0000
# 6 0.0000 0.0000 0.0000 0.0000 0.0000 20.6594
#
#
#
# Elastic Compliance Matrix: (Units=1/GPa)
#
#
# Indices 1 2 3 4 5 6 
#
# 1 0.022832 -0.010405 -0.003806 0.000000 0.000000 0.000000
# 2 -0.010405 0.019837 -0.001220 0.000000 0.000000 0.000000
# 3 -0.003806 -0.001220 0.008422 0.000000 0.000000 0.000000
# 4 0.000000 0.000000 0.000000 0.052224 0.000000 0.000000
# 5 0.000000 0.000000 0.000000 0.000000 0.043070 0.000000
# 6 0.000000 0.000000 0.000000 0.000000 0.000000 0.048404
#
#
# Mechanical properties :
#
#
# Convention : Reuss Voigt Hill
#
# Bulk Modulus (GPa) = 49.43820 52.94512 51.19166
# Shear Modulus (GPa) = 21.51516 24.41362 22.96439
#
# Velocity S-wave (km/s) = 3.67129 3.91077 3.79292
# Velocity P-wave (km/s) = 6.99586 7.31847 7.15898
#
# Compressibility (1/GPa) = 0.02022728
#
# Stress axis : x y z
#
# Youngs Moduli (GPa) = 43.79864 50.41190 118.73768
#
# Poissons Ratio (x) = 0.52455 0.45189
# Poissons Ratio (y) = 0.45574 0.14492
# Poissons Ratio (z) = 0.16669 0.06153
#
# Static dielectric constant tensor:
#      x y z
#    x 3.055070 0.000000 0.000000 
#    y 0.000000 3.054840 0.000000 
#    z 0.000000 0.000000 3.607080 
# 
# 
# High freq. dielectric constant tensor:
#      x y z
#    x 1.584340 0.000000 0.000000 
#    y 0.000000 1.573750 0.000000 
#    z 0.000000 0.000000 1.648550 
# 
# From -- ./inp_files/28818.got.cif
#   From: 2010.03.12/outbox.cif.g09.slc.cpg/sg66_15_cif.got.tgz:28818.got - 2010.04.10 21:57:39.
