data_PCOD8277986
_publ_section_title
;
Structure prediction by ZEFSAII (Michael W. Deem and Ramdas Pophale) SiO2 
 PCOD8277986
Probable space group: C M M A
;
_chemical_formula_sum "Si O2"
_cell_formula_units_Z 104
_cell_length_a 8.712515
_cell_length_b 24.376371
_cell_length_c 25.073665
_cell_angle_alpha 90.000000
_cell_angle_beta 90.000000
_cell_angle_gamma 90.000000
_cell_volume 5325.132385
_symmetry_space_group_name_H-M "C M M A"
_symmetry_group_IT_number 67
_symmetry_cell_setting 'orthorhombic'
loop_
_space_group_symop_operation_xyz
x,y,z
-x,1/2-y,z
x,-y,-z
-x,1/2+y,-z
-x,-y,-z
x,1/2+y,-z
-x,y,z
x,1/2-y,z
1/2+x,1/2+y,z
1/2-x,-y,z
1/2+x,1/2-y,-z
1/2-x,y,-z
1/2-x,1/2-y,-z
1/2+x,y,-z
1/2-x,1/2+y,z
1/2+x,-y,z
loop_
_atom_site_type_symbol
_atom_site_label
_atom_site_fract_x
_atom_site_fract_y
_atom_site_fract_z
Si Si1 0.829207 0.750000 0.154452
Si Si2 0.316803 0.136646 0.856164
Si Si3 0.248271 0.750000 0.272639
Si Si4 0.331583 0.250000 0.390305
Si Si5 0.168802 0.629678 0.738817
Si Si6 0.316189 0.939758 0.358223
Si Si7 0.816446 0.860398 0.441317
Si Si8 0.681873 0.440787 0.055480
O O1 0.733046 0.698763 0.132757
O O2 0.851482 0.750000 0.218707
O O3 0.000000 0.750000 0.129595
O O4 0.500000 0.131429 0.861430
O O5 0.255462 0.119855 0.796933
O O6 0.229649 0.098851 0.897383
O O7 0.149112 0.750000 0.326437
O O8 0.347954 0.694568 0.273481
O O9 0.500000 0.250000 0.415855
O O10 0.251233 0.305527 0.411722
O O11 0.251900 0.596357 0.691423
O O12 0.000000 0.604651 0.742053
O O13 0.500000 0.940303 0.360642
O O14 0.250820 0.913629 0.412108
O O15 0.250000 0.000000 0.351457
O O16 0.750000 0.860228 0.500000
O O17 0.000000 0.863752 0.441274
O O18 0.500000 0.444689 0.050874
O O19 0.750000 0.500000 0.068521
O O20 0.750000 0.418013 0.000000
#
# Coordination Sequence:
#
# PCOD8277986 Si02
#       8
#     8  16   8   8  16  16  16  16
#     4  10  20  33  54  87 123 159 199 240 286 348
#     4  10  20  37  59  86 122 161 198 242 293 348
#     4  10  16  33  56  86 117 150 188 231 284 343
#     4  10  20  34  57  87 119 146 181 226 283 340
#     4   9  19  34  57  86 118 152 191 234 286 344
#     4  11  23  41  60  84 112 149 192 238 286 342
#     4  11  23  41  61  86 115 148 185 232 285 344
#     4  11  22  39  62  89 119 156 202 250 298 348
#
# _framework density 19.530031000000001
#
# number of rings (size 3 to 8) (size 9 to 14) (size 15 to 20)
#    0.000    1.692    1.538    4.154    0.000    2.769 
#    0.000    6.923    0.000    0.000    0.000    0.000 
#    0.000    0.000    0.000    0.000    0.000    0.000 
#
# Total GULP energy -644537.849462 kJ/mol
# GULP energy per Si atom -12394.958644 kJ/mol
# Density = 1.948558 g / cm^3
# Si number density = 19.530031 Si / 1000 Ang^3
#
#
#
# Elastic Constant Matrix: (Units=GPa)
#
#
# Indices 1 2 3 4 5 6 
#
# 1 109.8305 38.7142 39.9095 0.0000 0.0000 0.0000
# 2 38.7142 129.5705 77.4456 0.0000 0.0000 0.0000
# 3 39.9095 77.4456 137.4295 0.0000 0.0000 0.0000
# 4 0.0000 0.0000 0.0000 27.2940 0.0000 0.0000
# 5 0.0000 0.0000 0.0000 0.0000 23.9450 0.0000
# 6 0.0000 0.0000 0.0000 0.0000 0.0000 25.8855
#
#
#
# Elastic Compliance Matrix: (Units=1/GPa)
#
#
# Indices 1 2 3 4 5 6 
#
# 1 0.010507 -0.001984 -0.001933 0.000000 0.000000 0.000000
# 2 -0.001984 0.012012 -0.006193 0.000000 0.000000 0.000000
# 3 -0.001933 -0.006193 0.011328 0.000000 0.000000 0.000000
# 4 0.000000 0.000000 0.000000 0.036638 0.000000 0.000000
# 5 0.000000 0.000000 0.000000 0.000000 0.041762 0.000000
# 6 0.000000 0.000000 0.000000 0.000000 0.000000 0.038632
#
#
# Mechanical properties :
#
#
# Convention : Reuss Voigt Hill
#
# Bulk Modulus (GPa) = 73.38640 76.55212 74.96926
# Shear Modulus (GPa) = 28.46707 30.14231 29.30469
#
# Velocity S-wave (km/s) = 3.82200 3.93285 3.87782
# Velocity P-wave (km/s) = 7.55875 7.73985 7.64984
#
# Compressibility (1/GPa) = 0.01362650
#
# Stress axis : x y z
#
# Youngs Moduli (GPa) = 95.17750 83.24822 88.27752
#
# Poissons Ratio (x) = 0.16514 0.17066
# Poissons Ratio (y) = 0.18881 0.54672
# Poissons Ratio (z) = 0.18400 0.51557
#
# Static dielectric constant tensor:
#      x y z
#    x 3.411630 0.000000 0.000000 
#    y 0.000000 3.684320 0.000000 
#    z 0.000000 0.000000 3.670010 
# 
# 
# High freq. dielectric constant tensor:
#      x y z
#    x 1.753010 0.000000 0.000000 
#    y 0.000000 1.762360 0.000000 
#    z 0.000000 0.000000 1.764110 
# 
# From -- ./inp_files/43642.got.cif
#   From: 2010.03.12/outbox.cif.g09.slc.cpg/sg67_22_cif.got.tgz:43642.got - 2010.04.10 22:41:39.
