data_PCOD8277532
_publ_section_title
;
Structure prediction by ZEFSAII (Michael W. Deem and Ramdas Pophale) SiO2 
 PCOD8277532
Probable space group: C C C M
;
_chemical_formula_sum "Si O2"
_cell_formula_units_Z 48
_cell_length_a 8.107317
_cell_length_b 16.608478
_cell_length_c 15.260680
_cell_angle_alpha 90.000000
_cell_angle_beta 90.000000
_cell_angle_gamma 90.000000
_cell_volume 2054.853554
_symmetry_space_group_name_H-M "C C C M"
_symmetry_group_IT_number 66
_symmetry_cell_setting 'orthorhombic'
loop_
_space_group_symop_operation_xyz
x,y,z
-x,-y,z
x,-y,1/2-z
-x,y,1/2-z
-x,-y,-z
x,y,-z
-x,y,1/2+z
x,-y,1/2+z
1/2+x,1/2+y,z
1/2-x,1/2-y,z
1/2+x,1/2-y,1/2-z
1/2-x,1/2+y,1/2-z
1/2-x,1/2-y,-z
1/2+x,1/2+y,-z
1/2-x,1/2+y,1/2+z
1/2+x,1/2-y,1/2+z
loop_
_atom_site_type_symbol
_atom_site_label
_atom_site_fract_x
_atom_site_fract_y
_atom_site_fract_z
Si Si1 0.869212 0.568394 0.000000
Si Si2 0.692411 0.512558 0.654636
Si Si3 0.114910 0.184577 0.332224
Si Si4 0.550137 0.760787 0.500000
O O1 0.762605 0.553239 0.087300
O O2 0.000000 0.500000 0.000000
O O3 0.962774 0.652896 0.000000
O O4 0.500000 0.500000 0.658054
O O5 0.774990 0.500000 0.750000
O O6 0.717632 0.607118 0.631327
O O7 0.250000 0.250000 0.302879
O O8 0.994995 0.216485 0.410463
O O9 0.000000 0.160800 0.250000
O O10 0.750000 0.750000 0.500000
#
# Coordination Sequence:
#
# PCOD8277532 Si02
#       4
#     8  16  16   8
#     4  12  25  44  74 107 141 192 246 297 359 431
#     4  11  24  47  69 103 146 193 240 299 359 429
#     4  11  23  43  69  97 142 185 234 297 359 416
#     4  10  24  44  65 103 146 182 235 307 365 422
#
# _framework density 23.35933
#
# number of rings (size 3 to 8) (size 9 to 14) (size 15 to 20)
#    0.000    1.000    3.333    5.500    4.667    0.667 
#    0.000    2.500    0.000    0.000    0.000    0.000 
#    0.000    0.000    0.000    0.000    0.000    0.000 
#
# Total GULP energy -297353.901968 kJ/mol
# GULP energy per Si atom -12389.745915 kJ/mol
# Density = 2.330616 g / cm^3
# Si number density = 23.359330 Si / 1000 Ang^3
#
#
#
# Elastic Constant Matrix: (Units=GPa)
#
#
# Indices 1 2 3 4 5 6 
#
# 1 61.8038 37.2118 45.5359 0.0000 0.0000 0.0000
# 2 37.2118 197.0940 61.4852 0.0000 0.0000 0.0000
# 3 45.5359 61.4852 203.2331 0.0000 0.0000 0.0000
# 4 0.0000 0.0000 0.0000 45.6367 0.0000 0.0000
# 5 0.0000 0.0000 0.0000 0.0000 -30.6351 0.0000
# 6 0.0000 0.0000 0.0000 0.0000 0.0000 46.5485
#
#
#
# Elastic Compliance Matrix: (Units=1/GPa)
#
#
# Indices 1 2 3 4 5 6 
#
# 1 0.020608 -0.002706 -0.003799 0.000000 0.000000 0.000000
# 2 -0.002706 0.005958 -0.001196 0.000000 0.000000 0.000000
# 3 -0.003799 -0.001196 0.006134 0.000000 0.000000 0.000000
# 4 0.000000 0.000000 0.000000 0.021912 0.000000 0.000000
# 5 0.000000 0.000000 0.000000 0.000000 -0.032642 0.000000
# 6 0.000000 0.000000 0.000000 0.000000 0.000000 0.021483
#
#
# Mechanical properties :
#
#
# Convention : Reuss Voigt Hill
#
# Bulk Modulus (GPa) = 57.81050 83.39965 70.60508
# Shear Modulus (GPa) = 77.37537 33.50322 55.43930
#
# Velocity S-wave (km/s) = 5.76159 3.79126 4.87696
# Velocity P-wave (km/s) = 8.31043 7.41251 7.87428
#
# Compressibility (1/GPa) = 0.01729790
#
# Stress axis : x y z
#
# Youngs Moduli (GPa) = 48.52410 167.84884 163.03897
#
# Poissons Ratio (x) = 0.45417 0.61936
# Poissons Ratio (y) = 0.13130 0.19502
# Poissons Ratio (z) = 0.18434 0.20078
#
# Static dielectric constant tensor:
#      x y z
#    x 4.138320 0.000000 0.000000 
#    y 0.000000 4.967060 0.000000 
#    z 0.000000 0.000000 4.498360 
# 
# 
# High freq. dielectric constant tensor:
#      x y z
#    x 1.896280 0.000000 0.000000 
#    y 0.000000 1.946290 0.000000 
#    z 0.000000 0.000000 1.944510 
# 
# From -- ./inp_files/23523.got.cif
#   From: 2010.03.12/outbox.cif.g09.slc.cpg/sg66_12_cif.got.tgz:23523.got - 2010.04.10 21:57:39.
