data_PCOD8277140
_publ_section_title
;
Structure prediction by ZEFSAII (Michael W. Deem and Ramdas Pophale) SiO2 
 PCOD8277140
Probable space group: C C C M
;
_chemical_formula_sum "Si O2"
_cell_formula_units_Z 72
_cell_length_a 10.684918
_cell_length_b 18.760566
_cell_length_c 17.536325
_cell_angle_alpha 90.000000
_cell_angle_beta 90.000000
_cell_angle_gamma 90.000000
_cell_volume 3515.245945
_symmetry_space_group_name_H-M "C C C M"
_symmetry_group_IT_number 66
_symmetry_cell_setting 'orthorhombic'
loop_
_space_group_symop_operation_xyz
x,y,z
-x,-y,z
x,-y,1/2-z
-x,y,1/2-z
-x,-y,-z
x,y,-z
-x,y,1/2+z
x,-y,1/2+z
1/2+x,1/2+y,z
1/2-x,1/2-y,z
1/2+x,1/2-y,1/2-z
1/2-x,1/2+y,1/2-z
1/2-x,1/2-y,-z
1/2+x,1/2+y,-z
1/2-x,1/2+y,1/2+z
1/2+x,1/2-y,1/2+z
loop_
_atom_site_type_symbol
_atom_site_label
_atom_site_fract_x
_atom_site_fract_y
_atom_site_fract_z
Si Si1 0.250000 0.750000 0.325905
Si Si2 0.500000 0.500000 0.629915
Si Si3 0.859241 0.627979 0.733606
Si Si4 0.553261 0.651790 0.085253
Si Si5 0.303230 0.500000 0.750000
Si Si6 0.724314 0.668261 0.585619
O O1 0.160501 0.704387 0.272036
O O2 0.336982 0.694876 0.372414
O O3 0.436324 0.565131 0.583564
O O4 0.387897 0.469586 0.681603
O O5 0.778862 0.567252 0.776159
O O6 0.823742 0.631348 0.643317
O O7 0.000000 0.604830 0.750000
O O8 0.416035 0.665661 0.120505
O O9 0.559961 0.681340 0.000000
O O10 0.732291 0.632262 0.500000
O O11 0.750000 0.750000 0.575715
#
# Coordination Sequence:
#
# PCOD8277140 Si02
#       6
#     8   8  16  16   8  16
#     4  12  25  38  65 102 128 168 224 282 331 404
#     4  11  21  40  68  92 125 179 216 274 334 408
#     4  12  24  40  65  92 130 173 217 274 331 388
#     4  11  23  41  65  95 134 170 215 276 339 398
#     4  11  23  40  64  92 129 165 228 274 328 395
#     4  10  21  39  63  91 124 165 209 257 325 398
#
# _framework density 20.482209999999998
#
# number of rings (size 3 to 8) (size 9 to 14) (size 15 to 20)
#    0.000    0.889    5.556    2.333    0.000    0.000 
#    0.000    1.111    0.000    1.333    0.000    0.000 
#    0.000    0.000    0.000    0.000    0.000    0.000 
#
# Total GULP energy -446031.015500 kJ/mol
# GULP energy per Si atom -12389.750431 kJ/mol
# Density = 2.043559 g / cm^3
# Si number density = 20.482210 Si / 1000 Ang^3
#
#
#
# Elastic Constant Matrix: (Units=GPa)
#
#
# Indices 1 2 3 4 5 6 
#
# 1 131.8890 35.8942 49.1000 0.0000 0.0000 0.0000
# 2 35.8942 108.1433 19.6844 0.0000 0.0000 0.0000
# 3 49.1000 19.6844 91.8962 0.0000 0.0000 0.0000
# 4 0.0000 0.0000 0.0000 24.1589 0.0000 0.0000
# 5 0.0000 0.0000 0.0000 0.0000 23.5696 0.0000
# 6 0.0000 0.0000 0.0000 0.0000 0.0000 42.8286
#
#
#
# Elastic Compliance Matrix: (Units=1/GPa)
#
#
# Indices 1 2 3 4 5 6 
#
# 1 0.010054 -0.002455 -0.004846 0.000000 0.000000 0.000000
# 2 -0.002455 0.010222 -0.000878 0.000000 0.000000 0.000000
# 3 -0.004846 -0.000878 0.013659 0.000000 0.000000 0.000000
# 4 0.000000 0.000000 0.000000 0.041393 0.000000 0.000000
# 5 0.000000 0.000000 0.000000 0.000000 0.042428 0.000000
# 6 0.000000 0.000000 0.000000 0.000000 0.000000 0.023349
#
#
# Mechanical properties :
#
#
# Convention : Reuss Voigt Hill
#
# Bulk Modulus (GPa) = 56.89191 60.14286 58.51739
# Shear Modulus (GPa) = 30.61447 33.26141 31.93794
#
# Velocity S-wave (km/s) = 3.87031 4.03416 3.95308
# Velocity P-wave (km/s) = 6.91440 7.15028 7.03333
#
# Compressibility (1/GPa) = 0.01757719
#
# Stress axis : x y z
#
# Youngs Moduli (GPa) = 99.45840 97.83167 73.21085
#
# Poissons Ratio (x) = 0.24019 0.35479
# Poissons Ratio (y) = 0.24418 0.06426
# Poissons Ratio (z) = 0.48199 0.08587
#
# Static dielectric constant tensor:
#      x y z
#    x -10.613710 0.000000 0.000000 
#    y 0.000000 3.675280 0.000000 
#    z 0.000000 0.000000 3.875340 
# 
# 
# High freq. dielectric constant tensor:
#      x y z
#    x 1.798970 0.000000 0.000000 
#    y 0.000000 1.807080 0.000000 
#    z 0.000000 0.000000 1.792050 
# 
# From -- ./inp_files/46964.got.cif
#   From: 2010.03.12/outbox.cif.g09.slc.cpg/sg66_24_cif.got.tgz:46964.got - 2010.04.10 21:57:39.
