data_PCOD8277865
_publ_section_title
;
Structure prediction by ZEFSAII (Michael W. Deem and Ramdas Pophale) SiO2 
 PCOD8277865
Probable space group: C C C M
;
_chemical_formula_sum "Si O2"
_cell_formula_units_Z 44
_cell_length_a 5.795383
_cell_length_b 13.121034
_cell_length_c 22.145764
_cell_angle_alpha 90.000000
_cell_angle_beta 90.000000
_cell_angle_gamma 90.000000
_cell_volume 1683.995284
_symmetry_space_group_name_H-M "C C C M"
_symmetry_group_IT_number 66
_symmetry_cell_setting 'orthorhombic'
loop_
_space_group_symop_operation_xyz
x,y,z
-x,-y,z
x,-y,1/2-z
-x,y,1/2-z
-x,-y,-z
x,y,-z
-x,y,1/2+z
x,-y,1/2+z
1/2+x,1/2+y,z
1/2-x,1/2-y,z
1/2+x,1/2-y,1/2-z
1/2-x,1/2+y,1/2-z
1/2-x,1/2-y,-z
1/2+x,1/2+y,-z
1/2-x,1/2+y,1/2+z
1/2+x,1/2-y,1/2+z
loop_
_atom_site_type_symbol
_atom_site_label
_atom_site_fract_x
_atom_site_fract_y
_atom_site_fract_z
Si Si1 0.369276 0.604330 0.168330
Si Si2 0.500000 0.000000 0.750000
Si Si3 0.543525 0.881403 0.433036
Si Si4 0.250000 0.250000 0.150606
O O1 0.500000 0.500000 0.164406
O O2 0.151713 0.581278 0.212009
O O3 0.283318 0.639879 0.102244
O O4 0.544828 0.695350 0.190240
O O5 0.557894 0.832404 0.500000
O O6 0.335739 0.838924 0.393277
O O7 0.500000 0.000000 0.438437
#
# Coordination Sequence:
#
# PCOD8277865 Si02
#       4
#    16   4  16   8
#     4  12  25  49  83 109 157 203 264 325 393 466
#     4  12  26  52  86 102 156 220 260 338 398 464
#     4  11  24  45  78 118 159 202 252 320 392 469
#     4  12  25  46  82 116 150 206 261 322 388 474
#
# _framework density 26.128337999999999
#
# number of rings (size 3 to 8) (size 9 to 14) (size 15 to 20)
#    0.000    0.364    5.455    2.182    0.000    5.091 
#    0.000    0.000  112.000    0.000    0.000    0.000 
#    0.000    0.000    0.000    0.000    0.000    0.000 
#
# Total GULP energy -272630.639152 kJ/mol
# GULP energy per Si atom -12392.301780 kJ/mol
# Density = 2.606887 g / cm^3
# Si number density = 26.128338 Si / 1000 Ang^3
#
#
#
# Elastic Constant Matrix: (Units=GPa)
#
#
# Indices 1 2 3 4 5 6 
#
# 1 174.8672 60.6988 69.5715 0.0000 0.0000 0.0000
# 2 60.6988 125.8796 33.7305 0.0000 0.0000 0.0000
# 3 69.5715 33.7305 124.0330 0.0000 0.0000 0.0000
# 4 0.0000 0.0000 0.0000 11.3856 0.0000 0.0000
# 5 0.0000 0.0000 0.0000 0.0000 39.2607 0.0000
# 6 0.0000 0.0000 0.0000 0.0000 0.0000 55.9283
#
#
#
# Elastic Compliance Matrix: (Units=1/GPa)
#
#
# Indices 1 2 3 4 5 6 
#
# 1 0.008272 -0.002961 -0.003835 0.000000 0.000000 0.000000
# 2 -0.002961 0.009629 -0.000957 0.000000 0.000000 0.000000
# 3 -0.003835 -0.000957 0.010474 0.000000 0.000000 0.000000
# 4 0.000000 0.000000 0.000000 0.087830 0.000000 0.000000
# 5 0.000000 0.000000 0.000000 0.000000 0.025471 0.000000
# 6 0.000000 0.000000 0.000000 0.000000 0.000000 0.017880
#
#
# Mechanical properties :
#
#
# Convention : Reuss Voigt Hill
#
# Bulk Modulus (GPa) = 77.71438 83.64237 80.67837
# Shear Modulus (GPa) = 27.87823 38.70018 33.28920
#
# Velocity S-wave (km/s) = 3.27000 3.85276 3.57328
# Velocity P-wave (km/s) = 6.63815 7.20231 6.92598
#
# Compressibility (1/GPa) = 0.01286763
#
# Stress axis : x y z
#
# Youngs Moduli (GPa) = 120.88767 103.85744 95.47786
#
# Poissons Ratio (x) = 0.30755 0.36612
# Poissons Ratio (y) = 0.35798 0.09142
# Poissons Ratio (z) = 0.46356 0.09944
#
# Static dielectric constant tensor:
#      x y z
#    x 4.465430 0.000000 0.000000 
#    y 0.000000 5.013650 0.000000 
#    z 0.000000 0.000000 5.136460 
# 
# 
# High freq. dielectric constant tensor:
#      x y z
#    x 2.060690 0.000000 0.000000 
#    y 0.000000 2.066900 0.000000 
#    z 0.000000 0.000000 2.035410 
# 
# From -- ./inp_files/60835.got.cif
#   From: 2010.03.12/outbox.cif.g09.slc.cpg/sg66_31_cif.got.tgz:60835.got - 2010.04.10 21:57:39.
