data_PCOD8277102
_publ_section_title
;
Structure prediction by ZEFSAII (Michael W. Deem and Ramdas Pophale) SiO2 
 PCOD8277102
Probable space group: C C C M
;
_chemical_formula_sum "Si O2"
_cell_formula_units_Z 56
_cell_length_a 10.668061
_cell_length_b 11.895827
_cell_length_c 20.767933
_cell_angle_alpha 90.000000
_cell_angle_beta 90.000000
_cell_angle_gamma 90.000000
_cell_volume 2635.563012
_symmetry_space_group_name_H-M "C C C M"
_symmetry_group_IT_number 66
_symmetry_cell_setting 'orthorhombic'
loop_
_space_group_symop_operation_xyz
x,y,z
-x,-y,z
x,-y,1/2-z
-x,y,1/2-z
-x,-y,-z
x,y,-z
-x,y,1/2+z
x,-y,1/2+z
1/2+x,1/2+y,z
1/2-x,1/2-y,z
1/2+x,1/2-y,1/2-z
1/2-x,1/2+y,1/2-z
1/2-x,1/2-y,-z
1/2+x,1/2+y,-z
1/2-x,1/2+y,1/2+z
1/2+x,1/2-y,1/2+z
loop_
_atom_site_type_symbol
_atom_site_label
_atom_site_fract_x
_atom_site_fract_y
_atom_site_fract_z
Si Si1 0.133981 0.534596 0.425837
Si Si2 0.750000 0.750000 0.877071
Si Si3 0.474008 0.368865 0.820093
Si Si4 0.332752 0.358036 0.571596
O O1 0.124901 0.501499 0.500000
O O2 0.160774 0.667748 0.418618
O O3 0.249643 0.460151 0.398381
O O4 0.000000 0.500000 0.393178
O O5 0.668429 0.665938 0.833695
O O6 0.500000 0.500000 0.816923
O O7 0.500000 0.314393 0.750000
O O8 0.558630 0.323607 0.878686
O O9 0.387458 0.390338 0.500000
O O10 0.250000 0.250000 0.562549
#
# Coordination Sequence:
#
# PCOD8277102 Si02
#       4
#    16   8  16  16
#     4  10  21  38  63  99 133 166 215 270 327 394
#     4  12  23  42  66  92 125 178 210 268 328 388
#     4  11  25  44  64  93 133 174 220 271 324 400
#     4  10  21  40  67  96 134 174 217 278 333 388
#
# _framework density 21.247831999999999
#
# number of rings (size 3 to 8) (size 9 to 14) (size 15 to 20)
#    0.000    1.429    2.857    2.143    2.000    5.143 
#    0.000    0.000    0.000    0.000    0.000    0.000 
#    0.000    0.000    0.000    0.000    0.000    0.000 
#
# Total GULP energy -346984.042271 kJ/mol
# GULP energy per Si atom -12392.287224 kJ/mol
# Density = 2.119947 g / cm^3
# Si number density = 21.247832 Si / 1000 Ang^3
#
#
#
# Elastic Constant Matrix: (Units=GPa)
#
#
# Indices 1 2 3 4 5 6 
#
# 1 122.4246 38.2364 54.1806 0.0000 0.0000 0.0000
# 2 38.2364 111.4271 12.2415 0.0000 0.0000 0.0000
# 3 54.1806 12.2415 113.8070 0.0000 0.0000 0.0000
# 4 0.0000 0.0000 0.0000 4.9888 0.0000 0.0000
# 5 0.0000 0.0000 0.0000 0.0000 17.4863 0.0000
# 6 0.0000 0.0000 0.0000 0.0000 0.0000 48.1197
#
#
#
# Elastic Compliance Matrix: (Units=1/GPa)
#
#
# Indices 1 2 3 4 5 6 
#
# 1 0.011482 -0.003380 -0.005103 0.000000 0.000000 0.000000
# 2 -0.003380 0.010076 0.000525 0.000000 0.000000 0.000000
# 3 -0.005103 0.000525 0.011160 0.000000 0.000000 0.000000
# 4 0.000000 0.000000 0.000000 0.200450 0.000000 0.000000
# 5 0.000000 0.000000 0.000000 0.000000 0.057188 0.000000
# 6 0.000000 0.000000 0.000000 0.000000 0.000000 0.020782
#
#
# Mechanical properties :
#
#
# Convention : Reuss Voigt Hill
#
# Bulk Modulus (GPa) = 59.51090 61.88620 60.69855
# Shear Modulus (GPa) = 15.03067 30.31896 22.67481
#
# Velocity S-wave (km/s) = 2.66258 3.78156 3.27028
# Velocity P-wave (km/s) = 6.12546 6.94666 6.54894
#
# Compressibility (1/GPa) = 0.01680365
#
# Stress axis : x y z
#
# Youngs Moduli (GPa) = 87.09185 99.24092 89.60851
#
# Poissons Ratio (x) = 0.33539 0.45726
# Poissons Ratio (y) = 0.29433 -0.04705
# Poissons Ratio (z) = 0.44442 -0.05210
#
# Static dielectric constant tensor:
#      x y z
#    x 3.403930 0.000000 0.000000 
#    y 0.000000 3.700680 0.000000 
#    z 0.000000 0.000000 4.305990 
# 
# 
# High freq. dielectric constant tensor:
#      x y z
#    x 1.837210 0.000000 0.000000 
#    y 0.000000 1.838070 0.000000 
#    z 0.000000 0.000000 1.807660 
# 
# From -- ./inp_files/47890.got.cif
#   From: 2010.03.12/outbox.cif.g09.slc.cpg/sg66_24_cif.got.tgz:47890.got - 2010.04.10 21:57:39.
