data_PCOD8277674
_publ_section_title
;
Structure prediction by ZEFSAII (Michael W. Deem and Ramdas Pophale) SiO2 
 PCOD8277674
Probable space group: C C C M
;
_chemical_formula_sum "Si O2"
_cell_formula_units_Z 64
_cell_length_a 9.964088
_cell_length_b 9.509375
_cell_length_c 28.485455
_cell_angle_alpha 90.000000
_cell_angle_beta 90.000000
_cell_angle_gamma 90.000000
_cell_volume 2699.060934
_symmetry_space_group_name_H-M "C C C M"
_symmetry_group_IT_number 66
_symmetry_cell_setting 'orthorhombic'
loop_
_space_group_symop_operation_xyz
x,y,z
-x,-y,z
x,-y,1/2-z
-x,y,1/2-z
-x,-y,-z
x,y,-z
-x,y,1/2+z
x,-y,1/2+z
1/2+x,1/2+y,z
1/2-x,1/2-y,z
1/2+x,1/2-y,1/2-z
1/2-x,1/2+y,1/2-z
1/2-x,1/2-y,-z
1/2+x,1/2+y,-z
1/2-x,1/2+y,1/2+z
1/2+x,1/2-y,1/2+z
loop_
_atom_site_type_symbol
_atom_site_label
_atom_site_fract_x
_atom_site_fract_y
_atom_site_fract_z
Si Si1 0.858327 0.863170 0.000000
Si Si2 0.641829 0.910297 0.500000
Si Si3 0.000000 0.000000 0.642015
Si Si4 0.759907 0.086343 0.296452
Si Si5 0.543398 0.258315 0.080395
Si Si6 0.500000 0.000000 0.146909
O O1 0.750000 0.750000 0.000000
O O2 0.936535 0.839503 0.952101
O O3 0.783982 0.012187 0.000000
O O4 0.651525 0.813567 0.453794
O O5 0.500000 0.000000 0.500000
O O6 0.890511 0.083975 0.671076
O O7 0.091145 0.113502 0.613111
O O8 0.750000 0.250000 0.283225
O O9 0.792078 0.000000 0.250000
O O10 0.630994 0.011646 0.320235
O O11 0.487639 0.136108 0.113824
#
# Coordination Sequence:
#
# PCOD8277674 Si02
#       6
#     8   8   8  16  16   8
#     4  11  21  40  70 101 156 198 251 317 362 432
#     4  11  21  38  68 102 149 202 252 307 365 431
#     4  12  29  49  78 110 162 190 254 321 373 458
#     4  12  30  53  79 114 151 193 246 318 392 459
#     4  11  25  43  70 111 145 204 255 303 375 438
#     4  12  25  47  84 108 148 200 258 301 377 470
#
# _framework density 23.711950000000002
#
# number of rings (size 3 to 8) (size 9 to 14) (size 15 to 20)
#    0.000    0.500    6.250    0.750   10.500    4.000 
#    0.000    1.250    0.000    0.000    0.000    0.000 
#    0.000    0.000    0.000    0.000    0.000    0.000 
#
# Total GULP energy -396427.384200 kJ/mol
# GULP energy per Si atom -12388.355756 kJ/mol
# Density = 2.365798 g / cm^3
# Si number density = 23.711950 Si / 1000 Ang^3
#
#
#
# Elastic Constant Matrix: (Units=GPa)
#
#
# Indices 1 2 3 4 5 6 
#
# 1 96.4396 40.6738 24.3037 0.0000 0.0000 0.0000
# 2 40.6738 188.5417 76.0210 0.0000 0.0000 0.0000
# 3 24.3037 76.0210 129.5854 0.0000 0.0000 0.0000
# 4 0.0000 0.0000 0.0000 -77.5817 0.0000 0.0000
# 5 0.0000 0.0000 0.0000 0.0000 51.9544 0.0000
# 6 0.0000 0.0000 0.0000 0.0000 0.0000 50.2002
#
#
#
# Elastic Compliance Matrix: (Units=1/GPa)
#
#
# Indices 1 2 3 4 5 6 
#
# 1 0.011490 -0.002109 -0.000918 0.000000 0.000000 0.000000
# 2 -0.002109 0.007334 -0.003907 0.000000 0.000000 0.000000
# 3 -0.000918 -0.003907 0.010181 0.000000 0.000000 0.000000
# 4 0.000000 0.000000 0.000000 -0.012890 0.000000 0.000000
# 5 0.000000 0.000000 0.000000 0.000000 0.019248 0.000000
# 6 0.000000 0.000000 0.000000 0.000000 0.000000 0.019920
#
#
# Mechanical properties :
#
#
# Convention : Reuss Voigt Hill
#
# Bulk Modulus (GPa) = 66.05922 77.39596 71.72759
# Shear Modulus (GPa) = 67.38874 23.15247 45.27061
#
# Velocity S-wave (km/s) = 5.33680 3.12814 4.37417
# Velocity P-wave (km/s) = 8.11756 6.76446 7.47170
#
# Compressibility (1/GPa) = 0.01513793
#
# Stress axis : x y z
#
# Youngs Moduli (GPa) = 87.03365 136.34949 98.22079
#
# Poissons Ratio (x) = 0.28750 0.09016
# Poissons Ratio (y) = 0.18352 0.38376
# Poissons Ratio (z) = 0.07989 0.53273
#
# Static dielectric constant tensor:
#      x y z
#    x 4.061110 0.000000 0.000000 
#    y 0.000000 4.617890 0.000000 
#    z 0.000000 0.000000 4.534260 
# 
# 
# High freq. dielectric constant tensor:
#      x y z
#    x 1.932310 0.000000 0.000000 
#    y 0.000000 1.971970 0.000000 
#    z 0.000000 0.000000 1.954740 
# 
# From -- ./inp_files/68643.got.cif
#   From: 2010.03.12/outbox.cif.g09.slc.cpg/sg66_35_cif.got.tgz:68643.got - 2010.04.10 21:57:39.
