data_PCOD8277142
_publ_section_title
;
Structure prediction by ZEFSAII (Michael W. Deem and Ramdas Pophale) SiO2 
 PCOD8277142
Probable space group: C C C M
;
_chemical_formula_sum "Si O2"
_cell_formula_units_Z 112
_cell_length_a 12.515395
_cell_length_b 27.797485
_cell_length_c 15.891464
_cell_angle_alpha 90.000000
_cell_angle_beta 90.000000
_cell_angle_gamma 90.000000
_cell_volume 5528.584781
_symmetry_space_group_name_H-M "C C C M"
_symmetry_group_IT_number 66
_symmetry_cell_setting 'orthorhombic'
loop_
_space_group_symop_operation_xyz
x,y,z
-x,-y,z
x,-y,1/2-z
-x,y,1/2-z
-x,-y,-z
x,y,-z
-x,y,1/2+z
x,-y,1/2+z
1/2+x,1/2+y,z
1/2-x,1/2-y,z
1/2+x,1/2-y,1/2-z
1/2-x,1/2+y,1/2-z
1/2-x,1/2-y,-z
1/2+x,1/2+y,-z
1/2-x,1/2+y,1/2+z
1/2+x,1/2-y,1/2+z
loop_
_atom_site_type_symbol
_atom_site_label
_atom_site_fract_x
_atom_site_fract_y
_atom_site_fract_z
Si Si1 0.088264 0.868977 0.690542
Si Si2 0.005307 0.554370 0.349560
Si Si3 0.298885 0.299412 0.686464
Si Si4 0.369290 0.138485 0.592718
Si Si5 0.999739 0.212524 0.905629
Si Si6 0.205392 0.615305 0.399864
Si Si7 0.445667 0.808346 0.661262
O O1 0.126711 0.824212 0.745825
O O2 0.031390 0.842695 0.612342
O O3 0.185043 0.900304 0.650167
O O4 0.000000 0.897747 0.750000
O O5 0.116922 0.574939 0.384245
O O6 0.000000 0.500000 0.383130
O O7 0.000000 0.556702 0.250000
O O8 0.903130 0.584072 0.383006
O O9 0.250000 0.250000 0.724611
O O10 0.212237 0.338892 0.659124
O O11 0.372329 0.282133 0.608456
O O12 0.317407 0.137771 0.500000
O O13 0.476006 0.170833 0.589476
O O14 0.064119 0.251023 0.847699
O O15 0.029575 0.225211 0.000000
O O16 0.226182 0.621757 0.500000
O O17 0.168549 0.665602 0.354817
O O18 0.500000 0.823314 0.750000
#
# Coordination Sequence:
#
# PCOD8277142 Si02
#       7
#    16  16  16  16  16  16  16
#     4  10  23  38  53  76 106 154 201 249 290 354
#     4  10  21  39  63  93 126 157 192 236 293 372
#     4  11  21  34  54  75 107 152 200 243 295 353
#     4  11  21  33  53  82 114 150 188 240 294 349
#     4  11  22  34  49  74 105 146 198 253 292 339
#     4  11  22  36  58  85 117 157 195 248 307 356
#     4  11  20  32  49  74 111 153 197 235 286 351
#
# _framework density 20.258348999999999
#
# number of rings (size 3 to 8) (size 9 to 14) (size 15 to 20)
#    0.000    1.286    1.429    8.143    2.000    1.714 
#    0.000    1.429    0.000    0.000    0.000   17.000 
#    0.000   24.000    0.000    0.000    0.000    0.000 
#
# Total GULP energy -693994.631901 kJ/mol
# GULP energy per Si atom -12392.761284 kJ/mol
# Density = 2.021224 g / cm^3
# Si number density = 20.258349 Si / 1000 Ang^3
#
#
#
# Elastic Constant Matrix: (Units=GPa)
#
#
# Indices 1 2 3 4 5 6 
#
# 1 98.0491 21.0011 25.0494 0.0000 0.0000 0.0000
# 2 21.0011 77.4327 4.9967 0.0000 0.0000 0.0000
# 3 25.0494 4.9967 90.4236 0.0000 0.0000 0.0000
# 4 0.0000 0.0000 0.0000 68.4775 0.0000 0.0000
# 5 0.0000 0.0000 0.0000 0.0000 29.3771 0.0000
# 6 0.0000 0.0000 0.0000 0.0000 0.0000 21.3972
#
#
#
# Elastic Compliance Matrix: (Units=1/GPa)
#
#
# Indices 1 2 3 4 5 6 
#
# 1 0.011611 -0.002952 -0.003053 0.000000 0.000000 0.000000
# 2 -0.002952 0.013711 0.000060 0.000000 0.000000 0.000000
# 3 -0.003053 0.000060 0.011902 0.000000 0.000000 0.000000
# 4 0.000000 0.000000 0.000000 0.014603 0.000000 0.000000
# 5 0.000000 0.000000 0.000000 0.000000 0.034040 0.000000
# 6 0.000000 0.000000 0.000000 0.000000 0.000000 0.046735
#
#
# Mechanical properties :
#
#
# Convention : Reuss Voigt Hill
#
# Bulk Modulus (GPa) = 39.47382 40.88887 40.18135
# Shear Modulus (GPa) = 32.69294 38.17422 35.43358
#
# Velocity S-wave (km/s) = 4.02157 4.34564 4.18674
# Velocity P-wave (km/s) = 6.41027 6.73847 6.57642
#
# Compressibility (1/GPa) = 0.02533324
#
# Stress axis : x y z
#
# Youngs Moduli (GPa) = 86.12229 72.93282 84.02210
#
# Poissons Ratio (x) = 0.21531 0.25656
# Poissons Ratio (y) = 0.25425 -0.00505
# Poissons Ratio (z) = 0.26297 -0.00439
#
# Static dielectric constant tensor:
#      x y z
#    x 3.849460 0.000000 0.000000 
#    y 0.000000 3.377210 0.000000 
#    z 0.000000 0.000000 3.689980 
# 
# 
# High freq. dielectric constant tensor:
#      x y z
#    x 1.789680 0.000000 0.000000 
#    y 0.000000 1.741570 0.000000 
#    z 0.000000 0.000000 1.805110 
# 
# From -- ./inp_files/26986.got.cif
#   From: 2010.03.12/outbox.cif.g09.slc.cpg/sg66_14_cif.got.tgz:26986.got - 2010.04.10 21:57:39.
