data_PCOD8277616
_publ_section_title
;
Structure prediction by ZEFSAII (Michael W. Deem and Ramdas Pophale) SiO2 
 PCOD8277616
Probable space group: C C C M
;
_chemical_formula_sum "Si O2"
_cell_formula_units_Z 64
_cell_length_a 10.874440
_cell_length_b 14.350577
_cell_length_c 20.260976
_cell_angle_alpha 90.000000
_cell_angle_beta 90.000000
_cell_angle_gamma 90.000000
_cell_volume 3161.816247
_symmetry_space_group_name_H-M "C C C M"
_symmetry_group_IT_number 66
_symmetry_cell_setting 'orthorhombic'
loop_
_space_group_symop_operation_xyz
x,y,z
-x,-y,z
x,-y,1/2-z
-x,y,1/2-z
-x,-y,-z
x,y,-z
-x,y,1/2+z
x,-y,1/2+z
1/2+x,1/2+y,z
1/2-x,1/2-y,z
1/2+x,1/2-y,1/2-z
1/2-x,1/2+y,1/2-z
1/2-x,1/2-y,-z
1/2+x,1/2+y,-z
1/2-x,1/2+y,1/2+z
1/2+x,1/2-y,1/2+z
loop_
_atom_site_type_symbol
_atom_site_label
_atom_site_fract_x
_atom_site_fract_y
_atom_site_fract_z
Si Si1 0.806018 0.647639 0.750956
Si Si2 0.893157 0.764913 0.075175
Si Si3 0.513681 0.106813 0.854063
Si Si4 0.068355 0.903524 0.310594
O O1 0.750000 0.750000 0.753079
O O2 0.923006 0.638980 0.796975
O O3 0.706200 0.578020 0.783750
O O4 0.848135 0.621107 0.676002
O O5 0.750000 0.750000 0.093025
O O6 0.978247 0.672648 0.084067
O O7 0.943217 0.845288 0.122634
O O8 0.906722 0.798557 0.000000
O O9 0.500000 0.000000 0.876391
O O10 0.000000 0.849491 0.250000
O O11 0.000000 0.000000 0.324573
#
# Coordination Sequence:
#
# PCOD8277616 Si02
#       4
#    16  16  16  16
#     4  11  20  38  60  95 126 160 209 253 330 372
#     4  11  23  43  66  91 127 175 219 258 319 391
#     4  11  23  37  62  91 133 165 204 272 310 383
#     4  11  23  36  67  96 127 158 212 269 320 376
#
# _framework density 20.241530000000001
#
# number of rings (size 3 to 8) (size 9 to 14) (size 15 to 20)
#    0.000    1.000    5.000    3.000    7.000    1.000 
#    0.000    0.000    0.000    6.750    0.000    0.000 
#    0.000    0.000    0.000    0.000    0.000    0.000 
#
# Total GULP energy -396535.701155 kJ/mol
# GULP energy per Si atom -12391.740661 kJ/mol
# Density = 2.019546 g / cm^3
# Si number density = 20.241530 Si / 1000 Ang^3
#
#
#
# Elastic Constant Matrix: (Units=GPa)
#
#
# Indices 1 2 3 4 5 6 
#
# 1 84.2902 53.3506 40.0831 0.0000 0.0000 0.0000
# 2 53.3506 144.0686 61.3998 0.0000 0.0000 0.0000
# 3 40.0831 61.3998 127.2695 0.0000 0.0000 0.0000
# 4 0.0000 0.0000 0.0000 156.3601 0.0000 0.0000
# 5 0.0000 0.0000 0.0000 0.0000 22.7669 0.0000
# 6 0.0000 0.0000 0.0000 0.0000 0.0000 29.5788
#
#
#
# Elastic Compliance Matrix: (Units=1/GPa)
#
#
# Indices 1 2 3 4 5 6 
#
# 1 0.016245 -0.004828 -0.002787 0.000000 0.000000 0.000000
# 2 -0.004828 0.010172 -0.003387 0.000000 0.000000 0.000000
# 3 -0.002787 -0.003387 0.010369 0.000000 0.000000 0.000000
# 4 0.000000 0.000000 0.000000 0.006395 0.000000 0.000000
# 5 0.000000 0.000000 0.000000 0.000000 0.043923 0.000000
# 6 0.000000 0.000000 0.000000 0.000000 0.000000 0.033808
#
#
# Mechanical properties :
#
#
# Convention : Reuss Voigt Hill
#
# Bulk Modulus (GPa) = 67.64787 73.92168 70.78477
# Shear Modulus (GPa) = 33.81918 55.12749 44.47333
#
# Velocity S-wave (km/s) = 4.09195 5.22436 4.69244
# Velocity P-wave (km/s) = 7.47117 8.54348 8.02525
#
# Compressibility (1/GPa) = 0.01478243
#
# Stress axis : x y z
#
# Youngs Moduli (GPa) = 61.55770 98.30438 96.43951
#
# Poissons Ratio (x) = 0.47460 0.26879
# Poissons Ratio (y) = 0.29719 0.32665
# Poissons Ratio (z) = 0.17157 0.33296
#
# Static dielectric constant tensor:
#      x y z
#    x 2.977380 0.000000 0.000000 
#    y 0.000000 3.708490 0.000000 
#    z 0.000000 0.000000 3.689050 
# 
# 
# High freq. dielectric constant tensor:
#      x y z
#    x 1.797470 0.000000 0.000000 
#    y 0.000000 1.795440 0.000000 
#    z 0.000000 0.000000 1.763250 
# 
# From -- ./inp_files/48159.got.cif
#   From: 2010.03.12/outbox.cif.g09.slc.cpg/sg66_25_cif.got.tgz:48159.got - 2010.04.10 21:57:39.
