data_PCOD8277358
_publ_section_title
;
Structure prediction by ZEFSAII (Michael W. Deem and Ramdas Pophale) SiO2 
 PCOD8277358
Probable space group: C C C M
;
_chemical_formula_sum "Si O2"
_cell_formula_units_Z 112
_cell_length_a 14.595100
_cell_length_b 22.670673
_cell_length_c 15.182809
_cell_angle_alpha 90.000000
_cell_angle_beta 90.000000
_cell_angle_gamma 90.000000
_cell_volume 5023.699070
_symmetry_space_group_name_H-M "C C C M"
_symmetry_group_IT_number 66
_symmetry_cell_setting 'orthorhombic'
loop_
_space_group_symop_operation_xyz
x,y,z
-x,-y,z
x,-y,1/2-z
-x,y,1/2-z
-x,-y,-z
x,y,-z
-x,y,1/2+z
x,-y,1/2+z
1/2+x,1/2+y,z
1/2-x,1/2-y,z
1/2+x,1/2-y,1/2-z
1/2-x,1/2+y,1/2-z
1/2-x,1/2-y,-z
1/2+x,1/2+y,-z
1/2-x,1/2+y,1/2+z
1/2+x,1/2-y,1/2+z
loop_
_atom_site_type_symbol
_atom_site_label
_atom_site_fract_x
_atom_site_fract_y
_atom_site_fract_z
Si Si1 0.135222 0.714696 0.401726
Si Si2 0.933486 0.949116 0.899182
Si Si3 0.260534 0.814099 0.227770
Si Si4 0.421740 0.328803 0.809787
Si Si5 0.564938 0.908250 0.098990
Si Si6 0.732273 0.983559 0.848558
Si Si7 0.862761 0.402516 0.100138
O O1 0.179756 0.714392 0.500000
O O2 0.207770 0.696891 0.328054
O O3 0.095875 0.779620 0.384124
O O4 0.059595 0.663008 0.397370
O O5 0.959077 0.888623 0.851632
O O6 0.824618 0.959939 0.892588
O O7 0.960269 0.940996 0.000000
O O8 0.000000 0.000000 0.858777
O O9 0.250000 0.750000 0.181157
O O10 0.162644 0.844462 0.244065
O O11 0.326543 0.853274 0.167694
O O12 0.500000 0.300304 0.750000
O O13 0.649798 0.935011 0.154723
O O14 0.463121 0.926153 0.132162
O O15 0.581262 0.931677 0.000000
O O16 0.756894 0.000000 0.750000
O O17 0.703155 0.041375 0.901741
O O18 0.868024 0.377100 0.000000
#
# Coordination Sequence:
#
# PCOD8277358 Si02
#       7
#    16  16  16  16  16  16  16
#     4  10  22  42  70 100 133 172 221 279 342 406
#     4  11  26  45  67  93 128 177 230 283 339 404
#     4  10  24  42  65 100 131 178 230 281 350 406
#     4  11  25  42  66  97 132 173 221 286 338 409
#     4  10  22  40  66  99 133 173 219 273 335 406
#     4  12  25  41  66  98 133 175 225 286 345 409
#     4  11  24  42  66  97 139 184 225 276 342 419
#
# _framework density 22.294329999999999
#
# number of rings (size 3 to 8) (size 9 to 14) (size 15 to 20)
#    0.000    1.286    0.000    4.714    8.000    8.000 
#    0.000    0.714    0.000    0.000    0.000    0.000 
#    0.000    0.000    0.000    0.000    0.000    0.000 
#
# Total GULP energy -694142.921518 kJ/mol
# GULP energy per Si atom -12395.409313 kJ/mol
# Density = 2.224359 g / cm^3
# Si number density = 22.294330 Si / 1000 Ang^3
#
#
#
# Elastic Constant Matrix: (Units=GPa)
#
#
# Indices 1 2 3 4 5 6 
#
# 1 102.5032 25.6802 38.0695 0.0000 0.0000 0.0000
# 2 25.6802 124.3441 34.9240 0.0000 0.0000 0.0000
# 3 38.0695 34.9240 96.6748 0.0000 0.0000 0.0000
# 4 0.0000 0.0000 0.0000 33.5662 0.0000 0.0000
# 5 0.0000 0.0000 0.0000 0.0000 -7.6562 0.0000
# 6 0.0000 0.0000 0.0000 0.0000 0.0000 36.6378
#
#
#
# Elastic Compliance Matrix: (Units=1/GPa)
#
#
# Indices 1 2 3 4 5 6 
#
# 1 0.011596 -0.001238 -0.004119 0.000000 0.000000 0.000000
# 2 -0.001238 0.009082 -0.002794 0.000000 0.000000 0.000000
# 3 -0.004119 -0.002794 0.012975 0.000000 0.000000 0.000000
# 4 0.000000 0.000000 0.000000 0.029792 0.000000 0.000000
# 5 0.000000 0.000000 0.000000 0.000000 -0.130613 0.000000
# 6 0.000000 0.000000 0.000000 0.000000 0.000000 0.027294
#
#
# Mechanical properties :
#
#
# Convention : Reuss Voigt Hill
#
# Bulk Modulus (GPa) = 57.62937 57.87439 57.75188
# Shear Modulus (GPa) = -281.08976 27.49944 -126.79516
#
# Velocity S-wave (km/s) = -11.24077 3.51589 -7.54962
# Velocity P-wave (km/s) = 11.94018 6.51902 7.07355
#
# Compressibility (1/GPa) = 0.01735226
#
# Stress axis : x y z
#
# Youngs Moduli (GPa) = 86.23845 110.10208 77.07007
#
# Poissons Ratio (x) = 0.13630 0.31746
# Poissons Ratio (y) = 0.10676 0.21530
# Poissons Ratio (z) = 0.35522 0.30758
#
# Static dielectric constant tensor:
#      x y z
#    x 4.018750 0.000000 0.000000 
#    y 0.000000 4.361970 0.000000 
#    z 0.000000 0.000000 3.925440 
# 
# 
# High freq. dielectric constant tensor:
#      x y z
#    x 1.877010 0.000000 0.000000 
#    y 0.000000 1.888970 0.000000 
#    z 0.000000 0.000000 1.873870 
# 
# From -- ./inp_files/28736.got.cif
#   From: 2010.03.12/outbox.cif.g09.slc.cpg/sg66_15_cif.got.tgz:28736.got - 2010.04.10 21:57:39.
