data_PCOD8277124
_publ_section_title
;
Structure prediction by ZEFSAII (Michael W. Deem and Ramdas Pophale) SiO2 
 PCOD8277124
Probable space group: C C C M
;
_chemical_formula_sum "Si O2"
_cell_formula_units_Z 96
_cell_length_a 14.389824
_cell_length_b 20.605786
_cell_length_c 15.289479
_cell_angle_alpha 90.000000
_cell_angle_beta 90.000000
_cell_angle_gamma 90.000000
_cell_volume 4533.538979
_symmetry_space_group_name_H-M "C C C M"
_symmetry_group_IT_number 66
_symmetry_cell_setting 'orthorhombic'
loop_
_space_group_symop_operation_xyz
x,y,z
-x,-y,z
x,-y,1/2-z
-x,y,1/2-z
-x,-y,-z
x,y,-z
-x,y,1/2+z
x,-y,1/2+z
1/2+x,1/2+y,z
1/2-x,1/2-y,z
1/2+x,1/2-y,1/2-z
1/2-x,1/2+y,1/2-z
1/2-x,1/2-y,-z
1/2+x,1/2+y,-z
1/2-x,1/2+y,1/2+z
1/2+x,1/2-y,1/2+z
loop_
_atom_site_type_symbol
_atom_site_label
_atom_site_fract_x
_atom_site_fract_y
_atom_site_fract_z
Si Si1 0.913171 0.326943 0.100351
Si Si2 0.747213 0.325823 0.774350
Si Si3 0.550865 0.312110 0.834000
Si Si4 0.953089 0.562425 0.101116
Si Si5 0.450112 0.562039 0.600042
Si Si6 0.751898 0.399212 0.400066
O O1 0.829682 0.351245 0.163313
O O2 0.935767 0.249933 0.103323
O O3 0.002196 0.369159 0.132716
O O4 0.884966 0.341976 0.000000
O O5 0.750000 0.250000 0.778680
O O6 0.648063 0.348383 0.812969
O O7 0.756317 0.343376 0.672435
O O8 0.500000 0.281860 0.750000
O O9 0.483270 0.367799 0.868626
O O10 0.842878 0.557493 0.117020
O O11 0.000000 0.500000 0.148462
O O12 0.976780 0.558462 0.000000
O O13 0.500000 0.500000 0.647142
O O14 0.478480 0.559270 0.500000
O O15 0.339128 0.556390 0.614419
O O16 0.752496 0.370419 0.500000
#
# Coordination Sequence:
#
# PCOD8277124 Si02
#       6
#    16  16  16  16  16  16
#     4  10  23  41  64  91 124 169 215 261 316 376
#     4  10  23  39  61  91 125 162 209 263 311 367
#     4  11  22  39  60  89 127 166 208 263 311 377
#     4   9  20  39  63  91 123 160 204 257 312 370
#     4  10  22  40  63  91 123 164 211 260 316 381
#     4  10  21  39  61  89 123 161 206 256 317 378
#
# _framework density 21.175509999999999
#
# number of rings (size 3 to 8) (size 9 to 14) (size 15 to 20)
#    0.000    2.000    1.667    0.500    4.667    5.667 
#    0.000    6.667    0.000    0.000    0.000    0.000 
#    0.000    0.000    0.000    0.000    0.000    0.000 
#
# Total GULP energy -594802.153669 kJ/mol
# GULP energy per Si atom -12391.711535 kJ/mol
# Density = 2.112731 g / cm^3
# Si number density = 21.175510 Si / 1000 Ang^3
#
#
#
# Elastic Constant Matrix: (Units=GPa)
#
#
# Indices 1 2 3 4 5 6 
#
# 1 172.6219 55.9421 46.1780 0.0000 0.0000 0.0000
# 2 55.9421 88.0455 20.3485 0.0000 0.0000 0.0000
# 3 46.1780 20.3485 84.3731 0.0000 0.0000 0.0000
# 4 0.0000 0.0000 0.0000 4.8072 0.0000 0.0000
# 5 0.0000 0.0000 0.0000 0.0000 29.7463 0.0000
# 6 0.0000 0.0000 0.0000 0.0000 0.0000 29.6978
#
#
#
# Elastic Compliance Matrix: (Units=1/GPa)
#
#
# Indices 1 2 3 4 5 6 
#
# 1 0.008117 -0.004374 -0.003387 0.000000 0.000000 0.000000
# 2 -0.004374 0.014386 -0.001075 0.000000 0.000000 0.000000
# 3 -0.003387 -0.001075 0.013965 0.000000 0.000000 0.000000
# 4 0.000000 0.000000 0.000000 0.208022 0.000000 0.000000
# 5 0.000000 0.000000 0.000000 0.000000 0.033618 0.000000
# 6 0.000000 0.000000 0.000000 0.000000 0.000000 0.033672
#
#
# Mechanical properties :
#
#
# Convention : Reuss Voigt Hill
#
# Bulk Modulus (GPa) = 53.20930 65.55308 59.38119
# Shear Modulus (GPa) = 14.89342 27.68841 21.29091
#
# Velocity S-wave (km/s) = 2.65492 3.61995 3.17432
# Velocity P-wave (km/s) = 5.88051 6.96393 6.44503
#
# Compressibility (1/GPa) = 0.01879371
#
# Stress axis : x y z
#
# Youngs Moduli (GPa) = 123.20168 69.51380 71.60558
#
# Poissons Ratio (x) = 0.30408 0.24256
# Poissons Ratio (y) = 0.53893 0.07700
# Poissons Ratio (z) = 0.41733 0.07475
#
# Static dielectric constant tensor:
#      x y z
#    x 4.794990 0.000000 0.000000 
#    y 0.000000 3.723290 0.000000 
#    z 0.000000 0.000000 3.853060 
# 
# 
# High freq. dielectric constant tensor:
#      x y z
#    x 1.846810 0.000000 0.000000 
#    y 0.000000 1.811270 0.000000 
#    z 0.000000 0.000000 1.825040 
# 
# From -- ./inp_files/28412.got.cif
#   From: 2010.03.12/outbox.cif.g09.slc.cpg/sg66_15_cif.got.tgz:28412.got - 2010.04.10 21:57:39.
