data_PCOD8277245
_publ_section_title
;
Structure prediction by ZEFSAII (Michael W. Deem and Ramdas Pophale) SiO2 
 PCOD8277245
Probable space group: C C C M
;
_chemical_formula_sum "Si O2"
_cell_formula_units_Z 64
_cell_length_a 10.716613
_cell_length_b 10.826953
_cell_length_c 24.156307
_cell_angle_alpha 90.000000
_cell_angle_beta 90.000000
_cell_angle_gamma 90.000000
_cell_volume 2802.814397
_symmetry_space_group_name_H-M "C C C M"
_symmetry_group_IT_number 66
_symmetry_cell_setting 'orthorhombic'
loop_
_space_group_symop_operation_xyz
x,y,z
-x,-y,z
x,-y,1/2-z
-x,y,1/2-z
-x,-y,-z
x,y,-z
-x,y,1/2+z
x,-y,1/2+z
1/2+x,1/2+y,z
1/2-x,1/2-y,z
1/2+x,1/2-y,1/2-z
1/2-x,1/2+y,1/2-z
1/2-x,1/2-y,-z
1/2+x,1/2+y,-z
1/2-x,1/2+y,1/2+z
1/2+x,1/2-y,1/2+z
loop_
_atom_site_type_symbol
_atom_site_label
_atom_site_fract_x
_atom_site_fract_y
_atom_site_fract_z
Si Si1 0.000000 0.300063 0.750000
Si Si2 0.448608 0.283606 0.437774
Si Si3 0.726173 0.920828 0.603661
Si Si4 0.750000 0.750000 0.702341
Si Si5 0.134107 0.326861 0.856128
O O1 0.876920 0.219101 0.763952
O O2 0.953700 0.375516 0.695000
O O3 0.499172 0.300329 0.500000
O O4 0.366242 0.158874 0.434548
O O5 0.365754 0.403904 0.421012
O O6 0.562064 0.270293 0.395158
O O7 0.722442 0.870928 0.666271
O O8 0.680368 0.061145 0.605281
O O9 0.250000 0.250000 0.831386
#
# Coordination Sequence:
#
# PCOD8277245 Si02
#       5
#     8  16  16   8  16
#     4  12  22  45  63  98 140 178 229 285 344 418
#     4  10  22  44  70  95 128 172 227 287 346 407
#     4  10  21  42  66  97 125 168 227 285 330 411
#     4  10  22  40  67  94 127 176 234 274 344 404
#     4  12  26  41  64  99 138 178 227 277 349 419
#
# _framework density 22.834191000000001
#
# number of rings (size 3 to 8) (size 9 to 14) (size 15 to 20)
#    0.000    1.500    6.250    2.250    0.000    6.500 
#    0.000    2.500    0.000    0.000    0.000    0.000 
#    0.000    0.000    0.000    0.000    0.000    0.000 
#
# Total GULP energy -396454.549969 kJ/mol
# GULP energy per Si atom -12389.204687 kJ/mol
# Density = 2.278222 g / cm^3
# Si number density = 22.834191 Si / 1000 Ang^3
#
#
#
# Elastic Constant Matrix: (Units=GPa)
#
#
# Indices 1 2 3 4 5 6 
#
# 1 147.7409 26.2675 59.7249 0.0000 0.0000 0.0000
# 2 26.2675 47.2677 14.0627 0.0000 0.0000 0.0000
# 3 59.7249 14.0627 143.6823 0.0000 0.0000 0.0000
# 4 0.0000 0.0000 0.0000 -16.8734 0.0000 0.0000
# 5 0.0000 0.0000 0.0000 0.0000 36.0099 0.0000
# 6 0.0000 0.0000 0.0000 0.0000 0.0000 26.3616
#
#
#
# Elastic Compliance Matrix: (Units=1/GPa)
#
#
# Indices 1 2 3 4 5 6 
#
# 1 0.008785 -0.003910 -0.003269 0.000000 0.000000 0.000000
# 2 -0.003910 0.023530 -0.000678 0.000000 0.000000 0.000000
# 3 -0.003269 -0.000678 0.008385 0.000000 0.000000 0.000000
# 4 0.000000 0.000000 0.000000 -0.059265 0.000000 0.000000
# 5 0.000000 0.000000 0.000000 0.000000 0.027770 0.000000
# 6 0.000000 0.000000 0.000000 0.000000 0.000000 0.037934
#
#
# Mechanical properties :
#
#
# Convention : Reuss Voigt Hill
#
# Bulk Modulus (GPa) = 40.02002 59.86680 49.94341
# Shear Modulus (GPa) = 70.24229 25.00868 47.62549
#
# Velocity S-wave (km/s) = 5.55236 3.31302 4.57191
# Velocity P-wave (km/s) = 7.65959 6.39607 7.05617
#
# Compressibility (1/GPa) = 0.02498750
#
# Stress axis : x y z
#
# Youngs Moduli (GPa) = 113.82689 42.49823 119.25988
#
# Poissons Ratio (x) = 0.16615 0.38988
# Poissons Ratio (y) = 0.44501 0.08085
# Poissons Ratio (z) = 0.37212 0.02881
#
# Static dielectric constant tensor:
#      x y z
#    x 4.511690 0.000000 0.000000 
#    y 0.000000 3.453450 0.000000 
#    z 0.000000 0.000000 4.019580 
# 
# 
# High freq. dielectric constant tensor:
#      x y z
#    x 1.921560 0.000000 0.000000 
#    y 0.000000 1.844530 0.000000 
#    z 0.000000 0.000000 1.904860 
# 
# From -- ./inp_files/56326.got.cif
#   From: 2010.03.12/outbox.cif.g09.slc.cpg/sg66_29_cif.got.tgz:56326.got - 2010.04.10 21:57:39.
