data_PCOD8277064
_publ_section_title
;
Structure prediction by ZEFSAII (Michael W. Deem and Ramdas Pophale) SiO2 
 PCOD8277064
Probable space group: C C C M
;
_chemical_formula_sum "Si O2"
_cell_formula_units_Z 88
_cell_length_a 13.746651
_cell_length_b 22.781744
_cell_length_c 14.667492
_cell_angle_alpha 90.000000
_cell_angle_beta 90.000000
_cell_angle_gamma 90.000000
_cell_volume 4593.457836
_symmetry_space_group_name_H-M "C C C M"
_symmetry_group_IT_number 66
_symmetry_cell_setting 'orthorhombic'
loop_
_space_group_symop_operation_xyz
x,y,z
-x,-y,z
x,-y,1/2-z
-x,y,1/2-z
-x,-y,-z
x,y,-z
-x,y,1/2+z
x,-y,1/2+z
1/2+x,1/2+y,z
1/2-x,1/2-y,z
1/2+x,1/2-y,1/2-z
1/2-x,1/2+y,1/2-z
1/2-x,1/2-y,-z
1/2+x,1/2+y,-z
1/2-x,1/2+y,1/2+z
1/2+x,1/2-y,1/2+z
loop_
_atom_site_type_symbol
_atom_site_label
_atom_site_fract_x
_atom_site_fract_y
_atom_site_fract_z
Si Si1 0.224496 0.062370 0.000000
Si Si2 0.047942 0.436223 0.000000
Si Si3 0.046539 0.782165 0.605381
Si Si4 0.577589 0.383324 0.181069
Si Si5 0.715348 0.643309 0.167410
Si Si6 0.554601 0.151468 0.657639
Si Si7 0.091061 0.042095 0.500000
O O1 0.338301 0.055560 0.000000
O O2 0.187141 0.095839 0.090080
O O3 0.187466 0.996292 0.000000
O O4 0.018884 0.399088 0.089062
O O5 0.000000 0.500000 0.000000
O O6 0.041863 0.798183 0.500000
O O7 0.154579 0.797873 0.642883
O O8 0.021755 0.714247 0.619949
O O9 0.963942 0.818786 0.657809
O O10 0.500000 0.414135 0.250000
O O11 0.680963 0.379040 0.233064
O O12 0.591716 0.418980 0.089683
O O13 0.829564 0.654218 0.170522
O O14 0.500000 0.136266 0.750000
O O15 0.000000 0.000000 0.500000
#
# Coordination Sequence:
#
# PCOD8277064 Si02
#       7
#     8   8  16  16  16  16   8
#     4  10  22  37  60  85 110 154 210 244 278 344
#     4  10  24  44  61  84 113 150 201 254 292 324
#     4  11  19  36  63  91 121 151 186 234 294 356
#     4  10  22  36  56  87 124 156 188 237 295 352
#     4  10  21  38  59  88 119 152 195 244 291 341
#     4  11  23  39  64  90 114 152 198 241 293 350
#     4  12  22  35  55  83 122 160 197 234 289 346
#
# _framework density 19.157681
#
# number of rings (size 3 to 8) (size 9 to 14) (size 15 to 20)
#    0.000    1.455    2.727    4.364    0.000    5.091 
#    0.000    3.636    0.000    1.091    0.000    0.000 
#    0.000    0.000    0.000    0.000    0.000    0.000 
#
# Total GULP energy -545579.957203 kJ/mol
# GULP energy per Si atom -12399.544482 kJ/mol
# Density = 1.911408 g / cm^3
# Si number density = 19.157681 Si / 1000 Ang^3
#
#
#
# Elastic Constant Matrix: (Units=GPa)
#
#
# Indices 1 2 3 4 5 6 
#
# 1 55.5959 40.3080 50.0281 0.0000 0.0000 0.0000
# 2 40.3080 137.3933 68.9635 0.0000 0.0000 0.0000
# 3 50.0281 68.9635 171.3940 0.0000 0.0000 0.0000
# 4 0.0000 0.0000 0.0000 -32.8857 0.0000 0.0000
# 5 0.0000 0.0000 0.0000 0.0000 32.7680 0.0000
# 6 0.0000 0.0000 0.0000 0.0000 0.0000 29.6641
#
#
#
# Elastic Compliance Matrix: (Units=1/GPa)
#
#
# Indices 1 2 3 4 5 6 
#
# 1 0.026824 -0.004937 -0.005843 0.000000 0.000000 0.000000
# 2 -0.004937 0.010029 -0.002594 0.000000 0.000000 0.000000
# 3 -0.005843 -0.002594 0.008584 0.000000 0.000000 0.000000
# 4 0.000000 0.000000 0.000000 -0.030408 0.000000 0.000000
# 5 0.000000 0.000000 0.000000 0.000000 0.030518 0.000000
# 6 0.000000 0.000000 0.000000 0.000000 0.000000 0.033711
#
#
# Mechanical properties :
#
#
# Convention : Reuss Voigt Hill
#
# Bulk Modulus (GPa) = 53.50892 75.88692 64.69792
# Shear Modulus (GPa) = 44.54932 19.58153 32.06542
#
# Velocity S-wave (km/s) = 4.82747 3.20054 4.09560
# Velocity P-wave (km/s) = 7.68532 7.30449 7.49732
#
# Compressibility (1/GPa) = 0.01868847
#
# Stress axis : x y z
#
# Youngs Moduli (GPa) = 37.27980 99.71220 116.49543
#
# Poissons Ratio (x) = 0.49223 0.68073
# Poissons Ratio (y) = 0.18403 0.30223
# Poissons Ratio (z) = 0.21784 0.25869
#
# Static dielectric constant tensor:
#      x y z
#    x 3.411500 0.000000 0.000000 
#    y 0.000000 2.311670 0.000000 
#    z 0.000000 0.000000 3.817080 
# 
# 
# High freq. dielectric constant tensor:
#      x y z
#    x 1.732160 0.000000 0.000000 
#    y 0.000000 1.740710 0.000000 
#    z 0.000000 0.000000 1.765730 
# 
# From -- ./inp_files/28251.got.cif
#   From: 2010.03.12/outbox.cif.g09.slc.cpg/sg66_15_cif.got.tgz:28251.got - 2010.04.10 21:57:39.
