data_PCOD8277109
_publ_section_title
;
Structure prediction by ZEFSAII (Michael W. Deem and Ramdas Pophale) SiO2 
 PCOD8277109
Probable space group: C C C M
;
_chemical_formula_sum "Si O2"
_cell_formula_units_Z 68
_cell_length_a 18.539032
_cell_length_b 6.816719
_cell_length_c 28.327331
_cell_angle_alpha 90.000000
_cell_angle_beta 90.000000
_cell_angle_gamma 90.000000
_cell_volume 3579.876984
_symmetry_space_group_name_H-M "C C C M"
_symmetry_group_IT_number 66
_symmetry_cell_setting 'orthorhombic'
loop_
_space_group_symop_operation_xyz
x,y,z
-x,-y,z
x,-y,1/2-z
-x,y,1/2-z
-x,-y,-z
x,y,-z
-x,y,1/2+z
x,-y,1/2+z
1/2+x,1/2+y,z
1/2-x,1/2-y,z
1/2+x,1/2-y,1/2-z
1/2-x,1/2+y,1/2-z
1/2-x,1/2-y,-z
1/2+x,1/2+y,-z
1/2-x,1/2+y,1/2+z
1/2+x,1/2-y,1/2+z
loop_
_atom_site_type_symbol
_atom_site_label
_atom_site_fract_x
_atom_site_fract_y
_atom_site_fract_z
Si Si1 0.082586 0.490633 0.447132
Si Si2 0.000000 0.500000 0.750000
Si Si3 0.820793 0.148952 0.552481
Si Si4 0.931879 0.873912 0.705221
Si Si5 0.333116 0.705620 0.118755
O O1 0.090331 0.395147 0.500000
O O2 0.110659 0.711029 0.449330
O O3 0.127936 0.386769 0.406250
O O4 0.000000 0.500000 0.431092
O O5 0.048054 0.351865 0.718190
O O6 0.799876 0.074506 0.500000
O O7 0.750000 0.250000 0.575057
O O8 0.844642 0.968290 0.582906
O O9 0.868688 0.858551 0.667638
O O10 0.902938 0.000000 0.750000
O O11 0.000000 0.000000 0.685129
O O12 0.250000 0.750000 0.128887
#
# Coordination Sequence:
#
# PCOD8277109 Si02
#       5
#    16   4  16  16  16
#     4  10  23  39  59  91 125 162 207 250 296 351
#     4   8  18  44  68  82 110 156 188 244 316 358
#     4  10  21  39  59  84 125 167 201 244 291 349
#     4   9  22  43  65  89 114 152 201 251 304 364
#     4  12  24  38  61  94 121 159 203 247 302 363
#
# _framework density 18.995065
#
# number of rings (size 3 to 8) (size 9 to 14) (size 15 to 20)
#    0.000    2.118    2.353    0.706    4.941    2.824 
#    2.118    3.529    0.000    0.000    0.000    0.000 
#    0.000    0.000    0.000    0.000    0.000    0.000 
#
# Total GULP energy -421438.121037 kJ/mol
# GULP energy per Si atom -12395.238854 kJ/mol
# Density = 1.895183 g / cm^3
# Si number density = 18.995065 Si / 1000 Ang^3
#
#
#
# Elastic Constant Matrix: (Units=GPa)
#
#
# Indices 1 2 3 4 5 6 
#
# 1 143.6203 39.9856 61.0010 0.0000 0.0000 0.0000
# 2 39.9856 108.4072 48.7914 0.0000 0.0000 0.0000
# 3 61.0010 48.7914 110.0284 0.0000 0.0000 0.0000
# 4 0.0000 0.0000 0.0000 38.2543 0.0000 0.0000
# 5 0.0000 0.0000 0.0000 0.0000 36.3498 0.0000
# 6 0.0000 0.0000 0.0000 0.0000 0.0000 21.6428
#
#
#
# Elastic Compliance Matrix: (Units=1/GPa)
#
#
# Indices 1 2 3 4 5 6 
#
# 1 0.009270 -0.001382 -0.004527 0.000000 0.000000 0.000000
# 2 -0.001382 0.011731 -0.004436 0.000000 0.000000 0.000000
# 3 -0.004527 -0.004436 0.013565 0.000000 0.000000 0.000000
# 4 0.000000 0.000000 0.000000 0.026141 0.000000 0.000000
# 5 0.000000 0.000000 0.000000 0.000000 0.027510 0.000000
# 6 0.000000 0.000000 0.000000 0.000000 0.000000 0.046205
#
#
# Mechanical properties :
#
#
# Convention : Reuss Voigt Hill
#
# Bulk Modulus (GPa) = 72.05991 73.51245 72.78618
# Shear Modulus (GPa) = 31.30155 33.40124 32.35139
#
# Velocity S-wave (km/s) = 4.06381 4.19790 4.13140
# Velocity P-wave (km/s) = 7.74841 7.89185 7.82046
#
# Compressibility (1/GPa) = 0.01387734
#
# Stress axis : x y z
#
# Youngs Moduli (GPa) = 107.87240 85.24719 73.71799
#
# Poissons Ratio (x) = 0.11780 0.33370
# Poissons Ratio (y) = 0.14907 0.32699
# Poissons Ratio (z) = 0.48831 0.37813
#
# Static dielectric constant tensor:
#      x y z
#    x 3.472220 0.000000 0.000000 
#    y 0.000000 3.483710 0.000000 
#    z 0.000000 0.000000 3.450770 
# 
# 
# High freq. dielectric constant tensor:
#      x y z
#    x 1.738010 0.000000 0.000000 
#    y 0.000000 1.742910 0.000000 
#    z 0.000000 0.000000 1.731470 
# 
# From -- ./inp_files/61320.got.cif
#   From: 2010.03.12/outbox.cif.g09.slc.cpg/sg66_31_cif.got.tgz:61320.got - 2010.04.10 21:57:39.
