data_PCOD8277485
_publ_section_title
;
Structure prediction by ZEFSAII (Michael W. Deem and Ramdas Pophale) SiO2 
 PCOD8277485
Probable space group: C C C M
;
_chemical_formula_sum "Si O2"
_cell_formula_units_Z 88
_cell_length_a 9.088299
_cell_length_b 19.542251
_cell_length_c 22.155541
_cell_angle_alpha 90.000000
_cell_angle_beta 90.000000
_cell_angle_gamma 90.000000
_cell_volume 3934.953032
_symmetry_space_group_name_H-M "C C C M"
_symmetry_group_IT_number 66
_symmetry_cell_setting 'orthorhombic'
loop_
_space_group_symop_operation_xyz
x,y,z
-x,-y,z
x,-y,1/2-z
-x,y,1/2-z
-x,-y,-z
x,y,-z
-x,y,1/2+z
x,-y,1/2+z
1/2+x,1/2+y,z
1/2-x,1/2-y,z
1/2+x,1/2-y,1/2-z
1/2-x,1/2+y,1/2-z
1/2-x,1/2-y,-z
1/2+x,1/2+y,-z
1/2-x,1/2+y,1/2+z
1/2+x,1/2-y,1/2+z
loop_
_atom_site_type_symbol
_atom_site_label
_atom_site_fract_x
_atom_site_fract_y
_atom_site_fract_z
Si Si1 0.732102 0.603540 0.600225
Si Si2 0.460818 0.133234 0.933559
Si Si3 0.299978 0.616690 0.351843
Si Si4 0.330112 0.079226 0.263379
Si Si5 0.500000 0.500000 0.887251
Si Si6 0.001109 0.210325 0.070510
O O1 0.883942 0.593439 0.564615
O O2 0.771226 0.597922 0.670809
O O3 0.619941 0.544587 0.575402
O O4 0.656529 0.676735 0.586190
O O5 0.349141 0.096455 0.887873
O O6 0.501225 0.210111 0.913070
O O7 0.389687 0.131709 0.000000
O O8 0.258466 0.629669 0.282320
O O9 0.411801 0.553654 0.347032
O O10 0.370779 0.680237 0.386852
O O11 0.500000 0.095326 0.250000
O O12 0.296668 0.000000 0.250000
O O13 0.039699 0.198062 0.000000
#
# Coordination Sequence:
#
# PCOD8277485 Si02
#       6
#    16  16  16  16   8  16
#     4  11  22  41  67  97 128 172 214 266 321 385
#     4  11  23  43  68  91 127 181 222 258 318 386
#     4  11  22  41  67  97 128 172 214 266 321 385
#     4  11  22  40  69  93 132 170 217 263 317 397
#     4  10  24  39  61  94 130 156 215 267 324 374
#     4  10  23  43  66  96 133 172 218 265 313 382
#
# _framework density 22.363672000000001
#
# number of rings (size 3 to 8) (size 9 to 14) (size 15 to 20)
#    0.000    1.273    3.636    2.182    0.000    7.273 
#    0.000   22.727    0.000    0.000    0.000    0.000 
#    0.000    0.000    0.000    0.000    0.000    0.000 
#
# Total GULP energy -545305.766992 kJ/mol
# GULP energy per Si atom -12393.312886 kJ/mol
# Density = 2.231277 g / cm^3
# Si number density = 22.363672 Si / 1000 Ang^3
#
#
#
# Elastic Constant Matrix: (Units=GPa)
#
#
# Indices 1 2 3 4 5 6 
#
# 1 119.6804 26.4934 21.0653 0.0000 0.0000 0.0000
# 2 26.4934 62.5617 33.7658 0.0000 0.0000 0.0000
# 3 21.0653 33.7658 117.2223 0.0000 0.0000 0.0000
# 4 0.0000 0.0000 0.0000 21.0161 0.0000 0.0000
# 5 0.0000 0.0000 0.0000 0.0000 33.9031 0.0000
# 6 0.0000 0.0000 0.0000 0.0000 0.0000 27.0344
#
#
#
# Elastic Compliance Matrix: (Units=1/GPa)
#
#
# Indices 1 2 3 4 5 6 
#
# 1 0.009259 -0.003580 -0.000633 0.000000 0.000000 0.000000
# 2 -0.003580 0.020310 -0.005207 0.000000 0.000000 0.000000
# 3 -0.000633 -0.005207 0.010144 0.000000 0.000000 0.000000
# 4 0.000000 0.000000 0.000000 0.047582 0.000000 0.000000
# 5 0.000000 0.000000 0.000000 0.000000 0.029496 0.000000
# 6 0.000000 0.000000 0.000000 0.000000 0.000000 0.036990
#
#
# Mechanical properties :
#
#
# Convention : Reuss Voigt Hill
#
# Bulk Modulus (GPa) = 47.90384 51.34593 49.62489
# Shear Modulus (GPa) = 27.84274 30.93340 29.38807
#
# Velocity S-wave (km/s) = 3.53228 3.72317 3.62898
# Velocity P-wave (km/s) = 6.17275 6.44143 6.30852
#
# Compressibility (1/GPa) = 0.02087515
#
# Stress axis : x y z
#
# Youngs Moduli (GPa) = 107.99871 49.23567 98.57603
#
# Poissons Ratio (x) = 0.17624 0.06238
# Poissons Ratio (y) = 0.38659 0.51330
# Poissons Ratio (z) = 0.06835 0.25638
#
# Static dielectric constant tensor:
#      x y z
#    x 4.484180 0.000000 0.000000 
#    y 0.000000 3.929710 0.000000 
#    z 0.000000 0.000000 3.922070 
# 
# 
# High freq. dielectric constant tensor:
#      x y z
#    x 1.906700 0.000000 0.000000 
#    y 0.000000 1.861610 0.000000 
#    z 0.000000 0.000000 1.869630 
# 
# From -- ./inp_files/55471.got.cif
#   From: 2010.03.12/outbox.cif.g09.slc.cpg/sg66_28_cif.got.tgz:55471.got - 2010.04.10 21:57:39.
