data_PCOD8277224
_publ_section_title
;
Structure prediction by ZEFSAII (Michael W. Deem and Ramdas Pophale) SiO2 
 PCOD8277224
Probable space group: C C C M
;
_chemical_formula_sum "Si O2"
_cell_formula_units_Z 96
_cell_length_a 22.734823
_cell_length_b 10.376788
_cell_length_c 17.051350
_cell_angle_alpha 90.000000
_cell_angle_beta 90.000000
_cell_angle_gamma 90.000000
_cell_volume 4022.659661
_symmetry_space_group_name_H-M "C C C M"
_symmetry_group_IT_number 66
_symmetry_cell_setting 'orthorhombic'
loop_
_space_group_symop_operation_xyz
x,y,z
-x,-y,z
x,-y,1/2-z
-x,y,1/2-z
-x,-y,-z
x,y,-z
-x,y,1/2+z
x,-y,1/2+z
1/2+x,1/2+y,z
1/2-x,1/2-y,z
1/2+x,1/2-y,1/2-z
1/2-x,1/2+y,1/2-z
1/2-x,1/2-y,-z
1/2+x,1/2+y,-z
1/2-x,1/2+y,1/2+z
1/2+x,1/2-y,1/2+z
loop_
_atom_site_type_symbol
_atom_site_label
_atom_site_fract_x
_atom_site_fract_y
_atom_site_fract_z
Si Si1 0.564665 0.217616 0.410107
Si Si2 0.145616 0.878590 0.307340
Si Si3 0.841550 0.788966 0.650828
Si Si4 0.540005 0.617524 0.589605
Si Si5 0.739417 0.500894 0.907990
Si Si6 0.637764 0.995108 0.342231
O O1 0.584494 0.240181 0.500000
O O2 0.589171 0.327295 0.352466
O O3 0.494455 0.244341 0.402328
O O4 0.585205 0.075315 0.383577
O O5 0.167722 0.770629 0.244826
O O6 0.192404 0.898978 0.375608
O O7 0.135284 0.000000 0.250000
O O8 0.898281 0.881227 0.635472
O O9 0.858106 0.648020 0.618488
O O10 0.783208 0.854822 0.612809
O O11 0.500000 0.500000 0.621685
O O12 0.556686 0.589549 0.500000
O O13 0.798126 0.548645 0.863750
O O14 0.747997 0.515883 0.000000
O O15 0.625380 0.000000 0.250000
#
# Coordination Sequence:
#
# PCOD8277224 Si02
#       6
#    16  16  16  16  16  16
#     4  11  24  43  68 101 138 178 231 287 346 412
#     4  10  21  41  64  95 131 174 223 281 343 403
#     4  11  23  42  69  98 134 184 229 282 346 414
#     4  10  22  42  70 102 137 175 224 293 351 410
#     4  11  24  41  68 102 135 178 233 290 347 416
#     4  12  25  45  66  95 141 188 231 282 345 419
#
# _framework density 23.864808
#
# number of rings (size 3 to 8) (size 9 to 14) (size 15 to 20)
#    0.000    1.167    1.667    5.500    0.000    6.667 
#    0.000    7.500    0.000    0.000    0.000    0.000 
#    0.000    0.000    0.000    0.000    0.000    0.000 
#
# Total GULP energy -594701.601153 kJ/mol
# GULP energy per Si atom -12389.616691 kJ/mol
# Density = 2.381049 g / cm^3
# Si number density = 23.864808 Si / 1000 Ang^3
#
#
#
# Elastic Constant Matrix: (Units=GPa)
#
#
# Indices 1 2 3 4 5 6 
#
# 1 49.0974 -1.4764 19.2606 0.0000 0.0000 0.0000
# 2 -1.4764 64.2720 -3.0535 0.0000 0.0000 0.0000
# 3 19.2606 -3.0535 121.6571 0.0000 0.0000 0.0000
# 4 0.0000 0.0000 0.0000 28.2859 0.0000 0.0000
# 5 0.0000 0.0000 0.0000 0.0000 22.9486 0.0000
# 6 0.0000 0.0000 0.0000 0.0000 0.0000 38.3513
#
#
#
# Elastic Compliance Matrix: (Units=1/GPa)
#
#
# Indices 1 2 3 4 5 6 
#
# 1 0.021724 0.000336 -0.003431 0.000000 0.000000 0.000000
# 2 0.000336 0.015583 0.000338 0.000000 0.000000 0.000000
# 3 -0.003431 0.000338 0.008771 0.000000 0.000000 0.000000
# 4 0.000000 0.000000 0.000000 0.035353 0.000000 0.000000
# 5 0.000000 0.000000 0.000000 0.000000 0.043576 0.000000
# 6 0.000000 0.000000 0.000000 0.000000 0.000000 0.026075
#
#
# Mechanical properties :
#
#
# Convention : Reuss Voigt Hill
#
# Bulk Modulus (GPa) = 24.65241 29.38755 27.01998
# Shear Modulus (GPa) = 29.39161 32.60355 30.99758
#
# Velocity S-wave (km/s) = 3.51321 3.70019 3.60791
# Velocity P-wave (km/s) = 5.17777 5.53138 5.35749
#
# Compressibility (1/GPa) = 0.04056399
#
# Stress axis : x y z
#
# Youngs Moduli (GPa) = 46.03271 64.17393 114.00599
#
# Poissons Ratio (x) = -0.02156 0.39113
# Poissons Ratio (y) = -0.01547 -0.03852
# Poissons Ratio (z) = 0.15793 -0.02169
#
# Static dielectric constant tensor:
#      x y z
#    x 4.139120 0.000000 0.000000 
#    y 0.000000 4.572560 0.000000 
#    z 0.000000 0.000000 4.405610 
# 
# 
# High freq. dielectric constant tensor:
#      x y z
#    x 1.936450 0.000000 0.000000 
#    y 0.000000 1.947840 0.000000 
#    z 0.000000 0.000000 1.952700 
# 
# From -- ./inp_files/43600.got.cif
#   From: 2010.03.12/outbox.cif.g09.slc.cpg/sg66_22_cif.got.tgz:43600.got - 2010.04.10 21:57:39.
