data_PCOD8277494
_publ_section_title
;
Structure prediction by ZEFSAII (Michael W. Deem and Ramdas Pophale) SiO2 
 PCOD8277494
Probable space group: C C C M
;
_chemical_formula_sum "Si O2"
_cell_formula_units_Z 88
_cell_length_a 21.047744
_cell_length_b 14.108131
_cell_length_c 14.609307
_cell_angle_alpha 90.000000
_cell_angle_beta 90.000000
_cell_angle_gamma 90.000000
_cell_volume 4338.150873
_symmetry_space_group_name_H-M "C C C M"
_symmetry_group_IT_number 66
_symmetry_cell_setting 'orthorhombic'
loop_
_space_group_symop_operation_xyz
x,y,z
-x,-y,z
x,-y,1/2-z
-x,y,1/2-z
-x,-y,-z
x,y,-z
-x,y,1/2+z
x,-y,1/2+z
1/2+x,1/2+y,z
1/2-x,1/2-y,z
1/2+x,1/2-y,1/2-z
1/2-x,1/2+y,1/2-z
1/2-x,1/2-y,-z
1/2+x,1/2+y,-z
1/2-x,1/2+y,1/2+z
1/2+x,1/2-y,1/2+z
loop_
_atom_site_type_symbol
_atom_site_label
_atom_site_fract_x
_atom_site_fract_y
_atom_site_fract_z
Si Si1 0.570421 0.543444 0.500000
Si Si2 0.181940 0.703642 0.000000
Si Si3 0.680629 0.015852 0.500000
Si Si4 0.112993 0.579474 0.321886
Si Si5 0.179563 0.776278 0.310986
Si Si6 0.898803 0.195987 0.850918
Si Si7 0.500000 0.178921 0.750000
Si Si8 0.181137 0.112578 0.000000
O O1 0.500000 0.500000 0.500000
O O2 0.578149 0.605742 0.591264
O O3 0.625774 0.464995 0.500000
O O4 0.250000 0.750000 0.000000
O O5 0.196683 0.593359 0.000000
O O6 0.143054 0.732392 0.910529
O O7 0.634733 0.042215 0.418341
O O8 0.747992 0.070094 0.500000
O O9 0.133474 0.500000 0.250000
O O10 0.146101 0.677080 0.300346
O O11 0.038799 0.606879 0.315639
O O12 0.250000 0.750000 0.283042
O O13 0.144895 0.841906 0.234176
O O14 0.173268 0.822036 0.410922
O O15 0.959829 0.253421 0.816398
#
# Coordination Sequence:
#
# PCOD8277494 Si02
#       8
#     8   8   8  16  16  16   8   8
#     4  11  28  46  68 104 142 177 250 283 334 435
#     4  11  23  44  68  95 138 172 229 277 347 410
#     4  12  22  41  71 101 131 176 227 285 344 403
#     4  11  24  40  65 100 133 170 226 278 336 414
#     4  11  22  44  68  96 139 178 223 283 358 406
#     4  10  24  45  68  97 131 189 222 283 352 402
#     4  10  23  44  67  96 140 176 226 273 345 410
#     4  12  26  44  66 105 137 178 231 292 339 419
#
# _framework density 20.285139999999998
#
# number of rings (size 3 to 8) (size 9 to 14) (size 15 to 20)
#    0.000    1.091    1.818    4.909    5.091    3.636 
#    0.000    2.727    0.000    0.000    0.000    0.000 
#    0.000    0.000    0.000    0.000    0.000    0.000 
#
# Total GULP energy -545393.605439 kJ/mol
# GULP energy per Si atom -12395.309215 kJ/mol
# Density = 2.023897 g / cm^3
# Si number density = 20.285140 Si / 1000 Ang^3
#
#
#
# Elastic Constant Matrix: (Units=GPa)
#
#
# Indices 1 2 3 4 5 6 
#
# 1 164.6205 75.2485 90.3136 0.0000 0.0000 0.0000
# 2 75.2485 118.6233 63.7729 0.0000 0.0000 0.0000
# 3 90.3136 63.7729 172.1663 0.0000 0.0000 0.0000
# 4 0.0000 0.0000 0.0000 31.6437 0.0000 0.0000
# 5 0.0000 0.0000 0.0000 0.0000 43.9839 0.0000
# 6 0.0000 0.0000 0.0000 0.0000 0.0000 32.0691
#
#
#
# Elastic Compliance Matrix: (Units=1/GPa)
#
#
# Indices 1 2 3 4 5 6 
#
# 1 0.010116 -0.004450 -0.003658 0.000000 0.000000 0.000000
# 2 -0.004450 0.012484 -0.002290 0.000000 0.000000 0.000000
# 3 -0.003658 -0.002290 0.008575 0.000000 0.000000 0.000000
# 4 0.000000 0.000000 0.000000 0.031602 0.000000 0.000000
# 5 0.000000 0.000000 0.000000 0.000000 0.022736 0.000000
# 6 0.000000 0.000000 0.000000 0.000000 0.000000 0.031183
#
#
# Mechanical properties :
#
#
# Convention : Reuss Voigt Hill
#
# Bulk Modulus (GPa) = 96.34785 101.56446 98.95616
# Shear Modulus (GPa) = 35.47336 36.61102 36.04219
#
# Velocity S-wave (km/s) = 4.18633 4.25293 4.21976
# Velocity P-wave (km/s) = 8.42419 8.61937 8.52234
#
# Compressibility (1/GPa) = 0.01037906
#
# Stress axis : x y z
#
# Youngs Moduli (GPa) = 98.85708 80.10189 116.61333
#
# Poissons Ratio (x) = 0.35648 0.42656
# Poissons Ratio (y) = 0.43994 0.26702
# Poissons Ratio (z) = 0.36161 0.18342
#
# Static dielectric constant tensor:
#      x y z
#    x 3.680760 0.000000 0.000000 
#    y 0.000000 3.995630 0.000000 
#    z 0.000000 0.000000 4.247910 
# 
# 
# High freq. dielectric constant tensor:
#      x y z
#    x 1.811800 0.000000 0.000000 
#    y 0.000000 1.799380 0.000000 
#    z 0.000000 0.000000 1.806100 
# 
# From -- ./inp_files/31142.got.cif
#   From: 2010.03.12/outbox.cif.g09.slc.cpg/sg66_16_cif.got.tgz:31142.got - 2010.04.10 21:57:39.
