data_PCOD8277101
_publ_section_title
;
Structure prediction by ZEFSAII (Michael W. Deem and Ramdas Pophale) SiO2 
 PCOD8277101
Probable space group: C C C M
;
_chemical_formula_sum "Si O2"
_cell_formula_units_Z 96
_cell_length_a 10.479538
_cell_length_b 21.680348
_cell_length_c 18.752286
_cell_angle_alpha 90.000000
_cell_angle_beta 90.000000
_cell_angle_gamma 90.000000
_cell_volume 4260.519955
_symmetry_space_group_name_H-M "C C C M"
_symmetry_group_IT_number 66
_symmetry_cell_setting 'orthorhombic'
loop_
_space_group_symop_operation_xyz
x,y,z
-x,-y,z
x,-y,1/2-z
-x,y,1/2-z
-x,-y,-z
x,y,-z
-x,y,1/2+z
x,-y,1/2+z
1/2+x,1/2+y,z
1/2-x,1/2-y,z
1/2+x,1/2-y,1/2-z
1/2-x,1/2+y,1/2-z
1/2-x,1/2-y,-z
1/2+x,1/2+y,-z
1/2-x,1/2+y,1/2+z
1/2+x,1/2-y,1/2+z
loop_
_atom_site_type_symbol
_atom_site_label
_atom_site_fract_x
_atom_site_fract_y
_atom_site_fract_z
Si Si1 0.357006 0.998505 0.868441
Si Si2 0.508865 0.333126 0.083342
Si Si3 0.397121 0.544953 0.420371
Si Si4 0.372569 0.878846 0.294076
Si Si5 0.774438 0.359814 0.155465
Si Si6 0.014988 0.305462 0.915951
O O1 0.246249 0.019414 0.922534
O O2 0.349443 0.047685 0.803561
O O3 0.500000 0.000000 0.902942
O O4 0.327367 0.929601 0.845346
O O5 0.405475 0.384678 0.109614
O O6 0.636600 0.349924 0.124709
O O7 0.454394 0.265878 0.101581
O O8 0.541445 0.335640 0.000000
O O9 0.500000 0.500000 0.380034
O O10 0.448559 0.550668 0.500000
O O11 0.500000 0.867415 0.250000
O O12 0.267954 0.846833 0.241374
O O13 0.383137 0.846283 0.371662
O O14 0.870295 0.317706 0.109405
O O15 0.030241 0.320834 0.000000
#
# Coordination Sequence:
#
# PCOD8277101 Si02
#       6
#    16  16  16  16  16  16
#     4  12  22  39  66  95 130 171 220 278 340 399
#     4  10  21  42  67  94 135 177 220 276 336 400
#     4  10  22  41  63  94 133 170 212 270 335 398
#     4  10  22  40  61  92 132 174 215 270 335 391
#     4  11  21  37  67  96 129 172 224 280 333 393
#     4  10  21  38  63  96 132 175 226 273 329 396
#
# _framework density 22.532461000000001
#
# number of rings (size 3 to 8) (size 9 to 14) (size 15 to 20)
#    0.000    1.500    5.000    1.500    0.000    3.000 
#    0.000   10.000    0.000    3.000    0.000    0.000 
#    0.000    0.000    0.000    0.000    0.000    0.000 
#
# Total GULP energy -594636.301890 kJ/mol
# GULP energy per Si atom -12388.256289 kJ/mol
# Density = 2.248118 g / cm^3
# Si number density = 22.532461 Si / 1000 Ang^3
#
#
#
# Elastic Constant Matrix: (Units=GPa)
#
#
# Indices 1 2 3 4 5 6 
#
# 1 86.2262 32.1571 19.9913 0.0000 0.0000 0.0000
# 2 32.1571 135.6360 51.4369 0.0000 0.0000 0.0000
# 3 19.9913 51.4369 86.1503 0.0000 0.0000 0.0000
# 4 0.0000 0.0000 0.0000 28.6923 0.0000 0.0000
# 5 0.0000 0.0000 0.0000 0.0000 16.8010 0.0000
# 6 0.0000 0.0000 0.0000 0.0000 0.0000 30.4577
#
#
#
# Elastic Compliance Matrix: (Units=1/GPa)
#
#
# Indices 1 2 3 4 5 6 
#
# 1 0.012872 -0.002481 -0.001506 0.000000 0.000000 0.000000
# 2 -0.002481 0.010009 -0.005400 0.000000 0.000000 0.000000
# 3 -0.001506 -0.005400 0.015181 0.000000 0.000000 0.000000
# 4 0.000000 0.000000 0.000000 0.034853 0.000000 0.000000
# 5 0.000000 0.000000 0.000000 0.000000 0.059520 0.000000
# 6 0.000000 0.000000 0.000000 0.000000 0.000000 0.032832
#
#
# Mechanical properties :
#
#
# Convention : Reuss Voigt Hill
#
# Bulk Modulus (GPa) = 51.84453 57.24255 54.54354
# Shear Modulus (GPa) = 26.25093 28.81869 27.53481
#
# Velocity S-wave (km/s) = 3.41695 3.58017 3.49951
# Velocity P-wave (km/s) = 6.21500 6.52302 6.37087
#
# Compressibility (1/GPa) = 0.01928844
#
# Stress axis : x y z
#
# Youngs Moduli (GPa) = 77.69018 99.91337 65.87077
#
# Poissons Ratio (x) = 0.24785 0.09919
# Poissons Ratio (y) = 0.19272 0.35571
# Poissons Ratio (z) = 0.11699 0.53955
#
# Static dielectric constant tensor:
#      x y z
#    x 3.980290 0.000000 0.000000 
#    y 0.000000 4.449590 0.000000 
#    z 0.000000 0.000000 4.358240 
# 
# 
# High freq. dielectric constant tensor:
#      x y z
#    x 1.874200 0.000000 0.000000 
#    y 0.000000 1.904900 0.000000 
#    z 0.000000 0.000000 1.871280 
# 
# From -- ./inp_files/48790.got.cif
#   From: 2010.03.12/outbox.cif.g09.slc.cpg/sg66_25_cif.got.tgz:48790.got - 2010.04.10 21:57:39.
