data_PCOD8277600
_publ_section_title
;
Structure prediction by ZEFSAII (Michael W. Deem and Ramdas Pophale) SiO2 
 PCOD8277600
Probable space group: C C C M
;
_chemical_formula_sum "Si O2"
_cell_formula_units_Z 80
_cell_length_a 17.956196
_cell_length_b 19.153124
_cell_length_c 13.429483
_cell_angle_alpha 90.000000
_cell_angle_beta 90.000000
_cell_angle_gamma 90.000000
_cell_volume 4618.630843
_symmetry_space_group_name_H-M "C C C M"
_symmetry_group_IT_number 66
_symmetry_cell_setting 'orthorhombic'
loop_
_space_group_symop_operation_xyz
x,y,z
-x,-y,z
x,-y,1/2-z
-x,y,1/2-z
-x,-y,-z
x,y,-z
-x,y,1/2+z
x,-y,1/2+z
1/2+x,1/2+y,z
1/2-x,1/2-y,z
1/2+x,1/2-y,1/2-z
1/2-x,1/2+y,1/2-z
1/2-x,1/2-y,-z
1/2+x,1/2+y,-z
1/2-x,1/2+y,1/2+z
1/2+x,1/2-y,1/2+z
loop_
_atom_site_type_symbol
_atom_site_label
_atom_site_fract_x
_atom_site_fract_y
_atom_site_fract_z
Si Si1 0.322847 0.578183 0.273684
Si Si2 0.949329 0.138055 0.386743
Si Si3 0.287464 0.175195 0.115663
Si Si4 0.116886 0.830695 0.886137
Si Si5 0.581072 0.223566 0.731476
O O1 0.297773 0.500000 0.250000
O O2 0.405255 0.579335 0.323926
O O3 0.265973 0.612680 0.351258
O O4 0.322679 0.621654 0.170332
O O5 0.922866 0.132991 0.500000
O O6 0.925743 0.213295 0.346403
O O7 0.037793 0.129005 0.376223
O O8 0.250000 0.250000 0.136753
O O9 0.362420 0.168421 0.182506
O O10 0.307387 0.165705 0.000000
O O11 0.112351 0.754090 0.835973
O O12 0.141369 0.820951 0.000000
O O13 0.500000 0.188363 0.750000
#
# Coordination Sequence:
#
# PCOD8277600 Si02
#       5
#    16  16  16  16  16
#     4  11  22  33  46  72 109 142 175 219 266 307
#     4   9  16  29  49  73 101 137 179 215 249 303
#     4  11  20  34  59  83 102 132 180 226 261 302
#     4   9  18  30  46  70 105 145 176 202 251 323
#     4   9  17  31  52  79 105 128 166 221 273 308
#
# _framework density 17.321149999999999
#
# number of rings (size 3 to 8) (size 9 to 14) (size 15 to 20)
#    0.000    2.200    4.000    3.000    0.000    4.000 
#    0.000    4.000    0.000    0.600    0.000    1.400 
#    0.000    0.000    0.000    0.000    0.000    0.000 
#
# Total GULP energy -495901.835491 kJ/mol
# GULP energy per Si atom -12397.545887 kJ/mol
# Density = 1.728173 g / cm^3
# Si number density = 17.321150 Si / 1000 Ang^3
#
#
#
# Elastic Constant Matrix: (Units=GPa)
#
#
# Indices 1 2 3 4 5 6 
#
# 1 69.3027 19.8145 34.9955 0.0000 0.0000 0.0000
# 2 19.8145 42.8317 18.2817 0.0000 0.0000 0.0000
# 3 34.9955 18.2817 131.2371 0.0000 0.0000 0.0000
# 4 0.0000 0.0000 0.0000 11.7859 0.0000 0.0000
# 5 0.0000 0.0000 0.0000 0.0000 30.0640 0.0000
# 6 0.0000 0.0000 0.0000 0.0000 0.0000 18.0173
#
#
#
# Elastic Compliance Matrix: (Units=1/GPa)
#
#
# Indices 1 2 3 4 5 6 
#
# 1 0.018372 -0.006813 -0.003950 0.000000 0.000000 0.000000
# 2 -0.006813 0.027350 -0.001993 0.000000 0.000000 0.000000
# 3 -0.003950 -0.001993 0.008951 0.000000 0.000000 0.000000
# 4 0.000000 0.000000 0.000000 0.084847 0.000000 0.000000
# 5 0.000000 0.000000 0.000000 0.000000 0.033262 0.000000
# 6 0.000000 0.000000 0.000000 0.000000 0.000000 0.055502
#
#
# Mechanical properties :
#
#
# Convention : Reuss Voigt Hill
#
# Bulk Modulus (GPa) = 34.29356 43.28391 38.78874
# Shear Modulus (GPa) = 18.97414 23.32543 21.14978
#
# Velocity S-wave (km/s) = 3.31332 3.67365 3.49813
# Velocity P-wave (km/s) = 5.87189 6.56030 6.22562
#
# Compressibility (1/GPa) = 0.02915999
#
# Stress axis : x y z
#
# Youngs Moduli (GPa) = 54.43056 36.56336 111.72271
#
# Poissons Ratio (x) = 0.24911 0.44130
# Poissons Ratio (y) = 0.37085 0.22268
# Poissons Ratio (z) = 0.21500 0.07287
#
# Static dielectric constant tensor:
#      x y z
#    x 3.304350 0.000000 0.000000 
#    y 0.000000 2.676910 0.000000 
#    z 0.000000 0.000000 3.467480 
# 
# 
# High freq. dielectric constant tensor:
#      x y z
#    x 1.656120 0.000000 0.000000 
#    y 0.000000 1.602660 0.000000 
#    z 0.000000 0.000000 1.688410 
# 
# From -- ./inp_files/29935.got.cif
#   From: 2010.03.12/outbox.cif.g09.slc.cpg/sg66_15_cif.got.tgz:29935.got - 2010.04.10 21:57:39.
