data_PCOD8277197
_publ_section_title
;
Structure prediction by ZEFSAII (Michael W. Deem and Ramdas Pophale) SiO2 
 PCOD8277197
Probable space group: C C C M
;
_chemical_formula_sum "Si O2"
_cell_formula_units_Z 96
_cell_length_a 11.083086
_cell_length_b 22.241058
_cell_length_c 18.434068
_cell_angle_alpha 90.000000
_cell_angle_beta 90.000000
_cell_angle_gamma 90.000000
_cell_volume 4543.989624
_symmetry_space_group_name_H-M "C C C M"
_symmetry_group_IT_number 66
_symmetry_cell_setting 'orthorhombic'
loop_
_space_group_symop_operation_xyz
x,y,z
-x,-y,z
x,-y,1/2-z
-x,y,1/2-z
-x,-y,-z
x,y,-z
-x,y,1/2+z
x,-y,1/2+z
1/2+x,1/2+y,z
1/2-x,1/2-y,z
1/2+x,1/2-y,1/2-z
1/2-x,1/2+y,1/2-z
1/2-x,1/2-y,-z
1/2+x,1/2+y,-z
1/2-x,1/2+y,1/2+z
1/2+x,1/2-y,1/2+z
loop_
_atom_site_type_symbol
_atom_site_label
_atom_site_fract_x
_atom_site_fract_y
_atom_site_fract_z
Si Si1 0.000000 0.345679 0.750000
Si Si2 0.660902 0.436825 0.735862
Si Si3 0.042016 0.869318 0.151037
Si Si4 0.113088 0.737783 0.144410
Si Si5 0.477601 0.219905 0.000000
Si Si6 0.677765 0.103077 0.500000
Si Si7 0.550723 0.359393 0.500000
Si Si8 0.904677 0.554835 0.151366
O O1 0.894523 0.304653 0.784503
O O2 0.959890 0.383901 0.681130
O O3 0.594337 0.500000 0.750000
O O4 0.660733 0.401682 0.814027
O O5 0.582126 0.394689 0.684121
O O6 0.789407 0.454695 0.702744
O O7 0.044109 0.798549 0.165959
O O8 0.034103 0.880879 0.065662
O O9 0.250000 0.750000 0.124481
O O10 0.055743 0.708476 0.072281
O O11 0.424491 0.287657 0.000000
O O12 0.370594 0.171193 0.000000
O O13 0.822302 0.106178 0.500000
O O14 0.632760 0.064367 0.431523
O O15 0.000000 0.500000 0.159388
#
# Coordination Sequence:
#
# PCOD8277197 Si02
#       8
#     8  16  16  16   8   8   8  16
#     4  12  23  40  62  96 133 168 218 276 328 420
#     4  11  22  42  67  93 134 180 222 284 339 398
#     4  10  21  40  65 100 134 176 225 273 341 410
#     4  11  23  40  65  98 135 176 219 275 342 407
#     4  10  22  43  67  93 136 176 223 271 337 420
#     4  12  22  47  68  96 136 175 226 281 347 409
#     4  10  21  40  70 104 136 172 219 284 341 416
#     4  12  26  44  69  95 133 179 233 281 345 407
#
# _framework density 21.126808
#
# number of rings (size 3 to 8) (size 9 to 14) (size 15 to 20)
#    0.000    1.000    3.333    5.000    0.000    0.000 
#    0.000    2.500    0.000    0.000    0.000    0.583 
#    0.000    0.000    0.000    0.000    0.000    0.000 
#
# Total GULP energy -594810.297776 kJ/mol
# GULP energy per Si atom -12391.881204 kJ/mol
# Density = 2.107872 g / cm^3
# Si number density = 21.126808 Si / 1000 Ang^3
#
#
#
# Elastic Constant Matrix: (Units=GPa)
#
#
# Indices 1 2 3 4 5 6 
#
# 1 108.5121 41.4097 61.9944 0.0000 0.0000 0.0000
# 2 41.4097 105.6673 71.8413 0.0000 0.0000 0.0000
# 3 61.9944 71.8413 168.1963 0.0000 0.0000 0.0000
# 4 0.0000 0.0000 0.0000 42.1471 0.0000 0.0000
# 5 0.0000 0.0000 0.0000 0.0000 34.5566 0.0000
# 6 0.0000 0.0000 0.0000 0.0000 0.0000 14.3775
#
#
#
# Elastic Compliance Matrix: (Units=1/GPa)
#
#
# Indices 1 2 3 4 5 6 
#
# 1 0.012093 -0.002408 -0.003429 0.000000 0.000000 0.000000
# 2 -0.002408 0.013816 -0.005014 0.000000 0.000000 0.000000
# 3 -0.003429 -0.005014 0.009351 0.000000 0.000000 0.000000
# 4 0.000000 0.000000 0.000000 0.023726 0.000000 0.000000
# 5 0.000000 0.000000 0.000000 0.000000 0.028938 0.000000
# 6 0.000000 0.000000 0.000000 0.000000 0.000000 0.069553
#
#
# Mechanical properties :
#
#
# Convention : Reuss Voigt Hill
#
# Bulk Modulus (GPa) = 73.75140 81.42962 77.59051
# Shear Modulus (GPa) = 27.21848 32.02492 29.62170
#
# Velocity S-wave (km/s) = 3.59324 3.89761 3.74851
# Velocity P-wave (km/s) = 7.22495 7.67346 7.45258
#
# Compressibility (1/GPa) = 0.01355906
#
# Stress axis : x y z
#
# Youngs Moduli (GPa) = 82.68910 72.37970 106.94333
#
# Poissons Ratio (x) = 0.17429 0.36670
# Poissons Ratio (y) = 0.19912 0.53618
# Poissons Ratio (z) = 0.28354 0.36289
#
# Static dielectric constant tensor:
#      x y z
#    x 3.639640 0.000000 0.000000 
#    y 0.000000 3.928510 0.000000 
#    z 0.000000 0.000000 4.086540 
# 
# 
# High freq. dielectric constant tensor:
#      x y z
#    x 1.817850 0.000000 0.000000 
#    y 0.000000 1.835990 0.000000 
#    z 0.000000 0.000000 1.843680 
# 
# From -- ./inp_files/38938.got.cif
#   From: 2010.03.12/outbox.cif.g09.slc.cpg/sg66_20_cif.got.tgz:38938.got - 2010.04.10 21:57:39.
