data_PCOD8277927
_publ_section_title
;
Structure prediction by ZEFSAII (Michael W. Deem and Ramdas Pophale) SiO2 
 PCOD8277927
Probable space group: C C C M
;
_chemical_formula_sum "Si O2"
_cell_formula_units_Z 96
_cell_length_a 28.928835
_cell_length_b 20.836161
_cell_length_c 9.148323
_cell_angle_alpha 90.000000
_cell_angle_beta 90.000000
_cell_angle_gamma 90.000000
_cell_volume 5514.296814
_symmetry_space_group_name_H-M "C C C M"
_symmetry_group_IT_number 66
_symmetry_cell_setting 'orthorhombic'
loop_
_space_group_symop_operation_xyz
x,y,z
-x,-y,z
x,-y,1/2-z
-x,y,1/2-z
-x,-y,-z
x,y,-z
-x,y,1/2+z
x,-y,1/2+z
1/2+x,1/2+y,z
1/2-x,1/2-y,z
1/2+x,1/2-y,1/2-z
1/2-x,1/2+y,1/2-z
1/2-x,1/2-y,-z
1/2+x,1/2+y,-z
1/2-x,1/2+y,1/2+z
1/2+x,1/2-y,1/2+z
loop_
_atom_site_type_symbol
_atom_site_label
_atom_site_fract_x
_atom_site_fract_y
_atom_site_fract_z
Si Si1 0.048181 0.200057 0.669528
Si Si2 0.776527 0.438096 0.665103
Si Si3 0.221303 0.311590 0.329207
Si Si4 0.549061 0.558643 0.670766
Si Si5 0.386630 0.938398 0.335106
Si Si6 0.114774 0.312311 0.329040
O O1 0.037266 0.209725 0.500000
O O2 0.070866 0.129295 0.695879
O O3 0.085561 0.251297 0.725343
O O4 0.000000 0.210552 0.750000
O O5 0.756474 0.500000 0.750000
O O6 0.757501 0.439148 0.500000
O O7 0.759264 0.373425 0.743907
O O8 0.831569 0.440380 0.667291
O O9 0.228314 0.325225 0.500000
O O10 0.250000 0.250000 0.276885
O O11 0.167987 0.298413 0.290581
O O12 0.577419 0.500000 0.750000
O O13 0.500000 0.561258 0.750000
O O14 0.543863 0.542985 0.500000
O O15 0.405676 0.939465 0.500000
O O16 0.404338 0.874227 0.256015
O O17 0.406739 0.000000 0.250000
O O18 0.108604 0.325763 0.500000
#
# Coordination Sequence:
#
# PCOD8277927 Si02
#       6
#    16  16  16  16  16  16
#     4   9  18  30  45  65  89 117 146 179 219 262
#     4   9  16  26  42  64  89 115 146 185 224 261
#     4   9  17  29  46  67  90 118 150 182 219 264
#     4   9  15  24  39  60  83 107 138 174 212 249
#     4   9  16  26  42  65  89 114 145 182 221 259
#     4   9  17  30  46  65  90 118 147 180 219 262
#
# _framework density 17.409291
#
# number of rings (size 3 to 8) (size 9 to 14) (size 15 to 20)
#    0.000    3.000    0.000    2.000    0.000    5.667 
#    0.000    0.000    0.000    1.500    0.000    5.833 
#    0.000    0.000    0.000    0.000    0.000    0.000 
#
# Total GULP energy -594928.284686 kJ/mol
# GULP energy per Si atom -12394.339264 kJ/mol
# Density = 1.736967 g / cm^3
# Si number density = 17.409291 Si / 1000 Ang^3
#
#
#
# Elastic Constant Matrix: (Units=GPa)
#
#
# Indices 1 2 3 4 5 6 
#
# 1 33.2085 47.7793 25.4464 0.0000 0.0000 0.0000
# 2 47.7793 202.5964 85.8809 0.0000 0.0000 0.0000
# 3 25.4464 85.8809 101.4432 0.0000 0.0000 0.0000
# 4 0.0000 0.0000 0.0000 35.8616 0.0000 0.0000
# 5 0.0000 0.0000 0.0000 0.0000 12.3929 0.0000
# 6 0.0000 0.0000 0.0000 0.0000 0.0000 24.1687
#
#
#
# Elastic Compliance Matrix: (Units=1/GPa)
#
#
# Indices 1 2 3 4 5 6 
#
# 1 0.046456 -0.009384 -0.003709 0.000000 0.000000 0.000000
# 2 -0.009384 0.009594 -0.005769 0.000000 0.000000 0.000000
# 3 -0.003709 -0.005769 0.015672 0.000000 0.000000 0.000000
# 4 0.000000 0.000000 0.000000 0.027885 0.000000 0.000000
# 5 0.000000 0.000000 0.000000 0.000000 0.080691 0.000000
# 6 0.000000 0.000000 0.000000 0.000000 0.000000 0.041376
#
#
# Mechanical properties :
#
#
# Convention : Reuss Voigt Hill
#
# Bulk Modulus (GPa) = 29.41246 72.82904 51.12075
# Shear Modulus (GPa) = 18.46867 26.36075 22.41471
#
# Velocity S-wave (km/s) = 3.26060 3.89546 3.59209
# Velocity P-wave (km/s) = 5.57734 7.88398 6.82876
#
# Compressibility (1/GPa) = 0.03399919
#
# Stress axis : x y z
#
# Youngs Moduli (GPa) = 21.52592 104.22974 63.80927
#
# Poissons Ratio (x) = 0.97805 0.23667
# Poissons Ratio (y) = 0.20199 0.36809
# Poissons Ratio (z) = 0.07984 0.60125
#
# Static dielectric constant tensor:
#      x y z
#    x 2.684150 0.000000 0.000000 
#    y 0.000000 3.984180 0.000000 
#    z 0.000000 0.000000 3.346950 
# 
# 
# High freq. dielectric constant tensor:
#      x y z
#    x 1.600880 0.000000 0.000000 
#    y 0.000000 1.696540 0.000000 
#    z 0.000000 0.000000 1.679970 
# 
# From -- ./inp_files/10276.got.cif
#   From: 2010.03.12/outbox.cif.g09.slc.cpg/sg66_6_cif.got.tgz:10276.got - 2010.04.10 21:57:39.
