data_PCOD8277241
_publ_section_title
;
Structure prediction by ZEFSAII (Michael W. Deem and Ramdas Pophale) SiO2 
 PCOD8277241
Probable space group: C C C M
;
_chemical_formula_sum "Si O2"
_cell_formula_units_Z 68
_cell_length_a 11.481660
_cell_length_b 11.481643
_cell_length_c 27.067610
_cell_angle_alpha 90.000000
_cell_angle_beta 90.000000
_cell_angle_gamma 90.000000
_cell_volume 3568.277584
_symmetry_space_group_name_H-M "C C C M"
_symmetry_group_IT_number 66
_symmetry_cell_setting 'orthorhombic'
loop_
_space_group_symop_operation_xyz
x,y,z
-x,-y,z
x,-y,1/2-z
-x,y,1/2-z
-x,-y,-z
x,y,-z
-x,y,1/2+z
x,-y,1/2+z
1/2+x,1/2+y,z
1/2-x,1/2-y,z
1/2+x,1/2-y,1/2-z
1/2-x,1/2+y,1/2-z
1/2-x,1/2-y,-z
1/2+x,1/2+y,-z
1/2-x,1/2+y,1/2+z
1/2+x,1/2-y,1/2+z
loop_
_atom_site_type_symbol
_atom_site_label
_atom_site_fract_x
_atom_site_fract_y
_atom_site_fract_z
Si Si1 0.590087 0.909914 0.655014
Si Si2 0.004604 0.686695 0.000000
Si Si3 0.687334 0.504972 0.898078
Si Si4 0.504969 0.312666 0.601922
Si Si5 0.000000 0.500000 0.250000
Si Si6 0.186697 0.504600 0.000000
O O1 0.718282 0.951595 0.639623
O O2 0.548410 0.781718 0.639622
O O3 0.500000 0.000000 0.629197
O O4 0.581056 0.918944 0.714842
O O5 0.977359 0.761455 0.047936
O O6 0.138230 0.638227 0.000000
O O7 0.922374 0.577627 0.000000
O O8 0.628713 0.628716 0.880362
O O9 0.587396 0.412606 0.902706
O O10 0.738544 0.522645 0.952064
#
# Coordination Sequence:
#
# PCOD8277241 Si02
#       6
#    16   8  16  16   4   8
#     4  10  21  42  65  89 115 154 208 254 315 369
#     4  11  22  35  56  91 128 169 212 247 291 357
#     4  11  23  38  60  92 130 168 204 248 304 367
#     4  11  23  38  60  92 130 168 204 248 304 367
#     4   8  24  44  68  90 112 148 200 256 324 362
#     4  11  22  35  56  91 128 169 212 247 291 357
#
# _framework density 19.056813999999999
#
# number of rings (size 3 to 8) (size 9 to 14) (size 15 to 20)
#    0.706    0.706    2.353    3.529    0.000    7.529 
#    0.000    4.706    0.000    2.824    0.000    0.000 
#    0.000    0.000    0.000    0.000    0.000    0.000 
#
# Total GULP energy -421237.271318 kJ/mol
# GULP energy per Si atom -12389.331509 kJ/mol
# Density = 1.901344 g / cm^3
# Si number density = 19.056814 Si / 1000 Ang^3
#
#
#
# Elastic Constant Matrix: (Units=GPa)
#
#
# Indices 1 2 3 4 5 6 
#
# 1 103.4508 61.9481 39.7821 0.0000 0.0000 0.0000
# 2 61.9481 103.4308 39.7774 0.0000 0.0000 0.0000
# 3 39.7821 39.7774 130.2413 0.0000 0.0000 0.0000
# 4 0.0000 0.0000 0.0000 37.5321 0.0000 0.0000
# 5 0.0000 0.0000 0.0000 0.0000 37.5363 0.0000
# 6 0.0000 0.0000 0.0000 0.0000 0.0000 37.9319
#
#
#
# Elastic Compliance Matrix: (Units=1/GPa)
#
#
# Indices 1 2 3 4 5 6 
#
# 1 0.015593 -0.008506 -0.002165 0.000000 0.000000 0.000000
# 2 -0.008506 0.015596 -0.002165 0.000000 0.000000 0.000000
# 3 -0.002165 -0.002165 0.009000 0.000000 0.000000 0.000000
# 4 0.000000 0.000000 0.000000 0.026644 0.000000 0.000000
# 5 0.000000 0.000000 0.000000 0.000000 0.026641 0.000000
# 6 0.000000 0.000000 0.000000 0.000000 0.000000 0.026363
#
#
# Mechanical properties :
#
#
# Convention : Reuss Voigt Hill
#
# Bulk Modulus (GPa) = 68.88636 68.90423 68.89529
# Shear Modulus (GPa) = 33.25624 35.64107 34.44866
#
# Velocity S-wave (km/s) = 4.18198 4.32933 4.25630
# Velocity P-wave (km/s) = 7.71654 7.82474 7.77083
#
# Compressibility (1/GPa) = 0.01451666
#
# Stress axis : x y z
#
# Youngs Moduli (GPa) = 64.13248 64.12043 111.10547
#
# Poissons Ratio (x) = 0.54544 0.24052
# Poissons Ratio (y) = 0.54554 0.24052
# Poissons Ratio (z) = 0.13883 0.13881
#
# Static dielectric constant tensor:
#      x y z
#    x 3.884870 0.000000 0.000000 
#    y 0.000000 3.884850 0.000000 
#    z 0.000000 0.000000 3.216020 
# 
# 
# High freq. dielectric constant tensor:
#      x y z
#    x 1.753120 0.000000 0.000000 
#    y 0.000000 1.753120 0.000000 
#    z 0.000000 0.000000 1.713350 
# 
# From -- ./inp_files/68703.got.cif
#   From: 2010.03.12/outbox.cif.g09.slc.cpg/sg66_35_cif.got.tgz:68703.got - 2010.04.10 21:57:39.
