data_PCOD8277885
_publ_section_title
;
Structure prediction by ZEFSAII (Michael W. Deem and Ramdas Pophale) SiO2 
 PCOD8277885
Probable space group: C C C M
;
_chemical_formula_sum "Si O2"
_cell_formula_units_Z 96
_cell_length_a 17.561564
_cell_length_b 9.840650
_cell_length_c 27.623229
_cell_angle_alpha 90.000000
_cell_angle_beta 90.000000
_cell_angle_gamma 90.000000
_cell_volume 4773.769223
_symmetry_space_group_name_H-M "C C C M"
_symmetry_group_IT_number 66
_symmetry_cell_setting 'orthorhombic'
loop_
_space_group_symop_operation_xyz
x,y,z
-x,-y,z
x,-y,1/2-z
-x,y,1/2-z
-x,-y,-z
x,y,-z
-x,y,1/2+z
x,-y,1/2+z
1/2+x,1/2+y,z
1/2-x,1/2-y,z
1/2+x,1/2-y,1/2-z
1/2-x,1/2+y,1/2-z
1/2-x,1/2-y,-z
1/2+x,1/2+y,-z
1/2-x,1/2+y,1/2+z
1/2+x,1/2-y,1/2+z
loop_
_atom_site_type_symbol
_atom_site_label
_atom_site_fract_x
_atom_site_fract_y
_atom_site_fract_z
Si Si1 0.857982 0.640658 0.446602
Si Si2 0.924085 0.314519 0.849960
Si Si3 0.415647 0.505679 0.133148
Si Si4 0.556958 0.274760 0.706951
Si Si5 0.194582 0.049744 0.446672
Si Si6 0.184914 0.358154 0.732246
O O1 0.891433 0.603501 0.500000
O O2 0.920364 0.621204 0.404047
O O3 0.833526 0.796365 0.446398
O O4 0.784647 0.546648 0.435053
O O5 0.863134 0.389970 0.816106
O O6 0.010356 0.325612 0.829668
O O7 0.899019 0.156406 0.847806
O O8 0.500000 0.500000 0.109137
O O9 0.411870 0.406527 0.179096
O O10 0.352848 0.463347 0.092912
O O11 0.500000 0.320455 0.750000
O O12 0.629173 0.194334 0.725905
O O13 0.180187 0.986366 0.500000
O O14 0.221794 0.500000 0.750000
O O15 0.250000 0.250000 0.721042
#
# Coordination Sequence:
#
# PCOD8277885 Si02
#       6
#    16  16  16  16  16  16
#     4   8  14  26  45  74 108 141 182 232 281 323
#     4   9  19  32  55  79 110 149 184 228 278 325
#     4   9  17  28  48  75 105 150 191 226 277 330
#     4   9  20  37  52  73 108 147 188 225 274 327
#     4   8  14  23  39  68 110 148 182 230 278 326
#     4  11  26  39  57  84 110 144 185 229 279 329
#
# _framework density 20.109895999999999
#
# number of rings (size 3 to 8) (size 9 to 14) (size 15 to 20)
#    0.000    3.000    0.000    1.000    7.000   10.333 
#    0.000    2.500    0.000    0.000    0.000    3.500 
#    0.000    6.000    0.000    0.000    0.000    0.000 
#
# Total GULP energy -594875.469204 kJ/mol
# GULP energy per Si atom -12393.238942 kJ/mol
# Density = 2.006413 g / cm^3
# Si number density = 20.109896 Si / 1000 Ang^3
#
#
#
# Elastic Constant Matrix: (Units=GPa)
#
#
# Indices 1 2 3 4 5 6 
#
# 1 64.9125 8.2071 48.8944 0.0000 0.0000 0.0000
# 2 8.2071 36.5321 12.6822 0.0000 0.0000 0.0000
# 3 48.8944 12.6822 140.4434 0.0000 0.0000 0.0000
# 4 0.0000 0.0000 0.0000 6.8832 0.0000 0.0000
# 5 0.0000 0.0000 0.0000 0.0000 34.6395 0.0000
# 6 0.0000 0.0000 0.0000 0.0000 0.0000 19.8272
#
#
#
# Elastic Compliance Matrix: (Units=1/GPa)
#
#
# Indices 1 2 3 4 5 6 
#
# 1 0.021060 -0.002257 -0.007128 0.000000 0.000000 0.000000
# 2 -0.002257 0.028501 -0.001788 0.000000 0.000000 0.000000
# 3 -0.007128 -0.001788 0.009763 0.000000 0.000000 0.000000
# 4 0.000000 0.000000 0.000000 0.145282 0.000000 0.000000
# 5 0.000000 0.000000 0.000000 0.000000 0.028869 0.000000
# 6 0.000000 0.000000 0.000000 0.000000 0.000000 0.050436
#
#
# Mechanical properties :
#
#
# Convention : Reuss Voigt Hill
#
# Bulk Modulus (GPa) = 27.04274 42.38396 34.71335
# Shear Modulus (GPa) = 15.69457 23.74360 19.71909
#
# Velocity S-wave (km/s) = 2.79667 3.43985 3.13480
# Velocity P-wave (km/s) = 4.88929 6.07443 5.51379
#
# Compressibility (1/GPa) = 0.03697850
#
# Stress axis : x y z
#
# Youngs Moduli (GPa) = 47.48391 35.08668 102.42391
#
# Poissons Ratio (x) = 0.07918 0.73008
# Poissons Ratio (y) = 0.10716 0.18314
# Poissons Ratio (z) = 0.33847 0.06274
#
# Static dielectric constant tensor:
#      x y z
#    x 3.695120 0.000000 0.000000 
#    y 0.000000 3.154280 0.000000 
#    z 0.000000 0.000000 4.172630 
# 
# 
# High freq. dielectric constant tensor:
#      x y z
#    x 1.770760 0.000000 0.000000 
#    y 0.000000 1.735270 0.000000 
#    z 0.000000 0.000000 1.795170 
# 
# From -- ./inp_files/65219.got.cif
#   From: 2010.03.12/outbox.cif.g09.slc.cpg/sg66_33_cif.got.tgz:65219.got - 2010.04.10 21:57:39.
