data_PCOD8277369
_publ_section_title
;
Structure prediction by ZEFSAII (Michael W. Deem and Ramdas Pophale) SiO2 
 PCOD8277369
Probable space group: C C C M
;
_chemical_formula_sum "Si O2"
_cell_formula_units_Z 116
_cell_length_a 19.066162
_cell_length_b 12.364402
_cell_length_c 24.635584
_cell_angle_alpha 90.000000
_cell_angle_beta 90.000000
_cell_angle_gamma 90.000000
_cell_volume 5807.634245
_symmetry_space_group_name_H-M "C C C M"
_symmetry_group_IT_number 66
_symmetry_cell_setting 'orthorhombic'
loop_
_space_group_symop_operation_xyz
x,y,z
-x,-y,z
x,-y,1/2-z
-x,y,1/2-z
-x,-y,-z
x,y,-z
-x,y,1/2+z
x,-y,1/2+z
1/2+x,1/2+y,z
1/2-x,1/2-y,z
1/2+x,1/2-y,1/2-z
1/2-x,1/2+y,1/2-z
1/2-x,1/2-y,-z
1/2+x,1/2+y,-z
1/2-x,1/2+y,1/2+z
1/2+x,1/2-y,1/2+z
loop_
_atom_site_type_symbol
_atom_site_label
_atom_site_fract_x
_atom_site_fract_y
_atom_site_fract_z
Si Si1 0.569438 0.380423 0.349144
Si Si2 0.325196 0.793010 0.325620
Si Si3 0.318811 0.965419 0.136472
Si Si4 0.059652 0.575807 0.936713
Si Si5 0.670542 0.237376 0.200350
Si Si6 0.457506 0.324299 0.562569
Si Si7 0.341767 0.421317 0.623909
Si Si8 0.000000 0.000000 0.750000
O O1 0.607144 0.262767 0.353393
O O2 0.508709 0.384980 0.394839
O O3 0.631912 0.459825 0.364312
O O4 0.542612 0.417449 0.289483
O O5 0.250000 0.750000 0.346922
O O6 0.337862 0.758932 0.263962
O O7 0.323709 0.921007 0.332828
O O8 0.365120 0.966483 0.082740
O O9 0.354520 0.877966 0.176945
O O10 0.241432 0.931312 0.117356
O O11 0.043993 0.699037 0.921351
O O12 0.000000 0.500000 0.910076
O O13 0.061255 0.558721 0.000000
O O14 0.750000 0.250000 0.182105
O O15 0.632557 0.340704 0.172794
O O16 0.481655 0.342117 0.500000
O O17 0.379142 0.373887 0.569769
#
# Coordination Sequence:
#
# PCOD8277369 Si02
#       8
#    16  16  16  16  16  16  16   4
#     4  12  24  40  63  93 131 171 212 260 316 386
#     4  11  22  38  60  90 127 167 206 253 319 384
#     4  11  21  39  65  91 125 163 208 264 317 382
#     4  10  22  41  65  90 122 166 212 260 318 380
#     4   9  20  35  59  90 123 160 203 254 309 374
#     4  11  24  43  66  92 127 171 217 269 324 376
#     4  11  21  40  62  93 128 160 211 264 316 378
#     4  12  24  40  66  92 130 176 214 262 312 382
#
# _framework density 19.973710000000001
#
# number of rings (size 3 to 8) (size 9 to 14) (size 15 to 20)
#    0.000    1.241    4.138    2.069    0.000    1.655 
#    0.000    1.379    0.000    1.655    0.000    0.000 
#    0.000    0.000    0.000    0.000    0.000    0.000 
#
# Total GULP energy -718854.812180 kJ/mol
# GULP energy per Si atom -12394.048486 kJ/mol
# Density = 1.992825 g / cm^3
# Si number density = 19.973710 Si / 1000 Ang^3
#
#
#
# Elastic Constant Matrix: (Units=GPa)
#
#
# Indices 1 2 3 4 5 6 
#
# 1 108.4585 33.9429 43.7847 0.0000 0.0000 0.0000
# 2 33.9429 111.1617 29.1486 0.0000 0.0000 0.0000
# 3 43.7847 29.1486 67.0179 0.0000 0.0000 0.0000
# 4 0.0000 0.0000 0.0000 27.9713 0.0000 0.0000
# 5 0.0000 0.0000 0.0000 0.0000 24.8547 0.0000
# 6 0.0000 0.0000 0.0000 0.0000 0.0000 33.8294
#
#
#
# Elastic Compliance Matrix: (Units=1/GPa)
#
#
# Indices 1 2 3 4 5 6 
#
# 1 0.012887 -0.001950 -0.007571 0.000000 0.000000 0.000000
# 2 -0.001950 0.010449 -0.003271 0.000000 0.000000 0.000000
# 3 -0.007571 -0.003271 0.021291 0.000000 0.000000 0.000000
# 4 0.000000 0.000000 0.000000 0.035751 0.000000 0.000000
# 5 0.000000 0.000000 0.000000 0.000000 0.040234 0.000000
# 6 0.000000 0.000000 0.000000 0.000000 0.000000 0.029560
#
#
# Mechanical properties :
#
#
# Convention : Reuss Voigt Hill
#
# Bulk Modulus (GPa) = 52.51382 55.59896 54.05639
# Shear Modulus (GPa) = 27.45705 29.31519 28.38612
#
# Velocity S-wave (km/s) = 3.71166 3.83520 3.77394
# Velocity P-wave (km/s) = 6.68709 6.89262 6.79063
#
# Compressibility (1/GPa) = 0.01904261
#
# Stress axis : x y z
#
# Youngs Moduli (GPa) = 77.59862 95.70385 46.96900
#
# Poissons Ratio (x) = 0.18658 0.35562
# Poissons Ratio (y) = 0.15129 0.15363
# Poissons Ratio (z) = 0.58753 0.31304
#
# Static dielectric constant tensor:
#      x y z
#    x 3.686160 0.000000 0.000000 
#    y 0.000000 3.901790 0.000000 
#    z 0.000000 0.000000 3.394860 
# 
# 
# High freq. dielectric constant tensor:
#      x y z
#    x 1.777420 0.000000 0.000000 
#    y 0.000000 1.799300 0.000000 
#    z 0.000000 0.000000 1.759940 
# 
# From -- ./inp_files/65342.got.cif
#   From: 2010.03.12/outbox.cif.g09.slc.cpg/sg66_33_cif.got.tgz:65342.got - 2010.04.10 21:57:39.
