data_PCOD8277412
_publ_section_title
;
Structure prediction by ZEFSAII (Michael W. Deem and Ramdas Pophale) SiO2 
 PCOD8277412
Probable space group: C C C M
;
_chemical_formula_sum "Si O2"
_cell_formula_units_Z 112
_cell_length_a 11.891152
_cell_length_b 28.634289
_cell_length_c 14.274820
_cell_angle_alpha 90.000000
_cell_angle_beta 90.000000
_cell_angle_gamma 90.000000
_cell_volume 4860.500310
_symmetry_space_group_name_H-M "C C C M"
_symmetry_group_IT_number 66
_symmetry_cell_setting 'orthorhombic'
loop_
_space_group_symop_operation_xyz
x,y,z
-x,-y,z
x,-y,1/2-z
-x,y,1/2-z
-x,-y,-z
x,y,-z
-x,y,1/2+z
x,-y,1/2+z
1/2+x,1/2+y,z
1/2-x,1/2-y,z
1/2+x,1/2-y,1/2-z
1/2-x,1/2+y,1/2-z
1/2-x,1/2-y,-z
1/2+x,1/2+y,-z
1/2-x,1/2+y,1/2+z
1/2+x,1/2-y,1/2+z
loop_
_atom_site_type_symbol
_atom_site_label
_atom_site_fract_x
_atom_site_fract_y
_atom_site_fract_z
Si Si1 0.670243 0.601399 0.599677
Si Si2 0.178837 0.685601 0.101663
Si Si3 0.759257 0.801487 0.201072
Si Si4 0.576754 0.371076 0.390638
Si Si5 0.692827 0.547495 0.216803
Si Si6 0.440839 0.954880 0.651942
Si Si7 0.560018 0.850423 0.103500
O O1 0.649667 0.573782 0.500000
O O2 0.771052 0.635708 0.579654
O O3 0.556563 0.629736 0.625766
O O4 0.715831 0.571804 0.684707
O O5 0.251968 0.707622 0.186472
O O6 0.050490 0.677877 0.134870
O O7 0.183283 0.713210 0.000000
O O8 0.750000 0.750000 0.153661
O O9 0.872928 0.827394 0.168150
O O10 0.659258 0.836640 0.173709
O O11 0.610256 0.366036 0.500000
O O12 0.618408 0.421144 0.352238
O O13 0.629684 0.500000 0.250000
O O14 0.808701 0.534762 0.164881
O O15 0.500000 0.947846 0.750000
O O16 0.457657 0.906276 0.597997
O O17 0.500000 0.000000 0.601017
O O18 0.595416 0.834009 0.000000
#
# Coordination Sequence:
#
# PCOD8277412 Si02
#       7
#    16  16  16  16  16  16  16
#     4  10  22  43  69  96 131 179 230 279 339 412
#     4  10  22  43  69  98 131 172 221 284 348 409
#     4  12  25  44  73 102 138 183 233 291 352 422
#     4  11  25  45  68  97 137 183 234 290 345 415
#     4  12  23  39  66  98 132 179 227 282 342 412
#     4  11  21  37  63  95 135 176 225 280 342 411
#     4  11  23  42  68  98 137 180 227 282 351 420
#
# _framework density 23.042895999999999
#
# number of rings (size 3 to 8) (size 9 to 14) (size 15 to 20)
#    0.000    1.000    4.286    3.000    0.000    3.429 
#    5.143    1.429    0.000    0.429    0.000    0.000 
#    0.000    0.000    0.000    0.000    0.000    0.000 
#
# Total GULP energy -693753.851521 kJ/mol
# GULP energy per Si atom -12388.461634 kJ/mol
# Density = 2.299045 g / cm^3
# Si number density = 23.042896 Si / 1000 Ang^3
#
#
#
# Elastic Constant Matrix: (Units=GPa)
#
#
# Indices 1 2 3 4 5 6 
#
# 1 57.1417 0.1950 10.9613 0.0000 0.0000 0.0000
# 2 0.1950 104.6749 13.4701 0.0000 0.0000 0.0000
# 3 10.9613 13.4701 96.9509 0.0000 0.0000 0.0000
# 4 0.0000 0.0000 0.0000 4.5702 0.0000 0.0000
# 5 0.0000 0.0000 0.0000 0.0000 38.6512 0.0000
# 6 0.0000 0.0000 0.0000 0.0000 0.0000 10.6255
#
#
#
# Elastic Compliance Matrix: (Units=1/GPa)
#
#
# Indices 1 2 3 4 5 6 
#
# 1 0.017894 0.000231 -0.002055 0.000000 0.000000 0.000000
# 2 0.000231 0.009730 -0.001378 0.000000 0.000000 0.000000
# 3 -0.002055 -0.001378 0.010738 0.000000 0.000000 0.000000
# 4 0.000000 0.000000 0.000000 0.218807 0.000000 0.000000
# 5 0.000000 0.000000 0.000000 0.000000 0.025872 0.000000
# 6 0.000000 0.000000 0.000000 0.000000 0.000000 0.094113
#
#
# Mechanical properties :
#
#
# Convention : Reuss Voigt Hill
#
# Bulk Modulus (GPa) = 31.29087 34.22450 32.75768
# Shear Modulus (GPa) = 12.68353 26.37878 19.53116
#
# Velocity S-wave (km/s) = 2.34867 3.38711 2.91452
# Velocity P-wave (km/s) = 4.57863 5.49377 5.05694
#
# Compressibility (1/GPa) = 0.03195821
#
# Stress axis : x y z
#
# Youngs Moduli (GPa) = 55.88530 102.77189 93.12445
#
# Poissons Ratio (x) = -0.02375 0.19139
# Poissons Ratio (y) = -0.01292 0.12833
# Poissons Ratio (z) = 0.11486 0.14162
#
# Static dielectric constant tensor:
#      x y z
#    x 4.112830 0.000000 0.000000 
#    y 0.000000 4.175330 0.000000 
#    z 0.000000 0.000000 5.918330 
# 
# 
# High freq. dielectric constant tensor:
#      x y z
#    x 1.910350 0.000000 0.000000 
#    y 0.000000 1.890170 0.000000 
#    z 0.000000 0.000000 1.924240 
# 
# From -- ./inp_files/26999.got.cif
#   From: 2010.03.12/outbox.cif.g09.slc.cpg/sg66_14_cif.got.tgz:26999.got - 2010.04.10 21:57:39.
