data_PCOD8277514
_publ_section_title
;
Structure prediction by ZEFSAII (Michael W. Deem and Ramdas Pophale) SiO2 
 PCOD8277514
Probable space group: C C C M
;
_chemical_formula_sum "Si O2"
_cell_formula_units_Z 56
_cell_length_a 9.489019
_cell_length_b 9.787356
_cell_length_c 25.954478
_cell_angle_alpha 90.000000
_cell_angle_beta 90.000000
_cell_angle_gamma 90.000000
_cell_volume 2410.454845
_symmetry_space_group_name_H-M "C C C M"
_symmetry_group_IT_number 66
_symmetry_cell_setting 'orthorhombic'
loop_
_space_group_symop_operation_xyz
x,y,z
-x,-y,z
x,-y,1/2-z
-x,y,1/2-z
-x,-y,-z
x,y,-z
-x,y,1/2+z
x,-y,1/2+z
1/2+x,1/2+y,z
1/2-x,1/2-y,z
1/2+x,1/2-y,1/2-z
1/2-x,1/2+y,1/2-z
1/2-x,1/2-y,-z
1/2+x,1/2+y,-z
1/2-x,1/2+y,1/2+z
1/2+x,1/2-y,1/2+z
loop_
_atom_site_type_symbol
_atom_site_label
_atom_site_fract_x
_atom_site_fract_y
_atom_site_fract_z
Si Si1 0.000000 0.000000 0.750000
Si Si2 0.753786 0.043334 0.682240
Si Si3 0.472219 0.155276 0.557335
Si Si4 0.000000 0.500000 0.750000
Si Si5 0.250000 0.250000 0.362834
Si Si6 0.250000 0.250000 0.907303
O O1 0.107306 0.090185 0.785411
O O2 0.608505 0.083769 0.712700
O O3 0.766061 0.880217 0.674201
O O4 0.756886 0.115259 0.627581
O O5 0.403894 0.159169 0.500000
O O6 0.382092 0.232353 0.599808
O O7 0.617423 0.238907 0.555237
O O8 0.500000 0.000000 0.574860
#
# Coordination Sequence:
#
# PCOD8277514 Si02
#       6
#     4  16  16   4   8   8
#     4  10  24  40  56 100 126 172 220 280 316 392
#     4  11  24  40  67  92 138 170 223 270 332 383
#     4  11  24  44  69 100 137 173 219 277 335 396
#     4  10  24  44  64 100 130 184 212 276 328 396
#     4  12  23  45  68 100 130 182 216 277 327 404
#     4  12  23  45  68 100 130 182 216 277 327 404
#
# _framework density 23.232129
#
# number of rings (size 3 to 8) (size 9 to 14) (size 15 to 20)
#    0.000    0.857    2.857    4.286    0.000    6.857 
#    0.000    1.429    0.000    0.000    0.000    0.000 
#    0.000    0.000    0.000    0.000    0.000    0.000 
#
# Total GULP energy -347020.411314 kJ/mol
# GULP energy per Si atom -12393.586118 kJ/mol
# Density = 2.317925 g / cm^3
# Si number density = 23.232129 Si / 1000 Ang^3
#
#
#
# Elastic Constant Matrix: (Units=GPa)
#
#
# Indices 1 2 3 4 5 6 
#
# 1 162.9393 16.1436 30.2152 0.0000 0.0000 0.0000
# 2 16.1436 112.1898 27.4703 0.0000 0.0000 0.0000
# 3 30.2152 27.4703 88.7540 0.0000 0.0000 0.0000
# 4 0.0000 0.0000 0.0000 21.6505 0.0000 0.0000
# 5 0.0000 0.0000 0.0000 0.0000 311.4992 0.0000
# 6 0.0000 0.0000 0.0000 0.0000 0.0000 19.9246
#
#
#
# Elastic Compliance Matrix: (Units=1/GPa)
#
#
# Indices 1 2 3 4 5 6 
#
# 1 0.006570 -0.000430 -0.002103 0.000000 0.000000 0.000000
# 2 -0.000430 0.009673 -0.002847 0.000000 0.000000 0.000000
# 3 -0.002103 -0.002847 0.012864 0.000000 0.000000 0.000000
# 4 0.000000 0.000000 0.000000 0.046188 0.000000 0.000000
# 5 0.000000 0.000000 0.000000 0.000000 0.003210 0.000000
# 6 0.000000 0.000000 0.000000 0.000000 0.000000 0.050189
#
#
# Mechanical properties :
#
#
# Convention : Reuss Voigt Hill
#
# Bulk Modulus (GPa) = 54.51123 56.83792 55.67457
# Shear Modulus (GPa) = 34.34732 89.95180 62.14956
#
# Velocity S-wave (km/s) = 3.84922 6.22919 5.17780
# Velocity P-wave (km/s) = 6.57799 8.73243 7.73063
#
# Compressibility (1/GPa) = 0.01834484
#
# Stress axis : x y z
#
# Youngs Moduli (GPa) = 152.20809 103.38523 77.73361
#
# Poissons Ratio (x) = 0.04449 0.16351
# Poissons Ratio (y) = 0.06550 0.22133
# Poissons Ratio (z) = 0.32016 0.29436
#
# Static dielectric constant tensor:
#      x y z
#    x 5.403940 0.000000 0.000000 
#    y 0.000000 3.842580 0.000000 
#    z 0.000000 0.000000 4.128550 
# 
# 
# High freq. dielectric constant tensor:
#      x y z
#    x 1.931620 0.000000 0.000000 
#    y 0.000000 1.887050 0.000000 
#    z 0.000000 0.000000 1.937180 
# 
# From -- ./inp_files/62027.got.cif
#   From: 2010.03.12/outbox.cif.g09.slc.cpg/sg66_32_cif.got.tgz:62027.got - 2010.04.10 21:57:39.
