data_PCOD8277452
_publ_section_title
;
Structure prediction by ZEFSAII (Michael W. Deem and Ramdas Pophale) SiO2 
 PCOD8277452
Probable space group: C C C M
;
_chemical_formula_sum "Si O2"
_cell_formula_units_Z 112
_cell_length_a 16.979979
_cell_length_b 10.243653
_cell_length_c 31.102450
_cell_angle_alpha 90.000000
_cell_angle_beta 90.000000
_cell_angle_gamma 90.000000
_cell_volume 5409.867244
_symmetry_space_group_name_H-M "C C C M"
_symmetry_group_IT_number 66
_symmetry_cell_setting 'orthorhombic'
loop_
_space_group_symop_operation_xyz
x,y,z
-x,-y,z
x,-y,1/2-z
-x,y,1/2-z
-x,-y,-z
x,y,-z
-x,y,1/2+z
x,-y,1/2+z
1/2+x,1/2+y,z
1/2-x,1/2-y,z
1/2+x,1/2-y,1/2-z
1/2-x,1/2+y,1/2-z
1/2-x,1/2-y,-z
1/2+x,1/2+y,-z
1/2-x,1/2+y,1/2+z
1/2+x,1/2-y,1/2+z
loop_
_atom_site_type_symbol
_atom_site_label
_atom_site_fract_x
_atom_site_fract_y
_atom_site_fract_z
Si Si1 0.423403 0.228639 0.626386
Si Si2 0.236566 0.402285 0.950029
Si Si3 0.316118 0.471005 0.371229
Si Si4 0.664461 0.940623 0.314497
Si Si5 0.163561 0.293811 0.770531
Si Si6 0.084064 0.436936 0.546818
Si Si7 0.553499 0.379866 0.676718
O O1 0.351291 0.327408 0.628835
O O2 0.401405 0.095948 0.651094
O O3 0.427375 0.188751 0.576828
O O4 0.503006 0.282216 0.647286
O O5 0.250000 0.250000 0.938281
O O6 0.291964 0.488787 0.919381
O O7 0.147845 0.451887 0.939528
O O8 0.259211 0.425836 0.000000
O O9 0.247246 0.467270 0.336661
O O10 0.379882 0.574654 0.355844
O O11 0.668299 0.820717 0.280406
O O12 0.636578 0.073922 0.293179
O O13 0.250000 0.250000 0.786820
O O14 0.095773 0.187679 0.782010
O O15 0.108925 0.382462 0.500000
O O16 0.000000 0.500000 0.544485
O O17 0.500000 0.500000 0.693940
#
# Coordination Sequence:
#
# PCOD8277452 Si02
#       7
#    16  16  16  16  16  16  16
#     4  11  24  41  62  95 132 168 213 267 327 392
#     4  10  23  40  65  98 127 165 219 272 326 398
#     4  11  22  42  66  94 130 170 215 270 329 394
#     4  11  24  40  67  97 127 164 217 275 321 378
#     4  11  23  43  67  94 126 171 221 267 325 384
#     4  10  23  41  63  93 129 172 213 262 327 391
#     4  10  25  44  66  96 131 176 218 262 333 392
#
# _framework density 20.702911
#
# number of rings (size 3 to 8) (size 9 to 14) (size 15 to 20)
#    0.000    1.429    2.857    1.286    6.000    1.143 
#    0.000    6.429    0.000    2.571    0.000    0.000 
#    0.000    0.000    0.000    0.000    0.000    0.000 
#
# Total GULP energy -694209.421156 kJ/mol
# GULP energy per Si atom -12396.596806 kJ/mol
# Density = 2.065579 g / cm^3
# Si number density = 20.702911 Si / 1000 Ang^3
#
#
#
# Elastic Constant Matrix: (Units=GPa)
#
#
# Indices 1 2 3 4 5 6 
#
# 1 115.8178 41.2288 40.0815 0.0000 0.0000 0.0000
# 2 41.2288 81.6518 41.2799 0.0000 0.0000 0.0000
# 3 40.0815 41.2799 96.9085 0.0000 0.0000 0.0000
# 4 0.0000 0.0000 0.0000 37.7360 0.0000 0.0000
# 5 0.0000 0.0000 0.0000 0.0000 19.1687 0.0000
# 6 0.0000 0.0000 0.0000 0.0000 0.0000 26.5790
#
#
#
# Elastic Compliance Matrix: (Units=1/GPa)
#
#
# Indices 1 2 3 4 5 6 
#
# 1 0.011095 -0.004183 -0.002807 0.000000 0.000000 0.000000
# 2 -0.004183 0.017186 -0.005590 0.000000 0.000000 0.000000
# 3 -0.002807 -0.005590 0.013861 0.000000 0.000000 0.000000
# 4 0.000000 0.000000 0.000000 0.026500 0.000000 0.000000
# 5 0.000000 0.000000 0.000000 0.000000 0.052168 0.000000
# 6 0.000000 0.000000 0.000000 0.000000 0.000000 0.037624
#
#
# Mechanical properties :
#
#
# Convention : Reuss Voigt Hill
#
# Bulk Modulus (GPa) = 58.88990 59.95094 59.42042
# Shear Modulus (GPa) = 26.41942 28.14926 27.28434
#
# Velocity S-wave (km/s) = 3.57616 3.69138 3.63423
# Velocity P-wave (km/s) = 6.74973 6.86942 6.80984
#
# Compressibility (1/GPa) = 0.01698084
#
# Stress axis : x y z
#
# Youngs Moduli (GPa) = 90.13278 58.18835 72.14325
#
# Poissons Ratio (x) = 0.24340 0.20250
# Poissons Ratio (y) = 0.37703 0.40331
# Poissons Ratio (z) = 0.25300 0.32530
#
# Static dielectric constant tensor:
#      x y z
#    x 3.792770 0.000000 0.000000 
#    y 0.000000 4.003000 0.000000 
#    z 0.000000 0.000000 4.123070 
# 
# 
# High freq. dielectric constant tensor:
#      x y z
#    x 1.814220 0.000000 0.000000 
#    y 0.000000 1.812150 0.000000 
#    z 0.000000 0.000000 1.816610 
# 
# From -- ./inp_files/69546.got.cif
#   From: 2010.03.12/outbox.cif.g09.slc.cpg/sg66_35_cif.got.tgz:69546.got - 2010.04.10 21:57:39.
