data_PCOD8277200
_publ_section_title
;
Structure prediction by ZEFSAII (Michael W. Deem and Ramdas Pophale) SiO2 
 PCOD8277200
Probable space group: C C C M
;
_chemical_formula_sum "Si O2"
_cell_formula_units_Z 112
_cell_length_a 11.441336
_cell_length_b 14.434989
_cell_length_c 31.044633
_cell_angle_alpha 90.000000
_cell_angle_beta 90.000000
_cell_angle_gamma 90.000000
_cell_volume 5127.193727
_symmetry_space_group_name_H-M "C C C M"
_symmetry_group_IT_number 66
_symmetry_cell_setting 'orthorhombic'
loop_
_space_group_symop_operation_xyz
x,y,z
-x,-y,z
x,-y,1/2-z
-x,y,1/2-z
-x,-y,-z
x,y,-z
-x,y,1/2+z
x,-y,1/2+z
1/2+x,1/2+y,z
1/2-x,1/2-y,z
1/2+x,1/2-y,1/2-z
1/2-x,1/2+y,1/2-z
1/2-x,1/2-y,-z
1/2+x,1/2+y,-z
1/2-x,1/2+y,1/2+z
1/2+x,1/2-y,1/2+z
loop_
_atom_site_type_symbol
_atom_site_label
_atom_site_fract_x
_atom_site_fract_y
_atom_site_fract_z
Si Si1 0.282910 0.899152 0.550239
Si Si2 0.115030 0.559857 0.097668
Si Si3 0.492378 0.780190 0.949840
Si Si4 0.477041 0.660029 0.314502
Si Si5 0.847474 0.683366 0.324886
Si Si6 0.544120 0.602867 0.909366
Si Si7 0.315364 0.604079 0.241147
O O1 0.294509 0.923814 0.500000
O O2 0.379618 0.822339 0.562359
O O3 0.155090 0.863534 0.562273
O O4 0.286307 0.993136 0.578605
O O5 0.143466 0.591974 0.146066
O O6 0.000000 0.500000 0.098541
O O7 0.103779 0.646574 0.065748
O O8 0.457889 0.685358 0.924520
O O9 0.479332 0.762421 0.000000
O O10 0.526643 0.765136 0.320791
O O11 0.434903 0.612338 0.358497
O O12 0.364685 0.658934 0.282905
O O13 0.582600 0.599418 0.294867
O O14 0.750000 0.750000 0.346493
O O15 0.799387 0.655847 0.277322
O O16 0.500000 0.500000 0.921547
O O17 0.276855 0.500000 0.250000
#
# Coordination Sequence:
#
# PCOD8277200 Si02
#       7
#    16  16  16  16  16  16  16
#     4  10  23  40  62  92 127 167 218 261 309 373
#     4  10  21  40  65  94 123 164 214 263 317 371
#     4  10  21  42  64  89 128 173 209 259 320 372
#     4  10  21  41  62  92 125 162 207 247 313 380
#     4  10  22  40  65  91 127 164 202 256 318 376
#     4  12  24  37  63  95 128 167 209 264 306 371
#     4  10  21  40  67  91 116 162 205 252 310 377
#
# _framework density 21.844308000000002
#
# number of rings (size 3 to 8) (size 9 to 14) (size 15 to 20)
#    0.000    1.714    1.429    3.000    6.000    4.000 
#    0.000   14.286    0.000    2.571    0.000    0.000 
#    0.000    0.000    0.000    0.000    0.000    0.000 
#
# Total GULP energy -694162.077003 kJ/mol
# GULP energy per Si atom -12395.751375 kJ/mol
# Density = 2.179459 g / cm^3
# Si number density = 21.844308 Si / 1000 Ang^3
#
#
#
# Elastic Constant Matrix: (Units=GPa)
#
#
# Indices 1 2 3 4 5 6 
#
# 1 26.5351 11.5201 8.8652 0.0000 0.0000 0.0000
# 2 11.5201 141.3401 52.5727 0.0000 0.0000 0.0000
# 3 8.8652 52.5727 108.7445 0.0000 0.0000 0.0000
# 4 0.0000 0.0000 0.0000 43.2347 0.0000 0.0000
# 5 0.0000 0.0000 0.0000 0.0000 30.1249 0.0000
# 6 0.0000 0.0000 0.0000 0.0000 0.0000 5.9180
#
#
#
# Elastic Compliance Matrix: (Units=1/GPa)
#
#
# Indices 1 2 3 4 5 6 
#
# 1 0.039431 -0.002461 -0.002025 0.000000 0.000000 0.000000
# 2 -0.002461 0.008780 -0.004044 0.000000 0.000000 0.000000
# 3 -0.002025 -0.004044 0.011316 0.000000 0.000000 0.000000
# 4 0.000000 0.000000 0.000000 0.023130 0.000000 0.000000
# 5 0.000000 0.000000 0.000000 0.000000 0.033195 0.000000
# 6 0.000000 0.000000 0.000000 0.000000 0.000000 0.168975
#
#
# Mechanical properties :
#
#
# Convention : Reuss Voigt Hill
#
# Bulk Modulus (GPa) = 23.54748 46.94842 35.24795
# Shear Modulus (GPa) = 15.82069 29.43297 22.62683
#
# Velocity S-wave (km/s) = 2.69410 3.67467 3.22191
# Velocity P-wave (km/s) = 4.52556 6.28834 5.47832
#
# Compressibility (1/GPa) = 0.04246740
#
# Stress axis : x y z
#
# Youngs Moduli (GPa) = 25.36094 113.89633 88.37006
#
# Poissons Ratio (x) = 0.28026 0.17894
# Poissons Ratio (y) = 0.06240 0.35737
# Poissons Ratio (z) = 0.05135 0.46060
#
# Static dielectric constant tensor:
#      x y z
#    x 3.741120 0.000000 0.000000 
#    y 0.000000 4.141480 0.000000 
#    z 0.000000 0.000000 3.901330 
# 
# 
# High freq. dielectric constant tensor:
#      x y z
#    x 1.831280 0.000000 0.000000 
#    y 0.000000 1.871520 0.000000 
#    z 0.000000 0.000000 1.859370 
# 
# From -- ./inp_files/69080.got.cif
#   From: 2010.03.12/outbox.cif.g09.slc.cpg/sg66_35_cif.got.tgz:69080.got - 2010.04.10 21:57:39.
