data_PCOD8277580
_publ_section_title
;
Structure prediction by ZEFSAII (Michael W. Deem and Ramdas Pophale) SiO2 
 PCOD8277580
Probable space group: C C C M
;
_chemical_formula_sum "Si O2"
_cell_formula_units_Z 116
_cell_length_a 17.926802
_cell_length_b 11.319833
_cell_length_c 30.740042
_cell_angle_alpha 90.000000
_cell_angle_beta 90.000000
_cell_angle_gamma 90.000000
_cell_volume 6238.027689
_symmetry_space_group_name_H-M "C C C M"
_symmetry_group_IT_number 66
_symmetry_cell_setting 'orthorhombic'
loop_
_space_group_symop_operation_xyz
x,y,z
-x,-y,z
x,-y,1/2-z
-x,y,1/2-z
-x,-y,-z
x,y,-z
-x,y,1/2+z
x,-y,1/2+z
1/2+x,1/2+y,z
1/2-x,1/2-y,z
1/2+x,1/2-y,1/2-z
1/2-x,1/2+y,1/2-z
1/2-x,1/2-y,-z
1/2+x,1/2+y,-z
1/2-x,1/2+y,1/2+z
1/2+x,1/2-y,1/2+z
loop_
_atom_site_type_symbol
_atom_site_label
_atom_site_fract_x
_atom_site_fract_y
_atom_site_fract_z
Si Si1 0.573836 0.169162 0.816673
Si Si2 0.666216 0.019406 0.634678
Si Si3 0.186029 0.164825 0.282582
Si Si4 0.500000 0.000000 0.750000
Si Si5 0.130206 0.801198 0.452241
Si Si6 0.072238 0.253105 0.135887
Si Si7 0.774371 0.435401 0.547564
Si Si8 0.191347 0.089354 0.814821
O O1 0.607711 0.270640 0.786728
O O2 0.510496 0.234782 0.844853
O O3 0.636863 0.103257 0.845462
O O4 0.550025 0.076073 0.781236
O O5 0.598939 0.111880 0.634581
O O6 0.694937 0.982740 0.586424
O O7 0.731322 0.093915 0.658875
O O8 0.250000 0.250000 0.302242
O O9 0.206763 0.138725 0.232997
O O10 0.173327 0.049051 0.311751
O O11 0.091007 0.809028 0.500000
O O12 0.069033 0.798240 0.413579
O O13 0.181091 0.686233 0.449536
O O14 0.186052 0.912010 0.445872
O O15 0.124944 0.164605 0.163364
O O16 0.787799 0.494548 0.500000
#
# Coordination Sequence:
#
# PCOD8277580 Si02
#       8
#    16  16  16   4  16  16  16  16
#     4  12  25  38  56  81 116 153 187 235 292 345
#     4  11  19  35  57  86 114 148 191 233 286 344
#     4  11  24  39  56  81 110 145 197 242 282 331
#     4  12  24  40  56  82 110 152 178 228 290 340
#     4   8  14  26  49  81 114 145 179 230 284 337
#     4  11  20  36  55  85 117 150 187 229 287 350
#     4   8  14  26  49  82 115 142 180 234 284 332
#     4  11  23  37  59  81 108 153 194 239 279 331
#
# _framework density 18.59562
#
# number of rings (size 3 to 8) (size 9 to 14) (size 15 to 20)
#    0.000    1.655    4.138    2.897    1.931    0.552 
#    0.000    2.069    0.000    3.310    0.000    5.793 
#    0.000    0.000    0.000    0.000    0.000    0.000 
#
# Total GULP energy -718619.416170 kJ/mol
# GULP energy per Si atom -12389.989934 kJ/mol
# Density = 1.855330 g / cm^3
# Si number density = 18.595620 Si / 1000 Ang^3
#
#
#
# Elastic Constant Matrix: (Units=GPa)
#
#
# Indices 1 2 3 4 5 6 
#
# 1 85.9886 27.5802 45.3682 0.0000 0.0000 0.0000
# 2 27.5802 71.0241 26.1757 0.0000 0.0000 0.0000
# 3 45.3682 26.1757 125.2502 0.0000 0.0000 0.0000
# 4 0.0000 0.0000 0.0000 16.4001 0.0000 0.0000
# 5 0.0000 0.0000 0.0000 0.0000 31.5860 0.0000
# 6 0.0000 0.0000 0.0000 0.0000 0.0000 38.0010
#
#
#
# Elastic Compliance Matrix: (Units=1/GPa)
#
#
# Indices 1 2 3 4 5 6 
#
# 1 0.015490 -0.004277 -0.004717 0.000000 0.000000 0.000000
# 2 -0.004277 0.016435 -0.001886 0.000000 0.000000 0.000000
# 3 -0.004717 -0.001886 0.010087 0.000000 0.000000 0.000000
# 4 0.000000 0.000000 0.000000 0.060975 0.000000 0.000000
# 5 0.000000 0.000000 0.000000 0.000000 0.031660 0.000000
# 6 0.000000 0.000000 0.000000 0.000000 0.000000 0.026315
#
#
# Mechanical properties :
#
#
# Convention : Reuss Voigt Hill
#
# Bulk Modulus (GPa) = 49.37459 53.39011 51.38235
# Shear Modulus (GPa) = 26.38919 29.40668 27.89793
#
# Velocity S-wave (km/s) = 3.77119 3.98097 3.87750
# Velocity P-wave (km/s) = 6.75069 7.06429 6.90927
#
# Compressibility (1/GPa) = 0.02025333
#
# Stress axis : x y z
#
# Youngs Moduli (GPa) = 64.55832 60.84423 99.14042
#
# Poissons Ratio (x) = 0.26021 0.46764
# Poissons Ratio (y) = 0.27609 0.18695
# Poissons Ratio (z) = 0.30452 0.11473
#
# Static dielectric constant tensor:
#      x y z
#    x 3.237670 0.000000 0.000000 
#    y 0.000000 2.798670 0.000000 
#    z 0.000000 0.000000 3.734710 
# 
# 
# High freq. dielectric constant tensor:
#      x y z
#    x 1.699910 0.000000 0.000000 
#    y 0.000000 1.697550 0.000000 
#    z 0.000000 0.000000 1.733770 
# 
# From -- ./inp_files/70009.got.cif
#   From: 2010.03.12/outbox.cif.g09.slc.cpg/sg66_36_cif.got.tgz:70009.got - 2010.04.10 21:57:39.
