data_PCOD8277925
_publ_section_title
;
Structure prediction by ZEFSAII (Michael W. Deem and Ramdas Pophale) SiO2 
 PCOD8277925
Probable space group: C C C M
;
_chemical_formula_sum "Si O2"
_cell_formula_units_Z 52
_cell_length_a 10.472526
_cell_length_b 30.050837
_cell_length_c 9.891082
_cell_angle_alpha 90.000000
_cell_angle_beta 90.000000
_cell_angle_gamma 90.000000
_cell_volume 3112.804333
_symmetry_space_group_name_H-M "C C C M"
_symmetry_group_IT_number 66
_symmetry_cell_setting 'orthorhombic'
loop_
_space_group_symop_operation_xyz
x,y,z
-x,-y,z
x,-y,1/2-z
-x,y,1/2-z
-x,-y,-z
x,y,-z
-x,y,1/2+z
x,-y,1/2+z
1/2+x,1/2+y,z
1/2-x,1/2-y,z
1/2+x,1/2-y,1/2-z
1/2-x,1/2+y,1/2-z
1/2-x,1/2-y,-z
1/2+x,1/2+y,-z
1/2-x,1/2+y,1/2+z
1/2+x,1/2-y,1/2+z
loop_
_atom_site_type_symbol
_atom_site_label
_atom_site_fract_x
_atom_site_fract_y
_atom_site_fract_z
Si Si1 0.000000 0.000000 0.250000
Si Si2 0.377477 0.776358 0.658010
Si Si3 0.886396 0.377831 0.345812
Si Si4 0.257419 0.463730 0.850289
O O1 0.088832 0.968356 0.342607
O O2 0.500000 0.762370 0.750000
O O3 0.410970 0.767537 0.500000
O O4 0.250000 0.750000 0.701888
O O5 0.341420 0.827758 0.685293
O O6 0.933553 0.381479 0.500000
O O7 0.773444 0.412605 0.313539
O O8 0.000000 0.392558 0.250000
O O9 0.191656 0.500000 0.750000
O O10 0.208199 0.475169 0.000000
#
# Coordination Sequence:
#
# PCOD8277925 Si02
#       4
#     4  16  16  16
#     4   8  18  32  48  60  94 124 158 194 238 280
#     4   9  18  34  54  75 102 133 166 207 252 298
#     4   9  18  33  50  70  96 126 160 196 239 285
#     4   9  18  31  48  67  92 124 157 195 234 280
#
# _framework density 16.705193999999999
#
# number of rings (size 3 to 8) (size 9 to 14) (size 15 to 20)
#    0.923    2.154    0.000    0.462    0.000    2.462 
#    2.769    3.077    0.000    0.000    0.000    0.000 
#    0.000    0.000    0.000    0.000    0.000    0.000 
#
# Total GULP energy -322095.412498 kJ/mol
# GULP energy per Si atom -12388.285096 kJ/mol
# Density = 1.666717 g / cm^3
# Si number density = 16.705194 Si / 1000 Ang^3
#
#
#
# Elastic Constant Matrix: (Units=GPa)
#
#
# Indices 1 2 3 4 5 6 
#
# 1 111.8856 72.4241 52.0066 0.0000 0.0000 0.0000
# 2 72.4241 105.3959 54.1079 0.0000 0.0000 0.0000
# 3 52.0066 54.1079 76.7219 0.0000 0.0000 0.0000
# 4 0.0000 0.0000 0.0000 24.6485 0.0000 0.0000
# 5 0.0000 0.0000 0.0000 0.0000 26.5017 0.0000
# 6 0.0000 0.0000 0.0000 0.0000 0.0000 37.1090
#
#
#
# Elastic Compliance Matrix: (Units=1/GPa)
#
#
# Indices 1 2 3 4 5 6 
#
# 1 0.017353 -0.009226 -0.005256 0.000000 0.000000 0.000000
# 2 -0.009226 0.019778 -0.007695 0.000000 0.000000 0.000000
# 3 -0.005256 -0.007695 0.022024 0.000000 0.000000 0.000000
# 4 0.000000 0.000000 0.000000 0.040570 0.000000 0.000000
# 5 0.000000 0.000000 0.000000 0.000000 0.037733 0.000000
# 6 0.000000 0.000000 0.000000 0.000000 0.000000 0.026948
#
#
# Mechanical properties :
#
#
# Convention : Reuss Voigt Hill
#
# Bulk Modulus (GPa) = 67.56229 72.34229 69.95229
# Shear Modulus (GPa) = 23.39811 25.34950 24.37380
#
# Velocity S-wave (km/s) = 3.74658 3.89969 3.82390
# Velocity P-wave (km/s) = 7.69724 7.97973 7.83976
#
# Compressibility (1/GPa) = 0.01480116
#
# Stress axis : x y z
#
# Youngs Moduli (GPa) = 57.62759 50.56178 45.40567
#
# Poissons Ratio (x) = 0.46647 0.23867
# Poissons Ratio (y) = 0.53166 0.34937
# Poissons Ratio (z) = 0.30291 0.38905
#
# Static dielectric constant tensor:
#      x y z
#    x 2.942010 0.000000 0.000000 
#    y 0.000000 3.159970 0.000000 
#    z 0.000000 0.000000 3.183270 
# 
# 
# High freq. dielectric constant tensor:
#      x y z
#    x 1.620840 0.000000 0.000000 
#    y 0.000000 1.643530 0.000000 
#    z 0.000000 0.000000 1.648030 
# 
# From -- ./inp_files/3649.got.cif
#   From: 2010.03.12/outbox.cif.g09.slc.cpg/sg66_2_cif.got.tgz:3649.got - 2010.04.10 21:57:39.
