data_PCOD8277690
_publ_section_title
;
Structure prediction by ZEFSAII (Michael W. Deem and Ramdas Pophale) SiO2 
 PCOD8277690
Probable space group: C C C M
;
_chemical_formula_sum "Si O2"
_cell_formula_units_Z 96
_cell_length_a 21.818625
_cell_length_b 8.330319
_cell_length_c 24.243430
_cell_angle_alpha 90.000000
_cell_angle_beta 90.000000
_cell_angle_gamma 90.000000
_cell_volume 4406.391442
_symmetry_space_group_name_H-M "C C C M"
_symmetry_group_IT_number 66
_symmetry_cell_setting 'orthorhombic'
loop_
_space_group_symop_operation_xyz
x,y,z
-x,-y,z
x,-y,1/2-z
-x,y,1/2-z
-x,-y,-z
x,y,-z
-x,y,1/2+z
x,-y,1/2+z
1/2+x,1/2+y,z
1/2-x,1/2-y,z
1/2+x,1/2-y,1/2-z
1/2-x,1/2+y,1/2-z
1/2-x,1/2-y,-z
1/2+x,1/2+y,-z
1/2-x,1/2+y,1/2+z
1/2+x,1/2-y,1/2+z
loop_
_atom_site_type_symbol
_atom_site_label
_atom_site_fract_x
_atom_site_fract_y
_atom_site_fract_z
Si Si1 0.982001 0.250236 0.688558
Si Si2 0.693281 0.467038 0.937772
Si Si3 0.178014 0.236848 0.730228
Si Si4 0.092862 0.440188 0.663872
Si Si5 0.867230 0.074858 0.332813
Si Si6 0.331630 0.096308 0.438108
O O1 0.939787 0.408030 0.690437
O O2 0.941222 0.103819 0.663628
O O3 0.000000 0.200668 0.750000
O O4 0.044205 0.292356 0.655460
O O5 0.659494 0.584042 0.894655
O O6 0.673941 0.284846 0.925460
O O7 0.765932 0.487110 0.930320
O O8 0.674298 0.516363 0.000000
O O9 0.250000 0.250000 0.720466
O O10 0.147601 0.396515 0.705814
O O11 0.162644 0.215611 0.795005
O O12 0.149144 0.092273 0.695266
O O13 0.120089 0.482444 0.603811
O O14 0.355845 0.067381 0.500000
#
# Coordination Sequence:
#
# PCOD8277690 Si02
#       6
#    16  16  16  16  16  16
#     4  11  25  43  61  87 127 182 216 261 321 388
#     4   9  18  37  63  94 129 165 209 264 330 392
#     4  11  24  39  61  95 130 160 207 271 329 390
#     4  11  21  41  65  88 126 171 221 258 318 388
#     4  11  23  39  60  97 125 167 213 267 318 382
#     4   9  18  36  65  93 124 168 215 261 322 396
#
# _framework density 21.786536000000002
#
# number of rings (size 3 to 8) (size 9 to 14) (size 15 to 20)
#    0.000    1.667    3.333    3.000    0.000    4.667 
#    0.000    3.333    0.000    4.500    0.000    0.000 
#    0.000    0.000    0.000    0.000    0.000    0.000 
#
# Total GULP energy -595125.833828 kJ/mol
# GULP energy per Si atom -12398.454871 kJ/mol
# Density = 2.173695 g / cm^3
# Si number density = 21.786536 Si / 1000 Ang^3
#
#
#
# Elastic Constant Matrix: (Units=GPa)
#
#
# Indices 1 2 3 4 5 6 
#
# 1 132.4310 19.2911 56.6726 0.0000 0.0000 0.0000
# 2 19.2911 21.0901 25.4291 0.0000 0.0000 0.0000
# 3 56.6726 25.4291 156.9913 0.0000 0.0000 0.0000
# 4 0.0000 0.0000 0.0000 7.1156 0.0000 0.0000
# 5 0.0000 0.0000 0.0000 0.0000 38.7660 0.0000
# 6 0.0000 0.0000 0.0000 0.0000 0.0000 37.4906
#
#
#
# Elastic Compliance Matrix: (Units=1/GPa)
#
#
# Indices 1 2 3 4 5 6 
#
# 1 0.009439 -0.005623 -0.002496 0.000000 0.000000 0.000000
# 2 -0.005623 0.062274 -0.008057 0.000000 0.000000 0.000000
# 3 -0.002496 -0.008057 0.008576 0.000000 0.000000 0.000000
# 4 0.000000 0.000000 0.000000 0.140537 0.000000 0.000000
# 5 0.000000 0.000000 0.000000 0.000000 0.025796 0.000000
# 6 0.000000 0.000000 0.000000 0.000000 0.000000 0.026673
#
#
# Mechanical properties :
#
#
# Convention : Reuss Voigt Hill
#
# Bulk Modulus (GPa) = 20.86157 57.03311 38.94734
# Shear Modulus (GPa) = 15.54597 30.61574 23.08086
#
# Velocity S-wave (km/s) = 2.67415 3.75275 3.25839
# Velocity P-wave (km/s) = 4.37390 6.70913 5.66319
#
# Compressibility (1/GPa) = 0.04793503
#
# Stress axis : x y z
#
# Youngs Moduli (GPa) = 105.94837 16.05801 116.60436
#
# Poissons Ratio (x) = 0.09030 0.29109
# Poissons Ratio (y) = 0.59580 0.93948
# Poissons Ratio (z) = 0.26449 0.12938
#
# Static dielectric constant tensor:
#      x y z
#    x 4.249850 0.000000 0.000000 
#    y 0.000000 3.828010 0.000000 
#    z 0.000000 0.000000 4.004970 
# 
# 
# High freq. dielectric constant tensor:
#      x y z
#    x 1.860800 0.000000 0.000000 
#    y 0.000000 1.840630 0.000000 
#    z 0.000000 0.000000 1.845100 
# 
# From -- ./inp_files/59819.got.cif
#   From: 2010.03.12/outbox.cif.g09.slc.cpg/sg66_30_cif.got.tgz:59819.got - 2010.04.10 21:57:39.
