data_PCOD8277539
_publ_section_title
;
Structure prediction by ZEFSAII (Michael W. Deem and Ramdas Pophale) SiO2 
 PCOD8277539
Probable space group: C C C M
;
_chemical_formula_sum "Si O2"
_cell_formula_units_Z 56
_cell_length_a 14.204751
_cell_length_b 5.658044
_cell_length_c 29.037761
_cell_angle_alpha 90.000000
_cell_angle_beta 90.000000
_cell_angle_gamma 90.000000
_cell_volume 2333.796972
_symmetry_space_group_name_H-M "C C C M"
_symmetry_group_IT_number 66
_symmetry_cell_setting 'orthorhombic'
loop_
_space_group_symop_operation_xyz
x,y,z
-x,-y,z
x,-y,1/2-z
-x,y,1/2-z
-x,-y,-z
x,y,-z
-x,y,1/2+z
x,-y,1/2+z
1/2+x,1/2+y,z
1/2-x,1/2-y,z
1/2+x,1/2-y,1/2-z
1/2-x,1/2+y,1/2-z
1/2-x,1/2-y,-z
1/2+x,1/2+y,-z
1/2-x,1/2+y,1/2+z
1/2+x,1/2-y,1/2+z
loop_
_atom_site_type_symbol
_atom_site_label
_atom_site_fract_x
_atom_site_fract_y
_atom_site_fract_z
Si Si1 0.750000 0.750000 0.600591
Si Si2 0.394147 0.084015 0.052681
Si Si3 0.105126 0.086217 0.865154
Si Si4 0.641831 0.752330 0.769202
O O1 0.817368 0.608202 0.566200
O O2 0.683140 0.617350 0.637101
O O3 0.377728 0.309576 0.084314
O O4 0.500000 0.000000 0.061840
O O5 0.379730 0.161095 0.000000
O O6 0.126765 0.269029 0.824229
O O7 0.000000 0.000000 0.858903
O O8 0.597423 0.500000 0.750000
O O9 0.750000 0.750000 0.754780
O O10 0.596295 0.000000 0.750000
#
# Coordination Sequence:
#
# PCOD8277539 Si02
#       4
#     8  16  16  16
#     4  12  25  46  78 108 146 206 246 320 385 458
#     4  11  25  46  74 110 151 199 257 315 384 464
#     4  12  27  47  75 110 152 199 255 319 384 467
#     4  10  24  45  78 109 147 198 253 315 387 460
#
# _framework density 23.995234
#
# number of rings (size 3 to 8) (size 9 to 14) (size 15 to 20)
#    0.000    0.857    2.857    3.000   10.000    4.571 
#    0.000    1.429    0.000    0.000    0.000    0.000 
#    0.000    0.000    0.000    0.000    0.000    0.000 
#
# Total GULP energy -347097.987693 kJ/mol
# GULP energy per Si atom -12396.356703 kJ/mol
# Density = 2.394062 g / cm^3
# Si number density = 23.995234 Si / 1000 Ang^3
#
#
#
# Elastic Constant Matrix: (Units=GPa)
#
#
# Indices 1 2 3 4 5 6 
#
# 1 152.1093 45.7337 32.1185 0.0000 0.0000 0.0000
# 2 45.7337 155.0969 65.7799 0.0000 0.0000 0.0000
# 3 32.1185 65.7799 150.3526 0.0000 0.0000 0.0000
# 4 0.0000 0.0000 0.0000 90.8678 0.0000 0.0000
# 5 0.0000 0.0000 0.0000 0.0000 22.7154 0.0000
# 6 0.0000 0.0000 0.0000 0.0000 0.0000 11.3294
#
#
#
# Elastic Compliance Matrix: (Units=1/GPa)
#
#
# Indices 1 2 3 4 5 6 
#
# 1 0.007283 -0.001827 -0.000757 0.000000 0.000000 0.000000
# 2 -0.001827 0.008375 -0.003274 0.000000 0.000000 0.000000
# 3 -0.000757 -0.003274 0.008245 0.000000 0.000000 0.000000
# 4 0.000000 0.000000 0.000000 0.011005 0.000000 0.000000
# 5 0.000000 0.000000 0.000000 0.000000 0.044023 0.000000
# 6 0.000000 0.000000 0.000000 0.000000 0.000000 0.088266
#
#
# Mechanical properties :
#
#
# Convention : Reuss Voigt Hill
#
# Bulk Modulus (GPa) = 82.04355 82.75811 82.40083
# Shear Modulus (GPa) = 27.32628 45.91097 36.61862
#
# Velocity S-wave (km/s) = 3.37830 4.37892 3.91074
# Velocity P-wave (km/s) = 7.03442 7.75441 7.40317
#
# Compressibility (1/GPa) = 0.01218865
#
# Stress axis : x y z
#
# Youngs Moduli (GPa) = 137.30208 119.40744 121.28636
#
# Poissons Ratio (x) = 0.21812 0.09177
# Poissons Ratio (y) = 0.25081 0.39706
# Poissons Ratio (z) = 0.10389 0.39091
#
# Static dielectric constant tensor:
#      x y z
#    x 4.331670 0.000000 0.000000 
#    y 0.000000 4.496420 0.000000 
#    z 0.000000 0.000000 4.263540 
# 
# 
# High freq. dielectric constant tensor:
#      x y z
#    x 1.970150 0.000000 0.000000 
#    y 0.000000 1.947040 0.000000 
#    z 0.000000 0.000000 1.959020 
# 
# From -- ./inp_files/66756.got.cif
#   From: 2010.03.12/outbox.cif.g09.slc.cpg/sg66_34_cif.got.tgz:66756.got - 2010.04.10 21:57:39.
