data_PCOD8277612
_publ_section_title
;
Structure prediction by ZEFSAII (Michael W. Deem and Ramdas Pophale) SiO2 
 PCOD8277612
Probable space group: C C C M
;
_chemical_formula_sum "Si O2"
_cell_formula_units_Z 64
_cell_length_a 15.515210
_cell_length_b 12.016400
_cell_length_c 14.058467
_cell_angle_alpha 90.000000
_cell_angle_beta 90.000000
_cell_angle_gamma 90.000000
_cell_volume 2621.017983
_symmetry_space_group_name_H-M "C C C M"
_symmetry_group_IT_number 66
_symmetry_cell_setting 'orthorhombic'
loop_
_space_group_symop_operation_xyz
x,y,z
-x,-y,z
x,-y,1/2-z
-x,y,1/2-z
-x,-y,-z
x,y,-z
-x,y,1/2+z
x,-y,1/2+z
1/2+x,1/2+y,z
1/2-x,1/2-y,z
1/2+x,1/2-y,1/2-z
1/2-x,1/2+y,1/2-z
1/2-x,1/2-y,-z
1/2+x,1/2+y,-z
1/2-x,1/2+y,1/2+z
1/2+x,1/2-y,1/2+z
loop_
_atom_site_type_symbol
_atom_site_label
_atom_site_fract_x
_atom_site_fract_y
_atom_site_fract_z
Si Si1 0.532167 0.825087 0.894876
Si Si2 0.313961 0.446900 0.605190
Si Si3 0.127037 0.539647 0.854407
Si Si4 0.835751 0.824754 0.790905
O O1 0.440518 0.858181 0.847671
O O2 0.580561 0.740702 0.825791
O O3 0.587335 0.937045 0.911232
O O4 0.518325 0.772893 0.000000
O O5 0.355835 0.429717 0.500000
O O6 0.212980 0.415640 0.596013
O O7 0.358062 0.367786 0.684103
O O8 0.321017 0.575017 0.636012
O O9 0.153927 0.500000 0.750000
O O10 0.750000 0.750000 0.790817
#
# Coordination Sequence:
#
# PCOD8277612 Si02
#       4
#    16  16  16  16
#     4  11  21  33  58  93 137 184 225 282 353 420
#     4  11  22  39  64  96 139 187 241 292 347 422
#     4  11  20  37  61  98 141 175 221 288 351 418
#     4  11  22  38  59  96 139 188 232 290 357 414
#
# _framework density 24.417994
#
# number of rings (size 3 to 8) (size 9 to 14) (size 15 to 20)
#    0.000    1.000    5.000    5.250    0.000    1.500 
#    0.000    0.000    0.000    4.500    0.000   56.000 
#    0.000  112.000    0.000    0.000    0.000    0.000 
#
# Total GULP energy -396782.670450 kJ/mol
# GULP energy per Si atom -12399.458452 kJ/mol
# Density = 2.436242 g / cm^3
# Si number density = 24.417994 Si / 1000 Ang^3
#
#
#
# Elastic Constant Matrix: (Units=GPa)
#
#
# Indices 1 2 3 4 5 6 
#
# 1 71.0356 46.5737 24.9506 0.0000 0.0000 0.0000
# 2 46.5737 121.0245 53.2634 0.0000 0.0000 0.0000
# 3 24.9506 53.2634 198.9128 0.0000 0.0000 0.0000
# 4 0.0000 0.0000 0.0000 16.1436 0.0000 0.0000
# 5 0.0000 0.0000 0.0000 0.0000 119.0283 0.0000
# 6 0.0000 0.0000 0.0000 0.0000 0.0000 40.0229
#
#
#
# Elastic Compliance Matrix: (Units=1/GPa)
#
#
# Indices 1 2 3 4 5 6 
#
# 1 0.018868 -0.007050 -0.000479 0.000000 0.000000 0.000000
# 2 -0.007050 0.012001 -0.002329 0.000000 0.000000 0.000000
# 3 -0.000479 -0.002329 0.005711 0.000000 0.000000 0.000000
# 4 0.000000 0.000000 0.000000 0.061944 0.000000 0.000000
# 5 0.000000 0.000000 0.000000 0.000000 0.008401 0.000000
# 6 0.000000 0.000000 0.000000 0.000000 0.000000 0.024986
#
#
# Mechanical properties :
#
#
# Convention : Reuss Voigt Hill
#
# Bulk Modulus (GPa) = 59.29935 71.17203 65.23569
# Shear Modulus (GPa) = 31.79670 52.78463 42.29067
#
# Velocity S-wave (km/s) = 3.61249 4.65446 4.16618
# Velocity P-wave (km/s) = 6.46049 7.62207 7.06520
#
# Compressibility (1/GPa) = 0.01686359
#
# Stress axis : x y z
#
# Youngs Moduli (GPa) = 52.99975 83.32636 175.09786
#
# Poissons Ratio (x) = 0.58747 0.08385
# Poissons Ratio (y) = 0.37366 0.40784
# Poissons Ratio (z) = 0.02538 0.19408
#
# Static dielectric constant tensor:
#      x y z
#    x 4.136940 0.000000 0.000000 
#    y 0.000000 4.414490 0.000000 
#    z 0.000000 0.000000 4.639470 
# 
# 
# High freq. dielectric constant tensor:
#      x y z
#    x 1.949390 0.000000 0.000000 
#    y 0.000000 1.959390 0.000000 
#    z 0.000000 0.000000 1.987920 
# 
# From -- ./inp_files/29566.got.cif
#   From: 2010.03.12/outbox.cif.g09.slc.cpg/sg66_15_cif.got.tgz:29566.got - 2010.04.10 21:57:39.
