data_PCOD8277820
_publ_section_title
;
Structure prediction by ZEFSAII (Michael W. Deem and Ramdas Pophale) SiO2 
 PCOD8277820
Probable space group: C C C M
;
_chemical_formula_sum "Si O2"
_cell_formula_units_Z 88
_cell_length_a 10.130135
_cell_length_b 18.859314
_cell_length_c 21.775505
_cell_angle_alpha 90.000000
_cell_angle_beta 90.000000
_cell_angle_gamma 90.000000
_cell_volume 4160.153545
_symmetry_space_group_name_H-M "C C C M"
_symmetry_group_IT_number 66
_symmetry_cell_setting 'orthorhombic'
loop_
_space_group_symop_operation_xyz
x,y,z
-x,-y,z
x,-y,1/2-z
-x,y,1/2-z
-x,-y,-z
x,y,-z
-x,y,1/2+z
x,-y,1/2+z
1/2+x,1/2+y,z
1/2-x,1/2-y,z
1/2+x,1/2-y,1/2-z
1/2-x,1/2+y,1/2-z
1/2-x,1/2-y,-z
1/2+x,1/2+y,-z
1/2-x,1/2+y,1/2+z
1/2+x,1/2-y,1/2+z
loop_
_atom_site_type_symbol
_atom_site_label
_atom_site_fract_x
_atom_site_fract_y
_atom_site_fract_z
Si Si1 0.147447 0.472162 0.000000
Si Si2 0.756640 0.934252 0.600518
Si Si3 0.141851 0.578514 0.226682
Si Si4 0.878075 0.857998 0.209721
Si Si5 0.602873 0.183518 0.500000
Si Si6 0.750000 0.750000 0.888665
Si Si7 0.000000 0.000000 0.839308
Si Si8 0.704896 0.828292 0.500000
O O1 0.215487 0.498440 0.061433
O O2 0.000000 0.500000 0.000000
O O3 0.178353 0.390094 0.000000
O O4 0.647303 0.922918 0.653122
O O5 0.764905 0.863722 0.560389
O O6 0.903492 0.949343 0.623109
O O7 0.172867 0.500000 0.250000
O O8 0.248704 0.636115 0.248225
O O9 0.000000 0.605255 0.250000
O O10 0.830705 0.808348 0.152463
O O11 0.000000 0.824369 0.250000
O O12 0.914464 0.940870 0.196700
O O13 0.638950 0.221020 0.564317
O O14 0.450611 0.164584 0.500000
O O15 0.750000 0.750000 0.500000
#
# Coordination Sequence:
#
# PCOD8277820 Si02
#       8
#     8  16  16  16   8   8   8   8
#     4  11  23  43  70  99 131 175 233 301 356 409
#     4  11  24  43  70 104 135 182 231 302 363 424
#     4  11  24  38  70 107 140 179 231 298 363 429
#     4  12  24  48  72 108 149 190 244 297 373 444
#     4  11  25  51  70  94 150 186 246 300 360 443
#     4  11  30  46  72 106 138 209 234 300 368 453
#     4  12  23  43  76 104 142 179 243 304 366 434
#     4  11  28  45  68  97 138 189 242 296 356 439
#
# _framework density 21.153065999999999
#
# number of rings (size 3 to 8) (size 9 to 14) (size 15 to 20)
#    0.000    0.727    5.455    1.364    7.636    2.182 
#    1.636    0.000    0.000    0.000    0.000    0.000 
#    0.000    0.000    0.000    0.000    0.000    0.000 
#
# Total GULP energy -545232.518871 kJ/mol
# GULP energy per Si atom -12391.648156 kJ/mol
# Density = 2.110492 g / cm^3
# Si number density = 21.153066 Si / 1000 Ang^3
#
#
#
# Elastic Constant Matrix: (Units=GPa)
#
#
# Indices 1 2 3 4 5 6 
#
# 1 130.6690 20.7187 48.8945 0.0000 0.0000 0.0000
# 2 20.7187 118.7024 52.6132 0.0000 0.0000 0.0000
# 3 48.8945 52.6132 157.3881 0.0000 0.0000 0.0000
# 4 0.0000 0.0000 0.0000 -18.0442 0.0000 0.0000
# 5 0.0000 0.0000 0.0000 0.0000 20.4547 0.0000
# 6 0.0000 0.0000 0.0000 0.0000 0.0000 34.0478
#
#
#
# Elastic Compliance Matrix: (Units=1/GPa)
#
#
# Indices 1 2 3 4 5 6 
#
# 1 0.008674 -0.000375 -0.002569 0.000000 0.000000 0.000000
# 2 -0.000375 0.009906 -0.003195 0.000000 0.000000 0.000000
# 3 -0.002569 -0.003195 0.008220 0.000000 0.000000 0.000000
# 4 0.000000 0.000000 0.000000 -0.055420 0.000000 0.000000
# 5 0.000000 0.000000 0.000000 0.000000 0.048888 0.000000
# 6 0.000000 0.000000 0.000000 0.000000 0.000000 0.029370
#
#
# Mechanical properties :
#
#
# Convention : Reuss Voigt Hill
#
# Bulk Modulus (GPa) = 68.86537 72.35692 70.61114
# Shear Modulus (GPa) = 74.89731 26.26053 50.57892
#
# Velocity S-wave (km/s) = 5.95686 3.52725 4.89518
# Velocity P-wave (km/s) = 8.94084 7.13227 8.08727
#
# Compressibility (1/GPa) = 0.01452109
#
# Stress axis : x y z
#
# Youngs Moduli (GPa) = 115.29014 100.94865 121.65598
#
# Poissons Ratio (x) = 0.03788 0.31256
# Poissons Ratio (y) = 0.04326 0.38868
# Poissons Ratio (z) = 0.29620 0.32252
#
# Static dielectric constant tensor:
#      x y z
#    x 3.210990 0.000000 0.000000 
#    y 0.000000 3.759670 0.000000 
#    z 0.000000 0.000000 3.752290 
# 
# 
# High freq. dielectric constant tensor:
#      x y z
#    x 1.841270 0.000000 0.000000 
#    y 0.000000 1.822760 0.000000 
#    z 0.000000 0.000000 1.842990 
# 
# From -- ./inp_files/48622.got.cif
#   From: 2010.03.12/outbox.cif.g09.slc.cpg/sg66_25_cif.got.tgz:48622.got - 2010.04.10 21:57:39.
