data_PCOD8277831
_publ_section_title
;
Structure prediction by ZEFSAII (Michael W. Deem and Ramdas Pophale) SiO2 
 PCOD8277831
Probable space group: C C C M
;
_chemical_formula_sum "Si O2"
_cell_formula_units_Z 80
_cell_length_a 10.725536
_cell_length_b 11.420635
_cell_length_c 27.871263
_cell_angle_alpha 90.000000
_cell_angle_beta 90.000000
_cell_angle_gamma 90.000000
_cell_volume 3414.018783
_symmetry_space_group_name_H-M "C C C M"
_symmetry_group_IT_number 66
_symmetry_cell_setting 'orthorhombic'
loop_
_space_group_symop_operation_xyz
x,y,z
-x,-y,z
x,-y,1/2-z
-x,y,1/2-z
-x,-y,-z
x,y,-z
-x,y,1/2+z
x,-y,1/2+z
1/2+x,1/2+y,z
1/2-x,1/2-y,z
1/2+x,1/2-y,1/2-z
1/2-x,1/2+y,1/2-z
1/2-x,1/2-y,-z
1/2+x,1/2+y,-z
1/2-x,1/2+y,1/2+z
1/2+x,1/2-y,1/2+z
loop_
_atom_site_type_symbol
_atom_site_label
_atom_site_fract_x
_atom_site_fract_y
_atom_site_fract_z
Si Si1 0.446260 0.626178 0.393217
Si Si2 0.316827 0.034268 0.899690
Si Si3 0.949417 0.334328 0.056454
Si Si4 0.552664 0.292688 0.800488
Si Si5 0.700973 0.064694 0.199861
O O1 0.500000 0.500000 0.384645
O O2 0.307284 0.606566 0.413944
O O3 0.537050 0.697744 0.429491
O O4 0.447465 0.691840 0.341567
O O5 0.328262 0.900172 0.920603
O O6 0.327328 0.028738 0.842005
O O7 0.427042 0.107189 0.922701
O O8 0.940326 0.348473 0.000000
O O9 0.500000 0.336962 0.750000
O O10 0.588282 0.156565 0.797067
O O11 0.671102 0.371295 0.814114
O O12 0.713006 0.000000 0.250000
#
# Coordination Sequence:
#
# PCOD8277831 Si02
#       5
#    16  16  16  16  16
#     4  12  25  44  75 102 143 188 233 292 363 433
#     4  11  23  45  75 102 140 187 235 292 367 426
#     4  11  27  49  72 103 138 181 242 310 368 437
#     4  11  25  43  65 103 149 185 235 289 350 430
#     4  11  24  42  69 102 142 191 236 287 351 429
#
# _framework density 23.432794000000001
#
# number of rings (size 3 to 8) (size 9 to 14) (size 15 to 20)
#    0.000    0.800    4.000    3.000    2.800    4.000 
#    0.000    1.000    0.000    0.000    0.000    0.000 
#    0.000    0.000    0.000    0.000    0.000    0.000 
#
# Total GULP energy -495977.010198 kJ/mol
# GULP energy per Si atom -12399.425255 kJ/mol
# Density = 2.337946 g / cm^3
# Si number density = 23.432794 Si / 1000 Ang^3
#
#
#
# Elastic Constant Matrix: (Units=GPa)
#
#
# Indices 1 2 3 4 5 6 
#
# 1 94.3067 20.8371 23.6796 0.0000 0.0000 0.0000
# 2 20.8371 95.5689 19.0045 0.0000 0.0000 0.0000
# 3 23.6796 19.0045 153.6371 0.0000 0.0000 0.0000
# 4 0.0000 0.0000 0.0000 26.6222 0.0000 0.0000
# 5 0.0000 0.0000 0.0000 0.0000 -2.2755 0.0000
# 6 0.0000 0.0000 0.0000 0.0000 0.0000 31.2114
#
#
#
# Elastic Compliance Matrix: (Units=1/GPa)
#
#
# Indices 1 2 3 4 5 6 
#
# 1 0.011466 -0.002203 -0.001495 0.000000 0.000000 0.000000
# 2 -0.002203 0.011151 -0.001040 0.000000 0.000000 0.000000
# 3 -0.001495 -0.001040 0.006868 0.000000 0.000000 0.000000
# 4 0.000000 0.000000 0.000000 0.037563 0.000000 0.000000
# 5 0.000000 0.000000 0.000000 0.000000 -0.439464 0.000000
# 6 0.000000 0.000000 0.000000 0.000000 0.000000 0.032040
#
#
# Mechanical properties :
#
#
# Convention : Reuss Voigt Hill
#
# Bulk Modulus (GPa) = 49.97540 52.28389 51.12965
# Shear Modulus (GPa) = -15.42102 29.77770 7.17834
#
# Velocity S-wave (km/s) = -2.56812 3.56865 1.75215
# Velocity P-wave (km/s) = 3.54680 6.27225 5.09514
#
# Compressibility (1/GPa) = 0.02000984
#
# Stress axis : x y z
#
# Youngs Moduli (GPa) = 87.21672 89.68060 145.60610
#
# Poissons Ratio (x) = 0.19754 0.21764
# Poissons Ratio (y) = 0.19211 0.15140
# Poissons Ratio (z) = 0.13036 0.09325
#
# Static dielectric constant tensor:
#      x y z
#    x 4.872380 0.000000 0.000000 
#    y 0.000000 4.937840 0.000000 
#    z 0.000000 0.000000 4.108590 
# 
# 
# High freq. dielectric constant tensor:
#      x y z
#    x 1.921610 0.000000 0.000000 
#    y 0.000000 1.941010 0.000000 
#    z 0.000000 0.000000 1.922760 
# 
# From -- ./inp_files/68784.got.cif
#   From: 2010.03.12/outbox.cif.g09.slc.cpg/sg66_35_cif.got.tgz:68784.got - 2010.04.10 21:57:39.
