data_PCOD8277534
_publ_section_title
;
Structure prediction by ZEFSAII (Michael W. Deem and Ramdas Pophale) SiO2 
 PCOD8277534
Probable space group: C C C M
;
_chemical_formula_sum "Si O2"
_cell_formula_units_Z 96
_cell_length_a 20.335109
_cell_length_b 12.896075
_cell_length_c 17.640634
_cell_angle_alpha 90.000000
_cell_angle_beta 90.000000
_cell_angle_gamma 90.000000
_cell_volume 4626.134384
_symmetry_space_group_name_H-M "C C C M"
_symmetry_group_IT_number 66
_symmetry_cell_setting 'orthorhombic'
loop_
_space_group_symop_operation_xyz
x,y,z
-x,-y,z
x,-y,1/2-z
-x,y,1/2-z
-x,-y,-z
x,y,-z
-x,y,1/2+z
x,-y,1/2+z
1/2+x,1/2+y,z
1/2-x,1/2-y,z
1/2+x,1/2-y,1/2-z
1/2-x,1/2+y,1/2-z
1/2-x,1/2-y,-z
1/2+x,1/2+y,-z
1/2-x,1/2+y,1/2+z
1/2+x,1/2-y,1/2+z
loop_
_atom_site_type_symbol
_atom_site_label
_atom_site_fract_x
_atom_site_fract_y
_atom_site_fract_z
Si Si1 0.683503 0.188698 0.132405
Si Si2 0.957070 0.207044 0.679005
Si Si3 0.218768 0.466075 0.914167
Si Si4 0.855531 0.970930 0.833363
Si Si5 0.130366 0.611194 0.284660
Si Si6 0.924818 0.154165 0.085629
O O1 0.750000 0.250000 0.121269
O O2 0.670484 0.174364 0.221472
O O3 0.624746 0.250849 0.094180
O O4 0.689651 0.081198 0.088412
O O5 0.891974 0.138661 0.669263
O O6 0.935108 0.326247 0.691788
O O7 0.000000 0.167914 0.750000
O O8 0.002603 0.196726 0.605134
O O9 0.294736 0.464890 0.890189
O O10 0.176655 0.394404 0.858266
O O11 0.213051 0.423707 0.000000
O O12 0.828328 0.000000 0.750000
O O13 0.906233 0.058745 0.860349
O O14 0.109538 0.500000 0.250000
O O15 0.925107 0.113504 0.000000
#
# Coordination Sequence:
#
# PCOD8277534 Si02
#       6
#    16  16  16  16  16  16
#     4  11  21  41  72  97 131 176 230 276 328 400
#     4  12  25  44  67  94 132 181 227 269 329 403
#     4  11  25  42  65 104 140 171 218 284 348 394
#     4  12  23  40  68  97 136 180 226 269 328 406
#     4  10  24  44  71  99 128 175 231 280 334 404
#     4  12  26  42  67 103 139 176 225 282 335 391
#
# _framework density 20.751667000000001
#
# number of rings (size 3 to 8) (size 9 to 14) (size 15 to 20)
#    0.000    0.667    5.000    3.000    2.333    3.667 
#    0.000    0.833    0.000    3.000    0.000    0.000 
#    0.000    0.000    0.000    0.000    0.000    0.000 
#
# Total GULP energy -595482.336623 kJ/mol
# GULP energy per Si atom -12405.882013 kJ/mol
# Density = 2.070444 g / cm^3
# Si number density = 20.751667 Si / 1000 Ang^3
#
#
#
# Elastic Constant Matrix: (Units=GPa)
#
#
# Indices 1 2 3 4 5 6 
#
# 1 82.7812 40.8672 30.3031 0.0000 0.0000 0.0000
# 2 40.8672 65.3084 15.6600 0.0000 0.0000 0.0000
# 3 30.3031 15.6600 141.7116 0.0000 0.0000 0.0000
# 4 0.0000 0.0000 0.0000 24.8801 0.0000 0.0000
# 5 0.0000 0.0000 0.0000 0.0000 27.7866 0.0000
# 6 0.0000 0.0000 0.0000 0.0000 0.0000 37.4066
#
#
#
# Elastic Compliance Matrix: (Units=1/GPa)
#
#
# Indices 1 2 3 4 5 6 
#
# 1 0.018463 -0.010896 -0.002744 0.000000 0.000000 0.000000
# 2 -0.010896 0.022158 -0.000119 0.000000 0.000000 0.000000
# 3 -0.002744 -0.000119 0.007657 0.000000 0.000000 0.000000
# 4 0.000000 0.000000 0.000000 0.040193 0.000000 0.000000
# 5 0.000000 0.000000 0.000000 0.000000 0.035989 0.000000
# 6 0.000000 0.000000 0.000000 0.000000 0.000000 0.026733
#
#
# Mechanical properties :
#
#
# Convention : Reuss Voigt Hill
#
# Bulk Modulus (GPa) = 48.16636 51.49576 49.83106
# Shear Modulus (GPa) = 26.93521 31.54605 29.24063
#
# Velocity S-wave (km/s) = 3.60666 3.90317 3.75784
# Velocity P-wave (km/s) = 6.37222 6.72176 6.54932
#
# Compressibility (1/GPa) = 0.02076138
#
# Stress axis : x y z
#
# Youngs Moduli (GPa) = 54.16092 45.12943 130.60788
#
# Poissons Ratio (x) = 0.49172 0.35840
# Poissons Ratio (y) = 0.59012 0.01551
# Poissons Ratio (z) = 0.14862 0.00536
#
# Static dielectric constant tensor:
#      x y z
#    x 3.735550 0.000000 0.000000 
#    y 0.000000 3.676690 0.000000 
#    z 0.000000 0.000000 3.800790 
# 
# 
# High freq. dielectric constant tensor:
#      x y z
#    x 1.814280 0.000000 0.000000 
#    y 0.000000 1.811360 0.000000 
#    z 0.000000 0.000000 1.815690 
# 
# From -- ./inp_files/43551.got.cif
#   From: 2010.03.12/outbox.cif.g09.slc.cpg/sg66_22_cif.got.tgz:43551.got - 2010.04.10 21:57:39.
