data_PCOD8277887
_publ_section_title
;
Structure prediction by ZEFSAII (Michael W. Deem and Ramdas Pophale) SiO2 
 PCOD8277887
Probable space group: C C C M
;
_chemical_formula_sum "Si O2"
_cell_formula_units_Z 88
_cell_length_a 12.490601
_cell_length_b 22.862749
_cell_length_c 14.774712
_cell_angle_alpha 90.000000
_cell_angle_beta 90.000000
_cell_angle_gamma 90.000000
_cell_volume 4219.206757
_symmetry_space_group_name_H-M "C C C M"
_symmetry_group_IT_number 66
_symmetry_cell_setting 'orthorhombic'
loop_
_space_group_symop_operation_xyz
x,y,z
-x,-y,z
x,-y,1/2-z
-x,y,1/2-z
-x,-y,-z
x,y,-z
-x,y,1/2+z
x,-y,1/2+z
1/2+x,1/2+y,z
1/2-x,1/2-y,z
1/2+x,1/2-y,1/2-z
1/2-x,1/2+y,1/2-z
1/2-x,1/2-y,-z
1/2+x,1/2+y,-z
1/2-x,1/2+y,1/2+z
1/2+x,1/2-y,1/2+z
loop_
_atom_site_type_symbol
_atom_site_label
_atom_site_fract_x
_atom_site_fract_y
_atom_site_fract_z
Si Si1 0.346130 0.297218 0.000000
Si Si2 0.978964 0.224856 0.145221
Si Si3 0.123952 0.990762 0.146109
Si Si4 0.434989 0.856390 0.841073
Si Si5 0.270649 0.571079 0.500000
Si Si6 0.021247 0.432279 0.000000
Si Si7 0.793684 0.135455 0.102522
O O1 0.250000 0.250000 0.000000
O O2 0.415502 0.291675 0.909532
O O3 0.308622 0.363109 0.000000
O O4 0.959149 0.292170 0.121719
O O5 0.875889 0.188167 0.116509
O O6 0.000000 0.213260 0.250000
O O7 0.145981 0.924981 0.116986
O O8 0.154689 0.000000 0.250000
O O9 0.000000 0.000000 0.126403
O O10 0.192112 0.036932 0.089194
O O11 0.500000 0.869075 0.750000
O O12 0.469184 0.905396 0.911121
O O13 0.306181 0.860182 0.827922
O O14 0.145441 0.578437 0.500000
O O15 0.000000 0.500000 0.000000
O O16 0.749192 0.138538 0.000000
#
# Coordination Sequence:
#
# PCOD8277887 Si02
#       7
#     8  16  16  16   8   8  16
#     4  12  26  44  72 104 147 190 236 292 364 426
#     4  11  26  44  71 105 142 185 236 289 353 425
#     4  11  26  44  68  99 139 176 228 288 348 418
#     4  11  26  47  69 102 140 180 233 291 348 418
#     4  12  25  44  68  98 137 182 228 284 349 420
#     4  12  26  46  70  98 137 180 234 286 348 420
#     4  12  24  44  74 101 136 185 238 287 353 418
#
# _framework density 20.857001
#
# number of rings (size 3 to 8) (size 9 to 14) (size 15 to 20)
#    0.000    0.545    2.727    4.636    7.636    4.000 
#    0.000    0.000    0.000    0.000    0.000    0.000 
#    0.000    0.000    0.000    0.000    0.000    0.000 
#
# Total GULP energy -545790.969112 kJ/mol
# GULP energy per Si atom -12404.340207 kJ/mol
# Density = 2.080953 g / cm^3
# Si number density = 20.857001 Si / 1000 Ang^3
#
#
#
# Elastic Constant Matrix: (Units=GPa)
#
#
# Indices 1 2 3 4 5 6 
#
# 1 143.7930 43.0326 52.0134 0.0000 0.0000 0.0000
# 2 43.0326 161.0662 53.6578 0.0000 0.0000 0.0000
# 3 52.0134 53.6578 120.6319 0.0000 0.0000 0.0000
# 4 0.0000 0.0000 0.0000 18.8955 0.0000 0.0000
# 5 0.0000 0.0000 0.0000 0.0000 -78.1334 0.0000
# 6 0.0000 0.0000 0.0000 0.0000 0.0000 36.4163
#
#
#
# Elastic Compliance Matrix: (Units=1/GPa)
#
#
# Indices 1 2 3 4 5 6 
#
# 1 0.008440 -0.001224 -0.003095 0.000000 0.000000 0.000000
# 2 -0.001224 0.007466 -0.002793 0.000000 0.000000 0.000000
# 3 -0.003095 -0.002793 0.010867 0.000000 0.000000 0.000000
# 4 0.000000 0.000000 0.000000 0.052923 0.000000 0.000000
# 5 0.000000 0.000000 0.000000 0.000000 -0.012799 0.000000
# 6 0.000000 0.000000 0.000000 0.000000 0.000000 0.027460
#
#
# Mechanical properties :
#
#
# Convention : Reuss Voigt Hill
#
# Bulk Modulus (GPa) = 79.68834 80.32209 80.00521
# Shear Modulus (GPa) = 44.34031 13.88817 29.11424
#
# Velocity S-wave (km/s) = 4.61577 2.58326 3.74022
# Velocity P-wave (km/s) = 8.16683 6.89145 7.55610
#
# Compressibility (1/GPa) = 0.01254889
#
# Stress axis : x y z
#
# Youngs Moduli (GPa) = 118.48071 133.93701 92.02589
#
# Poissons Ratio (x) = 0.16394 0.28480
# Poissons Ratio (y) = 0.14502 0.25705
# Poissons Ratio (z) = 0.36667 0.37412
#
# Static dielectric constant tensor:
#      x y z
#    x 3.970530 0.000000 0.000000 
#    y 0.000000 3.984520 0.000000 
#    z 0.000000 0.000000 3.924520 
# 
# 
# High freq. dielectric constant tensor:
#      x y z
#    x 1.833970 0.000000 0.000000 
#    y 0.000000 1.839060 0.000000 
#    z 0.000000 0.000000 1.824890 
# 
# From -- ./inp_files/26581.got.cif
#   From: 2010.03.12/outbox.cif.g09.slc.cpg/sg66_14_cif.got.tgz:26581.got - 2010.04.10 21:57:39.
