data_PCOD8277424
_publ_section_title
;
Structure prediction by ZEFSAII (Michael W. Deem and Ramdas Pophale) SiO2 
 PCOD8277424
Probable space group: C C C M
;
_chemical_formula_sum "Si O2"
_cell_formula_units_Z 104
_cell_length_a 17.318929
_cell_length_b 11.940603
_cell_length_c 24.893743
_cell_angle_alpha 90.000000
_cell_angle_beta 90.000000
_cell_angle_gamma 90.000000
_cell_volume 5147.987606
_symmetry_space_group_name_H-M "C C C M"
_symmetry_group_IT_number 66
_symmetry_cell_setting 'orthorhombic'
loop_
_space_group_symop_operation_xyz
x,y,z
-x,-y,z
x,-y,1/2-z
-x,y,1/2-z
-x,-y,-z
x,y,-z
-x,y,1/2+z
x,-y,1/2+z
1/2+x,1/2+y,z
1/2-x,1/2-y,z
1/2+x,1/2-y,1/2-z
1/2-x,1/2+y,1/2-z
1/2-x,1/2-y,-z
1/2+x,1/2+y,-z
1/2-x,1/2+y,1/2+z
1/2+x,1/2-y,1/2+z
loop_
_atom_site_type_symbol
_atom_site_label
_atom_site_fract_x
_atom_site_fract_y
_atom_site_fract_z
Si Si1 0.000000 0.000000 0.650974
Si Si2 0.152653 0.915667 0.204498
Si Si3 0.053177 0.773191 0.626933
Si Si4 0.360013 0.206262 0.773384
Si Si5 0.320393 0.165660 0.938973
Si Si6 0.052930 0.606225 0.813937
Si Si7 0.205696 0.514107 0.341536
O O1 0.064358 0.061260 0.687623
O O2 0.967497 0.098392 0.612925
O O3 0.168012 0.788618 0.225620
O O4 0.177334 0.000000 0.250000
O O5 0.213747 0.946374 0.157871
O O6 0.112792 0.780986 0.676693
O O7 0.097026 0.721394 0.575980
O O8 0.978627 0.702146 0.645832
O O9 0.435655 0.142078 0.749188
O O10 0.298170 0.115448 0.796243
O O11 0.250000 0.250000 0.930990
O O12 0.305261 0.060261 0.901239
O O13 0.326116 0.123472 0.000000
O O14 0.139408 0.576443 0.831880
O O15 0.000000 0.500000 0.820779
#
# Coordination Sequence:
#
# PCOD8277424 Si02
#       7
#     8  16  16  16  16  16  16
#     4  12  23  40  57  86 132 170 209 244 309 372
#     4  12  24  37  54  87 127 173 207 243 305 374
#     4  11  23  38  62  88 125 163 213 253 308 379
#     4  11  23  36  55  86 130 170 205 246 295 382
#     4  10  22  44  69  91 115 157 214 277 328 365
#     4  12  22  37  60  90 127 170 203 246 308 364
#     4  11  26  39  59  90 128 162 215 265 308 368
#
# _framework density 20.202069999999999
#
# number of rings (size 3 to 8) (size 9 to 14) (size 15 to 20)
#    0.000    0.769    6.154    3.000    4.308    1.846 
#    0.000    1.923    0.000    0.923    0.000    1.077 
#    0.000    0.000    0.000    0.000    0.000    0.000 
#
# Total GULP energy -644538.562229 kJ/mol
# GULP energy per Si atom -12394.972351 kJ/mol
# Density = 2.015609 g / cm^3
# Si number density = 20.202070 Si / 1000 Ang^3
#
#
#
# Elastic Constant Matrix: (Units=GPa)
#
#
# Indices 1 2 3 4 5 6 
#
# 1 103.1470 28.3771 28.4157 0.0000 0.0000 0.0000
# 2 28.3771 104.9413 25.2615 0.0000 0.0000 0.0000
# 3 28.4157 25.2615 79.9658 0.0000 0.0000 0.0000
# 4 0.0000 0.0000 0.0000 -36.4160 0.0000 0.0000
# 5 0.0000 0.0000 0.0000 0.0000 92.2480 0.0000
# 6 0.0000 0.0000 0.0000 0.0000 0.0000 33.6713
#
#
#
# Elastic Compliance Matrix: (Units=1/GPa)
#
#
# Indices 1 2 3 4 5 6 
#
# 1 0.011215 -0.002244 -0.003276 0.000000 0.000000 0.000000
# 2 -0.002244 0.010762 -0.002603 0.000000 0.000000 0.000000
# 3 -0.003276 -0.002603 0.014492 0.000000 0.000000 0.000000
# 4 0.000000 0.000000 0.000000 -0.027460 0.000000 0.000000
# 5 0.000000 0.000000 0.000000 0.000000 0.010840 0.000000
# 6 0.000000 0.000000 0.000000 0.000000 0.000000 0.029699
#
#
# Mechanical properties :
#
#
# Convention : Reuss Voigt Hill
#
# Bulk Modulus (GPa) = 49.44752 50.24030 49.84391
# Shear Modulus (GPa) = 68.93298 31.63399 50.28348
#
# Velocity S-wave (km/s) = 5.84772 3.96141 4.99443
# Velocity P-wave (km/s) = 8.37401 6.77101 7.61481
#
# Compressibility (1/GPa) = 0.02022346
#
# Stress axis : x y z
#
# Youngs Moduli (GPa) = 89.16781 92.91616 69.00499
#
# Poissons Ratio (x) = 0.20850 0.22608
# Poissons Ratio (y) = 0.20009 0.17959
# Poissons Ratio (z) = 0.29214 0.24182
#
# Static dielectric constant tensor:
#      x y z
#    x 2.932820 0.000000 0.000000 
#    y 0.000000 3.735820 0.000000 
#    z 0.000000 0.000000 3.298860 
# 
# 
# High freq. dielectric constant tensor:
#      x y z
#    x 1.809860 0.000000 0.000000 
#    y 0.000000 1.800020 0.000000 
#    z 0.000000 0.000000 1.727310 
# 
# From -- ./inp_files/65264.got.cif
#   From: 2010.03.12/outbox.cif.g09.slc.cpg/sg66_33_cif.got.tgz:65264.got - 2010.04.10 21:57:39.
