data_PCOD8277365
_publ_section_title
;
Structure prediction by ZEFSAII (Michael W. Deem and Ramdas Pophale) SiO2 
 PCOD8277365
Probable space group: C C C M
;
_chemical_formula_sum "Si O2"
_cell_formula_units_Z 112
_cell_length_a 14.216974
_cell_length_b 26.291735
_cell_length_c 15.225917
_cell_angle_alpha 90.000000
_cell_angle_beta 90.000000
_cell_angle_gamma 90.000000
_cell_volume 5691.278963
_symmetry_space_group_name_H-M "C C C M"
_symmetry_group_IT_number 66
_symmetry_cell_setting 'orthorhombic'
loop_
_space_group_symop_operation_xyz
x,y,z
-x,-y,z
x,-y,1/2-z
-x,y,1/2-z
-x,-y,-z
x,y,-z
-x,y,1/2+z
x,-y,1/2+z
1/2+x,1/2+y,z
1/2-x,1/2-y,z
1/2+x,1/2-y,1/2-z
1/2-x,1/2+y,1/2-z
1/2-x,1/2-y,-z
1/2+x,1/2+y,-z
1/2-x,1/2+y,1/2+z
1/2+x,1/2-y,1/2+z
loop_
_atom_site_type_symbol
_atom_site_label
_atom_site_fract_x
_atom_site_fract_y
_atom_site_fract_z
Si Si1 0.854924 0.770031 0.750014
Si Si2 0.601661 0.159823 0.749977
Si Si3 0.392691 0.999982 0.853632
Si Si4 0.704557 0.896060 0.098838
Si Si5 0.895335 0.150742 0.400017
Si Si6 0.295464 0.103998 0.401154
Si Si7 0.604644 0.650769 0.400014
O O1 0.750000 0.750000 0.749946
O O2 0.918441 0.719802 0.750100
O O3 0.876198 0.801903 0.836984
O O4 0.876320 0.801863 0.663022
O O5 0.500000 0.131907 0.750000
O O6 0.656944 0.144082 0.663137
O O7 0.656938 0.144158 0.836870
O O8 0.334306 0.952086 0.886740
O O9 0.500000 0.000000 0.890891
O O10 0.395932 0.000000 0.750000
O O11 0.334240 0.047843 0.886790
O O12 0.817542 0.893590 0.115839
O O13 0.680839 0.878795 0.000000
O O14 0.888451 0.170933 0.500000
O O15 0.999999 0.128310 0.381348
O O16 0.319172 0.121249 0.500000
O O17 0.182479 0.106461 0.384145
O O18 0.611525 0.670957 0.500000
#
# Coordination Sequence:
#
# PCOD8277365 Si02
#       7
#    16  16  16  16  16  16  16
#     4  12  22  39  63  87 122 165 200 248 302 355
#     4  12  24  38  57  88 123 158 202 251 295 352
#     4  11  23  41  64  88 122 160 195 246 307 364
#     4  11  23  40  63  89 120 159 201 247 301 360
#     4  10  22  41  64  90 122 162 205 249 300 356
#     4  11  23  40  63  89 120 159 201 247 301 360
#     4  10  22  41  64  90 122 162 205 249 300 356
#
# _framework density 19.679231999999999
#
# number of rings (size 3 to 8) (size 9 to 14) (size 15 to 20)
#    0.000    1.000    4.286    2.571    0.000    4.571 
#    0.000    0.714    0.000    4.286    0.000    0.000 
#    0.000    0.000    0.000    0.000    0.000    0.000 
#
# Total GULP energy -694205.441026 kJ/mol
# GULP energy per Si atom -12396.525733 kJ/mol
# Density = 1.963444 g / cm^3
# Si number density = 19.679232 Si / 1000 Ang^3
#
#
#
# Elastic Constant Matrix: (Units=GPa)
#
#
# Indices 1 2 3 4 5 6 
#
# 1 202.7955 69.8186 70.5681 0.0000 0.0000 0.0000
# 2 69.8186 119.9692 49.4591 0.0000 0.0000 0.0000
# 3 70.5681 49.4591 129.1872 0.0000 0.0000 0.0000
# 4 0.0000 0.0000 0.0000 15.1542 0.0000 0.0000
# 5 0.0000 0.0000 0.0000 0.0000 27.2824 0.0000
# 6 0.0000 0.0000 0.0000 0.0000 0.0000 31.1151
#
#
#
# Elastic Compliance Matrix: (Units=1/GPa)
#
#
# Indices 1 2 3 4 5 6 
#
# 1 0.006844 -0.002899 -0.002628 0.000000 0.000000 0.000000
# 2 -0.002899 0.011126 -0.002676 0.000000 0.000000 0.000000
# 3 -0.002628 -0.002676 0.010201 0.000000 0.000000 0.000000
# 4 0.000000 0.000000 0.000000 0.065988 0.000000 0.000000
# 5 0.000000 0.000000 0.000000 0.000000 0.036654 0.000000
# 6 0.000000 0.000000 0.000000 0.000000 0.000000 0.032139
#
#
# Mechanical properties :
#
#
# Convention : Reuss Voigt Hill
#
# Bulk Modulus (GPa) = 85.00806 92.40481 88.70643
# Shear Modulus (GPa) = 27.28067 32.18407 29.73237
#
# Velocity S-wave (km/s) = 3.72730 4.04844 3.89118
# Velocity P-wave (km/s) = 7.86221 8.30124 8.08470
#
# Compressibility (1/GPa) = 0.01176359
#
# Stress axis : x y z
#
# Youngs Moduli (GPa) = 146.11549 89.88011 98.03043
#
# Poissons Ratio (x) = 0.26059 0.25767
# Poissons Ratio (y) = 0.42364 0.26231
# Poissons Ratio (z) = 0.38406 0.24050
#
# Static dielectric constant tensor:
#      x y z
#    x 4.146520 0.000000 0.000000 
#    y 0.000000 3.433720 0.000000 
#    z 0.000000 0.000000 3.876640 
# 
# 
# High freq. dielectric constant tensor:
#      x y z
#    x 1.793450 0.000000 0.000000 
#    y 0.000000 1.740780 0.000000 
#    z 0.000000 0.000000 1.785660 
# 
# From -- ./inp_files/28862.got.cif
#   From: 2010.03.12/outbox.cif.g09.slc.cpg/sg66_15_cif.got.tgz:28862.got - 2010.04.10 21:57:39.
