data_PCOD8277406
_publ_section_title
;
Structure prediction by ZEFSAII (Michael W. Deem and Ramdas Pophale) SiO2 
 PCOD8277406
Probable space group: C C C M
;
_chemical_formula_sum "Si O2"
_cell_formula_units_Z 64
_cell_length_a 21.903568
_cell_length_b 8.841672
_cell_length_c 15.926381
_cell_angle_alpha 90.000000
_cell_angle_beta 90.000000
_cell_angle_gamma 90.000000
_cell_volume 3084.369260
_symmetry_space_group_name_H-M "C C C M"
_symmetry_group_IT_number 66
_symmetry_cell_setting 'orthorhombic'
loop_
_space_group_symop_operation_xyz
x,y,z
-x,-y,z
x,-y,1/2-z
-x,y,1/2-z
-x,-y,-z
x,y,-z
-x,y,1/2+z
x,-y,1/2+z
1/2+x,1/2+y,z
1/2-x,1/2-y,z
1/2+x,1/2-y,1/2-z
1/2-x,1/2+y,1/2-z
1/2-x,1/2-y,-z
1/2+x,1/2+y,-z
1/2-x,1/2+y,1/2+z
1/2+x,1/2-y,1/2+z
loop_
_atom_site_type_symbol
_atom_site_label
_atom_site_fract_x
_atom_site_fract_y
_atom_site_fract_z
Si Si1 0.984432 0.255243 0.500000
Si Si2 0.000000 0.500000 0.133598
Si Si3 0.127383 0.374517 0.332941
Si Si4 0.641101 0.359763 0.500000
Si Si5 0.817351 0.306011 0.668746
Si Si6 0.379894 0.309420 0.500000
O O1 0.974139 0.362192 0.420312
O O2 0.931905 0.131733 0.500000
O O3 0.047509 0.165161 0.500000
O O4 0.941641 0.436084 0.184437
O O5 0.175424 0.513065 0.342186
O O6 0.142644 0.267881 0.252478
O O7 0.136867 0.282888 0.417507
O O8 0.663791 0.278032 0.583609
O O9 0.659419 0.536362 0.500000
O O10 0.750000 0.250000 0.690093
#
# Coordination Sequence:
#
# PCOD8277406 Si02
#       6
#     8   8  16   8  16   8
#     4   9  17  35  63  97 130 155 205 259 324 385
#     4   9  16  37  70  99 119 158 210 272 314 385
#     4  10  22  43  68  96 127 163 219 266 326 381
#     4  12  22  41  62  92 132 175 209 260 330 372
#     4  11  25  42  63  90 125 170 222 267 309 379
#     4  10  23  38  66  97 132 165 199 265 334 398
#
# _framework density 20.749784999999999
#
# number of rings (size 3 to 8) (size 9 to 14) (size 15 to 20)
#    0.000    1.750    2.500    2.250    0.000    7.000 
#    0.000    1.875    0.000    3.000    0.000    0.000 
#    0.000    0.000    0.000    0.000    0.000    0.000 
#
# Total GULP energy -396418.475031 kJ/mol
# GULP energy per Si atom -12388.077345 kJ/mol
# Density = 2.070256 g / cm^3
# Si number density = 20.749785 Si / 1000 Ang^3
#
#
#
# Elastic Constant Matrix: (Units=GPa)
#
#
# Indices 1 2 3 4 5 6 
#
# 1 128.8224 40.4235 59.1012 0.0000 0.0000 0.0000
# 2 40.4235 98.4495 65.3529 0.0000 0.0000 0.0000
# 3 59.1012 65.3529 214.2816 0.0000 0.0000 0.0000
# 4 0.0000 0.0000 0.0000 31.9919 0.0000 0.0000
# 5 0.0000 0.0000 0.0000 0.0000 31.5186 0.0000
# 6 0.0000 0.0000 0.0000 0.0000 0.0000 32.4008
#
#
#
# Elastic Compliance Matrix: (Units=1/GPa)
#
#
# Indices 1 2 3 4 5 6 
#
# 1 0.009422 -0.002688 -0.001779 0.000000 0.000000 0.000000
# 2 -0.002688 0.013503 -0.003377 0.000000 0.000000 0.000000
# 3 -0.001779 -0.003377 0.006187 0.000000 0.000000 0.000000
# 4 0.000000 0.000000 0.000000 0.031258 0.000000 0.000000
# 5 0.000000 0.000000 0.000000 0.000000 0.031727 0.000000
# 6 0.000000 0.000000 0.000000 0.000000 0.000000 0.030863
#
#
# Mechanical properties :
#
#
# Convention : Reuss Voigt Hill
#
# Bulk Modulus (GPa) = 74.48815 85.70097 80.09456
# Shear Modulus (GPa) = 34.93494 37.62731 36.28112
#
# Velocity S-wave (km/s) = 4.10766 4.26300 4.18605
# Velocity P-wave (km/s) = 7.64679 8.10078 7.87706
#
# Compressibility (1/GPa) = 0.01342495
#
# Stress axis : x y z
#
# Youngs Moduli (GPa) = 106.13210 74.05921 161.62127
#
# Poissons Ratio (x) = 0.19906 0.28752
# Poissons Ratio (y) = 0.28527 0.54576
# Poissons Ratio (z) = 0.18881 0.25008
#
# Static dielectric constant tensor:
#      x y z
#    x 3.794420 0.000000 0.000000 
#    y 0.000000 3.615700 0.000000 
#    z 0.000000 0.000000 3.981550 
# 
# 
# High freq. dielectric constant tensor:
#      x y z
#    x 1.806820 0.000000 0.000000 
#    y 0.000000 1.794640 0.000000 
#    z 0.000000 0.000000 1.833660 
# 
# From -- ./inp_files/36428.got.cif
#   From: 2010.03.12/outbox.cif.g09.slc.cpg/sg66_19_cif.got.tgz:36428.got - 2010.04.10 21:57:39.
