data_PCOD8277133
_publ_section_title
;
Structure prediction by ZEFSAII (Michael W. Deem and Ramdas Pophale) SiO2 
 PCOD8277133
Probable space group: C C C M
;
_chemical_formula_sum "Si O2"
_cell_formula_units_Z 56
_cell_length_a 10.654918
_cell_length_b 25.523340
_cell_length_c 9.718346
_cell_angle_alpha 90.000000
_cell_angle_beta 90.000000
_cell_angle_gamma 90.000000
_cell_volume 2642.895398
_symmetry_space_group_name_H-M "C C C M"
_symmetry_group_IT_number 66
_symmetry_cell_setting 'orthorhombic'
loop_
_space_group_symop_operation_xyz
x,y,z
-x,-y,z
x,-y,1/2-z
-x,y,1/2-z
-x,-y,-z
x,y,-z
-x,y,1/2+z
x,-y,1/2+z
1/2+x,1/2+y,z
1/2-x,1/2-y,z
1/2+x,1/2-y,1/2-z
1/2-x,1/2+y,1/2-z
1/2-x,1/2-y,-z
1/2+x,1/2+y,-z
1/2-x,1/2+y,1/2+z
1/2+x,1/2-y,1/2+z
loop_
_atom_site_type_symbol
_atom_site_label
_atom_site_fract_x
_atom_site_fract_y
_atom_site_fract_z
Si Si1 0.500000 0.139633 0.250000
Si Si2 0.389115 0.594946 0.652970
Si Si3 0.238523 0.307037 0.842129
Si Si4 0.428573 0.074475 0.500000
Si Si5 0.794150 0.528556 0.000000
O O1 0.405138 0.175632 0.165788
O O2 0.417437 0.106954 0.359270
O O3 0.500000 0.573622 0.750000
O O4 0.444618 0.606114 0.500000
O O5 0.331029 0.648267 0.719765
O O6 0.279454 0.550415 0.635698
O O7 0.250000 0.250000 0.768199
O O8 0.277287 0.301455 0.000000
O O9 0.565677 0.049597 0.500000
O O10 0.310346 0.034203 0.500000
#
# Coordination Sequence:
#
# PCOD8277133 Si02
#       5
#     8  16  16   8   8
#     4  12  20  43  66 102 122 168 211 272 312 392
#     4   9  18  39  63  91 129 172 217 253 321 392
#     4  10  21  39  62  93 133 172 208 262 330 381
#     4  11  22  40  68  92 137 156 222 273 324 374
#     4   9  20  40  61  98 123 180 207 267 332 374
#
# _framework density 21.188880999999999
#
# number of rings (size 3 to 8) (size 9 to 14) (size 15 to 20)
#    0.857    1.143    4.286    0.000    2.000    2.286 
#    2.571    0.714    3.143    5.143    0.000    0.000 
#    0.000    0.000    0.000    0.000    0.000    0.000 
#
# Total GULP energy -346887.767354 kJ/mol
# GULP energy per Si atom -12388.848834 kJ/mol
# Density = 2.114065 g / cm^3
# Si number density = 21.188881 Si / 1000 Ang^3
#
#
#
# Elastic Constant Matrix: (Units=GPa)
#
#
# Indices 1 2 3 4 5 6 
#
# 1 107.8059 59.8249 26.3464 0.0000 0.0000 0.0000
# 2 59.8249 151.9510 37.0333 0.0000 0.0000 0.0000
# 3 26.3464 37.0333 63.8479 0.0000 0.0000 0.0000
# 4 0.0000 0.0000 0.0000 7.8153 0.0000 0.0000
# 5 0.0000 0.0000 0.0000 0.0000 37.8359 0.0000
# 6 0.0000 0.0000 0.0000 0.0000 0.0000 17.8301
#
#
#
# Elastic Compliance Matrix: (Units=1/GPa)
#
#
# Indices 1 2 3 4 5 6 
#
# 1 0.012236 -0.004177 -0.002626 0.000000 0.000000 0.000000
# 2 -0.004177 0.009091 -0.003549 0.000000 0.000000 0.000000
# 3 -0.002626 -0.003549 0.018804 0.000000 0.000000 0.000000
# 4 0.000000 0.000000 0.000000 0.127954 0.000000 0.000000
# 5 0.000000 0.000000 0.000000 0.000000 0.026430 0.000000
# 6 0.000000 0.000000 0.000000 0.000000 0.000000 0.056085
#
#
# Mechanical properties :
#
#
# Convention : Reuss Voigt Hill
#
# Bulk Modulus (GPa) = 51.47753 63.33489 57.40621
# Shear Modulus (GPa) = 17.99982 26.05627 22.02804
#
# Velocity S-wave (km/s) = 2.91777 3.51053 3.22779
# Velocity P-wave (km/s) = 5.97482 6.81082 6.40647
#
# Compressibility (1/GPa) = 0.01942595
#
# Stress axis : x y z
#
# Youngs Moduli (GPa) = 81.72698 110.00222 53.17909
#
# Poissons Ratio (x) = 0.45952 0.13965
# Poissons Ratio (y) = 0.34140 0.18874
# Poissons Ratio (z) = 0.21462 0.39041
#
# Static dielectric constant tensor:
#      x y z
#    x 3.547290 0.000000 0.000000 
#    y 0.000000 4.256230 0.000000 
#    z 0.000000 0.000000 3.742860 
# 
# 
# High freq. dielectric constant tensor:
#      x y z
#    x 1.818410 0.000000 0.000000 
#    y 0.000000 1.830770 0.000000 
#    z 0.000000 0.000000 1.799930 
# 
# From -- ./inp_files/3768.got.cif
#   From: 2010.03.12/outbox.cif.g09.slc.cpg/sg66_2_cif.got.tgz:3768.got - 2010.04.10 21:57:39.
