data_PCOD8277744
_publ_section_title
;
Structure prediction by ZEFSAII (Michael W. Deem and Ramdas Pophale) SiO2 
 PCOD8277744
Probable space group: C C C M
;
_chemical_formula_sum "Si O2"
_cell_formula_units_Z 68
_cell_length_a 22.252244
_cell_length_b 15.927084
_cell_length_c 8.519185
_cell_angle_alpha 90.000000
_cell_angle_beta 90.000000
_cell_angle_gamma 90.000000
_cell_volume 3019.312975
_symmetry_space_group_name_H-M "C C C M"
_symmetry_group_IT_number 66
_symmetry_cell_setting 'orthorhombic'
loop_
_space_group_symop_operation_xyz
x,y,z
-x,-y,z
x,-y,1/2-z
-x,y,1/2-z
-x,-y,-z
x,y,-z
-x,y,1/2+z
x,-y,1/2+z
1/2+x,1/2+y,z
1/2-x,1/2-y,z
1/2+x,1/2-y,1/2-z
1/2-x,1/2+y,1/2-z
1/2-x,1/2-y,-z
1/2+x,1/2+y,-z
1/2-x,1/2+y,1/2+z
1/2+x,1/2-y,1/2+z
loop_
_atom_site_type_symbol
_atom_site_label
_atom_site_fract_x
_atom_site_fract_y
_atom_site_fract_z
Si Si1 0.500000 0.500000 0.750000
Si Si2 0.060638 0.684927 0.181568
Si Si3 0.583104 0.351815 0.672805
Si Si4 0.172006 0.591908 0.684448
Si Si5 0.205746 0.092667 0.685154
O O1 0.545136 0.438466 0.656941
O O2 0.054910 0.785891 0.204451
O O3 0.116555 0.652370 0.280603
O O4 0.000000 0.642748 0.250000
O O5 0.068107 0.662093 0.000000
O O6 0.584118 0.311019 0.500000
O O7 0.651192 0.364851 0.725821
O O8 0.156468 0.500000 0.750000
O O9 0.184205 0.585701 0.500000
O O10 0.230128 0.634256 0.769734
O O11 0.193897 0.095524 0.500000
O O12 0.212487 0.000000 0.750000
#
# Coordination Sequence:
#
# PCOD8277744 Si02
#       5
#     4  16  16  16  16
#     4  12  26  40  72  98 140 176 228 260 322 376
#     4  12  26  45  67  97 134 172 218 272 330 391
#     4  12  25  42  66  98 135 177 224 272 325 386
#     4  11  23  44  71  99 131 170 218 271 331 393
#     4  11  22  39  64  96 132 173 221 272 326 388
#
# _framework density 22.52168
#
# number of rings (size 3 to 8) (size 9 to 14) (size 15 to 20)
#    0.000    0.471    2.353    8.824    0.000    3.294 
#    0.000    7.059    0.000    0.000    0.000    0.000 
#    0.000    0.000    0.000    0.000    0.000    0.000 
#
# Total GULP energy -421540.645477 kJ/mol
# GULP energy per Si atom -12398.254279 kJ/mol
# Density = 2.247042 g / cm^3
# Si number density = 22.521680 Si / 1000 Ang^3
#
#
#
# Elastic Constant Matrix: (Units=GPa)
#
#
# Indices 1 2 3 4 5 6 
#
# 1 159.1124 23.3671 20.8564 0.0000 0.0000 0.0000
# 2 23.3671 52.3748 6.5169 0.0000 0.0000 0.0000
# 3 20.8564 6.5169 134.7374 0.0000 0.0000 0.0000
# 4 0.0000 0.0000 0.0000 30.1112 0.0000 0.0000
# 5 0.0000 0.0000 0.0000 0.0000 27.7268 0.0000
# 6 0.0000 0.0000 0.0000 0.0000 0.0000 36.5215
#
#
#
# Elastic Compliance Matrix: (Units=1/GPa)
#
#
# Indices 1 2 3 4 5 6 
#
# 1 0.006836 -0.002936 -0.000916 0.000000 0.000000 0.000000
# 2 -0.002936 0.020470 -0.000536 0.000000 0.000000 0.000000
# 3 -0.000916 -0.000536 0.007590 0.000000 0.000000 0.000000
# 4 0.000000 0.000000 0.000000 0.033210 0.000000 0.000000
# 5 0.000000 0.000000 0.000000 0.000000 0.036066 0.000000
# 6 0.000000 0.000000 0.000000 0.000000 0.000000 0.027381
#
#
# Mechanical properties :
#
#
# Convention : Reuss Voigt Hill
#
# Bulk Modulus (GPa) = 38.28496 49.74505 44.01501
# Shear Modulus (GPa) = 33.54916 38.57085 36.06000
#
# Velocity S-wave (km/s) = 3.86377 4.14286 4.00575
# Velocity P-wave (km/s) = 6.07791 6.70969 6.40160
#
# Compressibility (1/GPa) = 0.02611992
#
# Stress axis : x y z
#
# Youngs Moduli (GPa) = 146.28161 48.85270 131.75982
#
# Poissons Ratio (x) = 0.14343 0.12072
# Poissons Ratio (y) = 0.42948 0.07057
# Poissons Ratio (z) = 0.13402 0.02617
#
# Static dielectric constant tensor:
#      x y z
#    x 4.950100 0.000000 0.000000 
#    y 0.000000 3.777370 0.000000 
#    z 0.000000 0.000000 3.965940 
# 
# 
# High freq. dielectric constant tensor:
#      x y z
#    x 1.918890 0.000000 0.000000 
#    y 0.000000 1.864510 0.000000 
#    z 0.000000 0.000000 1.896580 
# 
# From -- ./inp_files/6277.got.cif
#   From: 2010.03.12/outbox.cif.g09.slc.cpg/sg66_4_cif.got.tgz:6277.got - 2010.04.10 21:57:39.
