data_PCOD8277072
_publ_section_title
;
Structure prediction by ZEFSAII (Michael W. Deem and Ramdas Pophale) SiO2 
 PCOD8277072
Probable space group: C C C M
;
_chemical_formula_sum "Si O2"
_cell_formula_units_Z 64
_cell_length_a 9.981029
_cell_length_b 11.915736
_cell_length_c 25.462509
_cell_angle_alpha 90.000000
_cell_angle_beta 90.000000
_cell_angle_gamma 90.000000
_cell_volume 3028.289464
_symmetry_space_group_name_H-M "C C C M"
_symmetry_group_IT_number 66
_symmetry_cell_setting 'orthorhombic'
loop_
_space_group_symop_operation_xyz
x,y,z
-x,-y,z
x,-y,1/2-z
-x,y,1/2-z
-x,-y,-z
x,y,-z
-x,y,1/2+z
x,-y,1/2+z
1/2+x,1/2+y,z
1/2-x,1/2-y,z
1/2+x,1/2-y,1/2-z
1/2-x,1/2+y,1/2-z
1/2-x,1/2-y,-z
1/2+x,1/2+y,-z
1/2-x,1/2+y,1/2+z
1/2+x,1/2-y,1/2+z
loop_
_atom_site_type_symbol
_atom_site_label
_atom_site_fract_x
_atom_site_fract_y
_atom_site_fract_z
Si Si1 0.250000 0.750000 0.265636
Si Si2 0.843891 0.989333 0.558486
Si Si3 0.794253 0.569010 0.840439
Si Si4 0.588291 0.838617 0.324022
Si Si5 0.750000 0.250000 0.088001
O O1 0.297975 0.645230 0.302628
O O2 0.381673 0.774030 0.230216
O O3 0.823145 0.039871 0.500000
O O4 0.787847 0.861105 0.555061
O O5 0.759670 0.065223 0.599670
O O6 0.000000 0.000000 0.574386
O O7 0.807871 0.442867 0.820170
O O8 0.937269 0.627977 0.833435
O O9 0.621093 0.766093 0.375081
#
# Coordination Sequence:
#
# PCOD8277072 Si02
#       5
#     8  16  16  16   8
#     4  11  20  32  62  88 118 162 200 251 310 372
#     4  10  22  41  63  92 127 164 213 271 324 382
#     4  10  21  38  60  88 123 161 206 255 310 382
#     4   9  20  39  59  88 123 160 204 253 309 382
#     4   9  19  38  67  88 123 162 203 261 318 374
#
# _framework density 21.134043999999999
#
# number of rings (size 3 to 8) (size 9 to 14) (size 15 to 20)
#    0.000    2.250    0.000    1.875    3.500    2.000 
#    4.500   11.875    0.000    0.000    0.000    0.000 
#    0.000    0.000    0.000    0.000    0.000    0.000 
#
# Total GULP energy -396430.622333 kJ/mol
# GULP energy per Si atom -12388.456948 kJ/mol
# Density = 2.108594 g / cm^3
# Si number density = 21.134044 Si / 1000 Ang^3
#
#
#
# Elastic Constant Matrix: (Units=GPa)
#
#
# Indices 1 2 3 4 5 6 
#
# 1 85.9529 39.3235 67.4232 0.0000 0.0000 0.0000
# 2 39.3235 62.7792 54.6460 0.0000 0.0000 0.0000
# 3 67.4232 54.6460 165.9609 0.0000 0.0000 0.0000
# 4 0.0000 0.0000 0.0000 10.3391 0.0000 0.0000
# 5 0.0000 0.0000 0.0000 0.0000 509.4675 0.0000
# 6 0.0000 0.0000 0.0000 0.0000 0.0000 32.4472
#
#
#
# Elastic Compliance Matrix: (Units=1/GPa)
#
#
# Indices 1 2 3 4 5 6 
#
# 1 0.019225 -0.007350 -0.005390 0.000000 0.000000 0.000000
# 2 -0.007350 0.025139 -0.005291 0.000000 0.000000 0.000000
# 3 -0.005390 -0.005291 0.009958 0.000000 0.000000 0.000000
# 4 0.000000 0.000000 0.000000 0.096720 0.000000 0.000000
# 5 0.000000 0.000000 0.000000 0.000000 0.001963 0.000000
# 6 0.000000 0.000000 0.000000 0.000000 0.000000 0.030819
#
#
# Mechanical properties :
#
#
# Convention : Reuss Voigt Hill
#
# Bulk Modulus (GPa) = 54.77085 70.83092 62.80088
# Shear Modulus (GPa) = 22.12651 120.67080 71.39865
#
# Velocity S-wave (km/s) = 3.23919 7.56451 5.81868
# Velocity P-wave (km/s) = 6.32155 10.48254 8.65579
#
# Compressibility (1/GPa) = 0.01825789
#
# Stress axis : x y z
#
# Youngs Moduli (GPa) = 52.01486 39.77926 100.42589
#
# Poissons Ratio (x) = 0.29239 0.54131
# Poissons Ratio (y) = 0.38233 0.53138
# Poissons Ratio (z) = 0.28037 0.21048
#
# Static dielectric constant tensor:
#      x y z
#    x 3.653090 0.000000 0.000000 
#    y 0.000000 4.072620 0.000000 
#    z 0.000000 0.000000 3.910210 
# 
# 
# High freq. dielectric constant tensor:
#      x y z
#    x 1.815340 0.000000 0.000000 
#    y 0.000000 1.826000 0.000000 
#    z 0.000000 0.000000 1.834980 
# 
# From -- ./inp_files/63327.got.cif
#   From: 2010.03.12/outbox.cif.g09.slc.cpg/sg66_32_cif.got.tgz:63327.got - 2010.04.10 21:57:39.
