data_PCOD8277317
_publ_section_title
;
Structure prediction by ZEFSAII (Michael W. Deem and Ramdas Pophale) SiO2 
 PCOD8277317
Probable space group: C C C M
;
_chemical_formula_sum "Si O2"
_cell_formula_units_Z 88
_cell_length_a 8.408451
_cell_length_b 17.596781
_cell_length_c 29.450106
_cell_angle_alpha 90.000000
_cell_angle_beta 90.000000
_cell_angle_gamma 90.000000
_cell_volume 4357.486889
_symmetry_space_group_name_H-M "C C C M"
_symmetry_group_IT_number 66
_symmetry_cell_setting 'orthorhombic'
loop_
_space_group_symop_operation_xyz
x,y,z
-x,-y,z
x,-y,1/2-z
-x,y,1/2-z
-x,-y,-z
x,y,-z
-x,y,1/2+z
x,-y,1/2+z
1/2+x,1/2+y,z
1/2-x,1/2-y,z
1/2+x,1/2-y,1/2-z
1/2-x,1/2+y,1/2-z
1/2-x,1/2-y,-z
1/2+x,1/2+y,-z
1/2-x,1/2+y,1/2+z
1/2+x,1/2-y,1/2+z
loop_
_atom_site_type_symbol
_atom_site_label
_atom_site_fract_x
_atom_site_fract_y
_atom_site_fract_z
Si Si1 0.403309 0.881425 0.917465
Si Si2 0.831467 0.973048 0.698629
Si Si3 0.577317 0.616556 0.000000
Si Si4 0.000000 0.500000 0.649207
Si Si5 0.160533 0.176432 0.651983
Si Si6 0.742576 0.034762 0.000000
Si Si7 0.076967 0.770837 0.416145
O O1 0.241339 0.859577 0.892451
O O2 0.484542 0.803811 0.935094
O O3 0.515085 0.924522 0.881344
O O4 0.361908 0.940381 0.957114
O O5 0.665654 0.002258 0.677166
O O6 0.841872 0.881783 0.693997
O O7 0.829265 0.000000 0.750000
O O8 0.000000 0.000000 0.675556
O O9 0.586753 0.667188 0.955421
O O10 0.409933 0.575788 0.000000
O O11 0.724198 0.556119 0.000000
O O12 0.250000 0.250000 0.671239
O O13 0.990364 0.198921 0.631773
O O14 0.250000 0.750000 0.400648
#
# Coordination Sequence:
#
# PCOD8277317 Si02
#       7
#    16  16   8   8  16   8  16
#     4  10  22  39  62  86 122 175 211 264 321 370
#     4  10  22  41  73  98 128 163 204 265 330 400
#     4  11  24  38  57  89 126 167 229 276 319 365
#     4  10  23  41  66  98 126 162 220 261 321 392
#     4   9  20  40  64  91 127 165 211 259 323 389
#     4  11  23  39  61  85 124 171 217 277 323 369
#     4  11  23  37  59  90 126 171 217 265 316 378
#
# _framework density 20.195126999999999
#
# number of rings (size 3 to 8) (size 9 to 14) (size 15 to 20)
#    0.000    1.818    1.818    1.091    5.091    2.545 
#    0.000    0.000   24.000    0.000    0.000    0.000 
#    0.000    0.000    0.000    0.000    0.000    0.000 
#
# Total GULP energy -545274.564977 kJ/mol
# GULP energy per Si atom -12392.603749 kJ/mol
# Density = 2.014916 g / cm^3
# Si number density = 20.195127 Si / 1000 Ang^3
#
#
#
# Elastic Constant Matrix: (Units=GPa)
#
#
# Indices 1 2 3 4 5 6 
#
# 1 144.1436 59.6269 50.5007 0.0000 0.0000 0.0000
# 2 59.6269 160.3883 75.8792 0.0000 0.0000 0.0000
# 3 50.5007 75.8792 99.0501 0.0000 0.0000 0.0000
# 4 0.0000 0.0000 0.0000 43.5915 0.0000 0.0000
# 5 0.0000 0.0000 0.0000 0.0000 16.0694 0.0000
# 6 0.0000 0.0000 0.0000 0.0000 0.0000 29.1082
#
#
#
# Elastic Compliance Matrix: (Units=1/GPa)
#
#
# Indices 1 2 3 4 5 6 
#
# 1 0.008764 -0.001795 -0.003093 0.000000 0.000000 0.000000
# 2 -0.001795 0.010146 -0.006858 0.000000 0.000000 0.000000
# 3 -0.003093 -0.006858 0.016927 0.000000 0.000000 0.000000
# 4 0.000000 0.000000 0.000000 0.022940 0.000000 0.000000
# 5 0.000000 0.000000 0.000000 0.000000 0.062230 0.000000
# 6 0.000000 0.000000 0.000000 0.000000 0.000000 0.034355
#
#
# Mechanical properties :
#
#
# Convention : Reuss Voigt Hill
#
# Bulk Modulus (GPa) = 81.00406 86.17730 83.59068
# Shear Modulus (GPa) = 27.32708 32.25884 29.79296
#
# Velocity S-wave (km/s) = 3.68251 4.00103 3.84507
# Velocity P-wave (km/s) = 7.63407 8.00683 7.82267
#
# Compressibility (1/GPa) = 0.01234506
#
# Stress axis : x y z
#
# Youngs Moduli (GPa) = 114.10791 98.55616 59.07811
#
# Poissons Ratio (x) = 0.17686 0.18275
# Poissons Ratio (y) = 0.20477 0.40516
# Poissons Ratio (z) = 0.35298 0.67589
#
# Static dielectric constant tensor:
#      x y z
#    x 3.987830 0.000000 0.000000 
#    y 0.000000 10.199210 0.000000 
#    z 0.000000 0.000000 3.314900 
# 
# 
# High freq. dielectric constant tensor:
#      x y z
#    x 1.805150 0.000000 0.000000 
#    y 0.000000 1.803840 0.000000 
#    z 0.000000 0.000000 1.761330 
# 
# From -- ./inp_files/68203.got.cif
#   From: 2010.03.12/outbox.cif.g09.slc.cpg/sg66_35_cif.got.tgz:68203.got - 2010.04.10 21:57:39.
