data_PCOD8277509
_publ_section_title
;
Structure prediction by ZEFSAII (Michael W. Deem and Ramdas Pophale) SiO2 
 PCOD8277509
Probable space group: C C C M
;
_chemical_formula_sum "Si O2"
_cell_formula_units_Z 72
_cell_length_a 25.108234
_cell_length_b 9.971269
_cell_length_c 14.208444
_cell_angle_alpha 90.000000
_cell_angle_beta 90.000000
_cell_angle_gamma 90.000000
_cell_volume 3557.239614
_symmetry_space_group_name_H-M "C C C M"
_symmetry_group_IT_number 66
_symmetry_cell_setting 'orthorhombic'
loop_
_space_group_symop_operation_xyz
x,y,z
-x,-y,z
x,-y,1/2-z
-x,y,1/2-z
-x,-y,-z
x,y,-z
-x,y,1/2+z
x,-y,1/2+z
1/2+x,1/2+y,z
1/2-x,1/2-y,z
1/2+x,1/2-y,1/2-z
1/2-x,1/2+y,1/2-z
1/2-x,1/2-y,-z
1/2+x,1/2+y,-z
1/2-x,1/2+y,1/2+z
1/2+x,1/2-y,1/2+z
loop_
_atom_site_type_symbol
_atom_site_label
_atom_site_fract_x
_atom_site_fract_y
_atom_site_fract_z
Si Si1 0.795759 0.000000 0.250000
Si Si2 0.543612 0.187959 0.107197
Si Si3 0.072366 0.618540 0.392606
Si Si4 0.779942 0.389537 0.105217
Si Si5 0.865269 0.738570 0.269556
O O1 0.758215 0.003554 0.157518
O O2 0.831944 0.130756 0.256197
O O3 0.481034 0.205359 0.129792
O O4 0.580499 0.279455 0.174653
O O5 0.559567 0.035137 0.127692
O O6 0.555453 0.228825 0.000000
O O7 0.089713 0.640725 0.500000
O O8 0.120862 0.666992 0.328399
O O9 0.750000 0.250000 0.096893
O O10 0.833447 0.366539 0.164944
O O11 0.794061 0.442684 0.000000
#
# Coordination Sequence:
#
# PCOD8277509 Si02
#       5
#     8  16  16  16  16
#     4  10  24  38  53  82 113 142 190 240 276 336
#     4   9  18  34  57  85 111 143 188 230 271 329
#     4   9  19  34  55  86 117 141 179 233 282 328
#     4   9  20  39  58  76 103 144 191 232 271 326
#     4  11  20  35  58  82 110 149 185 227 286 340
#
# _framework density 20.240414000000001
#
# number of rings (size 3 to 8) (size 9 to 14) (size 15 to 20)
#    0.000    2.444    0.000    3.333    3.111    3.556 
#    0.000    2.222    0.000    6.667    0.000    0.000 
#    0.000    0.000    0.000    0.000    0.000    0.000 
#
# Total GULP energy -446308.313080 kJ/mol
# GULP energy per Si atom -12397.453141 kJ/mol
# Density = 2.019435 g / cm^3
# Si number density = 20.240414 Si / 1000 Ang^3
#
#
#
# Elastic Constant Matrix: (Units=GPa)
#
#
# Indices 1 2 3 4 5 6 
#
# 1 105.2713 31.5099 76.7305 0.0000 0.0000 0.0000
# 2 31.5099 44.8100 44.9850 0.0000 0.0000 0.0000
# 3 76.7305 44.9850 160.8381 0.0000 0.0000 0.0000
# 4 0.0000 0.0000 0.0000 23.0273 0.0000 0.0000
# 5 0.0000 0.0000 0.0000 0.0000 39.6817 0.0000
# 6 0.0000 0.0000 0.0000 0.0000 0.0000 34.3209
#
#
#
# Elastic Compliance Matrix: (Units=1/GPa)
#
#
# Indices 1 2 3 4 5 6 
#
# 1 0.015260 -0.004758 -0.005949 0.000000 0.000000 0.000000
# 2 -0.004758 0.032512 -0.006824 0.000000 0.000000 0.000000
# 3 -0.005949 -0.006824 0.010964 0.000000 0.000000 0.000000
# 4 0.000000 0.000000 0.000000 0.043427 0.000000 0.000000
# 5 0.000000 0.000000 0.000000 0.000000 0.025201 0.000000
# 6 0.000000 0.000000 0.000000 0.000000 0.000000 0.029137
#
#
# Mechanical properties :
#
#
# Convention : Reuss Voigt Hill
#
# Bulk Modulus (GPa) = 42.23910 68.59668 55.41789
# Shear Modulus (GPa) = 25.06855 29.91891 27.49373
#
# Velocity S-wave (km/s) = 3.52311 3.84888 3.68959
# Velocity P-wave (km/s) = 6.12076 7.32914 6.75204
#
# Compressibility (1/GPa) = 0.02367475
#
# Stress axis : x y z
#
# Youngs Moduli (GPa) = 65.53238 30.75743 91.20743
#
# Poissons Ratio (x) = 0.14635 0.54260
# Poissons Ratio (y) = 0.31181 0.62236
# Poissons Ratio (z) = 0.38986 0.20987
#
# Static dielectric constant tensor:
#      x y z
#    x 4.100750 0.000000 0.000000 
#    y 0.000000 3.143820 0.000000 
#    z 0.000000 0.000000 3.954580 
# 
# 
# High freq. dielectric constant tensor:
#      x y z
#    x 1.809510 0.000000 0.000000 
#    y 0.000000 1.729680 0.000000 
#    z 0.000000 0.000000 1.806320 
# 
# From -- ./inp_files/32025.got.cif
#   From: 2010.03.12/outbox.cif.g09.slc.cpg/sg66_17_cif.got.tgz:32025.got - 2010.04.10 21:57:39.
