data_PCOD8277154
_publ_section_title
;
Structure prediction by ZEFSAII (Michael W. Deem and Ramdas Pophale) SiO2 
 PCOD8277154
Probable space group: C C C M
;
_chemical_formula_sum "Si O2"
_cell_formula_units_Z 80
_cell_length_a 17.514451
_cell_length_b 8.681300
_cell_length_c 25.498023
_cell_angle_alpha 90.000000
_cell_angle_beta 90.000000
_cell_angle_gamma 90.000000
_cell_volume 3876.928589
_symmetry_space_group_name_H-M "C C C M"
_symmetry_group_IT_number 66
_symmetry_cell_setting 'orthorhombic'
loop_
_space_group_symop_operation_xyz
x,y,z
-x,-y,z
x,-y,1/2-z
-x,y,1/2-z
-x,-y,-z
x,y,-z
-x,y,1/2+z
x,-y,1/2+z
1/2+x,1/2+y,z
1/2-x,1/2-y,z
1/2+x,1/2-y,1/2-z
1/2-x,1/2+y,1/2-z
1/2-x,1/2-y,-z
1/2+x,1/2+y,-z
1/2-x,1/2+y,1/2+z
1/2+x,1/2-y,1/2+z
loop_
_atom_site_type_symbol
_atom_site_label
_atom_site_fract_x
_atom_site_fract_y
_atom_site_fract_z
Si Si1 0.020799 0.675928 0.194717
Si Si2 0.227347 0.928732 0.000000
Si Si3 0.575201 0.593732 0.000000
Si Si4 0.064124 0.128072 0.112004
Si Si5 0.732910 0.428933 0.389406
Si Si6 0.690718 0.883471 0.701705
O O1 0.111029 0.697569 0.185221
O O2 0.000000 0.500000 0.198340
O O3 0.000000 0.758315 0.250000
O O4 0.964969 0.739320 0.149877
O O5 0.250000 0.750000 0.000000
O O6 0.136960 0.955934 0.000000
O O7 0.257710 0.009762 0.053065
O O8 0.500000 0.500000 0.000000
O O9 0.578937 0.696996 0.052945
O O10 0.144378 0.049747 0.128041
O O11 0.000000 0.000000 0.111670
O O12 0.750000 0.250000 0.386160
O O13 0.782717 0.523243 0.348654
O O14 0.750000 0.750000 0.717822
O O15 0.678678 0.000000 0.750000
#
# Coordination Sequence:
#
# PCOD8277154 Si02
#       6
#    16   8   8  16  16  16
#     4  11  23  42  60  85 123 163 201 257 320 364
#     4  10  21  39  64  95 131 168 211 256 312 375
#     4   8  18  37  61  89 121 158 202 256 300 355
#     4  10  21  40  64  90 121 163 208 254 308 373
#     4  11  23  40  65  95 129 165 209 262 314 372
#     4  12  25  41  62  90 123 165 211 260 317 378
#
# _framework density 20.634889999999999
#
# number of rings (size 3 to 8) (size 9 to 14) (size 15 to 20)
#    0.000    1.400    2.000    3.900    2.800    3.600 
#    0.000    0.500    0.000    0.000    0.000    0.000 
#    0.000    0.000    0.000    0.000    0.000    0.000 
#
# Total GULP energy -495703.185958 kJ/mol
# GULP energy per Si atom -12392.579649 kJ/mol
# Density = 2.058792 g / cm^3
# Si number density = 20.634890 Si / 1000 Ang^3
#
#
#
# Elastic Constant Matrix: (Units=GPa)
#
#
# Indices 1 2 3 4 5 6 
#
# 1 130.3332 25.7944 61.1651 0.0000 0.0000 0.0000
# 2 25.7944 77.5533 46.8280 0.0000 0.0000 0.0000
# 3 61.1651 46.8280 169.2297 0.0000 0.0000 0.0000
# 4 0.0000 0.0000 0.0000 69.0242 0.0000 0.0000
# 5 0.0000 0.0000 0.0000 0.0000 52.9821 0.0000
# 6 0.0000 0.0000 0.0000 0.0000 0.0000 30.0990
#
#
#
# Elastic Compliance Matrix: (Units=1/GPa)
#
#
# Indices 1 2 3 4 5 6 
#
# 1 0.009345 -0.001283 -0.003023 0.000000 0.000000 0.000000
# 2 -0.001283 0.015657 -0.003869 0.000000 0.000000 0.000000
# 3 -0.003023 -0.003869 0.008072 0.000000 0.000000 0.000000
# 4 0.000000 0.000000 0.000000 0.014488 0.000000 0.000000
# 5 0.000000 0.000000 0.000000 0.000000 0.018874 0.000000
# 6 0.000000 0.000000 0.000000 0.000000 0.000000 0.033224
#
#
# Mechanical properties :
#
#
# Convention : Reuss Voigt Hill
#
# Bulk Modulus (GPa) = 59.78917 71.63237 65.71077
# Shear Modulus (GPa) = 41.12381 46.64297 43.88339
#
# Velocity S-wave (km/s) = 4.46906 4.75952 4.61658
# Velocity P-wave (km/s) = 7.46108 8.06186 7.76728
#
# Compressibility (1/GPa) = 0.01672544
#
# Stress axis : x y z
#
# Youngs Moduli (GPa) = 107.00832 63.86857 123.88329
#
# Poissons Ratio (x) = 0.08195 0.37444
# Poissons Ratio (y) = 0.13730 0.47928
# Poissons Ratio (z) = 0.32344 0.24709
#
# Static dielectric constant tensor:
#      x y z
#    x 4.566300 0.000000 0.000000 
#    y 0.000000 2.759000 0.000000 
#    z 0.000000 0.000000 5.750290 
# 
# 
# High freq. dielectric constant tensor:
#      x y z
#    x 1.827570 0.000000 0.000000 
#    y 0.000000 1.781330 0.000000 
#    z 0.000000 0.000000 1.827600 
# 
# From -- ./inp_files/65128.got.cif
#   From: 2010.03.12/outbox.cif.g09.slc.cpg/sg66_33_cif.got.tgz:65128.got - 2010.04.10 21:57:39.
