data_PCOD8277822
_publ_section_title
;
Structure prediction by ZEFSAII (Michael W. Deem and Ramdas Pophale) SiO2 
 PCOD8277822
Probable space group: C C C M
;
_chemical_formula_sum "Si O2"
_cell_formula_units_Z 104
_cell_length_a 20.942515
_cell_length_b 9.187118
_cell_length_c 25.277793
_cell_angle_alpha 90.000000
_cell_angle_beta 90.000000
_cell_angle_gamma 90.000000
_cell_volume 4863.481663
_symmetry_space_group_name_H-M "C C C M"
_symmetry_group_IT_number 66
_symmetry_cell_setting 'orthorhombic'
loop_
_space_group_symop_operation_xyz
x,y,z
-x,-y,z
x,-y,1/2-z
-x,y,1/2-z
-x,-y,-z
x,y,-z
-x,y,1/2+z
x,-y,1/2+z
1/2+x,1/2+y,z
1/2-x,1/2-y,z
1/2+x,1/2-y,1/2-z
1/2-x,1/2+y,1/2-z
1/2-x,1/2-y,-z
1/2+x,1/2+y,-z
1/2-x,1/2+y,1/2+z
1/2+x,1/2-y,1/2+z
loop_
_atom_site_type_symbol
_atom_site_label
_atom_site_fract_x
_atom_site_fract_y
_atom_site_fract_z
Si Si1 0.676446 0.073698 0.940317
Si Si2 0.386778 0.723430 0.854364
Si Si3 0.526588 0.338811 0.349326
Si Si4 0.382841 0.759695 0.557859
Si Si5 0.801377 0.980910 0.099484
Si Si6 0.367594 0.332190 0.761429
Si Si7 0.250000 0.750000 0.325570
O O1 0.641236 0.167362 0.896729
O O2 0.653227 0.909546 0.931706
O O3 0.753239 0.088009 0.931550
O O4 0.660512 0.127561 0.000000
O O5 0.462110 0.753406 0.851679
O O6 0.360875 0.562284 0.871450
O O7 0.367365 0.752913 0.794040
O O8 0.500000 0.500000 0.358246
O O9 0.566549 0.274930 0.397414
O O10 0.565463 0.326183 0.294061
O O11 0.416057 0.759987 0.500000
O O12 0.329586 0.634057 0.558252
O O13 0.756360 0.898377 0.141474
O O14 0.349722 0.500000 0.750000
O O15 0.314415 0.240676 0.792006
#
# Coordination Sequence:
#
# PCOD8277822 Si02
#       7
#    16  16  16  16  16  16   8
#     4  11  26  46  67  99 145 186 227 290 356 411
#     4  12  27  41  69 103 137 182 231 285 350 411
#     4  12  22  45  70 101 134 180 234 283 336 415
#     4  11  23  43  71  99 132 184 235 283 344 412
#     4  12  21  44  68 100 135 182 233 286 341 411
#     4  12  23  41  69 103 134 182 224 286 348 405
#     4  12  22  38  69 102 137 166 236 280 336 416
#
# _framework density 21.383858
#
# number of rings (size 3 to 8) (size 9 to 14) (size 15 to 20)
#    0.000    0.308    7.692    1.385    2.154    4.615 
#    0.000    3.846    0.000    3.692    0.000    0.000 
#    0.000    0.000    0.000    0.000    0.000    0.000 
#
# Total GULP energy -644419.299593 kJ/mol
# GULP energy per Si atom -12392.678838 kJ/mol
# Density = 2.133519 g / cm^3
# Si number density = 21.383858 Si / 1000 Ang^3
#
#
#
# Elastic Constant Matrix: (Units=GPa)
#
#
# Indices 1 2 3 4 5 6 
#
# 1 118.9452 25.4435 47.1055 0.0000 0.0000 0.0000
# 2 25.4435 50.2864 36.2907 0.0000 0.0000 0.0000
# 3 47.1055 36.2907 154.6465 0.0000 0.0000 0.0000
# 4 0.0000 0.0000 0.0000 31.2037 0.0000 0.0000
# 5 0.0000 0.0000 0.0000 0.0000 13.9457 0.0000
# 6 0.0000 0.0000 0.0000 0.0000 0.0000 26.9558
#
#
#
# Elastic Compliance Matrix: (Units=1/GPa)
#
#
# Indices 1 2 3 4 5 6 
#
# 1 0.010036 -0.003457 -0.002246 0.000000 0.000000 0.000000
# 2 -0.003457 0.025132 -0.004844 0.000000 0.000000 0.000000
# 3 -0.002246 -0.004844 0.008287 0.000000 0.000000 0.000000
# 4 0.000000 0.000000 0.000000 0.032047 0.000000 0.000000
# 5 0.000000 0.000000 0.000000 0.000000 0.071707 0.000000
# 6 0.000000 0.000000 0.000000 0.000000 0.000000 0.037098
#
#
# Mechanical properties :
#
#
# Convention : Reuss Voigt Hill
#
# Bulk Modulus (GPa) = 44.72282 60.17305 52.44793
# Shear Modulus (GPa) = 23.49015 28.75694 26.12355
#
# Velocity S-wave (km/s) = 3.31796 3.67113 3.49900
# Velocity P-wave (km/s) = 5.96977 6.79486 6.39563
#
# Compressibility (1/GPa) = 0.02235995
#
# Stress axis : x y z
#
# Youngs Moduli (GPa) = 99.63986 39.79057 120.66727
#
# Poissons Ratio (x) = 0.13757 0.27098
# Poissons Ratio (y) = 0.34449 0.58457
# Poissons Ratio (z) = 0.22376 0.19277
#
# Static dielectric constant tensor:
#      x y z
#    x 4.363730 0.000000 0.000000 
#    y 0.000000 3.715460 0.000000 
#    z 0.000000 0.000000 4.131900 
# 
# 
# High freq. dielectric constant tensor:
#      x y z
#    x 1.846360 0.000000 0.000000 
#    y 0.000000 1.822090 0.000000 
#    z 0.000000 0.000000 1.858060 
# 
# From -- ./inp_files/65740.got.cif
#   From: 2010.03.12/outbox.cif.g09.slc.cpg/sg66_33_cif.got.tgz:65740.got - 2010.04.10 21:57:39.
