data_PCOD8277671
_publ_section_title
;
Structure prediction by ZEFSAII (Michael W. Deem and Ramdas Pophale) SiO2 
 PCOD8277671
Probable space group: C C C M
;
_chemical_formula_sum "Si O2"
_cell_formula_units_Z 104
_cell_length_a 22.648658
_cell_length_b 8.480916
_cell_length_c 28.224098
_cell_angle_alpha 90.000000
_cell_angle_beta 90.000000
_cell_angle_gamma 90.000000
_cell_volume 5421.323298
_symmetry_space_group_name_H-M "C C C M"
_symmetry_group_IT_number 66
_symmetry_cell_setting 'orthorhombic'
loop_
_space_group_symop_operation_xyz
x,y,z
-x,-y,z
x,-y,1/2-z
-x,y,1/2-z
-x,-y,-z
x,y,-z
-x,y,1/2+z
x,-y,1/2+z
1/2+x,1/2+y,z
1/2-x,1/2-y,z
1/2+x,1/2-y,1/2-z
1/2-x,1/2+y,1/2-z
1/2-x,1/2-y,-z
1/2+x,1/2+y,-z
1/2-x,1/2+y,1/2+z
1/2+x,1/2-y,1/2+z
loop_
_atom_site_type_symbol
_atom_site_label
_atom_site_fract_x
_atom_site_fract_y
_atom_site_fract_z
Si Si1 0.763953 0.000277 0.948495
Si Si2 0.890834 0.297098 0.846440
Si Si3 0.491025 0.814350 0.302461
Si Si4 0.250000 0.750000 0.626133
Si Si5 0.846094 0.701083 0.552057
Si Si6 0.862431 0.354741 0.685975
Si Si7 0.813545 0.176247 0.771686
O O1 0.806019 0.147255 0.942147
O O2 0.695470 0.048589 0.945302
O O3 0.778176 0.883529 0.906367
O O4 0.775531 0.921501 0.000000
O O5 0.957987 0.245540 0.836092
O O6 0.890084 0.305481 0.903574
O O7 0.870204 0.459531 0.821585
O O8 0.847108 0.167189 0.822661
O O9 0.500000 0.740448 0.250000
O O10 0.426552 0.774763 0.325231
O O11 0.500000 0.000000 0.298974
O O12 0.194280 0.699997 0.656840
O O13 0.878328 0.703217 0.500000
O O14 0.849598 0.300844 0.739585
O O15 0.750000 0.250000 0.781043
O O16 0.809067 0.000000 0.750000
#
# Coordination Sequence:
#
# PCOD8277671 Si02
#       7
#    16  16  16   8  16  16  16
#     4   9  19  35  54  80 113 148 186 234 285 345
#     4  11  21  38  64  78 113 159 191 238 288 332
#     4   9  18  36  58  79 109 152 200 231 274 345
#     4  12  21  32  56  86 120 144 179 234 300 344
#     4   9  19  35  56  84 110 143 195 234 278 345
#     4  11  22  37  55  88 115 147 191 237 282 350
#     4  12  26  37  54  85 122 152 188 233 287 349
#
# _framework density 19.183509000000001
#
# number of rings (size 3 to 8) (size 9 to 14) (size 15 to 20)
#    0.000    1.692    3.846    2.538    4.308    0.000 
#    0.000    1.538    0.000    6.000    0.000    2.154 
#    0.000    0.000    0.000    0.000    0.000    0.000 
#
# Total GULP energy -644202.884384 kJ/mol
# GULP energy per Si atom -12388.517007 kJ/mol
# Density = 1.913985 g / cm^3
# Si number density = 19.183509 Si / 1000 Ang^3
#
#
#
# Elastic Constant Matrix: (Units=GPa)
#
#
# Indices 1 2 3 4 5 6 
#
# 1 142.8932 13.2085 46.2407 0.0000 0.0000 0.0000
# 2 13.2085 39.2371 19.2874 0.0000 0.0000 0.0000
# 3 46.2407 19.2874 118.8284 0.0000 0.0000 0.0000
# 4 0.0000 0.0000 0.0000 26.7875 0.0000 0.0000
# 5 0.0000 0.0000 0.0000 0.0000 30.3642 0.0000
# 6 0.0000 0.0000 0.0000 0.0000 0.0000 15.8399
#
#
#
# Elastic Compliance Matrix: (Units=1/GPa)
#
#
# Indices 1 2 3 4 5 6 
#
# 1 0.008065 -0.001274 -0.002932 0.000000 0.000000 0.000000
# 2 -0.001274 0.027897 -0.004032 0.000000 0.000000 0.000000
# 3 -0.002932 -0.004032 0.010211 0.000000 0.000000 0.000000
# 4 0.000000 0.000000 0.000000 0.037331 0.000000 0.000000
# 5 0.000000 0.000000 0.000000 0.000000 0.032934 0.000000
# 6 0.000000 0.000000 0.000000 0.000000 0.000000 0.063132
#
#
# Mechanical properties :
#
#
# Convention : Reuss Voigt Hill
#
# Bulk Modulus (GPa) = 33.67335 50.93689 42.30512
# Shear Modulus (GPa) = 24.27857 29.41311 26.84584
#
# Velocity S-wave (km/s) = 3.56138 3.91992 3.74494
# Velocity P-wave (km/s) = 5.87389 6.86278 6.38750
#
# Compressibility (1/GPa) = 0.02969708
#
# Stress axis : x y z
#
# Youngs Moduli (GPa) = 123.99830 35.84607 97.93581
#
# Poissons Ratio (x) = 0.04566 0.28710
# Poissons Ratio (y) = 0.15795 0.39491
# Poissons Ratio (z) = 0.36350 0.14454
#
# Static dielectric constant tensor:
#      x y z
#    x 3.705230 0.000000 0.000000 
#    y 0.000000 3.377460 0.000000 
#    z 0.000000 0.000000 3.745050 
# 
# 
# High freq. dielectric constant tensor:
#      x y z
#    x 1.733640 0.000000 0.000000 
#    y 0.000000 1.726430 0.000000 
#    z 0.000000 0.000000 1.747720 
# 
# From -- ./inp_files/68281.got.cif
#   From: 2010.03.12/outbox.cif.g09.slc.cpg/sg66_35_cif.got.tgz:68281.got - 2010.04.10 21:57:39.
