data_PCOD8277688
_publ_section_title
;
Structure prediction by ZEFSAII (Michael W. Deem and Ramdas Pophale) SiO2 
 PCOD8277688
Probable space group: C C C M
;
_chemical_formula_sum "Si O2"
_cell_formula_units_Z 64
_cell_length_a 9.159269
_cell_length_b 21.755741
_cell_length_c 13.726748
_cell_angle_alpha 90.000000
_cell_angle_beta 90.000000
_cell_angle_gamma 90.000000
_cell_volume 2735.283558
_symmetry_space_group_name_H-M "C C C M"
_symmetry_group_IT_number 66
_symmetry_cell_setting 'orthorhombic'
loop_
_space_group_symop_operation_xyz
x,y,z
-x,-y,z
x,-y,1/2-z
-x,y,1/2-z
-x,-y,-z
x,y,-z
-x,y,1/2+z
x,-y,1/2+z
1/2+x,1/2+y,z
1/2-x,1/2-y,z
1/2+x,1/2-y,1/2-z
1/2-x,1/2+y,1/2-z
1/2-x,1/2-y,-z
1/2+x,1/2+y,-z
1/2-x,1/2+y,1/2+z
1/2+x,1/2-y,1/2+z
loop_
_atom_site_type_symbol
_atom_site_label
_atom_site_fract_x
_atom_site_fract_y
_atom_site_fract_z
Si Si1 0.857147 0.898911 0.194801
Si Si2 0.628989 0.134995 0.823798
Si Si3 0.330798 0.004308 0.609877
Si Si4 0.477709 0.800047 0.500000
Si Si5 0.148667 0.164619 0.000000
O O1 0.766007 0.845417 0.254340
O O2 0.756219 0.959343 0.181907
O O3 0.000000 0.921258 0.250000
O O4 0.909371 0.870524 0.093701
O O5 0.500000 0.118133 0.750000
O O6 0.574564 0.184175 0.904080
O O7 0.703030 0.076126 0.876499
O O8 0.293058 0.983608 0.500000
O O9 0.500000 0.000000 0.632992
O O10 0.326324 0.837781 0.500000
O O11 0.431170 0.729858 0.500000
#
# Coordination Sequence:
#
# PCOD8277688 Si02
#       5
#    16  16  16   8   8
#     4  12  27  46  72 112 159 198 243 309 391 460
#     4  12  23  42  74 113 144 191 255 304 369 458
#     4  11  21  40  74 104 143 192 241 306 373 447
#     4  11  24  46  78 112 140 200 271 321 364 435
#     4  11  24  50  74 102 156 203 253 324 372 434
#
# _framework density 23.397939999999998
#
# number of rings (size 3 to 8) (size 9 to 14) (size 15 to 20)
#    0.000    0.500    7.500    0.750    0.000    4.000 
#    0.000    2.500    0.000    0.000    0.000    0.000 
#    0.000    0.000    0.000    0.000    0.000    0.000 
#
# Total GULP energy -396576.678736 kJ/mol
# GULP energy per Si atom -12393.021211 kJ/mol
# Density = 2.334468 g / cm^3
# Si number density = 23.397940 Si / 1000 Ang^3
#
#
#
# Elastic Constant Matrix: (Units=GPa)
#
#
# Indices 1 2 3 4 5 6 
#
# 1 127.1147 33.6333 81.9857 0.0000 0.0000 0.0000
# 2 33.6333 82.8163 51.4218 0.0000 0.0000 0.0000
# 3 81.9857 51.4218 162.9178 0.0000 0.0000 0.0000
# 4 0.0000 0.0000 0.0000 12.8187 0.0000 0.0000
# 5 0.0000 0.0000 0.0000 0.0000 32.3387 0.0000
# 6 0.0000 0.0000 0.0000 0.0000 0.0000 -4.3733
#
#
#
# Elastic Compliance Matrix: (Units=1/GPa)
#
#
# Indices 1 2 3 4 5 6 
#
# 1 0.011771 -0.001371 -0.005491 0.000000 0.000000 0.000000
# 2 -0.001371 0.015178 -0.004101 0.000000 0.000000 0.000000
# 3 -0.005491 -0.004101 0.010196 0.000000 0.000000 0.000000
# 4 0.000000 0.000000 0.000000 0.078011 0.000000 0.000000
# 5 0.000000 0.000000 0.000000 0.000000 0.030923 0.000000
# 6 0.000000 0.000000 0.000000 0.000000 0.000000 -0.228661
#
#
# Mechanical properties :
#
#
# Convention : Reuss Voigt Hill
#
# Bulk Modulus (GPa) = 65.70576 78.54783 72.12680
# Shear Modulus (GPa) = -89.95411 21.87734 -34.03839
#
# Velocity S-wave (km/s) = -6.20716 3.06111 -3.81827
# Velocity P-wave (km/s) = 4.81963 6.79243 3.38440
#
# Compressibility (1/GPa) = 0.01521936
#
# Stress axis : x y z
#
# Youngs Moduli (GPa) = 84.95324 65.88530 98.08212
#
# Poissons Ratio (x) = 0.09034 0.53856
# Poissons Ratio (y) = 0.11648 0.40220
# Poissons Ratio (z) = 0.46647 0.27017
#
# Static dielectric constant tensor:
#      x y z
#    x 4.167650 0.000000 0.000000 
#    y 0.000000 3.835040 0.000000 
#    z 0.000000 0.000000 4.668790 
# 
# 
# High freq. dielectric constant tensor:
#      x y z
#    x 1.917500 0.000000 0.000000 
#    y 0.000000 1.892910 0.000000 
#    z 0.000000 0.000000 1.957550 
# 
# From -- ./inp_files/24191.got.cif
#   From: 2010.03.12/outbox.cif.g09.slc.cpg/sg66_13_cif.got.tgz:24191.got - 2010.04.10 21:57:39.
