data_PCOD8277012
_publ_section_title
;
Structure prediction by ZEFSAII (Michael W. Deem and Ramdas Pophale) SiO2 
 PCOD8277012
Probable space group: C C C M
;
_chemical_formula_sum "Si O2"
_cell_formula_units_Z 80
_cell_length_a 13.968153
_cell_length_b 15.437817
_cell_length_c 18.282426
_cell_angle_alpha 90.000000
_cell_angle_beta 90.000000
_cell_angle_gamma 90.000000
_cell_volume 3942.381936
_symmetry_space_group_name_H-M "C C C M"
_symmetry_group_IT_number 66
_symmetry_cell_setting 'orthorhombic'
loop_
_space_group_symop_operation_xyz
x,y,z
-x,-y,z
x,-y,1/2-z
-x,y,1/2-z
-x,-y,-z
x,y,-z
-x,y,1/2+z
x,-y,1/2+z
1/2+x,1/2+y,z
1/2-x,1/2-y,z
1/2+x,1/2-y,1/2-z
1/2-x,1/2+y,1/2-z
1/2-x,1/2-y,-z
1/2+x,1/2+y,-z
1/2-x,1/2+y,1/2+z
1/2+x,1/2-y,1/2+z
loop_
_atom_site_type_symbol
_atom_site_label
_atom_site_fract_x
_atom_site_fract_y
_atom_site_fract_z
Si Si1 0.260047 0.508556 0.169454
Si Si2 0.012247 0.731006 0.083107
Si Si3 0.066959 0.923599 0.084817
Si Si4 0.683553 0.827471 0.856993
Si Si5 0.597678 0.869977 0.289787
O O1 0.307407 0.500000 0.250000
O O2 0.329606 0.570719 0.123476
O O3 0.240514 0.417240 0.128460
O O4 0.153739 0.547282 0.179822
O O5 0.910882 0.683449 0.093711
O O6 0.011330 0.833821 0.099632
O O7 0.086218 0.692169 0.140873
O O8 0.047039 0.713848 0.000000
O O9 0.087547 0.937455 0.000000
O O10 0.000000 0.000000 0.116100
O O11 0.750000 0.750000 0.882213
O O12 0.659571 0.819103 0.770884
O O13 0.500000 0.900147 0.250000
#
# Coordination Sequence:
#
# PCOD8277012 Si02
#       5
#    16  16  16  16  16
#     4  10  22  37  61  87 115 155 203 248 303 358
#     4  10  22  38  59  85 118 158 193 243 305 359
#     4  10  22  40  58  85 125 160 195 248 305 359
#     4  10  21  37  59  85 113 153 201 245 295 357
#     4   9  21  39  59  82 119 151 194 250 304 353
#
# _framework density 20.292300000000001
#
# number of rings (size 3 to 8) (size 9 to 14) (size 15 to 20)
#    0.000    2.200    0.000    1.200    5.600   11.600 
#    3.600    3.000    0.000    0.000    0.000    0.000 
#    0.000    0.000    0.000    0.000    0.000    0.000 
#
# Total GULP energy -495888.404926 kJ/mol
# GULP energy per Si atom -12397.210123 kJ/mol
# Density = 2.024611 g / cm^3
# Si number density = 20.292300 Si / 1000 Ang^3
#
#
#
# Elastic Constant Matrix: (Units=GPa)
#
#
# Indices 1 2 3 4 5 6 
#
# 1 68.4962 20.1367 20.7199 0.0000 0.0000 0.0000
# 2 20.1367 90.0780 27.4285 0.0000 0.0000 0.0000
# 3 20.7199 27.4285 79.5366 0.0000 0.0000 0.0000
# 4 0.0000 0.0000 0.0000 28.8640 0.0000 0.0000
# 5 0.0000 0.0000 0.0000 0.0000 22.2522 0.0000
# 6 0.0000 0.0000 0.0000 0.0000 0.0000 39.2991
#
#
#
# Elastic Compliance Matrix: (Units=1/GPa)
#
#
# Indices 1 2 3 4 5 6 
#
# 1 0.016392 -0.002641 -0.003359 0.000000 0.000000 0.000000
# 2 -0.002641 0.012830 -0.003736 0.000000 0.000000 0.000000
# 3 -0.003359 -0.003736 0.014736 0.000000 0.000000 0.000000
# 4 0.000000 0.000000 0.000000 0.034645 0.000000 0.000000
# 5 0.000000 0.000000 0.000000 0.000000 0.044939 0.000000
# 6 0.000000 0.000000 0.000000 0.000000 0.000000 0.025446
#
#
# Mechanical properties :
#
#
# Convention : Reuss Voigt Hill
#
# Bulk Modulus (GPa) = 40.84292 41.63121 41.23707
# Shear Modulus (GPa) = 28.30873 29.40479 28.85676
#
# Velocity S-wave (km/s) = 3.73909 3.81078 3.77511
# Velocity P-wave (km/s) = 6.22993 6.31847 6.27436
#
# Compressibility (1/GPa) = 0.02448405
#
# Stress axis : x y z
#
# Youngs Moduli (GPa) = 61.00507 77.94443 67.85908
#
# Poissons Ratio (x) = 0.20589 0.22796
# Poissons Ratio (y) = 0.16114 0.25354
# Poissons Ratio (z) = 0.20494 0.29122
#
# Static dielectric constant tensor:
#      x y z
#    x 3.571440 0.000000 0.000000 
#    y 0.000000 3.712460 0.000000 
#    z 0.000000 0.000000 3.734230 
# 
# 
# High freq. dielectric constant tensor:
#      x y z
#    x 1.788200 0.000000 0.000000 
#    y 0.000000 1.794090 0.000000 
#    z 0.000000 0.000000 1.787030 
# 
# From -- ./inp_files/49770.got.cif
#   From: 2010.03.12/outbox.cif.g09.slc.cpg/sg66_25_cif.got.tgz:49770.got - 2010.04.10 21:57:39.
