data_PCOD8277767
_publ_section_title
;
Structure prediction by ZEFSAII (Michael W. Deem and Ramdas Pophale) SiO2 
 PCOD8277767
Probable space group: C C C M
;
_chemical_formula_sum "Si O2"
_cell_formula_units_Z 96
_cell_length_a 10.790978
_cell_length_b 18.554155
_cell_length_c 23.096173
_cell_angle_alpha 90.000000
_cell_angle_beta 90.000000
_cell_angle_gamma 90.000000
_cell_volume 4624.257519
_symmetry_space_group_name_H-M "C C C M"
_symmetry_group_IT_number 66
_symmetry_cell_setting 'orthorhombic'
loop_
_space_group_symop_operation_xyz
x,y,z
-x,-y,z
x,-y,1/2-z
-x,y,1/2-z
-x,-y,-z
x,y,-z
-x,y,1/2+z
x,-y,1/2+z
1/2+x,1/2+y,z
1/2-x,1/2-y,z
1/2+x,1/2-y,1/2-z
1/2-x,1/2+y,1/2-z
1/2-x,1/2-y,-z
1/2+x,1/2+y,-z
1/2-x,1/2+y,1/2+z
1/2+x,1/2-y,1/2+z
loop_
_atom_site_type_symbol
_atom_site_label
_atom_site_fract_x
_atom_site_fract_y
_atom_site_fract_z
Si Si1 0.822211 0.181413 0.269101
Si Si2 0.882695 0.445994 0.093995
Si Si3 0.387717 0.445951 0.433442
Si Si4 0.883520 0.715907 0.436341
Si Si5 0.877676 0.579380 0.272504
Si Si6 0.459154 0.319084 0.651737
O O1 0.750000 0.250000 0.293448
O O2 0.740388 0.112366 0.257648
O O3 0.879363 0.203864 0.207431
O O4 0.911577 0.155342 0.320814
O O5 0.749780 0.481945 0.075757
O O6 0.892590 0.370724 0.059750
O O7 0.875440 0.420415 0.159264
O O8 0.000000 0.500000 0.081451
O O9 0.500000 0.500000 0.419512
O O10 0.399007 0.418889 0.500000
O O11 0.398030 0.380501 0.388206
O O12 0.919997 0.744510 0.500000
O O13 0.750000 0.750000 0.419131
O O14 0.977287 0.747987 0.388248
O O15 0.883801 0.500000 0.250000
O O16 0.000000 0.621857 0.250000
#
# Coordination Sequence:
#
# PCOD8277767 Si02
#       6
#    16  16  16  16  16  16
#     4  11  25  39  64  99 131 168 217 276 343 406
#     4  12  24  42  71 103 135 172 230 289 340 404
#     4  11  25  45  68  94 135 181 224 278 337 401
#     4  11  22  41  70  95 128 177 227 277 333 402
#     4  11  23  40  64  95 131 177 212 268 344 407
#     4  11  23  41  68  96 128 173 223 276 333 417
#
# _framework density 20.760089000000001
#
# number of rings (size 3 to 8) (size 9 to 14) (size 15 to 20)
#    0.000    0.833    5.000    2.500    7.000    1.333 
#    0.000    1.667    0.000    1.000    0.000    0.000 
#    0.000    0.000    0.000    0.000    0.000    0.000 
#
# Total GULP energy -594792.792796 kJ/mol
# GULP energy per Si atom -12391.516517 kJ/mol
# Density = 2.071284 g / cm^3
# Si number density = 20.760089 Si / 1000 Ang^3
#
#
#
# Elastic Constant Matrix: (Units=GPa)
#
#
# Indices 1 2 3 4 5 6 
#
# 1 139.6818 51.9376 50.8341 0.0000 0.0000 0.0000
# 2 51.9376 83.3224 20.4042 0.0000 0.0000 0.0000
# 3 50.8341 20.4042 125.8079 0.0000 0.0000 0.0000
# 4 0.0000 0.0000 0.0000 23.6634 0.0000 0.0000
# 5 0.0000 0.0000 0.0000 0.0000 23.1564 0.0000
# 6 0.0000 0.0000 0.0000 0.0000 0.0000 38.9509
#
#
#
# Elastic Compliance Matrix: (Units=1/GPa)
#
#
# Indices 1 2 3 4 5 6 
#
# 1 0.010495 -0.005731 -0.003311 0.000000 0.000000 0.000000
# 2 -0.005731 0.015628 -0.000219 0.000000 0.000000 0.000000
# 3 -0.003311 -0.000219 0.009322 0.000000 0.000000 0.000000
# 4 0.000000 0.000000 0.000000 0.042259 0.000000 0.000000
# 5 0.000000 0.000000 0.000000 0.000000 0.043185 0.000000
# 6 0.000000 0.000000 0.000000 0.000000 0.000000 0.025673
#
#
# Mechanical properties :
#
#
# Convention : Reuss Voigt Hill
#
# Bulk Modulus (GPa) = 59.09301 66.12931 62.61116
# Shear Modulus (GPa) = 29.28684 32.19655 30.74170
#
# Velocity S-wave (km/s) = 3.76004 3.94240 3.85230
# Velocity P-wave (km/s) = 6.88310 7.25580 7.07190
#
# Compressibility (1/GPa) = 0.01692247
#
# Stress axis : x y z
#
# Youngs Moduli (GPa) = 95.28205 63.98952 107.27265
#
# Poissons Ratio (x) = 0.36673 0.35520
# Poissons Ratio (y) = 0.54607 0.02347
# Poissons Ratio (z) = 0.31550 0.01400
#
# Static dielectric constant tensor:
#      x y z
#    x 4.038230 0.000000 0.000000 
#    y 0.000000 3.601230 0.000000 
#    z 0.000000 0.000000 3.815130 
# 
# 
# High freq. dielectric constant tensor:
#      x y z
#    x 1.807800 0.000000 0.000000 
#    y 0.000000 1.801450 0.000000 
#    z 0.000000 0.000000 1.831930 
# 
# From -- ./inp_files/56941.got.cif
#   From: 2010.03.12/outbox.cif.g09.slc.cpg/sg66_29_cif.got.tgz:56941.got - 2010.04.10 21:57:39.
