data_PCOD8277409
_publ_section_title
;
Structure prediction by ZEFSAII (Michael W. Deem and Ramdas Pophale) SiO2 
 PCOD8277409
Probable space group: C C C M
;
_chemical_formula_sum "Si O2"
_cell_formula_units_Z 92
_cell_length_a 13.244715
_cell_length_b 16.497204
_cell_length_c 18.888362
_cell_angle_alpha 90.000000
_cell_angle_beta 90.000000
_cell_angle_gamma 90.000000
_cell_volume 4127.121552
_symmetry_space_group_name_H-M "C C C M"
_symmetry_group_IT_number 66
_symmetry_cell_setting 'orthorhombic'
loop_
_space_group_symop_operation_xyz
x,y,z
-x,-y,z
x,-y,1/2-z
-x,y,1/2-z
-x,-y,-z
x,y,-z
-x,y,1/2+z
x,-y,1/2+z
1/2+x,1/2+y,z
1/2-x,1/2-y,z
1/2+x,1/2-y,1/2-z
1/2-x,1/2+y,1/2-z
1/2-x,1/2-y,-z
1/2+x,1/2+y,-z
1/2-x,1/2+y,1/2+z
1/2+x,1/2-y,1/2+z
loop_
_atom_site_type_symbol
_atom_site_label
_atom_site_fract_x
_atom_site_fract_y
_atom_site_fract_z
Si Si1 0.339832 0.878971 0.000000
Si Si2 0.143629 0.586876 0.735360
Si Si3 0.000000 0.000000 0.250000
Si Si4 0.568264 0.857489 0.000000
Si Si5 0.659204 0.200100 0.854983
Si Si6 0.772178 0.044205 0.500000
Si Si7 0.439445 0.770043 0.644557
Si Si8 0.847245 0.096838 0.652259
O O1 0.318439 0.820162 0.064650
O O2 0.255820 0.949382 0.000000
O O3 0.459744 0.904992 0.000000
O O4 0.090550 0.500000 0.750000
O O5 0.161767 0.615324 0.814866
O O6 0.075407 0.653569 0.696610
O O7 0.243827 0.574136 0.689964
O O8 0.935165 0.946761 0.195575
O O9 0.581018 0.798641 0.934177
O O10 0.660860 0.918340 0.000000
O O11 0.750000 0.250000 0.820961
O O12 0.557057 0.253063 0.845699
O O13 0.837948 0.068826 0.569659
O O14 0.367448 0.693494 0.658514
#
# Coordination Sequence:
#
# PCOD8277409 Si02
#       8
#     8  16   4   8  16   8  16  16
#     4  10  24  42  67 103 146 188 236 296 358 435
#     4  12  25  43  68 106 139 186 237 306 370 436
#     4  12  32  50  72 104 152 194 244 304 364 430
#     4  10  22  43  69 109 145 187 237 304 366 431
#     4  11  25  43  68  98 141 192 235 292 360 438
#     4  12  24  46  74 105 140 193 239 302 361 440
#     4  11  25  43  71 105 141 187 244 303 362 439
#     4  12  27  47  75 104 145 190 245 301 363 433
#
# _framework density 22.291564999999999
#
# number of rings (size 3 to 8) (size 9 to 14) (size 15 to 20)
#    0.000    0.696    2.609    4.174    4.870    2.435 
#    0.000    0.000    0.000    0.000    0.000    0.000 
#    0.000    0.000    0.000    0.000    0.000    0.000 
#
# Total GULP energy -570129.347790 kJ/mol
# GULP energy per Si atom -12394.116256 kJ/mol
# Density = 2.224083 g / cm^3
# Si number density = 22.291565 Si / 1000 Ang^3
#
#
#
# Elastic Constant Matrix: (Units=GPa)
#
#
# Indices 1 2 3 4 5 6 
#
# 1 97.2067 38.6781 30.1453 0.0000 0.0000 0.0000
# 2 38.6781 130.9601 36.0500 0.0000 0.0000 0.0000
# 3 30.1453 36.0500 140.6900 0.0000 0.0000 0.0000
# 4 0.0000 0.0000 0.0000 23.9133 0.0000 0.0000
# 5 0.0000 0.0000 0.0000 0.0000 32.5160 0.0000
# 6 0.0000 0.0000 0.0000 0.0000 0.0000 9.2792
#
#
#
# Elastic Compliance Matrix: (Units=1/GPa)
#
#
# Indices 1 2 3 4 5 6 
#
# 1 0.012066 -0.003068 -0.001799 0.000000 0.000000 0.000000
# 2 -0.003068 0.008996 -0.001648 0.000000 0.000000 0.000000
# 3 -0.001799 -0.001648 0.007915 0.000000 0.000000 0.000000
# 4 0.000000 0.000000 0.000000 0.041818 0.000000 0.000000
# 5 0.000000 0.000000 0.000000 0.000000 0.030754 0.000000
# 6 0.000000 0.000000 0.000000 0.000000 0.000000 0.107768
#
#
# Mechanical properties :
#
#
# Convention : Reuss Voigt Hill
#
# Bulk Modulus (GPa) = 62.70726 64.28931 63.49829
# Shear Modulus (GPa) = 21.96230 30.74059 26.35144
#
# Velocity S-wave (km/s) = 3.14224 3.71755 3.44194
# Velocity P-wave (km/s) = 6.43090 6.87966 6.65906
#
# Compressibility (1/GPa) = 0.01594712
#
# Stress axis : x y z
#
# Youngs Moduli (GPa) = 82.87606 111.16444 126.33448
#
# Poissons Ratio (x) = 0.34110 0.22730
# Poissons Ratio (y) = 0.25430 0.20814
# Poissons Ratio (z) = 0.14911 0.18315
#
# Static dielectric constant tensor:
#      x y z
#    x 4.131910 0.000000 0.000000 
#    y 0.000000 3.849650 0.000000 
#    z 0.000000 0.000000 4.343290 
# 
# 
# High freq. dielectric constant tensor:
#      x y z
#    x 1.883670 0.000000 0.000000 
#    y 0.000000 1.872420 0.000000 
#    z 0.000000 0.000000 1.903850 
# 
# From -- ./inp_files/49970.got.cif
#   From: 2010.03.12/outbox.cif.g09.slc.cpg/sg66_25_cif.got.tgz:49970.got - 2010.04.10 21:57:39.
