data_PCOD8277637
_publ_section_title
;
Structure prediction by ZEFSAII (Michael W. Deem and Ramdas Pophale) SiO2 
 PCOD8277637
Probable space group: C C C M
;
_chemical_formula_sum "Si O2"
_cell_formula_units_Z 128
_cell_length_a 22.500743
_cell_length_b 17.337071
_cell_length_c 18.111372
_cell_angle_alpha 90.000000
_cell_angle_beta 90.000000
_cell_angle_gamma 90.000000
_cell_volume 7065.191502
_symmetry_space_group_name_H-M "C C C M"
_symmetry_group_IT_number 66
_symmetry_cell_setting 'orthorhombic'
loop_
_space_group_symop_operation_xyz
x,y,z
-x,-y,z
x,-y,1/2-z
-x,y,1/2-z
-x,-y,-z
x,y,-z
-x,y,1/2+z
x,-y,1/2+z
1/2+x,1/2+y,z
1/2-x,1/2-y,z
1/2+x,1/2-y,1/2-z
1/2-x,1/2+y,1/2-z
1/2-x,1/2-y,-z
1/2+x,1/2+y,-z
1/2-x,1/2+y,1/2+z
1/2+x,1/2-y,1/2+z
loop_
_atom_site_type_symbol
_atom_site_label
_atom_site_fract_x
_atom_site_fract_y
_atom_site_fract_z
Si Si1 0.954069 0.323634 0.912420
Si Si2 0.432536 0.345693 0.587211
Si Si3 0.635563 0.481748 0.164525
Si Si4 0.208894 0.316662 0.086777
Si Si5 0.044622 0.071347 0.080308
Si Si6 0.383098 0.031277 0.587306
Si Si7 0.753820 0.512411 0.085821
Si Si8 0.582900 0.135706 0.588182
O O1 0.921160 0.243476 0.891642
O O2 0.915680 0.393888 0.878161
O O3 0.021728 0.327507 0.881441
O O4 0.957483 0.331036 0.000000
O O5 0.418882 0.363437 0.500000
O O6 0.394529 0.400800 0.640730
O O7 0.503302 0.356703 0.603399
O O8 0.636068 0.500000 0.250000
O O9 0.599757 0.555426 0.133244
O O10 0.701896 0.476946 0.134630
O O11 0.250000 0.250000 0.123659
O O12 0.239258 0.397858 0.104950
O O13 0.140690 0.316337 0.117415
O O14 0.205725 0.302851 0.000000
O O15 0.072987 0.085973 0.000000
O O16 0.000000 0.000000 0.078596
O O17 0.390006 0.032956 0.500000
O O18 0.313514 0.033380 0.608168
O O19 0.413081 0.952681 0.617249
O O20 0.738640 0.500376 0.000000
O O21 0.585163 0.134673 0.500000
#
# Coordination Sequence:
#
# PCOD8277637 Si02
#       8
#    16  16  16  16  16  16  16  16
#     4   9  15  24  42  69 100 128 153 191 241 284
#     4   9  18  31  47  71  99 123 155 197 236 280
#     4  11  21  32  48  67  89 124 163 197 234 281
#     4   8  14  24  40  65  95 124 155 193 235 276
#     4   8  15  29  47  66  90 119 148 183 229 277
#     4   8  14  25  42  67  98 129 158 189 232 285
#     4   9  17  30  48  68  93 125 158 192 231 280
#     4   8  13  21  36  63  99 132 157 187 233 285
#
# _framework density 18.116990000000001
#
# number of rings (size 3 to 8) (size 9 to 14) (size 15 to 20)
#    0.000    3.250    0.000    3.750    0.000    4.750 
#    0.000    4.375    0.000    4.500    0.000    1.750 
#    0.000    4.000    0.000    0.000    0.000    0.000 
#
# Total GULP energy -792908.875981 kJ/mol
# GULP energy per Si atom -12389.201187 kJ/mol
# Density = 1.807575 g / cm^3
# Si number density = 18.116990 Si / 1000 Ang^3
#
#
#
# Elastic Constant Matrix: (Units=GPa)
#
#
# Indices 1 2 3 4 5 6 
#
# 1 130.8415 66.5304 40.8861 0.0000 0.0000 0.0000
# 2 66.5304 115.1405 26.2772 0.0000 0.0000 0.0000
# 3 40.8861 26.2772 47.0667 0.0000 0.0000 0.0000
# 4 0.0000 0.0000 0.0000 5.9706 0.0000 0.0000
# 5 0.0000 0.0000 0.0000 0.0000 0.8731 0.0000
# 6 0.0000 0.0000 0.0000 0.0000 0.0000 27.3086
#
#
#
# Elastic Compliance Matrix: (Units=1/GPa)
#
#
# Indices 1 2 3 4 5 6 
#
# 1 0.013104 -0.005700 -0.008201 0.000000 0.000000 0.000000
# 2 -0.005700 0.012433 -0.001990 0.000000 0.000000 0.000000
# 3 -0.008201 -0.001990 0.029481 0.000000 0.000000 0.000000
# 4 0.000000 0.000000 0.000000 0.167489 0.000000 0.000000
# 5 0.000000 0.000000 0.000000 0.000000 1.145359 0.000000
# 6 0.000000 0.000000 0.000000 0.000000 0.000000 0.036619
#
#
# Mechanical properties :
#
#
# Convention : Reuss Voigt Hill
#
# Bulk Modulus (GPa) = 43.03520 62.27070 52.65295
# Shear Modulus (GPa) = 3.46258 17.45411 10.45834
#
# Velocity S-wave (km/s) = 1.38397 3.10725 2.40525
# Velocity P-wave (km/s) = 5.13415 6.87891 6.06955
#
# Compressibility (1/GPa) = 0.02323679
#
# Stress axis : x y z
#
# Youngs Moduli (GPa) = 76.31355 80.43288 33.92008
#
# Poissons Ratio (x) = 0.45847 0.27817
# Poissons Ratio (y) = 0.43499 0.06749
# Poissons Ratio (z) = 0.62583 0.16003
#
# Static dielectric constant tensor:
#      x y z
#    x 3.597430 0.000000 0.000000 
#    y 0.000000 3.663360 0.000000 
#    z 0.000000 0.000000 2.702880 
# 
# 
# High freq. dielectric constant tensor:
#      x y z
#    x 1.707720 0.000000 0.000000 
#    y 0.000000 1.698380 0.000000 
#    z 0.000000 0.000000 1.628690 
# 
# From -- ./inp_files/52692.got.cif
#   From: 2010.03.12/outbox.cif.g09.slc.cpg/sg66_27_cif.got.tgz:52692.got - 2010.04.10 21:57:39.
