data_PCOD8277587
_publ_section_title
;
Structure prediction by ZEFSAII (Michael W. Deem and Ramdas Pophale) SiO2 
 PCOD8277587
Probable space group: C C C M
;
_chemical_formula_sum "Si O2"
_cell_formula_units_Z 56
_cell_length_a 14.345508
_cell_length_b 10.791968
_cell_length_c 15.932418
_cell_angle_alpha 90.000000
_cell_angle_beta 90.000000
_cell_angle_gamma 90.000000
_cell_volume 2466.597420
_symmetry_space_group_name_H-M "C C C M"
_symmetry_group_IT_number 66
_symmetry_cell_setting 'orthorhombic'
loop_
_space_group_symop_operation_xyz
x,y,z
-x,-y,z
x,-y,1/2-z
-x,y,1/2-z
-x,-y,-z
x,y,-z
-x,y,1/2+z
x,-y,1/2+z
1/2+x,1/2+y,z
1/2-x,1/2-y,z
1/2+x,1/2-y,1/2-z
1/2-x,1/2+y,1/2-z
1/2-x,1/2-y,-z
1/2+x,1/2+y,-z
1/2-x,1/2+y,1/2+z
1/2+x,1/2-y,1/2+z
loop_
_atom_site_type_symbol
_atom_site_label
_atom_site_fract_x
_atom_site_fract_y
_atom_site_fract_z
Si Si1 0.415243 0.071715 0.838995
Si Si2 0.275698 0.488368 0.905634
Si Si3 0.750000 0.250000 0.166366
Si Si4 0.091537 0.166822 0.211239
O O1 0.320278 0.083743 0.891369
O O2 0.448672 0.214573 0.838199
O O3 0.500000 0.000000 0.885782
O O4 0.397623 0.000000 0.750000
O O5 0.247680 0.630545 0.892487
O O6 0.355299 0.439314 0.842041
O O7 0.312102 0.466888 0.000000
O O8 0.840551 0.235185 0.223514
O O9 0.000000 0.100745 0.250000
#
# Coordination Sequence:
#
# PCOD8277587 Si02
#       4
#    16  16   8  16
#     4  11  19  41  72 103 135 181 245 295 350 437
#     4  12  26  43  67 107 148 182 238 317 374 415
#     4  12  23  46  69  94 140 196 244 288 361 456
#     4  12  23  43  76 103 136 194 254 292 351 446
#
# _framework density 22.703341000000002
#
# number of rings (size 3 to 8) (size 9 to 14) (size 15 to 20)
#    0.000    0.286    8.571    1.286    0.000    5.143 
#    0.000    7.143    0.000    0.000    0.000    0.000 
#    0.000    0.000    0.000    0.000    0.000    0.000 
#
# Total GULP energy -346953.668560 kJ/mol
# GULP energy per Si atom -12391.202449 kJ/mol
# Density = 2.265167 g / cm^3
# Si number density = 22.703341 Si / 1000 Ang^3
#
#
#
# Elastic Constant Matrix: (Units=GPa)
#
#
# Indices 1 2 3 4 5 6 
#
# 1 183.2266 29.7847 60.1171 0.0000 0.0000 0.0000
# 2 29.7847 131.7558 30.6893 0.0000 0.0000 0.0000
# 3 60.1171 30.6893 103.5926 0.0000 0.0000 0.0000
# 4 0.0000 0.0000 0.0000 14.7451 0.0000 0.0000
# 5 0.0000 0.0000 0.0000 0.0000 10.1841 0.0000
# 6 0.0000 0.0000 0.0000 0.0000 0.0000 38.4650
#
#
#
# Elastic Compliance Matrix: (Units=1/GPa)
#
#
# Indices 1 2 3 4 5 6 
#
# 1 0.006795 -0.000663 -0.003747 0.000000 0.000000 0.000000
# 2 -0.000663 0.008217 -0.002049 0.000000 0.000000 0.000000
# 3 -0.003747 -0.002049 0.012435 0.000000 0.000000 0.000000
# 4 0.000000 0.000000 0.000000 0.067819 0.000000 0.000000
# 5 0.000000 0.000000 0.000000 0.000000 0.098193 0.000000
# 6 0.000000 0.000000 0.000000 0.000000 0.000000 0.025998
#
#
# Mechanical properties :
#
#
# Convention : Reuss Voigt Hill
#
# Bulk Modulus (GPa) = 68.83369 73.30636 71.07003
# Shear Modulus (GPa) = 21.07770 32.54442 26.81106
#
# Velocity S-wave (km/s) = 3.05027 3.79022 3.44019
# Velocity P-wave (km/s) = 6.54141 7.17727 6.86671
#
# Compressibility (1/GPa) = 0.01452777
#
# Stress axis : x y z
#
# Youngs Moduli (GPa) = 147.17020 121.69742 80.42067
#
# Poissons Ratio (x) = 0.08073 0.30131
# Poissons Ratio (y) = 0.09762 0.16481
# Poissons Ratio (z) = 0.55140 0.24940
#
# Static dielectric constant tensor:
#      x y z
#    x 4.442440 0.000000 0.000000 
#    y 0.000000 4.550300 0.000000 
#    z 0.000000 0.000000 3.643410 
# 
# 
# High freq. dielectric constant tensor:
#      x y z
#    x 1.909960 0.000000 0.000000 
#    y 0.000000 1.926390 0.000000 
#    z 0.000000 0.000000 1.839150 
# 
# From -- ./inp_files/25375.got.cif
#   From: 2010.03.12/outbox.cif.g09.slc.cpg/sg66_13_cif.got.tgz:25375.got - 2010.04.10 21:57:39.
