data_PCOD8277835
_publ_section_title
;
Structure prediction by ZEFSAII (Michael W. Deem and Ramdas Pophale) SiO2 
 PCOD8277835
Probable space group: C C C M
;
_chemical_formula_sum "Si O2"
_cell_formula_units_Z 112
_cell_length_a 12.111567
_cell_length_b 27.227451
_cell_length_c 16.568518
_cell_angle_alpha 90.000000
_cell_angle_beta 90.000000
_cell_angle_gamma 90.000000
_cell_volume 5463.752083
_symmetry_space_group_name_H-M "C C C M"
_symmetry_group_IT_number 66
_symmetry_cell_setting 'orthorhombic'
loop_
_space_group_symop_operation_xyz
x,y,z
-x,-y,z
x,-y,1/2-z
-x,y,1/2-z
-x,-y,-z
x,y,-z
-x,y,1/2+z
x,-y,1/2+z
1/2+x,1/2+y,z
1/2-x,1/2-y,z
1/2+x,1/2-y,1/2-z
1/2-x,1/2+y,1/2-z
1/2-x,1/2-y,-z
1/2+x,1/2+y,-z
1/2-x,1/2+y,1/2+z
1/2+x,1/2-y,1/2+z
loop_
_atom_site_type_symbol
_atom_site_label
_atom_site_fract_x
_atom_site_fract_y
_atom_site_fract_z
Si Si1 0.588973 0.705264 0.910553
Si Si2 0.964115 0.555386 0.413542
Si Si3 0.733561 0.437421 0.157758
Si Si4 0.346732 0.093920 0.824539
Si Si5 0.152023 0.309384 0.090866
Si Si6 0.167997 0.037537 0.908154
Si Si7 0.988126 0.109505 0.842719
O O1 0.718964 0.699837 0.911993
O O2 0.575820 0.762324 0.883544
O O3 0.526786 0.665920 0.854156
O O4 0.540090 0.696895 0.000000
O O5 0.994177 0.580570 0.500000
O O6 0.833202 0.562576 0.405029
O O7 0.000000 0.500000 0.418506
O O8 0.027128 0.576181 0.335114
O O9 0.785566 0.424005 0.244436
O O10 0.676049 0.491353 0.153721
O O11 0.641061 0.397037 0.133932
O O12 0.361375 0.151896 0.836708
O O13 0.275045 0.072097 0.898431
O O14 0.115156 0.326006 0.000000
O O15 0.060125 0.070665 0.892800
O O16 0.162973 0.018185 0.000000
O O17 0.000000 0.095153 0.750000
#
# Coordination Sequence:
#
# PCOD8277835 Si02
#       7
#    16  16  16  16  16  16  16
#     4   9  18  34  60  91 121 157 205 268 329 384
#     4  11  24  40  61  86 118 164 222 275 323 390
#     4  12  26  40  60  90 133 175 217 267 339 406
#     4  12  22  39  65  91 122 167 215 277 330 384
#     4   9  17  34  62  93 120 152 209 271 322 379
#     4  12  24  39  62  91 128 178 226 268 320 398
#     4  12  24  39  60  91 134 177 214 268 334 405
#
# _framework density 20.498733999999999
#
# number of rings (size 3 to 8) (size 9 to 14) (size 15 to 20)
#    0.000    1.000    4.286    4.286    0.000    4.000 
#    0.000    1.429    0.000    2.571    0.000    3.000 
#    0.000    0.000    0.000    0.000    0.000    0.000 
#
# Total GULP energy -693736.676372 kJ/mol
# GULP energy per Si atom -12388.154935 kJ/mol
# Density = 2.045208 g / cm^3
# Si number density = 20.498734 Si / 1000 Ang^3
#
#
#
# Elastic Constant Matrix: (Units=GPa)
#
#
# Indices 1 2 3 4 5 6 
#
# 1 116.6882 45.7097 22.7433 0.0000 0.0000 0.0000
# 2 45.7097 133.8729 55.5288 0.0000 0.0000 0.0000
# 3 22.7433 55.5288 93.8350 0.0000 0.0000 0.0000
# 4 0.0000 0.0000 0.0000 69.4503 0.0000 0.0000
# 5 0.0000 0.0000 0.0000 0.0000 10.0309 0.0000
# 6 0.0000 0.0000 0.0000 0.0000 0.0000 30.6204
#
#
#
# Elastic Compliance Matrix: (Units=1/GPa)
#
#
# Indices 1 2 3 4 5 6 
#
# 1 0.009913 -0.003165 -0.000530 0.000000 0.000000 0.000000
# 2 -0.003165 0.010910 -0.005689 0.000000 0.000000 0.000000
# 3 -0.000530 -0.005689 0.014152 0.000000 0.000000 0.000000
# 4 0.000000 0.000000 0.000000 0.014399 0.000000 0.000000
# 5 0.000000 0.000000 0.000000 0.000000 0.099692 0.000000
# 6 0.000000 0.000000 0.000000 0.000000 0.000000 0.032658
#
#
# Mechanical properties :
#
#
# Convention : Reuss Voigt Hill
#
# Bulk Modulus (GPa) = 61.70016 65.81776 63.75896
# Shear Modulus (GPa) = 24.28434 36.71461 30.49948
#
# Velocity S-wave (km/s) = 3.44565 4.23669 3.86148
# Velocity P-wave (km/s) = 6.78195 7.49070 7.14512
#
# Compressibility (1/GPa) = 0.01620741
#
# Stress axis : x y z
#
# Youngs Moduli (GPa) = 100.87886 91.65693 70.66071
#
# Poissons Ratio (x) = 0.29009 0.03743
# Poissons Ratio (y) = 0.31928 0.40201
# Poissons Ratio (z) = 0.05344 0.52146
#
# Static dielectric constant tensor:
#      x y z
#    x 3.775890 0.000000 0.000000 
#    y 0.000000 3.648360 0.000000 
#    z 0.000000 0.000000 3.653640 
# 
# 
# High freq. dielectric constant tensor:
#      x y z
#    x 1.794040 0.000000 0.000000 
#    y 0.000000 1.791940 0.000000 
#    z 0.000000 0.000000 1.793740 
# 
# From -- ./inp_files/27008.got.cif
#   From: 2010.03.12/outbox.cif.g09.slc.cpg/sg66_14_cif.got.tgz:27008.got - 2010.04.10 21:57:39.
