data_PCOD8277334
_publ_section_title
;
Structure prediction by ZEFSAII (Michael W. Deem and Ramdas Pophale) SiO2 
 PCOD8277334
Probable space group: C C C M
;
_chemical_formula_sum "Si O2"
_cell_formula_units_Z 80
_cell_length_a 19.887183
_cell_length_b 12.163695
_cell_length_c 18.200195
_cell_angle_alpha 90.000000
_cell_angle_beta 90.000000
_cell_angle_gamma 90.000000
_cell_volume 4402.656808
_symmetry_space_group_name_H-M "C C C M"
_symmetry_group_IT_number 66
_symmetry_cell_setting 'orthorhombic'
loop_
_space_group_symop_operation_xyz
x,y,z
-x,-y,z
x,-y,1/2-z
-x,y,1/2-z
-x,-y,-z
x,y,-z
-x,y,1/2+z
x,-y,1/2+z
1/2+x,1/2+y,z
1/2-x,1/2-y,z
1/2+x,1/2-y,1/2-z
1/2-x,1/2+y,1/2-z
1/2-x,1/2-y,-z
1/2+x,1/2+y,-z
1/2-x,1/2+y,1/2+z
1/2+x,1/2-y,1/2+z
loop_
_atom_site_type_symbol
_atom_site_label
_atom_site_fract_x
_atom_site_fract_y
_atom_site_fract_z
Si Si1 0.192323 0.927513 0.415870
Si Si2 0.250000 0.750000 0.692175
Si Si3 0.437591 0.563620 0.325011
Si Si4 0.636021 0.121995 0.780706
Si Si5 0.782596 0.636103 0.417830
Si Si6 0.000000 0.263138 0.750000
O O1 0.194251 0.883684 0.500000
O O2 0.230801 0.848837 0.360650
O O3 0.116563 0.936769 0.388655
O O4 0.224514 0.046636 0.409606
O O5 0.313375 0.791303 0.740708
O O6 0.500000 0.500000 0.359957
O O7 0.413706 0.500000 0.250000
O O8 0.462491 0.687618 0.309999
O O9 0.654849 0.111682 0.865895
O O10 0.558793 0.160166 0.781786
O O11 0.643188 0.000000 0.750000
O O12 0.811743 0.639486 0.500000
O O13 0.750000 0.750000 0.394127
#
# Coordination Sequence:
#
# PCOD8277334 Si02
#       6
#    16   8  16  16  16   8
#     4  11  23  40  61  90 124 155 196 250 306 360
#     4  12  23  38  65  92 116 158 204 252 297 350
#     4   9  21  36  60  88 118 152 198 251 299 353
#     4  12  23  38  66  88 118 161 208 246 297 362
#     4  10  23  38  58  92 126 156 194 251 305 351
#     4  10  22  40  58  88 120 156 204 250 290 356
#
# _framework density 18.170846000000001
#
# number of rings (size 3 to 8) (size 9 to 14) (size 15 to 20)
#    0.000    1.600    5.000    0.600    8.400    0.400 
#    0.000    1.000    0.000    1.200    0.000    0.000 
#    0.000    0.000    0.000    0.000    0.000    0.000 
#
# Total GULP energy -495826.251733 kJ/mol
# GULP energy per Si atom -12395.656293 kJ/mol
# Density = 1.812949 g / cm^3
# Si number density = 18.170846 Si / 1000 Ang^3
#
#
#
# Elastic Constant Matrix: (Units=GPa)
#
#
# Indices 1 2 3 4 5 6 
#
# 1 115.0722 26.2178 54.1050 0.0000 0.0000 0.0000
# 2 26.2178 91.6340 31.3534 0.0000 0.0000 0.0000
# 3 54.1050 31.3534 100.1357 0.0000 0.0000 0.0000
# 4 0.0000 0.0000 0.0000 25.0267 0.0000 0.0000
# 5 0.0000 0.0000 0.0000 0.0000 61.7286 0.0000
# 6 0.0000 0.0000 0.0000 0.0000 0.0000 1.9539
#
#
#
# Elastic Compliance Matrix: (Units=1/GPa)
#
#
# Indices 1 2 3 4 5 6 
#
# 1 0.011794 -0.001337 -0.005954 0.000000 0.000000 0.000000
# 2 -0.001337 0.012374 -0.003152 0.000000 0.000000 0.000000
# 3 -0.005954 -0.003152 0.014190 0.000000 0.000000 0.000000
# 4 0.000000 0.000000 0.000000 0.039957 0.000000 0.000000
# 5 0.000000 0.000000 0.000000 0.000000 0.016200 0.000000
# 6 0.000000 0.000000 0.000000 0.000000 0.000000 0.511803
#
#
# Mechanical properties :
#
#
# Convention : Reuss Voigt Hill
#
# Bulk Modulus (GPa) = 57.23287 58.91046 58.07166
# Shear Modulus (GPa) = 7.89853 30.75290 19.32571
#
# Velocity S-wave (km/s) = 2.08716 4.11838 3.26476
# Velocity P-wave (km/s) = 6.11341 7.42330 6.79997
#
# Compressibility (1/GPa) = 0.01747248
#
# Stress axis : x y z
#
# Youngs Moduli (GPa) = 84.78652 80.81434 70.47054
#
# Poissons Ratio (x) = 0.10808 0.41958
# Poissons Ratio (y) = 0.11339 0.22211
# Poissons Ratio (z) = 0.50481 0.25471
#
# Static dielectric constant tensor:
#      x y z
#    x 3.342040 0.000000 0.000000 
#    y 0.000000 3.531040 0.000000 
#    z 0.000000 0.000000 3.461880 
# 
# 
# High freq. dielectric constant tensor:
#      x y z
#    x 1.701910 0.000000 0.000000 
#    y 0.000000 1.719180 0.000000 
#    z 0.000000 0.000000 1.696500 
# 
# From -- ./inp_files/42715.got.cif
#   From: 2010.03.12/outbox.cif.g09.slc.cpg/sg66_22_cif.got.tgz:42715.got - 2010.04.10 21:57:39.
