data_PCOD8277976
_publ_section_title
;
Structure prediction by ZEFSAII (Michael W. Deem and Ramdas Pophale) SiO2 
 PCOD8277976
Probable space group: C M M A
;
_chemical_formula_sum "Si O2"
_cell_formula_units_Z 80
_cell_length_a 8.579460
_cell_length_b 23.881874
_cell_length_c 20.660448
_cell_angle_alpha 90.000000
_cell_angle_beta 90.000000
_cell_angle_gamma 90.000000
_cell_volume 4233.193211
_symmetry_space_group_name_H-M "C M M A"
_symmetry_group_IT_number 67
_symmetry_cell_setting 'orthorhombic'
loop_
_space_group_symop_operation_xyz
x,y,z
-x,1/2-y,z
x,-y,-z
-x,1/2+y,-z
-x,-y,-z
x,1/2+y,-z
-x,y,z
x,1/2-y,z
1/2+x,1/2+y,z
1/2-x,-y,z
1/2+x,1/2-y,-z
1/2-x,y,-z
1/2-x,1/2-y,-z
1/2+x,y,-z
1/2-x,1/2+y,z
1/2+x,-y,z
loop_
_atom_site_type_symbol
_atom_site_label
_atom_site_fract_x
_atom_site_fract_y
_atom_site_fract_z
Si Si1 0.313881 0.938010 0.689153
Si Si2 0.185969 0.128427 0.433281
Si Si3 0.327519 0.250000 0.272884
Si Si4 0.185806 0.686084 0.067575
Si Si5 0.178390 0.250000 0.403839
Si Si6 0.822597 0.636970 0.196760
O O1 0.500000 0.937088 0.688104
O O2 0.254350 0.904873 0.626959
O O3 0.246084 0.909194 0.755239
O O4 0.250000 0.000000 0.686271
O O5 0.250000 0.101444 0.500000
O O6 0.252034 0.192518 0.431378
O O7 0.000000 0.125315 0.430291
O O8 0.500000 0.250000 0.305333
O O9 0.195663 0.250000 0.326806
O O10 0.305903 0.196933 0.228591
O O11 0.245489 0.750000 0.077652
O O12 0.251529 0.645040 0.124867
O O13 0.000000 0.685335 0.068021
O O14 0.250000 0.661980 0.000000
O O15 0.000000 0.250000 0.422877
O O16 0.000000 0.618690 0.187896
#
# Coordination Sequence:
#
# PCOD8277976 Si02
#       6
#    16  16   8  16   8  16
#     4  11  23  40  60  81 104 138 184 232 277 322
#     4  11  23  39  58  83 113 145 178 218 268 323
#     4  10  16  29  54  81 104 139 182 217 262 328
#     4   9  16  28  47  76 112 144 174 209 255 314
#     4  10  21  35  53  83 119 143 169 217 269 318
#     4   9  17  31  55  80 106 141 180 219 263 320
#
# _framework density 18.898264000000001
#
# number of rings (size 3 to 8) (size 9 to 14) (size 15 to 20)
#    0.000    2.000    3.000    1.500    0.000    1.200 
#    0.000    5.000    0.000    0.600    0.000    4.200 
#    0.000    0.000    0.000    0.000    0.000    0.000 
#
# Total GULP energy -495643.583998 kJ/mol
# GULP energy per Si atom -12391.089600 kJ/mol
# Density = 1.885525 g / cm^3
# Si number density = 18.898264 Si / 1000 Ang^3
#
#
#
# Elastic Constant Matrix: (Units=GPa)
#
#
# Indices 1 2 3 4 5 6 
#
# 1 43.1245 28.7755 33.8818 0.0000 0.0000 0.0000
# 2 28.7755 118.2044 68.4060 0.0000 0.0000 0.0000
# 3 33.8818 68.4060 188.7153 0.0000 0.0000 0.0000
# 4 0.0000 0.0000 0.0000 6.7324 0.0000 0.0000
# 5 0.0000 0.0000 0.0000 0.0000 28.6601 0.0000
# 6 0.0000 0.0000 0.0000 0.0000 0.0000 14.4445
#
#
#
# Elastic Compliance Matrix: (Units=1/GPa)
#
#
# Indices 1 2 3 4 5 6 
#
# 1 0.029301 -0.005174 -0.003385 0.000000 0.000000 0.000000
# 2 -0.005174 0.011619 -0.003283 0.000000 0.000000 0.000000
# 3 -0.003385 -0.003283 0.007097 0.000000 0.000000 0.000000
# 4 0.000000 0.000000 0.000000 0.148535 0.000000 0.000000
# 5 0.000000 0.000000 0.000000 0.000000 0.034892 0.000000
# 6 0.000000 0.000000 0.000000 0.000000 0.000000 0.069231
#
#
# Mechanical properties :
#
#
# Convention : Reuss Voigt Hill
#
# Bulk Modulus (GPa) = 41.09676 68.01900 54.55788
# Shear Modulus (GPa) = 15.03902 24.56612 19.80257
#
# Velocity S-wave (km/s) = 2.82403 3.60934 3.24056
# Velocity P-wave (km/s) = 5.69448 7.31028 6.55237
#
# Compressibility (1/GPa) = 0.02433282
#
# Stress axis : x y z
#
# Youngs Moduli (GPa) = 34.12892 86.06386 140.90974
#
# Poissons Ratio (x) = 0.44528 0.47700
# Poissons Ratio (y) = 0.17658 0.46259
# Poissons Ratio (z) = 0.11553 0.28254
#
# Static dielectric constant tensor:
#      x y z
#    x 3.264080 0.000000 0.000000 
#    y 0.000000 3.512930 0.000000 
#    z 0.000000 0.000000 3.848860 
# 
# 
# High freq. dielectric constant tensor:
#      x y z
#    x 1.709350 0.000000 0.000000 
#    y 0.000000 1.711810 0.000000 
#    z 0.000000 0.000000 1.751040 
# 
# From -- ./inp_files/36868.got.cif
#   From: 2010.03.12/outbox.cif.g09.slc.cpg/sg67_19_cif.got.tgz:36868.got - 2010.04.10 22:41:39.
