data_PCOD8277478
_publ_section_title
;
Structure prediction by ZEFSAII (Michael W. Deem and Ramdas Pophale) SiO2 
 PCOD8277478
Probable space group: C C C M
;
_chemical_formula_sum "Si O2"
_cell_formula_units_Z 72
_cell_length_a 25.303277
_cell_length_b 11.602224
_cell_length_c 12.367996
_cell_angle_alpha 90.000000
_cell_angle_beta 90.000000
_cell_angle_gamma 90.000000
_cell_volume 3630.925616
_symmetry_space_group_name_H-M "C C C M"
_symmetry_group_IT_number 66
_symmetry_cell_setting 'orthorhombic'
loop_
_space_group_symop_operation_xyz
x,y,z
-x,-y,z
x,-y,1/2-z
-x,y,1/2-z
-x,-y,-z
x,y,-z
-x,y,1/2+z
x,-y,1/2+z
1/2+x,1/2+y,z
1/2-x,1/2-y,z
1/2+x,1/2-y,1/2-z
1/2-x,1/2+y,1/2-z
1/2-x,1/2-y,-z
1/2+x,1/2+y,-z
1/2-x,1/2+y,1/2+z
1/2+x,1/2-y,1/2+z
loop_
_atom_site_type_symbol
_atom_site_label
_atom_site_fract_x
_atom_site_fract_y
_atom_site_fract_z
Si Si1 0.654894 0.500000 0.250000
Si Si2 0.144059 0.386712 0.204011
Si Si3 0.076913 0.602651 0.500000
Si Si4 0.956851 0.661346 0.500000
Si Si5 0.244585 0.885321 0.381672
Si Si6 0.121059 0.792249 0.878556
O O1 0.692382 0.414398 0.315538
O O2 0.618494 0.421785 0.170670
O O3 0.114592 0.500000 0.250000
O O4 0.201461 0.433216 0.168221
O O5 0.152357 0.287663 0.293739
O O6 0.108574 0.346582 0.102674
O O7 0.071343 0.464058 0.500000
O O8 0.019347 0.658785 0.500000
O O9 0.937135 0.733952 0.605985
O O10 0.237881 0.940695 0.500000
O O11 0.250000 0.750000 0.389034
O O12 0.147866 0.794502 0.000000
#
# Coordination Sequence:
#
# PCOD8277478 Si02
#       6
#     8  16   8   8  16  16
#     4  12  22  40  68  89 130 191 206 268 336 376
#     4  12  21  38  64  93 135 167 212 273 335 388
#     4  11  22  40  67  98 126 174 208 283 337 388
#     4   9  22  44  62  98 133 160 228 268 340 394
#     4  11  23  37  56  92 126 169 226 256 309 396
#     4  10  23  43  61  96 132 171 219 273 324 404
#
# _framework density 19.829654000000001
#
# number of rings (size 3 to 8) (size 9 to 14) (size 15 to 20)
#    0.667    0.444    6.667    0.667    0.000    0.889 
#    2.000    1.111    0.000    4.000    0.000    0.000 
#    0.000    0.000    0.000    0.000    0.000    0.000 
#
# Total GULP energy -446028.288372 kJ/mol
# GULP energy per Si atom -12389.674677 kJ/mol
# Density = 1.978452 g / cm^3
# Si number density = 19.829654 Si / 1000 Ang^3
#
#
#
# Elastic Constant Matrix: (Units=GPa)
#
#
# Indices 1 2 3 4 5 6 
#
# 1 90.1576 31.3921 35.5932 0.0000 0.0000 0.0000
# 2 31.3921 99.5646 55.6670 0.0000 0.0000 0.0000
# 3 35.5932 55.6670 147.2465 0.0000 0.0000 0.0000
# 4 0.0000 0.0000 0.0000 38.2035 0.0000 0.0000
# 5 0.0000 0.0000 0.0000 0.0000 24.2480 0.0000
# 6 0.0000 0.0000 0.0000 0.0000 0.0000 25.0188
#
#
#
# Elastic Compliance Matrix: (Units=1/GPa)
#
#
# Indices 1 2 3 4 5 6 
#
# 1 0.012910 -0.002949 -0.002006 0.000000 0.000000 0.000000
# 2 -0.002949 0.013409 -0.004357 0.000000 0.000000 0.000000
# 3 -0.002006 -0.004357 0.008923 0.000000 0.000000 0.000000
# 4 0.000000 0.000000 0.000000 0.026176 0.000000 0.000000
# 5 0.000000 0.000000 0.000000 0.000000 0.041240 0.000000
# 6 0.000000 0.000000 0.000000 0.000000 0.000000 0.039970
#
#
# Mechanical properties :
#
#
# Convention : Reuss Voigt Hill
#
# Bulk Modulus (GPa) = 60.16874 64.69705 62.43290
# Shear Modulus (GPa) = 29.97747 31.78184 30.87965
#
# Velocity S-wave (km/s) = 3.89234 4.00777 3.95048
# Velocity P-wave (km/s) = 7.11401 7.35619 7.23611
#
# Compressibility (1/GPa) = 0.01661992
#
# Stress axis : x y z
#
# Youngs Moduli (GPa) = 77.45678 74.57494 112.06722
#
# Poissons Ratio (x) = 0.21993 0.22479
# Poissons Ratio (y) = 0.22843 0.48823
# Poissons Ratio (z) = 0.15537 0.32489
#
# Static dielectric constant tensor:
#      x y z
#    x 3.320170 0.000000 0.000000 
#    y 0.000000 3.533340 0.000000 
#    z 0.000000 0.000000 3.934630 
# 
# 
# High freq. dielectric constant tensor:
#      x y z
#    x 1.739000 0.000000 0.000000 
#    y 0.000000 1.769240 0.000000 
#    z 0.000000 0.000000 1.789570 
# 
# From -- ./inp_files/20507.got.cif
#   From: 2010.03.12/outbox.cif.g09.slc.cpg/sg66_11_cif.got.tgz:20507.got - 2010.04.10 21:57:39.
