data_PCOD8277377
_publ_section_title
;
Structure prediction by ZEFSAII (Michael W. Deem and Ramdas Pophale) SiO2 
 PCOD8277377
Probable space group: C C C M
;
_chemical_formula_sum "Si O2"
_cell_formula_units_Z 96
_cell_length_a 15.642182
_cell_length_b 20.320200
_cell_length_c 14.117610
_cell_angle_alpha 90.000000
_cell_angle_beta 90.000000
_cell_angle_gamma 90.000000
_cell_volume 4487.314339
_symmetry_space_group_name_H-M "C C C M"
_symmetry_group_IT_number 66
_symmetry_cell_setting 'orthorhombic'
loop_
_space_group_symop_operation_xyz
x,y,z
-x,-y,z
x,-y,1/2-z
-x,y,1/2-z
-x,-y,-z
x,y,-z
-x,y,1/2+z
x,-y,1/2+z
1/2+x,1/2+y,z
1/2-x,1/2-y,z
1/2+x,1/2-y,1/2-z
1/2-x,1/2+y,1/2-z
1/2-x,1/2-y,-z
1/2+x,1/2+y,-z
1/2-x,1/2+y,1/2+z
1/2+x,1/2-y,1/2+z
loop_
_atom_site_type_symbol
_atom_site_label
_atom_site_fract_x
_atom_site_fract_y
_atom_site_fract_z
Si Si1 0.388182 0.558356 0.887897
Si Si2 0.376578 0.050753 0.500000
Si Si3 0.087548 0.345497 0.803267
Si Si4 0.054807 0.406632 0.000000
Si Si5 0.346174 0.724440 0.390202
Si Si6 0.283727 0.932293 0.194473
Si Si7 0.425680 0.411389 0.889205
O O1 0.314658 0.589799 0.821826
O O2 0.382394 0.480451 0.862378
O O3 0.476566 0.590437 0.849364
O O4 0.374125 0.570375 0.000000
O O5 0.452324 0.105163 0.500000
O O6 0.318393 0.057632 0.409833
O O7 0.423415 0.982107 0.500000
O O8 0.095756 0.375889 0.907042
O O9 0.094634 0.267318 0.819749
O O10 0.167481 0.372571 0.744352
O O11 0.000000 0.364212 0.750000
O O12 0.373301 0.733534 0.500000
O O13 0.250000 0.750000 0.375532
O O14 0.363491 0.648748 0.358518
O O15 0.297426 0.000000 0.250000
O O16 0.439855 0.410421 0.000000
#
# Coordination Sequence:
#
# PCOD8277377 Si02
#       7
#    16   8  16   8  16  16  16
#     4   9  18  37  66  96 132 167 207 272 330 391
#     4  11  22  38  62  88 125 173 210 277 331 387
#     4  12  25  42  62  91 127 169 216 265 325 393
#     4  11  22  40  63  83 125 170 212 272 336 384
#     4  10  22  41  68  94 125 171 219 268 325 395
#     4  12  24  36  61  97 129 168 218 265 325 395
#     4   8  17  37  66  97 126 168 215 261 334 392
#
# _framework density 21.393643999999998
#
# number of rings (size 3 to 8) (size 9 to 14) (size 15 to 20)
#    0.000    1.667    5.000    1.000    2.333    0.333 
#    3.000    1.667    0.000    0.000    0.000    5.833 
#    0.000    0.000    0.000    0.000    0.000    0.083 
#
# Total GULP energy -594951.896822 kJ/mol
# GULP energy per Si atom -12394.831184 kJ/mol
# Density = 2.134495 g / cm^3
# Si number density = 21.393644 Si / 1000 Ang^3
#
#
#
# Elastic Constant Matrix: (Units=GPa)
#
#
# Indices 1 2 3 4 5 6 
#
# 1 135.9591 45.5326 40.7946 0.0000 0.0000 0.0000
# 2 45.5326 94.1356 28.5923 0.0000 0.0000 0.0000
# 3 40.7946 28.5923 108.2109 0.0000 0.0000 0.0000
# 4 0.0000 0.0000 0.0000 17.9391 0.0000 0.0000
# 5 0.0000 0.0000 0.0000 0.0000 52.6949 0.0000
# 6 0.0000 0.0000 0.0000 0.0000 0.0000 34.7113
#
#
#
# Elastic Compliance Matrix: (Units=1/GPa)
#
#
# Indices 1 2 3 4 5 6 
#
# 1 0.009378 -0.003764 -0.002541 0.000000 0.000000 0.000000
# 2 -0.003764 0.013061 -0.002032 0.000000 0.000000 0.000000
# 3 -0.002541 -0.002032 0.010736 0.000000 0.000000 0.000000
# 4 0.000000 0.000000 0.000000 0.055744 0.000000 0.000000
# 5 0.000000 0.000000 0.000000 0.000000 0.018977 0.000000
# 6 0.000000 0.000000 0.000000 0.000000 0.000000 0.028809
#
#
# Mechanical properties :
#
#
# Convention : Reuss Voigt Hill
#
# Bulk Modulus (GPa) = 60.60313 63.12718 61.86515
# Shear Modulus (GPa) = 31.47024 35.96145 33.71585
#
# Velocity S-wave (km/s) = 3.83953 4.10438 3.97416
# Velocity P-wave (km/s) = 6.93146 7.21337 7.07382
#
# Compressibility (1/GPa) = 0.01650080
#
# Stress axis : x y z
#
# Youngs Moduli (GPa) = 106.62977 76.56403 93.14476
#
# Poissons Ratio (x) = 0.28822 0.23667
# Poissons Ratio (y) = 0.40140 0.18926
# Poissons Ratio (z) = 0.27093 0.15557
#
# Static dielectric constant tensor:
#      x y z
#    x 4.109380 0.000000 0.000000 
#    y 0.000000 3.925810 0.000000 
#    z 0.000000 0.000000 3.854300 
# 
# 
# High freq. dielectric constant tensor:
#      x y z
#    x 1.849730 0.000000 0.000000 
#    y 0.000000 1.812430 0.000000 
#    z 0.000000 0.000000 1.849970 
# 
# From -- ./inp_files/28463.got.cif
#   From: 2010.03.12/outbox.cif.g09.slc.cpg/sg66_15_cif.got.tgz:28463.got - 2010.04.10 21:57:39.
