data_PCOD8277641
_publ_section_title
;
Structure prediction by ZEFSAII (Michael W. Deem and Ramdas Pophale) SiO2 
 PCOD8277641
Probable space group: C C C M
;
_chemical_formula_sum "Si O2"
_cell_formula_units_Z 84
_cell_length_a 23.967991
_cell_length_b 24.356531
_cell_length_c 9.089548
_cell_angle_alpha 90.000000
_cell_angle_beta 90.000000
_cell_angle_gamma 90.000000
_cell_volume 5306.270115
_symmetry_space_group_name_H-M "C C C M"
_symmetry_group_IT_number 66
_symmetry_cell_setting 'orthorhombic'
loop_
_space_group_symop_operation_xyz
x,y,z
-x,-y,z
x,-y,1/2-z
-x,y,1/2-z
-x,-y,-z
x,y,-z
-x,y,1/2+z
x,-y,1/2+z
1/2+x,1/2+y,z
1/2-x,1/2-y,z
1/2+x,1/2-y,1/2-z
1/2-x,1/2+y,1/2-z
1/2-x,1/2-y,-z
1/2+x,1/2+y,-z
1/2-x,1/2+y,1/2+z
1/2+x,1/2-y,1/2+z
loop_
_atom_site_type_symbol
_atom_site_label
_atom_site_fract_x
_atom_site_fract_y
_atom_site_fract_z
Si Si1 0.500000 0.000000 0.250000
Si Si2 0.298831 0.945939 0.825704
Si Si3 0.840636 0.247882 0.825737
Si Si4 0.250048 0.333947 0.326793
Si Si5 0.943187 0.295364 0.673455
Si Si6 0.409298 0.082509 0.163775
O O1 0.539287 0.960067 0.154264
O O2 0.259651 0.895865 0.770432
O O3 0.362787 0.937794 0.777430
O O4 0.273600 0.000000 0.750000
O O5 0.298149 0.952925 0.000000
O O6 0.799743 0.295815 0.767064
O O7 0.810880 0.189818 0.783151
O O8 0.897304 0.253261 0.735473
O O9 0.852433 0.251945 0.000000
O O10 0.244374 0.331736 0.500000
O O11 0.948655 0.288125 0.500000
O O12 0.929622 0.357978 0.718159
O O13 0.000000 0.277384 0.750000
O O14 0.383413 0.086602 0.000000
#
# Coordination Sequence:
#
# PCOD8277641 Si02
#       6
#     4  16  16  16  16  16
#     4  12  22  36  48  58  86 128 174 208 234 268
#     4  11  21  33  49  69  94 124 157 198 239 283
#     4   9  16  32  53  71  90 121 160 198 239 290
#     4   8  16  30  51  72  92 121 158 194 241 293
#     4  11  22  34  47  69  96 124 159 202 246 285
#     4  11  23  34  45  63  88 122 166 206 240 276
#
# _framework density 15.830328
#
# number of rings (size 3 to 8) (size 9 to 14) (size 15 to 20)
#    0.000    1.905    3.810    2.571    0.000    1.524 
#    0.000    3.810    0.000    0.000    0.000    0.000 
#    0.000    0.762    0.000    8.762    0.000    2.667 
#
# Total GULP energy -520652.443961 kJ/mol
# GULP energy per Si atom -12396.486761 kJ/mol
# Density = 1.579430 g / cm^3
# Si number density = 15.830328 Si / 1000 Ang^3
#
#
#
# Elastic Constant Matrix: (Units=GPa)
#
#
# Indices 1 2 3 4 5 6 
#
# 1 93.8601 66.3354 33.6062 0.0000 0.0000 0.0000
# 2 66.3354 109.8766 37.0792 0.0000 0.0000 0.0000
# 3 33.6062 37.0792 63.2043 0.0000 0.0000 0.0000
# 4 0.0000 0.0000 0.0000 12.2265 0.0000 0.0000
# 5 0.0000 0.0000 0.0000 0.0000 20.8003 0.0000
# 6 0.0000 0.0000 0.0000 0.0000 0.0000 30.9562
#
#
#
# Elastic Compliance Matrix: (Units=1/GPa)
#
#
# Indices 1 2 3 4 5 6 
#
# 1 0.019483 -0.010307 -0.004312 0.000000 0.000000 0.000000
# 2 -0.010307 0.016800 -0.004376 0.000000 0.000000 0.000000
# 3 -0.004312 -0.004376 0.020682 0.000000 0.000000 0.000000
# 4 0.000000 0.000000 0.000000 0.081790 0.000000 0.000000
# 5 0.000000 0.000000 0.000000 0.000000 0.048076 0.000000
# 6 0.000000 0.000000 0.000000 0.000000 0.000000 0.032304
#
#
# Mechanical properties :
#
#
# Convention : Reuss Voigt Hill
#
# Bulk Modulus (GPa) = 52.70239 60.10918 56.40578
# Shear Modulus (GPa) = 18.97898 21.45792 20.21845
#
# Velocity S-wave (km/s) = 3.46627 3.68570 3.57767
# Velocity P-wave (km/s) = 7.02740 7.49439 7.26465
#
# Compressibility (1/GPa) = 0.01897447
#
# Stress axis : x y z
#
# Youngs Moduli (GPa) = 51.32794 59.52267 48.35177
#
# Poissons Ratio (x) = 0.61349 0.20851
# Poissons Ratio (y) = 0.52903 0.21158
# Poissons Ratio (z) = 0.22135 0.26046
#
# Static dielectric constant tensor:
#      x y z
#    x 2.912150 0.000000 0.000000 
#    y 0.000000 3.355260 0.000000 
#    z 0.000000 0.000000 2.835150 
# 
# 
# High freq. dielectric constant tensor:
#      x y z
#    x 1.584300 0.000000 0.000000 
#    y 0.000000 1.594670 0.000000 
#    z 0.000000 0.000000 1.600760 
# 
# From -- ./inp_files/7908.got.cif
#   From: 2010.03.12/outbox.cif.g09.slc.cpg/sg66_4_cif.got.tgz:7908.got - 2010.04.10 21:57:39.
