data_PCOD8277713
_publ_section_title
;
Structure prediction by ZEFSAII (Michael W. Deem and Ramdas Pophale) SiO2 
 PCOD8277713
Probable space group: C C C M
;
_chemical_formula_sum "Si O2"
_cell_formula_units_Z 64
_cell_length_a 26.332150
_cell_length_b 6.609223
_cell_length_c 18.046899
_cell_angle_alpha 90.000000
_cell_angle_beta 90.000000
_cell_angle_gamma 90.000000
_cell_volume 3140.792995
_symmetry_space_group_name_H-M "C C C M"
_symmetry_group_IT_number 66
_symmetry_cell_setting 'orthorhombic'
loop_
_space_group_symop_operation_xyz
x,y,z
-x,-y,z
x,-y,1/2-z
-x,y,1/2-z
-x,-y,-z
x,y,-z
-x,y,1/2+z
x,-y,1/2+z
1/2+x,1/2+y,z
1/2-x,1/2-y,z
1/2+x,1/2-y,1/2-z
1/2-x,1/2+y,1/2-z
1/2-x,1/2-y,-z
1/2+x,1/2+y,-z
1/2-x,1/2+y,1/2+z
1/2+x,1/2-y,1/2+z
loop_
_atom_site_type_symbol
_atom_site_label
_atom_site_fract_x
_atom_site_fract_y
_atom_site_fract_z
Si Si1 0.131510 0.151611 0.079899
Si Si2 0.606281 0.960210 0.663807
Si Si3 0.041905 0.846815 0.917771
Si Si4 0.192622 0.792610 0.912799
O O1 0.108664 0.311969 0.134979
O O2 0.093702 0.964655 0.072606
O O3 0.182842 0.032698 0.104431
O O4 0.139479 0.257940 0.000000
O O5 0.555018 0.846566 0.634436
O O6 0.657419 0.847315 0.639031
O O7 0.602313 0.000000 0.750000
O O8 0.023172 0.773815 0.000000
O O9 0.000000 0.000000 0.882422
O O10 0.250000 0.750000 0.889363
O O11 0.183124 0.744327 0.000000
#
# Coordination Sequence:
#
# PCOD8277713 Si02
#       4
#    16  16  16  16
#     4   9  18  35  59  81 108 148 192 246 293 343
#     4  11  22  36  53  84 120 152 185 242 311 370
#     4   9  19  37  60  83 109 148 199 247 288 348
#     4   9  19  37  58  82 111 150 202 248 287 350
#
# _framework density 20.377020999999999
#
# number of rings (size 3 to 8) (size 9 to 14) (size 15 to 20)
#    0.000    2.500    0.000    3.750    0.000    6.000 
#    4.500   11.250    0.000    0.000    0.000    0.000 
#    0.000    0.000    0.000    0.000    0.000    0.000 
#
# Total GULP energy -396437.521611 kJ/mol
# GULP energy per Si atom -12388.672550 kJ/mol
# Density = 2.033064 g / cm^3
# Si number density = 20.377021 Si / 1000 Ang^3
#
#
#
# Elastic Constant Matrix: (Units=GPa)
#
#
# Indices 1 2 3 4 5 6 
#
# 1 91.1715 33.1129 30.5822 0.0000 0.0000 0.0000
# 2 33.1129 109.4353 64.0587 0.0000 0.0000 0.0000
# 3 30.5822 64.0587 128.2518 0.0000 0.0000 0.0000
# 4 0.0000 0.0000 0.0000 17.3225 0.0000 0.0000
# 5 0.0000 0.0000 0.0000 0.0000 28.0415 0.0000
# 6 0.0000 0.0000 0.0000 0.0000 0.0000 42.8475
#
#
#
# Elastic Compliance Matrix: (Units=1/GPa)
#
#
# Indices 1 2 3 4 5 6 
#
# 1 0.012536 -0.002888 -0.001547 0.000000 0.000000 0.000000
# 2 -0.002888 0.013578 -0.006094 0.000000 0.000000 0.000000
# 3 -0.001547 -0.006094 0.011210 0.000000 0.000000 0.000000
# 4 0.000000 0.000000 0.000000 0.057728 0.000000 0.000000
# 5 0.000000 0.000000 0.000000 0.000000 0.035661 0.000000
# 6 0.000000 0.000000 0.000000 0.000000 0.000000 0.023339
#
#
# Mechanical properties :
#
#
# Convention : Reuss Voigt Hill
#
# Bulk Modulus (GPa) = 61.47103 64.92957 63.20030
# Shear Modulus (GPa) = 27.69602 31.04929 29.37265
#
# Velocity S-wave (km/s) = 3.69070 3.90775 3.80077
# Velocity P-wave (km/s) = 6.95658 7.23145 7.09535
#
# Compressibility (1/GPa) = 0.01626783
#
# Stress axis : x y z
#
# Youngs Moduli (GPa) = 79.77016 73.64611 89.20903
#
# Poissons Ratio (x) = 0.21266 0.13800
# Poissons Ratio (y) = 0.23035 0.54360
# Poissons Ratio (z) = 0.12340 0.44877
#
# Static dielectric constant tensor:
#      x y z
#    x 3.804770 0.000000 0.000000 
#    y 0.000000 3.774400 0.000000 
#    z 0.000000 0.000000 3.532580 
# 
# 
# High freq. dielectric constant tensor:
#      x y z
#    x 1.792970 0.000000 0.000000 
#    y 0.000000 1.799140 0.000000 
#    z 0.000000 0.000000 1.770040 
# 
# From -- ./inp_files/35014.got.cif
#   From: 2010.03.12/outbox.cif.g09.slc.cpg/sg66_18_cif.got.tgz:35014.got - 2010.04.10 21:57:39.
