data_PCOD8277271
_publ_section_title
;
Structure prediction by ZEFSAII (Michael W. Deem and Ramdas Pophale) SiO2 
 PCOD8277271
Probable space group: C C C M
;
_chemical_formula_sum "Si O2"
_cell_formula_units_Z 76
_cell_length_a 25.308333
_cell_length_b 13.915337
_cell_length_c 10.691958
_cell_angle_alpha 90.000000
_cell_angle_beta 90.000000
_cell_angle_gamma 90.000000
_cell_volume 3765.429431
_symmetry_space_group_name_H-M "C C C M"
_symmetry_group_IT_number 66
_symmetry_cell_setting 'orthorhombic'
loop_
_space_group_symop_operation_xyz
x,y,z
-x,-y,z
x,-y,1/2-z
-x,y,1/2-z
-x,-y,-z
x,y,-z
-x,y,1/2+z
x,-y,1/2+z
1/2+x,1/2+y,z
1/2-x,1/2-y,z
1/2+x,1/2-y,1/2-z
1/2-x,1/2+y,1/2-z
1/2-x,1/2-y,-z
1/2+x,1/2+y,-z
1/2-x,1/2+y,1/2+z
1/2+x,1/2-y,1/2+z
loop_
_atom_site_type_symbol
_atom_site_label
_atom_site_fract_x
_atom_site_fract_y
_atom_site_fract_z
Si Si1 0.061089 0.813749 0.757145
Si Si2 0.887905 0.252719 0.000000
Si Si3 0.633894 0.500000 0.250000
Si Si4 0.500000 0.000000 0.250000
Si Si5 0.180997 0.933579 0.000000
Si Si6 0.085894 0.371522 0.862176
Si Si7 0.666205 0.000000 0.250000
Si Si8 0.798928 0.581132 0.500000
O O1 0.096620 0.907368 0.743263
O O2 0.074451 0.741973 0.643968
O O3 0.000000 0.845420 0.750000
O O4 0.073809 0.748188 0.879509
O O5 0.844611 0.338150 0.000000
O O6 0.859618 0.151747 0.000000
O O7 0.670614 0.503158 0.374343
O O8 0.533119 0.931740 0.159776
O O9 0.238500 0.882424 0.000000
O O10 0.130700 0.404329 0.764561
O O11 0.106893 0.396406 0.000000
O O12 0.699478 0.015593 0.124398
#
# Coordination Sequence:
#
# PCOD8277271 Si02
#       8
#    16   8   8   4   8  16   8   8
#     4  11  23  39  63  91 125 170 204 250 310 365
#     4  10  23  41  61  89 124 159 215 254 298 376
#     4  10  24  44  63  93 125 157 213 269 302 370
#     4  10  22  36  54  84 120 168 212 238 290 380
#     4  10  23  43  67  89 116 164 207 266 325 355
#     4  11  22  36  55  88 126 163 199 250 302 361
#     4  11  23  37  62  89 125 158 195 253 307 368
#     4  12  21  42  66  90 122 162 208 260 317 375
#
# _framework density 20.183622
#
# number of rings (size 3 to 8) (size 9 to 14) (size 15 to 20)
#    0.000    1.263    4.211    1.579    2.947    0.000 
#    0.000    3.158    0.000    1.263    0.000    0.000 
#    0.000    0.000    0.000    0.000    0.000    0.000 
#
# Total GULP energy -471006.912105 kJ/mol
# GULP energy per Si atom -12394.918740 kJ/mol
# Density = 2.013768 g / cm^3
# Si number density = 20.183622 Si / 1000 Ang^3
#
#
#
# Elastic Constant Matrix: (Units=GPa)
#
#
# Indices 1 2 3 4 5 6 
#
# 1 104.7504 19.6748 38.3088 0.0000 0.0000 0.0000
# 2 19.6748 92.9478 26.0299 0.0000 0.0000 0.0000
# 3 38.3088 26.0299 139.6368 0.0000 0.0000 0.0000
# 4 0.0000 0.0000 0.0000 23.4305 0.0000 0.0000
# 5 0.0000 0.0000 0.0000 0.0000 21.1187 0.0000
# 6 0.0000 0.0000 0.0000 0.0000 0.0000 14.0474
#
#
#
# Elastic Compliance Matrix: (Units=1/GPa)
#
#
# Indices 1 2 3 4 5 6 
#
# 1 0.010816 -0.001539 -0.002680 0.000000 0.000000 0.000000
# 2 -0.001539 0.011570 -0.001735 0.000000 0.000000 0.000000
# 3 -0.002680 -0.001735 0.008220 0.000000 0.000000 0.000000
# 4 0.000000 0.000000 0.000000 0.042679 0.000000 0.000000
# 5 0.000000 0.000000 0.000000 0.000000 0.047351 0.000000
# 6 0.000000 0.000000 0.000000 0.000000 0.000000 0.071188
#
#
# Mechanical properties :
#
#
# Convention : Reuss Voigt Hill
#
# Bulk Modulus (GPa) = 53.48038 56.15133 54.81586
# Shear Modulus (GPa) = 23.81345 28.60740 26.21043
#
# Velocity S-wave (km/s) = 3.43861 3.76886 3.60752
# Velocity P-wave (km/s) = 6.50537 6.84250 6.67606
#
# Compressibility (1/GPa) = 0.01869844
#
# Stress axis : x y z
#
# Youngs Moduli (GPa) = 92.45731 86.42861 121.65208
#
# Poissons Ratio (x) = 0.13300 0.32608
# Poissons Ratio (y) = 0.14227 0.21103
# Poissons Ratio (z) = 0.24783 0.14992
#
# Static dielectric constant tensor:
#      x y z
#    x 3.595720 0.000000 0.000000 
#    y 0.000000 3.480380 0.000000 
#    z 0.000000 0.000000 4.055440 
# 
# 
# High freq. dielectric constant tensor:
#      x y z
#    x 1.782610 0.000000 0.000000 
#    y 0.000000 1.781750 0.000000 
#    z 0.000000 0.000000 1.802520 
# 
# From -- ./inp_files/19715.got.cif
#   From: 2010.03.12/outbox.cif.g09.slc.cpg/sg66_10_cif.got.tgz:19715.got - 2010.04.10 21:57:39.
