data_PCOD8277533
_publ_section_title
;
Structure prediction by ZEFSAII (Michael W. Deem and Ramdas Pophale) SiO2 
 PCOD8277533
Probable space group: C C C M
;
_chemical_formula_sum "Si O2"
_cell_formula_units_Z 80
_cell_length_a 20.953400
_cell_length_b 11.602037
_cell_length_c 14.402758
_cell_angle_alpha 90.000000
_cell_angle_beta 90.000000
_cell_angle_gamma 90.000000
_cell_volume 3501.341034
_symmetry_space_group_name_H-M "C C C M"
_symmetry_group_IT_number 66
_symmetry_cell_setting 'orthorhombic'
loop_
_space_group_symop_operation_xyz
x,y,z
-x,-y,z
x,-y,1/2-z
-x,y,1/2-z
-x,-y,-z
x,y,-z
-x,y,1/2+z
x,-y,1/2+z
1/2+x,1/2+y,z
1/2-x,1/2-y,z
1/2+x,1/2-y,1/2-z
1/2-x,1/2+y,1/2-z
1/2-x,1/2-y,-z
1/2+x,1/2+y,-z
1/2-x,1/2+y,1/2+z
1/2+x,1/2-y,1/2+z
loop_
_atom_site_type_symbol
_atom_site_label
_atom_site_fract_x
_atom_site_fract_y
_atom_site_fract_z
Si Si1 0.292740 0.437429 0.393962
Si Si2 0.018043 0.876588 0.356490
Si Si3 0.897508 0.239411 0.900094
Si Si4 0.815898 0.368056 0.763862
Si Si5 0.164062 0.813627 0.391515
O O1 0.267912 0.428905 0.500000
O O2 0.363170 0.384386 0.383606
O O3 0.248135 0.360987 0.326558
O O4 0.295966 0.571469 0.362002
O O5 0.090178 0.839222 0.373713
O O6 0.000000 0.881441 0.250000
O O7 0.973329 0.779328 0.402017
O O8 0.000000 0.000000 0.402146
O O9 0.877459 0.325135 0.819527
O O10 0.876720 0.290838 0.000000
O O11 0.832549 0.500000 0.750000
O O12 0.809770 0.294136 0.668550
O O13 0.175160 0.784908 0.500000
#
# Coordination Sequence:
#
# PCOD8277533 Si02
#       5
#    16  16  16  16  16
#     4  10  24  44  71 103 138 178 232 296 362 425
#     4  11  21  39  74 110 141 176 229 298 366 424
#     4  11  23  42  70 103 137 178 229 285 356 429
#     4  12  28  43  68  96 143 192 238 286 343 421
#     4  11  25  46  72 109 145 182 237 301 367 423
#
# _framework density 22.848389000000001
#
# number of rings (size 3 to 8) (size 9 to 14) (size 15 to 20)
#    0.000    1.000    4.000    1.800    5.600    4.000 
#    0.000    4.000    0.000    2.400    0.000    0.000 
#    0.000    0.000    0.000    0.000    0.000    0.000 
#
# Total GULP energy -495961.738725 kJ/mol
# GULP energy per Si atom -12399.043468 kJ/mol
# Density = 2.279638 g / cm^3
# Si number density = 22.848389 Si / 1000 Ang^3
#
#
#
# Elastic Constant Matrix: (Units=GPa)
#
#
# Indices 1 2 3 4 5 6 
#
# 1 117.7153 41.5976 27.5017 0.0000 0.0000 0.0000
# 2 41.5976 132.5942 67.0869 0.0000 0.0000 0.0000
# 3 27.5017 67.0869 137.3628 0.0000 0.0000 0.0000
# 4 0.0000 0.0000 0.0000 32.8709 0.0000 0.0000
# 5 0.0000 0.0000 0.0000 0.0000 28.2351 0.0000
# 6 0.0000 0.0000 0.0000 0.0000 0.0000 31.3877
#
#
#
# Elastic Compliance Matrix: (Units=1/GPa)
#
#
# Indices 1 2 3 4 5 6 
#
# 1 0.009591 -0.002706 -0.000599 0.000000 0.000000 0.000000
# 2 -0.002706 0.010781 -0.004723 0.000000 0.000000 0.000000
# 3 -0.000599 -0.004723 0.009707 0.000000 0.000000 0.000000
# 4 0.000000 0.000000 0.000000 0.030422 0.000000 0.000000
# 5 0.000000 0.000000 0.000000 0.000000 0.035417 0.000000
# 6 0.000000 0.000000 0.000000 0.000000 0.000000 0.031860
#
#
# Mechanical properties :
#
#
# Convention : Reuss Voigt Hill
#
# Bulk Modulus (GPa) = 71.31492 73.33830 72.32661
# Shear Modulus (GPa) = 33.66839 35.26448 34.46643
#
# Velocity S-wave (km/s) = 3.84286 3.93289 3.88813
# Velocity P-wave (km/s) = 7.13933 7.26574 7.20281
#
# Compressibility (1/GPa) = 0.01402231
#
# Stress axis : x y z
#
# Youngs Moduli (GPa) = 104.26232 92.75946 103.02163
#
# Poissons Ratio (x) = 0.25101 0.06167
# Poissons Ratio (y) = 0.28214 0.48661
# Poissons Ratio (z) = 0.06242 0.43814
#
# Static dielectric constant tensor:
#      x y z
#    x 4.200270 0.000000 0.000000 
#    y 0.000000 4.025560 0.000000 
#    z 0.000000 0.000000 4.403550 
# 
# 
# High freq. dielectric constant tensor:
#      x y z
#    x 1.901670 0.000000 0.000000 
#    y 0.000000 1.884070 0.000000 
#    z 0.000000 0.000000 1.924740 
# 
# From -- ./inp_files/26403.got.cif
#   From: 2010.03.12/outbox.cif.g09.slc.cpg/sg66_14_cif.got.tgz:26403.got - 2010.04.10 21:57:39.
