data_PCOD8277221
_publ_section_title
;
Structure prediction by ZEFSAII (Michael W. Deem and Ramdas Pophale) SiO2 
 PCOD8277221
Probable space group: C C C M
;
_chemical_formula_sum "Si O2"
_cell_formula_units_Z 72
_cell_length_a 14.624548
_cell_length_b 24.566216
_cell_length_c 10.223897
_cell_angle_alpha 90.000000
_cell_angle_beta 90.000000
_cell_angle_gamma 90.000000
_cell_volume 3673.137482
_symmetry_space_group_name_H-M "C C C M"
_symmetry_group_IT_number 66
_symmetry_cell_setting 'orthorhombic'
loop_
_space_group_symop_operation_xyz
x,y,z
-x,-y,z
x,-y,1/2-z
-x,y,1/2-z
-x,-y,-z
x,y,-z
-x,y,1/2+z
x,-y,1/2+z
1/2+x,1/2+y,z
1/2-x,1/2-y,z
1/2+x,1/2-y,1/2-z
1/2-x,1/2+y,1/2-z
1/2-x,1/2-y,-z
1/2+x,1/2+y,-z
1/2-x,1/2+y,1/2+z
1/2+x,1/2-y,1/2+z
loop_
_atom_site_type_symbol
_atom_site_label
_atom_site_fract_x
_atom_site_fract_y
_atom_site_fract_z
Si Si1 0.263719 0.387699 0.500000
Si Si2 0.081727 0.320232 0.500000
Si Si3 0.422694 0.695386 0.000000
Si Si4 0.166537 0.938989 0.256279
Si Si5 0.000000 0.141041 0.250000
Si Si6 0.500000 0.132346 0.750000
Si Si7 0.855430 0.451549 0.647883
O O1 0.162676 0.363974 0.500000
O O2 0.329039 0.336426 0.500000
O O3 0.281814 0.426605 0.378548
O O4 0.110192 0.257377 0.500000
O O5 0.023266 0.328810 0.629702
O O6 0.481609 0.679728 0.127169
O O7 0.248043 0.935207 0.362275
O O8 0.085868 0.897010 0.287501
O O9 0.124808 0.000000 0.250000
O O10 0.586448 0.097853 0.703904
O O11 0.871612 0.500000 0.750000
O O12 0.887563 0.467167 0.500000
#
# Coordination Sequence:
#
# PCOD8277221 Si02
#       7
#     8   8   8  16   8   8  16
#     4  10  21  41  61  89 119 165 204 247 299 363
#     4  12  23  42  61  88 118 161 211 264 294 358
#     4  10  23  41  65  86 116 161 209 256 311 347
#     4  10  22  36  64  91 128 158 196 242 308 373
#     4  10  22  42  62  92 120 158 202 256 308 364
#     4  12  24  38  64  86 124 156 204 252 304 352
#     4  11  25  39  60  90 125 165 198 240 303 365
#
# _framework density 19.601772
#
# number of rings (size 3 to 8) (size 9 to 14) (size 15 to 20)
#    0.000    1.333    3.333    1.667    9.333    0.889 
#    0.000    3.333    0.000    1.333    0.000    0.000 
#    0.000    0.000    0.000    0.000    0.000    0.000 
#
# Total GULP energy -446350.000330 kJ/mol
# GULP energy per Si atom -12398.611120 kJ/mol
# Density = 1.955716 g / cm^3
# Si number density = 19.601772 Si / 1000 Ang^3
#
#
#
# Elastic Constant Matrix: (Units=GPa)
#
#
# Indices 1 2 3 4 5 6 
#
# 1 58.9467 18.8169 13.2991 0.0000 0.0000 0.0000
# 2 18.8169 104.9847 40.8692 0.0000 0.0000 0.0000
# 3 13.2991 40.8692 135.5048 0.0000 0.0000 0.0000
# 4 0.0000 0.0000 0.0000 21.7148 0.0000 0.0000
# 5 0.0000 0.0000 0.0000 0.0000 14.2988 0.0000
# 6 0.0000 0.0000 0.0000 0.0000 0.0000 16.8280
#
#
#
# Elastic Compliance Matrix: (Units=1/GPa)
#
#
# Indices 1 2 3 4 5 6 
#
# 1 0.018091 -0.002891 -0.000904 0.000000 0.000000 0.000000
# 2 -0.002891 0.011254 -0.003111 0.000000 0.000000 0.000000
# 3 -0.000904 -0.003111 0.008407 0.000000 0.000000 0.000000
# 4 0.000000 0.000000 0.000000 0.046052 0.000000 0.000000
# 5 0.000000 0.000000 0.000000 0.000000 0.069936 0.000000
# 6 0.000000 0.000000 0.000000 0.000000 0.000000 0.059425
#
#
# Mechanical properties :
#
#
# Convention : Reuss Voigt Hill
#
# Bulk Modulus (GPa) = 41.76780 49.48965 45.62873
# Shear Modulus (GPa) = 21.28066 25.66505 23.47286
#
# Velocity S-wave (km/s) = 3.29849 3.62238 3.46423
# Velocity P-wave (km/s) = 5.98842 6.54201 6.27133
#
# Compressibility (1/GPa) = 0.02394189
#
# Stress axis : x y z
#
# Youngs Moduli (GPa) = 55.27568 88.85526 118.95273
#
# Poissons Ratio (x) = 0.25686 0.10750
# Poissons Ratio (y) = 0.15979 0.37002
# Poissons Ratio (z) = 0.04995 0.27640
#
# Static dielectric constant tensor:
#      x y z
#    x 3.657770 0.000000 0.000000 
#    y 0.000000 3.467630 0.000000 
#    z 0.000000 0.000000 3.865370 
# 
# 
# High freq. dielectric constant tensor:
#      x y z
#    x 1.768280 0.000000 0.000000 
#    y 0.000000 1.760700 0.000000 
#    z 0.000000 0.000000 1.776930 
# 
# From -- ./inp_files/5425.got.cif
#   From: 2010.03.12/outbox.cif.g09.slc.cpg/sg66_3_cif.got.tgz:5425.got - 2010.04.10 21:57:39.
