data_PCOD8277757
_publ_section_title
;
Structure prediction by ZEFSAII (Michael W. Deem and Ramdas Pophale) SiO2 
 PCOD8277757
Probable space group: C C C M
;
_chemical_formula_sum "Si O2"
_cell_formula_units_Z 64
_cell_length_a 5.149284
_cell_length_b 19.700834
_cell_length_c 25.177295
_cell_angle_alpha 90.000000
_cell_angle_beta 90.000000
_cell_angle_gamma 90.000000
_cell_volume 2554.115457
_symmetry_space_group_name_H-M "C C C M"
_symmetry_group_IT_number 66
_symmetry_cell_setting 'orthorhombic'
loop_
_space_group_symop_operation_xyz
x,y,z
-x,-y,z
x,-y,1/2-z
-x,y,1/2-z
-x,-y,-z
x,y,-z
-x,y,1/2+z
x,-y,1/2+z
1/2+x,1/2+y,z
1/2-x,1/2-y,z
1/2+x,1/2-y,1/2-z
1/2-x,1/2+y,1/2-z
1/2-x,1/2-y,-z
1/2+x,1/2+y,-z
1/2-x,1/2+y,1/2+z
1/2+x,1/2-y,1/2+z
loop_
_atom_site_type_symbol
_atom_site_label
_atom_site_fract_x
_atom_site_fract_y
_atom_site_fract_z
Si Si1 0.410701 0.685105 0.309063
Si Si2 0.191426 0.595578 0.441114
Si Si3 0.683029 0.324053 0.912995
Si Si4 0.751945 0.539537 0.167855
O O1 0.500000 0.701213 0.250000
O O2 0.250000 0.750000 0.330389
O O3 0.655982 0.675347 0.348517
O O4 0.238419 0.616626 0.310613
O O5 0.195007 0.562729 0.500000
O O6 0.407891 0.654388 0.437973
O O7 0.250034 0.538608 0.396769
O O8 0.907202 0.624926 0.429646
O O9 0.750000 0.250000 0.935166
O O10 0.500000 0.500000 0.189122
O O11 0.000000 0.500000 0.190642
#
# Coordination Sequence:
#
# PCOD8277757 Si02
#       4
#    16  16  16  16
#     4  11  25  46  75 107 140 184 235 286 348 415
#     4  11  24  41  65  97 135 183 235 285 342 410
#     4  11  22  40  64  98 141 180 227 288 348 412
#     4  11  25  47  71 101 142 183 229 287 347 411
#
# _framework density 25.057600000000001
#
# number of rings (size 3 to 8) (size 9 to 14) (size 15 to 20)
#    0.000    1.000    0.000    8.250    0.000    6.500 
#    0.000    3.750    0.000    0.000    0.000    0.000 
#    0.000    0.000    0.000    0.000    0.000    0.000 
#
# Total GULP energy -396901.079423 kJ/mol
# GULP energy per Si atom -12403.158732 kJ/mol
# Density = 2.500057 g / cm^3
# Si number density = 25.057600 Si / 1000 Ang^3
#
#
#
# Elastic Constant Matrix: (Units=GPa)
#
#
# Indices 1 2 3 4 5 6 
#
# 1 156.8237 52.7066 10.6275 0.0000 0.0000 0.0000
# 2 52.7066 140.6935 -17.7847 0.0000 0.0000 0.0000
# 3 10.6275 -17.7847 95.0191 0.0000 0.0000 0.0000
# 4 0.0000 0.0000 0.0000 58.8898 0.0000 0.0000
# 5 0.0000 0.0000 0.0000 0.0000 45.8571 0.0000
# 6 0.0000 0.0000 0.0000 0.0000 0.0000 40.0645
#
#
#
# Elastic Compliance Matrix: (Units=1/GPa)
#
#
# Indices 1 2 3 4 5 6 
#
# 1 0.007471 -0.002975 -0.001392 0.000000 0.000000 0.000000
# 2 -0.002975 0.008464 0.001917 0.000000 0.000000 0.000000
# 3 -0.001392 0.001917 0.011039 0.000000 0.000000 0.000000
# 4 0.000000 0.000000 0.000000 0.016981 0.000000 0.000000
# 5 0.000000 0.000000 0.000000 0.000000 0.021807 0.000000
# 6 0.000000 0.000000 0.000000 0.000000 0.000000 0.024960
#
#
# Mechanical properties :
#
#
# Convention : Reuss Voigt Hill
#
# Bulk Modulus (GPa) = 45.30277 53.73721 49.51999
# Shear Modulus (GPa) = 48.55347 52.09474 50.32410
#
# Velocity S-wave (km/s) = 4.40668 4.56455 4.48631
# Velocity P-wave (km/s) = 6.63404 7.01942 6.82945
#
# Compressibility (1/GPa) = 0.02207371
#
# Stress axis : x y z
#
# Youngs Moduli (GPa) = 133.85629 118.14261 90.59012
#
# Poissons Ratio (x) = 0.35144 0.12613
# Poissons Ratio (y) = 0.39818 -0.17366
# Poissons Ratio (z) = 0.18637 -0.22648
#
# Static dielectric constant tensor:
#      x y z
#    x 4.608040 0.000000 0.000000 
#    y 0.000000 4.447150 0.000000 
#    z 0.000000 0.000000 4.558540 
# 
# 
# High freq. dielectric constant tensor:
#      x y z
#    x 2.006480 0.000000 0.000000 
#    y 0.000000 1.996370 0.000000 
#    z 0.000000 0.000000 1.994660 
# 
# From -- ./inp_files/61234.got.cif
#   From: 2010.03.12/outbox.cif.g09.slc.cpg/sg66_31_cif.got.tgz:61234.got - 2010.04.10 21:57:39.
