data_PCOD8277646
_publ_section_title
;
Structure prediction by ZEFSAII (Michael W. Deem and Ramdas Pophale) SiO2 
 PCOD8277646
Probable space group: C C C M
;
_chemical_formula_sum "Si O2"
_cell_formula_units_Z 80
_cell_length_a 12.355785
_cell_length_b 13.211097
_cell_length_c 23.078465
_cell_angle_alpha 90.000000
_cell_angle_beta 90.000000
_cell_angle_gamma 90.000000
_cell_volume 3767.178020
_symmetry_space_group_name_H-M "C C C M"
_symmetry_group_IT_number 66
_symmetry_cell_setting 'orthorhombic'
loop_
_space_group_symop_operation_xyz
x,y,z
-x,-y,z
x,-y,1/2-z
-x,y,1/2-z
-x,-y,-z
x,y,-z
-x,y,1/2+z
x,-y,1/2+z
1/2+x,1/2+y,z
1/2-x,1/2-y,z
1/2+x,1/2-y,1/2-z
1/2-x,1/2+y,1/2-z
1/2-x,1/2-y,-z
1/2+x,1/2+y,-z
1/2-x,1/2+y,1/2+z
1/2+x,1/2-y,1/2+z
loop_
_atom_site_type_symbol
_atom_site_label
_atom_site_fract_x
_atom_site_fract_y
_atom_site_fract_z
Si Si1 0.024501 0.615084 0.682654
Si Si2 0.759513 0.141337 0.630862
Si Si3 0.862642 0.220114 0.143034
Si Si4 0.879375 0.966087 0.436575
Si Si5 0.126776 0.888718 0.743529
O O1 0.950379 0.689329 0.643350
O O2 0.000000 0.500000 0.667998
O O3 0.000000 0.641720 0.750000
O O4 0.149221 0.622164 0.665440
O O5 0.750000 0.250000 0.597244
O O6 0.850642 0.156870 0.680364
O O7 0.796651 0.050694 0.588911
O O8 0.750000 0.250000 0.112587
O O9 0.902875 0.125990 0.106222
O O10 0.828495 0.184875 0.207394
O O11 0.831646 0.935596 0.500000
O O12 0.000000 0.000000 0.446768
O O13 0.000000 0.897626 0.750000
O O14 0.180924 0.000000 0.750000
#
# Coordination Sequence:
#
# PCOD8277646 Si02
#       5
#    16  16  16  16  16
#     4  11  24  39  60  95 136 171 206 256 332 407
#     4  12  23  39  64  95 132 168 213 270 329 395
#     4  12  23  41  65  93 128 170 214 264 328 398
#     4  11  25  45  68  92 123 170 227 282 329 382
#     4  11  21  34  61  96 129 166 211 262 321 399
#
# _framework density 21.236055
#
# number of rings (size 3 to 8) (size 9 to 14) (size 15 to 20)
#    0.000    0.600    2.000    8.400    2.800    0.800 
#    0.000    1.000    0.000    2.400    0.000    0.000 
#    0.000    0.000    0.000    0.000    0.000    0.000 
#
# Total GULP energy -495724.517255 kJ/mol
# GULP energy per Si atom -12393.112931 kJ/mol
# Density = 2.118772 g / cm^3
# Si number density = 21.236055 Si / 1000 Ang^3
#
#
#
# Elastic Constant Matrix: (Units=GPa)
#
#
# Indices 1 2 3 4 5 6 
#
# 1 103.0417 31.5704 22.9795 0.0000 0.0000 0.0000
# 2 31.5704 153.7250 42.6223 0.0000 0.0000 0.0000
# 3 22.9795 42.6223 103.3379 0.0000 0.0000 0.0000
# 4 0.0000 0.0000 0.0000 -4.6266 0.0000 0.0000
# 5 0.0000 0.0000 0.0000 0.0000 -49.6510 0.0000
# 6 0.0000 0.0000 0.0000 0.0000 0.0000 30.1733
#
#
#
# Elastic Compliance Matrix: (Units=1/GPa)
#
#
# Indices 1 2 3 4 5 6 
#
# 1 0.010599 -0.001720 -0.001648 0.000000 0.000000 0.000000
# 2 -0.001720 0.007624 -0.002762 0.000000 0.000000 0.000000
# 3 -0.001648 -0.002762 0.011183 0.000000 0.000000 0.000000
# 4 0.000000 0.000000 0.000000 -0.216143 0.000000 0.000000
# 5 0.000000 0.000000 0.000000 0.000000 -0.020141 0.000000
# 6 0.000000 0.000000 0.000000 0.000000 0.000000 0.033142
#
#
# Mechanical properties :
#
#
# Convention : Reuss Voigt Hill
#
# Bulk Modulus (GPa) = 58.32038 61.60544 59.96291
# Shear Modulus (GPa) = -32.10050 12.70797 -9.69627
#
# Velocity S-wave (km/s) = -3.89215 2.44891 -2.13913
# Velocity P-wave (km/s) = 2.70630 6.08843 4.71132
#
# Compressibility (1/GPa) = 0.01714666
#
# Stress axis : x y z
#
# Youngs Moduli (GPa) = 94.34676 131.16139 89.42431
#
# Poissons Ratio (x) = 0.22559 0.14733
# Poissons Ratio (y) = 0.16227 0.24701
# Poissons Ratio (z) = 0.15544 0.36229
#
# Static dielectric constant tensor:
#      x y z
#    x 3.839650 0.000000 0.000000 
#    y 0.000000 4.383300 0.000000 
#    z 0.000000 0.000000 3.763750 
# 
# 
# High freq. dielectric constant tensor:
#      x y z
#    x 1.844250 0.000000 0.000000 
#    y 0.000000 1.856410 0.000000 
#    z 0.000000 0.000000 1.796300 
# 
# From -- ./inp_files/56627.got.cif
#   From: 2010.03.12/outbox.cif.g09.slc.cpg/sg66_29_cif.got.tgz:56627.got - 2010.04.10 21:57:39.
