data_PCOD8277058
_publ_section_title
;
Structure prediction by ZEFSAII (Michael W. Deem and Ramdas Pophale) SiO2 
 PCOD8277058
Probable space group: C C C M
;
_chemical_formula_sum "Si O2"
_cell_formula_units_Z 96
_cell_length_a 22.969673
_cell_length_b 23.946734
_cell_length_c 8.617049
_cell_angle_alpha 90.000000
_cell_angle_beta 90.000000
_cell_angle_gamma 90.000000
_cell_volume 4739.796164
_symmetry_space_group_name_H-M "C C C M"
_symmetry_group_IT_number 66
_symmetry_cell_setting 'orthorhombic'
loop_
_space_group_symop_operation_xyz
x,y,z
-x,-y,z
x,-y,1/2-z
-x,y,1/2-z
-x,-y,-z
x,y,-z
-x,y,1/2+z
x,-y,1/2+z
1/2+x,1/2+y,z
1/2-x,1/2-y,z
1/2+x,1/2-y,1/2-z
1/2-x,1/2+y,1/2-z
1/2-x,1/2-y,-z
1/2+x,1/2+y,-z
1/2-x,1/2+y,1/2+z
1/2+x,1/2-y,1/2+z
loop_
_atom_site_type_symbol
_atom_site_label
_atom_site_fract_x
_atom_site_fract_y
_atom_site_fract_z
Si Si1 0.660562 0.443341 0.323087
Si Si2 0.125606 0.227541 0.182481
Si Si3 0.937468 0.560033 0.183305
Si Si4 0.361990 0.842984 0.179752
Si Si5 0.061180 0.124651 0.317987
Si Si6 0.239373 0.161798 0.824669
O O1 0.685417 0.500000 0.250000
O O2 0.640033 0.451411 0.500000
O O3 0.606002 0.424413 0.220648
O O4 0.712278 0.399326 0.314059
O O5 0.108956 0.285053 0.266586
O O6 0.079448 0.182059 0.236628
O O7 0.191439 0.207986 0.225094
O O8 0.119340 0.235265 0.000000
O O9 0.918313 0.500000 0.250000
O O10 0.889006 0.605565 0.226169
O O11 0.000000 0.578612 0.250000
O O12 0.942417 0.555066 0.000000
O O13 0.293264 0.837194 0.209001
O O14 0.374325 0.853090 0.000000
O O15 0.057721 0.134391 0.500000
O O16 0.000000 0.105184 0.250000
O O17 0.261109 0.174222 0.000000
#
# Coordination Sequence:
#
# PCOD8277058 Si02
#       6
#    16  16  16  16  16  16
#     4  10  21  38  59  84 115 152 194 240 291 342
#     4  10  21  39  60  84 117 154 192 237 290 341
#     4  11  23  43  66  88 117 150 187 233 287 340
#     4  12  24  37  59  91 120 152 195 234 277 338
#     4  11  22  38  59  84 115 151 193 239 290 344
#     4   9  20  38  58  82 117 156 192 236 289 340
#
# _framework density 20.254035999999999
#
# number of rings (size 3 to 8) (size 9 to 14) (size 15 to 20)
#    0.000    1.500    0.000    7.500    0.000    7.667 
#    0.000    6.667    0.000    0.000    0.000    0.000 
#    0.000    0.000    0.000    0.000    0.000    0.000 
#
# Total GULP energy -595432.604390 kJ/mol
# GULP energy per Si atom -12404.845925 kJ/mol
# Density = 2.020794 g / cm^3
# Si number density = 20.254036 Si / 1000 Ang^3
#
#
#
# Elastic Constant Matrix: (Units=GPa)
#
#
# Indices 1 2 3 4 5 6 
#
# 1 38.8437 7.8757 23.5505 0.0000 0.0000 0.0000
# 2 7.8757 108.5901 34.0136 0.0000 0.0000 0.0000
# 3 23.5505 34.0136 115.8511 0.0000 0.0000 0.0000
# 4 0.0000 0.0000 0.0000 33.0264 0.0000 0.0000
# 5 0.0000 0.0000 0.0000 0.0000 34.7786 0.0000
# 6 0.0000 0.0000 0.0000 0.0000 0.0000 13.5634
#
#
#
# Elastic Compliance Matrix: (Units=1/GPa)
#
#
# Indices 1 2 3 4 5 6 
#
# 1 0.029371 -0.000286 -0.005887 0.000000 0.000000 0.000000
# 2 -0.000286 0.010144 -0.002920 0.000000 0.000000 0.000000
# 3 -0.005887 -0.002920 0.010686 0.000000 0.000000 0.000000
# 4 0.000000 0.000000 0.000000 0.030279 0.000000 0.000000
# 5 0.000000 0.000000 0.000000 0.000000 0.028753 0.000000
# 6 0.000000 0.000000 0.000000 0.000000 0.000000 0.073728
#
#
# Mechanical properties :
#
#
# Convention : Reuss Voigt Hill
#
# Bulk Modulus (GPa) = 31.23514 43.79603 37.51559
# Shear Modulus (GPa) = 23.60505 29.46337 26.53421
#
# Velocity S-wave (km/s) = 3.41757 3.81818 3.62342
# Velocity P-wave (km/s) = 5.57030 6.41158 6.00569
#
# Compressibility (1/GPa) = 0.03201522
#
# Stress axis : x y z
#
# Youngs Moduli (GPa) = 34.04689 98.57663 93.58247
#
# Poissons Ratio (x) = 0.02823 0.55088
# Poissons Ratio (y) = 0.00975 0.27328
# Poissons Ratio (z) = 0.20042 0.28786
#
# Static dielectric constant tensor:
#      x y z
#    x 3.494490 0.000000 0.000000 
#    y 0.000000 3.802060 0.000000 
#    z 0.000000 0.000000 3.737150 
# 
# 
# High freq. dielectric constant tensor:
#      x y z
#    x 1.780940 0.000000 0.000000 
#    y 0.000000 1.802740 0.000000 
#    z 0.000000 0.000000 1.802230 
# 
# From -- ./inp_files/9130.got.cif
#   From: 2010.03.12/outbox.cif.g09.slc.cpg/sg66_5_cif.got.tgz:9130.got - 2010.04.10 21:57:39.
