data_PCOD8277894
_publ_section_title
;
Structure prediction by ZEFSAII (Michael W. Deem and Ramdas Pophale) SiO2 
 PCOD8277894
Probable space group: C C C M
;
_chemical_formula_sum "Si O2"
_cell_formula_units_Z 64
_cell_length_a 10.199881
_cell_length_b 12.223139
_cell_length_c 24.080483
_cell_angle_alpha 90.000000
_cell_angle_beta 90.000000
_cell_angle_gamma 90.000000
_cell_volume 3002.223701
_symmetry_space_group_name_H-M "C C C M"
_symmetry_group_IT_number 66
_symmetry_cell_setting 'orthorhombic'
loop_
_space_group_symop_operation_xyz
x,y,z
-x,-y,z
x,-y,1/2-z
-x,y,1/2-z
-x,-y,-z
x,y,-z
-x,y,1/2+z
x,-y,1/2+z
1/2+x,1/2+y,z
1/2-x,1/2-y,z
1/2+x,1/2-y,1/2-z
1/2-x,1/2+y,1/2-z
1/2-x,1/2-y,-z
1/2+x,1/2+y,-z
1/2-x,1/2+y,1/2+z
1/2+x,1/2-y,1/2+z
loop_
_atom_site_type_symbol
_atom_site_label
_atom_site_fract_x
_atom_site_fract_y
_atom_site_fract_z
Si Si1 0.528535 0.624305 0.851009
Si Si2 0.899352 0.277895 0.064755
Si Si3 0.000000 0.500000 0.614935
Si Si4 0.298328 0.914628 0.297711
Si Si5 0.000000 0.752619 0.750000
O O1 0.500000 0.500000 0.865881
O O2 0.500719 0.696179 0.905222
O O3 0.675507 0.638694 0.828710
O O4 0.441875 0.671586 0.799825
O O5 0.750000 0.250000 0.083836
O O6 0.944949 0.401592 0.077119
O O7 0.914040 0.255193 0.000000
O O8 0.879959 0.470622 0.653950
O O9 0.380022 0.819989 0.269202
O O10 0.255707 0.000000 0.250000
#
# Coordination Sequence:
#
# PCOD8277894 Si02
#       5
#    16  16   8  16   8
#     4  12  26  42  66 102 143 184 232 288 361 433
#     4  11  26  49  74 102 138 185 246 308 366 428
#     4  12  22  46  74 104 134 187 239 294 360 436
#     4  12  22  42  67 102 143 182 227 285 353 438
#     4  12  22  40  64 100 142 179 229 284 346 434
#
# _framework density 21.317532
#
# number of rings (size 3 to 8) (size 9 to 14) (size 15 to 20)
#    0.000    0.250    5.000    4.500    0.000    2.500 
#    0.000    3.750    0.000    0.000    0.000    0.000 
#    0.000    0.000    0.000    0.000    0.000    0.000 
#
# Total GULP energy -396741.415152 kJ/mol
# GULP energy per Si atom -12398.169223 kJ/mol
# Density = 2.126901 g / cm^3
# Si number density = 21.317532 Si / 1000 Ang^3
#
#
#
# Elastic Constant Matrix: (Units=GPa)
#
#
# Indices 1 2 3 4 5 6 
#
# 1 133.1492 63.0930 59.2585 0.0000 0.0000 0.0000
# 2 63.0930 164.0551 62.2417 0.0000 0.0000 0.0000
# 3 59.2585 62.2417 134.9458 0.0000 0.0000 0.0000
# 4 0.0000 0.0000 0.0000 27.3007 0.0000 0.0000
# 5 0.0000 0.0000 0.0000 0.0000 35.1009 0.0000
# 6 0.0000 0.0000 0.0000 0.0000 0.0000 33.0257
#
#
#
# Elastic Compliance Matrix: (Units=1/GPa)
#
#
# Indices 1 2 3 4 5 6 
#
# 1 0.010238 -0.002705 -0.003248 0.000000 0.000000 0.000000
# 2 -0.002705 0.008103 -0.002550 0.000000 0.000000 0.000000
# 3 -0.003248 -0.002550 0.010013 0.000000 0.000000 0.000000
# 4 0.000000 0.000000 0.000000 0.036629 0.000000 0.000000
# 5 0.000000 0.000000 0.000000 0.000000 0.028489 0.000000
# 6 0.000000 0.000000 0.000000 0.000000 0.000000 0.030279
#
#
# Mechanical properties :
#
#
# Convention : Reuss Voigt Hill
#
# Bulk Modulus (GPa) = 88.11945 89.03739 88.57842
# Shear Modulus (GPa) = 34.59271 35.58927 35.09099
#
# Velocity S-wave (km/s) = 4.03269 4.09036 4.06163
# Velocity P-wave (km/s) = 7.94417 8.01037 7.97734
#
# Compressibility (1/GPa) = 0.01134823
#
# Stress axis : x y z
#
# Youngs Moduli (GPa) = 97.67854 123.40945 99.87369
#
# Poissons Ratio (x) = 0.33382 0.32439
# Poissons Ratio (y) = 0.26422 0.25464
# Poissons Ratio (z) = 0.31726 0.31465
#
# Static dielectric constant tensor:
#      x y z
#    x 3.988460 0.000000 0.000000 
#    y 0.000000 3.963690 0.000000 
#    z 0.000000 0.000000 4.002910 
# 
# 
# High freq. dielectric constant tensor:
#      x y z
#    x 1.839960 0.000000 0.000000 
#    y 0.000000 1.862930 0.000000 
#    z 0.000000 0.000000 1.832790 
# 
# From -- ./inp_files/56337.got.cif
#   From: 2010.03.12/outbox.cif.g09.slc.cpg/sg66_29_cif.got.tgz:56337.got - 2010.04.10 21:57:39.
