data_PCOD8277188
_publ_section_title
;
Structure prediction by ZEFSAII (Michael W. Deem and Ramdas Pophale) SiO2 
 PCOD8277188
Probable space group: C C C M
;
_chemical_formula_sum "Si O2"
_cell_formula_units_Z 104
_cell_length_a 9.223186
_cell_length_b 18.457754
_cell_length_c 29.218303
_cell_angle_alpha 90.000000
_cell_angle_beta 90.000000
_cell_angle_gamma 90.000000
_cell_volume 4974.103400
_symmetry_space_group_name_H-M "C C C M"
_symmetry_group_IT_number 66
_symmetry_cell_setting 'orthorhombic'
loop_
_space_group_symop_operation_xyz
x,y,z
-x,-y,z
x,-y,1/2-z
-x,y,1/2-z
-x,-y,-z
x,y,-z
-x,y,1/2+z
x,-y,1/2+z
1/2+x,1/2+y,z
1/2-x,1/2-y,z
1/2+x,1/2-y,1/2-z
1/2-x,1/2+y,1/2-z
1/2-x,1/2-y,-z
1/2+x,1/2+y,-z
1/2-x,1/2+y,1/2+z
1/2+x,1/2-y,1/2+z
loop_
_atom_site_type_symbol
_atom_site_label
_atom_site_fract_x
_atom_site_fract_y
_atom_site_fract_z
Si Si1 0.254812 0.902929 0.661831
Si Si2 0.915762 0.226571 0.448333
Si Si3 0.002382 0.915209 0.098392
Si Si4 0.334861 0.394627 0.260484
Si Si5 0.786313 0.559119 0.644290
Si Si6 0.750000 0.750000 0.301190
Si Si7 0.988208 0.682727 0.366538
O O1 0.259193 0.914821 0.716059
O O2 0.345954 0.830206 0.649815
O O3 0.090092 0.895001 0.643826
O O4 0.313697 0.974364 0.635097
O O5 0.963653 0.244476 0.500000
O O6 0.750000 0.250000 0.440776
O O7 0.945065 0.140355 0.440451
O O8 0.014762 0.274046 0.414256
O O9 0.167599 0.900982 0.112365
O O10 0.000000 0.000000 0.082818
O O11 0.500000 0.416914 0.250000
O O12 0.267287 0.437196 0.303113
O O13 0.318681 0.309496 0.268464
O O14 0.932128 0.600250 0.630929
O O15 0.885670 0.723913 0.331206
#
# Coordination Sequence:
#
# PCOD8277188 Si02
#       7
#    16  16  16  16  16   8  16
#     4  11  22  36  65  85 121 178 208 249 318 366
#     4  11  23  41  68  97 121 156 208 262 320 391
#     4  10  21  40  63  94 126 166 207 247 311 381
#     4  11  22  35  56  87 125 167 214 260 297 353
#     4  10  22  40  58  92 127 160 215 261 302 370
#     4  10  26  36  55  88 132 160 211 266 310 370
#     4  11  23  42  62  88 124 161 204 264 319 376
#
# _framework density 20.908291999999999
#
# number of rings (size 3 to 8) (size 9 to 14) (size 15 to 20)
#    0.000    1.385    3.077    2.769    2.154    2.769 
#    0.000    6.538    0.000    2.769    0.000    0.000 
#    0.000    0.000    0.000    0.000    0.000    0.000 
#
# Total GULP energy -644390.969009 kJ/mol
# GULP energy per Si atom -12392.134019 kJ/mol
# Density = 2.086070 g / cm^3
# Si number density = 20.908292 Si / 1000 Ang^3
#
#
#
# Elastic Constant Matrix: (Units=GPa)
#
#
# Indices 1 2 3 4 5 6 
#
# 1 70.9573 40.3640 28.8332 0.0000 0.0000 0.0000
# 2 40.3640 94.8297 39.9518 0.0000 0.0000 0.0000
# 3 28.8332 39.9518 86.6347 0.0000 0.0000 0.0000
# 4 0.0000 0.0000 0.0000 12.7149 0.0000 0.0000
# 5 0.0000 0.0000 0.0000 0.0000 16.1878 0.0000
# 6 0.0000 0.0000 0.0000 0.0000 0.0000 30.9677
#
#
#
# Elastic Compliance Matrix: (Units=1/GPa)
#
#
# Indices 1 2 3 4 5 6 
#
# 1 0.019315 -0.006843 -0.003273 0.000000 0.000000 0.000000
# 2 -0.006843 0.015512 -0.004876 0.000000 0.000000 0.000000
# 3 -0.003273 -0.004876 0.014881 0.000000 0.000000 0.000000
# 4 0.000000 0.000000 0.000000 0.078648 0.000000 0.000000
# 5 0.000000 0.000000 0.000000 0.000000 0.061775 0.000000
# 6 0.000000 0.000000 0.000000 0.000000 0.000000 0.032292
#
#
# Mechanical properties :
#
#
# Convention : Reuss Voigt Hill
#
# Bulk Modulus (GPa) = 50.69780 52.30219 51.50000
# Shear Modulus (GPa) = 19.30642 21.52558 20.41600
#
# Velocity S-wave (km/s) = 3.04202 3.21210 3.12822
# Velocity P-wave (km/s) = 6.05301 6.23106 6.14268
#
# Compressibility (1/GPa) = 0.01972472
#
# Stress axis : x y z
#
# Youngs Moduli (GPa) = 51.77228 64.46587 67.20157
#
# Poissons Ratio (x) = 0.44112 0.21994
# Poissons Ratio (y) = 0.35426 0.32768
# Poissons Ratio (z) = 0.16945 0.31434
#
# Static dielectric constant tensor:
#      x y z
#    x 3.818050 0.000000 0.000000 
#    y 0.000000 3.986740 0.000000 
#    z 0.000000 0.000000 3.502510 
# 
# 
# High freq. dielectric constant tensor:
#      x y z
#    x 1.820550 0.000000 0.000000 
#    y 0.000000 1.836550 0.000000 
#    z 0.000000 0.000000 1.784660 
# 
# From -- ./inp_files/62691.got.cif
#   From: 2010.03.12/outbox.cif.g09.slc.cpg/sg66_32_cif.got.tgz:62691.got - 2010.04.10 21:57:39.
