data_PCOD8277403
_publ_section_title
;
Structure prediction by ZEFSAII (Michael W. Deem and Ramdas Pophale) SiO2 
 PCOD8277403
Probable space group: C C C M
;
_chemical_formula_sum "Si O2"
_cell_formula_units_Z 64
_cell_length_a 9.826628
_cell_length_b 10.400552
_cell_length_c 24.990658
_cell_angle_alpha 90.000000
_cell_angle_beta 90.000000
_cell_angle_gamma 90.000000
_cell_volume 2554.104113
_symmetry_space_group_name_H-M "C C C M"
_symmetry_group_IT_number 66
_symmetry_cell_setting 'orthorhombic'
loop_
_space_group_symop_operation_xyz
x,y,z
-x,-y,z
x,-y,1/2-z
-x,y,1/2-z
-x,-y,-z
x,y,-z
-x,y,1/2+z
x,-y,1/2+z
1/2+x,1/2+y,z
1/2-x,1/2-y,z
1/2+x,1/2-y,1/2-z
1/2-x,1/2+y,1/2-z
1/2-x,1/2-y,-z
1/2+x,1/2+y,-z
1/2-x,1/2+y,1/2+z
1/2+x,1/2-y,1/2+z
loop_
_atom_site_type_symbol
_atom_site_label
_atom_site_fract_x
_atom_site_fract_y
_atom_site_fract_z
Si Si1 0.356375 0.356827 0.220820
Si Si2 0.541167 0.193032 0.370816
Si Si3 0.907612 0.876166 0.558852
Si Si4 0.789638 0.541969 0.350685
O O1 0.500000 0.373273 0.250000
O O2 0.250000 0.250000 0.246347
O O3 0.392745 0.308593 0.161831
O O4 0.289316 0.500507 0.205251
O O5 0.496526 0.248787 0.428359
O O6 0.653300 0.084027 0.380551
O O7 0.415007 0.135312 0.335837
O O8 0.840612 0.858920 0.500000
O O9 0.799848 0.882682 0.606503
O O10 0.000000 0.000000 0.559260
#
# Coordination Sequence:
#
# PCOD8277403 Si02
#       4
#    16  16  16  16
#     4  10  22  44  68  97 133 174 225 274 334 401
#     4  10  22  43  67  94 133 173 218 273 329 397
#     4  11  23  40  66  99 132 173 224 274 329 395
#     4  10  22  43  68  95 132 176 218 271 333 392
#
# _framework density 25.057708999999999
#
# number of rings (size 3 to 8) (size 9 to 14) (size 15 to 20)
#    0.000    1.750    2.500    0.750    0.000    5.000 
#    0.000   27.500    0.000    0.000    0.000    0.000 
#    0.000    0.000    0.000    0.000    0.000    0.000 
#
# Total GULP energy -396590.054838 kJ/mol
# GULP energy per Si atom -12393.439214 kJ/mol
# Density = 2.500068 g / cm^3
# Si number density = 25.057709 Si / 1000 Ang^3
#
#
#
# Elastic Constant Matrix: (Units=GPa)
#
#
# Indices 1 2 3 4 5 6 
#
# 1 131.3559 33.4675 37.0726 0.0000 0.0000 0.0000
# 2 33.4675 74.8738 -3.4868 0.0000 0.0000 0.0000
# 3 37.0726 -3.4868 85.5658 0.0000 0.0000 0.0000
# 4 0.0000 0.0000 0.0000 4.6869 0.0000 0.0000
# 5 0.0000 0.0000 0.0000 0.0000 3.5505 0.0000
# 6 0.0000 0.0000 0.0000 0.0000 0.0000 50.3546
#
#
#
# Elastic Compliance Matrix: (Units=1/GPa)
#
#
# Indices 1 2 3 4 5 6 
#
# 1 0.010109 -0.004732 -0.004573 0.000000 0.000000 0.000000
# 2 -0.004732 0.015596 0.002686 0.000000 0.000000 0.000000
# 3 -0.004573 0.002686 0.013778 0.000000 0.000000 0.000000
# 4 0.000000 0.000000 0.000000 0.213359 0.000000 0.000000
# 5 0.000000 0.000000 0.000000 0.000000 0.281649 0.000000
# 6 0.000000 0.000000 0.000000 0.000000 0.000000 0.019859
#
#
# Mechanical properties :
#
#
# Convention : Reuss Voigt Hill
#
# Bulk Modulus (GPa) = 38.10256 47.32247 42.71252
# Shear Modulus (GPa) = 8.67551 26.70122 17.68837
#
# Velocity S-wave (km/s) = 1.86272 3.26788 2.65977
# Velocity P-wave (km/s) = 4.45704 5.75891 5.14929
#
# Compressibility (1/GPa) = 0.02624496
#
# Stress axis : x y z
#
# Youngs Moduli (GPa) = 98.92209 64.11990 72.58205
#
# Poissons Ratio (x) = 0.30338 0.33189
# Poissons Ratio (y) = 0.46805 -0.19492
# Poissons Ratio (z) = 0.45234 -0.17219
#
# Static dielectric constant tensor:
#      x y z
#    x 5.292980 0.000000 0.000000 
#    y 0.000000 5.022090 0.000000 
#    z 0.000000 0.000000 4.447820 
# 
# 
# High freq. dielectric constant tensor:
#      x y z
#    x 2.016430 0.000000 0.000000 
#    y 0.000000 2.027410 0.000000 
#    z 0.000000 0.000000 1.970990 
# 
# From -- ./inp_files/67914.got.cif
#   From: 2010.03.12/outbox.cif.g09.slc.cpg/sg66_34_cif.got.tgz:67914.got - 2010.04.10 21:57:39.
