data_PCOD8277179
_publ_section_title
;
Structure prediction by ZEFSAII (Michael W. Deem and Ramdas Pophale) SiO2 
 PCOD8277179
Probable space group: C C C M
;
_chemical_formula_sum "Si O2"
_cell_formula_units_Z 88
_cell_length_a 9.396939
_cell_length_b 15.271183
_cell_length_c 28.926766
_cell_angle_alpha 90.000000
_cell_angle_beta 90.000000
_cell_angle_gamma 90.000000
_cell_volume 4151.059625
_symmetry_space_group_name_H-M "C C C M"
_symmetry_group_IT_number 66
_symmetry_cell_setting 'orthorhombic'
loop_
_space_group_symop_operation_xyz
x,y,z
-x,-y,z
x,-y,1/2-z
-x,y,1/2-z
-x,-y,-z
x,y,-z
-x,y,1/2+z
x,-y,1/2+z
1/2+x,1/2+y,z
1/2-x,1/2-y,z
1/2+x,1/2-y,1/2-z
1/2-x,1/2+y,1/2-z
1/2-x,1/2-y,-z
1/2+x,1/2+y,-z
1/2-x,1/2+y,1/2+z
1/2+x,1/2-y,1/2+z
loop_
_atom_site_type_symbol
_atom_site_label
_atom_site_fract_x
_atom_site_fract_y
_atom_site_fract_z
Si Si1 0.841114 0.587761 0.733371
Si Si2 0.219650 0.042561 0.641419
Si Si3 0.515936 0.719689 0.449220
Si Si4 0.309405 0.116531 0.449266
Si Si5 0.578667 0.360572 0.640730
Si Si6 0.750000 0.750000 0.791564
O O1 0.756629 0.500000 0.750000
O O2 0.829558 0.585231 0.677791
O O3 0.778935 0.672958 0.756259
O O4 0.000000 0.580133 0.750000
O O5 0.295300 0.045776 0.591397
O O6 0.079329 0.102236 0.647448
O O7 0.189554 0.939622 0.648574
O O8 0.443593 0.710104 0.500000
O O9 0.555252 0.820947 0.439069
O O10 0.663950 0.669525 0.449247
O O11 0.409259 0.680523 0.410789
O O12 0.328559 0.071684 0.500000
O O13 0.617490 0.282186 0.676567
#
# Coordination Sequence:
#
# PCOD8277179 Si02
#       6
#    16  16  16  16  16   8
#     4  11  26  45  62  88 120 159 203 257 314 372
#     4  10  21  40  61  90 123 156 204 257 304 362
#     4   8  15  30  54  88 123 157 199 248 301 364
#     4   8  15  29  56  90 123 154 196 249 304 361
#     4  10  22  38  60  89 122 160 202 255 308 360
#     4  12  26  42  61  90 117 162 208 252 316 370
#
# _framework density 21.199404999999999
#
# number of rings (size 3 to 8) (size 9 to 14) (size 15 to 20)
#    0.000    2.364    1.818    1.091    5.091    2.182 
#    0.000    4.091    0.000    0.000    0.000    5.091 
#    0.000    0.000    0.000    0.000    0.000    0.000 
#
# Total GULP energy -545094.966187 kJ/mol
# GULP energy per Si atom -12388.521959 kJ/mol
# Density = 2.115115 g / cm^3
# Si number density = 21.199405 Si / 1000 Ang^3
#
#
#
# Elastic Constant Matrix: (Units=GPa)
#
#
# Indices 1 2 3 4 5 6 
#
# 1 47.3257 29.0059 48.2066 0.0000 0.0000 0.0000
# 2 29.0059 107.4159 68.1058 0.0000 0.0000 0.0000
# 3 48.2066 68.1058 187.0433 0.0000 0.0000 0.0000
# 4 0.0000 0.0000 0.0000 28.0533 0.0000 0.0000
# 5 0.0000 0.0000 0.0000 0.0000 34.4655 0.0000
# 6 0.0000 0.0000 0.0000 0.0000 0.0000 19.1620
#
#
#
# Elastic Compliance Matrix: (Units=1/GPa)
#
#
# Indices 1 2 3 4 5 6 
#
# 1 0.030018 -0.004161 -0.006221 0.000000 0.000000 0.000000
# 2 -0.004161 0.012681 -0.003545 0.000000 0.000000 0.000000
# 3 -0.006221 -0.003545 0.008240 0.000000 0.000000 0.000000
# 4 0.000000 0.000000 0.000000 0.035646 0.000000 0.000000
# 5 0.000000 0.000000 0.000000 0.000000 0.029015 0.000000
# 6 0.000000 0.000000 0.000000 0.000000 0.000000 0.052187
#
#
# Mechanical properties :
#
#
# Convention : Reuss Voigt Hill
#
# Bulk Modulus (GPa) = 43.31953 70.26905 56.79429
# Shear Modulus (GPa) = 24.58984 29.43393 27.01189
#
# Velocity S-wave (km/s) = 3.40947 3.73021 3.57344
# Velocity P-wave (km/s) = 5.99817 7.19523 6.62379
#
# Compressibility (1/GPa) = 0.02308428
#
# Stress axis : x y z
#
# Youngs Moduli (GPa) = 33.31381 78.85907 121.35199
#
# Poissons Ratio (x) = 0.32815 0.75496
# Poissons Ratio (y) = 0.13863 0.43017
# Poissons Ratio (z) = 0.20725 0.27954
#
# Static dielectric constant tensor:
#      x y z
#    x 3.363520 0.000000 0.000000 
#    y 0.000000 2.661590 0.000000 
#    z 0.000000 0.000000 4.358790 
# 
# 
# High freq. dielectric constant tensor:
#      x y z
#    x 1.790150 0.000000 0.000000 
#    y 0.000000 1.826470 0.000000 
#    z 0.000000 0.000000 1.849590 
# 
# From -- ./inp_files/63591.got.cif
#   From: 2010.03.12/outbox.cif.g09.slc.cpg/sg66_32_cif.got.tgz:63591.got - 2010.04.10 21:57:39.
