data_PCOD8277528
_publ_section_title
;
Structure prediction by ZEFSAII (Michael W. Deem and Ramdas Pophale) SiO2 
 PCOD8277528
Probable space group: C C C M
;
_chemical_formula_sum "Si O2"
_cell_formula_units_Z 84
_cell_length_a 20.964600
_cell_length_b 11.848685
_cell_length_c 16.803259
_cell_angle_alpha 90.000000
_cell_angle_beta 90.000000
_cell_angle_gamma 90.000000
_cell_volume 4173.978963
_symmetry_space_group_name_H-M "C C C M"
_symmetry_group_IT_number 66
_symmetry_cell_setting 'orthorhombic'
loop_
_space_group_symop_operation_xyz
x,y,z
-x,-y,z
x,-y,1/2-z
-x,y,1/2-z
-x,-y,-z
x,y,-z
-x,y,1/2+z
x,-y,1/2+z
1/2+x,1/2+y,z
1/2-x,1/2-y,z
1/2+x,1/2-y,1/2-z
1/2-x,1/2+y,1/2-z
1/2-x,1/2-y,-z
1/2+x,1/2+y,-z
1/2-x,1/2+y,1/2+z
1/2+x,1/2-y,1/2+z
loop_
_atom_site_type_symbol
_atom_site_label
_atom_site_fract_x
_atom_site_fract_y
_atom_site_fract_z
Si Si1 0.500000 0.000000 0.250000
Si Si2 0.068072 0.940788 0.000000
Si Si3 0.891706 0.517566 0.500000
Si Si4 0.670012 0.541945 0.369160
Si Si5 0.918190 0.350201 0.634310
Si Si6 0.508981 0.209547 0.000000
Si Si7 0.182304 0.812099 0.720470
Si Si8 0.761052 0.379390 0.000000
O O1 0.543632 0.081452 0.300735
O O2 0.106146 0.974904 0.920827
O O3 0.061772 0.805910 0.000000
O O4 0.000000 0.000000 0.000000
O O5 0.883131 0.439822 0.577516
O O6 0.958544 0.585692 0.500000
O O7 0.836365 0.607968 0.500000
O O8 0.688959 0.423880 0.331092
O O9 0.658881 0.645145 0.307284
O O10 0.731217 0.567241 0.421827
O O11 0.868617 0.270707 0.680100
O O12 0.965714 0.276563 0.579051
O O13 0.250000 0.750000 0.727287
O O14 0.750000 0.250000 0.000000
#
# Coordination Sequence:
#
# PCOD8277528 Si02
#       8
#     4   8   8  16  16   8  16   8
#     4  12  24  38  64  98 132 166 216 270 324 400
#     4  11  23  42  66  88 124 172 210 266 322 390
#     4  11  21  42  64  94 128 172 215 269 318 391
#     4  10  24  43  60  98 127 159 224 263 318 398
#     4  11  24  41  63  94 129 168 217 261 329 392
#     4  11  22  42  62  90 130 168 213 267 319 388
#     4  11  24  43  66  91 131 169 208 273 327 382
#     4  11  22  38  68  92 124 171 217 263 326 387
#
# _framework density 20.124682
#
# number of rings (size 3 to 8) (size 9 to 14) (size 15 to 20)
#    0.000    1.143    1.905    4.571    2.667    6.857 
#    0.000    5.714    0.000    0.000    0.000    0.000 
#    0.000    0.000    0.000    0.000    0.000    0.000 
#
# Total GULP energy -520788.777766 kJ/mol
# GULP energy per Si atom -12399.732804 kJ/mol
# Density = 2.007888 g / cm^3
# Si number density = 20.124682 Si / 1000 Ang^3
#
#
#
# Elastic Constant Matrix: (Units=GPa)
#
#
# Indices 1 2 3 4 5 6 
#
# 1 118.8648 53.1772 60.9963 0.0000 0.0000 0.0000
# 2 53.1772 117.9269 58.8970 0.0000 0.0000 0.0000
# 3 60.9963 58.8970 152.6551 0.0000 0.0000 0.0000
# 4 0.0000 0.0000 0.0000 33.9931 0.0000 0.0000
# 5 0.0000 0.0000 0.0000 0.0000 -7.4181 0.0000
# 6 0.0000 0.0000 0.0000 0.0000 0.0000 51.3637
#
#
#
# Elastic Compliance Matrix: (Units=1/GPa)
#
#
# Indices 1 2 3 4 5 6 
#
# 1 0.011729 -0.003652 -0.003277 0.000000 0.000000 0.000000
# 2 -0.003652 0.011641 -0.003032 0.000000 0.000000 0.000000
# 3 -0.003277 -0.003032 0.009030 0.000000 0.000000 0.000000
# 4 0.000000 0.000000 0.000000 0.029418 0.000000 0.000000
# 5 0.000000 0.000000 0.000000 0.000000 -0.134805 0.000000
# 6 0.000000 0.000000 0.000000 0.000000 0.000000 0.019469
#
#
# Mechanical properties :
#
#
# Convention : Reuss Voigt Hill
#
# Bulk Modulus (GPa) = 80.14904 81.73199 80.94052
# Shear Modulus (GPa) = -169.85307 30.01281 -69.92013
#
# Velocity S-wave (km/s) = -9.19693 3.86598 -5.90075
# Velocity P-wave (km/s) = 8.53613 7.78644 2.47353
#
# Compressibility (1/GPa) = 0.01247676
#
# Stress axis : x y z
#
# Youngs Moduli (GPa) = 85.26226 85.90373 110.74100
#
# Poissons Ratio (x) = 0.31372 0.36294
# Poissons Ratio (y) = 0.31137 0.33577
# Poissons Ratio (z) = 0.27944 0.26047
#
# Static dielectric constant tensor:
#      x y z
#    x 3.417760 0.000000 0.000000 
#    y 0.000000 3.602970 0.000000 
#    z 0.000000 0.000000 3.951170 
# 
# 
# High freq. dielectric constant tensor:
#      x y z
#    x 1.789320 0.000000 0.000000 
#    y 0.000000 1.800340 0.000000 
#    z 0.000000 0.000000 1.801670 
# 
# From -- ./inp_files/42743.got.cif
#   From: 2010.03.12/outbox.cif.g09.slc.cpg/sg66_22_cif.got.tgz:42743.got - 2010.04.10 21:57:39.
