data_PCOD8277723
_publ_section_title
;
Structure prediction by ZEFSAII (Michael W. Deem and Ramdas Pophale) SiO2 
 PCOD8277723
Probable space group: C C C M
;
_chemical_formula_sum "Si O2"
_cell_formula_units_Z 96
_cell_length_a 15.719237
_cell_length_b 15.794459
_cell_length_c 19.370105
_cell_angle_alpha 90.000000
_cell_angle_beta 90.000000
_cell_angle_gamma 90.000000
_cell_volume 4809.148543
_symmetry_space_group_name_H-M "C C C M"
_symmetry_group_IT_number 66
_symmetry_cell_setting 'orthorhombic'
loop_
_space_group_symop_operation_xyz
x,y,z
-x,-y,z
x,-y,1/2-z
-x,y,1/2-z
-x,-y,-z
x,y,-z
-x,y,1/2+z
x,-y,1/2+z
1/2+x,1/2+y,z
1/2-x,1/2-y,z
1/2+x,1/2-y,1/2-z
1/2-x,1/2+y,1/2-z
1/2-x,1/2-y,-z
1/2+x,1/2+y,-z
1/2-x,1/2+y,1/2+z
1/2+x,1/2-y,1/2+z
loop_
_atom_site_type_symbol
_atom_site_label
_atom_site_fract_x
_atom_site_fract_y
_atom_site_fract_z
Si Si1 0.001875 0.214965 0.638954
Si Si2 0.000000 0.357412 0.250000
Si Si3 0.772266 0.616528 0.000000
Si Si4 0.392602 0.276495 0.000000
Si Si5 0.136814 0.500000 0.250000
Si Si6 0.317719 0.681614 0.920943
Si Si7 0.752976 0.998348 0.381169
Si Si8 0.575507 0.549136 0.178201
O O1 0.952051 0.223284 0.567076
O O2 0.953457 0.146544 0.687298
O O3 0.004440 0.302652 0.680276
O O4 0.098329 0.185284 0.625755
O O5 0.082348 0.415536 0.241280
O O6 0.795005 0.558975 0.934301
O O7 0.672808 0.644534 0.000000
O O8 0.836685 0.692990 0.000000
O O9 0.194911 0.484079 0.315609
O O10 0.250000 0.750000 0.893186
O O11 0.274398 0.590565 0.915803
O O12 0.342126 0.701235 0.000000
O O13 0.838428 0.048491 0.363436
O O14 0.500000 0.500000 0.136583
O O15 0.588338 0.500000 0.250000
#
# Coordination Sequence:
#
# PCOD8277723 Si02
#       8
#    16   8   8   8   8  16  16  16
#     4  12  23  43  68  94 132 168 212 266 331 383
#     4  11  26  46  65  90 124 178 221 272 314 375
#     4  11  24  41  63  96 130 165 216 264 324 385
#     4  11  24  41  65  96 128 169 214 266 320 395
#     4  11  26  46  65  88 128 172 229 264 314 381
#     4  11  24  41  65  95 127 163 210 264 318 384
#     4  12  22  42  66  94 129 169 208 266 324 387
#     4  11  22  37  61  95 129 163 202 256 323 391
#
# _framework density 19.961953999999999
#
# number of rings (size 3 to 8) (size 9 to 14) (size 15 to 20)
#    0.000    0.667    5.833    3.000    0.000    0.000 
#    0.000    2.500    0.000    4.000    0.000    0.000 
#    0.000    0.000    0.000    0.000    0.000    0.000 
#
# Total GULP energy -595257.633965 kJ/mol
# GULP energy per Si atom -12401.200708 kJ/mol
# Density = 1.991652 g / cm^3
# Si number density = 19.961954 Si / 1000 Ang^3
#
#
#
# Elastic Constant Matrix: (Units=GPa)
#
#
# Indices 1 2 3 4 5 6 
#
# 1 86.6320 30.8917 24.9755 0.0000 0.0000 0.0000
# 2 30.8917 120.6565 30.4792 0.0000 0.0000 0.0000
# 3 24.9755 30.4792 99.8268 0.0000 0.0000 0.0000
# 4 0.0000 0.0000 0.0000 29.4628 0.0000 0.0000
# 5 0.0000 0.0000 0.0000 0.0000 26.4280 0.0000
# 6 0.0000 0.0000 0.0000 0.0000 0.0000 29.9662
#
#
#
# Elastic Compliance Matrix: (Units=1/GPa)
#
#
# Indices 1 2 3 4 5 6 
#
# 1 0.013241 -0.002767 -0.002468 0.000000 0.000000 0.000000
# 2 -0.002767 0.009559 -0.002226 0.000000 0.000000 0.000000
# 3 -0.002468 -0.002226 0.011315 0.000000 0.000000 0.000000
# 4 0.000000 0.000000 0.000000 0.033941 0.000000 0.000000
# 5 0.000000 0.000000 0.000000 0.000000 0.037839 0.000000
# 6 0.000000 0.000000 0.000000 0.000000 0.000000 0.033371
#
#
# Mechanical properties :
#
#
# Convention : Reuss Voigt Hill
#
# Bulk Modulus (GPa) = 52.10396 53.31202 52.70799
# Shear Modulus (GPa) = 31.13622 31.88932 31.51277
#
# Velocity S-wave (km/s) = 3.95369 4.00122 3.97752
# Velocity P-wave (km/s) = 6.85569 6.93622 6.89607
#
# Compressibility (1/GPa) = 0.01919240
#
# Stress axis : x y z
#
# Youngs Moduli (GPa) = 75.52208 104.61637 88.38163
#
# Poissons Ratio (x) = 0.28944 0.21813
# Poissons Ratio (y) = 0.20895 0.19676
# Poissons Ratio (z) = 0.18639 0.23291
#
# Static dielectric constant tensor:
#      x y z
#    x 3.802930 0.000000 0.000000 
#    y 0.000000 3.674180 0.000000 
#    z 0.000000 0.000000 3.545830 
# 
# 
# High freq. dielectric constant tensor:
#      x y z
#    x 1.784920 0.000000 0.000000 
#    y 0.000000 1.791810 0.000000 
#    z 0.000000 0.000000 1.781180 
# 
# From -- ./inp_files/49956.got.cif
#   From: 2010.03.12/outbox.cif.g09.slc.cpg/sg66_25_cif.got.tgz:49956.got - 2010.04.10 21:57:39.
