data_PCOD8277784
_publ_section_title
;
Structure prediction by ZEFSAII (Michael W. Deem and Ramdas Pophale) SiO2 
 PCOD8277784
Probable space group: C C C M
;
_chemical_formula_sum "Si O2"
_cell_formula_units_Z 80
_cell_length_a 11.583011
_cell_length_b 15.989941
_cell_length_c 21.105914
_cell_angle_alpha 90.000000
_cell_angle_beta 90.000000
_cell_angle_gamma 90.000000
_cell_volume 3909.061420
_symmetry_space_group_name_H-M "C C C M"
_symmetry_group_IT_number 66
_symmetry_cell_setting 'orthorhombic'
loop_
_space_group_symop_operation_xyz
x,y,z
-x,-y,z
x,-y,1/2-z
-x,y,1/2-z
-x,-y,-z
x,y,-z
-x,y,1/2+z
x,-y,1/2+z
1/2+x,1/2+y,z
1/2-x,1/2-y,z
1/2+x,1/2-y,1/2-z
1/2-x,1/2+y,1/2-z
1/2-x,1/2-y,-z
1/2+x,1/2+y,-z
1/2-x,1/2+y,1/2+z
1/2+x,1/2-y,1/2+z
loop_
_atom_site_type_symbol
_atom_site_label
_atom_site_fract_x
_atom_site_fract_y
_atom_site_fract_z
Si Si1 0.283038 0.862526 0.166512
Si Si2 0.708009 0.113613 0.500000
Si Si3 0.064454 0.221085 0.000000
Si Si4 0.435364 0.727742 0.129026
Si Si5 0.142937 0.300477 0.803652
Si Si6 0.373341 0.030756 0.878342
O O1 0.359323 0.811540 0.115076
O O2 0.147099 0.846432 0.155388
O O3 0.328504 0.820236 0.231237
O O4 0.305664 0.960904 0.162310
O O5 0.830571 0.157286 0.500000
O O6 0.606433 0.182730 0.500000
O O7 0.698926 0.052236 0.559559
O O8 0.990718 0.201651 0.937542
O O9 0.531159 0.743028 0.183822
O O10 0.250000 0.250000 0.835063
O O11 0.117286 0.387883 0.836082
O O12 0.500000 0.000000 0.897401
#
# Coordination Sequence:
#
# PCOD8277784 Si02
#       6
#    16   8   8  16  16  16
#     4  11  25  40  64 103 138 180 225 282 347 401
#     4  11  23  43  67 100 133 174 234 281 346 399
#     4  11  22  44  69  97 134 185 231 278 338 427
#     4  11  23  42  67 100 136 185 225 278 344 408
#     4  12  23  42  69  98 138 179 228 277 341 420
#     4  12  24  40  69 102 137 174 228 292 340 396
#
# _framework density 20.465271000000001
#
# number of rings (size 3 to 8) (size 9 to 14) (size 15 to 20)
#    0.000    0.600    6.000    2.700    0.000    4.000 
#    0.000    5.000    0.000    4.800    0.000    0.000 
#    0.000    0.000    0.000    0.000    0.000    0.000 
#
# Total GULP energy -495941.743811 kJ/mol
# GULP energy per Si atom -12398.543595 kJ/mol
# Density = 2.041869 g / cm^3
# Si number density = 20.465271 Si / 1000 Ang^3
#
#
#
# Elastic Constant Matrix: (Units=GPa)
#
#
# Indices 1 2 3 4 5 6 
#
# 1 148.1582 48.0688 60.2272 0.0000 0.0000 0.0000
# 2 48.0688 83.9464 26.2293 0.0000 0.0000 0.0000
# 3 60.2272 26.2293 125.2290 0.0000 0.0000 0.0000
# 4 0.0000 0.0000 0.0000 12.9684 0.0000 0.0000
# 5 0.0000 0.0000 0.0000 0.0000 33.5235 0.0000
# 6 0.0000 0.0000 0.0000 0.0000 0.0000 34.2229
#
#
#
# Elastic Compliance Matrix: (Units=1/GPa)
#
#
# Indices 1 2 3 4 5 6 
#
# 1 0.009693 -0.004380 -0.003744 0.000000 0.000000 0.000000
# 2 -0.004380 0.014726 -0.000978 0.000000 0.000000 0.000000
# 3 -0.003744 -0.000978 0.009991 0.000000 0.000000 0.000000
# 4 0.000000 0.000000 0.000000 0.077110 0.000000 0.000000
# 5 0.000000 0.000000 0.000000 0.000000 0.029830 0.000000
# 6 0.000000 0.000000 0.000000 0.000000 0.000000 0.029220
#
#
# Mechanical properties :
#
#
# Convention : Reuss Voigt Hill
#
# Bulk Modulus (GPa) = 61.70820 69.59825 65.65323
# Shear Modulus (GPa) = 25.74981 30.99685 28.37333
#
# Velocity S-wave (km/s) = 3.55099 3.89602 3.72750
# Velocity P-wave (km/s) = 6.85790 7.37024 7.11868
#
# Compressibility (1/GPa) = 0.01620530
#
# Stress axis : x y z
#
# Youngs Moduli (GPa) = 103.17035 67.90671 100.09167
#
# Poissons Ratio (x) = 0.29745 0.37476
# Poissons Ratio (y) = 0.45192 0.09786
# Poissons Ratio (z) = 0.38628 0.06639
#
# Static dielectric constant tensor:
#      x y z
#    x 3.993720 0.000000 0.000000 
#    y 0.000000 3.716280 0.000000 
#    z 0.000000 0.000000 3.798630 
# 
# 
# High freq. dielectric constant tensor:
#      x y z
#    x 1.812030 0.000000 0.000000 
#    y 0.000000 1.790850 0.000000 
#    z 0.000000 0.000000 1.800260 
# 
# From -- ./inp_files/56676.got.cif
#   From: 2010.03.12/outbox.cif.g09.slc.cpg/sg66_29_cif.got.tgz:56676.got - 2010.04.10 21:57:39.
