data_PCOD8277325
_publ_section_title
;
Structure prediction by ZEFSAII (Michael W. Deem and Ramdas Pophale) SiO2 
 PCOD8277325
Probable space group: C C C M
;
_chemical_formula_sum "Si O2"
_cell_formula_units_Z 80
_cell_length_a 13.035814
_cell_length_b 10.935792
_cell_length_c 27.659371
_cell_angle_alpha 90.000000
_cell_angle_beta 90.000000
_cell_angle_gamma 90.000000
_cell_volume 3943.035581
_symmetry_space_group_name_H-M "C C C M"
_symmetry_group_IT_number 66
_symmetry_cell_setting 'orthorhombic'
loop_
_space_group_symop_operation_xyz
x,y,z
-x,-y,z
x,-y,1/2-z
-x,y,1/2-z
-x,-y,-z
x,y,-z
-x,y,1/2+z
x,-y,1/2+z
1/2+x,1/2+y,z
1/2-x,1/2-y,z
1/2+x,1/2-y,1/2-z
1/2-x,1/2+y,1/2-z
1/2-x,1/2-y,-z
1/2+x,1/2+y,-z
1/2-x,1/2+y,1/2+z
1/2+x,1/2-y,1/2+z
loop_
_atom_site_type_symbol
_atom_site_label
_atom_site_fract_x
_atom_site_fract_y
_atom_site_fract_z
Si Si1 0.201472 0.572224 0.795346
Si Si2 0.578978 0.313382 0.205135
Si Si3 0.257994 0.880717 0.625704
Si Si4 0.528377 0.627017 0.105064
Si Si5 0.556356 0.874431 0.057068
O O1 0.157083 0.500000 0.750000
O O2 0.318569 0.609765 0.783638
O O3 0.119782 0.677964 0.805901
O O4 0.196315 0.485473 0.841292
O O5 0.500000 0.320046 0.250000
O O6 0.521217 0.364726 0.158345
O O7 0.250000 0.750000 0.654061
O O8 0.146721 0.906102 0.607018
O O9 0.330703 0.871033 0.579158
O O10 0.500000 0.500000 0.078332
O O11 0.498702 0.750755 0.075955
O O12 0.500000 0.000000 0.073019
O O13 0.564871 0.867226 0.000000
#
# Coordination Sequence:
#
# PCOD8277325 Si02
#       5
#    16  16  16  16  16
#     4  11  24  39  60  88 123 168 217 261 313 384
#     4  11  25  40  60  87 126 170 213 263 320 378
#     4  10  22  39  65  89 125 162 211 259 314 385
#     4  11  22  40  66  94 126 165 210 269 321 378
#     4  10  23  44  69  94 128 169 210 265 326 389
#
# _framework density 20.288936
#
# number of rings (size 3 to 8) (size 9 to 14) (size 15 to 20)
#    0.000    1.400    2.000    2.400    8.400    4.400 
#    0.000    0.000    0.000    2.400    0.000    0.000 
#    0.000    0.000    0.000    0.000    0.000    0.000 
#
# Total GULP energy -495595.300311 kJ/mol
# GULP energy per Si atom -12389.882508 kJ/mol
# Density = 2.024276 g / cm^3
# Si number density = 20.288936 Si / 1000 Ang^3
#
#
#
# Elastic Constant Matrix: (Units=GPa)
#
#
# Indices 1 2 3 4 5 6 
#
# 1 86.2314 36.9441 18.5028 0.0000 0.0000 0.0000
# 2 36.9441 172.8624 51.1252 0.0000 0.0000 0.0000
# 3 18.5028 51.1252 76.2856 0.0000 0.0000 0.0000
# 4 0.0000 0.0000 0.0000 27.6035 0.0000 0.0000
# 5 0.0000 0.0000 0.0000 0.0000 22.3158 0.0000
# 6 0.0000 0.0000 0.0000 0.0000 0.0000 30.0759
#
#
#
# Elastic Compliance Matrix: (Units=1/GPa)
#
#
# Indices 1 2 3 4 5 6 
#
# 1 0.012920 -0.002288 -0.001600 0.000000 0.000000 0.000000
# 2 -0.002288 0.007620 -0.004552 0.000000 0.000000 0.000000
# 3 -0.001600 -0.004552 0.016547 0.000000 0.000000 0.000000
# 4 0.000000 0.000000 0.000000 0.036227 0.000000 0.000000
# 5 0.000000 0.000000 0.000000 0.000000 0.044811 0.000000
# 6 0.000000 0.000000 0.000000 0.000000 0.000000 0.033249
#
#
# Mechanical properties :
#
#
# Convention : Reuss Voigt Hill
#
# Bulk Modulus (GPa) = 49.48719 60.94705 55.21712
# Shear Modulus (GPa) = 28.57268 31.25287 29.91278
#
# Velocity S-wave (km/s) = 3.75679 3.92904 3.84388
# Velocity P-wave (km/s) = 6.57739 7.11954 6.85383
#
# Compressibility (1/GPa) = 0.02020725
#
# Stress axis : x y z
#
# Youngs Moduli (GPa) = 77.39731 131.22985 60.43229
#
# Poissons Ratio (x) = 0.30025 0.09672
# Poissons Ratio (y) = 0.17709 0.27509
# Poissons Ratio (z) = 0.12387 0.59736
#
# Static dielectric constant tensor:
#      x y z
#    x 3.872050 0.000000 0.000000 
#    y 0.000000 4.312190 0.000000 
#    z 0.000000 0.000000 3.480210 
# 
# 
# High freq. dielectric constant tensor:
#      x y z
#    x 1.798100 0.000000 0.000000 
#    y 0.000000 1.824190 0.000000 
#    z 0.000000 0.000000 1.770400 
# 
# From -- ./inp_files/57887.got.cif
#   From: 2010.03.12/outbox.cif.g09.slc.cpg/sg66_29_cif.got.tgz:57887.got - 2010.04.10 21:57:39.
