data_PCOD8277429
_publ_section_title
;
Structure prediction by ZEFSAII (Michael W. Deem and Ramdas Pophale) SiO2 
 PCOD8277429
Probable space group: C C C M
;
_chemical_formula_sum "Si O2"
_cell_formula_units_Z 116
_cell_length_a 9.632101
_cell_length_b 21.413794
_cell_length_c 26.330135
_cell_angle_alpha 90.000000
_cell_angle_beta 90.000000
_cell_angle_gamma 90.000000
_cell_volume 5430.849079
_symmetry_space_group_name_H-M "C C C M"
_symmetry_group_IT_number 66
_symmetry_cell_setting 'orthorhombic'
loop_
_space_group_symop_operation_xyz
x,y,z
-x,-y,z
x,-y,1/2-z
-x,y,1/2-z
-x,-y,-z
x,y,-z
-x,y,1/2+z
x,-y,1/2+z
1/2+x,1/2+y,z
1/2-x,1/2-y,z
1/2+x,1/2-y,1/2-z
1/2-x,1/2+y,1/2-z
1/2-x,1/2-y,-z
1/2+x,1/2+y,-z
1/2-x,1/2+y,1/2+z
1/2+x,1/2-y,1/2+z
loop_
_atom_site_type_symbol
_atom_site_label
_atom_site_fract_x
_atom_site_fract_y
_atom_site_fract_z
Si Si1 0.652424 0.499416 0.441359
Si Si2 0.053702 0.325153 0.110353
Si Si3 0.124913 0.379599 0.217275
Si Si4 0.350577 0.309412 0.273581
Si Si5 0.198572 0.620674 0.940106
Si Si6 0.500000 0.000000 0.250000
Si Si7 0.573136 0.689775 0.386092
Si Si8 0.314145 0.639762 0.442013
O O1 0.500000 0.500000 0.415539
O O2 0.632933 0.517047 0.500000
O O3 0.742748 0.555344 0.418055
O O4 0.728158 0.432876 0.434551
O O5 0.948898 0.375149 0.087310
O O6 0.968563 0.261858 0.116891
O O7 0.120887 0.349423 0.162051
O O8 0.182914 0.316768 0.071801
O O9 0.274146 0.364982 0.242723
O O10 0.099175 0.454952 0.215592
O O11 0.000000 0.348356 0.250000
O O12 0.500000 0.293509 0.250000
O O13 0.250000 0.250000 0.270416
O O14 0.373610 0.332252 0.331087
O O15 0.301541 0.677553 0.925328
O O16 0.173790 0.622174 0.000000
O O17 0.440906 0.650991 0.404248
O O18 0.359842 0.653448 0.500000
#
# Coordination Sequence:
#
# PCOD8277429 Si02
#       8
#    16  16  16  16  16   4  16  16
#     4   9  18  39  64  86 120 175 232 274 322 382
#     4  12  25  40  63 101 136 170 222 277 341 415
#     4  10  22  47  70  96 132 179 219 273 351 411
#     4  12  24  42  71 101 132 173 225 288 345 408
#     4  11  23  39  64  95 135 181 227 277 331 399
#     4   8  24  44  78  96 138 188 206 270 376 416
#     4  12  24  40  64  96 128 178 230 271 333 406
#     4  11  24  42  64  94 137 183 226 280 338 397
#
# _framework density 21.359459999999999
#
# number of rings (size 3 to 8) (size 9 to 14) (size 15 to 20)
#    0.414    0.690    1.379    6.207    0.000    4.966 
#    0.000    2.414    0.000    0.000    0.000    0.000 
#    0.000    0.000    0.000    0.000    0.000    0.000 
#
# Total GULP energy -719107.248940 kJ/mol
# GULP energy per Si atom -12398.400844 kJ/mol
# Density = 2.131084 g / cm^3
# Si number density = 21.359460 Si / 1000 Ang^3
#
#
#
# Elastic Constant Matrix: (Units=GPa)
#
#
# Indices 1 2 3 4 5 6 
#
# 1 143.3056 32.5528 55.0053 0.0000 0.0000 0.0000
# 2 32.5528 93.9403 48.7637 0.0000 0.0000 0.0000
# 3 55.0053 48.7637 99.8340 0.0000 0.0000 0.0000
# 4 0.0000 0.0000 0.0000 2.9927 0.0000 0.0000
# 5 0.0000 0.0000 0.0000 0.0000 45.4262 0.0000
# 6 0.0000 0.0000 0.0000 0.0000 0.0000 13.9526
#
#
#
# Elastic Compliance Matrix: (Units=1/GPa)
#
#
# Indices 1 2 3 4 5 6 
#
# 1 0.008886 -0.000720 -0.004544 0.000000 0.000000 0.000000
# 2 -0.000720 0.014319 -0.006597 0.000000 0.000000 0.000000
# 3 -0.004544 -0.006597 0.015743 0.000000 0.000000 0.000000
# 4 0.000000 0.000000 0.000000 0.334146 0.000000 0.000000
# 5 0.000000 0.000000 0.000000 0.000000 0.022014 0.000000
# 6 0.000000 0.000000 0.000000 0.000000 0.000000 0.071671
#
#
# Mechanical properties :
#
#
# Convention : Reuss Voigt Hill
#
# Bulk Modulus (GPa) = 65.68381 67.74706 66.71543
# Shear Modulus (GPa) = 10.08926 25.85819 17.97373
#
# Velocity S-wave (km/s) = 2.17573 3.48317 2.90399
# Velocity P-wave (km/s) = 6.09345 6.92554 6.52278
#
# Compressibility (1/GPa) = 0.01522445
#
# Stress axis : x y z
#
# Youngs Moduli (GPa) = 112.53847 69.83580 63.52197
#
# Poissons Ratio (x) = 0.05032 0.28864
# Poissons Ratio (y) = 0.08108 0.41907
# Poissons Ratio (z) = 0.51136 0.46073
#
# Static dielectric constant tensor:
#      x y z
#    x 3.988930 0.000000 0.000000 
#    y 0.000000 3.828380 0.000000 
#    z 0.000000 0.000000 3.764100 
# 
# 
# High freq. dielectric constant tensor:
#      x y z
#    x 1.847790 0.000000 0.000000 
#    y 0.000000 1.832410 0.000000 
#    z 0.000000 0.000000 1.826860 
# 
# From -- ./inp_files/62882.got.cif
#   From: 2010.03.12/outbox.cif.g09.slc.cpg/sg66_32_cif.got.tgz:62882.got - 2010.04.10 21:57:39.
