data_PCOD8277104
_publ_section_title
;
Structure prediction by ZEFSAII (Michael W. Deem and Ramdas Pophale) SiO2 
 PCOD8277104
Probable space group: C C C M
;
_chemical_formula_sum "Si O2"
_cell_formula_units_Z 88
_cell_length_a 20.695745
_cell_length_b 12.533529
_cell_length_c 15.723065
_cell_angle_alpha 90.000000
_cell_angle_beta 90.000000
_cell_angle_gamma 90.000000
_cell_volume 4078.417153
_symmetry_space_group_name_H-M "C C C M"
_symmetry_group_IT_number 66
_symmetry_cell_setting 'orthorhombic'
loop_
_space_group_symop_operation_xyz
x,y,z
-x,-y,z
x,-y,1/2-z
-x,y,1/2-z
-x,-y,-z
x,y,-z
-x,y,1/2+z
x,-y,1/2+z
1/2+x,1/2+y,z
1/2-x,1/2-y,z
1/2+x,1/2-y,1/2-z
1/2-x,1/2+y,1/2-z
1/2-x,1/2-y,-z
1/2+x,1/2+y,-z
1/2-x,1/2+y,1/2+z
1/2+x,1/2-y,1/2+z
loop_
_atom_site_type_symbol
_atom_site_label
_atom_site_fract_x
_atom_site_fract_y
_atom_site_fract_z
Si Si1 0.310913 0.526757 0.902829
Si Si2 0.923250 0.613562 0.903513
Si Si3 0.668959 0.927667 0.599805
Si Si4 0.631073 0.716276 0.689148
Si Si5 0.180091 0.214838 0.131320
Si Si6 0.500000 0.199339 0.250000
O O1 0.239362 0.542541 0.862417
O O2 0.361446 0.601248 0.853602
O O3 0.334671 0.406149 0.894514
O O4 0.311027 0.563749 0.000000
O O5 0.883813 0.512106 0.866857
O O6 0.875245 0.713738 0.910988
O O7 0.979734 0.629916 0.833461
O O8 0.951466 0.595100 0.000000
O O9 0.672627 0.939477 0.500000
O O10 0.648373 0.808902 0.623208
O O11 0.679949 0.728279 0.767434
O O12 0.558016 0.724389 0.721906
O O13 0.250000 0.250000 0.095718
#
# Coordination Sequence:
#
# PCOD8277104 Si02
#       6
#    16  16  16  16  16   8
#     4  11  22  38  63  95 128 161 206 269 339 400
#     4  10  22  41  65  95 129 171 222 271 325 389
#     4  10  21  38  64  96 128 161 206 272 344 401
#     4  11  24  40  59  88 127 171 217 263 321 386
#     4  11  21  37  63  93 126 164 212 267 328 394
#     4  10  26  45  63  92 132 184 231 271 312 392
#
# _framework density 21.576998
#
# number of rings (size 3 to 8) (size 9 to 14) (size 15 to 20)
#    0.000    1.455    1.818    3.273    0.000    8.000 
#    0.000    9.091    0.000    5.455    0.000    0.000 
#    0.000    0.000    0.000    0.000    0.000    0.000 
#
# Total GULP energy -545681.724471 kJ/mol
# GULP energy per Si atom -12401.857374 kJ/mol
# Density = 2.152789 g / cm^3
# Si number density = 21.576998 Si / 1000 Ang^3
#
#
#
# Elastic Constant Matrix: (Units=GPa)
#
#
# Indices 1 2 3 4 5 6 
#
# 1 89.6071 23.7089 35.5898 0.0000 0.0000 0.0000
# 2 23.7089 124.8246 15.9113 0.0000 0.0000 0.0000
# 3 35.5898 15.9113 82.9549 0.0000 0.0000 0.0000
# 4 0.0000 0.0000 0.0000 20.6194 0.0000 0.0000
# 5 0.0000 0.0000 0.0000 0.0000 21.4967 0.0000
# 6 0.0000 0.0000 0.0000 0.0000 0.0000 25.2424
#
#
#
# Elastic Compliance Matrix: (Units=1/GPa)
#
#
# Indices 1 2 3 4 5 6 
#
# 1 0.013889 -0.001926 -0.005590 0.000000 0.000000 0.000000
# 2 -0.001926 0.008479 -0.000800 0.000000 0.000000 0.000000
# 3 -0.005590 -0.000800 0.014606 0.000000 0.000000 0.000000
# 4 0.000000 0.000000 0.000000 0.048498 0.000000 0.000000
# 5 0.000000 0.000000 0.000000 0.000000 0.046519 0.000000
# 6 0.000000 0.000000 0.000000 0.000000 0.000000 0.039616
#
#
# Mechanical properties :
#
#
# Convention : Reuss Voigt Hill
#
# Bulk Modulus (GPa) = 49.15472 49.75630 49.45551
# Shear Modulus (GPa) = 25.63847 28.28346 26.96097
#
# Velocity S-wave (km/s) = 3.45081 3.62445 3.53869
# Velocity P-wave (km/s) = 6.22158 6.37381 6.29815
#
# Compressibility (1/GPa) = 0.02034393
#
# Stress axis : x y z
#
# Youngs Moduli (GPa) = 71.99751 117.93859 68.46366
#
# Poissons Ratio (x) = 0.22710 0.38268
# Poissons Ratio (y) = 0.13864 0.05478
# Poissons Ratio (z) = 0.40243 0.09437
#
# Static dielectric constant tensor:
#      x y z
#    x 3.913020 0.000000 0.000000 
#    y 0.000000 3.810320 0.000000 
#    z 0.000000 0.000000 3.961860 
# 
# 
# High freq. dielectric constant tensor:
#      x y z
#    x 1.836540 0.000000 0.000000 
#    y 0.000000 1.849410 0.000000 
#    z 0.000000 0.000000 1.857740 
# 
# From -- ./inp_files/32232.got.cif
#   From: 2010.03.12/outbox.cif.g09.slc.cpg/sg66_17_cif.got.tgz:32232.got - 2010.04.10 21:57:39.
