data_PCOD8277071
_publ_section_title
;
Structure prediction by ZEFSAII (Michael W. Deem and Ramdas Pophale) SiO2 
 PCOD8277071
Probable space group: C C C M
;
_chemical_formula_sum "Si O2"
_cell_formula_units_Z 88
_cell_length_a 23.105859
_cell_length_b 20.352115
_cell_length_c 9.028537
_cell_angle_alpha 90.000000
_cell_angle_beta 90.000000
_cell_angle_gamma 90.000000
_cell_volume 4245.697509
_symmetry_space_group_name_H-M "C C C M"
_symmetry_group_IT_number 66
_symmetry_cell_setting 'orthorhombic'
loop_
_space_group_symop_operation_xyz
x,y,z
-x,-y,z
x,-y,1/2-z
-x,y,1/2-z
-x,-y,-z
x,y,-z
-x,y,1/2+z
x,-y,1/2+z
1/2+x,1/2+y,z
1/2-x,1/2-y,z
1/2+x,1/2-y,1/2-z
1/2-x,1/2+y,1/2-z
1/2-x,1/2-y,-z
1/2+x,1/2+y,-z
1/2-x,1/2+y,1/2+z
1/2+x,1/2-y,1/2+z
loop_
_atom_site_type_symbol
_atom_site_label
_atom_site_fract_x
_atom_site_fract_y
_atom_site_fract_z
Si Si1 0.650159 0.347211 0.829464
Si Si2 0.939116 0.066195 0.676162
Si Si3 0.647811 0.000000 0.750000
Si Si4 0.353382 0.211033 0.826235
Si Si5 0.777155 0.616164 0.662111
Si Si6 0.057617 0.605122 0.336601
O O1 0.603386 0.375260 0.716220
O O2 0.657671 0.272437 0.778962
O O3 0.708528 0.389804 0.810220
O O4 0.628859 0.349411 0.000000
O O5 0.945435 0.058243 0.500000
O O6 0.000000 0.083266 0.750000
O O7 0.914150 0.000000 0.750000
O O8 0.691053 0.045414 0.845512
O O9 0.605007 0.046846 0.657008
O O10 0.300893 0.161285 0.793897
O O11 0.412536 0.172764 0.779102
O O12 0.352949 0.229443 0.000000
O O13 0.787037 0.648970 0.500000
O O14 0.034969 0.617747 0.500000
O O15 0.000000 0.585518 0.250000
#
# Coordination Sequence:
#
# PCOD8277071 Si02
#       6
#    16  16   8  16  16  16
#     4  11  23  39  62  92 122 158 202 249 302 364
#     4  11  23  42  65  90 121 156 195 244 300 359
#     4  10  21  38  60  88 121 160 200 248 304 360
#     4  10  22  40  59  85 120 160 203 253 307 362
#     4  10  22  39  60  87 121 160 202 249 302 362
#     4  10  22  38  59  86 118 156 202 248 300 360
#
# _framework density 20.726866000000001
#
# number of rings (size 3 to 8) (size 9 to 14) (size 15 to 20)
#    0.000    1.636    0.000    4.636    1.273   10.182 
#    0.000    1.818    0.000    0.000    0.000    0.000 
#    0.000    0.000    0.000    0.000    0.000    0.000 
#
# Total GULP energy -545355.066977 kJ/mol
# GULP energy per Si atom -12394.433340 kJ/mol
# Density = 2.067969 g / cm^3
# Si number density = 20.726866 Si / 1000 Ang^3
#
#
#
# Elastic Constant Matrix: (Units=GPa)
#
#
# Indices 1 2 3 4 5 6 
#
# 1 96.2432 58.9017 53.2052 0.0000 0.0000 0.0000
# 2 58.9017 82.2761 32.7134 0.0000 0.0000 0.0000
# 3 53.2052 32.7134 122.0771 0.0000 0.0000 0.0000
# 4 0.0000 0.0000 0.0000 32.2321 0.0000 0.0000
# 5 0.0000 0.0000 0.0000 0.0000 29.5531 0.0000
# 6 0.0000 0.0000 0.0000 0.0000 0.0000 28.3979
#
#
#
# Elastic Compliance Matrix: (Units=1/GPa)
#
#
# Indices 1 2 3 4 5 6 
#
# 1 0.021767 -0.013220 -0.005944 0.000000 0.000000 0.000000
# 2 -0.013220 0.021632 -0.000035 0.000000 0.000000 0.000000
# 3 -0.005944 -0.000035 0.010792 0.000000 0.000000 0.000000
# 4 0.000000 0.000000 0.000000 0.031025 0.000000 0.000000
# 5 0.000000 0.000000 0.000000 0.000000 0.033837 0.000000
# 6 0.000000 0.000000 0.000000 0.000000 0.000000 0.035214
#
#
# Mechanical properties :
#
#
# Convention : Reuss Voigt Hill
#
# Bulk Modulus (GPa) = 63.32105 65.58190 64.45147
# Shear Modulus (GPa) = 25.26151 28.42169 26.84160
#
# Velocity S-wave (km/s) = 3.49489 3.70706 3.60254
# Velocity P-wave (km/s) = 6.84852 7.07338 6.96186
#
# Compressibility (1/GPa) = 0.01579254
#
# Stress axis : x y z
#
# Youngs Moduli (GPa) = 45.94121 46.22744 92.66371
#
# Poissons Ratio (x) = 0.61111 0.55082
# Poissons Ratio (y) = 0.60732 0.00327
# Poissons Ratio (z) = 0.27309 0.00163
#
# Static dielectric constant tensor:
#      x y z
#    x 3.755870 0.000000 0.000000 
#    y 0.000000 3.808680 0.000000 
#    z 0.000000 0.000000 3.698980 
# 
# 
# High freq. dielectric constant tensor:
#      x y z
#    x 1.813490 0.000000 0.000000 
#    y 0.000000 1.808400 0.000000 
#    z 0.000000 0.000000 1.815150 
# 
# From -- ./inp_files/8998.got.cif
#   From: 2010.03.12/outbox.cif.g09.slc.cpg/sg66_5_cif.got.tgz:8998.got - 2010.04.10 21:57:39.
