data_PCOD8277023
_publ_section_title
;
Structure prediction by ZEFSAII (Michael W. Deem and Ramdas Pophale) SiO2 
 PCOD8277023
Probable space group: C C C M
;
_chemical_formula_sum "Si O2"
_cell_formula_units_Z 64
_cell_length_a 24.889652
_cell_length_b 13.328734
_cell_length_c 10.101668
_cell_angle_alpha 90.000000
_cell_angle_beta 90.000000
_cell_angle_gamma 90.000000
_cell_volume 3351.203619
_symmetry_space_group_name_H-M "C C C M"
_symmetry_group_IT_number 66
_symmetry_cell_setting 'orthorhombic'
loop_
_space_group_symop_operation_xyz
x,y,z
-x,-y,z
x,-y,1/2-z
-x,y,1/2-z
-x,-y,-z
x,y,-z
-x,y,1/2+z
x,-y,1/2+z
1/2+x,1/2+y,z
1/2-x,1/2-y,z
1/2+x,1/2-y,1/2-z
1/2-x,1/2+y,1/2-z
1/2-x,1/2-y,-z
1/2+x,1/2+y,-z
1/2-x,1/2+y,1/2+z
1/2+x,1/2-y,1/2+z
loop_
_atom_site_type_symbol
_atom_site_label
_atom_site_fract_x
_atom_site_fract_y
_atom_site_fract_z
Si Si1 0.621377 0.306020 0.239430
Si Si2 0.656170 0.085134 0.154166
Si Si3 0.067759 0.120108 0.000000
Si Si4 0.559461 0.609215 0.500000
Si Si5 0.228796 0.144825 0.650667
O O1 0.637801 0.191202 0.212562
O O2 0.592369 0.319821 0.377795
O O3 0.578680 0.336339 0.130592
O O4 0.674776 0.378231 0.234976
O O5 0.721225 0.068944 0.161965
O O6 0.630634 0.000000 0.250000
O O7 0.637918 0.073267 0.000000
O O8 0.004040 0.121039 0.000000
O O9 0.083338 0.003334 0.000000
O O10 0.208356 0.156121 0.500000
O O11 0.250000 0.250000 0.704465
#
# Coordination Sequence:
#
# PCOD8277023 Si02
#       5
#    16  16   8   8  16
#     4  11  20  40  62  86 120 159 191 240 300 352
#     4  10  21  37  61  89 122 161 196 234 285 350
#     4  11  26  36  62  93 113 143 202 256 294 355
#     4  11  22  44  60  83 117 153 194 246 310 351
#     4   8  15  33  56  80 113 155 191 224 278 343
#
# _framework density 19.097615999999999
#
# number of rings (size 3 to 8) (size 9 to 14) (size 15 to 20)
#    0.000    2.000    2.500    3.000    1.750    4.000 
#    2.250    1.875    0.000    4.500    0.000    0.000 
#    0.000    0.000    0.000    0.000    0.000    0.000 
#
# Total GULP energy -396446.371608 kJ/mol
# GULP energy per Si atom -12388.949113 kJ/mol
# Density = 1.905415 g / cm^3
# Si number density = 19.097616 Si / 1000 Ang^3
#
#
#
# Elastic Constant Matrix: (Units=GPa)
#
#
# Indices 1 2 3 4 5 6 
#
# 1 72.2625 33.6726 48.7023 0.0000 0.0000 0.0000
# 2 33.6726 88.6219 56.0155 0.0000 0.0000 0.0000
# 3 48.7023 56.0155 152.8695 0.0000 0.0000 0.0000
# 4 0.0000 0.0000 0.0000 31.8499 0.0000 0.0000
# 5 0.0000 0.0000 0.0000 0.0000 40.4549 0.0000
# 6 0.0000 0.0000 0.0000 0.0000 0.0000 19.7376
#
#
#
# Elastic Compliance Matrix: (Units=1/GPa)
#
#
# Indices 1 2 3 4 5 6 
#
# 1 0.018844 -0.004380 -0.004399 0.000000 0.000000 0.000000
# 2 -0.004380 0.015703 -0.004359 0.000000 0.000000 0.000000
# 3 -0.004399 -0.004359 0.009540 0.000000 0.000000 0.000000
# 4 0.000000 0.000000 0.000000 0.031397 0.000000 0.000000
# 5 0.000000 0.000000 0.000000 0.000000 0.024719 0.000000
# 6 0.000000 0.000000 0.000000 0.000000 0.000000 0.050665
#
#
# Mechanical properties :
#
#
# Convention : Reuss Voigt Hill
#
# Bulk Modulus (GPa) = 56.13898 65.61497 60.87697
# Shear Modulus (GPa) = 27.31062 30.09938 28.70500
#
# Velocity S-wave (km/s) = 3.78571 3.97430 3.88115
# Velocity P-wave (km/s) = 6.96910 7.44931 7.21321
#
# Compressibility (1/GPa) = 0.01781293
#
# Stress axis : x y z
#
# Youngs Moduli (GPa) = 53.06811 63.68218 104.82179
#
# Poissons Ratio (x) = 0.27890 0.46107
# Poissons Ratio (y) = 0.23242 0.45689
# Poissons Ratio (z) = 0.23342 0.27757
#
# Static dielectric constant tensor:
#      x y z
#    x 3.620360 0.000000 0.000000 
#    y 0.000000 3.336470 0.000000 
#    z 0.000000 0.000000 3.394300 
# 
# 
# High freq. dielectric constant tensor:
#      x y z
#    x 1.739890 0.000000 0.000000 
#    y 0.000000 1.728180 0.000000 
#    z 0.000000 0.000000 1.741750 
# 
# From -- ./inp_files/5282.got.cif
#   From: 2010.03.12/outbox.cif.g09.slc.cpg/sg66_3_cif.got.tgz:5282.got - 2010.04.10 21:57:39.
