data_PCOD8277337
_publ_section_title
;
Structure prediction by ZEFSAII (Michael W. Deem and Ramdas Pophale) SiO2 
 PCOD8277337
Probable space group: C C C M
;
_chemical_formula_sum "Si O2"
_cell_formula_units_Z 80
_cell_length_a 11.467515
_cell_length_b 15.051717
_cell_length_c 24.860076
_cell_angle_alpha 90.000000
_cell_angle_beta 90.000000
_cell_angle_gamma 90.000000
_cell_volume 4290.993069
_symmetry_space_group_name_H-M "C C C M"
_symmetry_group_IT_number 66
_symmetry_cell_setting 'orthorhombic'
loop_
_space_group_symop_operation_xyz
x,y,z
-x,-y,z
x,-y,1/2-z
-x,y,1/2-z
-x,-y,-z
x,y,-z
-x,y,1/2+z
x,-y,1/2+z
1/2+x,1/2+y,z
1/2-x,1/2-y,z
1/2+x,1/2-y,1/2-z
1/2-x,1/2+y,1/2-z
1/2-x,1/2-y,-z
1/2+x,1/2+y,-z
1/2-x,1/2+y,1/2+z
1/2+x,1/2-y,1/2+z
loop_
_atom_site_type_symbol
_atom_site_label
_atom_site_fract_x
_atom_site_fract_y
_atom_site_fract_z
Si Si1 0.715118 0.090200 0.773460
Si Si2 0.272509 0.852121 0.936912
Si Si3 0.863272 0.017767 0.136762
Si Si4 0.280760 0.845517 0.340844
Si Si5 0.966773 0.601535 0.360925
O O1 0.832963 0.064592 0.806171
O O2 0.742554 0.154580 0.723634
O O3 0.621025 0.132924 0.813574
O O4 0.658226 0.000000 0.750000
O O5 0.250000 0.750000 0.921095
O O6 0.174835 0.915954 0.910698
O O7 0.401888 0.878832 0.917055
O O8 0.266036 0.867552 0.000000
O O9 0.791164 0.925292 0.131119
O O10 0.000000 0.000000 0.133094
O O11 0.250000 0.750000 0.364773
O O12 0.415982 0.844651 0.355579
O O13 0.000000 0.500000 0.356083
#
# Coordination Sequence:
#
# PCOD8277337 Si02
#       5
#    16  16  16  16  16
#     4   9  18  34  56  81 117 156 198 228 279 339
#     4  10  23  42  66  90 111 146 197 249 306 362
#     4  10  22  40  60  83 123 160 192 242 293 349
#     4  11  23  36  55  89 122 159 200 237 287 337
#     4  11  19  38  63  84 113 156 194 250 294 343
#
# _framework density 18.643702000000001
#
# number of rings (size 3 to 8) (size 9 to 14) (size 15 to 20)
#    0.000    1.800    6.000    0.600    2.800    7.600 
#    3.600    0.000    0.000    1.200    0.000    0.000 
#    0.000    0.000    0.000    0.000    0.000    0.000 
#
# Total GULP energy -495801.537589 kJ/mol
# GULP energy per Si atom -12395.038440 kJ/mol
# Density = 1.860127 g / cm^3
# Si number density = 18.643702 Si / 1000 Ang^3
#
#
#
# Elastic Constant Matrix: (Units=GPa)
#
#
# Indices 1 2 3 4 5 6 
#
# 1 150.5999 53.8761 60.8449 0.0000 0.0000 0.0000
# 2 53.8761 97.2155 40.2658 0.0000 0.0000 0.0000
# 3 60.8449 40.2658 84.5366 0.0000 0.0000 0.0000
# 4 0.0000 0.0000 0.0000 21.6027 0.0000 0.0000
# 5 0.0000 0.0000 0.0000 0.0000 18.1569 0.0000
# 6 0.0000 0.0000 0.0000 0.0000 0.0000 23.9743
#
#
#
# Elastic Compliance Matrix: (Units=1/GPa)
#
#
# Indices 1 2 3 4 5 6 
#
# 1 0.010115 -0.003227 -0.005743 0.000000 0.000000 0.000000
# 2 -0.003227 0.013844 -0.004272 0.000000 0.000000 0.000000
# 3 -0.005743 -0.004272 0.017997 0.000000 0.000000 0.000000
# 4 0.000000 0.000000 0.000000 0.046291 0.000000 0.000000
# 5 0.000000 0.000000 0.000000 0.000000 0.055075 0.000000
# 6 0.000000 0.000000 0.000000 0.000000 0.000000 0.041711
#
#
# Mechanical properties :
#
#
# Convention : Reuss Voigt Hill
#
# Bulk Modulus (GPa) = 64.62807 71.36950 67.99878
# Shear Modulus (GPa) = 23.07614 24.57113 23.82363
#
# Velocity S-wave (km/s) = 3.52198 3.63427 3.57856
# Velocity P-wave (km/s) = 7.16095 7.48161 7.32303
#
# Compressibility (1/GPa) = 0.01547315
#
# Stress axis : x y z
#
# Youngs Moduli (GPa) = 98.86517 72.23378 55.56362
#
# Poissons Ratio (x) = 0.23308 0.31911
# Poissons Ratio (y) = 0.31902 0.23734
# Poissons Ratio (z) = 0.56779 0.30855
#
# Static dielectric constant tensor:
#      x y z
#    x 4.290460 0.000000 0.000000 
#    y 0.000000 3.494700 0.000000 
#    z 0.000000 0.000000 3.381460 
# 
# 
# High freq. dielectric constant tensor:
#      x y z
#    x 1.723250 0.000000 0.000000 
#    y 0.000000 1.722850 0.000000 
#    z 0.000000 0.000000 1.706800 
# 
# From -- ./inp_files/56562.got.cif
#   From: 2010.03.12/outbox.cif.g09.slc.cpg/sg66_29_cif.got.tgz:56562.got - 2010.04.10 21:57:39.
