data_PCOD8277639
_publ_section_title
;
Structure prediction by ZEFSAII (Michael W. Deem and Ramdas Pophale) SiO2 
 PCOD8277639
Probable space group: C C C M
;
_chemical_formula_sum "Si O2"
_cell_formula_units_Z 64
_cell_length_a 26.511119
_cell_length_b 5.070740
_cell_length_c 27.645465
_cell_angle_alpha 90.000000
_cell_angle_beta 90.000000
_cell_angle_gamma 90.000000
_cell_volume 3716.407272
_symmetry_space_group_name_H-M "C C C M"
_symmetry_group_IT_number 66
_symmetry_cell_setting 'orthorhombic'
loop_
_space_group_symop_operation_xyz
x,y,z
-x,-y,z
x,-y,1/2-z
-x,y,1/2-z
-x,-y,-z
x,y,-z
-x,y,1/2+z
x,-y,1/2+z
1/2+x,1/2+y,z
1/2-x,1/2-y,z
1/2+x,1/2-y,1/2-z
1/2-x,1/2+y,1/2-z
1/2-x,1/2-y,-z
1/2+x,1/2+y,-z
1/2-x,1/2+y,1/2+z
1/2+x,1/2-y,1/2+z
loop_
_atom_site_type_symbol
_atom_site_label
_atom_site_fract_x
_atom_site_fract_y
_atom_site_fract_z
Si Si1 0.642900 0.674762 0.944061
Si Si2 0.970697 0.749260 0.942488
Si Si3 0.807985 0.333013 0.097914
Si Si4 0.714986 0.997734 0.301787
O O1 0.587302 0.754604 0.925825
O O2 0.658931 0.423674 0.912534
O O3 0.679407 0.926945 0.938169
O O4 0.643286 0.588332 0.000000
O O5 0.000000 0.500000 0.920548
O O6 0.973234 0.745884 0.000000
O O7 0.000000 0.000000 0.921366
O O8 0.750000 0.250000 0.091797
O O9 0.820666 0.443787 0.151923
O O10 0.750000 0.250000 0.312518
O O11 0.684836 0.000000 0.250000
O O12 0.750000 0.750000 0.295225
#
# Coordination Sequence:
#
# PCOD8277639 Si02
#       4
#    16  16  16  16
#     4  11  22  33  47  69  98 133 168 196 228 281
#     4   9  17  31  49  66  86 116 158 208 250 272
#     4  11  21  33  47  68 100 134 164 193 227 278
#     4   9  17  31  50  68  88 120 161 204 245 274
#
# _framework density 17.220931
#
# number of rings (size 3 to 8) (size 9 to 14) (size 15 to 20)
#    0.000    2.000    0.000    6.000    0.000    7.000 
#    0.000    0.000    0.000    0.000    0.000    0.000 
#    0.000   15.000    0.000    0.250    0.000    0.000 
#
# Total GULP energy -396567.131124 kJ/mol
# GULP energy per Si atom -12392.722848 kJ/mol
# Density = 1.718174 g / cm^3
# Si number density = 17.220931 Si / 1000 Ang^3
#
#
#
# Elastic Constant Matrix: (Units=GPa)
#
#
# Indices 1 2 3 4 5 6 
#
# 1 83.6014 49.2554 48.1349 0.0000 0.0000 0.0000
# 2 49.2554 149.8420 37.2261 0.0000 0.0000 0.0000
# 3 48.1349 37.2261 72.5282 0.0000 0.0000 0.0000
# 4 0.0000 0.0000 0.0000 25.1479 0.0000 0.0000
# 5 0.0000 0.0000 0.0000 0.0000 1.1113 0.0000
# 6 0.0000 0.0000 0.0000 0.0000 0.0000 32.0927
#
#
#
# Elastic Compliance Matrix: (Units=1/GPa)
#
#
# Indices 1 2 3 4 5 6 
#
# 1 0.021256 -0.003991 -0.012058 0.000000 0.000000 0.000000
# 2 -0.003991 0.008399 -0.001662 0.000000 0.000000 0.000000
# 3 -0.012058 -0.001662 0.022643 0.000000 0.000000 0.000000
# 4 0.000000 0.000000 0.000000 0.039765 0.000000 0.000000
# 5 0.000000 0.000000 0.000000 0.000000 0.899808 0.000000
# 6 0.000000 0.000000 0.000000 0.000000 0.000000 0.031160
#
#
# Mechanical properties :
#
#
# Convention : Reuss Voigt Hill
#
# Bulk Modulus (GPa) = 59.25913 63.91162 61.58538
# Shear Modulus (GPa) = 4.69891 23.09407 13.89649
#
# Velocity S-wave (km/s) = 1.65364 3.66600 2.84377
# Velocity P-wave (km/s) = 6.17510 7.42380 6.82805
#
# Compressibility (1/GPa) = 0.01687504
#
# Stress axis : x y z
#
# Youngs Moduli (GPa) = 47.04579 119.06798 44.16313
#
# Poissons Ratio (x) = 0.47525 0.53253
# Poissons Ratio (y) = 0.18778 0.07338
# Poissons Ratio (z) = 0.56729 0.19785
#
# Static dielectric constant tensor:
#      x y z
#    x 3.085010 0.000000 0.000000 
#    y 0.000000 3.463780 0.000000 
#    z 0.000000 0.000000 3.630180 
# 
# 
# High freq. dielectric constant tensor:
#      x y z
#    x 1.632580 0.000000 0.000000 
#    y 0.000000 1.695870 0.000000 
#    z 0.000000 0.000000 1.638310 
# 
# From -- ./inp_files/59721.got.cif
#   From: 2010.03.12/outbox.cif.g09.slc.cpg/sg66_30_cif.got.tgz:59721.got - 2010.04.10 21:57:39.
