data_PCOD8277578
_publ_section_title
;
Structure prediction by ZEFSAII (Michael W. Deem and Ramdas Pophale) SiO2 
 PCOD8277578
Probable space group: C C C M
;
_chemical_formula_sum "Si O2"
_cell_formula_units_Z 96
_cell_length_a 12.768278
_cell_length_b 22.624552
_cell_length_c 18.601125
_cell_angle_alpha 90.000000
_cell_angle_beta 90.000000
_cell_angle_gamma 90.000000
_cell_volume 5373.429180
_symmetry_space_group_name_H-M "C C C M"
_symmetry_group_IT_number 66
_symmetry_cell_setting 'orthorhombic'
loop_
_space_group_symop_operation_xyz
x,y,z
-x,-y,z
x,-y,1/2-z
-x,y,1/2-z
-x,-y,-z
x,y,-z
-x,y,1/2+z
x,-y,1/2+z
1/2+x,1/2+y,z
1/2-x,1/2-y,z
1/2+x,1/2-y,1/2-z
1/2-x,1/2+y,1/2-z
1/2-x,1/2-y,-z
1/2+x,1/2+y,-z
1/2-x,1/2+y,1/2+z
1/2+x,1/2-y,1/2+z
loop_
_atom_site_type_symbol
_atom_site_label
_atom_site_fract_x
_atom_site_fract_y
_atom_site_fract_z
Si Si1 0.416790 0.774356 0.308967
Si Si2 0.282574 0.661743 0.716191
Si Si3 0.386381 0.550608 0.082521
Si Si4 0.587923 0.242873 0.918407
Si Si5 0.241694 0.155718 0.622770
Si Si6 0.063984 0.063991 0.173831
O O1 0.500000 0.797901 0.250000
O O2 0.365692 0.714746 0.277789
O O3 0.323433 0.820586 0.325969
O O4 0.474221 0.763472 0.383742
O O5 0.241739 0.642727 0.793956
O O6 0.337167 0.606549 0.678652
O O7 0.285191 0.593081 0.085078
O O8 0.485534 0.589296 0.111812
O O9 0.387418 0.497419 0.141725
O O10 0.401024 0.528467 0.000000
O O11 0.652539 0.181578 0.911728
O O12 0.649727 0.296519 0.882961
O O13 0.568811 0.259173 0.000000
O O14 0.000000 0.057437 0.250000
#
# Coordination Sequence:
#
# PCOD8277578 Si02
#       6
#    16  16  16  16  16  16
#     4  11  19  36  55  80 110 140 178 216 262 325
#     4  11  21  33  57  84 105 141 182 219 268 310
#     4  11  22  35  53  81 110 145 179 218 271 318
#     4  11  21  34  53  83 114 144 174 217 271 319
#     4  11  19  33  57  82 112 138 178 228 262 316
#     4  11  21  35  53  78 110 141 177 220 263 319
#
# _framework density 17.865687000000001
#
# number of rings (size 3 to 8) (size 9 to 14) (size 15 to 20)
#    0.000    1.000    5.000    6.500    0.000    0.000 
#    0.000    4.167    0.000    1.000    0.000    2.333 
#    0.000    0.000    0.000    0.000    0.000    0.000 
#
# Total GULP energy -594737.943560 kJ/mol
# GULP energy per Si atom -12390.373824 kJ/mol
# Density = 1.782502 g / cm^3
# Si number density = 17.865687 Si / 1000 Ang^3
#
#
#
# Elastic Constant Matrix: (Units=GPa)
#
#
# Indices 1 2 3 4 5 6 
#
# 1 90.7119 32.6562 26.6539 0.0000 0.0000 0.0000
# 2 32.6562 71.3476 21.2873 0.0000 0.0000 0.0000
# 3 26.6539 21.2873 81.2542 0.0000 0.0000 0.0000
# 4 0.0000 0.0000 0.0000 15.9313 0.0000 0.0000
# 5 0.0000 0.0000 0.0000 0.0000 16.3368 0.0000
# 6 0.0000 0.0000 0.0000 0.0000 0.0000 29.6007
#
#
#
# Elastic Compliance Matrix: (Units=1/GPa)
#
#
# Indices 1 2 3 4 5 6 
#
# 1 0.013899 -0.005425 -0.003138 0.000000 0.000000 0.000000
# 2 -0.005425 0.017322 -0.002758 0.000000 0.000000 0.000000
# 3 -0.003138 -0.002758 0.014059 0.000000 0.000000 0.000000
# 4 0.000000 0.000000 0.000000 0.062770 0.000000 0.000000
# 5 0.000000 0.000000 0.000000 0.000000 0.061212 0.000000
# 6 0.000000 0.000000 0.000000 0.000000 0.000000 0.033783
#
#
# Mechanical properties :
#
#
# Convention : Reuss Voigt Hill
#
# Bulk Modulus (GPa) = 44.17610 44.94540 44.56075
# Shear Modulus (GPa) = 21.43773 23.22151 22.32962
#
# Velocity S-wave (km/s) = 3.46777 3.60916 3.53917
# Velocity P-wave (km/s) = 6.38861 6.52534 6.45734
#
# Compressibility (1/GPa) = 0.02263667
#
# Stress axis : x y z
#
# Youngs Moduli (GPa) = 71.94706 57.72952 71.12853
#
# Poissons Ratio (x) = 0.31321 0.22320
# Poissons Ratio (y) = 0.39035 0.19620
# Poissons Ratio (z) = 0.22577 0.15924
#
# Static dielectric constant tensor:
#      x y z
#    x 3.474240 0.000000 0.000000 
#    y 0.000000 3.258110 0.000000 
#    z 0.000000 0.000000 3.374160 
# 
# 
# High freq. dielectric constant tensor:
#      x y z
#    x 1.674410 0.000000 0.000000 
#    y 0.000000 1.673600 0.000000 
#    z 0.000000 0.000000 1.696590 
# 
# From -- ./inp_files/38857.got.cif
#   From: 2010.03.12/outbox.cif.g09.slc.cpg/sg66_20_cif.got.tgz:38857.got - 2010.04.10 21:57:39.
