data_PCOD8277755
_publ_section_title
;
Structure prediction by ZEFSAII (Michael W. Deem and Ramdas Pophale) SiO2 
 PCOD8277755
Probable space group: C C C M
;
_chemical_formula_sum "Si O2"
_cell_formula_units_Z 84
_cell_length_a 17.455629
_cell_length_b 13.438261
_cell_length_c 17.861691
_cell_angle_alpha 90.000000
_cell_angle_beta 90.000000
_cell_angle_gamma 90.000000
_cell_volume 4189.875773
_symmetry_space_group_name_H-M "C C C M"
_symmetry_group_IT_number 66
_symmetry_cell_setting 'orthorhombic'
loop_
_space_group_symop_operation_xyz
x,y,z
-x,-y,z
x,-y,1/2-z
-x,y,1/2-z
-x,-y,-z
x,y,-z
-x,y,1/2+z
x,-y,1/2+z
1/2+x,1/2+y,z
1/2-x,1/2-y,z
1/2+x,1/2-y,1/2-z
1/2-x,1/2+y,1/2-z
1/2-x,1/2-y,-z
1/2+x,1/2+y,-z
1/2-x,1/2+y,1/2+z
1/2+x,1/2-y,1/2+z
loop_
_atom_site_type_symbol
_atom_site_label
_atom_site_fract_x
_atom_site_fract_y
_atom_site_fract_z
Si Si1 0.750317 0.013159 0.416333
Si Si2 0.500000 0.000000 0.250000
Si Si3 0.363307 0.890402 0.674533
Si Si4 0.924276 0.109990 0.719822
Si Si5 0.133132 0.814527 0.415287
Si Si6 0.768772 0.856638 0.705646
O O1 0.752169 0.968522 0.500000
O O2 0.663716 0.029530 0.387947
O O3 0.787360 0.124050 0.415175
O O4 0.789896 0.935065 0.359725
O O5 0.553192 0.073916 0.298827
O O6 0.365278 0.784520 0.634082
O O7 0.301483 0.893253 0.742478
O O8 0.927057 0.114123 0.628811
O O9 0.845149 0.161134 0.745429
O O10 0.000000 0.167314 0.750000
O O11 0.926119 0.000000 0.750000
O O12 0.106087 0.792428 0.500000
O O13 0.750000 0.750000 0.668660
#
# Coordination Sequence:
#
# PCOD8277755 Si02
#       6
#    16   4  16  16  16  16
#     4  11  22  40  64  93 130 168 218 274 325 381
#     4  12  28  40  70  96 132 172 214 276 316 416
#     4  12  22  41  66  96 126 170 223 261 329 391
#     4  11  22  40  65  96 127 170 220 269 324 387
#     4  11  23  40  67 100 129 167 220 277 325 381
#     4  12  21  40  68  93 127 175 223 268 319 401
#
# _framework density 20.048327
#
# number of rings (size 3 to 8) (size 9 to 14) (size 15 to 20)
#    0.000    0.571    7.619    1.143    1.333    1.905 
#    0.000    4.762    0.000    0.000    0.000    0.000 
#    0.000    0.000    0.000    0.000    0.000    0.000 
#
# Total GULP energy -520316.104215 kJ/mol
# GULP energy per Si atom -12388.478672 kJ/mol
# Density = 2.000270 g / cm^3
# Si number density = 20.048327 Si / 1000 Ang^3
#
#
#
# Elastic Constant Matrix: (Units=GPa)
#
#
# Indices 1 2 3 4 5 6 
#
# 1 129.0577 24.0266 57.9644 0.0000 0.0000 0.0000
# 2 24.0266 99.3096 56.9466 0.0000 0.0000 0.0000
# 3 57.9644 56.9466 176.1310 0.0000 0.0000 0.0000
# 4 0.0000 0.0000 0.0000 32.3428 0.0000 0.0000
# 5 0.0000 0.0000 0.0000 0.0000 7.2033 0.0000
# 6 0.0000 0.0000 0.0000 0.0000 0.0000 7.4700
#
#
#
# Elastic Compliance Matrix: (Units=1/GPa)
#
#
# Indices 1 2 3 4 5 6 
#
# 1 0.009121 -0.000596 -0.002809 0.000000 0.000000 0.000000
# 2 -0.000596 0.012400 -0.003813 0.000000 0.000000 0.000000
# 3 -0.002809 -0.003813 0.007835 0.000000 0.000000 0.000000
# 4 0.000000 0.000000 0.000000 0.030919 0.000000 0.000000
# 5 0.000000 0.000000 0.000000 0.000000 0.138825 0.000000
# 6 0.000000 0.000000 0.000000 0.000000 0.000000 0.133869
#
#
# Mechanical properties :
#
#
# Convention : Reuss Voigt Hill
#
# Bulk Modulus (GPa) = 67.02416 75.81927 71.42171
# Shear Modulus (GPa) = 14.18929 27.10728 20.64829
#
# Velocity S-wave (km/s) = 2.66325 3.68108 3.21273
# Velocity P-wave (km/s) = 6.55447 7.48114 7.03308
#
# Compressibility (1/GPa) = 0.01491999
#
# Stress axis : x y z
#
# Youngs Moduli (GPa) = 109.63636 80.64364 127.63407
#
# Poissons Ratio (x) = 0.04806 0.35853
# Poissons Ratio (y) = 0.06534 0.48668
# Poissons Ratio (z) = 0.30797 0.30750
#
# Static dielectric constant tensor:
#      x y z
#    x 5.178050 0.000000 0.000000 
#    y 0.000000 3.679700 0.000000 
#    z 0.000000 0.000000 3.883690 
# 
# 
# High freq. dielectric constant tensor:
#      x y z
#    x 1.762480 0.000000 0.000000 
#    y 0.000000 1.787510 0.000000 
#    z 0.000000 0.000000 1.781250 
# 
# From -- ./inp_files/41564.got.cif
#   From: 2010.03.12/outbox.cif.g09.slc.cpg/sg66_21_cif.got.tgz:41564.got - 2010.04.10 21:57:39.
