data_PCOD8277375
_publ_section_title
;
Structure prediction by ZEFSAII (Michael W. Deem and Ramdas Pophale) SiO2 
 PCOD8277375
Probable space group: C C C M
;
_chemical_formula_sum "Si O2"
_cell_formula_units_Z 96
_cell_length_a 22.294117
_cell_length_b 15.732229
_cell_length_c 14.085860
_cell_angle_alpha 90.000000
_cell_angle_beta 90.000000
_cell_angle_gamma 90.000000
_cell_volume 4940.420362
_symmetry_space_group_name_H-M "C C C M"
_symmetry_group_IT_number 66
_symmetry_cell_setting 'orthorhombic'
loop_
_space_group_symop_operation_xyz
x,y,z
-x,-y,z
x,-y,1/2-z
-x,y,1/2-z
-x,-y,-z
x,y,-z
-x,y,1/2+z
x,-y,1/2+z
1/2+x,1/2+y,z
1/2-x,1/2-y,z
1/2+x,1/2-y,1/2-z
1/2-x,1/2+y,1/2-z
1/2-x,1/2-y,-z
1/2+x,1/2+y,-z
1/2-x,1/2+y,1/2+z
1/2+x,1/2-y,1/2+z
loop_
_atom_site_type_symbol
_atom_site_label
_atom_site_fract_x
_atom_site_fract_y
_atom_site_fract_z
Si Si1 0.727715 0.844582 0.105320
Si Si2 0.069017 0.514025 0.109772
Si Si3 0.659535 0.551962 0.837733
Si Si4 0.615010 0.868060 0.223286
Si Si5 0.486628 0.357189 0.000000
Si Si6 0.442263 0.311196 0.807179
Si Si7 0.908814 0.974299 0.500000
O O1 0.750000 0.750000 0.111751
O O2 0.785302 0.904462 0.110571
O O3 0.685049 0.856637 0.197421
O O4 0.698230 0.860006 0.000000
O O5 0.094837 0.421583 0.131781
O O6 0.101830 0.583439 0.177434
O O7 0.000000 0.500000 0.135331
O O8 0.079648 0.540063 0.000000
O O9 0.685523 0.500000 0.750000
O O10 0.610199 0.619721 0.802447
O O11 0.631400 0.480971 0.906482
O O12 0.581030 0.778706 0.231139
O O13 0.466967 0.298593 0.086960
O O14 0.452940 0.446116 0.000000
O O15 0.557137 0.383063 0.000000
O O16 0.500000 0.344883 0.750000
#
# Coordination Sequence:
#
# PCOD8277375 Si02
#       7
#    16  16  16  16   8  16   8
#     4  11  23  40  64  89 119 157 212 266 304 350
#     4  10  22  41  66  94 125 159 195 256 324 378
#     4  11  22  37  62  86 123 164 201 252 303 367
#     4  11  22  39  62  90 126 156 207 260 303 374
#     4   9  20  32  59  82 121 162 193 256 296 357
#     4  11  22  37  58  92 120 160 207 247 311 366
#     4   9  18  38  52  87 122 154 205 245 303 355
#
# _framework density 19.431545
#
# number of rings (size 3 to 8) (size 9 to 14) (size 15 to 20)
#    0.000    1.500    2.500    3.500    4.667    1.667 
#    1.500    0.000    0.000    0.500    0.000    0.000 
#    0.000    0.000    0.000    0.000    0.000    0.000 
#
# Total GULP energy -594849.798053 kJ/mol
# GULP energy per Si atom -12392.704126 kJ/mol
# Density = 1.938732 g / cm^3
# Si number density = 19.431545 Si / 1000 Ang^3
#
#
#
# Elastic Constant Matrix: (Units=GPa)
#
#
# Indices 1 2 3 4 5 6 
#
# 1 89.6425 19.0027 38.2400 0.0000 0.0000 0.0000
# 2 19.0027 64.1216 26.7074 0.0000 0.0000 0.0000
# 3 38.2400 26.7074 126.1005 0.0000 0.0000 0.0000
# 4 0.0000 0.0000 0.0000 41.9897 0.0000 0.0000
# 5 0.0000 0.0000 0.0000 0.0000 34.5324 0.0000
# 6 0.0000 0.0000 0.0000 0.0000 0.0000 20.5776
#
#
#
# Elastic Compliance Matrix: (Units=1/GPa)
#
#
# Indices 1 2 3 4 5 6 
#
# 1 0.013156 -0.002454 -0.003470 0.000000 0.000000 0.000000
# 2 -0.002454 0.017562 -0.002975 0.000000 0.000000 0.000000
# 3 -0.003470 -0.002975 0.009613 0.000000 0.000000 0.000000
# 4 0.000000 0.000000 0.000000 0.023815 0.000000 0.000000
# 5 0.000000 0.000000 0.000000 0.000000 0.028958 0.000000
# 6 0.000000 0.000000 0.000000 0.000000 0.000000 0.048596
#
#
# Mechanical properties :
#
#
# Convention : Reuss Voigt Hill
#
# Bulk Modulus (GPa) = 44.38042 49.75165 47.06603
# Shear Modulus (GPa) = 29.93856 32.48090 31.20973
#
# Velocity S-wave (km/s) = 3.92946 4.09290 4.01201
# Velocity P-wave (km/s) = 6.59367 6.92784 6.76282
#
# Compressibility (1/GPa) = 0.02253246
#
# Stress axis : x y z
#
# Youngs Moduli (GPa) = 76.01264 56.94181 104.03025
#
# Poissons Ratio (x) = 0.13971 0.36097
# Poissons Ratio (y) = 0.18650 0.30954
# Poissons Ratio (z) = 0.26375 0.16943
#
# Static dielectric constant tensor:
#      x y z
#    x 3.583890 0.000000 0.000000 
#    y 0.000000 3.420040 0.000000 
#    z 0.000000 0.000000 3.688070 
# 
# 
# High freq. dielectric constant tensor:
#      x y z
#    x 1.757090 0.000000 0.000000 
#    y 0.000000 1.747440 0.000000 
#    z 0.000000 0.000000 1.761710 
# 
# From -- ./inp_files/31228.got.cif
#   From: 2010.03.12/outbox.cif.g09.slc.cpg/sg66_16_cif.got.tgz:31228.got - 2010.04.10 21:57:39.
