data_PCOD8277801
_publ_section_title
;
Structure prediction by ZEFSAII (Michael W. Deem and Ramdas Pophale) SiO2 
 PCOD8277801
Probable space group: C C C M
;
_chemical_formula_sum "Si O2"
_cell_formula_units_Z 72
_cell_length_a 26.105221
_cell_length_b 5.171979
_cell_length_c 23.160744
_cell_angle_alpha 90.000000
_cell_angle_beta 90.000000
_cell_angle_gamma 90.000000
_cell_volume 3127.063017
_symmetry_space_group_name_H-M "C C C M"
_symmetry_group_IT_number 66
_symmetry_cell_setting 'orthorhombic'
loop_
_space_group_symop_operation_xyz
x,y,z
-x,-y,z
x,-y,1/2-z
-x,y,1/2-z
-x,-y,-z
x,y,-z
-x,y,1/2+z
x,-y,1/2+z
1/2+x,1/2+y,z
1/2-x,1/2-y,z
1/2+x,1/2-y,1/2-z
1/2-x,1/2+y,1/2-z
1/2-x,1/2-y,-z
1/2+x,1/2+y,-z
1/2-x,1/2+y,1/2+z
1/2+x,1/2-y,1/2+z
loop_
_atom_site_type_symbol
_atom_site_label
_atom_site_fract_x
_atom_site_fract_y
_atom_site_fract_z
Si Si1 0.907201 0.750256 0.789245
Si Si2 0.886205 0.601786 0.000000
Si Si3 0.681308 0.577467 0.500000
Si Si4 0.201703 0.413677 0.815136
Si Si5 0.966493 0.750201 0.903982
Si Si6 0.750000 0.750000 0.402347
O O1 0.918736 0.500000 0.750000
O O2 0.852112 0.732573 0.820397
O O3 0.949570 0.789766 0.837987
O O4 0.907957 0.000000 0.750000
O O5 0.862793 0.307274 0.000000
O O6 0.918555 0.681889 0.943885
O O7 0.838824 0.789592 0.000000
O O8 0.717078 0.567359 0.443696
O O9 0.210295 0.500000 0.750000
O O10 0.250000 0.250000 0.835180
O O11 0.204234 0.642449 0.861433
O O12 0.000000 0.500000 0.908726
O O13 0.000000 0.000000 0.924071
#
# Coordination Sequence:
#
# PCOD8277801 Si02
#       6
#    16   8   8  16  16   8
#     4  11  26  44  69 104 143 184 226 278 346 413
#     4  12  26  50  72  99 136 177 237 289 352 414
#     4  11  28  45  70 101 138 189 224 291 349 402
#     4  11  23  40  67 100 141 184 228 275 334 403
#     4  12  26  46  75 104 135 180 231 291 349 409
#     4  11  26  42  66 102 142 185 238 280 336 413
#
# _framework density 23.024798000000001
#
# number of rings (size 3 to 8) (size 9 to 14) (size 15 to 20)
#    0.000    0.667    1.111    5.333    9.333    3.556 
#    0.000    0.000    0.000    0.000    0.000    0.000 
#    0.000    0.000    0.000    0.000    0.000    0.000 
#
# Total GULP energy -446148.233773 kJ/mol
# GULP energy per Si atom -12393.006494 kJ/mol
# Density = 2.297239 g / cm^3
# Si number density = 23.024798 Si / 1000 Ang^3
#
#
#
# Elastic Constant Matrix: (Units=GPa)
#
#
# Indices 1 2 3 4 5 6 
#
# 1 52.2845 12.7752 15.5313 0.0000 0.0000 0.0000
# 2 12.7752 109.2118 20.6299 0.0000 0.0000 0.0000
# 3 15.5313 20.6299 125.2072 0.0000 0.0000 0.0000
# 4 0.0000 0.0000 0.0000 -9.1278 0.0000 0.0000
# 5 0.0000 0.0000 0.0000 0.0000 -29.1605 0.0000
# 6 0.0000 0.0000 0.0000 0.0000 0.0000 48.2042
#
#
#
# Elastic Compliance Matrix: (Units=1/GPa)
#
#
# Indices 1 2 3 4 5 6 
#
# 1 0.020255 -0.001956 -0.002190 0.000000 0.000000 0.000000
# 2 -0.001956 0.009639 -0.001346 0.000000 0.000000 0.000000
# 3 -0.002190 -0.001346 0.008480 0.000000 0.000000 0.000000
# 4 0.000000 0.000000 0.000000 -0.109555 0.000000 0.000000
# 5 0.000000 0.000000 0.000000 0.000000 -0.034293 0.000000
# 6 0.000000 0.000000 0.000000 0.000000 0.000000 0.020745
#
#
# Mechanical properties :
#
#
# Convention : Reuss Voigt Hill
#
# Bulk Modulus (GPa) = 36.50807 42.73069 39.61938
# Shear Modulus (GPa) = -77.38069 17.83431 -29.77319
#
# Velocity S-wave (km/s) = -5.80349 2.78613 -3.59986
# Velocity P-wave (km/s) = 5.38674 5.38041 0.18449
#
# Compressibility (1/GPa) = 0.02739120
#
# Stress axis : x y z
#
# Youngs Moduli (GPa) = 49.37155 103.74009 117.92212
#
# Poissons Ratio (x) = 0.20287 0.25828
# Poissons Ratio (y) = 0.09655 0.15869
# Poissons Ratio (z) = 0.10814 0.13960
#
# Static dielectric constant tensor:
#      x y z
#    x 4.237430 0.000000 0.000000 
#    y 0.000000 4.247820 0.000000 
#    z 0.000000 0.000000 4.058860 
# 
# 
# High freq. dielectric constant tensor:
#      x y z
#    x 1.921260 0.000000 0.000000 
#    y 0.000000 1.908920 0.000000 
#    z 0.000000 0.000000 1.932530 
# 
# From -- ./inp_files/60303.got.cif
#   From: 2010.03.12/outbox.cif.g09.slc.cpg/sg66_31_cif.got.tgz:60303.got - 2010.04.10 21:57:39.
