data_PCOD8277209
_publ_section_title
;
Structure prediction by ZEFSAII (Michael W. Deem and Ramdas Pophale) SiO2 
 PCOD8277209
Probable space group: C C C M
;
_chemical_formula_sum "Si O2"
_cell_formula_units_Z 96
_cell_length_a 20.604102
_cell_length_b 11.303378
_cell_length_c 18.805369
_cell_angle_alpha 90.000000
_cell_angle_beta 90.000000
_cell_angle_gamma 90.000000
_cell_volume 4379.694340
_symmetry_space_group_name_H-M "C C C M"
_symmetry_group_IT_number 66
_symmetry_cell_setting 'orthorhombic'
loop_
_space_group_symop_operation_xyz
x,y,z
-x,-y,z
x,-y,1/2-z
-x,y,1/2-z
-x,-y,-z
x,y,-z
-x,y,1/2+z
x,-y,1/2+z
1/2+x,1/2+y,z
1/2-x,1/2-y,z
1/2+x,1/2-y,1/2-z
1/2-x,1/2+y,1/2-z
1/2-x,1/2-y,-z
1/2+x,1/2+y,-z
1/2-x,1/2+y,1/2+z
1/2+x,1/2-y,1/2+z
loop_
_atom_site_type_symbol
_atom_site_label
_atom_site_fract_x
_atom_site_fract_y
_atom_site_fract_z
Si Si1 0.927105 0.878014 0.722960
Si Si2 0.147203 0.724819 0.676771
Si Si3 0.789010 0.362915 0.082119
Si Si4 0.916606 0.231750 0.920985
Si Si5 0.235859 0.065159 0.820006
Si Si6 0.961493 0.612219 0.919714
O O1 0.894800 0.760968 0.755115
O O2 0.915553 0.872486 0.637749
O O3 0.000000 0.875323 0.750000
O O4 0.894864 0.000000 0.750000
O O5 0.181321 0.845740 0.646753
O O6 0.201981 0.638643 0.706593
O O7 0.103312 0.654122 0.620232
O O8 0.750000 0.250000 0.111236
O O9 0.865617 0.338030 0.095641
O O10 0.760508 0.477105 0.119974
O O11 0.774381 0.384506 0.000000
O O12 0.989387 0.279006 0.919312
O O13 0.900881 0.179314 0.000000
O O14 0.208121 0.000000 0.750000
O O15 0.000000 0.500000 0.885181
O O16 0.940105 0.577982 0.000000
#
# Coordination Sequence:
#
# PCOD8277209 Si02
#       6
#    16  16  16  16  16  16
#     4  11  23  41  64  92 132 169 213 274 331 393
#     4  11  24  41  63  99 129 174 225 272 343 400
#     4  10  23  42  68  96 128 176 226 273 328 400
#     4  10  21  41  66  93 126 168 220 271 326 399
#     4  11  25  41  65  94 134 177 222 278 334 398
#     4  10  21  40  66  96 132 171 213 273 345 407
#
# _framework density 21.919338
#
# number of rings (size 3 to 8) (size 9 to 14) (size 15 to 20)
#    0.000    1.500    1.667    2.500    7.000    2.667 
#    0.000    5.000    0.000    0.000    0.000    0.000 
#    0.000    0.000    0.000    0.000    0.000    0.000 
#
# Total GULP energy -594938.037995 kJ/mol
# GULP energy per Si atom -12394.542458 kJ/mol
# Density = 2.186945 g / cm^3
# Si number density = 21.919338 Si / 1000 Ang^3
#
#
#
# Elastic Constant Matrix: (Units=GPa)
#
#
# Indices 1 2 3 4 5 6 
#
# 1 117.5845 39.5271 34.0168 0.0000 0.0000 0.0000
# 2 39.5271 119.8809 60.2337 0.0000 0.0000 0.0000
# 3 34.0168 60.2337 121.7828 0.0000 0.0000 0.0000
# 4 0.0000 0.0000 0.0000 37.9235 0.0000 0.0000
# 5 0.0000 0.0000 0.0000 0.0000 26.8498 0.0000
# 6 0.0000 0.0000 0.0000 0.0000 0.0000 29.1658
#
#
#
# Elastic Compliance Matrix: (Units=1/GPa)
#
#
# Indices 1 2 3 4 5 6 
#
# 1 0.009769 -0.002462 -0.001511 0.000000 0.000000 0.000000
# 2 -0.002462 0.011720 -0.005109 0.000000 0.000000 0.000000
# 3 -0.001511 -0.005109 0.011160 0.000000 0.000000 0.000000
# 4 0.000000 0.000000 0.000000 0.026369 0.000000 0.000000
# 5 0.000000 0.000000 0.000000 0.000000 0.037244 0.000000
# 6 0.000000 0.000000 0.000000 0.000000 0.000000 0.034287
#
#
# Mechanical properties :
#
#
# Convention : Reuss Voigt Hill
#
# Bulk Modulus (GPa) = 69.03383 69.64482 69.33932
# Shear Modulus (GPa) = 32.56413 33.81920 33.19167
#
# Velocity S-wave (km/s) = 3.85857 3.93223 3.89558
# Velocity P-wave (km/s) = 7.17038 7.24284 7.20670
#
# Compressibility (1/GPa) = 0.01448565
#
# Stress axis : x y z
#
# Youngs Moduli (GPa) = 102.36181 85.32070 89.60174
#
# Poissons Ratio (x) = 0.21005 0.13540
# Poissons Ratio (y) = 0.25200 0.45780
# Poissons Ratio (z) = 0.15468 0.43593
#
# Static dielectric constant tensor:
#      x y z
#    x 4.182830 0.000000 0.000000 
#    y 0.000000 4.231820 0.000000 
#    z 0.000000 0.000000 3.849510 
# 
# 
# High freq. dielectric constant tensor:
#      x y z
#    x 1.889010 0.000000 0.000000 
#    y 0.000000 1.855350 0.000000 
#    z 0.000000 0.000000 1.843240 
# 
# From -- ./inp_files/51820.got.cif
#   From: 2010.03.12/outbox.cif.g09.slc.cpg/sg66_26_cif.got.tgz:51820.got - 2010.04.10 21:57:39.
