data_PCOD8277090
_publ_section_title
;
Structure prediction by ZEFSAII (Michael W. Deem and Ramdas Pophale) SiO2 
 PCOD8277090
Probable space group: C C C M
;
_chemical_formula_sum "Si O2"
_cell_formula_units_Z 88
_cell_length_a 9.368745
_cell_length_b 23.920941
_cell_length_c 20.210481
_cell_angle_alpha 90.000000
_cell_angle_beta 90.000000
_cell_angle_gamma 90.000000
_cell_volume 4529.354656
_symmetry_space_group_name_H-M "C C C M"
_symmetry_group_IT_number 66
_symmetry_cell_setting 'orthorhombic'
loop_
_space_group_symop_operation_xyz
x,y,z
-x,-y,z
x,-y,1/2-z
-x,y,1/2-z
-x,-y,-z
x,y,-z
-x,y,1/2+z
x,-y,1/2+z
1/2+x,1/2+y,z
1/2-x,1/2-y,z
1/2+x,1/2-y,1/2-z
1/2-x,1/2+y,1/2-z
1/2-x,1/2-y,-z
1/2+x,1/2+y,-z
1/2-x,1/2+y,1/2+z
1/2+x,1/2-y,1/2+z
loop_
_atom_site_type_symbol
_atom_site_label
_atom_site_fract_x
_atom_site_fract_y
_atom_site_fract_z
Si Si1 0.951436 0.271449 0.613354
Si Si2 0.785600 0.339202 0.159572
Si Si3 0.015378 0.154679 0.428032
Si Si4 0.250000 0.750000 0.270273
Si Si5 0.995912 0.436664 0.828135
Si Si6 0.792894 0.377239 0.425021
O O1 0.893154 0.251830 0.685278
O O2 0.839413 0.312733 0.579282
O O3 0.108511 0.298530 0.619859
O O4 0.967610 0.218871 0.566134
O O5 0.636135 0.352049 0.125853
O O6 0.751148 0.308035 0.228687
O O7 0.853395 0.401035 0.159693
O O8 0.073969 0.136378 0.500000
O O9 0.875989 0.117611 0.410479
O O10 0.129151 0.409848 0.866220
O O11 0.000000 0.500000 0.854638
O O12 0.000000 0.435360 0.750000
O O13 0.828004 0.398965 0.500000
#
# Coordination Sequence:
#
# PCOD8277090 Si02
#       6
#    16  16  16   8  16  16
#     4  11  20  34  56  84 126 166 199 238 293 374
#     4  11  23  35  57  92 122 160 201 255 300 366
#     4  11  22  37  55  86 127 166 201 247 305 366
#     4  12  20  34  56  90 126 160 206 244 310 374
#     4  10  23  45  67  89 118 159 211 265 315 368
#     4  10  21  38  62  90 123 167 210 250 303 373
#
# _framework density 19.428816000000001
#
# number of rings (size 3 to 8) (size 9 to 14) (size 15 to 20)
#    0.000    1.273    3.636    3.273    0.000    6.182 
#    0.000    0.909    0.000    4.364    0.000    0.000 
#    0.000    0.000    0.000    0.000    0.000    0.000 
#
# Total GULP energy -545176.619641 kJ/mol
# GULP energy per Si atom -12390.377719 kJ/mol
# Density = 1.938460 g / cm^3
# Si number density = 19.428816 Si / 1000 Ang^3
#
#
#
# Elastic Constant Matrix: (Units=GPa)
#
#
# Indices 1 2 3 4 5 6 
#
# 1 115.0825 32.4547 49.1083 0.0000 0.0000 0.0000
# 2 32.4547 102.1164 25.9966 0.0000 0.0000 0.0000
# 3 49.1083 25.9966 89.6152 0.0000 0.0000 0.0000
# 4 0.0000 0.0000 0.0000 -319.0979 0.0000 0.0000
# 5 0.0000 0.0000 0.0000 0.0000 20.2025 0.0000
# 6 0.0000 0.0000 0.0000 0.0000 0.0000 -6.8214
#
#
#
# Elastic Compliance Matrix: (Units=1/GPa)
#
#
# Indices 1 2 3 4 5 6 
#
# 1 0.011811 -0.002274 -0.005813 0.000000 0.000000 0.000000
# 2 -0.002274 0.011011 -0.001948 0.000000 0.000000 0.000000
# 3 -0.005813 -0.001948 0.014909 0.000000 0.000000 0.000000
# 4 0.000000 0.000000 0.000000 -0.003134 0.000000 0.000000
# 5 0.000000 0.000000 0.000000 0.000000 0.049499 0.000000
# 6 0.000000 0.000000 0.000000 0.000000 0.000000 -0.146597
#
#
# Mechanical properties :
#
#
# Convention : Reuss Voigt Hill
#
# Bulk Modulus (GPa) = 56.61870 57.99260 57.30565
# Shear Modulus (GPa) = -136.82616 -47.85972 -92.34294
#
# Velocity S-wave (km/s) = -8.40103 -4.96859 -6.90160
# Velocity P-wave (km/s) = 8.05594 1.73270 5.82668
#
# Compressibility (1/GPa) = 0.01766201
#
# Stress axis : x y z
#
# Youngs Moduli (GPa) = 84.66581 90.81463 67.07232
#
# Poissons Ratio (x) = 0.20652 0.38987
# Poissons Ratio (y) = 0.19253 0.13067
# Poissons Ratio (z) = 0.49214 0.17692
#
# Static dielectric constant tensor:
#      x y z
#    x 3.630920 0.000000 0.000000 
#    y 0.000000 3.669040 0.000000 
#    z 0.000000 0.000000 3.550350 
# 
# 
# High freq. dielectric constant tensor:
#      x y z
#    x 1.765230 0.000000 0.000000 
#    y 0.000000 1.724320 0.000000 
#    z 0.000000 0.000000 1.763140 
# 
# From -- ./inp_files/47182.got.cif
#   From: 2010.03.12/outbox.cif.g09.slc.cpg/sg66_24_cif.got.tgz:47182.got - 2010.04.10 21:57:39.
