data_PCOD8277823
_publ_section_title
;
Structure prediction by ZEFSAII (Michael W. Deem and Ramdas Pophale) SiO2 
 PCOD8277823
Probable space group: C C C M
;
_chemical_formula_sum "Si O2"
_cell_formula_units_Z 72
_cell_length_a 9.167066
_cell_length_b 26.911373
_cell_length_c 14.500165
_cell_angle_alpha 90.000000
_cell_angle_beta 90.000000
_cell_angle_gamma 90.000000
_cell_volume 3577.166526
_symmetry_space_group_name_H-M "C C C M"
_symmetry_group_IT_number 66
_symmetry_cell_setting 'orthorhombic'
loop_
_space_group_symop_operation_xyz
x,y,z
-x,-y,z
x,-y,1/2-z
-x,y,1/2-z
-x,-y,-z
x,y,-z
-x,y,1/2+z
x,-y,1/2+z
1/2+x,1/2+y,z
1/2-x,1/2-y,z
1/2+x,1/2-y,1/2-z
1/2-x,1/2+y,1/2-z
1/2-x,1/2-y,-z
1/2+x,1/2+y,-z
1/2-x,1/2+y,1/2+z
1/2+x,1/2-y,1/2+z
loop_
_atom_site_type_symbol
_atom_site_label
_atom_site_fract_x
_atom_site_fract_y
_atom_site_fract_z
Si Si1 0.400250 0.453822 0.891707
Si Si2 0.763944 0.809151 0.500000
Si Si3 0.981233 0.371651 0.500000
Si Si4 0.203065 0.194133 0.000000
Si Si5 0.010392 0.845641 0.856716
Si Si6 0.932337 0.550189 0.150895
O O1 0.500000 0.500000 0.858665
O O2 0.490981 0.404680 0.867421
O O3 0.243512 0.453785 0.841410
O O4 0.367555 0.456694 0.000000
O O5 0.750000 0.750000 0.500000
O O6 0.602584 0.829975 0.500000
O O7 0.839830 0.829070 0.593763
O O8 0.829219 0.344976 0.500000
O O9 0.990031 0.404743 0.409407
O O10 0.250000 0.250000 0.000000
O O11 0.114958 0.184933 0.093032
O O12 0.000000 0.830197 0.750000
O O13 0.000000 0.500000 0.108142
O O14 0.000000 0.559828 0.250000
#
# Coordination Sequence:
#
# PCOD8277823 Si02
#       6
#    16   8   8   8  16  16
#     4  11  23  43  71  99 135 185 226 264 331 402
#     4  11  27  46  66 101 131 173 224 287 339 393
#     4  12  23  42  71  92 134 175 220 268 340 391
#     4  11  23  48  70  90 129 178 219 285 338 393
#     4  11  24  44  69 100 134 170 227 272 333 406
#     4  11  25  40  63 102 139 173 215 268 328 392
#
# _framework density 20.127661
#
# number of rings (size 3 to 8) (size 9 to 14) (size 15 to 20)
#    0.000    0.889    5.556    1.667    6.222    3.111 
#    0.000    2.222    0.000    0.000    0.000    0.000 
#    0.000    0.000    0.000    0.000    0.000    0.000 
#
# Total GULP energy -446457.240975 kJ/mol
# GULP energy per Si atom -12401.590027 kJ/mol
# Density = 2.008185 g / cm^3
# Si number density = 20.127661 Si / 1000 Ang^3
#
#
#
# Elastic Constant Matrix: (Units=GPa)
#
#
# Indices 1 2 3 4 5 6 
#
# 1 101.0800 27.8566 42.0438 0.0000 0.0000 0.0000
# 2 27.8566 142.5192 36.2062 0.0000 0.0000 0.0000
# 3 42.0438 36.2062 143.2428 0.0000 0.0000 0.0000
# 4 0.0000 0.0000 0.0000 -149.9897 0.0000 0.0000
# 5 0.0000 0.0000 0.0000 0.0000 27.9734 0.0000
# 6 0.0000 0.0000 0.0000 0.0000 0.0000 39.3782
#
#
#
# Elastic Compliance Matrix: (Units=1/GPa)
#
#
# Indices 1 2 3 4 5 6 
#
# 1 0.011559 -0.001493 -0.003015 0.000000 0.000000 0.000000
# 2 -0.001493 0.007691 -0.001506 0.000000 0.000000 0.000000
# 3 -0.003015 -0.001506 0.008247 0.000000 0.000000 0.000000
# 4 0.000000 0.000000 0.000000 -0.006667 0.000000 0.000000
# 5 0.000000 0.000000 0.000000 0.000000 0.035748 0.000000
# 6 0.000000 0.000000 0.000000 0.000000 0.000000 0.025395
#
#
# Mechanical properties :
#
#
# Convention : Reuss Voigt Hill
#
# Bulk Modulus (GPa) = 64.64884 66.56170 65.60527
# Shear Modulus (GPa) = 50.42512 2.18809 26.30660
#
# Velocity S-wave (km/s) = 5.01069 1.04377 3.61915
# Velocity P-wave (km/s) = 8.10341 5.88168 7.08023
#
# Compressibility (1/GPa) = 0.01546818
#
# Stress axis : x y z
#
# Youngs Moduli (GPa) = 86.51369 130.02245 121.25992
#
# Poissons Ratio (x) = 0.19416 0.36563
# Poissons Ratio (y) = 0.12919 0.18258
# Poissons Ratio (z) = 0.26086 0.19577
#
# Static dielectric constant tensor:
#      x y z
#    x 3.785020 0.000000 0.000000 
#    y 0.000000 3.719400 0.000000 
#    z 0.000000 0.000000 3.685240 
# 
# 
# High freq. dielectric constant tensor:
#      x y z
#    x 1.797350 0.000000 0.000000 
#    y 0.000000 1.795690 0.000000 
#    z 0.000000 0.000000 1.789460 
# 
# From -- ./inp_files/24544.got.cif
#   From: 2010.03.12/outbox.cif.g09.slc.cpg/sg66_13_cif.got.tgz:24544.got - 2010.04.10 21:57:39.
