data_PCOD8277468
_publ_section_title
;
Structure prediction by ZEFSAII (Michael W. Deem and Ramdas Pophale) SiO2 
 PCOD8277468
Probable space group: C C C M
;
_chemical_formula_sum "Si O2"
_cell_formula_units_Z 112
_cell_length_a 20.926172
_cell_length_b 15.088410
_cell_length_c 17.431804
_cell_angle_alpha 90.000000
_cell_angle_beta 90.000000
_cell_angle_gamma 90.000000
_cell_volume 5503.964214
_symmetry_space_group_name_H-M "C C C M"
_symmetry_group_IT_number 66
_symmetry_cell_setting 'orthorhombic'
loop_
_space_group_symop_operation_xyz
x,y,z
-x,-y,z
x,-y,1/2-z
-x,y,1/2-z
-x,-y,-z
x,y,-z
-x,y,1/2+z
x,-y,1/2+z
1/2+x,1/2+y,z
1/2-x,1/2-y,z
1/2+x,1/2-y,1/2-z
1/2-x,1/2+y,1/2-z
1/2-x,1/2-y,-z
1/2+x,1/2+y,-z
1/2-x,1/2+y,1/2+z
1/2+x,1/2-y,1/2+z
loop_
_atom_site_type_symbol
_atom_site_label
_atom_site_fract_x
_atom_site_fract_y
_atom_site_fract_z
Si Si1 0.787994 0.951497 0.675671
Si Si2 0.997624 0.149033 0.413824
Si Si3 0.829900 0.616474 0.410034
Si Si4 0.401385 0.491824 0.585716
Si Si5 0.323197 0.262549 0.715647
Si Si6 0.555034 0.802488 0.808777
Si Si7 0.571385 0.967466 0.086007
O O1 0.734527 0.933595 0.612833
O O2 0.840442 0.014606 0.637513
O O3 0.828838 0.865123 0.696992
O O4 0.758056 0.000000 0.750000
O O5 0.010027 0.185300 0.500000
O O6 0.982440 0.230991 0.359689
O O7 0.058183 0.092769 0.382858
O O8 0.939098 0.082490 0.414837
O O9 0.830352 0.640124 0.500000
O O10 0.834501 0.707079 0.362378
O O11 0.887014 0.551081 0.386130
O O12 0.379509 0.467469 0.500000
O O13 0.250000 0.250000 0.747904
O O14 0.379447 0.236626 0.774082
O O15 0.500000 0.834876 0.750000
O O16 0.580279 0.884939 0.857931
O O17 0.500000 0.000000 0.086594
O O18 0.592437 0.938862 0.000000
#
# Coordination Sequence:
#
# PCOD8277468 Si02
#       7
#    16  16  16  16  16  16  16
#     4  11  22  36  59  88 121 157 194 247 303 362
#     4   9  19  36  57  83 119 158 199 250 297 360
#     4  10  23  42  63  85 115 158 206 251 303 365
#     4   9  18  34  57  84 116 157 201 245 300 359
#     4  10  24  39  57  88 122 159 194 252 311 360
#     4  12  23  37  61  89 121 158 204 247 313 375
#     4  10  23  42  63  87 116 153 201 257 308 361
#
# _framework density 20.348969
#
# number of rings (size 3 to 8) (size 9 to 14) (size 15 to 20)
#    0.000    1.857    0.000    4.286    4.000    4.571 
#    0.000    5.000    0.000    0.857    0.000    0.000 
#    0.000    0.000    0.000    0.000    0.000    0.000 
#
# Total GULP energy -694147.129158 kJ/mol
# GULP energy per Si atom -12395.484449 kJ/mol
# Density = 2.030265 g / cm^3
# Si number density = 20.348969 Si / 1000 Ang^3
#
#
#
# Elastic Constant Matrix: (Units=GPa)
#
#
# Indices 1 2 3 4 5 6 
#
# 1 70.0916 13.4754 22.9477 0.0000 0.0000 0.0000
# 2 13.4754 87.1953 36.8606 0.0000 0.0000 0.0000
# 3 22.9477 36.8606 74.4377 0.0000 0.0000 0.0000
# 4 0.0000 0.0000 0.0000 17.1054 0.0000 0.0000
# 5 0.0000 0.0000 0.0000 0.0000 13.8584 0.0000
# 6 0.0000 0.0000 0.0000 0.0000 0.0000 26.7046
#
#
#
# Elastic Compliance Matrix: (Units=1/GPa)
#
#
# Indices 1 2 3 4 5 6 
#
# 1 0.015885 -0.000487 -0.004656 0.000000 0.000000 0.000000
# 2 -0.000487 0.014520 -0.007040 0.000000 0.000000 0.000000
# 3 -0.004656 -0.007040 0.018356 0.000000 0.000000 0.000000
# 4 0.000000 0.000000 0.000000 0.058461 0.000000 0.000000
# 5 0.000000 0.000000 0.000000 0.000000 0.072158 0.000000
# 6 0.000000 0.000000 0.000000 0.000000 0.000000 0.037447
#
#
# Mechanical properties :
#
#
# Convention : Reuss Voigt Hill
#
# Bulk Modulus (GPa) = 40.99210 42.03243 41.51226
# Shear Modulus (GPa) = 20.05428 22.09641 21.07535
#
# Velocity S-wave (km/s) = 3.14270 3.29883 3.22171
# Velocity P-wave (km/s) = 5.77556 5.93383 5.85523
#
# Compressibility (1/GPa) = 0.02439495
#
# Stress axis : x y z
#
# Youngs Moduli (GPa) = 62.95254 68.87164 54.47949
#
# Poissons Ratio (x) = 0.03351 0.25366
# Poissons Ratio (y) = 0.03063 0.38353
# Poissons Ratio (z) = 0.29311 0.48486
#
# Static dielectric constant tensor:
#      x y z
#    x 3.810590 0.000000 0.000000 
#    y 0.000000 3.897040 0.000000 
#    z 0.000000 0.000000 3.863980 
# 
# 
# High freq. dielectric constant tensor:
#      x y z
#    x 1.805590 0.000000 0.000000 
#    y 0.000000 1.793760 0.000000 
#    z 0.000000 0.000000 1.792980 
# 
# From -- ./inp_files/32511.got.cif
#   From: 2010.03.12/outbox.cif.g09.slc.cpg/sg66_17_cif.got.tgz:32511.got - 2010.04.10 21:57:39.
