data_PCOD8277037
_publ_section_title
;
Structure prediction by ZEFSAII (Michael W. Deem and Ramdas Pophale) SiO2 
 PCOD8277037
Probable space group: C C C M
;
_chemical_formula_sum "Si O2"
_cell_formula_units_Z 112
_cell_length_a 14.182699
_cell_length_b 14.505041
_cell_length_c 29.608377
_cell_angle_alpha 90.000000
_cell_angle_beta 90.000000
_cell_angle_gamma 90.000000
_cell_volume 6091.053984
_symmetry_space_group_name_H-M "C C C M"
_symmetry_group_IT_number 66
_symmetry_cell_setting 'orthorhombic'
loop_
_space_group_symop_operation_xyz
x,y,z
-x,-y,z
x,-y,1/2-z
-x,y,1/2-z
-x,-y,-z
x,y,-z
-x,y,1/2+z
x,-y,1/2+z
1/2+x,1/2+y,z
1/2-x,1/2-y,z
1/2+x,1/2-y,1/2-z
1/2-x,1/2+y,1/2-z
1/2-x,1/2-y,-z
1/2+x,1/2+y,-z
1/2-x,1/2+y,1/2+z
1/2+x,1/2-y,1/2+z
loop_
_atom_site_type_symbol
_atom_site_label
_atom_site_fract_x
_atom_site_fract_y
_atom_site_fract_z
Si Si1 0.858803 0.644014 0.500000
Si Si2 0.985616 0.767530 0.352453
Si Si3 0.069520 0.584522 0.098750
Si Si4 0.081386 0.069136 0.591067
Si Si5 0.861496 0.860308 0.500000
Si Si6 0.666191 0.678206 0.286751
Si Si7 0.743714 0.477096 0.148300
Si Si8 0.679674 0.333648 0.685122
O O1 0.901714 0.605072 0.453199
O O2 0.878443 0.751978 0.500000
O O3 0.749112 0.618730 0.500000
O O4 0.985345 0.668187 0.376689
O O5 0.927715 0.833110 0.385196
O O6 0.927582 0.770625 0.305477
O O7 0.090876 0.806543 0.346008
O O8 0.154372 0.557141 0.132353
O O9 0.000000 0.500000 0.096101
O O10 0.082317 0.089369 0.538948
O O11 0.180176 0.023144 0.603727
O O12 0.000000 0.000000 0.606003
O O13 0.750000 0.750000 0.289045
O O14 0.696890 0.588136 0.314212
O O15 0.643769 0.646473 0.235808
O O16 0.741139 0.580503 0.167366
O O17 0.750000 0.250000 0.684886
#
# Coordination Sequence:
#
# PCOD8277037 Si02
#       8
#     8  16  16  16   8  16  16  16
#     4  11  23  38  62  96 117 161 218 254 318 369
#     4  11  22  39  61  91 117 161 209 246 318 368
#     4  12  24  41  64  87 131 171 207 258 307 385
#     4  11  21  37  62  87 120 154 194 265 309 370
#     4  11  21  36  64  88 121 153 198 268 312 368
#     4  10  21  37  64  86 120 155 200 268 302 364
#     4  11  22  39  61  91 117 161 209 246 318 368
#     4  11  23  40  59  86 125 161 204 251 302 374
#
# _framework density 18.387623000000001
#
# number of rings (size 3 to 8) (size 9 to 14) (size 15 to 20)
#    0.000    1.000    5.714    2.143    0.000    0.000 
#    0.000    1.429    0.000    0.000    0.000    6.000 
#    0.000    0.000    0.000    0.000    0.000    0.000 
#
# Total GULP energy -694190.099453 kJ/mol
# GULP energy per Si atom -12396.251776 kJ/mol
# Density = 1.834577 g / cm^3
# Si number density = 18.387623 Si / 1000 Ang^3
#
#
#
# Elastic Constant Matrix: (Units=GPa)
#
#
# Indices 1 2 3 4 5 6 
#
# 1 60.9606 25.7235 18.1861 0.0000 0.0000 0.0000
# 2 25.7235 103.4377 40.0517 0.0000 0.0000 0.0000
# 3 18.1861 40.0517 106.4332 0.0000 0.0000 0.0000
# 4 0.0000 0.0000 0.0000 16.6096 0.0000 0.0000
# 5 0.0000 0.0000 0.0000 0.0000 20.5009 0.0000
# 6 0.0000 0.0000 0.0000 0.0000 0.0000 33.4413
#
#
#
# Elastic Compliance Matrix: (Units=1/GPa)
#
#
# Indices 1 2 3 4 5 6 
#
# 1 0.018581 -0.003970 -0.001681 0.000000 0.000000 0.000000
# 2 -0.003970 0.012165 -0.003899 0.000000 0.000000 0.000000
# 3 -0.001681 -0.003899 0.011150 0.000000 0.000000 0.000000
# 4 0.000000 0.000000 0.000000 0.060206 0.000000 0.000000
# 5 0.000000 0.000000 0.000000 0.000000 0.048778 0.000000
# 6 0.000000 0.000000 0.000000 0.000000 0.000000 0.029903
#
#
# Mechanical properties :
#
#
# Convention : Reuss Voigt Hill
#
# Bulk Modulus (GPa) = 43.86894 48.75046 46.30970
# Shear Modulus (GPa) = 24.09848 26.56838 25.33343
#
# Velocity S-wave (km/s) = 3.62412 3.80532 3.71582
# Velocity P-wave (km/s) = 6.43599 6.77329 6.60679
#
# Compressibility (1/GPa) = 0.02279517
#
# Stress axis : x y z
#
# Youngs Moduli (GPa) = 53.81939 82.20463 89.68487
#
# Poissons Ratio (x) = 0.32634 0.15076
# Poissons Ratio (y) = 0.21366 0.34971
# Poissons Ratio (z) = 0.09047 0.32055
#
# Static dielectric constant tensor:
#      x y z
#    x 3.361450 0.000000 0.000000 
#    y 0.000000 3.417150 0.000000 
#    z 0.000000 0.000000 3.633040 
# 
# 
# High freq. dielectric constant tensor:
#      x y z
#    x 1.712690 0.000000 0.000000 
#    y 0.000000 1.720080 0.000000 
#    z 0.000000 0.000000 1.723870 
# 
# From -- ./inp_files/64697.got.cif
#   From: 2010.03.12/outbox.cif.g09.slc.cpg/sg66_33_cif.got.tgz:64697.got - 2010.04.10 21:57:39.
