data_PCOD8277000
_publ_section_title
;
Structure prediction by ZEFSAII (Michael W. Deem and Ramdas Pophale) SiO2 
 PCOD8277000
Probable space group: C C C M
;
_chemical_formula_sum "Si O2"
_cell_formula_units_Z 96
_cell_length_a 24.045787
_cell_length_b 23.076308
_cell_length_c 8.790378
_cell_angle_alpha 90.000000
_cell_angle_beta 90.000000
_cell_angle_gamma 90.000000
_cell_volume 4877.675153
_symmetry_space_group_name_H-M "C C C M"
_symmetry_group_IT_number 66
_symmetry_cell_setting 'orthorhombic'
loop_
_space_group_symop_operation_xyz
x,y,z
-x,-y,z
x,-y,1/2-z
-x,y,1/2-z
-x,-y,-z
x,y,-z
-x,y,1/2+z
x,-y,1/2+z
1/2+x,1/2+y,z
1/2-x,1/2-y,z
1/2+x,1/2-y,1/2-z
1/2-x,1/2+y,1/2-z
1/2-x,1/2-y,-z
1/2+x,1/2+y,-z
1/2-x,1/2+y,1/2+z
1/2+x,1/2-y,1/2+z
loop_
_atom_site_type_symbol
_atom_site_label
_atom_site_fract_x
_atom_site_fract_y
_atom_site_fract_z
Si Si1 0.058618 0.437664 0.181084
Si Si2 0.441079 0.671040 0.675591
Si Si3 0.724050 0.375752 0.177614
Si Si4 0.625071 0.441833 0.672899
Si Si5 0.657688 0.263387 0.822740
Si Si6 0.336978 0.860342 0.678323
O O1 0.074465 0.500000 0.250000
O O2 0.106097 0.391834 0.229850
O O3 0.000000 0.415669 0.250000
O O4 0.053094 0.442897 0.000000
O O5 0.500000 0.680775 0.750000
O O6 0.440023 0.691856 0.500000
O O7 0.424596 0.603981 0.688173
O O8 0.400472 0.708820 0.777820
O O9 0.681059 0.420244 0.248902
O O10 0.707015 0.309034 0.214780
O O11 0.784577 0.390988 0.242521
O O12 0.724050 0.386618 0.000000
O O13 0.602879 0.500000 0.750000
O O14 0.640242 0.454599 0.500000
O O15 0.664342 0.206464 0.723654
O O16 0.658031 0.246630 0.000000
O O17 0.329166 0.866019 0.500000
#
# Coordination Sequence:
#
# PCOD8277000 Si02
#       6
#    16  16  16  16  16  16
#     4  10  22  40  61  83 109 142 178 220 271 322
#     4  10  21  37  57  81 111 148 188 232 282 332
#     4  10  21  37  57  82 113 148 186 230 279 328
#     4  10  21  37  57  81 111 148 188 232 282 332
#     4  10  21  37  57  82 113 148 186 230 279 328
#     4  11  23  37  57  86 115 146 185 225 272 333
#
# _framework density 19.681507
#
# number of rings (size 3 to 8) (size 9 to 14) (size 15 to 20)
#    0.000    1.833    0.000    4.000    0.000   10.333 
#    0.000    5.000    0.000    0.000    0.000    0.000 
#    0.000    0.000    0.000    0.000    0.000    0.000 
#
# Total GULP energy -595322.175528 kJ/mol
# GULP energy per Si atom -12402.545324 kJ/mol
# Density = 1.963671 g / cm^3
# Si number density = 19.681507 Si / 1000 Ang^3
#
#
#
# Elastic Constant Matrix: (Units=GPa)
#
#
# Indices 1 2 3 4 5 6 
#
# 1 91.4922 -2.4094 31.0624 0.0000 0.0000 0.0000
# 2 -2.4094 28.7934 13.0550 0.0000 0.0000 0.0000
# 3 31.0624 13.0550 78.8126 0.0000 0.0000 0.0000
# 4 0.0000 0.0000 0.0000 30.6646 0.0000 0.0000
# 5 0.0000 0.0000 0.0000 0.0000 34.3434 0.0000
# 6 0.0000 0.0000 0.0000 0.0000 0.0000 6.4130
#
#
#
# Elastic Compliance Matrix: (Units=1/GPa)
#
#
# Indices 1 2 3 4 5 6 
#
# 1 0.012969 0.003679 -0.005721 0.000000 0.000000 0.000000
# 2 0.003679 0.038594 -0.007843 0.000000 0.000000 0.000000
# 3 -0.005721 -0.007843 0.016242 0.000000 0.000000 0.000000
# 4 0.000000 0.000000 0.000000 0.032611 0.000000 0.000000
# 5 0.000000 0.000000 0.000000 0.000000 0.029118 0.000000
# 6 0.000000 0.000000 0.000000 0.000000 0.000000 0.155933
#
#
# Mechanical properties :
#
#
# Convention : Reuss Voigt Hill
#
# Bulk Modulus (GPa) = 20.81781 31.39047 26.10414
# Shear Modulus (GPa) = 15.56426 24.77689 20.17058
#
# Velocity S-wave (km/s) = 2.81518 3.55194 3.20480
# Velocity P-wave (km/s) = 4.60079 5.72761 5.19484
#
# Compressibility (1/GPa) = 0.04803580
#
# Stress axis : x y z
#
# Youngs Moduli (GPa) = 77.10644 25.91072 61.56773
#
# Poissons Ratio (x) = -0.09533 0.35222
# Poissons Ratio (y) = -0.28369 0.48288
# Poissons Ratio (z) = 0.44112 0.20322
#
# Static dielectric constant tensor:
#      x y z
#    x 3.793110 0.000000 0.000000 
#    y 0.000000 3.531000 0.000000 
#    z 0.000000 0.000000 3.713840 
# 
# 
# High freq. dielectric constant tensor:
#      x y z
#    x 1.773920 0.000000 0.000000 
#    y 0.000000 1.760720 0.000000 
#    z 0.000000 0.000000 1.783400 
# 
# From -- ./inp_files/9129.got.cif
#   From: 2010.03.12/outbox.cif.g09.slc.cpg/sg66_5_cif.got.tgz:9129.got - 2010.04.10 21:57:39.
