data_PCOD8277114
_publ_section_title
;
Structure prediction by ZEFSAII (Michael W. Deem and Ramdas Pophale) SiO2 
 PCOD8277114
Probable space group: C C C M
;
_chemical_formula_sum "Si O2"
_cell_formula_units_Z 96
_cell_length_a 21.953967
_cell_length_b 21.940551
_cell_length_c 9.572887
_cell_angle_alpha 90.000000
_cell_angle_beta 90.000000
_cell_angle_gamma 90.000000
_cell_volume 4611.088625
_symmetry_space_group_name_H-M "C C C M"
_symmetry_group_IT_number 66
_symmetry_cell_setting 'orthorhombic'
loop_
_space_group_symop_operation_xyz
x,y,z
-x,-y,z
x,-y,1/2-z
-x,y,1/2-z
-x,-y,-z
x,y,-z
-x,y,1/2+z
x,-y,1/2+z
1/2+x,1/2+y,z
1/2-x,1/2-y,z
1/2+x,1/2-y,1/2-z
1/2-x,1/2+y,1/2-z
1/2-x,1/2-y,-z
1/2+x,1/2+y,-z
1/2-x,1/2+y,1/2+z
1/2+x,1/2-y,1/2+z
loop_
_atom_site_type_symbol
_atom_site_label
_atom_site_fract_x
_atom_site_fract_y
_atom_site_fract_z
Si Si1 0.581552 0.560018 0.500000
Si Si2 0.142928 0.446624 0.159395
Si Si3 0.848100 0.266158 0.154830
Si Si4 0.939064 0.082091 0.500000
Si Si5 0.443561 0.873721 0.839778
Si Si6 0.763539 0.662666 0.844432
Si Si7 0.369035 0.364001 0.746220
O O1 0.512056 0.583181 0.500000
O O2 0.585372 0.486985 0.500000
O O3 0.617924 0.584998 0.631656
O O4 0.174952 0.500000 0.250000
O O5 0.083132 0.430315 0.251158
O O6 0.188121 0.390802 0.153118
O O7 0.126078 0.466588 0.000000
O O8 0.896159 0.319537 0.156807
O O9 0.791431 0.280731 0.257108
O O10 0.883614 0.204728 0.198229
O O11 0.820648 0.258150 0.000000
O O12 0.914185 0.119561 0.629794
O O13 0.500000 0.849308 0.750000
O O14 0.460479 0.892614 0.000000
O O15 0.702430 0.634174 0.780956
O O16 0.750601 0.686913 0.000000
#
# Coordination Sequence:
#
# PCOD8277114 Si02
#       7
#     8  16  16   8  16  16  16
#     4  11  26  46  67  92 130 172 219 278 330 379
#     4  10  21  39  60  88 124 164 207 256 310 364
#     4  10  23  41  63  96 132 165 206 262 320 376
#     4  11  26  46  67  92 130 172 219 278 330 379
#     4  10  21  39  60  88 124 164 207 256 310 364
#     4  10  23  41  63  96 132 165 206 262 320 376
#     4  12  23  43  68  98 124 170 216 257 319 394
#
# _framework density 20.819379999999999
#
# number of rings (size 3 to 8) (size 9 to 14) (size 15 to 20)
#    0.000    1.500    1.667    2.500    2.333    7.000 
#    0.000    1.667    0.000    0.000    0.000    0.000 
#    0.000    0.000    0.000    0.000    0.000    0.000 
#
# Total GULP energy -595089.278651 kJ/mol
# GULP energy per Si atom -12397.693305 kJ/mol
# Density = 2.077199 g / cm^3
# Si number density = 20.819380 Si / 1000 Ang^3
#
#
#
# Elastic Constant Matrix: (Units=GPa)
#
#
# Indices 1 2 3 4 5 6 
#
# 1 83.6452 13.1489 41.9193 0.0000 0.0000 0.0000
# 2 13.1489 86.7785 40.0962 0.0000 0.0000 0.0000
# 3 41.9193 40.0962 165.4446 0.0000 0.0000 0.0000
# 4 0.0000 0.0000 0.0000 36.9939 0.0000 0.0000
# 5 0.0000 0.0000 0.0000 0.0000 32.5938 0.0000
# 6 0.0000 0.0000 0.0000 0.0000 0.0000 27.5638
#
#
#
# Elastic Compliance Matrix: (Units=1/GPa)
#
#
# Indices 1 2 3 4 5 6 
#
# 1 0.013716 -0.000532 -0.003346 0.000000 0.000000 0.000000
# 2 -0.000532 0.012997 -0.003015 0.000000 0.000000 0.000000
# 3 -0.003346 -0.003015 0.007623 0.000000 0.000000 0.000000
# 4 0.000000 0.000000 0.000000 0.027031 0.000000 0.000000
# 5 0.000000 0.000000 0.000000 0.000000 0.030681 0.000000
# 6 0.000000 0.000000 0.000000 0.000000 0.000000 0.036279
#
#
# Mechanical properties :
#
#
# Convention : Reuss Voigt Hill
#
# Bulk Modulus (GPa) = 48.66391 58.46634 53.56512
# Shear Modulus (GPa) = 33.56503 35.47724 34.52114
#
# Velocity S-wave (km/s) = 4.01958 4.13249 4.07643
# Velocity P-wave (km/s) = 6.70580 7.13538 6.92392
#
# Compressibility (1/GPa) = 0.02054911
#
# Stress axis : x y z
#
# Youngs Moduli (GPa) = 72.90798 76.93868 131.18341
#
# Poissons Ratio (x) = 0.04094 0.43898
# Poissons Ratio (y) = 0.03879 0.39554
# Poissons Ratio (z) = 0.24397 0.23198
#
# Static dielectric constant tensor:
#      x y z
#    x 3.655820 0.000000 0.000000 
#    y 0.000000 3.766430 0.000000 
#    z 0.000000 0.000000 4.316350 
# 
# 
# High freq. dielectric constant tensor:
#      x y z
#    x 1.810170 0.000000 0.000000 
#    y 0.000000 1.822780 0.000000 
#    z 0.000000 0.000000 1.837430 
# 
# From -- ./inp_files/9156.got.cif
#   From: 2010.03.12/outbox.cif.g09.slc.cpg/sg66_5_cif.got.tgz:9156.got - 2010.04.10 21:57:39.
