data_PCOD8277259
_publ_section_title
;
Structure prediction by ZEFSAII (Michael W. Deem and Ramdas Pophale) SiO2 
 PCOD8277259
Probable space group: C C C M
;
_chemical_formula_sum "Si O2"
_cell_formula_units_Z 72
_cell_length_a 10.817189
_cell_length_b 18.965446
_cell_length_c 19.047542
_cell_angle_alpha 90.000000
_cell_angle_beta 90.000000
_cell_angle_gamma 90.000000
_cell_volume 3907.656838
_symmetry_space_group_name_H-M "C C C M"
_symmetry_group_IT_number 66
_symmetry_cell_setting 'orthorhombic'
loop_
_space_group_symop_operation_xyz
x,y,z
-x,-y,z
x,-y,1/2-z
-x,y,1/2-z
-x,-y,-z
x,y,-z
-x,y,1/2+z
x,-y,1/2+z
1/2+x,1/2+y,z
1/2-x,1/2-y,z
1/2+x,1/2-y,1/2-z
1/2-x,1/2+y,1/2-z
1/2-x,1/2-y,-z
1/2+x,1/2+y,-z
1/2-x,1/2+y,1/2+z
1/2+x,1/2-y,1/2+z
loop_
_atom_site_type_symbol
_atom_site_label
_atom_site_fract_x
_atom_site_fract_y
_atom_site_fract_z
Si Si1 0.146698 0.078961 0.254461
Si Si2 0.612401 0.281932 0.500000
Si Si3 0.353973 0.692544 0.352305
Si Si4 0.500000 0.786191 0.750000
Si Si5 0.202150 0.670281 0.849369
Si Si6 0.637489 0.195017 0.000000
O O1 0.196629 0.123767 0.187850
O O2 0.190016 0.115622 0.327265
O O3 0.000000 0.077444 0.250000
O O4 0.200971 0.000000 0.250000
O O5 0.750000 0.250000 0.500000
O O6 0.596066 0.329225 0.429766
O O7 0.501304 0.225104 0.500000
O O8 0.250000 0.750000 0.363080
O O9 0.459500 0.731935 0.309800
O O10 0.400639 0.836756 0.787780
O O11 0.250000 0.750000 0.847340
O O12 0.152861 0.650040 0.927544
O O13 0.750000 0.250000 0.000000
#
# Coordination Sequence:
#
# PCOD8277259 Si02
#       6
#    16   8  16   8  16   8
#     4  11  22  36  55  80 113 152 191 230 281 344
#     4  10  22  34  55  89 119 147 183 238 294 344
#     4  11  19  34  57  84 110 142 186 233 279 337
#     4  12  16  30  62  82 106 138 188 230 284 318
#     4  11  20  35  57  84 111 145 188 238 283 334
#     4  10  22  32  53  89 119 141 185 246 294 328
#
# _framework density 18.425363999999998
#
# number of rings (size 3 to 8) (size 9 to 14) (size 15 to 20)
#    0.000    1.111    7.778    0.000    3.111    0.000 
#    0.000    1.667    0.000    2.667    0.000    4.667 
#    0.000    0.000    0.000    0.000    0.000    0.000 
#
# Total GULP energy -446003.178572 kJ/mol
# GULP energy per Si atom -12388.977183 kJ/mol
# Density = 1.838343 g / cm^3
# Si number density = 18.425364 Si / 1000 Ang^3
#
#
#
# Elastic Constant Matrix: (Units=GPa)
#
#
# Indices 1 2 3 4 5 6 
#
# 1 83.0381 17.7105 39.6529 0.0000 0.0000 0.0000
# 2 17.7105 96.4119 49.6759 0.0000 0.0000 0.0000
# 3 39.6529 49.6759 185.0251 0.0000 0.0000 0.0000
# 4 0.0000 0.0000 0.0000 11.4239 0.0000 0.0000
# 5 0.0000 0.0000 0.0000 0.0000 0.0306 0.0000
# 6 0.0000 0.0000 0.0000 0.0000 0.0000 16.5897
#
#
#
# Elastic Compliance Matrix: (Units=1/GPa)
#
#
# Indices 1 2 3 4 5 6 
#
# 1 0.013525 -0.001150 -0.002590 0.000000 0.000000 0.000000
# 2 -0.001150 0.012135 -0.003012 0.000000 0.000000 0.000000
# 3 -0.002590 -0.003012 0.006768 0.000000 0.000000 0.000000
# 4 0.000000 0.000000 0.000000 0.087536 0.000000 0.000000
# 5 0.000000 0.000000 0.000000 0.000000 32.712488 0.000000
# 6 0.000000 0.000000 0.000000 0.000000 0.000000 0.060278
#
#
# Mechanical properties :
#
#
# Convention : Reuss Voigt Hill
#
# Bulk Modulus (GPa) = 52.83948 64.28373 58.56160
# Shear Modulus (GPa) = 0.15192 22.77121 11.46156
#
# Velocity S-wave (km/s) = 0.28745 3.51930 2.49681
# Velocity P-wave (km/s) = 5.37122 7.17484 6.33752
#
# Compressibility (1/GPa) = 0.01892524
#
# Stress axis : x y z
#
# Youngs Moduli (GPa) = 73.93932 82.40524 147.74903
#
# Poissons Ratio (x) = 0.09477 0.38262
# Poissons Ratio (y) = 0.08504 0.44496
# Poissons Ratio (z) = 0.19148 0.24817
#
# Static dielectric constant tensor:
#      x y z
#    x 3.464340 0.000000 0.000000 
#    y 0.000000 3.185630 0.000000 
#    z 0.000000 0.000000 4.628130 
# 
# 
# High freq. dielectric constant tensor:
#      x y z
#    x 1.723810 0.000000 0.000000 
#    y 0.000000 1.649520 0.000000 
#    z 0.000000 0.000000 1.738700 
# 
# From -- ./inp_files/41340.got.cif
#   From: 2010.03.12/outbox.cif.g09.slc.cpg/sg66_21_cif.got.tgz:41340.got - 2010.04.10 21:57:39.
