data_PCOD8277513
_publ_section_title
;
Structure prediction by ZEFSAII (Michael W. Deem and Ramdas Pophale) SiO2 
 PCOD8277513
Probable space group: C C C M
;
_chemical_formula_sum "Si O2"
_cell_formula_units_Z 88
_cell_length_a 27.078984
_cell_length_b 6.274514
_cell_length_c 24.111065
_cell_angle_alpha 90.000000
_cell_angle_beta 90.000000
_cell_angle_gamma 90.000000
_cell_volume 4096.649914
_symmetry_space_group_name_H-M "C C C M"
_symmetry_group_IT_number 66
_symmetry_cell_setting 'orthorhombic'
loop_
_space_group_symop_operation_xyz
x,y,z
-x,-y,z
x,-y,1/2-z
-x,y,1/2-z
-x,-y,-z
x,y,-z
-x,y,1/2+z
x,-y,1/2+z
1/2+x,1/2+y,z
1/2-x,1/2-y,z
1/2+x,1/2-y,1/2-z
1/2-x,1/2+y,1/2-z
1/2-x,1/2-y,-z
1/2+x,1/2+y,-z
1/2-x,1/2+y,1/2+z
1/2+x,1/2-y,1/2+z
loop_
_atom_site_type_symbol
_atom_site_label
_atom_site_fract_x
_atom_site_fract_y
_atom_site_fract_z
Si Si1 0.903952 0.791929 0.117796
Si Si2 0.750000 0.250000 0.650480
Si Si3 0.619505 0.119044 0.500000
Si Si4 0.159865 0.506220 0.687234
Si Si5 0.679718 0.602537 0.382735
Si Si6 0.536985 0.802238 0.500000
Si Si7 0.307566 0.212795 0.500000
Si Si8 0.000000 0.000000 0.092253
O O1 0.887953 0.578508 0.150889
O O2 0.960644 0.864895 0.129178
O O3 0.868174 0.977332 0.138249
O O4 0.895683 0.758608 0.052394
O O5 0.795726 0.323142 0.687918
O O6 0.728931 0.451407 0.614855
O O7 0.591969 0.891569 0.500000
O O8 0.677013 0.041178 0.500000
O O9 0.140713 0.500000 0.750000
O O10 0.183721 0.291904 0.662039
O O11 0.670184 0.683872 0.444678
O O12 0.530593 0.664189 0.444941
O O13 0.500000 0.000000 0.500000
O O14 0.250000 0.250000 0.500000
#
# Coordination Sequence:
#
# PCOD8277513 Si02
#       8
#    16   8   8  16  16   8   8   8
#     4  11  24  40  65  97 132 173 216 280 333 404
#     4  10  24  39  70  96 128 171 228 280 324 388
#     4  12  21  41  61  99 134 175 218 268 339 391
#     4  11  25  44  67  95 129 173 229 280 335 383
#     4  11  24  43  62  98 137 174 219 271 332 398
#     4  11  20  36  63  99 134 164 218 274 321 396
#     4  12  23  35  65  89 139 184 208 253 325 417
#     4  11  22  38  64 103 126 170 223 265 340 402
#
# _framework density 21.480965000000001
#
# number of rings (size 3 to 8) (size 9 to 14) (size 15 to 20)
#    0.000    0.909    3.636    3.818    5.091    2.545 
#    0.000    0.000    0.000    3.273    0.000    0.000 
#    0.000    0.000    0.000    0.000    0.000    0.000 
#
# Total GULP energy -545447.859075 kJ/mol
# GULP energy per Si atom -12396.542252 kJ/mol
# Density = 2.143207 g / cm^3
# Si number density = 21.480965 Si / 1000 Ang^3
#
#
#
# Elastic Constant Matrix: (Units=GPa)
#
#
# Indices 1 2 3 4 5 6 
#
# 1 123.6348 39.0063 19.1413 0.0000 0.0000 0.0000
# 2 39.0063 103.2215 36.0445 0.0000 0.0000 0.0000
# 3 19.1413 36.0445 118.4755 0.0000 0.0000 0.0000
# 4 0.0000 0.0000 0.0000 11.1644 0.0000 0.0000
# 5 0.0000 0.0000 0.0000 0.0000 14.7473 0.0000
# 6 0.0000 0.0000 0.0000 0.0000 0.0000 53.4782
#
#
#
# Elastic Compliance Matrix: (Units=1/GPa)
#
#
# Indices 1 2 3 4 5 6 
#
# 1 0.009208 -0.003312 -0.000480 0.000000 0.000000 0.000000
# 2 -0.003312 0.012031 -0.003125 0.000000 0.000000 0.000000
# 3 -0.000480 -0.003125 0.009469 0.000000 0.000000 0.000000
# 4 0.000000 0.000000 0.000000 0.089570 0.000000 0.000000
# 5 0.000000 0.000000 0.000000 0.000000 0.067809 0.000000
# 6 0.000000 0.000000 0.000000 0.000000 0.000000 0.018699
#
#
# Mechanical properties :
#
#
# Convention : Reuss Voigt Hill
#
# Bulk Modulus (GPa) = 59.26551 59.30179 59.28365
# Shear Modulus (GPa) = 22.10005 32.62063 27.36034
#
# Velocity S-wave (km/s) = 3.21100 3.90113 3.57277
# Velocity P-wave (km/s) = 6.43405 6.92520 6.68414
#
# Compressibility (1/GPa) = 0.01687322
#
# Stress axis : x y z
#
# Youngs Moduli (GPa) = 108.60695 83.12096 105.60901
#
# Poissons Ratio (x) = 0.27528 0.05070
# Poissons Ratio (y) = 0.35968 0.33004
# Poissons Ratio (z) = 0.05214 0.25976
#
# Static dielectric constant tensor:
#      x y z
#    x 4.036370 0.000000 0.000000 
#    y 0.000000 4.207570 0.000000 
#    z 0.000000 0.000000 3.576300 
# 
# 
# High freq. dielectric constant tensor:
#      x y z
#    x 1.843810 0.000000 0.000000 
#    y 0.000000 1.859820 0.000000 
#    z 0.000000 0.000000 1.803420 
# 
# From -- ./inp_files/60461.got.cif
#   From: 2010.03.12/outbox.cif.g09.slc.cpg/sg66_31_cif.got.tgz:60461.got - 2010.04.10 21:57:39.
