data_PCOD8277168
_publ_section_title
;
Structure prediction by ZEFSAII (Michael W. Deem and Ramdas Pophale) SiO2 
 PCOD8277168
Probable space group: C C C M
;
_chemical_formula_sum "Si O2"
_cell_formula_units_Z 88
_cell_length_a 13.116254
_cell_length_b 23.402969
_cell_length_c 13.544105
_cell_angle_alpha 90.000000
_cell_angle_beta 90.000000
_cell_angle_gamma 90.000000
_cell_volume 4157.488797
_symmetry_space_group_name_H-M "C C C M"
_symmetry_group_IT_number 66
_symmetry_cell_setting 'orthorhombic'
loop_
_space_group_symop_operation_xyz
x,y,z
-x,-y,z
x,-y,1/2-z
-x,y,1/2-z
-x,-y,-z
x,y,-z
-x,y,1/2+z
x,-y,1/2+z
1/2+x,1/2+y,z
1/2-x,1/2-y,z
1/2+x,1/2-y,1/2-z
1/2-x,1/2+y,1/2-z
1/2-x,1/2-y,-z
1/2+x,1/2+y,-z
1/2-x,1/2+y,1/2+z
1/2+x,1/2-y,1/2+z
loop_
_atom_site_type_symbol
_atom_site_label
_atom_site_fract_x
_atom_site_fract_y
_atom_site_fract_z
Si Si1 0.250000 0.250000 0.241382
Si Si2 0.918043 0.209674 0.885257
Si Si3 0.163140 0.985224 0.614545
Si Si4 0.842530 0.500000 0.750000
Si Si5 0.000000 0.405396 0.250000
Si Si6 0.918373 0.691509 0.115672
Si Si7 0.477726 0.414899 0.614716
O O1 0.178439 0.214377 0.314398
O O2 0.186208 0.292956 0.171924
O O3 0.970431 0.150551 0.853925
O O4 0.998828 0.259320 0.864977
O O5 0.882909 0.208974 0.000000
O O6 0.178064 0.973766 0.500000
O O7 0.273387 0.976568 0.661393
O O8 0.080230 0.941454 0.663390
O O9 0.124045 0.049244 0.639861
O O10 0.909357 0.553545 0.712317
O O11 0.035136 0.367004 0.157630
O O12 0.894391 0.684153 0.000000
O O13 0.496916 0.422196 0.500000
#
# Coordination Sequence:
#
# PCOD8277168 Si02
#       7
#     8  16  16   8   8  16  16
#     4  12  22  40  64 104 132 168 224 262 312 392
#     4  10  21  39  66 100 138 176 212 264 327 385
#     4   9  19  39  63  94 131 168 211 260 316 386
#     4  11  26  41  68  92 120 167 222 263 326 374
#     4  11  26  50  60  92 130 163 222 276 308 383
#     4  11  25  46  68  93 132 174 212 268 329 385
#     4   8  17  35  61  97 137 167 203 258 321 385
#
# _framework density 21.166623999999999
#
# number of rings (size 3 to 8) (size 9 to 14) (size 15 to 20)
#    0.000    2.000    1.818    1.636    2.545    4.364 
#    3.273    3.636    0.000    0.000    0.000    0.000 
#    0.000    0.000    0.000    0.000    0.000    0.000 
#
# Total GULP energy -545505.313941 kJ/mol
# GULP energy per Si atom -12397.848044 kJ/mol
# Density = 2.111845 g / cm^3
# Si number density = 21.166624 Si / 1000 Ang^3
#
#
#
# Elastic Constant Matrix: (Units=GPa)
#
#
# Indices 1 2 3 4 5 6 
#
# 1 147.5639 67.2753 63.5468 0.0000 0.0000 0.0000
# 2 67.2753 146.6762 38.8945 0.0000 0.0000 0.0000
# 3 63.5468 38.8945 116.2507 0.0000 0.0000 0.0000
# 4 0.0000 0.0000 0.0000 20.4341 0.0000 0.0000
# 5 0.0000 0.0000 0.0000 0.0000 39.6586 0.0000
# 6 0.0000 0.0000 0.0000 0.0000 0.0000 26.3662
#
#
#
# Elastic Compliance Matrix: (Units=1/GPa)
#
#
# Indices 1 2 3 4 5 6 
#
# 1 0.010311 -0.003550 -0.004449 0.000000 0.000000 0.000000
# 2 -0.003550 0.008703 -0.000972 0.000000 0.000000 0.000000
# 3 -0.004449 -0.000972 0.011359 0.000000 0.000000 0.000000
# 4 0.000000 0.000000 0.000000 0.048938 0.000000 0.000000
# 5 0.000000 0.000000 0.000000 0.000000 0.025215 0.000000
# 6 0.000000 0.000000 0.000000 0.000000 0.000000 0.037927
#
#
# Mechanical properties :
#
#
# Convention : Reuss Voigt Hill
#
# Bulk Modulus (GPa) = 80.42772 83.32489 81.87630
# Shear Modulus (GPa) = 30.38818 33.34339 31.86578
#
# Velocity S-wave (km/s) = 3.79313 3.97329 3.88425
# Velocity P-wave (km/s) = 7.56728 7.77824 7.67348
#
# Compressibility (1/GPa) = 0.01243352
#
# Stress axis : x y z
#
# Youngs Moduli (GPa) = 96.98633 114.89711 88.03615
#
# Poissons Ratio (x) = 0.40783 0.39164
# Poissons Ratio (y) = 0.34426 0.08554
# Poissons Ratio (z) = 0.43146 0.11164
#
# Static dielectric constant tensor:
#      x y z
#    x 3.632210 0.000000 0.000000 
#    y 0.000000 4.627070 0.000000 
#    z 0.000000 0.000000 3.906780 
# 
# 
# High freq. dielectric constant tensor:
#      x y z
#    x 1.826270 0.000000 0.000000 
#    y 0.000000 1.828990 0.000000 
#    z 0.000000 0.000000 1.843920 
# 
# From -- ./inp_files/26594.got.cif
#   From: 2010.03.12/outbox.cif.g09.slc.cpg/sg66_14_cif.got.tgz:26594.got - 2010.04.10 21:57:39.
