data_PCOD8277076
_publ_section_title
;
Structure prediction by ZEFSAII (Michael W. Deem and Ramdas Pophale) SiO2 
 PCOD8277076
Probable space group: C C C M
;
_chemical_formula_sum "Si O2"
_cell_formula_units_Z 80
_cell_length_a 16.724397
_cell_length_b 26.561051
_cell_length_c 9.385202
_cell_angle_alpha 90.000000
_cell_angle_beta 90.000000
_cell_angle_gamma 90.000000
_cell_volume 4169.071548
_symmetry_space_group_name_H-M "C C C M"
_symmetry_group_IT_number 66
_symmetry_cell_setting 'orthorhombic'
loop_
_space_group_symop_operation_xyz
x,y,z
-x,-y,z
x,-y,1/2-z
-x,y,1/2-z
-x,-y,-z
x,y,-z
-x,y,1/2+z
x,-y,1/2+z
1/2+x,1/2+y,z
1/2-x,1/2-y,z
1/2+x,1/2-y,1/2-z
1/2-x,1/2+y,1/2-z
1/2-x,1/2-y,-z
1/2+x,1/2+y,-z
1/2-x,1/2+y,1/2+z
1/2+x,1/2-y,1/2+z
loop_
_atom_site_type_symbol
_atom_site_label
_atom_site_fract_x
_atom_site_fract_y
_atom_site_fract_z
Si Si1 0.432227 0.568885 0.000000
Si Si2 0.887682 0.952238 0.000000
Si Si3 0.423799 0.138735 0.167349
Si Si4 0.154988 0.550940 0.162436
Si Si5 0.318155 0.597655 0.768969
Si Si6 0.261265 0.194577 0.835639
O O1 0.403583 0.511315 0.000000
O O2 0.527207 0.575897 0.000000
O O3 0.398259 0.596683 0.138169
O O4 0.833515 0.936347 0.131558
O O5 0.500000 0.161954 0.250000
O O6 0.402677 0.087176 0.247930
O O7 0.352723 0.178486 0.185683
O O8 0.441185 0.128523 0.000000
O O9 0.155960 0.500000 0.250000
O O10 0.243773 0.573355 0.149311
O O11 0.123342 0.543395 0.000000
O O12 0.299635 0.655803 0.737094
O O13 0.250000 0.250000 0.767470
O O14 0.237036 0.195652 0.000000
#
# Coordination Sequence:
#
# PCOD8277076 Si02
#       6
#     8   8  16  16  16  16
#     4  11  22  36  53  84 123 157 198 247 298 340
#     4  11  22  36  55  80 119 169 200 235 292 362
#     4  10  21  38  61  87 119 151 189 235 290 346
#     4  11  22  35  57  85 117 154 197 238 284 344
#     4  11  21  36  58  84 114 155 199 245 289 351
#     4   9  19  39  66  86 109 152 199 241 293 352
#
# _framework density 19.188925000000001
#
# number of rings (size 3 to 8) (size 9 to 14) (size 15 to 20)
#    0.000    1.600    2.000    3.600    2.800    2.000 
#    0.000    4.500    0.000    0.000    0.000    0.000 
#    0.000    0.000    0.000    0.000    0.000    0.000 
#
# Total GULP energy -496018.211040 kJ/mol
# GULP energy per Si atom -12400.455276 kJ/mol
# Density = 1.914525 g / cm^3
# Si number density = 19.188925 Si / 1000 Ang^3
#
#
#
# Elastic Constant Matrix: (Units=GPa)
#
#
# Indices 1 2 3 4 5 6 
#
# 1 81.3916 32.3524 33.0623 0.0000 0.0000 0.0000
# 2 32.3524 130.5598 41.8611 0.0000 0.0000 0.0000
# 3 33.0623 41.8611 125.4843 0.0000 0.0000 0.0000
# 4 0.0000 0.0000 0.0000 31.7073 0.0000 0.0000
# 5 0.0000 0.0000 0.0000 0.0000 31.3834 0.0000
# 6 0.0000 0.0000 0.0000 0.0000 0.0000 18.8429
#
#
#
# Elastic Compliance Matrix: (Units=1/GPa)
#
#
# Indices 1 2 3 4 5 6 
#
# 1 0.014539 -0.002659 -0.002944 0.000000 0.000000 0.000000
# 2 -0.002659 0.009063 -0.002323 0.000000 0.000000 0.000000
# 3 -0.002944 -0.002323 0.009520 0.000000 0.000000 0.000000
# 4 0.000000 0.000000 0.000000 0.031538 0.000000 0.000000
# 5 0.000000 0.000000 0.000000 0.000000 0.031864 0.000000
# 6 0.000000 0.000000 0.000000 0.000000 0.000000 0.053070
#
#
# Mechanical properties :
#
#
# Convention : Reuss Voigt Hill
#
# Bulk Modulus (GPa) = 57.90150 61.33193 59.61671
# Shear Modulus (GPa) = 29.20527 31.73072 30.46799
#
# Velocity S-wave (km/s) = 3.90550 4.07085 3.98903
# Velocity P-wave (km/s) = 7.11176 7.35713 7.23548
#
# Compressibility (1/GPa) = 0.01727071
#
# Stress axis : x y z
#
# Youngs Moduli (GPa) = 68.78091 110.33934 105.04648
#
# Poissons Ratio (x) = 0.29338 0.30922
# Poissons Ratio (y) = 0.18288 0.24400
# Poissons Ratio (z) = 0.20247 0.25630
#
# Static dielectric constant tensor:
#      x y z
#    x 3.582560 0.000000 0.000000 
#    y 0.000000 3.468230 0.000000 
#    z 0.000000 0.000000 3.508260 
# 
# 
# High freq. dielectric constant tensor:
#      x y z
#    x 1.748780 0.000000 0.000000 
#    y 0.000000 1.729330 0.000000 
#    z 0.000000 0.000000 1.755650 
# 
# From -- ./inp_files/6744.got.cif
#   From: 2010.03.12/outbox.cif.g09.slc.cpg/sg66_4_cif.got.tgz:6744.got - 2010.04.10 21:57:39.
