data_PCOD8277618
_publ_section_title
;
Structure prediction by ZEFSAII (Michael W. Deem and Ramdas Pophale) SiO2 
 PCOD8277618
Probable space group: C C C M
;
_chemical_formula_sum "Si O2"
_cell_formula_units_Z 48
_cell_length_a 19.020679
_cell_length_b 8.649704
_cell_length_c 15.186647
_cell_angle_alpha 90.000000
_cell_angle_beta 90.000000
_cell_angle_gamma 90.000000
_cell_volume 2498.556418
_symmetry_space_group_name_H-M "C C C M"
_symmetry_group_IT_number 66
_symmetry_cell_setting 'orthorhombic'
loop_
_space_group_symop_operation_xyz
x,y,z
-x,-y,z
x,-y,1/2-z
-x,y,1/2-z
-x,-y,-z
x,y,-z
-x,y,1/2+z
x,-y,1/2+z
1/2+x,1/2+y,z
1/2-x,1/2-y,z
1/2+x,1/2-y,1/2-z
1/2-x,1/2+y,1/2-z
1/2-x,1/2-y,-z
1/2+x,1/2+y,-z
1/2-x,1/2+y,1/2+z
1/2+x,1/2-y,1/2+z
loop_
_atom_site_type_symbol
_atom_site_label
_atom_site_fract_x
_atom_site_fract_y
_atom_site_fract_z
Si Si1 0.332560 0.931758 0.000000
Si Si2 0.669990 0.431798 0.000000
Si Si3 0.061425 0.894890 0.598099
Si Si4 0.923879 0.438754 0.654515
O O1 0.365813 0.005321 0.913504
O O2 0.343413 0.749721 0.000000
O O3 0.251052 0.977278 0.000000
O O4 0.633096 0.504487 0.087401
O O5 0.036264 0.838819 0.500000
O O6 0.074970 0.747405 0.659289
O O7 0.000000 0.000000 0.640912
O O8 0.902309 0.500000 0.750000
O O9 0.000000 0.500000 0.625131
#
# Coordination Sequence:
#
# PCOD8277618 Si02
#       4
#     8   8  16  16
#     4  11  20  39  60  81 123 155 196 241 288 355
#     4   9  20  35  60  89 111 159 196 237 296 343
#     4   9  18  36  63  90 111 151 196 242 293 341
#     4  11  23  37  58  88 117 155 198 241 291 348
#
# _framework density 19.211093000000002
#
# number of rings (size 3 to 8) (size 9 to 14) (size 15 to 20)
#    1.000    1.000    1.667    2.500    0.000    2.667 
#    0.000   18.333    0.000    0.000    0.000    0.000 
#    0.000    0.000    0.000    0.000    0.000    0.000 
#
# Total GULP energy -297550.236552 kJ/mol
# GULP energy per Si atom -12397.926523 kJ/mol
# Density = 1.916737 g / cm^3
# Si number density = 19.211093 Si / 1000 Ang^3
#
#
#
# Elastic Constant Matrix: (Units=GPa)
#
#
# Indices 1 2 3 4 5 6 
#
# 1 161.8344 85.1167 52.4115 0.0000 0.0000 0.0000
# 2 85.1167 165.6314 62.7864 0.0000 0.0000 0.0000
# 3 52.4115 62.7864 94.4130 0.0000 0.0000 0.0000
# 4 0.0000 0.0000 0.0000 31.9935 0.0000 0.0000
# 5 0.0000 0.0000 0.0000 0.0000 -43.0524 0.0000
# 6 0.0000 0.0000 0.0000 0.0000 0.0000 33.9543
#
#
#
# Elastic Compliance Matrix: (Units=1/GPa)
#
#
# Indices 1 2 3 4 5 6 
#
# 1 0.008901 -0.003612 -0.002540 0.000000 0.000000 0.000000
# 2 -0.003612 0.009538 -0.004338 0.000000 0.000000 0.000000
# 3 -0.002540 -0.004338 0.014886 0.000000 0.000000 0.000000
# 4 0.000000 0.000000 0.000000 0.031256 0.000000 0.000000
# 5 0.000000 0.000000 0.000000 0.000000 -0.023227 0.000000
# 6 0.000000 0.000000 0.000000 0.000000 0.000000 0.029451
#
#
# Mechanical properties :
#
#
# Convention : Reuss Voigt Hill
#
# Bulk Modulus (GPa) = 80.98982 91.38977 86.18980
# Shear Modulus (GPa) = 52.13800 19.35002 35.74401
#
# Velocity S-wave (km/s) = 5.21521 3.17713 4.31814
# Velocity P-wave (km/s) = 8.86081 7.81879 8.35606
#
# Compressibility (1/GPa) = 0.01234723
#
# Stress axis : x y z
#
# Youngs Moduli (GPa) = 112.34579 104.84535 67.17556
#
# Poissons Ratio (x) = 0.37865 0.17059
# Poissons Ratio (y) = 0.40574 0.29141
# Poissons Ratio (z) = 0.28530 0.45482
#
# Static dielectric constant tensor:
#      x y z
#    x 3.482860 0.000000 0.000000 
#    y 0.000000 3.576830 0.000000 
#    z 0.000000 0.000000 3.179150 
# 
# 
# High freq. dielectric constant tensor:
#      x y z
#    x 1.743430 0.000000 0.000000 
#    y 0.000000 1.764100 0.000000 
#    z 0.000000 0.000000 1.715650 
# 
# From -- ./inp_files/30607.got.cif
#   From: 2010.03.12/outbox.cif.g09.slc.cpg/sg66_16_cif.got.tgz:30607.got - 2010.04.10 21:57:39.
