data_PCOD8277546
_publ_section_title
;
Structure prediction by ZEFSAII (Michael W. Deem and Ramdas Pophale) SiO2 
 PCOD8277546
Probable space group: C C C M
;
_chemical_formula_sum "Si O2"
_cell_formula_units_Z 60
_cell_length_a 11.327110
_cell_length_b 24.289584
_cell_length_c 8.941345
_cell_angle_alpha 90.000000
_cell_angle_beta 90.000000
_cell_angle_gamma 90.000000
_cell_volume 2460.039312
_symmetry_space_group_name_H-M "C C C M"
_symmetry_group_IT_number 66
_symmetry_cell_setting 'orthorhombic'
loop_
_space_group_symop_operation_xyz
x,y,z
-x,-y,z
x,-y,1/2-z
-x,y,1/2-z
-x,-y,-z
x,y,-z
-x,y,1/2+z
x,-y,1/2+z
1/2+x,1/2+y,z
1/2-x,1/2-y,z
1/2+x,1/2-y,1/2-z
1/2-x,1/2+y,1/2-z
1/2-x,1/2-y,-z
1/2+x,1/2+y,-z
1/2-x,1/2+y,1/2+z
1/2+x,1/2-y,1/2+z
loop_
_atom_site_type_symbol
_atom_site_label
_atom_site_fract_x
_atom_site_fract_y
_atom_site_fract_z
Si Si1 0.000000 0.661066 0.250000
Si Si2 0.000000 0.000000 0.250000
Si Si3 0.345519 0.108977 0.500000
Si Si4 0.151387 0.890686 0.500000
Si Si5 0.500000 0.336572 0.750000
Si Si6 0.839869 0.300813 0.500000
Si Si7 0.841371 0.799288 0.500000
Si Si8 0.664158 0.519876 0.500000
O O1 0.920907 0.620921 0.352070
O O2 0.920868 0.701479 0.147853
O O3 0.085369 0.037434 0.355576
O O4 0.225869 0.143428 0.500000
O O5 0.294513 0.046766 0.500000
O O6 0.274541 0.858859 0.500000
O O7 0.079994 0.875709 0.648392
O O8 0.183115 0.954535 0.500000
O O9 0.421453 0.295919 0.647819
O O10 0.750000 0.250000 0.500000
O O11 0.750000 0.750000 0.500000
#
# Coordination Sequence:
#
# PCOD8277546 Si02
#       8
#     8   4   8   8   8   8   8   8
#     4  10  26  51  72 106 144 187 245 301 348 440
#     4  10  26  42  74 108 156 184 240 296 364 410
#     4  11  26  47  75 101 146 191 242 292 367 420
#     4  11  24  43  71 106 142 186 236 292 357 423
#     4  10  25  43  71 110 146 180 241 296 360 432
#     4  11  26  48  76 103 141 189 235 296 363 422
#     4  11  26  45  70 107 142 190 235 297 363 429
#     4  11  26  43  73 110 146 196 231 307 353 432
#
# _framework density 24.389856000000002
#
# number of rings (size 3 to 8) (size 9 to 14) (size 15 to 20)
#    0.000    1.333    0.000    2.400   14.933   10.667 
#    0.000    8.000    0.000    0.000    0.000    0.000 
#    0.000    0.000    0.000    0.000    0.000    0.000 
#
# Total GULP energy -372097.570583 kJ/mol
# GULP energy per Si atom -12403.252353 kJ/mol
# Density = 2.433434 g / cm^3
# Si number density = 24.389856 Si / 1000 Ang^3
#
#
#
# Elastic Constant Matrix: (Units=GPa)
#
#
# Indices 1 2 3 4 5 6 
#
# 1 174.5180 81.0305 103.4380 0.0000 0.0000 0.0000
# 2 81.0305 141.0005 65.9250 0.0000 0.0000 0.0000
# 3 103.4380 65.9250 221.3690 0.0000 0.0000 0.0000
# 4 0.0000 0.0000 0.0000 384.2967 0.0000 0.0000
# 5 0.0000 0.0000 0.0000 0.0000 1899.7468 0.0000
# 6 0.0000 0.0000 0.0000 0.0000 0.0000 63.3782
#
#
#
# Elastic Compliance Matrix: (Units=1/GPa)
#
#
# Indices 1 2 3 4 5 6 
#
# 1 0.009488 -0.003926 -0.003264 0.000000 0.000000 0.000000
# 2 -0.003926 0.009864 -0.001103 0.000000 0.000000 0.000000
# 3 -0.003264 -0.001103 0.006371 0.000000 0.000000 0.000000
# 4 0.000000 0.000000 0.000000 0.002602 0.000000 0.000000
# 5 0.000000 0.000000 0.000000 0.000000 0.000526 0.000000
# 6 0.000000 0.000000 0.000000 0.000000 0.000000 0.015778
#
#
# Mechanical properties :
#
#
# Convention : Reuss Voigt Hill
#
# Bulk Modulus (GPa) = 109.45340 115.29716 112.37528
# Shear Modulus (GPa) = 77.80668 488.58395 283.19532
#
# Velocity S-wave (km/s) = 5.65425 14.16889 10.78721
# Velocity P-wave (km/s) = 9.35956 17.74970 14.18896
#
# Compressibility (1/GPa) = 0.00913631
#
# Stress axis : x y z
#
# Youngs Moduli (GPa) = 105.39979 101.37587 156.96204
#
# Poissons Ratio (x) = 0.39804 0.51232
# Poissons Ratio (y) = 0.41383 0.17313
# Poissons Ratio (z) = 0.34402 0.11182
#
# Static dielectric constant tensor:
#      x y z
#    x 4.688290 0.000000 0.000000 
#    y 0.000000 4.241520 0.000000 
#    z 0.000000 0.000000 4.881960 
# 
# 
# High freq. dielectric constant tensor:
#      x y z
#    x 1.975800 0.000000 0.000000 
#    y 0.000000 1.957630 0.000000 
#    z 0.000000 0.000000 1.997470 
# 
# From -- ./inp_files/3825.got.cif
#   From: 2010.03.12/outbox.cif.g09.slc.cpg/sg66_2_cif.got.tgz:3825.got - 2010.04.10 21:57:39.
