data_PCOD8277447
_publ_section_title
;
Structure prediction by ZEFSAII (Michael W. Deem and Ramdas Pophale) SiO2 
 PCOD8277447
Probable space group: C C C M
;
_chemical_formula_sum "Si O2"
_cell_formula_units_Z 56
_cell_length_a 12.181918
_cell_length_b 26.409860
_cell_length_c 8.911562
_cell_angle_alpha 90.000000
_cell_angle_beta 90.000000
_cell_angle_gamma 90.000000
_cell_volume 2867.052224
_symmetry_space_group_name_H-M "C C C M"
_symmetry_group_IT_number 66
_symmetry_cell_setting 'orthorhombic'
loop_
_space_group_symop_operation_xyz
x,y,z
-x,-y,z
x,-y,1/2-z
-x,y,1/2-z
-x,-y,-z
x,y,-z
-x,y,1/2+z
x,-y,1/2+z
1/2+x,1/2+y,z
1/2-x,1/2-y,z
1/2+x,1/2-y,1/2-z
1/2-x,1/2+y,1/2-z
1/2-x,1/2-y,-z
1/2+x,1/2+y,-z
1/2-x,1/2+y,1/2+z
1/2+x,1/2-y,1/2+z
loop_
_atom_site_type_symbol
_atom_site_label
_atom_site_fract_x
_atom_site_fract_y
_atom_site_fract_z
Si Si1 0.397043 0.191555 0.334491
Si Si2 0.618912 0.551284 0.679100
Si Si3 0.500000 0.288576 0.250000
Si Si4 0.801820 0.147372 0.668027
O O1 0.500000 0.164424 0.250000
O O2 0.380924 0.168126 0.500000
O O3 0.424673 0.251688 0.353272
O O4 0.288625 0.184962 0.235561
O O5 0.669461 0.500000 0.750000
O O6 0.500000 0.560590 0.750000
O O7 0.610529 0.546955 0.500000
O O8 0.695385 0.598051 0.725914
O O9 0.581169 0.324447 0.343581
O O10 0.768432 0.131275 0.500000
#
# Coordination Sequence:
#
# PCOD8277447 Si02
#       4
#    16  16   8  16
#     4  10  23  40  57  82 118 159 203 246 292 345
#     4  11  22  38  60  87 119 152 191 241 296 353
#     4  10  24  36  61  82 123 156 206 240 296 342
#     4  12  23  38  61  88 120 157 198 244 297 352
#
# _framework density 19.532257000000001
#
# number of rings (size 3 to 8) (size 9 to 14) (size 15 to 20)
#    0.857    0.286    1.429    6.857    0.000    5.714 
#    0.000    0.000    0.000    0.857    0.000    6.000 
#    0.000    0.000    0.000    0.000    0.000    0.000 
#
# Total GULP energy -347023.280731 kJ/mol
# GULP energy per Si atom -12393.688598 kJ/mol
# Density = 1.948780 g / cm^3
# Si number density = 19.532257 Si / 1000 Ang^3
#
#
#
# Elastic Constant Matrix: (Units=GPa)
#
#
# Indices 1 2 3 4 5 6 
#
# 1 89.8483 42.2198 41.7767 0.0000 0.0000 0.0000
# 2 42.2198 105.8742 40.0107 0.0000 0.0000 0.0000
# 3 41.7767 40.0107 184.7992 0.0000 0.0000 0.0000
# 4 0.0000 0.0000 0.0000 12.5859 0.0000 0.0000
# 5 0.0000 0.0000 0.0000 0.0000 26.7522 0.0000
# 6 0.0000 0.0000 0.0000 0.0000 0.0000 13.7945
#
#
#
# Elastic Compliance Matrix: (Units=1/GPa)
#
#
# Indices 1 2 3 4 5 6 
#
# 1 0.014475 -0.004940 -0.002203 0.000000 0.000000 0.000000
# 2 -0.004940 0.011973 -0.001475 0.000000 0.000000 0.000000
# 3 -0.002203 -0.001475 0.006229 0.000000 0.000000 0.000000
# 4 0.000000 0.000000 0.000000 0.079454 0.000000 0.000000
# 5 0.000000 0.000000 0.000000 0.000000 0.037380 0.000000
# 6 0.000000 0.000000 0.000000 0.000000 0.000000 0.072493
#
#
# Mechanical properties :
#
#
# Convention : Reuss Voigt Hill
#
# Bulk Modulus (GPa) = 64.76541 69.83734 67.30137
# Shear Modulus (GPa) = 20.45934 27.72748 24.09341
#
# Velocity S-wave (km/s) = 3.23997 3.77181 3.51596
# Velocity P-wave (km/s) = 6.87217 7.40279 7.14241
#
# Compressibility (1/GPa) = 0.01544034
#
# Stress axis : x y z
#
# Youngs Moduli (GPa) = 69.08271 83.52356 160.54686
#
# Poissons Ratio (x) = 0.41260 0.35366
# Poissons Ratio (y) = 0.34126 0.23688
# Poissons Ratio (z) = 0.15218 0.12323
#
# Static dielectric constant tensor:
#      x y z
#    x 3.346260 0.000000 0.000000 
#    y 0.000000 3.555630 0.000000 
#    z 0.000000 0.000000 3.488150 
# 
# 
# High freq. dielectric constant tensor:
#      x y z
#    x 1.739810 0.000000 0.000000 
#    y 0.000000 1.743080 0.000000 
#    z 0.000000 0.000000 1.772930 
# 
# From -- ./inp_files/3903.got.cif
#   From: 2010.03.12/outbox.cif.g09.slc.cpg/sg66_2_cif.got.tgz:3903.got - 2010.04.10 21:57:39.
