data_PCOD8277290
_publ_section_title
;
Structure prediction by ZEFSAII (Michael W. Deem and Ramdas Pophale) SiO2 
 PCOD8277290
Probable space group: C C C M
;
_chemical_formula_sum "Si O2"
_cell_formula_units_Z 88
_cell_length_a 21.976197
_cell_length_b 14.328370
_cell_length_c 14.479561
_cell_angle_alpha 90.000000
_cell_angle_beta 90.000000
_cell_angle_gamma 90.000000
_cell_volume 4559.368791
_symmetry_space_group_name_H-M "C C C M"
_symmetry_group_IT_number 66
_symmetry_cell_setting 'orthorhombic'
loop_
_space_group_symop_operation_xyz
x,y,z
-x,-y,z
x,-y,1/2-z
-x,y,1/2-z
-x,-y,-z
x,y,-z
-x,y,1/2+z
x,-y,1/2+z
1/2+x,1/2+y,z
1/2-x,1/2-y,z
1/2+x,1/2-y,1/2-z
1/2-x,1/2+y,1/2-z
1/2-x,1/2-y,-z
1/2+x,1/2+y,-z
1/2-x,1/2+y,1/2+z
1/2+x,1/2-y,1/2+z
loop_
_atom_site_type_symbol
_atom_site_label
_atom_site_fract_x
_atom_site_fract_y
_atom_site_fract_z
Si Si1 0.458201 0.085464 0.000000
Si Si2 0.932233 0.958876 0.500000
Si Si3 0.386077 0.909886 0.313406
Si Si4 0.264264 0.853755 0.604448
Si Si5 0.354935 0.447508 0.160402
Si Si6 0.004165 0.781453 0.500000
Si Si7 0.439821 0.285844 0.805386
O O1 0.415511 0.078628 0.087663
O O2 0.507520 0.170467 0.000000
O O3 0.500000 0.000000 0.000000
O O4 0.942810 0.845350 0.500000
O O5 0.897226 0.990392 0.407485
O O6 0.000000 0.000000 0.500000
O O7 0.313816 0.898388 0.326800
O O8 0.415601 0.815396 0.271050
O O9 0.400183 0.000000 0.250000
O O10 0.290188 0.849505 0.500000
O O11 0.250000 0.750000 0.640437
O O12 0.203167 0.914435 0.602863
O O13 0.330258 0.500000 0.250000
O O14 0.388898 0.362437 0.211252
O O15 0.047608 0.799210 0.586515
O O16 0.500000 0.311746 0.750000
#
# Coordination Sequence:
#
# PCOD8277290 Si02
#       7
#     8   8  16  16  16   8  16
#     4  10  24  41  63  93 124 166 210 255 320 379
#     4  12  22  37  60  94 129 166 201 247 318 379
#     4  11  24  41  65  89 123 164 209 271 314 366
#     4  11  22  42  68  89 118 160 219 269 315 372
#     4  12  24  38  63  91 127 168 206 255 313 381
#     4  10  22  38  59  84 136 158 200 250 304 370
#     4  11  23  38  59  94 124 164 206 249 313 379
#
# _framework density 19.300916999999998
#
# number of rings (size 3 to 8) (size 9 to 14) (size 15 to 20)
#    0.000    0.909    5.455    1.636    5.091    0.000 
#    0.000    0.000    0.000    0.000    0.000    3.818 
#    0.000    0.000    0.000    0.000    0.000    0.000 
#
# Total GULP energy -545368.966791 kJ/mol
# GULP energy per Si atom -12394.749245 kJ/mol
# Density = 1.925699 g / cm^3
# Si number density = 19.300917 Si / 1000 Ang^3
#
#
#
# Elastic Constant Matrix: (Units=GPa)
#
#
# Indices 1 2 3 4 5 6 
#
# 1 92.5261 37.8929 20.0535 0.0000 0.0000 0.0000
# 2 37.8929 129.1558 38.5476 0.0000 0.0000 0.0000
# 3 20.0535 38.5476 83.5460 0.0000 0.0000 0.0000
# 4 0.0000 0.0000 0.0000 -193.3831 0.0000 0.0000
# 5 0.0000 0.0000 0.0000 0.0000 54.4813 0.0000
# 6 0.0000 0.0000 0.0000 0.0000 0.0000 38.2696
#
#
#
# Elastic Compliance Matrix: (Units=1/GPa)
#
#
# Indices 1 2 3 4 5 6 
#
# 1 0.012446 -0.003201 -0.001511 0.000000 0.000000 0.000000
# 2 -0.003201 0.009802 -0.003754 0.000000 0.000000 0.000000
# 3 -0.001511 -0.003754 0.014064 0.000000 0.000000 0.000000
# 4 0.000000 0.000000 0.000000 -0.005171 0.000000 0.000000
# 5 0.000000 0.000000 0.000000 0.000000 0.018355 0.000000
# 6 0.000000 0.000000 0.000000 0.000000 0.000000 0.026130
#
#
# Mechanical properties :
#
#
# Convention : Reuss Voigt Hill
#
# Bulk Modulus (GPa) = 51.59679 55.35732 53.47705
# Shear Modulus (GPa) = 50.49568 -6.21085 22.14242
#
# Velocity S-wave (km/s) = 5.12046 -1.79580 3.39074
# Velocity P-wave (km/s) = 7.85810 4.94405 6.56480
#
# Compressibility (1/GPa) = 0.01938105
#
# Stress axis : x y z
#
# Youngs Moduli (GPa) = 80.34736 102.01844 71.10200
#
# Poissons Ratio (x) = 0.32653 0.10741
# Poissons Ratio (y) = 0.25716 0.26695
# Poissons Ratio (z) = 0.12138 0.38302
#
# Static dielectric constant tensor:
#      x y z
#    x 3.130920 0.000000 0.000000 
#    y 0.000000 3.885500 0.000000 
#    z 0.000000 0.000000 3.417360 
# 
# 
# High freq. dielectric constant tensor:
#      x y z
#    x 1.746660 0.000000 0.000000 
#    y 0.000000 1.760190 0.000000 
#    z 0.000000 0.000000 1.748160 
# 
# From -- ./inp_files/28285.got.cif
#   From: 2010.03.12/outbox.cif.g09.slc.cpg/sg66_15_cif.got.tgz:28285.got - 2010.04.10 21:57:39.
