data_PCOD8277659
_publ_section_title
;
Structure prediction by ZEFSAII (Michael W. Deem and Ramdas Pophale) SiO2 
 PCOD8277659
Probable space group: C C C M
;
_chemical_formula_sum "Si O2"
_cell_formula_units_Z 96
_cell_length_a 10.031366
_cell_length_b 22.523808
_cell_length_c 22.634320
_cell_angle_alpha 90.000000
_cell_angle_beta 90.000000
_cell_angle_gamma 90.000000
_cell_volume 5114.101513
_symmetry_space_group_name_H-M "C C C M"
_symmetry_group_IT_number 66
_symmetry_cell_setting 'orthorhombic'
loop_
_space_group_symop_operation_xyz
x,y,z
-x,-y,z
x,-y,1/2-z
-x,y,1/2-z
-x,-y,-z
x,y,-z
-x,y,1/2+z
x,-y,1/2+z
1/2+x,1/2+y,z
1/2-x,1/2-y,z
1/2+x,1/2-y,1/2-z
1/2-x,1/2+y,1/2-z
1/2-x,1/2-y,-z
1/2+x,1/2+y,-z
1/2-x,1/2+y,1/2+z
1/2+x,1/2-y,1/2+z
loop_
_atom_site_type_symbol
_atom_site_label
_atom_site_fract_x
_atom_site_fract_y
_atom_site_fract_z
Si Si1 0.020298 0.174386 0.625707
Si Si2 0.279606 0.868564 0.813447
Si Si3 0.236820 0.121134 0.175210
Si Si4 0.405303 0.815685 0.000000
Si Si5 0.108672 0.175192 0.500000
Si Si6 0.851462 0.497345 0.819770
Si Si7 0.522879 0.187409 0.624053
O O1 0.164591 0.169102 0.655541
O O2 0.030735 0.152577 0.557853
O O3 0.916656 0.132840 0.659746
O O4 0.974151 0.242014 0.629486
O O5 0.261063 0.866102 0.743624
O O6 0.278069 0.936259 0.837652
O O7 0.421403 0.839145 0.827908
O O8 0.329238 0.164437 0.136932
O O9 0.265950 0.053021 0.157495
O O10 0.261270 0.848044 0.000000
O O11 0.385170 0.745771 0.000000
O O12 0.484586 0.834950 0.058533
O O13 0.865443 0.500000 0.750000
O O14 0.000000 0.500000 0.847749
#
# Coordination Sequence:
#
# PCOD8277659 Si02
#       7
#    16  16  16   8   8  16  16
#     4  11  23  36  56  86 117 148 182 229 286 334
#     4  11  21  36  60  83 112 153 187 225 276 338
#     4  11  23  36  55  87 119 145 180 233 289 329
#     4   9  18  35  59  80 102 151 206 221 253 337
#     4   9  18  37  57  76 109 152 194 227 262 333
#     4   9  18  36  58  78 106 151 197 224 260 331
#     4  11  21  36  59  84 113 150 188 229 275 332
#
# _framework density 18.771626000000001
#
# number of rings (size 3 to 8) (size 9 to 14) (size 15 to 20)
#    0.000    1.667    3.333    2.000    0.000    5.333 
#    0.000    5.000    0.000    6.000    0.000    0.000 
#    0.000    0.000    0.000    0.000    0.000    0.000 
#
# Total GULP energy -595303.604529 kJ/mol
# GULP energy per Si atom -12402.158428 kJ/mol
# Density = 1.872890 g / cm^3
# Si number density = 18.771626 Si / 1000 Ang^3
#
#
#
# Elastic Constant Matrix: (Units=GPa)
#
#
# Indices 1 2 3 4 5 6 
#
# 1 63.2226 15.3615 16.9177 0.0000 0.0000 0.0000
# 2 15.3615 78.8404 17.9595 0.0000 0.0000 0.0000
# 3 16.9177 17.9595 94.7159 0.0000 0.0000 0.0000
# 4 0.0000 0.0000 0.0000 5.1180 0.0000 0.0000
# 5 0.0000 0.0000 0.0000 0.0000 9.3706 0.0000
# 6 0.0000 0.0000 0.0000 0.0000 0.0000 25.3744
#
#
#
# Elastic Compliance Matrix: (Units=1/GPa)
#
#
# Indices 1 2 3 4 5 6 
#
# 1 0.017170 -0.002766 -0.002542 0.000000 0.000000 0.000000
# 2 -0.002766 0.013702 -0.002104 0.000000 0.000000 0.000000
# 3 -0.002542 -0.002104 0.011411 0.000000 0.000000 0.000000
# 4 0.000000 0.000000 0.000000 0.195389 0.000000 0.000000
# 5 0.000000 0.000000 0.000000 0.000000 0.106716 0.000000
# 6 0.000000 0.000000 0.000000 0.000000 0.000000 0.039410
#
#
# Mechanical properties :
#
#
# Convention : Reuss Voigt Hill
#
# Bulk Modulus (GPa) = 36.41981 37.47292 36.94636
# Shear Modulus (GPa) = 12.26167 20.40862 16.33514
#
# Velocity S-wave (km/s) = 2.55855 3.30086 2.95312
# Velocity P-wave (km/s) = 5.30772 5.87651 5.59934
#
# Compressibility (1/GPa) = 0.02745758
#
# Stress axis : x y z
#
# Youngs Moduli (GPa) = 58.24266 72.98133 87.63532
#
# Poissons Ratio (x) = 0.20189 0.22279
# Poissons Ratio (y) = 0.16111 0.18439
# Poissons Ratio (z) = 0.14807 0.15355
#
# Static dielectric constant tensor:
#      x y z
#    x 3.391010 0.000000 0.000000 
#    y 0.000000 3.475570 0.000000 
#    z 0.000000 0.000000 3.471380 
# 
# 
# High freq. dielectric constant tensor:
#      x y z
#    x 1.731870 0.000000 0.000000 
#    y 0.000000 1.717570 0.000000 
#    z 0.000000 0.000000 1.719120 
# 
# From -- ./inp_files/55702.got.cif
#   From: 2010.03.12/outbox.cif.g09.slc.cpg/sg66_28_cif.got.tgz:55702.got - 2010.04.10 21:57:39.
