data_PCOD8277047
_publ_section_title
;
Structure prediction by ZEFSAII (Michael W. Deem and Ramdas Pophale) SiO2 
 PCOD8277047
Probable space group: C C C M
;
_chemical_formula_sum "Si O2"
_cell_formula_units_Z 80
_cell_length_a 27.546258
_cell_length_b 17.998487
_cell_length_c 8.761484
_cell_angle_alpha 90.000000
_cell_angle_beta 90.000000
_cell_angle_gamma 90.000000
_cell_volume 4343.864620
_symmetry_space_group_name_H-M "C C C M"
_symmetry_group_IT_number 66
_symmetry_cell_setting 'orthorhombic'
loop_
_space_group_symop_operation_xyz
x,y,z
-x,-y,z
x,-y,1/2-z
-x,y,1/2-z
-x,-y,-z
x,y,-z
-x,y,1/2+z
x,-y,1/2+z
1/2+x,1/2+y,z
1/2-x,1/2-y,z
1/2+x,1/2-y,1/2-z
1/2-x,1/2+y,1/2-z
1/2-x,1/2-y,-z
1/2+x,1/2+y,-z
1/2-x,1/2+y,1/2+z
1/2+x,1/2-y,1/2+z
loop_
_atom_site_type_symbol
_atom_site_label
_atom_site_fract_x
_atom_site_fract_y
_atom_site_fract_z
Si Si1 0.593853 0.576257 0.322576
Si Si2 0.293072 0.081060 0.319089
Si Si3 0.853809 0.292986 0.319131
Si Si4 0.191286 0.152372 0.320660
Si Si5 0.050745 0.229943 0.680961
O O1 0.575409 0.500000 0.250000
O O2 0.590637 0.563981 0.500000
O O3 0.649043 0.594778 0.273017
O O4 0.559434 0.644092 0.271078
O O5 0.298937 0.077942 0.500000
O O6 0.336074 0.128546 0.245645
O O7 0.241875 0.117039 0.271014
O O8 0.296257 0.000000 0.250000
O O9 0.856651 0.295436 0.500000
O O10 0.816024 0.229573 0.267293
O O11 0.907132 0.280207 0.251352
O O12 0.188637 0.170683 0.500000
O O13 0.051279 0.239778 0.500000
O O14 0.000000 0.257115 0.750000
#
# Coordination Sequence:
#
# PCOD8277047 Si02
#       5
#    16  16  16  16  16
#     4   9  18  31  48  73 107 143 178 216 259 308
#     4  11  22  36  55  80 112 146 180 221 268 317
#     4  11  22  36  56  81 108 141 181 222 265 317
#     4   9  19  35  53  76 109 148 184 220 263 309
#     4  10  21  38  57  78 103 135 177 224 274 323
#
# _framework density 18.416781
#
# number of rings (size 3 to 8) (size 9 to 14) (size 15 to 20)
#    0.000    2.000    0.000    5.400    0.000    8.400 
#    0.000    2.000    0.000    0.600    0.000    4.200 
#    0.000    0.000    0.000    0.000    0.000    0.000 
#
# Total GULP energy -496114.837101 kJ/mol
# GULP energy per Si atom -12402.870928 kJ/mol
# Density = 1.837486 g / cm^3
# Si number density = 18.416781 Si / 1000 Ang^3
#
#
#
# Elastic Constant Matrix: (Units=GPa)
#
#
# Indices 1 2 3 4 5 6 
#
# 1 116.5124 86.7745 59.6318 0.0000 0.0000 0.0000
# 2 86.7745 104.9663 55.3978 0.0000 0.0000 0.0000
# 3 59.6318 55.3978 92.0219 0.0000 0.0000 0.0000
# 4 0.0000 0.0000 0.0000 34.5374 0.0000 0.0000
# 5 0.0000 0.0000 0.0000 0.0000 -121.8603 0.0000
# 6 0.0000 0.0000 0.0000 0.0000 0.0000 29.8765
#
#
#
# Elastic Compliance Matrix: (Units=1/GPa)
#
#
# Indices 1 2 3 4 5 6 
#
# 1 0.023965 -0.017024 -0.005281 0.000000 0.000000 0.000000
# 2 -0.017024 0.026057 -0.004655 0.000000 0.000000 0.000000
# 3 -0.005281 -0.004655 0.017091 0.000000 0.000000 0.000000
# 4 0.000000 0.000000 0.000000 0.028954 0.000000 0.000000
# 5 0.000000 0.000000 0.000000 0.000000 -0.008206 0.000000
# 6 0.000000 0.000000 0.000000 0.000000 0.000000 0.033471
#
#
# Mechanical properties :
#
#
# Convention : Reuss Voigt Hill
#
# Bulk Modulus (GPa) = 75.79392 79.67876 77.73634
# Shear Modulus (GPa) = 27.83207 -4.04284 11.89462
#
# Velocity S-wave (km/s) = 3.89168 -1.48323 2.54413
# Velocity P-wave (km/s) = 7.83822 6.35805 7.13662
#
# Compressibility (1/GPa) = 0.01319367
#
# Stress axis : x y z
#
# Youngs Moduli (GPa) = 41.72829 38.37724 58.50997
#
# Poissons Ratio (x) = 0.65334 0.30898
# Poissons Ratio (y) = 0.71039 0.27234
# Poissons Ratio (z) = 0.22036 0.17863
#
# Static dielectric constant tensor:
#      x y z
#    x 3.442980 0.000000 0.000000 
#    y 0.000000 3.351870 0.000000 
#    z 0.000000 0.000000 3.364070 
# 
# 
# High freq. dielectric constant tensor:
#      x y z
#    x 1.711490 0.000000 0.000000 
#    y 0.000000 1.703140 0.000000 
#    z 0.000000 0.000000 1.720200 
# 
# From -- ./inp_files/6653.got.cif
#   From: 2010.03.12/outbox.cif.g09.slc.cpg/sg66_4_cif.got.tgz:6653.got - 2010.04.10 21:57:39.
