data_PCOD8277850
_publ_section_title
;
Structure prediction by ZEFSAII (Michael W. Deem and Ramdas Pophale) SiO2 
 PCOD8277850
Probable space group: C C C M
;
_chemical_formula_sum "Si O2"
_cell_formula_units_Z 64
_cell_length_a 11.122133
_cell_length_b 16.379333
_cell_length_c 13.727382
_cell_angle_alpha 90.000000
_cell_angle_beta 90.000000
_cell_angle_gamma 90.000000
_cell_volume 2500.760009
_symmetry_space_group_name_H-M "C C C M"
_symmetry_group_IT_number 66
_symmetry_cell_setting 'orthorhombic'
loop_
_space_group_symop_operation_xyz
x,y,z
-x,-y,z
x,-y,1/2-z
-x,y,1/2-z
-x,-y,-z
x,y,-z
-x,y,1/2+z
x,-y,1/2+z
1/2+x,1/2+y,z
1/2-x,1/2-y,z
1/2+x,1/2-y,1/2-z
1/2-x,1/2+y,1/2-z
1/2-x,1/2-y,-z
1/2+x,1/2+y,-z
1/2-x,1/2+y,1/2+z
1/2+x,1/2-y,1/2+z
loop_
_atom_site_type_symbol
_atom_site_label
_atom_site_fract_x
_atom_site_fract_y
_atom_site_fract_z
Si Si1 0.685705 0.395133 0.207431
Si Si2 0.867121 0.517046 0.890028
Si Si3 0.944277 0.138921 0.388753
Si Si4 0.620408 0.187383 0.307984
O O1 0.770040 0.468746 0.173634
O O2 0.617856 0.421655 0.309957
O O3 0.588193 0.364893 0.128267
O O4 0.768882 0.315784 0.230555
O O5 0.847393 0.614285 0.883030
O O6 0.000000 0.500000 0.849348
O O7 0.853747 0.486444 0.000000
O O8 0.916453 0.112124 0.500000
O O9 0.891205 0.229229 0.368654
O O10 0.500000 0.169659 0.250000
#
# Coordination Sequence:
#
# PCOD8277850 Si02
#       4
#    16  16  16  16
#     4  11  24  45  77 111 155 204 258 331 391 461
#     4  11  24  42  71 112 154 199 251 317 394 470
#     4  11  26  48  76 112 156 213 266 318 399 485
#     4  12  23  43  73 111 153 203 252 324 394 467
#
# _framework density 25.592220000000001
#
# number of rings (size 3 to 8) (size 9 to 14) (size 15 to 20)
#    0.000    0.750    5.000    3.000    0.000    3.000 
#    0.000   11.250    0.000   12.750    0.000    0.000 
#    0.000    0.000    0.000    0.000    0.000    0.000 
#
# Total GULP energy -396481.451148 kJ/mol
# GULP energy per Si atom -12390.045348 kJ/mol
# Density = 2.553397 g / cm^3
# Si number density = 25.592220 Si / 1000 Ang^3
#
#
#
# Elastic Constant Matrix: (Units=GPa)
#
#
# Indices 1 2 3 4 5 6 
#
# 1 171.6624 50.8405 62.8395 0.0000 0.0000 0.0000
# 2 50.8405 126.2416 42.6945 0.0000 0.0000 0.0000
# 3 62.8395 42.6945 180.0634 0.0000 0.0000 0.0000
# 4 0.0000 0.0000 0.0000 33.2811 0.0000 0.0000
# 5 0.0000 0.0000 0.0000 0.0000 35.3524 0.0000
# 6 0.0000 0.0000 0.0000 0.0000 0.0000 -91.9093
#
#
#
# Elastic Compliance Matrix: (Units=1/GPa)
#
#
# Indices 1 2 3 4 5 6 
#
# 1 0.007215 -0.002233 -0.001988 0.000000 0.000000 0.000000
# 2 -0.002233 0.009303 -0.001427 0.000000 0.000000 0.000000
# 3 -0.001988 -0.001427 0.006586 0.000000 0.000000 0.000000
# 4 0.000000 0.000000 0.000000 0.030047 0.000000 0.000000
# 5 0.000000 0.000000 0.000000 0.000000 0.028287 0.000000
# 6 0.000000 0.000000 0.000000 0.000000 0.000000 -0.010880
#
#
# Mechanical properties :
#
#
# Convention : Reuss Voigt Hill
#
# Bulk Modulus (GPa) = 84.69115 87.85737 86.27426
# Shear Modulus (GPa) = 58.28291 16.78437 37.53364
#
# Velocity S-wave (km/s) = 4.77736 2.56371 3.83378
# Velocity P-wave (km/s) = 7.97466 6.57022 7.30626
#
# Compressibility (1/GPa) = 0.01180761
#
# Stress axis : x y z
#
# Youngs Moduli (GPa) = 138.60807 107.49143 151.84336
#
# Poissons Ratio (x) = 0.24003 0.30191
# Poissons Ratio (y) = 0.30952 0.21661
# Poissons Ratio (z) = 0.27560 0.15334
#
# Static dielectric constant tensor:
#      x y z
#    x 5.357300 0.000000 0.000000 
#    y 0.000000 4.632090 0.000000 
#    z 0.000000 0.000000 4.501320 
# 
# 
# High freq. dielectric constant tensor:
#      x y z
#    x 2.064490 0.000000 0.000000 
#    y 0.000000 2.024510 0.000000 
#    z 0.000000 0.000000 2.004240 
# 
# From -- ./inp_files/25808.got.cif
#   From: 2010.03.12/outbox.cif.g09.slc.cpg/sg66_13_cif.got.tgz:25808.got - 2010.04.10 21:57:39.
