data_PCOD8277984
_publ_section_title
;
Structure prediction by ZEFSAII (Michael W. Deem and Ramdas Pophale) SiO2 
 PCOD8277984
Probable space group: C M M A
;
_chemical_formula_sum "Si O2"
_cell_formula_units_Z 80
_cell_length_a 23.706784
_cell_length_b 8.738937
_cell_length_c 20.656750
_cell_angle_alpha 90.000000
_cell_angle_beta 90.000000
_cell_angle_gamma 90.000000
_cell_volume 4279.502108
_symmetry_space_group_name_H-M "C M M A"
_symmetry_group_IT_number 67
_symmetry_cell_setting 'orthorhombic'
loop_
_space_group_symop_operation_xyz
x,y,z
-x,1/2-y,z
x,-y,-z
-x,1/2+y,-z
-x,-y,-z
x,1/2+y,-z
-x,y,z
x,1/2-y,z
1/2+x,1/2+y,z
1/2-x,-y,z
1/2+x,1/2-y,-z
1/2-x,y,-z
1/2-x,1/2-y,-z
1/2+x,y,-z
1/2-x,1/2+y,z
1/2+x,-y,z
loop_
_atom_site_type_symbol
_atom_site_label
_atom_site_fract_x
_atom_site_fract_y
_atom_site_fract_z
Si Si1 0.381855 0.568879 0.935262
Si Si2 0.886748 0.075553 0.696807
Si Si3 0.935421 0.432345 0.566809
Si Si4 0.188523 0.932565 0.189525
Si Si5 0.500000 0.579827 0.774778
Si Si6 0.000000 0.572087 0.905253
O O1 0.381744 0.750000 0.939072
O O2 0.348453 0.511835 0.871661
O O3 0.445343 0.507770 0.934663
O O4 0.352433 0.500000 0.000000
O O5 0.869004 0.250000 0.687420
O O6 0.895191 0.003002 0.625012
O O7 0.839373 0.000583 0.743789
O O8 0.946406 0.060082 0.730559
O O9 0.911237 0.500000 0.500000
O O10 0.933356 0.250000 0.565116
O O11 0.000000 0.487818 0.577353
O O12 0.190531 0.750000 0.191146
O O13 0.250000 0.000000 0.181959
O O14 0.500000 0.750000 0.807337
O O15 0.500000 0.449114 0.828215
O O16 0.000000 0.750000 0.922967
#
# Coordination Sequence:
#
# PCOD8277984 Si02
#       6
#    16  16  16  16   8   8
#     4  11  23  40  60  81 109 144 179 217 267 326
#     4   9  16  31  56  79 102 141 182 216 260 321
#     4   9  16  27  47  76 110 142 172 208 255 316
#     4  10  22  39  59  79 102 137 183 230 272 317
#     4  10  16  31  56  79 105 139 183 219 262 326
#     4  12  23  35  54  85 118 143 173 217 269 322
#
# _framework density 18.693764999999999
#
# number of rings (size 3 to 8) (size 9 to 14) (size 15 to 20)
#    0.000    2.000    3.000    1.800    0.000    2.000 
#    0.000    4.000    0.000    0.600    0.000    4.200 
#    0.000    0.000    0.000    0.000    0.000    0.000 
#
# Total GULP energy -495734.726536 kJ/mol
# GULP energy per Si atom -12393.368163 kJ/mol
# Density = 1.865122 g / cm^3
# Si number density = 18.693765 Si / 1000 Ang^3
#
#
#
# Elastic Constant Matrix: (Units=GPa)
#
#
# Indices 1 2 3 4 5 6 
#
# 1 104.1121 21.3112 59.9788 0.0000 0.0000 0.0000
# 2 21.3112 37.1579 32.8671 0.0000 0.0000 0.0000
# 3 59.9788 32.8671 183.8160 0.0000 0.0000 0.0000
# 4 0.0000 0.0000 0.0000 29.6848 0.0000 0.0000
# 5 0.0000 0.0000 0.0000 0.0000 11.2023 0.0000
# 6 0.0000 0.0000 0.0000 0.0000 0.0000 23.1630
#
#
#
# Elastic Compliance Matrix: (Units=1/GPa)
#
#
# Indices 1 2 3 4 5 6 
#
# 1 0.012352 -0.004180 -0.003283 0.000000 0.000000 0.000000
# 2 -0.004180 0.033383 -0.004605 0.000000 0.000000 0.000000
# 3 -0.003283 -0.004605 0.007335 0.000000 0.000000 0.000000
# 4 0.000000 0.000000 0.000000 0.033687 0.000000 0.000000
# 5 0.000000 0.000000 0.000000 0.000000 0.089268 0.000000
# 6 0.000000 0.000000 0.000000 0.000000 0.000000 0.043172
#
#
# Mechanical properties :
#
#
# Convention : Reuss Voigt Hill
#
# Bulk Modulus (GPa) = 34.56241 61.48892 48.02566
# Shear Modulus (GPa) = 19.76454 26.87193 23.31824
#
# Velocity S-wave (km/s) = 3.25511 3.79553 3.53566
# Velocity P-wave (km/s) = 5.71459 7.22303 6.51263
#
# Compressibility (1/GPa) = 0.02893317
#
# Stress axis : x y z
#
# Youngs Moduli (GPa) = 80.95815 29.95540 136.33560
#
# Poissons Ratio (x) = 0.12523 0.44759
# Poissons Ratio (y) = 0.33844 0.62782
# Poissons Ratio (z) = 0.26578 0.13794
#
# Static dielectric constant tensor:
#      x y z
#    x 3.381140 0.000000 0.000000 
#    y 0.000000 3.201970 0.000000 
#    z 0.000000 0.000000 3.985880 
# 
# 
# High freq. dielectric constant tensor:
#      x y z
#    x 1.698860 0.000000 0.000000 
#    y 0.000000 1.695550 0.000000 
#    z 0.000000 0.000000 1.747260 
# 
# From -- ./inp_files/39509.got.cif
#   From: 2010.03.12/outbox.cif.g09.slc.cpg/sg67_20_cif.got.tgz:39509.got - 2010.04.10 22:41:39.
