data_PCOD8277438
_publ_section_title
;
Structure prediction by ZEFSAII (Michael W. Deem and Ramdas Pophale) SiO2 
 PCOD8277438
Probable space group: C C C M
;
_chemical_formula_sum "Si O2"
_cell_formula_units_Z 112
_cell_length_a 15.029874
_cell_length_b 13.719272
_cell_length_c 24.080804
_cell_angle_alpha 90.000000
_cell_angle_beta 90.000000
_cell_angle_gamma 90.000000
_cell_volume 4965.436007
_symmetry_space_group_name_H-M "C C C M"
_symmetry_group_IT_number 66
_symmetry_cell_setting 'orthorhombic'
loop_
_space_group_symop_operation_xyz
x,y,z
-x,-y,z
x,-y,1/2-z
-x,y,1/2-z
-x,-y,-z
x,y,-z
-x,y,1/2+z
x,-y,1/2+z
1/2+x,1/2+y,z
1/2-x,1/2-y,z
1/2+x,1/2-y,1/2-z
1/2-x,1/2+y,1/2-z
1/2-x,1/2-y,-z
1/2+x,1/2+y,-z
1/2-x,1/2+y,1/2+z
1/2+x,1/2-y,1/2+z
loop_
_atom_site_type_symbol
_atom_site_label
_atom_site_fract_x
_atom_site_fract_y
_atom_site_fract_z
Si Si1 0.624273 0.598178 0.221655
Si Si2 0.916026 0.065900 0.940253
Si Si3 0.511960 0.712695 0.864222
Si Si4 0.767440 0.034257 0.617491
Si Si5 0.759215 0.644144 0.684610
Si Si6 0.045263 0.604761 0.804218
Si Si7 0.840972 0.693149 0.937997
O O1 0.584972 0.500000 0.250000
O O2 0.544426 0.660656 0.193395
O O3 0.697067 0.581540 0.173999
O O4 0.678657 0.649684 0.270760
O O5 0.935142 0.146306 0.892338
O O6 0.843850 0.981309 0.927735
O O7 0.894211 0.116253 0.000000
O O8 0.000000 0.000000 0.946716
O O9 0.469332 0.818366 0.853508
O O10 0.593608 0.734030 0.905602
O O11 0.680964 0.092490 0.594813
O O12 0.745655 0.922766 0.630702
O O13 0.750000 0.750000 0.658085
O O14 0.850691 0.605011 0.712290
O O15 0.000000 0.500000 0.819195
O O16 0.000000 0.648139 0.750000
O O17 0.750000 0.750000 0.942715
O O18 0.878145 0.670083 0.000000
#
# Coordination Sequence:
#
# PCOD8277438 Si02
#       7
#    16  16  16  16  16  16  16
#     4  10  23  38  65  93 128 168 207 261 322 388
#     4  11  22  40  64  96 133 164 206 267 342 398
#     4  12  23  42  66  95 134 171 207 277 329 392
#     4  11  22  40  65  90 128 168 210 270 314 387
#     4  11  24  42  63  89 128 172 221 257 313 392
#     4  11  26  41  64  93 128 174 222 263 319 386
#     4  11  22  37  65 100 127 163 220 271 328 387
#
# _framework density 22.555924999999998
#
# number of rings (size 3 to 8) (size 9 to 14) (size 15 to 20)
#    0.000    1.000    2.857    3.429   10.000    3.429 
#    0.000    2.143    0.000   17.143    0.000    0.000 
#    0.000    0.000    0.000    0.000    0.000    0.000 
#
# Total GULP energy -693734.496482 kJ/mol
# GULP energy per Si atom -12388.116009 kJ/mol
# Density = 2.250459 g / cm^3
# Si number density = 22.555925 Si / 1000 Ang^3
#
#
#
# Elastic Constant Matrix: (Units=GPa)
#
#
# Indices 1 2 3 4 5 6 
#
# 1 41.4077 -3.1404 -11.6230 0.0000 0.0000 0.0000
# 2 -3.1404 122.1995 28.5238 0.0000 0.0000 0.0000
# 3 -11.6230 28.5238 96.2502 0.0000 0.0000 0.0000
# 4 0.0000 0.0000 0.0000 25.3383 0.0000 0.0000
# 5 0.0000 0.0000 0.0000 0.0000 17.8667 0.0000
# 6 0.0000 0.0000 0.0000 0.0000 0.0000 33.6108
#
#
#
# Elastic Compliance Matrix: (Units=1/GPa)
#
#
# Indices 1 2 3 4 5 6 
#
# 1 0.024998 -0.000067 0.003039 0.000000 0.000000 0.000000
# 2 -0.000067 0.008792 -0.002613 0.000000 0.000000 0.000000
# 3 0.003039 -0.002613 0.011531 0.000000 0.000000 0.000000
# 4 0.000000 0.000000 0.000000 0.039466 0.000000 0.000000
# 5 0.000000 0.000000 0.000000 0.000000 0.055970 0.000000
# 6 0.000000 0.000000 0.000000 0.000000 0.000000 0.029752
#
#
# Mechanical properties :
#
#
# Convention : Reuss Voigt Hill
#
# Bulk Modulus (GPa) = 21.72165 31.93090 26.82628
# Shear Modulus (GPa) = 27.00683 31.76961 29.38822
#
# Velocity S-wave (km/s) = 3.46400 3.75705 3.61349
# Velocity P-wave (km/s) = 5.06459 5.74522 5.41561
#
# Compressibility (1/GPa) = 0.04603702
#
# Stress axis : x y z
#
# Youngs Moduli (GPa) = 40.00330 113.74416 86.72259
#
# Poissons Ratio (x) = 0.00760 -0.26351
# Poissons Ratio (y) = 0.00267 0.22665
# Poissons Ratio (z) = -0.12155 0.29727
#
# Static dielectric constant tensor:
#      x y z
#    x 4.104020 0.000000 0.000000 
#    y 0.000000 4.509220 0.000000 
#    z 0.000000 0.000000 5.557320 
# 
# 
# High freq. dielectric constant tensor:
#      x y z
#    x 1.884070 0.000000 0.000000 
#    y 0.000000 1.894450 0.000000 
#    z 0.000000 0.000000 1.883640 
# 
# From -- ./inp_files/58241.got.cif
#   From: 2010.03.12/outbox.cif.g09.slc.cpg/sg66_30_cif.got.tgz:58241.got - 2010.04.10 21:57:39.
