data_PCOD8277842
_publ_section_title
;
Structure prediction by ZEFSAII (Michael W. Deem and Ramdas Pophale) SiO2 
 PCOD8277842
Probable space group: C C C M
;
_chemical_formula_sum "Si O2"
_cell_formula_units_Z 64
_cell_length_a 19.708437
_cell_length_b 8.490955
_cell_length_c 19.039660
_cell_angle_alpha 90.000000
_cell_angle_beta 90.000000
_cell_angle_gamma 90.000000
_cell_volume 3186.162423
_symmetry_space_group_name_H-M "C C C M"
_symmetry_group_IT_number 66
_symmetry_cell_setting 'orthorhombic'
loop_
_space_group_symop_operation_xyz
x,y,z
-x,-y,z
x,-y,1/2-z
-x,y,1/2-z
-x,-y,-z
x,y,-z
-x,y,1/2+z
x,-y,1/2+z
1/2+x,1/2+y,z
1/2-x,1/2-y,z
1/2+x,1/2-y,1/2-z
1/2-x,1/2+y,1/2-z
1/2-x,1/2-y,-z
1/2+x,1/2+y,-z
1/2-x,1/2+y,1/2+z
1/2+x,1/2-y,1/2+z
loop_
_atom_site_type_symbol
_atom_site_label
_atom_site_fract_x
_atom_site_fract_y
_atom_site_fract_z
Si Si1 0.575845 0.178316 0.827806
Si Si2 0.577075 0.826012 0.838105
Si Si3 0.811534 0.865285 0.922356
Si Si4 0.803717 0.885016 0.684174
O O1 0.500473 0.228310 0.851478
O O2 0.588378 0.176332 0.744592
O O3 0.629252 0.309041 0.851503
O O4 0.590362 0.006656 0.861763
O O5 0.626213 0.708493 0.878680
O O6 0.750000 0.750000 0.931552
O O7 0.777869 0.010469 0.880474
O O8 0.837900 0.914134 0.000000
O O9 0.750000 0.750000 0.706224
O O10 0.818518 0.000000 0.750000
#
# Coordination Sequence:
#
# PCOD8277842 Si02
#       4
#    16  16  16  16
#     4   9  19  35  63  90 122 150 202 260 301 356
#     4   9  18  38  61  90 120 161 197 247 311 363
#     4  11  24  42  61  87 129 169 204 250 309 369
#     4  12  24  37  61  91 121 157 209 263 306 358
#
# _framework density 20.086860000000001
#
# number of rings (size 3 to 8) (size 9 to 14) (size 15 to 20)
#    0.000    1.750    2.500    3.750    3.500    1.500 
#    0.000    6.250    0.000    0.000    0.000    0.000 
#    0.000    0.000    0.000    0.000    0.000    0.000 
#
# Total GULP energy -396513.063044 kJ/mol
# GULP energy per Si atom -12391.033220 kJ/mol
# Density = 2.004114 g / cm^3
# Si number density = 20.086860 Si / 1000 Ang^3
#
#
#
# Elastic Constant Matrix: (Units=GPa)
#
#
# Indices 1 2 3 4 5 6 
#
# 1 94.2222 38.3851 25.4548 0.0000 0.0000 0.0000
# 2 38.3851 90.6846 34.6643 0.0000 0.0000 0.0000
# 3 25.4548 34.6643 81.6696 0.0000 0.0000 0.0000
# 4 0.0000 0.0000 0.0000 19.5572 0.0000 0.0000
# 5 0.0000 0.0000 0.0000 0.0000 18.9281 0.0000
# 6 0.0000 0.0000 0.0000 0.0000 0.0000 33.3640
#
#
#
# Elastic Compliance Matrix: (Units=1/GPa)
#
#
# Indices 1 2 3 4 5 6 
#
# 1 0.013110 -0.004760 -0.002066 0.000000 0.000000 0.000000
# 2 -0.004760 0.014891 -0.004837 0.000000 0.000000 0.000000
# 3 -0.002066 -0.004837 0.014941 0.000000 0.000000 0.000000
# 4 0.000000 0.000000 0.000000 0.051132 0.000000 0.000000
# 5 0.000000 0.000000 0.000000 0.000000 0.052832 0.000000
# 6 0.000000 0.000000 0.000000 0.000000 0.000000 0.029972
#
#
# Mechanical properties :
#
#
# Convention : Reuss Voigt Hill
#
# Bulk Modulus (GPa) = 50.97487 51.50942 51.24215
# Shear Modulus (GPa) = 24.18464 25.57467 24.87965
#
# Velocity S-wave (km/s) = 3.47364 3.57207 3.52320
# Velocity P-wave (km/s) = 6.44364 6.53544 6.48970
#
# Compressibility (1/GPa) = 0.01961751
#
# Stress axis : x y z
#
# Youngs Moduli (GPa) = 76.27536 67.15568 66.92823
#
# Poissons Ratio (x) = 0.31964 0.13828
# Poissons Ratio (y) = 0.36304 0.32372
# Poissons Ratio (z) = 0.15759 0.32482
#
# Static dielectric constant tensor:
#      x y z
#    x 3.827690 0.000000 0.000000 
#    y 0.000000 4.279300 0.000000 
#    z 0.000000 0.000000 3.496900 
# 
# 
# High freq. dielectric constant tensor:
#      x y z
#    x 1.791170 0.000000 0.000000 
#    y 0.000000 1.792350 0.000000 
#    z 0.000000 0.000000 1.747770 
# 
# From -- ./inp_files/42383.got.cif
#   From: 2010.03.12/outbox.cif.g09.slc.cpg/sg66_22_cif.got.tgz:42383.got - 2010.04.10 21:57:39.
