data_PCOD8277472
_publ_section_title
;
Structure prediction by ZEFSAII (Michael W. Deem and Ramdas Pophale) SiO2 
 PCOD8277472
Probable space group: C C C M
;
_chemical_formula_sum "Si O2"
_cell_formula_units_Z 76
_cell_length_a 23.618968
_cell_length_b 8.927519
_cell_length_c 17.361026
_cell_angle_alpha 90.000000
_cell_angle_beta 90.000000
_cell_angle_gamma 90.000000
_cell_volume 3660.724859
_symmetry_space_group_name_H-M "C C C M"
_symmetry_group_IT_number 66
_symmetry_cell_setting 'orthorhombic'
loop_
_space_group_symop_operation_xyz
x,y,z
-x,-y,z
x,-y,1/2-z
-x,y,1/2-z
-x,-y,-z
x,y,-z
-x,y,1/2+z
x,-y,1/2+z
1/2+x,1/2+y,z
1/2-x,1/2-y,z
1/2+x,1/2-y,1/2-z
1/2-x,1/2+y,1/2-z
1/2-x,1/2-y,-z
1/2+x,1/2+y,-z
1/2-x,1/2+y,1/2+z
1/2+x,1/2-y,1/2+z
loop_
_atom_site_type_symbol
_atom_site_label
_atom_site_fract_x
_atom_site_fract_y
_atom_site_fract_z
Si Si1 0.688607 0.681631 0.683294
Si Si2 0.562760 0.060077 0.500000
Si Si3 0.500000 0.000000 0.250000
Si Si4 0.452106 0.623331 0.000000
Si Si5 0.920541 0.652430 0.372921
Si Si6 0.880135 0.849235 0.000000
Si Si7 0.193887 0.849379 0.355720
O O1 0.750000 0.750000 0.682656
O O2 0.641273 0.784950 0.645427
O O3 0.700317 0.528404 0.637106
O O4 0.666762 0.670741 0.771330
O O5 0.564211 0.240920 0.500000
O O6 0.500000 0.000000 0.500000
O O7 0.592457 0.995473 0.423237
O O8 0.540204 0.891266 0.300467
O O9 0.500000 0.500000 0.000000
O O10 0.454458 0.724270 0.076719
O O11 0.394366 0.524701 0.000000
O O12 0.846760 0.798260 0.075938
O O13 0.250000 0.750000 0.364589
#
# Coordination Sequence:
#
# PCOD8277472 Si02
#       7
#    16   8   4   8  16   8  16
#     4  10  23  43  69  97 135 176 222 284 344 405
#     4  11  25  44  66  94 133 179 226 276 347 403
#     4  12  28  42  78 100 140 186 242 294 332 426
#     4  11  25  45  70  94 139 180 222 293 353 403
#     4  11  25  47  67 104 134 178 236 278 345 416
#     4  12  23  42  66  96 133 177 216 284 331 411
#     4  10  23  42  65  99 131 172 222 273 341 407
#
# _framework density 20.760916000000002
#
# number of rings (size 3 to 8) (size 9 to 14) (size 15 to 20)
#    0.000    1.263    3.158    1.579    5.895    1.684 
#    0.000    2.632    0.000    0.000    0.000    0.000 
#    0.000    0.000    0.000    0.000    0.000    0.000 
#
# Total GULP energy -470872.760598 kJ/mol
# GULP energy per Si atom -12391.388437 kJ/mol
# Density = 2.071366 g / cm^3
# Si number density = 20.760916 Si / 1000 Ang^3
#
#
#
# Elastic Constant Matrix: (Units=GPa)
#
#
# Indices 1 2 3 4 5 6 
#
# 1 90.4259 39.6495 52.7087 0.0000 0.0000 0.0000
# 2 39.6495 129.3809 52.6514 0.0000 0.0000 0.0000
# 3 52.7087 52.6514 123.9982 0.0000 0.0000 0.0000
# 4 0.0000 0.0000 0.0000 57.1133 0.0000 0.0000
# 5 0.0000 0.0000 0.0000 0.0000 24.3404 0.0000
# 6 0.0000 0.0000 0.0000 0.0000 0.0000 42.2684
#
#
#
# Elastic Compliance Matrix: (Units=1/GPa)
#
#
# Indices 1 2 3 4 5 6 
#
# 1 0.015329 -0.002473 -0.005466 0.000000 0.000000 0.000000
# 2 -0.002473 0.009743 -0.003086 0.000000 0.000000 0.000000
# 3 -0.005466 -0.003086 0.011698 0.000000 0.000000 0.000000
# 4 0.000000 0.000000 0.000000 0.017509 0.000000 0.000000
# 5 0.000000 0.000000 0.000000 0.000000 0.041084 0.000000
# 6 0.000000 0.000000 0.000000 0.000000 0.000000 0.023658
#
#
# Mechanical properties :
#
#
# Convention : Reuss Voigt Hill
#
# Bulk Modulus (GPa) = 67.93179 70.42489 69.17834
# Shear Modulus (GPa) = 34.25168 37.99744 36.12456
#
# Velocity S-wave (km/s) = 4.06620 4.28277 4.17589
# Velocity P-wave (km/s) = 7.40522 7.64537 7.52625
#
# Compressibility (1/GPa) = 0.01472065
#
# Stress axis : x y z
#
# Youngs Moduli (GPa) = 65.23435 102.64040 85.48316
#
# Poissons Ratio (x) = 0.25387 0.46724
# Poissons Ratio (y) = 0.16135 0.26376
# Poissons Ratio (z) = 0.35656 0.31670
#
# Static dielectric constant tensor:
#      x y z
#    x 3.594030 0.000000 0.000000 
#    y 0.000000 4.776920 0.000000 
#    z 0.000000 0.000000 3.460310 
# 
# 
# High freq. dielectric constant tensor:
#      x y z
#    x 1.806870 0.000000 0.000000 
#    y 0.000000 1.830140 0.000000 
#    z 0.000000 0.000000 1.821340 
# 
# From -- ./inp_files/44176.got.cif
#   From: 2010.03.12/outbox.cif.g09.slc.cpg/sg66_23_cif.got.tgz:44176.got - 2010.04.10 21:57:39.
