data_PCOD8277510
_publ_section_title
;
Structure prediction by ZEFSAII (Michael W. Deem and Ramdas Pophale) SiO2 
 PCOD8277510
Probable space group: C C C M
;
_chemical_formula_sum "Si O2"
_cell_formula_units_Z 112
_cell_length_a 14.155724
_cell_length_b 15.134190
_cell_length_c 26.408929
_cell_angle_alpha 90.000000
_cell_angle_beta 90.000000
_cell_angle_gamma 90.000000
_cell_volume 5657.727906
_symmetry_space_group_name_H-M "C C C M"
_symmetry_group_IT_number 66
_symmetry_cell_setting 'orthorhombic'
loop_
_space_group_symop_operation_xyz
x,y,z
-x,-y,z
x,-y,1/2-z
-x,y,1/2-z
-x,-y,-z
x,y,-z
-x,y,1/2+z
x,-y,1/2+z
1/2+x,1/2+y,z
1/2-x,1/2-y,z
1/2+x,1/2-y,1/2-z
1/2-x,1/2+y,1/2-z
1/2-x,1/2-y,-z
1/2+x,1/2+y,-z
1/2-x,1/2+y,1/2+z
1/2+x,1/2-y,1/2+z
loop_
_atom_site_type_symbol
_atom_site_label
_atom_site_fract_x
_atom_site_fract_y
_atom_site_fract_z
Si Si1 0.901372 0.620389 0.220997
Si Si2 0.837664 0.306060 0.181380
Si Si3 0.397049 0.710532 0.555785
Si Si4 0.097192 0.036349 0.193351
Si Si5 0.967445 0.778641 0.161703
Si Si6 0.789092 0.392771 0.555819
Si Si7 0.298938 0.008152 0.349475
O O1 0.826335 0.658324 0.261297
O O2 0.909196 0.690459 0.175234
O O3 0.860474 0.531521 0.196737
O O4 0.000000 0.602267 0.250000
O O5 0.750000 0.250000 0.164197
O O6 0.836399 0.391639 0.144690
O O7 0.925912 0.239668 0.178530
O O8 0.444096 0.696802 0.500000
O O9 0.471057 0.701726 0.601524
O O10 0.318748 0.635725 0.565249
O O11 0.353179 0.806933 0.558778
O O12 0.084274 0.142601 0.192477
O O13 0.187399 0.002337 0.161952
O O14 0.107489 0.000000 0.250000
O O15 0.000000 0.000000 0.168295
O O16 0.798994 0.436023 0.500000
O O17 0.822526 0.463033 0.597210
#
# Coordination Sequence:
#
# PCOD8277510 Si02
#       7
#    16  16  16  16  16  16  16
#     4  10  24  38  61  88 124 161 200 243 313 374
#     4  11  26  39  56  83 125 167 207 244 305 371
#     4   9  17  35  62  95 123 150 198 260 318 367
#     4  11  25  37  60  88 122 165 217 252 297 359
#     4  11  22  39  61  89 125 160 197 264 307 370
#     4   9  18  34  62  97 124 149 198 264 321 375
#     4  12  22  40  64  88 126 164 201 259 316 382
#
# _framework density 19.795932000000001
#
# number of rings (size 3 to 8) (size 9 to 14) (size 15 to 20)
#    0.000    1.571    2.857    3.000   10.000    4.000 
#    0.000    0.714    0.000    6.857    0.000    0.000 
#    0.000    0.000    0.000    0.000    0.000    0.000 
#
# Total GULP energy -694154.714747 kJ/mol
# GULP energy per Si atom -12395.619906 kJ/mol
# Density = 1.975088 g / cm^3
# Si number density = 19.795932 Si / 1000 Ang^3
#
#
#
# Elastic Constant Matrix: (Units=GPa)
#
#
# Indices 1 2 3 4 5 6 
#
# 1 51.0336 19.2933 13.4424 0.0000 0.0000 0.0000
# 2 19.2933 76.7175 37.7323 0.0000 0.0000 0.0000
# 3 13.4424 37.7323 130.6129 0.0000 0.0000 0.0000
# 4 0.0000 0.0000 0.0000 27.8760 0.0000 0.0000
# 5 0.0000 0.0000 0.0000 0.0000 18.1685 0.0000
# 6 0.0000 0.0000 0.0000 0.0000 0.0000 30.3835
#
#
#
# Elastic Compliance Matrix: (Units=1/GPa)
#
#
# Indices 1 2 3 4 5 6 
#
# 1 0.021719 -0.005085 -0.000766 0.000000 0.000000 0.000000
# 2 -0.005085 0.016384 -0.004210 0.000000 0.000000 0.000000
# 3 -0.000766 -0.004210 0.008951 0.000000 0.000000 0.000000
# 4 0.000000 0.000000 0.000000 0.035873 0.000000 0.000000
# 5 0.000000 0.000000 0.000000 0.000000 0.055040 0.000000
# 6 0.000000 0.000000 0.000000 0.000000 0.000000 0.032913
#
#
# Mechanical properties :
#
#
# Convention : Reuss Voigt Hill
#
# Bulk Modulus (GPa) = 37.13031 44.36664 40.74847
# Shear Modulus (GPa) = 25.00240 27.81199 26.40720
#
# Velocity S-wave (km/s) = 3.55774 3.75231 3.65632
# Velocity P-wave (km/s) = 5.97276 6.42135 6.20112
#
# Compressibility (1/GPa) = 0.02693217
#
# Stress axis : x y z
#
# Youngs Moduli (GPa) = 46.04211 61.03434 111.71645
#
# Poissons Ratio (x) = 0.31037 0.08560
# Poissons Ratio (y) = 0.23413 0.47031
# Poissons Ratio (z) = 0.03528 0.25694
#
# Static dielectric constant tensor:
#      x y z
#    x 3.513840 0.000000 0.000000 
#    y 0.000000 3.644780 0.000000 
#    z 0.000000 0.000000 3.858260 
# 
# 
# High freq. dielectric constant tensor:
#      x y z
#    x 1.753870 0.000000 0.000000 
#    y 0.000000 1.772480 0.000000 
#    z 0.000000 0.000000 1.762970 
# 
# From -- ./inp_files/64692.got.cif
#   From: 2010.03.12/outbox.cif.g09.slc.cpg/sg66_33_cif.got.tgz:64692.got - 2010.04.10 21:57:39.
