data_PCOD8277362
_publ_section_title
;
Structure prediction by ZEFSAII (Michael W. Deem and Ramdas Pophale) SiO2 
 PCOD8277362
Probable space group: C C C M
;
_chemical_formula_sum "Si O2"
_cell_formula_units_Z 112
_cell_length_a 31.801233
_cell_length_b 11.956747
_cell_length_c 13.140627
_cell_angle_alpha 90.000000
_cell_angle_beta 90.000000
_cell_angle_gamma 90.000000
_cell_volume 4996.582776
_symmetry_space_group_name_H-M "C C C M"
_symmetry_group_IT_number 66
_symmetry_cell_setting 'orthorhombic'
loop_
_space_group_symop_operation_xyz
x,y,z
-x,-y,z
x,-y,1/2-z
-x,y,1/2-z
-x,-y,-z
x,y,-z
-x,y,1/2+z
x,-y,1/2+z
1/2+x,1/2+y,z
1/2-x,1/2-y,z
1/2+x,1/2-y,1/2-z
1/2-x,1/2+y,1/2-z
1/2-x,1/2-y,-z
1/2+x,1/2+y,-z
1/2-x,1/2+y,1/2+z
1/2+x,1/2-y,1/2+z
loop_
_atom_site_type_symbol
_atom_site_label
_atom_site_fract_x
_atom_site_fract_y
_atom_site_fract_z
Si Si1 0.489366 0.626653 0.619420
Si Si2 0.397788 0.645065 0.615464
Si Si3 0.798031 0.750909 0.696623
Si Si4 0.364313 0.080415 0.617782
Si Si5 0.356701 0.574813 0.878652
Si Si6 0.837002 0.342590 0.384646
Si Si7 0.428489 0.743281 0.878558
O O1 0.500000 0.500000 0.649937
O O2 0.488652 0.642992 0.500000
O O3 0.443679 0.654261 0.668120
O O4 0.524803 0.712557 0.663937
O O5 0.405582 0.604309 0.500000
O O6 0.365995 0.551586 0.661436
O O7 0.378116 0.766555 0.621113
O O8 0.750000 0.750000 0.661205
O O9 0.825445 0.665252 0.629546
O O10 0.815328 0.876153 0.676873
O O11 0.800847 0.712483 0.815000
O O12 0.370833 0.053913 0.500000
O O13 0.407940 0.137984 0.659405
O O14 0.352541 0.959480 0.666263
O O15 0.396635 0.647177 0.840923
O O16 0.349620 0.580928 0.000000
O O17 0.819548 0.353388 0.500000
O O18 0.429386 0.742482 0.000000
#
# Coordination Sequence:
#
# PCOD8277362 Si02
#       7
#    16  16  16  16  16  16  16
#     4   9  13  21  46  84 120 149 186 234 277 329
#     4   9  17  31  52  82 120 160 192 224 282 351
#     4  11  23  39  62  87 107 137 194 254 294 343
#     4   9  19  38  62  84 114 152 187 231 291 351
#     4   9  17  32  55  86 120 151 184 231 295 349
#     4  10  22  41  58  77 113 159 195 227 286 358
#     4   8  13  24  48  83 115 146 186 230 277 328
#
# _framework density 22.415320999999999
#
# number of rings (size 3 to 8) (size 9 to 14) (size 15 to 20)
#    0.000    2.714    1.429    1.714    0.000    2.000 
#    5.143    0.714    0.000    7.714    0.000    4.000 
#    0.000    0.000    0.000    0.000    0.000    0.000 
#
# Total GULP energy -693926.199493 kJ/mol
# GULP energy per Si atom -12391.539277 kJ/mol
# Density = 2.236430 g / cm^3
# Si number density = 22.415321 Si / 1000 Ang^3
#
#
#
# Elastic Constant Matrix: (Units=GPa)
#
#
# Indices 1 2 3 4 5 6 
#
# 1 163.1217 68.7216 9.2768 0.0000 0.0000 0.0000
# 2 68.7216 129.4026 13.1772 0.0000 0.0000 0.0000
# 3 9.2768 13.1772 39.9705 0.0000 0.0000 0.0000
# 4 0.0000 0.0000 0.0000 10.9249 0.0000 0.0000
# 5 0.0000 0.0000 0.0000 0.0000 18.2395 0.0000
# 6 0.0000 0.0000 0.0000 0.0000 0.0000 28.1335
#
#
#
# Elastic Compliance Matrix: (Units=1/GPa)
#
#
# Indices 1 2 3 4 5 6 
#
# 1 0.007906 -0.004151 -0.000466 0.000000 0.000000 0.000000
# 2 -0.004151 0.010176 -0.002391 0.000000 0.000000 0.000000
# 3 -0.000466 -0.002391 0.025915 0.000000 0.000000 0.000000
# 4 0.000000 0.000000 0.000000 0.091534 0.000000 0.000000
# 5 0.000000 0.000000 0.000000 0.000000 0.054826 0.000000
# 6 0.000000 0.000000 0.000000 0.000000 0.000000 0.035545
#
#
# Mechanical properties :
#
#
# Convention : Reuss Voigt Hill
#
# Bulk Modulus (GPa) = 33.35643 57.20513 45.28078
# Shear Modulus (GPa) = 20.00708 27.54752 23.77730
#
# Velocity S-wave (km/s) = 2.99082 3.50945 3.26047
# Velocity P-wave (km/s) = 5.18074 6.48056 5.86676
#
# Compressibility (1/GPa) = 0.02997923
#
# Stress axis : x y z
#
# Youngs Moduli (GPa) = 126.49142 98.27265 38.58768
#
# Poissons Ratio (x) = 0.40793 0.01800
# Poissons Ratio (y) = 0.52506 0.09227
# Poissons Ratio (z) = 0.05899 0.23500
#
# Static dielectric constant tensor:
#      x y z
#    x 3.921260 0.000000 0.000000 
#    y 0.000000 4.130710 0.000000 
#    z 0.000000 0.000000 4.234450 
# 
# 
# High freq. dielectric constant tensor:
#      x y z
#    x 1.855660 0.000000 0.000000 
#    y 0.000000 1.871260 0.000000 
#    z 0.000000 0.000000 1.908040 
# 
# From -- ./inp_files/33828.got.cif
#   From: 2010.03.12/outbox.cif.g09.slc.cpg/sg66_17_cif.got.tgz:33828.got - 2010.04.10 21:57:39.
