data_PCOD8277280
_publ_section_title
;
Structure prediction by ZEFSAII (Michael W. Deem and Ramdas Pophale) SiO2 
 PCOD8277280
Probable space group: C C C M
;
_chemical_formula_sum "Si O2"
_cell_formula_units_Z 60
_cell_length_a 8.963664
_cell_length_b 12.822144
_cell_length_c 26.694333
_cell_angle_alpha 90.000000
_cell_angle_beta 90.000000
_cell_angle_gamma 90.000000
_cell_volume 3068.070201
_symmetry_space_group_name_H-M "C C C M"
_symmetry_group_IT_number 66
_symmetry_cell_setting 'orthorhombic'
loop_
_space_group_symop_operation_xyz
x,y,z
-x,-y,z
x,-y,1/2-z
-x,y,1/2-z
-x,-y,-z
x,y,-z
-x,y,1/2+z
x,-y,1/2+z
1/2+x,1/2+y,z
1/2-x,1/2-y,z
1/2+x,1/2-y,1/2-z
1/2-x,1/2+y,1/2-z
1/2-x,1/2-y,-z
1/2+x,1/2+y,-z
1/2-x,1/2+y,1/2+z
1/2+x,1/2-y,1/2+z
loop_
_atom_site_type_symbol
_atom_site_label
_atom_site_fract_x
_atom_site_fract_y
_atom_site_fract_z
Si Si1 0.748872 0.007221 0.500000
Si Si2 0.016664 0.330689 0.500000
Si Si3 0.500000 0.000000 0.250000
Si Si4 0.590976 0.802017 0.295956
Si Si5 0.923426 0.224119 0.101196
Si Si6 0.000000 0.000000 0.579507
O O1 0.620327 0.091535 0.500000
O O2 0.851383 0.022138 0.548058
O O3 0.674821 0.891764 0.500000
O O4 0.999848 0.259225 0.450665
O O5 0.602988 0.926610 0.285446
O O6 0.500000 0.749102 0.250000
O O7 0.750000 0.750000 0.298268
O O8 0.511446 0.784595 0.349962
O O9 0.750000 0.250000 0.096301
O O10 0.961218 0.102540 0.111894
#
# Coordination Sequence:
#
# PCOD8277280 Si02
#       6
#     8   8   4  16  16   8
#     4  10  22  37  61  88 127 172 213 245 312 373
#     4  11  21  39  61  94 128 167 206 256 312 379
#     4   8  20  44  66  88 124 160 202 272 302 374
#     4   9  21  46  66  93 125 166 209 263 318 369
#     4  11  22  41  63  89 132 165 202 260 319 370
#     4  11  22  40  59  90 124 170 207 255 310 370
#
# _framework density 19.556267999999999
#
# number of rings (size 3 to 8) (size 9 to 14) (size 15 to 20)
#    0.800    1.067    2.667    2.000    0.000    4.267 
#   14.400    0.000    0.000    0.000    0.000    0.000 
#    0.000    0.000    0.000    0.000    0.000    0.000 
#
# Total GULP energy -371714.755039 kJ/mol
# GULP energy per Si atom -12390.491835 kJ/mol
# Density = 1.951176 g / cm^3
# Si number density = 19.556268 Si / 1000 Ang^3
#
#
#
# Elastic Constant Matrix: (Units=GPa)
#
#
# Indices 1 2 3 4 5 6 
#
# 1 64.9890 33.8591 22.3705 0.0000 0.0000 0.0000
# 2 33.8591 161.6439 61.6488 0.0000 0.0000 0.0000
# 3 22.3705 61.6488 171.8490 0.0000 0.0000 0.0000
# 4 0.0000 0.0000 0.0000 -107.6034 0.0000 0.0000
# 5 0.0000 0.0000 0.0000 0.0000 -562.5097 0.0000
# 6 0.0000 0.0000 0.0000 0.0000 0.0000 30.5924
#
#
#
# Elastic Compliance Matrix: (Units=1/GPa)
#
#
# Indices 1 2 3 4 5 6 
#
# 1 0.017454 -0.003232 -0.001113 0.000000 0.000000 0.000000
# 2 -0.003232 0.007765 -0.002365 0.000000 0.000000 0.000000
# 3 -0.001113 -0.002365 0.006812 0.000000 0.000000 0.000000
# 4 0.000000 0.000000 0.000000 -0.009293 0.000000 0.000000
# 5 0.000000 0.000000 0.000000 0.000000 -0.001778 0.000000
# 6 0.000000 0.000000 0.000000 0.000000 0.000000 0.032688
#
#
# Mechanical properties :
#
#
# Convention : Reuss Voigt Hill
#
# Bulk Modulus (GPa) = 53.72664 70.47097 62.09881
# Shear Modulus (GPa) = 68.23938 -109.19724 -20.47893
#
# Velocity S-wave (km/s) = 5.91351 -7.48055 -3.23953
# Velocity P-wave (km/s) = 8.61154 6.20471 4.22258
#
# Compressibility (1/GPa) = 0.01861274
#
# Stress axis : x y z
#
# Youngs Moduli (GPa) = 57.29371 128.77707 146.79227
#
# Poissons Ratio (x) = 0.41616 0.16334
# Poissons Ratio (y) = 0.18515 0.34717
# Poissons Ratio (z) = 0.06375 0.30456
#
# Static dielectric constant tensor:
#      x y z
#    x 3.341400 0.000000 0.000000 
#    y 0.000000 3.677160 0.000000 
#    z 0.000000 0.000000 4.120310 
# 
# 
# High freq. dielectric constant tensor:
#      x y z
#    x 1.745380 0.000000 0.000000 
#    y 0.000000 1.765990 0.000000 
#    z 0.000000 0.000000 1.761410 
# 
# From -- ./inp_files/64225.got.cif
#   From: 2010.03.12/outbox.cif.g09.slc.cpg/sg66_33_cif.got.tgz:64225.got - 2010.04.10 21:57:39.
