data_PCOD8277426
_publ_section_title
;
Structure prediction by ZEFSAII (Michael W. Deem and Ramdas Pophale) SiO2 
 PCOD8277426
Probable space group: C C C M
;
_chemical_formula_sum "Si O2"
_cell_formula_units_Z 64
_cell_length_a 16.215874
_cell_length_b 11.797953
_cell_length_c 13.819043
_cell_angle_alpha 90.000000
_cell_angle_beta 90.000000
_cell_angle_gamma 90.000000
_cell_volume 2643.778041
_symmetry_space_group_name_H-M "C C C M"
_symmetry_group_IT_number 66
_symmetry_cell_setting 'orthorhombic'
loop_
_space_group_symop_operation_xyz
x,y,z
-x,-y,z
x,-y,1/2-z
-x,y,1/2-z
-x,-y,-z
x,y,-z
-x,y,1/2+z
x,-y,1/2+z
1/2+x,1/2+y,z
1/2-x,1/2-y,z
1/2+x,1/2-y,1/2-z
1/2-x,1/2+y,1/2-z
1/2-x,1/2-y,-z
1/2+x,1/2+y,-z
1/2-x,1/2+y,1/2+z
1/2+x,1/2-y,1/2+z
loop_
_atom_site_type_symbol
_atom_site_label
_atom_site_fract_x
_atom_site_fract_y
_atom_site_fract_z
Si Si1 0.859074 0.198000 0.885423
Si Si2 0.185948 0.050085 0.110264
Si Si3 0.547348 0.722542 0.890147
Si Si4 0.665826 0.872466 0.230471
O O1 0.816619 0.303474 0.830249
O O2 0.954885 0.198546 0.854940
O O3 0.820115 0.078400 0.848996
O O4 0.846112 0.213894 0.000000
O O5 0.095990 0.104579 0.119107
O O6 0.249599 0.127605 0.169387
O O7 0.216527 0.047804 0.000000
O O8 0.590129 0.819059 0.827320
O O9 0.546780 0.766677 0.000000
O O10 0.637509 0.000000 0.250000
#
# Coordination Sequence:
#
# PCOD8277426 Si02
#       4
#    16  16  16  16
#     4  10  24  46  72 103 139 186 238 294 352 412
#     4  10  23  44  73 104 137 181 238 298 355 414
#     4  10  22  44  73 102 137 183 239 296 351 411
#     4  12  27  41  66 103 146 188 233 284 351 426
#
# _framework density 24.207782000000002
#
# number of rings (size 3 to 8) (size 9 to 14) (size 15 to 20)
#    0.000    1.500    0.000    3.000    7.000    9.000 
#    0.000    7.500    0.000    0.000    0.000    0.000 
#    0.000    2.000    0.000    0.000    0.000    0.000 
#
# Total GULP energy -396993.877028 kJ/mol
# GULP energy per Si atom -12406.058657 kJ/mol
# Density = 2.415268 g / cm^3
# Si number density = 24.207782 Si / 1000 Ang^3
#
#
#
# Elastic Constant Matrix: (Units=GPa)
#
#
# Indices 1 2 3 4 5 6 
#
# 1 115.5627 45.9314 38.1077 0.0000 0.0000 0.0000
# 2 45.9314 168.2508 68.9802 0.0000 0.0000 0.0000
# 3 38.1077 68.9802 84.4699 0.0000 0.0000 0.0000
# 4 0.0000 0.0000 0.0000 45.3612 0.0000 0.0000
# 5 0.0000 0.0000 0.0000 0.0000 33.2182 0.0000
# 6 0.0000 0.0000 0.0000 0.0000 0.0000 42.7161
#
#
#
# Elastic Compliance Matrix: (Units=1/GPa)
#
#
# Indices 1 2 3 4 5 6 
#
# 1 0.010372 -0.001373 -0.003558 0.000000 0.000000 0.000000
# 2 -0.001373 0.009117 -0.006826 0.000000 0.000000 0.000000
# 3 -0.003558 -0.006826 0.019018 0.000000 0.000000 0.000000
# 4 0.000000 0.000000 0.000000 0.022045 0.000000 0.000000
# 5 0.000000 0.000000 0.000000 0.000000 0.030104 0.000000
# 6 0.000000 0.000000 0.000000 0.000000 0.000000 0.023410
#
#
# Mechanical properties :
#
#
# Convention : Reuss Voigt Hill
#
# Bulk Modulus (GPa) = 66.69593 74.92467 70.81030
# Shear Modulus (GPa) = 35.06864 38.61003 36.83934
#
# Velocity S-wave (km/s) = 3.81024 3.99801 3.90525
# Velocity P-wave (km/s) = 6.85336 7.23394 7.04622
#
# Compressibility (1/GPa) = 0.01499342
#
# Stress axis : x y z
#
# Youngs Moduli (GPa) = 96.41060 109.68965 52.58231
#
# Poissons Ratio (x) = 0.15057 0.18711
# Poissons Ratio (y) = 0.13234 0.35891
# Poissons Ratio (z) = 0.34306 0.74870
#
# Static dielectric constant tensor:
#      x y z
#    x 4.388430 0.000000 0.000000 
#    y 0.000000 4.369800 0.000000 
#    z 0.000000 0.000000 4.622380 
# 
# 
# High freq. dielectric constant tensor:
#      x y z
#    x 1.973860 0.000000 0.000000 
#    y 0.000000 1.961180 0.000000 
#    z 0.000000 0.000000 1.981450 
# 
# From -- ./inp_files/25793.got.cif
#   From: 2010.03.12/outbox.cif.g09.slc.cpg/sg66_13_cif.got.tgz:25793.got - 2010.04.10 21:57:39.
