data_PCOD8277479
_publ_section_title
;
Structure prediction by ZEFSAII (Michael W. Deem and Ramdas Pophale) SiO2 
 PCOD8277479
Probable space group: C C C M
;
_chemical_formula_sum "Si O2"
_cell_formula_units_Z 64
_cell_length_a 9.076577
_cell_length_b 22.597136
_cell_length_c 13.028462
_cell_angle_alpha 90.000000
_cell_angle_beta 90.000000
_cell_angle_gamma 90.000000
_cell_volume 2672.198072
_symmetry_space_group_name_H-M "C C C M"
_symmetry_group_IT_number 66
_symmetry_cell_setting 'orthorhombic'
loop_
_space_group_symop_operation_xyz
x,y,z
-x,-y,z
x,-y,1/2-z
-x,y,1/2-z
-x,-y,-z
x,y,-z
-x,y,1/2+z
x,-y,1/2+z
1/2+x,1/2+y,z
1/2-x,1/2-y,z
1/2+x,1/2-y,1/2-z
1/2-x,1/2+y,1/2-z
1/2-x,1/2-y,-z
1/2+x,1/2+y,-z
1/2-x,1/2+y,1/2+z
1/2+x,1/2-y,1/2+z
loop_
_atom_site_type_symbol
_atom_site_label
_atom_site_fract_x
_atom_site_fract_y
_atom_site_fract_z
Si Si1 0.404587 0.583865 0.622208
Si Si2 0.285579 0.815505 0.687300
Si Si3 0.590256 0.857178 0.384634
Si Si4 0.215140 0.036787 0.379171
O O1 0.397633 0.588496 0.500000
O O2 0.359340 0.645923 0.671157
O O3 0.293319 0.531063 0.664202
O O4 0.571279 0.572306 0.660791
O O5 0.250000 0.750000 0.646361
O O6 0.415357 0.848060 0.623386
O O7 0.329554 0.811903 0.807389
O O8 0.643724 0.843346 0.500000
O O9 0.637503 0.925027 0.353841
O O10 0.197942 0.028831 0.500000
#
# Coordination Sequence:
#
# PCOD8277479 Si02
#       4
#    16  16  16  16
#     4   9  18  36  63  94 128 159 196 251 303 359
#     4  11  25  41  60  90 122 160 207 245 297 370
#     4  10  23  43  63  86 120 159 202 255 307 358
#     4   8  17  36  63  94 122 156 201 248 309 364
#
# _framework density 23.950322
#
# number of rings (size 3 to 8) (size 9 to 14) (size 15 to 20)
#    0.000    2.500    0.000    2.250    0.000    9.500 
#    0.000   11.250    0.000    0.000    0.000    0.000 
#    0.000    0.000    0.000    0.000    0.000    0.000 
#
# Total GULP energy -396659.976038 kJ/mol
# GULP energy per Si atom -12395.624251 kJ/mol
# Density = 2.389581 g / cm^3
# Si number density = 23.950322 Si / 1000 Ang^3
#
#
#
# Elastic Constant Matrix: (Units=GPa)
#
#
# Indices 1 2 3 4 5 6 
#
# 1 101.2738 81.7771 19.3032 0.0000 0.0000 0.0000
# 2 81.7771 187.8267 25.9783 0.0000 0.0000 0.0000
# 3 19.3032 25.9783 53.5661 0.0000 0.0000 0.0000
# 4 0.0000 0.0000 0.0000 21.2143 0.0000 0.0000
# 5 0.0000 0.0000 0.0000 0.0000 27.2990 0.0000
# 6 0.0000 0.0000 0.0000 0.0000 0.0000 41.8118
#
#
#
# Elastic Compliance Matrix: (Units=1/GPa)
#
#
# Indices 1 2 3 4 5 6 
#
# 1 0.015530 -0.006418 -0.002484 0.000000 0.000000 0.000000
# 2 -0.006418 0.008359 -0.001741 0.000000 0.000000 0.000000
# 3 -0.002484 -0.001741 0.020408 0.000000 0.000000 0.000000
# 4 0.000000 0.000000 0.000000 0.047138 0.000000 0.000000
# 5 0.000000 0.000000 0.000000 0.000000 0.036631 0.000000
# 6 0.000000 0.000000 0.000000 0.000000 0.000000 0.023917
#
#
# Mechanical properties :
#
#
# Convention : Reuss Voigt Hill
#
# Bulk Modulus (GPa) = 43.45714 66.30930 54.88322
# Shear Modulus (GPa) = 27.63343 32.43888 30.03616
#
# Velocity S-wave (km/s) = 3.40042 3.68424 3.54517
# Velocity P-wave (km/s) = 5.79666 6.77085 6.30261
#
# Compressibility (1/GPa) = 0.02301118
#
# Stress axis : x y z
#
# Youngs Moduli (GPa) = 64.39089 119.62848 49.00022
#
# Poissons Ratio (x) = 0.76778 0.12171
# Poissons Ratio (y) = 0.41326 0.08532
# Poissons Ratio (z) = 0.15994 0.20830
#
# Static dielectric constant tensor:
#      x y z
#    x 4.156410 0.000000 0.000000 
#    y 0.000000 4.131150 0.000000 
#    z 0.000000 0.000000 4.485640 
# 
# 
# High freq. dielectric constant tensor:
#      x y z
#    x 1.928630 0.000000 0.000000 
#    y 0.000000 1.930080 0.000000 
#    z 0.000000 0.000000 1.978410 
# 
# From -- ./inp_files/24143.got.cif
#   From: 2010.03.12/outbox.cif.g09.slc.cpg/sg66_13_cif.got.tgz:24143.got - 2010.04.10 21:57:39.
