data_PCOD8277051
_publ_section_title
;
Structure prediction by ZEFSAII (Michael W. Deem and Ramdas Pophale) SiO2 
 PCOD8277051
Probable space group: C C C M
;
_chemical_formula_sum "Si O2"
_cell_formula_units_Z 80
_cell_length_a 27.333451
_cell_length_b 17.932342
_cell_length_c 8.437258
_cell_angle_alpha 90.000000
_cell_angle_beta 90.000000
_cell_angle_gamma 90.000000
_cell_volume 4135.545560
_symmetry_space_group_name_H-M "C C C M"
_symmetry_group_IT_number 66
_symmetry_cell_setting 'orthorhombic'
loop_
_space_group_symop_operation_xyz
x,y,z
-x,-y,z
x,-y,1/2-z
-x,y,1/2-z
-x,-y,-z
x,y,-z
-x,y,1/2+z
x,-y,1/2+z
1/2+x,1/2+y,z
1/2-x,1/2-y,z
1/2+x,1/2-y,1/2-z
1/2-x,1/2+y,1/2-z
1/2-x,1/2-y,-z
1/2+x,1/2+y,-z
1/2-x,1/2+y,1/2+z
1/2+x,1/2-y,1/2+z
loop_
_atom_site_type_symbol
_atom_site_label
_atom_site_fract_x
_atom_site_fract_y
_atom_site_fract_z
Si Si1 0.815366 0.631340 0.816654
Si Si2 0.948335 0.269547 0.685460
Si Si3 0.413365 0.921212 0.184605
Si Si4 0.849178 0.219547 0.183986
Si Si5 0.713653 0.421335 0.814589
O O1 0.855356 0.587184 0.713485
O O2 0.817918 0.719450 0.780331
O O3 0.762525 0.599957 0.777552
O O4 0.827449 0.617550 0.000000
O O5 0.944881 0.256080 0.500000
O O6 0.942417 0.356935 0.723260
O O7 0.906055 0.221473 0.769336
O O8 0.000000 0.240096 0.750000
O O9 0.432308 0.000000 0.250000
O O10 0.425098 0.914275 0.000000
O O11 0.828397 0.138304 0.224576
O O12 0.843299 0.239132 0.000000
O O13 0.694070 0.500000 0.750000
O O14 0.725231 0.425032 0.000000
#
# Coordination Sequence:
#
# PCOD8277051 Si02
#       5
#    16  16  16  16  16
#     4  11  21  34  54  80 111 148 187 222 261 313
#     4  11  22  38  59  82 106 137 178 222 271 323
#     4  11  21  35  53  77 111 147 184 224 267 314
#     4  10  21  38  58  81 109 142 180 223 269 317
#     4  11  23  37  55  80 112 146 181 222 268 318
#
# _framework density 19.344486
#
# number of rings (size 3 to 8) (size 9 to 14) (size 15 to 20)
#    0.000    1.200    0.000   10.200    0.000    6.000 
#    0.000    2.000    0.000    0.600    0.000    4.200 
#    0.000    0.000    0.000    0.000    0.000    0.000 
#
# Total GULP energy -496244.990248 kJ/mol
# GULP energy per Si atom -12406.124756 kJ/mol
# Density = 1.930046 g / cm^3
# Si number density = 19.344486 Si / 1000 Ang^3
#
#
#
# Elastic Constant Matrix: (Units=GPa)
#
#
# Indices 1 2 3 4 5 6 
#
# 1 63.6920 17.8430 -11.7453 0.0000 0.0000 0.0000
# 2 17.8430 82.1940 2.7893 0.0000 0.0000 0.0000
# 3 -11.7453 2.7893 61.8458 0.0000 0.0000 0.0000
# 4 0.0000 0.0000 0.0000 22.7639 0.0000 0.0000
# 5 0.0000 0.0000 0.0000 0.0000 15.9152 0.0000
# 6 0.0000 0.0000 0.0000 0.0000 0.0000 0.3982
#
#
#
# Elastic Compliance Matrix: (Units=1/GPa)
#
#
# Indices 1 2 3 4 5 6 
#
# 1 0.017437 -0.003904 0.003488 0.000000 0.000000 0.000000
# 2 -0.003904 0.013059 -0.001330 0.000000 0.000000 0.000000
# 3 0.003488 -0.001330 0.016892 0.000000 0.000000 0.000000
# 4 0.000000 0.000000 0.000000 0.043929 0.000000 0.000000
# 5 0.000000 0.000000 0.000000 0.000000 0.062833 0.000000
# 6 0.000000 0.000000 0.000000 0.000000 0.000000 2.511176
#
#
# Mechanical properties :
#
#
# Convention : Reuss Voigt Hill
#
# Bulk Modulus (GPa) = 22.78163 25.05618 23.91890
# Shear Modulus (GPa) = 1.86327 21.07178 11.46753
#
# Velocity S-wave (km/s) = 0.98250 3.30402 2.43740
# Velocity P-wave (km/s) = 3.61793 5.24749 4.50697
#
# Compressibility (1/GPa) = 0.04389502
#
# Stress axis : x y z
#
# Youngs Moduli (GPa) = 57.34827 76.57608 59.20104
#
# Poissons Ratio (x) = 0.29893 -0.20647
# Poissons Ratio (y) = 0.22387 0.07876
# Poissons Ratio (z) = -0.20001 0.10187
#
# Static dielectric constant tensor:
#      x y z
#    x 3.557430 0.000000 0.000000 
#    y 0.000000 3.550090 0.000000 
#    z 0.000000 0.000000 3.681240 
# 
# 
# High freq. dielectric constant tensor:
#      x y z
#    x 1.745890 0.000000 0.000000 
#    y 0.000000 1.736960 0.000000 
#    z 0.000000 0.000000 1.772510 
# 
# From -- ./inp_files/6689.got.cif
#   From: 2010.03.12/outbox.cif.g09.slc.cpg/sg66_4_cif.got.tgz:6689.got - 2010.04.10 21:57:39.
