data_PCOD8277444
_publ_section_title
;
Structure prediction by ZEFSAII (Michael W. Deem and Ramdas Pophale) SiO2 
 PCOD8277444
Probable space group: C C C M
;
_chemical_formula_sum "Si O2"
_cell_formula_units_Z 88
_cell_length_a 13.949701
_cell_length_b 13.483670
_cell_length_c 22.559900
_cell_angle_alpha 90.000000
_cell_angle_beta 90.000000
_cell_angle_gamma 90.000000
_cell_volume 4243.362990
_symmetry_space_group_name_H-M "C C C M"
_symmetry_group_IT_number 66
_symmetry_cell_setting 'orthorhombic'
loop_
_space_group_symop_operation_xyz
x,y,z
-x,-y,z
x,-y,1/2-z
-x,y,1/2-z
-x,-y,-z
x,y,-z
-x,y,1/2+z
x,-y,1/2+z
1/2+x,1/2+y,z
1/2-x,1/2-y,z
1/2+x,1/2-y,1/2-z
1/2-x,1/2+y,1/2-z
1/2-x,1/2-y,-z
1/2+x,1/2+y,-z
1/2-x,1/2+y,1/2+z
1/2+x,1/2-y,1/2+z
loop_
_atom_site_type_symbol
_atom_site_label
_atom_site_fract_x
_atom_site_fract_y
_atom_site_fract_z
Si Si1 0.595634 0.953307 0.872731
Si Si2 0.573259 0.419781 0.138165
Si Si3 0.838342 0.500000 0.750000
Si Si4 0.705469 0.442578 0.430805
Si Si5 0.808900 0.159772 0.756236
Si Si6 0.407115 0.717689 0.638527
O O1 0.689479 0.979028 0.910944
O O2 0.589774 0.834402 0.870597
O O3 0.500000 0.000000 0.903335
O O4 0.598063 0.011834 0.809118
O O5 0.500000 0.500000 0.164382
O O6 0.631044 0.468172 0.083456
O O7 0.645055 0.399290 0.190684
O O8 0.512684 0.322458 0.119774
O O9 0.771700 0.409801 0.727783
O O10 0.704539 0.422109 0.500000
O O11 0.674438 0.338848 0.399622
O O12 0.750000 0.250000 0.784322
O O13 0.885882 0.194751 0.707600
#
# Coordination Sequence:
#
# PCOD8277444 Si02
#       6
#    16  16   8  16  16  16
#     4  12  26  42  64  98 133 171 211 261 323 390
#     4  10  23  39  64  95 127 164 208 270 320 379
#     4  12  21  40  63  96 134 170 203 258 307 384
#     4  11  24  46  69  90 122 170 222 276 325 376
#     4  12  21  37  67  95 133 172 208 249 318 387
#     4  11  23  41  65 100 129 164 219 262 316 390
#
# _framework density 20.738268999999999
#
# number of rings (size 3 to 8) (size 9 to 14) (size 15 to 20)
#    0.000    0.727    5.455    2.455    2.545    8.727 
#    0.000    0.000    0.000    3.818    0.000    0.000 
#    0.000    0.000    0.000    0.000    0.000    0.000 
#
# Total GULP energy -545434.646245 kJ/mol
# GULP energy per Si atom -12396.241960 kJ/mol
# Density = 2.069107 g / cm^3
# Si number density = 20.738269 Si / 1000 Ang^3
#
#
#
# Elastic Constant Matrix: (Units=GPa)
#
#
# Indices 1 2 3 4 5 6 
#
# 1 122.5853 49.1095 26.1722 0.0000 0.0000 0.0000
# 2 49.1095 97.3815 22.3416 0.0000 0.0000 0.0000
# 3 26.1722 22.3416 98.2638 0.0000 0.0000 0.0000
# 4 0.0000 0.0000 0.0000 -18.0586 0.0000 0.0000
# 5 0.0000 0.0000 0.0000 0.0000 17.2817 0.0000
# 6 0.0000 0.0000 0.0000 0.0000 0.0000 35.4084
#
#
#
# Elastic Compliance Matrix: (Units=1/GPa)
#
#
# Indices 1 2 3 4 5 6 
#
# 1 0.010478 -0.004900 -0.001677 0.000000 0.000000 0.000000
# 2 -0.004900 0.013125 -0.001679 0.000000 0.000000 0.000000
# 3 -0.001677 -0.001679 0.011005 0.000000 0.000000 0.000000
# 4 0.000000 0.000000 0.000000 -0.055375 0.000000 0.000000
# 5 0.000000 0.000000 0.000000 0.000000 0.057865 0.000000
# 6 0.000000 0.000000 0.000000 0.000000 0.000000 0.028242
#
#
# Mechanical properties :
#
#
# Convention : Reuss Voigt Hill
#
# Bulk Modulus (GPa) = 55.25698 57.05303 56.15500
# Shear Modulus (GPa) = 56.89346 21.63345 39.26346
#
# Velocity S-wave (km/s) = 5.24343 3.23331 4.35591
# Velocity P-wave (km/s) = 7.95996 6.44281 7.24123
#
# Compressibility (1/GPa) = 0.01809726
#
# Stress axis : x y z
#
# Youngs Moduli (GPa) = 95.43397 76.19064 90.86687
#
# Poissons Ratio (x) = 0.37330 0.15238
# Poissons Ratio (y) = 0.46758 0.15258
# Poissons Ratio (z) = 0.16004 0.12794
#
# Static dielectric constant tensor:
#      x y z
#    x 4.117510 0.000000 0.000000 
#    y 0.000000 3.803010 0.000000 
#    z 0.000000 0.000000 3.348870 
# 
# 
# High freq. dielectric constant tensor:
#      x y z
#    x 1.832250 0.000000 0.000000 
#    y 0.000000 1.813390 0.000000 
#    z 0.000000 0.000000 1.775580 
# 
# From -- ./inp_files/49845.got.cif
#   From: 2010.03.12/outbox.cif.g09.slc.cpg/sg66_25_cif.got.tgz:49845.got - 2010.04.10 21:57:39.
