data_PCOD8277602
_publ_section_title
;
Structure prediction by ZEFSAII (Michael W. Deem and Ramdas Pophale) SiO2 
 PCOD8277602
Probable space group: C C C M
;
_chemical_formula_sum "Si O2"
_cell_formula_units_Z 88
_cell_length_a 13.236663
_cell_length_b 12.959160
_cell_length_c 23.125958
_cell_angle_alpha 90.000000
_cell_angle_beta 90.000000
_cell_angle_gamma 90.000000
_cell_volume 3966.935110
_symmetry_space_group_name_H-M "C C C M"
_symmetry_group_IT_number 66
_symmetry_cell_setting 'orthorhombic'
loop_
_space_group_symop_operation_xyz
x,y,z
-x,-y,z
x,-y,1/2-z
-x,y,1/2-z
-x,-y,-z
x,y,-z
-x,y,1/2+z
x,-y,1/2+z
1/2+x,1/2+y,z
1/2-x,1/2-y,z
1/2+x,1/2-y,1/2-z
1/2-x,1/2+y,1/2-z
1/2-x,1/2-y,-z
1/2+x,1/2+y,-z
1/2-x,1/2+y,1/2+z
1/2+x,1/2-y,1/2+z
loop_
_atom_site_type_symbol
_atom_site_label
_atom_site_fract_x
_atom_site_fract_y
_atom_site_fract_z
Si Si1 0.798336 0.000000 0.750000
Si Si2 0.356258 0.722108 0.754834
Si Si3 0.099285 0.937550 0.068095
Si Si4 0.798280 0.470288 0.128507
Si Si5 0.068811 0.269996 0.627441
Si Si6 0.148852 0.693275 0.369816
O O1 0.866241 0.898795 0.764187
O O2 0.730645 0.966353 0.695813
O O3 0.250000 0.750000 0.786865
O O4 0.440513 0.751201 0.802667
O O5 0.356998 0.795122 0.699261
O O6 0.201017 0.993191 0.088076
O O7 0.119597 0.827422 0.097834
O O8 0.093126 0.923902 0.000000
O O9 0.000000 0.000000 0.090510
O O10 0.867909 0.372548 0.111593
O O11 0.860577 0.573102 0.116314
O O12 0.954721 0.265750 0.602033
O O13 0.250000 0.750000 0.394388
#
# Coordination Sequence:
#
# PCOD8277602 Si02
#       6
#     8  16  16  16  16  16
#     4  12  20  36  62  98 140 172 214 271 325 392
#     4  11  20  35  57  94 133 177 215 258 322 397
#     4  11  26  47  70  96 127 170 223 279 338 401
#     4  12  22  41  66  96 135 172 218 274 328 400
#     4  12  23  39  66  97 129 173 224 271 333 390
#     4  11  23  39  59  93 138 178 216 266 329 403
#
# _framework density 22.183371999999999
#
# number of rings (size 3 to 8) (size 9 to 14) (size 15 to 20)
#    0.000    0.545    7.273    2.727    0.000    1.455 
#    0.000    5.000    0.000    5.455    0.000    0.000 
#    0.000    0.000    0.000    0.000    0.000    0.000 
#
# Total GULP energy -545290.400167 kJ/mol
# GULP energy per Si atom -12392.963640 kJ/mol
# Density = 2.213288 g / cm^3
# Si number density = 22.183372 Si / 1000 Ang^3
#
#
#
# Elastic Constant Matrix: (Units=GPa)
#
#
# Indices 1 2 3 4 5 6 
#
# 1 110.1521 27.2827 -2.1714 0.0000 0.0000 0.0000
# 2 27.2827 151.3592 9.5775 0.0000 0.0000 0.0000
# 3 -2.1714 9.5775 37.8173 0.0000 0.0000 0.0000
# 4 0.0000 0.0000 0.0000 14.1936 0.0000 0.0000
# 5 0.0000 0.0000 0.0000 0.0000 -0.6030 0.0000
# 6 0.0000 0.0000 0.0000 0.0000 0.0000 27.0577
#
#
#
# Elastic Compliance Matrix: (Units=1/GPa)
#
#
# Indices 1 2 3 4 5 6 
#
# 1 0.009540 -0.001783 0.000999 0.000000 0.000000 0.000000
# 2 -0.001783 0.007048 -0.001887 0.000000 0.000000 0.000000
# 3 0.000999 -0.001887 0.026978 0.000000 0.000000 0.000000
# 4 0.000000 0.000000 0.000000 0.070454 0.000000 0.000000
# 5 0.000000 0.000000 0.000000 0.000000 -1.658371 0.000000
# 6 0.000000 0.000000 0.000000 0.000000 0.000000 0.036958
#
#
# Mechanical properties :
#
#
# Convention : Reuss Voigt Hill
#
# Bulk Modulus (GPa) = 26.16161 40.96737 33.56449
# Shear Modulus (GPa) = -3.35726 25.77230 11.20752
#
# Velocity S-wave (km/s) = -1.23154 3.41219 2.25015
# Velocity P-wave (km/s) = 3.12996 5.83368 4.68126
#
# Compressibility (1/GPa) = 0.03822395
#
# Stress axis : x y z
#
# Youngs Moduli (GPa) = 104.82609 141.89304 37.06694
#
# Poissons Ratio (x) = 0.25296 -0.03704
# Poissons Ratio (y) = 0.18688 0.06995
# Poissons Ratio (z) = -0.10475 0.26778
#
# Static dielectric constant tensor:
#      x y z
#    x 4.312540 0.000000 0.000000 
#    y 0.000000 4.237470 0.000000 
#    z 0.000000 0.000000 3.498100 
# 
# 
# High freq. dielectric constant tensor:
#      x y z
#    x 1.880580 0.000000 0.000000 
#    y 0.000000 1.893010 0.000000 
#    z 0.000000 0.000000 1.824800 
# 
# From -- ./inp_files/64531.got.cif
#   From: 2010.03.12/outbox.cif.g09.slc.cpg/sg66_33_cif.got.tgz:64531.got - 2010.04.10 21:57:39.
