data_PCOD8277851
_publ_section_title
;
Structure prediction by ZEFSAII (Michael W. Deem and Ramdas Pophale) SiO2 
 PCOD8277851
Probable space group: C C C M
;
_chemical_formula_sum "Si O2"
_cell_formula_units_Z 80
_cell_length_a 11.042918
_cell_length_b 14.234461
_cell_length_c 24.998543
_cell_angle_alpha 90.000000
_cell_angle_beta 90.000000
_cell_angle_gamma 90.000000
_cell_volume 3929.520614
_symmetry_space_group_name_H-M "C C C M"
_symmetry_group_IT_number 66
_symmetry_cell_setting 'orthorhombic'
loop_
_space_group_symop_operation_xyz
x,y,z
-x,-y,z
x,-y,1/2-z
-x,y,1/2-z
-x,-y,-z
x,y,-z
-x,y,1/2+z
x,-y,1/2+z
1/2+x,1/2+y,z
1/2-x,1/2-y,z
1/2+x,1/2-y,1/2-z
1/2-x,1/2+y,1/2-z
1/2-x,1/2-y,-z
1/2+x,1/2+y,-z
1/2-x,1/2+y,1/2+z
1/2+x,1/2-y,1/2+z
loop_
_atom_site_type_symbol
_atom_site_label
_atom_site_fract_x
_atom_site_fract_y
_atom_site_fract_z
Si Si1 0.391595 0.764407 0.404539
Si Si2 0.048131 0.787324 0.000000
Si Si3 0.709794 0.898569 0.500000
Si Si4 0.996258 0.159114 0.190163
Si Si5 0.186700 0.006439 0.690330
Si Si6 0.370171 0.974075 0.402470
O O1 0.250000 0.750000 0.395428
O O2 0.458239 0.701290 0.449381
O O3 0.466439 0.742635 0.350119
O O4 0.394509 0.870482 0.425118
O O5 0.148262 0.869994 0.000000
O O6 0.120586 0.689771 0.000000
O O7 0.684213 0.960220 0.448078
O O8 0.000000 0.202140 0.250000
O O9 0.864157 0.112268 0.178443
O O10 0.084359 0.071401 0.185056
O O11 0.241696 0.000000 0.750000
O O12 0.286821 0.977414 0.648694
O O13 0.500000 0.000000 0.380503
#
# Coordination Sequence:
#
# PCOD8277851 Si02
#       6
#    16   8   8  16  16  16
#     4  12  23  41  64  95 130 159 205 263 314 364
#     4  11  24  43  66  91 120 167 212 254 309 377
#     4  11  24  44  64  86 126 165 210 248 311 385
#     4   9  19  40  64  89 122 164 208 251 305 364
#     4   9  19  39  65  88 120 164 208 253 301 366
#     4  12  23  41  62  90 128 163 199 256 320 369
#
# _framework density 20.358716999999999
#
# number of rings (size 3 to 8) (size 9 to 14) (size 15 to 20)
#    0.000    1.400    4.000    3.600    0.000    0.400 
#    3.600    1.000    0.000    0.000    0.000    0.000 
#    0.000    0.000    0.000    0.000    0.000    0.000 
#
# Total GULP energy -495666.702696 kJ/mol
# GULP energy per Si atom -12391.667567 kJ/mol
# Density = 2.031238 g / cm^3
# Si number density = 20.358717 Si / 1000 Ang^3
#
#
#
# Elastic Constant Matrix: (Units=GPa)
#
#
# Indices 1 2 3 4 5 6 
#
# 1 90.0315 10.3135 54.8492 0.0000 0.0000 0.0000
# 2 10.3135 72.3449 27.8123 0.0000 0.0000 0.0000
# 3 54.8492 27.8123 140.1668 0.0000 0.0000 0.0000
# 4 0.0000 0.0000 0.0000 28.2001 0.0000 0.0000
# 5 0.0000 0.0000 0.0000 0.0000 87.4489 0.0000
# 6 0.0000 0.0000 0.0000 0.0000 0.0000 24.2171
#
#
#
# Elastic Compliance Matrix: (Units=1/GPa)
#
#
# Indices 1 2 3 4 5 6 
#
# 1 0.014585 0.000124 -0.005732 0.000000 0.000000 0.000000
# 2 0.000124 0.014965 -0.003018 0.000000 0.000000 0.000000
# 3 -0.005732 -0.003018 0.009976 0.000000 0.000000 0.000000
# 4 0.000000 0.000000 0.000000 0.035461 0.000000 0.000000
# 5 0.000000 0.000000 0.000000 0.000000 0.011435 0.000000
# 6 0.000000 0.000000 0.000000 0.000000 0.000000 0.041293
#
#
# Mechanical properties :
#
#
# Convention : Reuss Voigt Hill
#
# Bulk Modulus (GPa) = 44.89338 54.27701 49.58519
# Shear Modulus (GPa) = 32.81005 41.94442 37.37724
#
# Velocity S-wave (km/s) = 4.01883 4.54394 4.28943
# Velocity P-wave (km/s) = 6.60558 7.36533 6.99578
#
# Compressibility (1/GPa) = 0.02227500
#
# Stress axis : x y z
#
# Youngs Moduli (GPa) = 68.56346 66.82156 100.23830
#
# Poissons Ratio (x) = -0.00831 0.57457
# Poissons Ratio (y) = -0.00853 0.30253
# Poissons Ratio (z) = 0.39301 0.20167
#
# Static dielectric constant tensor:
#      x y z
#    x 3.164260 0.000000 0.000000 
#    y 0.000000 3.592570 0.000000 
#    z 0.000000 0.000000 3.900190 
# 
# 
# High freq. dielectric constant tensor:
#      x y z
#    x 1.801540 0.000000 0.000000 
#    y 0.000000 1.785670 0.000000 
#    z 0.000000 0.000000 1.802050 
# 
# From -- ./inp_files/56634.got.cif
#   From: 2010.03.12/outbox.cif.g09.slc.cpg/sg66_29_cif.got.tgz:56634.got - 2010.04.10 21:57:39.
