data_PCOD8277893
_publ_section_title
;
Structure prediction by ZEFSAII (Michael W. Deem and Ramdas Pophale) SiO2 
 PCOD8277893
Probable space group: C C C M
;
_chemical_formula_sum "Si O2"
_cell_formula_units_Z 40
_cell_length_a 7.327514
_cell_length_b 11.413867
_cell_length_c 19.499316
_cell_angle_alpha 90.000000
_cell_angle_beta 90.000000
_cell_angle_gamma 90.000000
_cell_volume 1630.830563
_symmetry_space_group_name_H-M "C C C M"
_symmetry_group_IT_number 66
_symmetry_cell_setting 'orthorhombic'
loop_
_space_group_symop_operation_xyz
x,y,z
-x,-y,z
x,-y,1/2-z
-x,y,1/2-z
-x,-y,-z
x,y,-z
-x,y,1/2+z
x,-y,1/2+z
1/2+x,1/2+y,z
1/2-x,1/2-y,z
1/2+x,1/2-y,1/2-z
1/2-x,1/2+y,1/2-z
1/2-x,1/2-y,-z
1/2+x,1/2+y,-z
1/2-x,1/2+y,1/2+z
1/2+x,1/2-y,1/2+z
loop_
_atom_site_type_symbol
_atom_site_label
_atom_site_fract_x
_atom_site_fract_y
_atom_site_fract_z
Si Si1 0.088691 0.834836 0.682707
Si Si2 0.250000 0.750000 0.109551
Si Si3 0.793996 0.503045 0.924215
O O1 0.250000 0.750000 0.706141
O O2 0.000000 0.896829 0.750000
O O3 0.936708 0.747383 0.652611
O O4 0.159977 0.932883 0.629180
O O5 0.265310 0.631585 0.065550
O O6 0.000000 0.500000 0.896109
O O7 0.781457 0.563192 0.000000
#
# Coordination Sequence:
#
# PCOD8277893 Si02
#       3
#    16   8  16
#     4  12  26  50  76 111 153 204 260 318 386 456
#     4  12  25  46  78 110 151 200 244 320 385 456
#     4  11  26  48  78 116 156 200 254 318 387 463
#
# _framework density 24.527379
#
# number of rings (size 3 to 8) (size 9 to 14) (size 15 to 20)
#    0.000    0.400    6.000    1.800    0.000    8.800 
#    0.000    4.000    0.000    0.000    0.000    0.000 
#    0.000    0.000    0.000    0.000    0.000    0.000 
#
# Total GULP energy -247817.719308 kJ/mol
# GULP energy per Si atom -12390.885965 kJ/mol
# Density = 2.447155 g / cm^3
# Si number density = 24.527379 Si / 1000 Ang^3
#
#
#
# Elastic Constant Matrix: (Units=GPa)
#
#
# Indices 1 2 3 4 5 6 
#
# 1 182.2197 42.7127 76.5441 0.0000 0.0000 0.0000
# 2 42.7127 139.7669 54.6256 0.0000 0.0000 0.0000
# 3 76.5441 54.6256 171.2021 0.0000 0.0000 0.0000
# 4 0.0000 0.0000 0.0000 31.2089 0.0000 0.0000
# 5 0.0000 0.0000 0.0000 0.0000 27.8726 0.0000
# 6 0.0000 0.0000 0.0000 0.0000 0.0000 37.7072
#
#
#
# Elastic Compliance Matrix: (Units=1/GPa)
#
#
# Indices 1 2 3 4 5 6 
#
# 1 0.006884 -0.001029 -0.002749 0.000000 0.000000 0.000000
# 2 -0.001029 0.008328 -0.002197 0.000000 0.000000 0.000000
# 3 -0.002749 -0.002197 0.007771 0.000000 0.000000 0.000000
# 4 0.000000 0.000000 0.000000 0.032042 0.000000 0.000000
# 5 0.000000 0.000000 0.000000 0.000000 0.035878 0.000000
# 6 0.000000 0.000000 0.000000 0.000000 0.000000 0.026520
#
#
# Mechanical properties :
#
#
# Convention : Reuss Voigt Hill
#
# Bulk Modulus (GPa) = 90.64576 93.43927 92.04251
# Shear Modulus (GPa) = 37.57928 40.64482 39.11205
#
# Velocity S-wave (km/s) = 3.91850 4.07519 3.99761
# Velocity P-wave (km/s) = 7.58354 7.76669 7.67566
#
# Compressibility (1/GPa) = 0.01103196
#
# Stress axis : x y z
#
# Youngs Moduli (GPa) = 145.26263 120.07721 128.67770
#
# Poissons Ratio (x) = 0.12358 0.35380
# Poissons Ratio (y) = 0.14950 0.28271
# Poissons Ratio (z) = 0.39940 0.26382
#
# Static dielectric constant tensor:
#      x y z
#    x 4.765040 0.000000 0.000000 
#    y 0.000000 4.171330 0.000000 
#    z 0.000000 0.000000 4.226010 
# 
# 
# High freq. dielectric constant tensor:
#      x y z
#    x 2.003160 0.000000 0.000000 
#    y 0.000000 1.968060 0.000000 
#    z 0.000000 0.000000 1.965690 
# 
# From -- ./inp_files/35349.got.cif
#   From: 2010.03.12/outbox.cif.g09.slc.cpg/sg66_18_cif.got.tgz:35349.got - 2010.04.10 21:57:39.
