data_PCOD8277299
_publ_section_title
;
Structure prediction by ZEFSAII (Michael W. Deem and Ramdas Pophale) SiO2 
 PCOD8277299
Probable space group: C C C M
;
_chemical_formula_sum "Si O2"
_cell_formula_units_Z 88
_cell_length_a 5.096486
_cell_length_b 34.270937
_cell_length_c 24.769171
_cell_angle_alpha 90.000000
_cell_angle_beta 90.000000
_cell_angle_gamma 90.000000
_cell_volume 4326.216861
_symmetry_space_group_name_H-M "C C C M"
_symmetry_group_IT_number 66
_symmetry_cell_setting 'orthorhombic'
loop_
_space_group_symop_operation_xyz
x,y,z
-x,-y,z
x,-y,1/2-z
-x,y,1/2-z
-x,-y,-z
x,y,-z
-x,y,1/2+z
x,-y,1/2+z
1/2+x,1/2+y,z
1/2-x,1/2-y,z
1/2+x,1/2-y,1/2-z
1/2-x,1/2+y,1/2-z
1/2-x,1/2-y,-z
1/2+x,1/2+y,-z
1/2-x,1/2+y,1/2+z
1/2+x,1/2-y,1/2+z
loop_
_atom_site_type_symbol
_atom_site_label
_atom_site_fract_x
_atom_site_fract_y
_atom_site_fract_z
Si Si1 0.295161 0.627233 0.000000
Si Si2 0.651112 0.604595 0.844912
Si Si3 0.500000 0.352214 0.750000
Si Si4 0.366168 0.145070 0.612997
Si Si5 0.749985 0.526280 0.892042
Si Si6 0.836851 0.706992 0.694806
Si Si7 0.303875 0.074938 0.000000
O O1 0.236999 0.653984 0.052647
O O2 0.588073 0.609708 0.000000
O O3 0.097680 0.591139 0.000000
O O4 0.705943 0.620682 0.783496
O O5 0.353390 0.617580 0.858739
O O6 0.686893 0.557986 0.845112
O O7 0.862787 0.620914 0.887866
O O8 0.397442 0.322753 0.704694
O O9 0.457924 0.185850 0.642219
O O10 0.500000 0.500000 0.897897
O O11 0.781726 0.547938 0.948316
O O12 0.000000 0.500000 0.876533
O O13 0.750000 0.750000 0.677717
O O14 0.000000 0.709425 0.750000
#
# Coordination Sequence:
#
# PCOD8277299 Si02
#       7
#     8  16   8  16  16  16   8
#     4  12  20  39  61  88 126 167 214 251 296 374
#     4  11  22  40  61  89 119 161 212 249 311 369
#     4  10  22  38  65  88 120 158 200 260 299 370
#     4  11  22  38  61  90 125 168 204 249 301 375
#     4  12  23  38  57  88 125 158 204 265 315 361
#     4  11  21  37  63  97 126 153 198 261 318 357
#     4  12  22  37  60  88 119 161 210 265 307 358
#
# _framework density 20.341094999999999
#
# number of rings (size 3 to 8) (size 9 to 14) (size 15 to 20)
#    0.000    0.727    6.364    2.727    0.000    0.000 
#    0.000    0.909    0.000    1.091    0.000    5.727 
#    0.000    0.000    0.000    0.000    0.000    0.000 
#
# Total GULP energy -545089.562157 kJ/mol
# GULP energy per Si atom -12388.399140 kJ/mol
# Density = 2.029480 g / cm^3
# Si number density = 20.341095 Si / 1000 Ang^3
#
#
#
# Elastic Constant Matrix: (Units=GPa)
#
#
# Indices 1 2 3 4 5 6 
#
# 1 81.7035 21.9939 2.7460 0.0000 0.0000 0.0000
# 2 21.9939 126.7857 49.8453 0.0000 0.0000 0.0000
# 3 2.7460 49.8453 77.0056 0.0000 0.0000 0.0000
# 4 0.0000 0.0000 0.0000 -32.2737 0.0000 0.0000
# 5 0.0000 0.0000 0.0000 0.0000 26.9216 0.0000
# 6 0.0000 0.0000 0.0000 0.0000 0.0000 25.1919
#
#
#
# Elastic Compliance Matrix: (Units=1/GPa)
#
#
# Indices 1 2 3 4 5 6 
#
# 1 0.012940 -0.002768 0.001330 0.000000 0.000000 0.000000
# 2 -0.002768 0.011172 -0.007133 0.000000 0.000000 0.000000
# 3 0.001330 -0.007133 0.017556 0.000000 0.000000 0.000000
# 4 0.000000 0.000000 0.000000 -0.030985 0.000000 0.000000
# 5 0.000000 0.000000 0.000000 0.000000 0.037145 0.000000
# 6 0.000000 0.000000 0.000000 0.000000 0.000000 0.039695
#
#
# Mechanical properties :
#
#
# Convention : Reuss Voigt Hill
#
# Bulk Modulus (GPa) = 40.77233 48.29616 44.53425
# Shear Modulus (GPa) = 44.31137 18.02860 31.16999
#
# Velocity S-wave (km/s) = 4.67241 2.98033 3.91879
# Velocity P-wave (km/s) = 7.01402 5.96975 6.51285
#
# Compressibility (1/GPa) = 0.02452644
#
# Stress axis : x y z
#
# Youngs Moduli (GPa) = 77.28164 89.51276 56.96207
#
# Poissons Ratio (x) = 0.24773 -0.07576
# Poissons Ratio (y) = 0.21388 0.40629
# Poissons Ratio (z) = -0.10279 0.63846
#
# Static dielectric constant tensor:
#      x y z
#    x 3.703370 0.000000 0.000000 
#    y 0.000000 3.790240 0.000000 
#    z 0.000000 0.000000 4.469690 
# 
# 
# High freq. dielectric constant tensor:
#      x y z
#    x 1.798320 0.000000 0.000000 
#    y 0.000000 1.785010 0.000000 
#    z 0.000000 0.000000 1.791210 
# 
# From -- ./inp_files/54481.got.cif
#   From: 2010.03.12/outbox.cif.g09.slc.cpg/sg66_28_cif.got.tgz:54481.got - 2010.04.10 21:57:39.
