data_PCOD8277413
_publ_section_title
;
Structure prediction by ZEFSAII (Michael W. Deem and Ramdas Pophale) SiO2 
 PCOD8277413
Probable space group: C C C M
;
_chemical_formula_sum "Si O2"
_cell_formula_units_Z 64
_cell_length_a 14.949341
_cell_length_b 10.086162
_cell_length_c 16.434040
_cell_angle_alpha 90.000000
_cell_angle_beta 90.000000
_cell_angle_gamma 90.000000
_cell_volume 2477.948793
_symmetry_space_group_name_H-M "C C C M"
_symmetry_group_IT_number 66
_symmetry_cell_setting 'orthorhombic'
loop_
_space_group_symop_operation_xyz
x,y,z
-x,-y,z
x,-y,1/2-z
-x,y,1/2-z
-x,-y,-z
x,y,-z
-x,y,1/2+z
x,-y,1/2+z
1/2+x,1/2+y,z
1/2-x,1/2-y,z
1/2+x,1/2-y,1/2-z
1/2-x,1/2+y,1/2-z
1/2-x,1/2-y,-z
1/2+x,1/2+y,-z
1/2-x,1/2+y,1/2+z
1/2+x,1/2-y,1/2+z
loop_
_atom_site_type_symbol
_atom_site_label
_atom_site_fract_x
_atom_site_fract_y
_atom_site_fract_z
Si Si1 0.153943 0.061577 0.090978
Si Si2 0.473659 0.810538 0.410265
Si Si3 0.090876 0.175698 0.298076
Si Si4 0.820444 0.381851 0.689513
O O1 0.130095 0.953593 0.159263
O O2 0.075556 0.168407 0.086207
O O3 0.245309 0.131534 0.119834
O O4 0.166563 0.999947 0.000000
O O5 0.490512 0.868157 0.500000
O O6 0.568714 0.786934 0.366229
O O7 0.413661 0.913110 0.358034
O O8 0.165803 0.239064 0.237365
O O9 0.000000 0.140465 0.250000
O O10 0.798719 0.500000 0.750000
#
# Coordination Sequence:
#
# PCOD8277413 Si02
#       4
#    16  16  16  16
#     4  11  24  43  71 104 138 179 227 285 345 402
#     4  10  22  43  69  97 134 179 227 281 346 409
#     4  10  24  42  69 105 135 175 231 289 338 392
#     4  11  26  41  65  99 142 181 226 277 334 411
#
# _framework density 25.827814
#
# number of rings (size 3 to 8) (size 9 to 14) (size 15 to 20)
#    0.000    1.500    0.000    3.000   10.500   11.500 
#    0.000    7.500    0.000    0.000    0.000    0.000 
#    0.000    0.000    0.000    0.000    0.000    0.000 
#
# Total GULP energy -396726.059557 kJ/mol
# GULP energy per Si atom -12397.689361 kJ/mol
# Density = 2.576903 g / cm^3
# Si number density = 25.827814 Si / 1000 Ang^3
#
#
#
# Elastic Constant Matrix: (Units=GPa)
#
#
# Indices 1 2 3 4 5 6 
#
# 1 86.0887 7.9084 32.1332 0.0000 0.0000 0.0000
# 2 7.9084 88.9240 20.0817 0.0000 0.0000 0.0000
# 3 32.1332 20.0817 175.0304 0.0000 0.0000 0.0000
# 4 0.0000 0.0000 0.0000 14.8262 0.0000 0.0000
# 5 0.0000 0.0000 0.0000 0.0000 27.5815 0.0000
# 6 0.0000 0.0000 0.0000 0.0000 0.0000 33.3888
#
#
#
# Elastic Compliance Matrix: (Units=1/GPa)
#
#
# Indices 1 2 3 4 5 6 
#
# 1 0.012503 -0.000609 -0.002225 0.000000 0.000000 0.000000
# 2 -0.000609 0.011574 -0.001216 0.000000 0.000000 0.000000
# 3 -0.002225 -0.001216 0.006261 0.000000 0.000000 0.000000
# 4 0.000000 0.000000 0.000000 0.067448 0.000000 0.000000
# 5 0.000000 0.000000 0.000000 0.000000 0.036256 0.000000
# 6 0.000000 0.000000 0.000000 0.000000 0.000000 0.029950
#
#
# Mechanical properties :
#
#
# Convention : Reuss Voigt Hill
#
# Bulk Modulus (GPa) = 44.97084 52.25444 48.61264
# Shear Modulus (GPa) = 27.85412 34.48728 31.17070
#
# Velocity S-wave (km/s) = 3.28755 3.65811 3.47777
# Velocity P-wave (km/s) = 5.64448 6.17399 5.91516
#
# Compressibility (1/GPa) = 0.02223663
#
# Stress axis : x y z
#
# Youngs Moduli (GPa) = 79.98373 86.39774 159.70941
#
# Poissons Ratio (x) = 0.05265 0.35542
# Poissons Ratio (y) = 0.04874 0.19422
# Poissons Ratio (z) = 0.17799 0.10507
#
# Static dielectric constant tensor:
#      x y z
#    x 4.732170 0.000000 0.000000 
#    y 0.000000 4.224300 0.000000 
#    z 0.000000 0.000000 5.661380 
# 
# 
# High freq. dielectric constant tensor:
#      x y z
#    x 2.031670 0.000000 0.000000 
#    y 0.000000 2.019490 0.000000 
#    z 0.000000 0.000000 2.059560 
# 
# From -- ./inp_files/39773.got.cif
#   From: 2010.03.12/outbox.cif.g09.slc.cpg/sg66_20_cif.got.tgz:39773.got - 2010.04.10 21:57:39.
