data_PCOD8277780
_publ_section_title
;
Structure prediction by ZEFSAII (Michael W. Deem and Ramdas Pophale) SiO2 
 PCOD8277780
Probable space group: C C C M
;
_chemical_formula_sum "Si O2"
_cell_formula_units_Z 64
_cell_length_a 8.567189
_cell_length_b 12.296878
_cell_length_c 27.627016
_cell_angle_alpha 90.000000
_cell_angle_beta 90.000000
_cell_angle_gamma 90.000000
_cell_volume 2910.497238
_symmetry_space_group_name_H-M "C C C M"
_symmetry_group_IT_number 66
_symmetry_cell_setting 'orthorhombic'
loop_
_space_group_symop_operation_xyz
x,y,z
-x,-y,z
x,-y,1/2-z
-x,y,1/2-z
-x,-y,-z
x,y,-z
-x,y,1/2+z
x,-y,1/2+z
1/2+x,1/2+y,z
1/2-x,1/2-y,z
1/2+x,1/2-y,1/2-z
1/2-x,1/2+y,1/2-z
1/2-x,1/2-y,-z
1/2+x,1/2+y,-z
1/2-x,1/2+y,1/2+z
1/2+x,1/2-y,1/2+z
loop_
_atom_site_type_symbol
_atom_site_label
_atom_site_fract_x
_atom_site_fract_y
_atom_site_fract_z
Si Si1 0.922208 0.616734 0.053377
Si Si2 0.373115 0.158132 0.361605
Si Si3 0.161125 0.046592 0.880066
Si Si4 0.415964 0.284660 0.797159
O O1 0.749518 0.612855 0.077578
O O2 0.000000 0.500000 0.048131
O O3 0.039091 0.683720 0.087732
O O4 0.907679 0.670516 0.000000
O O5 0.250000 0.250000 0.353067
O O6 0.499536 0.175879 0.318743
O O7 0.287470 0.041406 0.359898
O O8 0.101293 0.122436 0.837131
O O9 0.000000 0.000000 0.902716
O O10 0.500000 0.333338 0.750000
O O11 0.250000 0.250000 0.777409
#
# Coordination Sequence:
#
# PCOD8277780 Si02
#       4
#    16  16  16  16
#     4   9  20  40  67  98 133 173 219 271 331 397
#     4  11  22  43  67  95 136 174 216 275 330 390
#     4  11  23  42  69  93 134 175 214 274 332 392
#     4  12  26  46  67  98 131 174 227 279 332 396
#
# _framework density 21.989370000000001
#
# number of rings (size 3 to 8) (size 9 to 14) (size 15 to 20)
#    0.000    1.250    5.000    0.750    0.000    1.500 
#    0.000    3.750    0.000    0.000    0.000    0.000 
#    0.000    0.000    0.000    0.000    0.000    0.000 
#
# Total GULP energy -396593.254004 kJ/mol
# GULP energy per Si atom -12393.539188 kJ/mol
# Density = 2.193932 g / cm^3
# Si number density = 21.989370 Si / 1000 Ang^3
#
#
#
# Elastic Constant Matrix: (Units=GPa)
#
#
# Indices 1 2 3 4 5 6 
#
# 1 148.4274 14.6296 53.4516 0.0000 0.0000 0.0000
# 2 14.6296 37.0745 17.0814 0.0000 0.0000 0.0000
# 3 53.4516 17.0814 145.8493 0.0000 0.0000 0.0000
# 4 0.0000 0.0000 0.0000 23.7354 0.0000 0.0000
# 5 0.0000 0.0000 0.0000 0.0000 -116.6253 0.0000
# 6 0.0000 0.0000 0.0000 0.0000 0.0000 22.4454
#
#
#
# Elastic Compliance Matrix: (Units=1/GPa)
#
#
# Indices 1 2 3 4 5 6 
#
# 1 0.007884 -0.001881 -0.002669 0.000000 0.000000 0.000000
# 2 -0.001881 0.028960 -0.002702 0.000000 0.000000 0.000000
# 3 -0.002669 -0.002702 0.008151 0.000000 0.000000 0.000000
# 4 0.000000 0.000000 0.000000 0.042131 0.000000 0.000000
# 5 0.000000 0.000000 0.000000 0.000000 -0.008574 0.000000
# 6 0.000000 0.000000 0.000000 0.000000 0.000000 0.044552
#
#
# Mechanical properties :
#
#
# Convention : Reuss Voigt Hill
#
# Bulk Modulus (GPa) = 32.79773 55.74182 44.26977
# Shear Modulus (GPa) = 33.83580 2.32368 18.07974
#
# Velocity S-wave (km/s) = 3.92693 1.02909 2.87052
# Velocity P-wave (km/s) = 5.95891 5.17847 5.58234
#
# Compressibility (1/GPa) = 0.03048992
#
# Stress axis : x y z
#
# Youngs Moduli (GPa) = 126.84100 34.53029 122.68400
#
# Poissons Ratio (x) = 0.06496 0.32744
# Poissons Ratio (y) = 0.23862 0.33152
# Poissons Ratio (z) = 0.33854 0.09331
#
# Static dielectric constant tensor:
#      x y z
#    x 5.094460 0.000000 0.000000 
#    y 0.000000 4.143300 0.000000 
#    z 0.000000 0.000000 4.241770 
# 
# 
# High freq. dielectric constant tensor:
#      x y z
#    x 1.895530 0.000000 0.000000 
#    y 0.000000 1.842870 0.000000 
#    z 0.000000 0.000000 1.855470 
# 
# From -- ./inp_files/54945.got.cif
#   From: 2010.03.12/outbox.cif.g09.slc.cpg/sg66_28_cif.got.tgz:54945.got - 2010.04.10 21:57:39.
