data_PCOD8277516
_publ_section_title
;
Structure prediction by ZEFSAII (Michael W. Deem and Ramdas Pophale) SiO2 
 PCOD8277516
Probable space group: C C C M
;
_chemical_formula_sum "Si O2"
_cell_formula_units_Z 80
_cell_length_a 25.710419
_cell_length_b 10.249602
_cell_length_c 13.185953
_cell_angle_alpha 90.000000
_cell_angle_beta 90.000000
_cell_angle_gamma 90.000000
_cell_volume 3474.782931
_symmetry_space_group_name_H-M "C C C M"
_symmetry_group_IT_number 66
_symmetry_cell_setting 'orthorhombic'
loop_
_space_group_symop_operation_xyz
x,y,z
-x,-y,z
x,-y,1/2-z
-x,y,1/2-z
-x,-y,-z
x,y,-z
-x,y,1/2+z
x,-y,1/2+z
1/2+x,1/2+y,z
1/2-x,1/2-y,z
1/2+x,1/2-y,1/2-z
1/2-x,1/2+y,1/2-z
1/2-x,1/2-y,-z
1/2+x,1/2+y,-z
1/2-x,1/2+y,1/2+z
1/2+x,1/2-y,1/2+z
loop_
_atom_site_type_symbol
_atom_site_label
_atom_site_fract_x
_atom_site_fract_y
_atom_site_fract_z
Si Si1 0.635103 0.256723 0.747050
Si Si2 0.714308 0.123485 0.383330
Si Si3 0.283409 0.379622 0.387451
Si Si4 0.562675 0.401678 0.617763
Si Si5 0.454090 0.692499 0.118625
O O1 0.666983 0.135798 0.698124
O O2 0.668836 0.357047 0.813162
O O3 0.616633 0.337322 0.648979
O O4 0.584767 0.213041 0.815887
O O5 0.694397 0.109297 0.500000
O O6 0.750000 0.250000 0.370323
O O7 0.747270 0.997971 0.349953
O O8 0.305340 0.410892 0.500000
O O9 0.250000 0.250000 0.389776
O O10 0.559737 0.426520 0.500000
O O11 0.559261 0.547965 0.661782
O O12 0.515583 0.299815 0.645863
O O13 0.443432 0.719405 0.000000
#
# Coordination Sequence:
#
# PCOD8277516 Si02
#       5
#    16  16  16  16  16
#     4  12  21  32  60  89 117 161 216 257 318 380
#     4  10  24  41  57  86 125 160 202 260 320 375
#     4  10  24  45  63  83 121 169 215 260 310 375
#     4   9  19  34  52  82 125 167 208 259 313 380
#     4   9  19  34  52  82 124 167 212 256 311 379
#
# _framework density 23.023019999999999
#
# number of rings (size 3 to 8) (size 9 to 14) (size 15 to 20)
#    0.000    2.000    0.000    4.200    5.600    4.000 
#    0.000    0.000    0.000    2.400    0.000   11.200 
#    0.000   32.000    0.000    0.000    0.000    0.000 
#
# Total GULP energy -495601.722513 kJ/mol
# GULP energy per Si atom -12390.043063 kJ/mol
# Density = 2.297062 g / cm^3
# Si number density = 23.023020 Si / 1000 Ang^3
#
#
#
# Elastic Constant Matrix: (Units=GPa)
#
#
# Indices 1 2 3 4 5 6 
#
# 1 125.8331 35.4488 49.9577 0.0000 0.0000 0.0000
# 2 35.4488 81.0860 12.6009 0.0000 0.0000 0.0000
# 3 49.9577 12.6009 74.5056 0.0000 0.0000 0.0000
# 4 0.0000 0.0000 0.0000 2.4594 0.0000 0.0000
# 5 0.0000 0.0000 0.0000 0.0000 59.9020 0.0000
# 6 0.0000 0.0000 0.0000 0.0000 0.0000 28.2739
#
#
#
# Elastic Compliance Matrix: (Units=1/GPa)
#
#
# Indices 1 2 3 4 5 6 
#
# 1 0.012033 -0.004115 -0.007373 0.000000 0.000000 0.000000
# 2 -0.004115 0.014073 0.000379 0.000000 0.000000 0.000000
# 3 -0.007373 0.000379 0.018301 0.000000 0.000000 0.000000
# 4 0.000000 0.000000 0.000000 0.406606 0.000000 0.000000
# 5 0.000000 0.000000 0.000000 0.000000 0.016694 0.000000
# 6 0.000000 0.000000 0.000000 0.000000 0.000000 0.035368
#
#
# Mechanical properties :
#
#
# Convention : Reuss Voigt Hill
#
# Bulk Modulus (GPa) = 45.06500 53.04883 49.05691
# Shear Modulus (GPa) = 9.38633 30.35489 19.87061
#
# Velocity S-wave (km/s) = 2.02133 3.63500 2.94100
# Velocity P-wave (km/s) = 5.00640 6.38038 5.73469
#
# Compressibility (1/GPa) = 0.02219017
#
# Stress axis : x y z
#
# Youngs Moduli (GPa) = 83.10251 71.05995 54.64110
#
# Poissons Ratio (x) = 0.29241 0.40285
# Poissons Ratio (y) = 0.34196 -0.02072
# Poissons Ratio (z) = 0.61269 -0.02694
#
# Static dielectric constant tensor:
#      x y z
#    x 4.335160 0.000000 0.000000 
#    y 0.000000 3.376710 0.000000 
#    z 0.000000 0.000000 4.656560 
# 
# 
# High freq. dielectric constant tensor:
#      x y z
#    x 1.913560 0.000000 0.000000 
#    y 0.000000 1.842550 0.000000 
#    z 0.000000 0.000000 1.949050 
# 
# From -- ./inp_files/32120.got.cif
#   From: 2010.03.12/outbox.cif.g09.slc.cpg/sg66_17_cif.got.tgz:32120.got - 2010.04.10 21:57:39.
