data_PCOD8277957
_publ_section_title
;
Structure prediction by ZEFSAII (Michael W. Deem and Ramdas Pophale) SiO2 
 PCOD8277957
Probable space group: C M M A
;
_chemical_formula_sum "Si O2"
_cell_formula_units_Z 64
_cell_length_a 19.287510
_cell_length_b 8.580178
_cell_length_c 21.133557
_cell_angle_alpha 90.000000
_cell_angle_beta 90.000000
_cell_angle_gamma 90.000000
_cell_volume 3497.398032
_symmetry_space_group_name_H-M "C M M A"
_symmetry_group_IT_number 67
_symmetry_cell_setting 'orthorhombic'
loop_
_space_group_symop_operation_xyz
x,y,z
-x,1/2-y,z
x,-y,-z
-x,1/2+y,-z
-x,-y,-z
x,1/2+y,-z
-x,y,z
x,1/2-y,z
1/2+x,1/2+y,z
1/2-x,-y,z
1/2+x,1/2-y,-z
1/2-x,y,-z
1/2-x,1/2-y,-z
1/2+x,y,-z
1/2-x,1/2+y,z
1/2+x,-y,z
loop_
_atom_site_type_symbol
_atom_site_label
_atom_site_fract_x
_atom_site_fract_y
_atom_site_fract_z
Si Si1 0.172382 0.434661 0.563598
Si Si2 0.173323 0.435161 0.819628
Si Si3 0.578305 0.565826 0.934130
Si Si4 0.172632 0.065184 0.309364
O O1 0.134786 0.500000 0.500000
O O2 0.172515 0.250000 0.562653
O O3 0.250000 0.500000 0.564265
O O4 0.134612 0.497339 0.627556
O O5 0.176115 0.250000 0.814654
O O6 0.250000 0.500000 0.830726
O O7 0.126159 0.495060 0.877272
O O8 0.137942 0.503484 0.755451
O O9 0.500000 0.504624 0.922938
O O10 0.580133 0.750000 0.937340
O O11 0.608079 0.500000 0.000000
O O12 0.172118 0.250000 0.311832
O O13 0.250000 0.000000 0.308059
#
# Coordination Sequence:
#
# PCOD8277957 Si02
#       4
#    16  16  16  16
#     4  10  16  23  34  51  77 111 150 187 225 268
#     4  10  19  31  47  68  94 122 153 189 230 275
#     4   9  19  35  53  71  92 120 153 189 229 273
#     4  10  17  26  39  57  83 115 150 186 227 271
#
# _framework density 18.299320000000002
#
# number of rings (size 3 to 8) (size 9 to 14) (size 15 to 20)
#    0.000    2.250    0.000    9.000    0.000    2.500 
#    0.000    2.500    0.000    0.000    0.000    0.000 
#    0.000    1.000    0.000    2.750    0.000   10.750 
#
# Total GULP energy -396593.252055 kJ/mol
# GULP energy per Si atom -12393.539127 kJ/mol
# Density = 1.825767 g / cm^3
# Si number density = 18.299320 Si / 1000 Ang^3
#
#
#
# Elastic Constant Matrix: (Units=GPa)
#
#
# Indices 1 2 3 4 5 6 
#
# 1 34.2317 18.9897 52.5255 0.0000 0.0000 0.0000
# 2 18.9897 131.8407 70.2219 0.0000 0.0000 0.0000
# 3 52.5255 70.2219 234.8367 0.0000 0.0000 0.0000
# 4 0.0000 0.0000 0.0000 40.5725 0.0000 0.0000
# 5 0.0000 0.0000 0.0000 0.0000 2.1690 0.0000
# 6 0.0000 0.0000 0.0000 0.0000 0.0000 11.3981
#
#
#
# Elastic Compliance Matrix: (Units=1/GPa)
#
#
# Indices 1 2 3 4 5 6 
#
# 1 0.044670 -0.001323 -0.009596 0.000000 0.000000 0.000000
# 2 -0.001323 0.009061 -0.002414 0.000000 0.000000 0.000000
# 3 -0.009596 -0.002414 0.007126 0.000000 0.000000 0.000000
# 4 0.000000 0.000000 0.000000 0.024647 0.000000 0.000000
# 5 0.000000 0.000000 0.000000 0.000000 0.461036 0.000000
# 6 0.000000 0.000000 0.000000 0.000000 0.000000 0.087734
#
#
# Mechanical properties :
#
#
# Convention : Reuss Voigt Hill
#
# Bulk Modulus (GPa) = 29.24584 76.04260 52.64422
# Shear Modulus (GPa) = 7.43674 28.10605 17.77139
#
# Velocity S-wave (km/s) = 2.01811 3.92332 3.11971
# Velocity P-wave (km/s) = 4.63109 7.88469 6.46588
#
# Compressibility (1/GPa) = 0.03419290
#
# Stress axis : x y z
#
# Youngs Moduli (GPa) = 22.38616 110.36319 140.32676
#
# Poissons Ratio (x) = 0.14603 1.34653
# Poissons Ratio (y) = 0.02962 0.33868
# Poissons Ratio (z) = 0.21481 0.26636
#
# Static dielectric constant tensor:
#      x y z
#    x 2.883960 0.000000 0.000000 
#    y 0.000000 3.377590 0.000000 
#    z 0.000000 0.000000 5.120460 
# 
# 
# High freq. dielectric constant tensor:
#      x y z
#    x 1.624160 0.000000 0.000000 
#    y 0.000000 1.723440 0.000000 
#    z 0.000000 0.000000 1.747020 
# 
# From -- ./inp_files/31891.got.cif
#   From: 2010.03.12/outbox.cif.g09.slc.cpg/sg67_16_cif.got.tgz:31891.got - 2010.04.10 22:41:39.
