data_PCOD8277795
_publ_section_title
;
Structure prediction by ZEFSAII (Michael W. Deem and Ramdas Pophale) SiO2 
 PCOD8277795
Probable space group: C C C M
;
_chemical_formula_sum "Si O2"
_cell_formula_units_Z 64
_cell_length_a 8.380062
_cell_length_b 23.864935
_cell_length_c 17.170096
_cell_angle_alpha 90.000000
_cell_angle_beta 90.000000
_cell_angle_gamma 90.000000
_cell_volume 3433.841231
_symmetry_space_group_name_H-M "C C C M"
_symmetry_group_IT_number 66
_symmetry_cell_setting 'orthorhombic'
loop_
_space_group_symop_operation_xyz
x,y,z
-x,-y,z
x,-y,1/2-z
-x,y,1/2-z
-x,-y,-z
x,y,-z
-x,y,1/2+z
x,-y,1/2+z
1/2+x,1/2+y,z
1/2-x,1/2-y,z
1/2+x,1/2-y,1/2-z
1/2-x,1/2+y,1/2-z
1/2-x,1/2-y,-z
1/2+x,1/2+y,-z
1/2-x,1/2+y,1/2+z
1/2+x,1/2-y,1/2+z
loop_
_atom_site_type_symbol
_atom_site_label
_atom_site_fract_x
_atom_site_fract_y
_atom_site_fract_z
Si Si1 0.389715 0.604396 0.179982
Si Si2 0.311417 0.506108 0.085033
Si Si3 0.695733 0.618516 0.090434
Si Si4 0.818220 0.688374 0.773898
O O1 0.500000 0.580684 0.250000
O O2 0.274125 0.554519 0.148320
O O3 0.508320 0.626229 0.112137
O O4 0.280939 0.655204 0.208501
O O5 0.500000 0.500000 0.078559
O O6 0.243861 0.445079 0.108910
O O7 0.242426 0.523407 0.000000
O O8 0.804444 0.659421 0.141714
O O9 0.717523 0.633605 0.000000
O O10 0.750000 0.750000 0.780191
O O11 0.000000 0.690533 0.750000
#
# Coordination Sequence:
#
# PCOD8277795 Si02
#       4
#    16  16  16  16
#     4   9  17  30  53  80 107 138 176 215 256 306
#     4   8  14  27  50  80 110 137 168 207 252 307
#     4   9  18  34  57  83 109 139 174 213 259 309
#     4  11  23  39  55  74 103 140 181 223 266 312
#
# _framework density 18.638019
#
# number of rings (size 3 to 8) (size 9 to 14) (size 15 to 20)
#    0.000    2.750    0.000    4.500    0.000   12.000 
#    0.000    5.000    0.000    8.250    0.000    0.000 
#    0.000    0.000    0.000    0.000    0.000    0.000 
#
# Total GULP energy -396598.443711 kJ/mol
# GULP energy per Si atom -12393.701366 kJ/mol
# Density = 1.859560 g / cm^3
# Si number density = 18.638019 Si / 1000 Ang^3
#
#
#
# Elastic Constant Matrix: (Units=GPa)
#
#
# Indices 1 2 3 4 5 6 
#
# 1 67.9363 46.9540 47.3235 0.0000 0.0000 0.0000
# 2 46.9540 160.3612 90.0084 0.0000 0.0000 0.0000
# 3 47.3235 90.0084 125.0933 0.0000 0.0000 0.0000
# 4 0.0000 0.0000 0.0000 7.8603 0.0000 0.0000
# 5 0.0000 0.0000 0.0000 0.0000 -169.8333 0.0000
# 6 0.0000 0.0000 0.0000 0.0000 0.0000 23.3448
#
#
#
# Elastic Compliance Matrix: (Units=1/GPa)
#
#
# Indices 1 2 3 4 5 6 
#
# 1 0.020707 -0.002795 -0.005823 0.000000 0.000000 0.000000
# 2 -0.002795 0.010838 -0.006741 0.000000 0.000000 0.000000
# 3 -0.005823 -0.006741 0.015047 0.000000 0.000000 0.000000
# 4 0.000000 0.000000 0.000000 0.127221 0.000000 0.000000
# 5 0.000000 0.000000 0.000000 0.000000 -0.005888 0.000000
# 6 0.000000 0.000000 0.000000 0.000000 0.000000 0.042836
#
#
# Mechanical properties :
#
#
# Convention : Reuss Voigt Hill
#
# Bulk Modulus (GPa) = 62.99076 80.21810 71.60443
# Shear Modulus (GPa) = 20.26177 -16.45197 1.90490
#
# Velocity S-wave (km/s) = 3.30073 -2.97427 1.01206
# Velocity P-wave (km/s) = 6.95677 5.59808 6.31408
#
# Compressibility (1/GPa) = 0.01587535
#
# Stress axis : x y z
#
# Youngs Moduli (GPa) = 48.29193 92.26979 66.45869
#
# Poissons Ratio (x) = 0.25789 0.38697
# Poissons Ratio (y) = 0.13498 0.44798
# Poissons Ratio (z) = 0.28119 0.62197
#
# Static dielectric constant tensor:
#      x y z
#    x 3.053810 0.000000 0.000000 
#    y 0.000000 3.661670 0.000000 
#    z 0.000000 0.000000 3.702720 
# 
# 
# High freq. dielectric constant tensor:
#      x y z
#    x 1.677110 0.000000 0.000000 
#    y 0.000000 1.722840 0.000000 
#    z 0.000000 0.000000 1.732060 
# 
# From -- ./inp_files/24123.got.cif
#   From: 2010.03.12/outbox.cif.g09.slc.cpg/sg66_13_cif.got.tgz:24123.got - 2010.04.10 21:57:39.
