data_PCOD8277364
_publ_section_title
;
Structure prediction by ZEFSAII (Michael W. Deem and Ramdas Pophale) SiO2 
 PCOD8277364
Probable space group: C C C M
;
_chemical_formula_sum "Si O2"
_cell_formula_units_Z 60
_cell_length_a 8.958844
_cell_length_b 12.725506
_cell_length_c 25.943793
_cell_angle_alpha 90.000000
_cell_angle_beta 90.000000
_cell_angle_gamma 90.000000
_cell_volume 2957.743475
_symmetry_space_group_name_H-M "C C C M"
_symmetry_group_IT_number 66
_symmetry_cell_setting 'orthorhombic'
loop_
_space_group_symop_operation_xyz
x,y,z
-x,-y,z
x,-y,1/2-z
-x,y,1/2-z
-x,-y,-z
x,y,-z
-x,y,1/2+z
x,-y,1/2+z
1/2+x,1/2+y,z
1/2-x,1/2-y,z
1/2+x,1/2-y,1/2-z
1/2-x,1/2+y,1/2-z
1/2-x,1/2-y,-z
1/2+x,1/2+y,-z
1/2-x,1/2+y,1/2+z
1/2+x,1/2-y,1/2+z
loop_
_atom_site_type_symbol
_atom_site_label
_atom_site_fract_x
_atom_site_fract_y
_atom_site_fract_z
Si Si1 0.000000 0.000000 0.750000
Si Si2 0.750090 0.015484 0.500000
Si Si3 0.500000 0.000000 0.582549
Si Si4 0.091386 0.198540 0.202557
Si Si5 0.078381 0.724010 0.106950
Si Si6 0.476553 0.328216 0.500000
O O1 0.105708 0.926430 0.714339
O O2 0.647418 0.025905 0.450129
O O3 0.870609 0.107540 0.500000
O O4 0.831371 0.902550 0.500000
O O5 0.540066 0.898638 0.617195
O O6 0.250000 0.250000 0.198046
O O7 0.000000 0.252549 0.250000
O O8 0.008852 0.207399 0.148354
O O9 0.250000 0.750000 0.115308
O O10 0.026362 0.753202 0.049463
#
# Coordination Sequence:
#
# PCOD8277364 Si02
#       6
#     4   8   8  16  16   8
#     4   8  24  48  78  96 144 164 230 288 346 422
#     4  10  22  41  63  94 135 192 235 275 338 411
#     4  11  24  40  63  98 138 182 235 279 336 408
#     4  10  24  49  73 101 133 177 226 287 347 411
#     4  12  25  43  68  99 144 180 228 286 341 406
#     4  11  23  41  67  96 142 187 228 280 348 399
#
# _framework density 20.285734000000001
#
# number of rings (size 3 to 8) (size 9 to 14) (size 15 to 20)
#    0.800    0.533    2.667    2.800    3.733    5.333 
#    0.000    0.000    0.000    0.000    0.000    0.000 
#    0.000    0.000    0.000    0.000    0.000    0.000 
#
# Total GULP energy -371965.375273 kJ/mol
# GULP energy per Si atom -12398.845842 kJ/mol
# Density = 2.023956 g / cm^3
# Si number density = 20.285734 Si / 1000 Ang^3
#
#
#
# Elastic Constant Matrix: (Units=GPa)
#
#
# Indices 1 2 3 4 5 6 
#
# 1 134.2567 55.6715 53.9182 0.0000 0.0000 0.0000
# 2 55.6715 156.0738 46.3963 0.0000 0.0000 0.0000
# 3 53.9182 46.3963 129.1558 0.0000 0.0000 0.0000
# 4 0.0000 0.0000 0.0000 -10.9912 0.0000 0.0000
# 5 0.0000 0.0000 0.0000 0.0000 6.5086 0.0000
# 6 0.0000 0.0000 0.0000 0.0000 0.0000 11.6676
#
#
#
# Elastic Compliance Matrix: (Units=1/GPa)
#
#
# Indices 1 2 3 4 5 6 
#
# 1 0.009776 -0.002546 -0.003167 0.000000 0.000000 0.000000
# 2 -0.002546 0.007836 -0.001752 0.000000 0.000000 0.000000
# 3 -0.003167 -0.001752 0.009694 0.000000 0.000000 0.000000
# 4 0.000000 0.000000 0.000000 -0.090982 0.000000 0.000000
# 5 0.000000 0.000000 0.000000 0.000000 0.153643 0.000000
# 6 0.000000 0.000000 0.000000 0.000000 0.000000 0.085707
#
#
# Mechanical properties :
#
#
# Convention : Reuss Voigt Hill
#
# Bulk Modulus (GPa) = 80.79553 81.27315 81.03434
# Shear Modulus (GPa) = 25.67673 19.00368 22.34021
#
# Velocity S-wave (km/s) = 3.56160 3.06404 3.32215
# Velocity P-wave (km/s) = 7.53847 7.25734 7.39924
#
# Compressibility (1/GPa) = 0.01237692
#
# Stress axis : x y z
#
# Youngs Moduli (GPa) = 102.29417 127.61364 103.15694
#
# Poissons Ratio (x) = 0.32486 0.32665
# Poissons Ratio (y) = 0.26041 0.18075
# Poissons Ratio (z) = 0.32392 0.22361
#
# Static dielectric constant tensor:
#      x y z
#    x 3.681020 0.000000 0.000000 
#    y 0.000000 3.774800 0.000000 
#    z 0.000000 0.000000 3.768570 
# 
# 
# High freq. dielectric constant tensor:
#      x y z
#    x 1.802090 0.000000 0.000000 
#    y 0.000000 1.797740 0.000000 
#    z 0.000000 0.000000 1.782560 
# 
# From -- ./inp_files/67853.got.cif
#   From: 2010.03.12/outbox.cif.g09.slc.cpg/sg66_34_cif.got.tgz:67853.got - 2010.04.10 21:57:39.
