data_PCOD8277458
_publ_section_title
;
Structure prediction by ZEFSAII (Michael W. Deem and Ramdas Pophale) SiO2 
 PCOD8277458
Probable space group: C C C M
;
_chemical_formula_sum "Si O2"
_cell_formula_units_Z 60
_cell_length_a 14.087886
_cell_length_b 9.537834
_cell_length_c 20.184425
_cell_angle_alpha 90.000000
_cell_angle_beta 90.000000
_cell_angle_gamma 90.000000
_cell_volume 2712.139165
_symmetry_space_group_name_H-M "C C C M"
_symmetry_group_IT_number 66
_symmetry_cell_setting 'orthorhombic'
loop_
_space_group_symop_operation_xyz
x,y,z
-x,-y,z
x,-y,1/2-z
-x,y,1/2-z
-x,-y,-z
x,y,-z
-x,y,1/2+z
x,-y,1/2+z
1/2+x,1/2+y,z
1/2-x,1/2-y,z
1/2+x,1/2-y,1/2-z
1/2-x,1/2+y,1/2-z
1/2-x,1/2-y,-z
1/2+x,1/2+y,-z
1/2-x,1/2+y,1/2+z
1/2+x,1/2-y,1/2+z
loop_
_atom_site_type_symbol
_atom_site_label
_atom_site_fract_x
_atom_site_fract_y
_atom_site_fract_z
Si Si1 0.227157 0.464450 0.577263
Si Si2 0.903817 0.216625 0.921820
Si Si3 0.945831 0.232404 0.687943
Si Si4 0.500000 0.000000 0.750000
Si Si5 0.750000 0.250000 0.642348
O O1 0.213709 0.453526 0.500000
O O2 0.147004 0.358392 0.605374
O O3 0.333434 0.412488 0.595006
O O4 0.207894 0.623519 0.598774
O O5 0.000411 0.196028 0.880491
O O6 0.929376 0.221046 0.000000
O O7 0.836221 0.183732 0.684868
O O8 0.000000 0.158142 0.750000
O O9 0.937776 0.400032 0.702067
#
# Coordination Sequence:
#
# PCOD8277458 Si02
#       5
#    16  16  16   4   8
#     4   9  20  37  63  95 127 158 203 251 302 358
#     4   9  19  41  66  89 122 169 203 242 302 368
#     4  10  23  41  60  90 120 162 202 255 302 365
#     4   8  20  44  62  78 126 152 210 238 308 348
#     4  12  23  38  60  92 121 162 202 258 306 352
#
# _framework density 22.122758000000001
#
# number of rings (size 3 to 8) (size 9 to 14) (size 15 to 20)
#    0.800    1.600    0.000    3.600    0.000    5.333 
#    0.000    7.333    0.000    0.000    0.000    0.000 
#    0.000    0.000    0.000    0.000    0.000    0.000 
#
# Total GULP energy -371713.530801 kJ/mol
# GULP energy per Si atom -12390.451027 kJ/mol
# Density = 2.207241 g / cm^3
# Si number density = 22.122758 Si / 1000 Ang^3
#
#
#
# Elastic Constant Matrix: (Units=GPa)
#
#
# Indices 1 2 3 4 5 6 
#
# 1 151.5831 -6.8491 55.0476 0.0000 0.0000 0.0000
# 2 -6.8491 64.0675 9.4849 0.0000 0.0000 0.0000
# 3 55.0476 9.4849 79.8815 0.0000 0.0000 0.0000
# 4 0.0000 0.0000 0.0000 6.1343 0.0000 0.0000
# 5 0.0000 0.0000 0.0000 0.0000 30.2482 0.0000
# 6 0.0000 0.0000 0.0000 0.0000 0.0000 12.0900
#
#
#
# Elastic Compliance Matrix: (Units=1/GPa)
#
#
# Indices 1 2 3 4 5 6 
#
# 1 0.009025 0.001919 -0.006447 0.000000 0.000000 0.000000
# 2 0.001919 0.016296 -0.003258 0.000000 0.000000 0.000000
# 3 -0.006447 -0.003258 0.017348 0.000000 0.000000 0.000000
# 4 0.000000 0.000000 0.000000 0.163017 0.000000 0.000000
# 5 0.000000 0.000000 0.000000 0.000000 0.033060 0.000000
# 6 0.000000 0.000000 0.000000 0.000000 0.000000 0.082713
#
#
# Mechanical properties :
#
#
# Convention : Reuss Voigt Hill
#
# Bulk Modulus (GPa) = 36.90264 45.65543 41.27904
# Shear Modulus (GPa) = 14.44825 25.55109 19.99967
#
# Velocity S-wave (km/s) = 2.55834 3.40217 3.00997
# Velocity P-wave (km/s) = 5.04419 6.00959 5.54793
#
# Compressibility (1/GPa) = 0.02709833
#
# Stress axis : x y z
#
# Youngs Moduli (GPa) = 110.80243 61.36484 57.64289
#
# Poissons Ratio (x) = -0.11778 0.37164
# Poissons Ratio (y) = -0.21266 0.18777
# Poissons Ratio (z) = 0.71437 0.19990
#
# Static dielectric constant tensor:
#      x y z
#    x 3.820500 0.000000 0.000000 
#    y 0.000000 4.082900 0.000000 
#    z 0.000000 0.000000 3.661130 
# 
# 
# High freq. dielectric constant tensor:
#      x y z
#    x 1.863600 0.000000 0.000000 
#    y 0.000000 1.862490 0.000000 
#    z 0.000000 0.000000 1.854930 
# 
# From -- ./inp_files/63259.got.cif
#   From: 2010.03.12/outbox.cif.g09.slc.cpg/sg66_32_cif.got.tgz:63259.got - 2010.04.10 21:57:39.
