data_PCOD8277911
_publ_section_title
;
Structure prediction by ZEFSAII (Michael W. Deem and Ramdas Pophale) SiO2 
 PCOD8277911
Probable space group: C C C M
;
_chemical_formula_sum "Si O2"
_cell_formula_units_Z 44
_cell_length_a 24.598936
_cell_length_b 4.800299
_cell_length_c 16.242636
_cell_angle_alpha 90.000000
_cell_angle_beta 90.000000
_cell_angle_gamma 90.000000
_cell_volume 1917.966970
_symmetry_space_group_name_H-M "C C C M"
_symmetry_group_IT_number 66
_symmetry_cell_setting 'orthorhombic'
loop_
_space_group_symop_operation_xyz
x,y,z
-x,-y,z
x,-y,1/2-z
-x,y,1/2-z
-x,-y,-z
x,y,-z
-x,y,1/2+z
x,-y,1/2+z
1/2+x,1/2+y,z
1/2-x,1/2-y,z
1/2+x,1/2-y,1/2-z
1/2-x,1/2+y,1/2-z
1/2-x,1/2-y,-z
1/2+x,1/2+y,-z
1/2-x,1/2+y,1/2+z
1/2+x,1/2-y,1/2+z
loop_
_atom_site_type_symbol
_atom_site_label
_atom_site_fract_x
_atom_site_fract_y
_atom_site_fract_z
Si Si1 0.094331 0.171499 0.827975
Si Si2 0.500000 0.000000 0.250000
Si Si3 0.250000 0.250000 0.309296
Si Si4 0.644780 0.198774 0.094362
O O1 0.034746 0.294518 0.808357
O O2 0.131939 0.429203 0.851049
O O3 0.118625 0.000000 0.750000
O O4 0.096758 0.934885 0.899344
O O5 0.233990 0.500000 0.250000
O O6 0.299740 0.328509 0.370167
O O7 0.650945 0.107916 0.000000
#
# Coordination Sequence:
#
# PCOD8277911 Si02
#       4
#    16   4   8  16
#     4  12  24  45  74 101 132 190 238 286 340 414
#     4  12  26  44  80  96 134 180 256 300 330 402
#     4  12  25  42  73 106 136 190 238 274 333 426
#     4  12  26  45  69 107 150 180 222 294 358 412
#
# _framework density 22.940958999999999
#
# number of rings (size 3 to 8) (size 9 to 14) (size 15 to 20)
#    0.000    0.000    3.636    7.636    0.000    0.000 
#    0.000   10.909    0.000    0.000    0.000    0.000 
#    0.000    0.000    0.000    0.000    0.000    0.000 
#
# Total GULP energy -272682.391436 kJ/mol
# GULP energy per Si atom -12394.654156 kJ/mol
# Density = 2.288874 g / cm^3
# Si number density = 22.940959 Si / 1000 Ang^3
#
#
#
# Elastic Constant Matrix: (Units=GPa)
#
#
# Indices 1 2 3 4 5 6 
#
# 1 102.7574 54.4752 83.1208 0.0000 0.0000 0.0000
# 2 54.4752 165.6262 48.1319 0.0000 0.0000 0.0000
# 3 83.1208 48.1319 115.3054 0.0000 0.0000 0.0000
# 4 0.0000 0.0000 0.0000 13.1618 0.0000 0.0000
# 5 0.0000 0.0000 0.0000 0.0000 26.6233 0.0000
# 6 0.0000 0.0000 0.0000 0.0000 0.0000 38.4485
#
#
#
# Elastic Compliance Matrix: (Units=1/GPa)
#
#
# Indices 1 2 3 4 5 6 
#
# 1 0.024907 -0.003385 -0.016542 0.000000 0.000000 0.000000
# 2 -0.003385 0.007331 -0.000620 0.000000 0.000000 0.000000
# 3 -0.016542 -0.000620 0.020856 0.000000 0.000000 0.000000
# 4 0.000000 0.000000 0.000000 0.075977 0.000000 0.000000
# 5 0.000000 0.000000 0.000000 0.000000 0.037561 0.000000
# 6 0.000000 0.000000 0.000000 0.000000 0.000000 0.026009
#
#
# Mechanical properties :
#
#
# Convention : Reuss Voigt Hill
#
# Bulk Modulus (GPa) = 83.33030 83.90499 83.61765
# Shear Modulus (GPa) = 21.03183 28.84414 24.93798
#
# Velocity S-wave (km/s) = 3.03112 3.54972 3.30062
# Velocity P-wave (km/s) = 6.97517 7.31125 7.14518
#
# Compressibility (1/GPa) = 0.01200044
#
# Stress axis : x y z
#
# Youngs Moduli (GPa) = 40.14979 136.40301 47.94768
#
# Poissons Ratio (x) = 0.46170 0.79314
# Poissons Ratio (y) = 0.13590 0.02974
# Poissons Ratio (z) = 0.66415 0.08460
#
# Static dielectric constant tensor:
#      x y z
#    x 3.938130 0.000000 0.000000 
#    y 0.000000 4.290530 0.000000 
#    z 0.000000 0.000000 4.107890 
# 
# 
# High freq. dielectric constant tensor:
#      x y z
#    x 1.893320 0.000000 0.000000 
#    y 0.000000 1.933440 0.000000 
#    z 0.000000 0.000000 1.892230 
# 
# From -- ./inp_files/43248.got.cif
#   From: 2010.03.12/outbox.cif.g09.slc.cpg/sg66_22_cif.got.tgz:43248.got - 2010.04.10 21:57:39.
