data_PCOD8277696
_publ_section_title
;
Structure prediction by ZEFSAII (Michael W. Deem and Ramdas Pophale) SiO2 
 PCOD8277696
Probable space group: C C C M
;
_chemical_formula_sum "Si O2"
_cell_formula_units_Z 88
_cell_length_a 6.893584
_cell_length_b 27.811547
_cell_length_c 22.854839
_cell_angle_alpha 90.000000
_cell_angle_beta 90.000000
_cell_angle_gamma 90.000000
_cell_volume 4381.757968
_symmetry_space_group_name_H-M "C C C M"
_symmetry_group_IT_number 66
_symmetry_cell_setting 'orthorhombic'
loop_
_space_group_symop_operation_xyz
x,y,z
-x,-y,z
x,-y,1/2-z
-x,y,1/2-z
-x,-y,-z
x,y,-z
-x,y,1/2+z
x,-y,1/2+z
1/2+x,1/2+y,z
1/2-x,1/2-y,z
1/2+x,1/2-y,1/2-z
1/2-x,1/2+y,1/2-z
1/2-x,1/2-y,-z
1/2+x,1/2+y,-z
1/2-x,1/2+y,1/2+z
1/2+x,1/2-y,1/2+z
loop_
_atom_site_type_symbol
_atom_site_label
_atom_site_fract_x
_atom_site_fract_y
_atom_site_fract_z
Si Si1 0.303584 0.602607 0.000000
Si Si2 0.915469 0.209995 0.000000
Si Si3 0.426716 0.554126 0.406726
Si Si4 0.091807 0.212129 0.879278
Si Si5 0.851152 0.121692 0.694757
Si Si6 0.904192 0.551610 0.000000
Si Si7 0.000000 0.331699 0.750000
Si Si8 0.750000 0.750000 0.308646
O O1 0.406550 0.583375 0.941147
O O2 0.075894 0.590340 0.000000
O O3 0.303964 0.659837 0.000000
O O4 0.750000 0.250000 0.000000
O O5 0.068845 0.214231 0.051879
O O6 0.500000 0.500000 0.402406
O O7 0.391009 0.571820 0.339642
O O8 0.225816 0.557962 0.442127
O O9 0.250000 0.250000 0.856649
O O10 0.129116 0.158989 0.857877
O O11 0.894423 0.225971 0.851334
O O12 0.625893 0.130241 0.712399
O O13 0.000000 0.126940 0.750000
O O14 0.000000 0.500000 0.000000
O O15 0.837677 0.294899 0.773579
#
# Coordination Sequence:
#
# PCOD8277696 Si02
#       8
#     8   8  16  16  16   8   8   8
#     4  11  22  44  73 100 138 173 227 269 344 423
#     4  12  26  42  64 105 143 179 214 276 347 411
#     4  11  24  44  73 102 133 177 226 289 350 412
#     4  12  24  42  66  93 138 183 222 275 336 405
#     4  12  26  43  68  98 134 182 232 286 344 402
#     4  11  21  41  76 107 127 173 227 285 341 417
#     4  12  24  42  66 103 132 182 243 278 328 406
#     4  12  22  39  68  94 130 181 238 276 314 398
#
# _framework density 20.083264
#
# number of rings (size 3 to 8) (size 9 to 14) (size 15 to 20)
#    0.000    0.364    8.182    1.909    0.000    4.727 
#    0.000    0.000    0.000    0.000    0.000    0.000 
#    0.000    0.000    0.000    0.000    0.000    0.000 
#
# Total GULP energy -545141.658391 kJ/mol
# GULP energy per Si atom -12389.583145 kJ/mol
# Density = 2.003755 g / cm^3
# Si number density = 20.083264 Si / 1000 Ang^3
#
#
#
# Elastic Constant Matrix: (Units=GPa)
#
#
# Indices 1 2 3 4 5 6 
#
# 1 141.0973 47.8697 52.9625 0.0000 0.0000 0.0000
# 2 47.8697 121.5053 38.0504 0.0000 0.0000 0.0000
# 3 52.9625 38.0504 125.4542 0.0000 0.0000 0.0000
# 4 0.0000 0.0000 0.0000 37.5303 0.0000 0.0000
# 5 0.0000 0.0000 0.0000 0.0000 39.8311 0.0000
# 6 0.0000 0.0000 0.0000 0.0000 0.0000 33.6770
#
#
#
# Elastic Compliance Matrix: (Units=1/GPa)
#
#
# Indices 1 2 3 4 5 6 
#
# 1 0.009129 -0.002641 -0.003053 0.000000 0.000000 0.000000
# 2 -0.002641 0.009858 -0.001875 0.000000 0.000000 0.000000
# 3 -0.003053 -0.001875 0.009829 0.000000 0.000000 0.000000
# 4 0.000000 0.000000 0.000000 0.026645 0.000000 0.000000
# 5 0.000000 0.000000 0.000000 0.000000 0.025106 0.000000
# 6 0.000000 0.000000 0.000000 0.000000 0.000000 0.029694
#
#
# Mechanical properties :
#
#
# Convention : Reuss Voigt Hill
#
# Bulk Modulus (GPa) = 73.11041 73.98021 73.54531
# Shear Modulus (GPa) = 38.47417 38.81929 38.64673
#
# Velocity S-wave (km/s) = 4.38166 4.40127 4.39147
# Velocity P-wave (km/s) = 7.87916 7.92117 7.90019
#
# Compressibility (1/GPa) = 0.01367794
#
# Stress axis : x y z
#
# Youngs Moduli (GPa) = 109.53877 101.44475 101.74295
#
# Poissons Ratio (x) = 0.26787 0.31064
# Poissons Ratio (y) = 0.28924 0.19078
# Poissons Ratio (z) = 0.33444 0.19022
#
# Static dielectric constant tensor:
#      x y z
#    x 4.229060 0.000000 0.000000 
#    y 0.000000 3.675450 0.000000 
#    z 0.000000 0.000000 3.561990 
# 
# 
# High freq. dielectric constant tensor:
#      x y z
#    x 1.799470 0.000000 0.000000 
#    y 0.000000 1.785480 0.000000 
#    z 0.000000 0.000000 1.786450 
# 
# From -- ./inp_files/54492.got.cif
#   From: 2010.03.12/outbox.cif.g09.slc.cpg/sg66_28_cif.got.tgz:54492.got - 2010.04.10 21:57:39.
