data_PCOD8277834
_publ_section_title
;
Structure prediction by ZEFSAII (Michael W. Deem and Ramdas Pophale) SiO2 
 PCOD8277834
Probable space group: C C C M
;
_chemical_formula_sum "Si O2"
_cell_formula_units_Z 64
_cell_length_a 9.209313
_cell_length_b 17.980337
_cell_length_c 19.972220
_cell_angle_alpha 90.000000
_cell_angle_beta 90.000000
_cell_angle_gamma 90.000000
_cell_volume 3307.131031
_symmetry_space_group_name_H-M "C C C M"
_symmetry_group_IT_number 66
_symmetry_cell_setting 'orthorhombic'
loop_
_space_group_symop_operation_xyz
x,y,z
-x,-y,z
x,-y,1/2-z
-x,y,1/2-z
-x,-y,-z
x,y,-z
-x,y,1/2+z
x,-y,1/2+z
1/2+x,1/2+y,z
1/2-x,1/2-y,z
1/2+x,1/2-y,1/2-z
1/2-x,1/2+y,1/2-z
1/2-x,1/2-y,-z
1/2+x,1/2+y,-z
1/2-x,1/2+y,1/2+z
1/2+x,1/2-y,1/2+z
loop_
_atom_site_type_symbol
_atom_site_label
_atom_site_fract_x
_atom_site_fract_y
_atom_site_fract_z
Si Si1 0.903404 0.713433 0.805958
Si Si2 0.917357 0.765612 0.423903
Si Si3 0.261990 0.417411 0.244153
Si Si4 0.018000 0.916025 0.859557
O O1 0.750000 0.750000 0.818211
O O2 0.876641 0.633400 0.771691
O O3 0.000000 0.758122 0.750000
O O4 0.988721 0.711541 0.876062
O O5 0.950360 0.742399 0.500000
O O6 0.750000 0.750000 0.406422
O O7 0.966989 0.852057 0.415662
O O8 0.200538 0.500000 0.250000
O O9 0.375838 0.403501 0.184643
O O10 0.338852 0.403093 0.315088
O O11 0.000000 0.000000 0.890018
#
# Coordination Sequence:
#
# PCOD8277834 Si02
#       4
#    16  16  16  16
#     4  12  22  35  60  87 116 155 197 245 305 362
#     4  11  24  40  58  86 123 162 207 257 308 365
#     4   9  18  33  56  88 118 146 190 250 302 358
#     4   9  17  35  59  85 117 154 200 249 302 363
#
# _framework density 19.352119999999999
#
# number of rings (size 3 to 8) (size 9 to 14) (size 15 to 20)
#    0.000    1.750    2.500    5.250    0.000    1.500 
#    0.000    0.000    0.000    0.000    0.000    8.750 
#    0.000    0.000    0.000    0.000    0.000    0.000 
#
# Total GULP energy -396466.479005 kJ/mol
# GULP energy per Si atom -12389.577469 kJ/mol
# Density = 1.930807 g / cm^3
# Si number density = 19.352120 Si / 1000 Ang^3
#
#
#
# Elastic Constant Matrix: (Units=GPa)
#
#
# Indices 1 2 3 4 5 6 
#
# 1 105.3953 37.2000 59.7059 0.0000 0.0000 0.0000
# 2 37.2000 105.1885 30.9106 0.0000 0.0000 0.0000
# 3 59.7059 30.9106 98.9808 0.0000 0.0000 0.0000
# 4 0.0000 0.0000 0.0000 19.8371 0.0000 0.0000
# 5 0.0000 0.0000 0.0000 0.0000 26.8394 0.0000
# 6 0.0000 0.0000 0.0000 0.0000 0.0000 30.9680
#
#
#
# Elastic Compliance Matrix: (Units=1/GPa)
#
#
# Indices 1 2 3 4 5 6 
#
# 1 0.015203 -0.002953 -0.008248 0.000000 0.000000 0.000000
# 2 -0.002953 0.011041 -0.001667 0.000000 0.000000 0.000000
# 3 -0.008248 -0.001667 0.015599 0.000000 0.000000 0.000000
# 4 0.000000 0.000000 0.000000 0.050410 0.000000 0.000000
# 5 0.000000 0.000000 0.000000 0.000000 0.037259 0.000000
# 6 0.000000 0.000000 0.000000 0.000000 0.000000 0.032291
#
#
# Mechanical properties :
#
#
# Convention : Reuss Voigt Hill
#
# Bulk Modulus (GPa) = 62.08538 62.79974 62.44256
# Shear Modulus (GPa) = 25.91906 27.64543 26.78225
#
# Velocity S-wave (km/s) = 3.66367 3.78371 3.72418
# Velocity P-wave (km/s) = 7.07448 7.18402 7.12946
#
# Compressibility (1/GPa) = 0.01610685
#
# Stress axis : x y z
#
# Youngs Moduli (GPa) = 65.77665 90.57342 64.10652
#
# Poissons Ratio (x) = 0.26743 0.52878
# Poissons Ratio (y) = 0.19422 0.10686
# Poissons Ratio (z) = 0.54256 0.15097
#
# Static dielectric constant tensor:
#      x y z
#    x 3.565370 0.000000 0.000000 
#    y 0.000000 4.073070 0.000000 
#    z 0.000000 0.000000 3.245900 
# 
# 
# High freq. dielectric constant tensor:
#      x y z
#    x 1.759950 0.000000 0.000000 
#    y 0.000000 1.758060 0.000000 
#    z 0.000000 0.000000 1.723130 
# 
# From -- ./inp_files/36312.got.cif
#   From: 2010.03.12/outbox.cif.g09.slc.cpg/sg66_19_cif.got.tgz:36312.got - 2010.04.10 21:57:39.
