data_PCOD8277675
_publ_section_title
;
Structure prediction by ZEFSAII (Michael W. Deem and Ramdas Pophale) SiO2 
 PCOD8277675
Probable space group: C C C M
;
_chemical_formula_sum "Si O2"
_cell_formula_units_Z 96
_cell_length_a 19.435048
_cell_length_b 9.054229
_cell_length_c 28.894590
_cell_angle_alpha 90.000000
_cell_angle_beta 90.000000
_cell_angle_gamma 90.000000
_cell_volume 5084.562949
_symmetry_space_group_name_H-M "C C C M"
_symmetry_group_IT_number 66
_symmetry_cell_setting 'orthorhombic'
loop_
_space_group_symop_operation_xyz
x,y,z
-x,-y,z
x,-y,1/2-z
-x,y,1/2-z
-x,-y,-z
x,y,-z
-x,y,1/2+z
x,-y,1/2+z
1/2+x,1/2+y,z
1/2-x,1/2-y,z
1/2+x,1/2-y,1/2-z
1/2-x,1/2+y,1/2-z
1/2-x,1/2-y,-z
1/2+x,1/2+y,-z
1/2-x,1/2+y,1/2+z
1/2+x,1/2-y,1/2+z
loop_
_atom_site_type_symbol
_atom_site_label
_atom_site_fract_x
_atom_site_fract_y
_atom_site_fract_z
Si Si1 0.168339 0.741335 0.866780
Si Si2 0.820245 0.838124 0.267807
Si Si3 0.071001 0.647669 0.274044
Si Si4 0.425310 0.047327 0.123645
Si Si5 0.558152 0.717625 0.052113
Si Si6 0.593006 0.616588 0.447902
O O1 0.250000 0.750000 0.866115
O O2 0.145106 0.821842 0.818946
O O3 0.133338 0.578460 0.870616
O O4 0.149375 0.832441 0.911816
O O5 0.750000 0.750000 0.266020
O O6 0.873918 0.776224 0.230785
O O7 0.803293 0.000000 0.250000
O O8 0.100347 0.500000 0.250000
O O9 0.058924 0.624671 0.327904
O O10 0.000000 0.694950 0.250000
O O11 0.401549 0.170507 0.086344
O O12 0.500000 0.000000 0.104266
O O13 0.593583 0.559216 0.054825
O O14 0.478725 0.692884 0.066397
O O15 0.563408 0.780820 0.000000
O O16 0.612700 0.666031 0.500000
#
# Coordination Sequence:
#
# PCOD8277675 Si02
#       6
#    16  16  16  16  16  16
#     4  11  24  39  58  91 124 155 202 247 300 361
#     4  11  25  42  62  85 120 164 203 241 293 368
#     4  11  21  39  59  88 124 154 194 251 306 341
#     4  12  21  37  63  90 118 158 200 251 300 357
#     4   9  20  37  62  90 116 156 204 248 299 364
#     4   9  19  39  61  87 123 156 196 250 305 358
#
# _framework density 18.880679000000001
#
# number of rings (size 3 to 8) (size 9 to 14) (size 15 to 20)
#    0.000    1.500    5.000    1.500    4.667    1.667 
#    0.000    0.833    0.000    2.000    0.000    0.000 
#    0.000    0.000    0.000    0.000    0.000    0.000 
#
# Total GULP energy -594964.930451 kJ/mol
# GULP energy per Si atom -12395.102718 kJ/mol
# Density = 1.883771 g / cm^3
# Si number density = 18.880679 Si / 1000 Ang^3
#
#
#
# Elastic Constant Matrix: (Units=GPa)
#
#
# Indices 1 2 3 4 5 6 
#
# 1 78.1196 40.6256 25.9586 0.0000 0.0000 0.0000
# 2 40.6256 106.3837 59.5441 0.0000 0.0000 0.0000
# 3 25.9586 59.5441 117.7919 0.0000 0.0000 0.0000
# 4 0.0000 0.0000 0.0000 29.6863 0.0000 0.0000
# 5 0.0000 0.0000 0.0000 0.0000 19.1152 0.0000
# 6 0.0000 0.0000 0.0000 0.0000 0.0000 32.9676
#
#
#
# Elastic Compliance Matrix: (Units=1/GPa)
#
#
# Indices 1 2 3 4 5 6 
#
# 1 0.016004 -0.005770 -0.000610 0.000000 0.000000 0.000000
# 2 -0.005770 0.015189 -0.006407 0.000000 0.000000 0.000000
# 3 -0.000610 -0.006407 0.011863 0.000000 0.000000 0.000000
# 4 0.000000 0.000000 0.000000 0.033686 0.000000 0.000000
# 5 0.000000 0.000000 0.000000 0.000000 0.052314 0.000000
# 6 0.000000 0.000000 0.000000 0.000000 0.000000 0.030333
#
#
# Mechanical properties :
#
#
# Convention : Reuss Voigt Hill
#
# Bulk Modulus (GPa) = 57.20061 61.61687 59.40874
# Shear Modulus (GPa) = 26.20677 28.09828 27.15253
#
# Velocity S-wave (km/s) = 3.72966 3.86191 3.79636
# Velocity P-wave (km/s) = 6.99348 7.25200 7.12391
#
# Compressibility (1/GPa) = 0.01748233
#
# Stress axis : x y z
#
# Youngs Moduli (GPa) = 62.48279 65.83584 84.29888
#
# Poissons Ratio (x) = 0.37989 0.05143
# Poissons Ratio (y) = 0.36054 0.54007
# Poissons Ratio (z) = 0.03812 0.42178
#
# Static dielectric constant tensor:
#      x y z
#    x 3.253320 0.000000 0.000000 
#    y 0.000000 3.412290 0.000000 
#    z 0.000000 0.000000 3.705210 
# 
# 
# High freq. dielectric constant tensor:
#      x y z
#    x 1.713200 0.000000 0.000000 
#    y 0.000000 1.728020 0.000000 
#    z 0.000000 0.000000 1.750000 
# 
# From -- ./inp_files/62571.got.cif
#   From: 2010.03.12/outbox.cif.g09.slc.cpg/sg66_32_cif.got.tgz:62571.got - 2010.04.10 21:57:39.
