data_PCOD8277191
_publ_section_title
;
Structure prediction by ZEFSAII (Michael W. Deem and Ramdas Pophale) SiO2 
 PCOD8277191
Probable space group: C C C M
;
_chemical_formula_sum "Si O2"
_cell_formula_units_Z 68
_cell_length_a 16.379544
_cell_length_b 22.041388
_cell_length_c 9.021933
_cell_angle_alpha 90.000000
_cell_angle_beta 90.000000
_cell_angle_gamma 90.000000
_cell_volume 3257.169386
_symmetry_space_group_name_H-M "C C C M"
_symmetry_group_IT_number 66
_symmetry_cell_setting 'orthorhombic'
loop_
_space_group_symop_operation_xyz
x,y,z
-x,-y,z
x,-y,1/2-z
-x,y,1/2-z
-x,-y,-z
x,y,-z
-x,y,1/2+z
x,-y,1/2+z
1/2+x,1/2+y,z
1/2-x,1/2-y,z
1/2+x,1/2-y,1/2-z
1/2-x,1/2+y,1/2-z
1/2-x,1/2-y,-z
1/2+x,1/2+y,-z
1/2-x,1/2+y,1/2+z
1/2+x,1/2-y,1/2+z
loop_
_atom_site_type_symbol
_atom_site_label
_atom_site_fract_x
_atom_site_fract_y
_atom_site_fract_z
Si Si1 0.364267 0.090719 0.662569
Si Si2 0.911795 0.824262 0.322542
Si Si3 0.183426 0.057937 0.331534
Si Si4 0.412741 0.204627 0.175641
Si Si5 0.500000 0.000000 0.250000
O O1 0.362101 0.121817 0.500000
O O2 0.280589 0.055418 0.691775
O O3 0.366127 0.142458 0.787912
O O4 0.440285 0.043932 0.657532
O O5 0.918701 0.817568 0.500000
O O6 0.854376 0.879462 0.271227
O O7 0.871056 0.763591 0.251419
O O8 0.000000 0.834438 0.250000
O O9 0.157327 0.050966 0.500000
O O10 0.144548 0.000000 0.250000
O O11 0.500000 0.196817 0.250000
O O12 0.418874 0.213420 0.000000
#
# Coordination Sequence:
#
# PCOD8277191 Si02
#       5
#    16  16  16  16   4
#     4  11  23  39  60  90 125 160 200 243 294 354
#     4  10  21  40  64  88 118 156 200 248 303 358
#     4  10  23  41  61  88 122 159 197 247 303 358
#     4  11  22  37  60  89 120 157 202 249 298 352
#     4  12  22  36  68  90 124 160 204 228 294 340
#
# _framework density 20.877022
#
# number of rings (size 3 to 8) (size 9 to 14) (size 15 to 20)
#    0.000    1.412    2.353    4.588    0.000    5.176 
#    0.000    7.059    0.000    0.000    0.000    0.000 
#    0.000    0.000    0.000    0.000    0.000    0.000 
#
# Total GULP energy -421428.437011 kJ/mol
# GULP energy per Si atom -12394.954030 kJ/mol
# Density = 2.082951 g / cm^3
# Si number density = 20.877022 Si / 1000 Ang^3
#
#
#
# Elastic Constant Matrix: (Units=GPa)
#
#
# Indices 1 2 3 4 5 6 
#
# 1 53.0972 28.7863 23.0882 0.0000 0.0000 0.0000
# 2 28.7863 155.6870 62.8310 0.0000 0.0000 0.0000
# 3 23.0882 62.8310 127.0117 0.0000 0.0000 0.0000
# 4 0.0000 0.0000 0.0000 40.7753 0.0000 0.0000
# 5 0.0000 0.0000 0.0000 0.0000 19.0243 0.0000
# 6 0.0000 0.0000 0.0000 0.0000 0.0000 26.7513
#
#
#
# Elastic Compliance Matrix: (Units=1/GPa)
#
#
# Indices 1 2 3 4 5 6 
#
# 1 0.021515 -0.002998 -0.002428 0.000000 0.000000 0.000000
# 2 -0.002998 0.008443 -0.003632 0.000000 0.000000 0.000000
# 3 -0.002428 -0.003632 0.010111 0.000000 0.000000 0.000000
# 4 0.000000 0.000000 0.000000 0.024525 0.000000 0.000000
# 5 0.000000 0.000000 0.000000 0.000000 0.052564 0.000000
# 6 0.000000 0.000000 0.000000 0.000000 0.000000 0.037381
#
#
# Mechanical properties :
#
#
# Convention : Reuss Voigt Hill
#
# Bulk Modulus (GPa) = 45.55081 62.80076 54.17579
# Shear Modulus (GPa) = 27.78204 32.04954 29.91579
#
# Velocity S-wave (km/s) = 3.65190 3.92236 3.78954
# Velocity P-wave (km/s) = 6.29665 7.11757 6.71966
#
# Compressibility (1/GPa) = 0.02195351
#
# Stress axis : x y z
#
# Youngs Moduli (GPa) = 46.48028 118.43888 98.90066
#
# Poissons Ratio (x) = 0.35511 0.24010
# Poissons Ratio (y) = 0.13936 0.35918
# Poissons Ratio (z) = 0.11284 0.43014
#
# Static dielectric constant tensor:
#      x y z
#    x 3.594000 0.000000 0.000000 
#    y 0.000000 4.210290 0.000000 
#    z 0.000000 0.000000 3.793330 
# 
# 
# High freq. dielectric constant tensor:
#      x y z
#    x 1.797440 0.000000 0.000000 
#    y 0.000000 1.834480 0.000000 
#    z 0.000000 0.000000 1.818070 
# 
# From -- ./inp_files/6260.got.cif
#   From: 2010.03.12/outbox.cif.g09.slc.cpg/sg66_4_cif.got.tgz:6260.got - 2010.04.10 21:57:39.
