data_PCOD8277627
_publ_section_title
;
Structure prediction by ZEFSAII (Michael W. Deem and Ramdas Pophale) SiO2 
 PCOD8277627
Probable space group: C C C M
;
_chemical_formula_sum "Si O2"
_cell_formula_units_Z 80
_cell_length_a 10.940146
_cell_length_b 15.421482
_cell_length_c 23.258965
_cell_angle_alpha 90.000000
_cell_angle_beta 90.000000
_cell_angle_gamma 90.000000
_cell_volume 3924.095917
_symmetry_space_group_name_H-M "C C C M"
_symmetry_group_IT_number 66
_symmetry_cell_setting 'orthorhombic'
loop_
_space_group_symop_operation_xyz
x,y,z
-x,-y,z
x,-y,1/2-z
-x,y,1/2-z
-x,-y,-z
x,y,-z
-x,y,1/2+z
x,-y,1/2+z
1/2+x,1/2+y,z
1/2-x,1/2-y,z
1/2+x,1/2-y,1/2-z
1/2-x,1/2+y,1/2-z
1/2-x,1/2-y,-z
1/2+x,1/2+y,-z
1/2-x,1/2+y,1/2+z
1/2+x,1/2-y,1/2+z
loop_
_atom_site_type_symbol
_atom_site_label
_atom_site_fract_x
_atom_site_fract_y
_atom_site_fract_z
Si Si1 0.484904 0.868291 0.500000
Si Si2 0.250000 0.750000 0.688778
Si Si3 0.241866 0.434520 0.500000
Si Si4 0.293399 0.380327 0.000000
Si Si5 0.142919 0.098158 0.736863
Si Si6 0.178694 0.161342 0.614431
Si Si7 0.928160 0.232889 0.408493
O O1 0.591886 0.941055 0.500000
O O2 0.349372 0.905751 0.500000
O O3 0.495642 0.808044 0.443761
O O4 0.223746 0.834930 0.726263
O O5 0.134733 0.727775 0.647985
O O6 0.332797 0.518940 0.500000
O O7 0.272216 0.382821 0.557278
O O8 0.329366 0.324122 0.055413
O O9 0.190191 0.104732 0.671584
O O10 0.000000 0.117354 0.750000
O O11 0.177421 0.000000 0.750000
O O12 0.250000 0.250000 0.624422
O O13 0.033452 0.168265 0.609530
#
# Coordination Sequence:
#
# PCOD8277627 Si02
#       7
#     8   8   8   8  16  16  16
#     4  11  20  41  61  95 131 176 217 260 337 402
#     4  12  22  43  70  97 130 178 222 276 332 390
#     4  12  26  38  66  94 139 167 214 276 336 388
#     4  11  24  38  59 104 128 170 215 277 324 396
#     4  11  26  43  69 101 133 175 226 273 327 395
#     4  12  24  43  66  95 131 175 221 272 335 392
#     4  11  22  39  69  90 127 175 225 264 328 401
#
# _framework density 20.386862000000001
#
# number of rings (size 3 to 8) (size 9 to 14) (size 15 to 20)
#    0.000    0.600    7.000    2.400    2.800    1.600 
#    0.000    0.000    0.000    4.200    0.000    0.000 
#    0.000    0.000    0.000    0.000    0.000    0.000 
#
# Total GULP energy -495681.917941 kJ/mol
# GULP energy per Si atom -12392.047949 kJ/mol
# Density = 2.034046 g / cm^3
# Si number density = 20.386862 Si / 1000 Ang^3
#
#
#
# Elastic Constant Matrix: (Units=GPa)
#
#
# Indices 1 2 3 4 5 6 
#
# 1 104.2902 31.0598 40.8773 0.0000 0.0000 0.0000
# 2 31.0598 115.4485 50.0468 0.0000 0.0000 0.0000
# 3 40.8773 50.0468 159.6296 0.0000 0.0000 0.0000
# 4 0.0000 0.0000 0.0000 35.8599 0.0000 0.0000
# 5 0.0000 0.0000 0.0000 0.0000 -18.8965 0.0000
# 6 0.0000 0.0000 0.0000 0.0000 0.0000 31.1683
#
#
#
# Elastic Compliance Matrix: (Units=1/GPa)
#
#
# Indices 1 2 3 4 5 6 
#
# 1 0.011051 -0.002021 -0.002196 0.000000 0.000000 0.000000
# 2 -0.002021 0.010394 -0.002741 0.000000 0.000000 0.000000
# 3 -0.002196 -0.002741 0.007686 0.000000 0.000000 0.000000
# 4 0.000000 0.000000 0.000000 0.027886 0.000000 0.000000
# 5 0.000000 0.000000 0.000000 0.000000 -0.052920 0.000000
# 6 0.000000 0.000000 0.000000 0.000000 0.000000 0.032084
#
#
# Mechanical properties :
#
#
# Convention : Reuss Voigt Hill
#
# Bulk Modulus (GPa) = 65.72685 69.25958 67.49322
# Shear Modulus (GPa) = 90.62771 26.78528 58.70650
#
# Velocity S-wave (km/s) = 6.67461 3.62864 5.37203
# Velocity P-wave (km/s) = 9.57656 7.18348 8.46501
#
# Compressibility (1/GPa) = 0.01521448
#
# Stress axis : x y z
#
# Youngs Moduli (GPa) = 90.48595 96.21030 130.10112
#
# Poissons Ratio (x) = 0.19445 0.28575
# Poissons Ratio (y) = 0.18288 0.35662
# Poissons Ratio (z) = 0.19874 0.26372
#
# Static dielectric constant tensor:
#      x y z
#    x 3.827580 0.000000 0.000000 
#    y 0.000000 3.664530 0.000000 
#    z 0.000000 0.000000 3.333020 
# 
# 
# High freq. dielectric constant tensor:
#      x y z
#    x 1.803430 0.000000 0.000000 
#    y 0.000000 1.792800 0.000000 
#    z 0.000000 0.000000 1.808520 
# 
# From -- ./inp_files/56700.got.cif
#   From: 2010.03.12/outbox.cif.g09.slc.cpg/sg66_29_cif.got.tgz:56700.got - 2010.04.10 21:57:39.
