data_PCOD8277384
_publ_section_title
;
Structure prediction by ZEFSAII (Michael W. Deem and Ramdas Pophale) SiO2 
 PCOD8277384
Probable space group: C C C M
;
_chemical_formula_sum "Si O2"
_cell_formula_units_Z 88
_cell_length_a 21.055630
_cell_length_b 11.984424
_cell_length_c 16.372241
_cell_angle_alpha 90.000000
_cell_angle_beta 90.000000
_cell_angle_gamma 90.000000
_cell_volume 4131.364704
_symmetry_space_group_name_H-M "C C C M"
_symmetry_group_IT_number 66
_symmetry_cell_setting 'orthorhombic'
loop_
_space_group_symop_operation_xyz
x,y,z
-x,-y,z
x,-y,1/2-z
-x,y,1/2-z
-x,-y,-z
x,y,-z
-x,y,1/2+z
x,-y,1/2+z
1/2+x,1/2+y,z
1/2-x,1/2-y,z
1/2+x,1/2-y,1/2-z
1/2-x,1/2+y,1/2-z
1/2-x,1/2-y,-z
1/2+x,1/2+y,-z
1/2-x,1/2+y,1/2+z
1/2+x,1/2-y,1/2+z
loop_
_atom_site_type_symbol
_atom_site_label
_atom_site_fract_x
_atom_site_fract_y
_atom_site_fract_z
Si Si1 0.005000 0.343027 0.406788
Si Si2 0.233038 0.464855 0.406257
Si Si3 0.834899 0.900444 0.810422
Si Si4 0.476417 0.381955 0.841892
Si Si5 0.750000 0.750000 0.295512
Si Si6 0.102633 0.508383 0.656220
O O1 0.996741 0.379407 0.500000
O O2 0.069674 0.393793 0.371766
O O3 0.009761 0.210490 0.397977
O O4 0.945067 0.388584 0.355834
O O5 0.246219 0.432593 0.500000
O O6 0.286179 0.552358 0.377469
O O7 0.228486 0.352959 0.351851
O O8 0.165815 0.527553 0.397034
O O9 0.900800 0.865995 0.852220
O O10 0.806977 0.793038 0.762624
O O11 0.852832 0.000000 0.750000
O O12 0.500000 0.500000 0.876720
O O13 0.500000 0.365011 0.750000
O O14 0.123117 0.500000 0.750000
#
# Coordination Sequence:
#
# PCOD8277384 Si02
#       6
#    16  16  16  16   8  16
#     4  11  24  39  62  97 136 167 212 273 330 388
#     4  11  24  41  65  96 134 169 213 281 340 387
#     4  10  22  42  63  94 126 171 221 267 313 395
#     4  11  23  41  67  91 125 175 226 262 313 385
#     4  10  23  40  67  94 126 170 224 266 325 400
#     4  11  22  42  66  96 126 172 220 264 330 398
#
# _framework density 21.300466
#
# number of rings (size 3 to 8) (size 9 to 14) (size 15 to 20)
#    0.000    1.273    1.818    6.273    7.636    1.091 
#    0.000    2.273    0.000    0.000    0.000    0.000 
#    0.000    0.000    0.000    0.000    0.000    0.000 
#
# Total GULP energy -545754.276342 kJ/mol
# GULP energy per Si atom -12403.506280 kJ/mol
# Density = 2.125199 g / cm^3
# Si number density = 21.300466 Si / 1000 Ang^3
#
#
#
# Elastic Constant Matrix: (Units=GPa)
#
#
# Indices 1 2 3 4 5 6 
#
# 1 135.7176 32.1770 31.3360 0.0000 0.0000 0.0000
# 2 32.1770 113.2462 39.5540 0.0000 0.0000 0.0000
# 3 31.3360 39.5540 100.0804 0.0000 0.0000 0.0000
# 4 0.0000 0.0000 0.0000 23.5111 0.0000 0.0000
# 5 0.0000 0.0000 0.0000 0.0000 17.4557 0.0000
# 6 0.0000 0.0000 0.0000 0.0000 0.0000 16.8664
#
#
#
# Elastic Compliance Matrix: (Units=1/GPa)
#
#
# Indices 1 2 3 4 5 6 
#
# 1 0.008204 -0.001663 -0.001911 0.000000 0.000000 0.000000
# 2 -0.001663 0.010582 -0.003661 0.000000 0.000000 0.000000
# 3 -0.001911 -0.003661 0.012037 0.000000 0.000000 0.000000
# 4 0.000000 0.000000 0.000000 0.042533 0.000000 0.000000
# 5 0.000000 0.000000 0.000000 0.000000 0.057288 0.000000
# 6 0.000000 0.000000 0.000000 0.000000 0.000000 0.059289
#
#
# Mechanical properties :
#
#
# Convention : Reuss Voigt Hill
#
# Bulk Modulus (GPa) = 61.15820 61.68648 61.42234
# Shear Modulus (GPa) = 23.82589 27.96513 25.89551
#
# Velocity S-wave (km/s) = 3.34812 3.62731 3.49051
# Velocity P-wave (km/s) = 6.61219 6.82394 6.71890
#
# Compressibility (1/GPa) = 0.01635104
#
# Stress axis : x y z
#
# Youngs Moduli (GPa) = 121.89292 94.50229 83.07418
#
# Poissons Ratio (x) = 0.15720 0.15878
# Poissons Ratio (y) = 0.20276 0.30416
# Poissons Ratio (z) = 0.23297 0.34600
#
# Static dielectric constant tensor:
#      x y z
#    x 3.851330 0.000000 0.000000 
#    y 0.000000 3.861920 0.000000 
#    z 0.000000 0.000000 3.672100 
# 
# 
# High freq. dielectric constant tensor:
#      x y z
#    x 1.841980 0.000000 0.000000 
#    y 0.000000 1.840110 0.000000 
#    z 0.000000 0.000000 1.823080 
# 
# From -- ./inp_files/42758.got.cif
#   From: 2010.03.12/outbox.cif.g09.slc.cpg/sg66_22_cif.got.tgz:42758.got - 2010.04.10 21:57:39.
