data_PCOD8277286
_publ_section_title
;
Structure prediction by ZEFSAII (Michael W. Deem and Ramdas Pophale) SiO2 
 PCOD8277286
Probable space group: C C C M
;
_chemical_formula_sum "Si O2"
_cell_formula_units_Z 68
_cell_length_a 13.933203
_cell_length_b 17.973819
_cell_length_c 14.133808
_cell_angle_alpha 90.000000
_cell_angle_beta 90.000000
_cell_angle_gamma 90.000000
_cell_volume 3539.570085
_symmetry_space_group_name_H-M "C C C M"
_symmetry_group_IT_number 66
_symmetry_cell_setting 'orthorhombic'
loop_
_space_group_symop_operation_xyz
x,y,z
-x,-y,z
x,-y,1/2-z
-x,y,1/2-z
-x,-y,-z
x,y,-z
-x,y,1/2+z
x,-y,1/2+z
1/2+x,1/2+y,z
1/2-x,1/2-y,z
1/2+x,1/2-y,1/2-z
1/2-x,1/2+y,1/2-z
1/2-x,1/2-y,-z
1/2+x,1/2+y,-z
1/2-x,1/2+y,1/2+z
1/2+x,1/2-y,1/2+z
loop_
_atom_site_type_symbol
_atom_site_label
_atom_site_fract_x
_atom_site_fract_y
_atom_site_fract_z
Si Si1 0.822026 0.817200 0.898230
Si Si2 0.036739 0.769582 0.892168
Si Si3 0.000000 0.500000 0.250000
Si Si4 0.891185 0.608349 0.389190
Si Si5 0.289093 0.666325 0.198973
O O1 0.750000 0.750000 0.911799
O O2 0.789103 0.866009 0.807584
O O3 0.926030 0.784724 0.872528
O O4 0.824440 0.861222 0.000000
O O5 0.056340 0.684915 0.861178
O O6 0.101545 0.830295 0.837581
O O7 0.066642 0.778756 0.000000
O O8 0.933368 0.546678 0.320188
O O9 0.905327 0.587500 0.500000
O O10 0.777189 0.615076 0.367168
O O11 0.250000 0.750000 0.198898
#
# Coordination Sequence:
#
# PCOD8277286 Si02
#       5
#    16  16   4  16  16
#     4   9  17  26  41  76 115 141 166 204 270 332
#     4   9  17  30  52  78 110 143 173 221 277 326
#     4  12  26  36  56  74 106 152 186 222 276 318
#     4  10  22  38  53  75 106 142 189 226 263 326
#     4   9  17  29  52  74 103 138 178 218 272 322
#
# _framework density 19.211372000000001
#
# number of rings (size 3 to 8) (size 9 to 14) (size 15 to 20)
#    0.000    2.588    0.000    1.765    9.882    2.824 
#    0.000    1.176    0.000    0.000    0.000    3.294 
#    0.000   11.294    0.000    0.000    0.000    0.000 
#
# Total GULP energy -421208.295357 kJ/mol
# GULP energy per Si atom -12388.479275 kJ/mol
# Density = 1.916765 g / cm^3
# Si number density = 19.211372 Si / 1000 Ang^3
#
#
#
# Elastic Constant Matrix: (Units=GPa)
#
#
# Indices 1 2 3 4 5 6 
#
# 1 121.4923 21.3086 38.0568 0.0000 0.0000 0.0000
# 2 21.3086 37.4170 37.9889 0.0000 0.0000 0.0000
# 3 38.0568 37.9889 135.9177 0.0000 0.0000 0.0000
# 4 0.0000 0.0000 0.0000 7.2684 0.0000 0.0000
# 5 0.0000 0.0000 0.0000 0.0000 35.3034 0.0000
# 6 0.0000 0.0000 0.0000 0.0000 0.0000 15.5594
#
#
#
# Elastic Compliance Matrix: (Units=1/GPa)
#
#
# Indices 1 2 3 4 5 6 
#
# 1 0.009382 -0.003736 -0.001583 0.000000 0.000000 0.000000
# 2 -0.003736 0.038802 -0.009799 0.000000 0.000000 0.000000
# 3 -0.001583 -0.009799 0.010539 0.000000 0.000000 0.000000
# 4 0.000000 0.000000 0.000000 0.137582 0.000000 0.000000
# 5 0.000000 0.000000 0.000000 0.000000 0.028326 0.000000
# 6 0.000000 0.000000 0.000000 0.000000 0.000000 0.064270
#
#
# Mechanical properties :
#
#
# Convention : Reuss Voigt Hill
#
# Bulk Modulus (GPa) = 35.10251 54.39283 44.74767
# Shear Modulus (GPa) = 15.21452 24.79109 20.00281
#
# Velocity S-wave (km/s) = 2.81722 3.59616 3.23026
# Velocity P-wave (km/s) = 5.37529 6.75407 6.10374
#
# Compressibility (1/GPa) = 0.02848800
#
# Stress axis : x y z
#
# Youngs Moduli (GPa) = 106.58678 25.77159 94.88199
#
# Poissons Ratio (x) = 0.09628 0.15017
# Poissons Ratio (y) = 0.39821 0.92976
# Poissons Ratio (z) = 0.16870 0.25254
#
# Static dielectric constant tensor:
#      x y z
#    x 3.711940 0.000000 0.000000 
#    y 0.000000 2.647240 0.000000 
#    z 0.000000 0.000000 4.139600 
# 
# 
# High freq. dielectric constant tensor:
#      x y z
#    x 1.763040 0.000000 0.000000 
#    y 0.000000 1.657980 0.000000 
#    z 0.000000 0.000000 1.783600 
# 
# From -- ./inp_files/26117.got.cif
#   From: 2010.03.12/outbox.cif.g09.slc.cpg/sg66_14_cif.got.tgz:26117.got - 2010.04.10 21:57:39.
