data_PCOD8277100
_publ_section_title
;
Structure prediction by ZEFSAII (Michael W. Deem and Ramdas Pophale) SiO2 
 PCOD8277100
Probable space group: C C C M
;
_chemical_formula_sum "Si O2"
_cell_formula_units_Z 64
_cell_length_a 22.127856
_cell_length_b 8.924834
_cell_length_c 13.593435
_cell_angle_alpha 90.000000
_cell_angle_beta 90.000000
_cell_angle_gamma 90.000000
_cell_volume 2684.532700
_symmetry_space_group_name_H-M "C C C M"
_symmetry_group_IT_number 66
_symmetry_cell_setting 'orthorhombic'
loop_
_space_group_symop_operation_xyz
x,y,z
-x,-y,z
x,-y,1/2-z
-x,y,1/2-z
-x,-y,-z
x,y,-z
-x,y,1/2+z
x,-y,1/2+z
1/2+x,1/2+y,z
1/2-x,1/2-y,z
1/2+x,1/2-y,1/2-z
1/2-x,1/2+y,1/2-z
1/2-x,1/2-y,-z
1/2+x,1/2+y,-z
1/2-x,1/2+y,1/2+z
1/2+x,1/2-y,1/2+z
loop_
_atom_site_type_symbol
_atom_site_label
_atom_site_fract_x
_atom_site_fract_y
_atom_site_fract_z
Si Si1 0.443202 0.407298 0.111284
Si Si2 0.332781 0.369258 0.612524
Si Si3 0.228599 0.589022 0.383610
Si Si4 0.887140 0.347863 0.729191
O O1 0.500000 0.500000 0.152975
O O2 0.382843 0.502517 0.117752
O O3 0.434212 0.262304 0.177818
O O4 0.456783 0.355646 0.000000
O O5 0.325249 0.311304 0.500000
O O6 0.271155 0.449269 0.651825
O O7 0.352939 0.230228 0.679000
O O8 0.229303 0.588136 0.500000
O O9 0.250000 0.750000 0.343534
O O10 0.161399 0.574608 0.343906
O O11 0.925381 0.500000 0.750000
#
# Coordination Sequence:
#
# PCOD8277100 Si02
#       4
#    16  16  16  16
#     4  10  22  44  71  94 124 173 231 287 344 402
#     4  10  23  42  63  94 136 182 225 272 335 407
#     4  10  21  38  63  95 136 180 225 275 334 407
#     4  12  26  38  66 102 140 177 226 281 341 416
#
# _framework density 23.840275999999999
#
# number of rings (size 3 to 8) (size 9 to 14) (size 15 to 20)
#    0.000    1.500    2.500    1.500    3.500    4.000 
#    0.000    5.000    0.000    4.500    0.000    0.000 
#    0.000    0.000    0.000    0.000    0.000    0.000 
#
# Total GULP energy -396653.978065 kJ/mol
# GULP energy per Si atom -12395.436815 kJ/mol
# Density = 2.378601 g / cm^3
# Si number density = 23.840276 Si / 1000 Ang^3
#
#
#
# Elastic Constant Matrix: (Units=GPa)
#
#
# Indices 1 2 3 4 5 6 
#
# 1 103.9108 48.9147 30.2486 0.0000 0.0000 0.0000
# 2 48.9147 193.4709 79.0549 0.0000 0.0000 0.0000
# 3 30.2486 79.0549 71.4724 0.0000 0.0000 0.0000
# 4 0.0000 0.0000 0.0000 6.7084 0.0000 0.0000
# 5 0.0000 0.0000 0.0000 0.0000 -140.4829 0.0000
# 6 0.0000 0.0000 0.0000 0.0000 0.0000 32.1668
#
#
#
# Elastic Compliance Matrix: (Units=1/GPa)
#
#
# Indices 1 2 3 4 5 6 
#
# 1 0.011254 -0.001641 -0.002948 0.000000 0.000000 0.000000
# 2 -0.001641 0.009671 -0.010002 0.000000 0.000000 0.000000
# 3 -0.002948 -0.010002 0.026302 0.000000 0.000000 0.000000
# 4 0.000000 0.000000 0.000000 0.149066 0.000000 0.000000
# 5 0.000000 0.000000 0.000000 0.000000 -0.007118 0.000000
# 6 0.000000 0.000000 0.000000 0.000000 0.000000 0.031088
#
#
# Mechanical properties :
#
#
# Convention : Reuss Voigt Hill
#
# Bulk Modulus (GPa) = 55.41693 76.14339 65.78016
# Shear Modulus (GPa) = 19.57254 -6.27913 6.64671
#
# Velocity S-wave (km/s) = 2.86839 -1.62467 1.67155
# Velocity P-wave (km/s) = 5.85370 5.33750 5.60155
#
# Compressibility (1/GPa) = 0.01804503
#
# Stress axis : x y z
#
# Youngs Moduli (GPa) = 88.85565 103.40677 38.01924
#
# Poissons Ratio (x) = 0.16965 0.11209
# Poissons Ratio (y) = 0.14578 0.38027
# Poissons Ratio (z) = 0.26197 1.03429
#
# Static dielectric constant tensor:
#      x y z
#    x 4.174370 0.000000 0.000000 
#    y 0.000000 4.688030 0.000000 
#    z 0.000000 0.000000 4.576740 
# 
# 
# High freq. dielectric constant tensor:
#      x y z
#    x 1.925540 0.000000 0.000000 
#    y 0.000000 1.955090 0.000000 
#    z 0.000000 0.000000 1.960050 
# 
# From -- ./inp_files/24118.got.cif
#   From: 2010.03.12/outbox.cif.g09.slc.cpg/sg66_13_cif.got.tgz:24118.got - 2010.04.10 21:57:39.
