data_PCOD8277710
_publ_section_title
;
Structure prediction by ZEFSAII (Michael W. Deem and Ramdas Pophale) SiO2 
 PCOD8277710
Probable space group: C C C M
;
_chemical_formula_sum "Si O2"
_cell_formula_units_Z 80
_cell_length_a 9.028051
_cell_length_b 19.896614
_cell_length_c 24.682123
_cell_angle_alpha 90.000000
_cell_angle_beta 90.000000
_cell_angle_gamma 90.000000
_cell_volume 4433.591651
_symmetry_space_group_name_H-M "C C C M"
_symmetry_group_IT_number 66
_symmetry_cell_setting 'orthorhombic'
loop_
_space_group_symop_operation_xyz
x,y,z
-x,-y,z
x,-y,1/2-z
-x,y,1/2-z
-x,-y,-z
x,y,-z
-x,y,1/2+z
x,-y,1/2+z
1/2+x,1/2+y,z
1/2-x,1/2-y,z
1/2+x,1/2-y,1/2-z
1/2-x,1/2+y,1/2-z
1/2-x,1/2-y,-z
1/2+x,1/2+y,-z
1/2-x,1/2+y,1/2+z
1/2+x,1/2-y,1/2+z
loop_
_atom_site_type_symbol
_atom_site_label
_atom_site_fract_x
_atom_site_fract_y
_atom_site_fract_z
Si Si1 0.648099 0.814246 0.780178
Si Si2 0.778677 0.457377 0.000000
Si Si3 0.731953 0.963018 0.383168
Si Si4 0.924835 0.397841 0.500000
Si Si5 0.408539 0.102633 0.883403
Si Si6 0.838658 0.071686 0.227896
O O1 0.500000 0.791606 0.750000
O O2 0.750000 0.750000 0.784453
O O3 0.613250 0.838657 0.840525
O O4 0.721648 0.873015 0.745363
O O5 0.689009 0.453263 0.057280
O O6 0.869071 0.526062 0.000000
O O7 0.896654 0.396878 0.000000
O O8 0.575596 0.924707 0.382089
O O9 0.841254 0.932656 0.337702
O O10 0.704731 0.041797 0.370951
O O11 0.872052 0.364894 0.556907
O O12 0.000000 0.090793 0.250000
O O13 0.783882 0.000000 0.250000
#
# Coordination Sequence:
#
# PCOD8277710 Si02
#       6
#    16   8  16   8  16  16
#     4  12  24  38  54  77 109 148 186 227 275 330
#     4   7  12  22  46  82 113 132 168 218 271 314
#     4   9  15  29  54  84 109 139 176 224 268 325
#     4   7  12  24  45  81 112 133 166 225 262 315
#     4   9  16  29  54  82 110 138 180 218 271 326
#     4  11  22  35  54  81 113 143 181 226 273 323
#
# _framework density 18.044060999999999
#
# number of rings (size 3 to 8) (size 9 to 14) (size 15 to 20)
#    0.000    2.400    4.000    3.000    0.000    0.400 
#    0.000    0.500    0.000    3.600    0.000    5.600 
#    0.000    0.000    0.000    0.000    0.000    0.000 
#
# Total GULP energy -495557.606947 kJ/mol
# GULP energy per Si atom -12388.940174 kJ/mol
# Density = 1.800299 g / cm^3
# Si number density = 18.044061 Si / 1000 Ang^3
#
#
#
# Elastic Constant Matrix: (Units=GPa)
#
#
# Indices 1 2 3 4 5 6 
#
# 1 60.0014 25.1437 45.1489 0.0000 0.0000 0.0000
# 2 25.1437 71.1404 39.8639 0.0000 0.0000 0.0000
# 3 45.1489 39.8639 200.0561 0.0000 0.0000 0.0000
# 4 0.0000 0.0000 0.0000 5.2212 0.0000 0.0000
# 5 0.0000 0.0000 0.0000 0.0000 21.0847 0.0000
# 6 0.0000 0.0000 0.0000 0.0000 0.0000 12.6494
#
#
#
# Elastic Compliance Matrix: (Units=1/GPa)
#
#
# Indices 1 2 3 4 5 6 
#
# 1 0.021888 -0.005593 -0.003825 0.000000 0.000000 0.000000
# 2 -0.005593 0.017252 -0.002176 0.000000 0.000000 0.000000
# 3 -0.003825 -0.002176 0.006295 0.000000 0.000000 0.000000
# 4 0.000000 0.000000 0.000000 0.191526 0.000000 0.000000
# 5 0.000000 0.000000 0.000000 0.000000 0.047428 0.000000
# 6 0.000000 0.000000 0.000000 0.000000 0.000000 0.079055
#
#
# Mechanical properties :
#
#
# Convention : Reuss Voigt Hill
#
# Bulk Modulus (GPa) = 44.94584 61.27900 53.11242
# Shear Modulus (GPa) = 12.68879 22.52717 17.60798
#
# Velocity S-wave (km/s) = 2.65469 3.53718 3.12722
# Velocity P-wave (km/s) = 5.86170 7.12156 6.52212
#
# Compressibility (1/GPa) = 0.02224900
#
# Stress axis : x y z
#
# Youngs Moduli (GPa) = 45.68644 57.96262 158.84507
#
# Poissons Ratio (x) = 0.32416 0.60764
# Poissons Ratio (y) = 0.25551 0.34559
# Poissons Ratio (z) = 0.17477 0.12611
#
# Static dielectric constant tensor:
#      x y z
#    x 2.959370 0.000000 0.000000 
#    y 0.000000 2.948880 0.000000 
#    z 0.000000 0.000000 3.998190 
# 
# 
# High freq. dielectric constant tensor:
#      x y z
#    x 1.664560 0.000000 0.000000 
#    y 0.000000 1.651220 0.000000 
#    z 0.000000 0.000000 1.730240 
# 
# From -- ./inp_files/55383.got.cif
#   From: 2010.03.12/outbox.cif.g09.slc.cpg/sg66_28_cif.got.tgz:55383.got - 2010.04.10 21:57:39.
