data_PCOD8277644
_publ_section_title
;
Structure prediction by ZEFSAII (Michael W. Deem and Ramdas Pophale) SiO2 
 PCOD8277644
Probable space group: C C C M
;
_chemical_formula_sum "Si O2"
_cell_formula_units_Z 80
_cell_length_a 11.543836
_cell_length_b 22.231960
_cell_length_c 16.234088
_cell_angle_alpha 90.000000
_cell_angle_beta 90.000000
_cell_angle_gamma 90.000000
_cell_volume 4166.350439
_symmetry_space_group_name_H-M "C C C M"
_symmetry_group_IT_number 66
_symmetry_cell_setting 'orthorhombic'
loop_
_space_group_symop_operation_xyz
x,y,z
-x,-y,z
x,-y,1/2-z
-x,y,1/2-z
-x,-y,-z
x,y,-z
-x,y,1/2+z
x,-y,1/2+z
1/2+x,1/2+y,z
1/2-x,1/2-y,z
1/2+x,1/2-y,1/2-z
1/2-x,1/2+y,1/2-z
1/2-x,1/2-y,-z
1/2+x,1/2+y,-z
1/2-x,1/2+y,1/2+z
1/2+x,1/2-y,1/2+z
loop_
_atom_site_type_symbol
_atom_site_label
_atom_site_fract_x
_atom_site_fract_y
_atom_site_fract_z
Si Si1 0.891398 0.423135 0.403104
Si Si2 0.750416 0.331617 0.153827
Si Si3 0.564975 0.750898 0.593211
Si Si4 0.834994 0.700784 0.166321
Si Si5 0.849194 0.554300 0.597613
O O1 0.894765 0.421638 0.500000
O O2 0.820772 0.365473 0.372336
O O3 0.829318 0.485109 0.374245
O O4 0.024102 0.423502 0.372081
O O5 0.619696 0.309436 0.134588
O O6 0.836978 0.302557 0.086415
O O7 0.798602 0.306174 0.239376
O O8 0.755717 0.403948 0.144952
O O9 0.519915 0.738381 0.500000
O O10 0.463554 0.774041 0.652937
O O11 0.750000 0.750000 0.124234
O O12 0.834285 0.560341 0.500000
#
# Coordination Sequence:
#
# PCOD8277644 Si02
#       5
#    16  16  16  16  16
#     4   9  19  33  52  80 113 148 186 231 288 347
#     4  11  21  34  58  82 112 147 190 241 284 326
#     4  11  22  37  56  81 112 154 198 230 276 345
#     4  12  24  36  55  84 124 152 183 235 293 346
#     4   9  17  33  56  80 109 145 189 238 282 339
#
# _framework density 19.201457000000001
#
# number of rings (size 3 to 8) (size 9 to 14) (size 15 to 20)
#    0.000    1.600    4.000    4.800    0.000    2.400 
#    0.000    2.000    0.000    1.200    0.000    7.000 
#    0.000    0.000    0.000    0.000    0.000    0.000 
#
# Total GULP energy -495700.361779 kJ/mol
# GULP energy per Si atom -12392.509044 kJ/mol
# Density = 1.915775 g / cm^3
# Si number density = 19.201457 Si / 1000 Ang^3
#
#
#
# Elastic Constant Matrix: (Units=GPa)
#
#
# Indices 1 2 3 4 5 6 
#
# 1 53.3379 54.3919 25.3666 0.0000 0.0000 0.0000
# 2 54.3919 194.0375 31.9039 0.0000 0.0000 0.0000
# 3 25.3666 31.9039 55.4458 0.0000 0.0000 0.0000
# 4 0.0000 0.0000 0.0000 20.7147 0.0000 0.0000
# 5 0.0000 0.0000 0.0000 0.0000 12.5864 0.0000
# 6 0.0000 0.0000 0.0000 0.0000 0.0000 36.6238
#
#
#
# Elastic Compliance Matrix: (Units=1/GPa)
#
#
# Indices 1 2 3 4 5 6 
#
# 1 0.030564 -0.006924 -0.009999 0.000000 0.000000 0.000000
# 2 -0.006924 0.007261 -0.001010 0.000000 0.000000 0.000000
# 3 -0.009999 -0.001010 0.023192 0.000000 0.000000 0.000000
# 4 0.000000 0.000000 0.000000 0.048275 0.000000 0.000000
# 5 0.000000 0.000000 0.000000 0.000000 0.079451 0.000000
# 6 0.000000 0.000000 0.000000 0.000000 0.000000 0.027305
#
#
# Mechanical properties :
#
#
# Convention : Reuss Voigt Hill
#
# Bulk Modulus (GPa) = 39.76117 58.46068 49.11093
# Shear Modulus (GPa) = 19.20886 26.72890 22.96888
#
# Velocity S-wave (km/s) = 3.16632 3.73503 3.46237
# Velocity P-wave (km/s) = 5.84121 7.00804 6.45106
#
# Compressibility (1/GPa) = 0.02515017
#
# Stress axis : x y z
#
# Youngs Moduli (GPa) = 32.71793 137.73099 43.11894
#
# Poissons Ratio (x) = 0.95359 0.43116
# Poissons Ratio (y) = 0.22652 0.04356
# Poissons Ratio (z) = 0.32716 0.13914
#
# Static dielectric constant tensor:
#      x y z
#    x 2.757990 0.000000 0.000000 
#    y 0.000000 23.803960 0.000000 
#    z 0.000000 0.000000 3.324200 
# 
# 
# High freq. dielectric constant tensor:
#      x y z
#    x 1.696490 0.000000 0.000000 
#    y 0.000000 1.757670 0.000000 
#    z 0.000000 0.000000 1.743420 
# 
# From -- ./inp_files/26371.got.cif
#   From: 2010.03.12/outbox.cif.g09.slc.cpg/sg66_14_cif.got.tgz:26371.got - 2010.04.10 21:57:39.
