data_PCOD8277239
_publ_section_title
;
Structure prediction by ZEFSAII (Michael W. Deem and Ramdas Pophale) SiO2 
 PCOD8277239
Probable space group: C C C M
;
_chemical_formula_sum "Si O2"
_cell_formula_units_Z 80
_cell_length_a 17.065848
_cell_length_b 8.914935
_cell_length_c 25.378359
_cell_angle_alpha 90.000000
_cell_angle_beta 90.000000
_cell_angle_gamma 90.000000
_cell_volume 3861.087029
_symmetry_space_group_name_H-M "C C C M"
_symmetry_group_IT_number 66
_symmetry_cell_setting 'orthorhombic'
loop_
_space_group_symop_operation_xyz
x,y,z
-x,-y,z
x,-y,1/2-z
-x,y,1/2-z
-x,-y,-z
x,y,-z
-x,y,1/2+z
x,-y,1/2+z
1/2+x,1/2+y,z
1/2-x,1/2-y,z
1/2+x,1/2-y,1/2-z
1/2-x,1/2+y,1/2-z
1/2-x,1/2-y,-z
1/2+x,1/2+y,-z
1/2-x,1/2+y,1/2+z
1/2+x,1/2-y,1/2+z
loop_
_atom_site_type_symbol
_atom_site_label
_atom_site_fract_x
_atom_site_fract_y
_atom_site_fract_z
Si Si1 0.869236 0.817919 0.000000
Si Si2 0.712724 0.000022 0.000000
Si Si3 0.803152 0.500000 0.750000
Si Si4 0.367135 0.848417 0.095015
Si Si5 0.250000 0.750000 0.177581
Si Si6 0.517064 0.333375 0.402694
Si Si7 0.426669 0.090261 0.829351
O O1 0.802452 0.946501 0.000000
O O2 0.839679 0.648140 0.000000
O O3 0.918994 0.842611 0.051948
O O4 0.694388 0.106518 0.049808
O O5 0.747695 0.397527 0.785973
O O6 0.858344 0.606009 0.786105
O O7 0.326630 0.750169 0.140943
O O8 0.440255 0.751087 0.073891
O O9 0.397790 0.003619 0.118763
O O10 0.500000 0.500000 0.383582
O O11 0.548525 0.253637 0.349727
O O12 0.500000 0.000000 0.804275
#
# Coordination Sequence:
#
# PCOD8277239 Si02
#       7
#     8   8   8  16   8  16  16
#     4  11  24  40  61 101 128 170 217 262 316 375
#     4  11  23  41  67  91 129 179 212 259 314 388
#     4  10  21  42  64  92 125 162 206 276 314 389
#     4  10  22  41  65  89 129 176 215 252 317 389
#     4  10  24  41  62  98 120 165 218 260 332 376
#     4  11  23  39  62  98 132 167 212 268 314 379
#     4   9  19  39  66  89 119 168 213 255 317 384
#
# _framework density 20.719555
#
# number of rings (size 3 to 8) (size 9 to 14) (size 15 to 20)
#    0.000    1.800    2.000    1.200    2.800    2.800 
#    3.600    0.000    0.000   10.800    0.000    0.000 
#    0.000    0.000    0.000    0.000    0.000    0.000 
#
# Total GULP energy -496031.044787 kJ/mol
# GULP energy per Si atom -12400.776120 kJ/mol
# Density = 2.067240 g / cm^3
# Si number density = 20.719555 Si / 1000 Ang^3
#
#
#
# Elastic Constant Matrix: (Units=GPa)
#
#
# Indices 1 2 3 4 5 6 
#
# 1 116.3117 63.0436 56.2902 0.0000 0.0000 0.0000
# 2 63.0436 132.4464 64.8715 0.0000 0.0000 0.0000
# 3 56.2902 64.8715 105.5185 0.0000 0.0000 0.0000
# 4 0.0000 0.0000 0.0000 44.8998 0.0000 0.0000
# 5 0.0000 0.0000 0.0000 0.0000 28.6483 0.0000
# 6 0.0000 0.0000 0.0000 0.0000 0.0000 35.4288
#
#
#
# Elastic Compliance Matrix: (Units=1/GPa)
#
#
# Indices 1 2 3 4 5 6 
#
# 1 0.012895 -0.003962 -0.004444 0.000000 0.000000 0.000000
# 2 -0.003962 0.012020 -0.005277 0.000000 0.000000 0.000000
# 3 -0.004444 -0.005277 0.015092 0.000000 0.000000 0.000000
# 4 0.000000 0.000000 0.000000 0.022272 0.000000 0.000000
# 5 0.000000 0.000000 0.000000 0.000000 0.034906 0.000000
# 6 0.000000 0.000000 0.000000 0.000000 0.000000 0.028226
#
#
# Mechanical properties :
#
#
# Convention : Reuss Voigt Hill
#
# Bulk Modulus (GPa) = 79.09183 80.29860 79.69522
# Shear Modulus (GPa) = 31.84931 33.13346 32.49139
#
# Velocity S-wave (km/s) = 3.92492 4.00326 3.96428
# Velocity P-wave (km/s) = 7.66782 7.75933 7.71371
#
# Compressibility (1/GPa) = 0.01264353
#
# Stress axis : x y z
#
# Youngs Moduli (GPa) = 77.54665 83.19189 66.26236
#
# Poissons Ratio (x) = 0.32958 0.29445
# Poissons Ratio (y) = 0.30721 0.34964
# Poissons Ratio (z) = 0.34459 0.43897
#
# Static dielectric constant tensor:
#      x y z
#    x 3.879860 0.000000 0.000000 
#    y 0.000000 3.705200 0.000000 
#    z 0.000000 0.000000 3.648080 
# 
# 
# High freq. dielectric constant tensor:
#      x y z
#    x 1.815280 0.000000 0.000000 
#    y 0.000000 1.805790 0.000000 
#    z 0.000000 0.000000 1.809150 
# 
# From -- ./inp_files/65151.got.cif
#   From: 2010.03.12/outbox.cif.g09.slc.cpg/sg66_33_cif.got.tgz:65151.got - 2010.04.10 21:57:39.
