data_PCOD8277386
_publ_section_title
;
Structure prediction by ZEFSAII (Michael W. Deem and Ramdas Pophale) SiO2 
 PCOD8277386
Probable space group: C C C M
;
_chemical_formula_sum "Si O2"
_cell_formula_units_Z 48
_cell_length_a 14.163827
_cell_length_b 5.057254
_cell_length_c 29.537657
_cell_angle_alpha 90.000000
_cell_angle_beta 90.000000
_cell_angle_gamma 90.000000
_cell_volume 2115.784461
_symmetry_space_group_name_H-M "C C C M"
_symmetry_group_IT_number 66
_symmetry_cell_setting 'orthorhombic'
loop_
_space_group_symop_operation_xyz
x,y,z
-x,-y,z
x,-y,1/2-z
-x,y,1/2-z
-x,-y,-z
x,y,-z
-x,y,1/2+z
x,-y,1/2+z
1/2+x,1/2+y,z
1/2-x,1/2-y,z
1/2+x,1/2-y,1/2-z
1/2-x,1/2+y,1/2-z
1/2-x,1/2-y,-z
1/2+x,1/2+y,-z
1/2-x,1/2+y,1/2+z
1/2+x,1/2-y,1/2+z
loop_
_atom_site_type_symbol
_atom_site_label
_atom_site_fract_x
_atom_site_fract_y
_atom_site_fract_z
Si Si1 0.387152 0.990605 0.650342
Si Si2 0.391415 0.498177 0.597530
Si Si3 0.750000 0.750000 0.222332
Si Si4 0.685107 0.504326 0.500000
O O1 0.352496 0.781651 0.612491
O O2 0.334741 0.896821 0.695648
O O3 0.500000 0.000000 0.659055
O O4 0.347769 0.265877 0.629254
O O5 0.500000 0.500000 0.608952
O O6 0.379250 0.468857 0.544111
O O7 0.705441 0.500000 0.250000
O O8 0.750000 0.750000 0.500000
O O9 0.750000 0.250000 0.500000
#
# Coordination Sequence:
#
# PCOD8277386 Si02
#       4
#    16  16   8   8
#     4  10  23  43  69  96 130 175 219 267 334 396
#     4  10  22  42  64  91 132 178 217 264 318 385
#     4  12  26  44  70 103 132 169 218 284 350 410
#     4  12  25  36  59 102 132 171 221 268 316 372
#
# _framework density 22.686622
#
# number of rings (size 3 to 8) (size 9 to 14) (size 15 to 20)
#    0.000    1.333    0.000    4.500    7.000    0.667 
#    0.000    8.333    0.000    0.000    0.000    0.000 
#    0.000    0.000    0.000    0.000    0.000    0.000 
#
# Total GULP energy -297376.605215 kJ/mol
# GULP energy per Si atom -12390.691884 kJ/mol
# Density = 2.263499 g / cm^3
# Si number density = 22.686622 Si / 1000 Ang^3
#
#
#
# Elastic Constant Matrix: (Units=GPa)
#
#
# Indices 1 2 3 4 5 6 
#
# 1 63.3112 36.5648 40.3821 0.0000 0.0000 0.0000
# 2 36.5648 182.8564 59.0423 0.0000 0.0000 0.0000
# 3 40.3821 59.0423 144.1468 0.0000 0.0000 0.0000
# 4 0.0000 0.0000 0.0000 48.0621 0.0000 0.0000
# 5 0.0000 0.0000 0.0000 0.0000 22.0160 0.0000
# 6 0.0000 0.0000 0.0000 0.0000 0.0000 15.5953
#
#
#
# Elastic Compliance Matrix: (Units=1/GPa)
#
#
# Indices 1 2 3 4 5 6 
#
# 1 0.020214 -0.002551 -0.004618 0.000000 0.000000 0.000000
# 2 -0.002551 0.006624 -0.001999 0.000000 0.000000 0.000000
# 3 -0.004618 -0.001999 0.009050 0.000000 0.000000 0.000000
# 4 0.000000 0.000000 0.000000 0.020806 0.000000 0.000000
# 5 0.000000 0.000000 0.000000 0.000000 0.045421 0.000000
# 6 0.000000 0.000000 0.000000 0.000000 0.000000 0.064122
#
#
# Mechanical properties :
#
#
# Convention : Reuss Voigt Hill
#
# Bulk Modulus (GPa) = 56.97148 73.58808 65.27978
# Shear Modulus (GPa) = 26.25731 34.08971 30.17351
#
# Velocity S-wave (km/s) = 3.40574 3.88059 3.65089
# Velocity P-wave (km/s) = 6.37435 7.25161 6.82708
#
# Compressibility (1/GPa) = 0.01755264
#
# Stress axis : x y z
#
# Youngs Moduli (GPa) = 49.47127 150.96140 110.50094
#
# Poissons Ratio (x) = 0.38510 0.51028
# Poissons Ratio (y) = 0.12620 0.22085
# Poissons Ratio (z) = 0.22845 0.30172
#
# Static dielectric constant tensor:
#      x y z
#    x 3.969400 0.000000 0.000000 
#    y 0.000000 5.232830 0.000000 
#    z 0.000000 0.000000 3.995250 
# 
# 
# High freq. dielectric constant tensor:
#      x y z
#    x 1.891310 0.000000 0.000000 
#    y 0.000000 1.924700 0.000000 
#    z 0.000000 0.000000 1.895490 
# 
# From -- ./inp_files/60893.got.cif
#   From: 2010.03.12/outbox.cif.g09.slc.cpg/sg66_31_cif.got.tgz:60893.got - 2010.04.10 21:57:39.
