data_PCOD8277584
_publ_section_title
;
Structure prediction by ZEFSAII (Michael W. Deem and Ramdas Pophale) SiO2 
 PCOD8277584
Probable space group: C C C M
;
_chemical_formula_sum "Si O2"
_cell_formula_units_Z 96
_cell_length_a 22.200599
_cell_length_b 14.789308
_cell_length_c 14.609875
_cell_angle_alpha 90.000000
_cell_angle_beta 90.000000
_cell_angle_gamma 90.000000
_cell_volume 4796.882121
_symmetry_space_group_name_H-M "C C C M"
_symmetry_group_IT_number 66
_symmetry_cell_setting 'orthorhombic'
loop_
_space_group_symop_operation_xyz
x,y,z
-x,-y,z
x,-y,1/2-z
-x,y,1/2-z
-x,-y,-z
x,y,-z
-x,y,1/2+z
x,-y,1/2+z
1/2+x,1/2+y,z
1/2-x,1/2-y,z
1/2+x,1/2-y,1/2-z
1/2-x,1/2+y,1/2-z
1/2-x,1/2-y,-z
1/2+x,1/2+y,-z
1/2-x,1/2+y,1/2+z
1/2+x,1/2-y,1/2+z
loop_
_atom_site_type_symbol
_atom_site_label
_atom_site_fract_x
_atom_site_fract_y
_atom_site_fract_z
Si Si1 0.866558 0.594390 0.894719
Si Si2 0.374735 0.107155 0.603618
Si Si3 0.996171 0.860732 0.602818
Si Si4 0.096913 0.900149 0.254867
Si Si5 0.180764 0.268226 0.753498
Si Si6 0.496141 0.161670 0.144413
O O1 0.849128 0.491377 0.868226
O O2 0.826240 0.664380 0.838667
O O3 0.937044 0.603584 0.873554
O O4 0.852832 0.613768 0.000000
O O5 0.356975 0.129815 0.500000
O O6 0.347193 0.186115 0.664187
O O7 0.446878 0.102885 0.613996
O O8 0.992628 0.902880 0.500000
O O9 0.050435 0.904745 0.660279
O O10 0.007170 0.754410 0.588801
O O11 0.934518 0.877183 0.658164
O O12 0.147818 0.826049 0.275035
O O13 0.126671 0.000000 0.250000
O O14 0.250000 0.250000 0.734725
O O15 0.500000 0.190123 0.250000
#
# Coordination Sequence:
#
# PCOD8277584 Si02
#       6
#    16  16  16  16  16  16
#     4  11  23  40  65  97 129 159 196 248 311 379
#     4  11  23  40  65  97 129 159 196 248 311 379
#     4  11  19  36  64  90 122 158 191 239 309 371
#     4  11  24  41  58  89 123 153 204 253 299 359
#     4  12  26  44  64  85 117 169 215 261 304 347
#     4  12  19  34  64 100 132 163 189 238 312 385
#
# _framework density 20.013000000000002
#
# number of rings (size 3 to 8) (size 9 to 14) (size 15 to 20)
#    0.000    0.667    6.667    3.500    0.000    5.333 
#    0.000    0.000    0.000    0.000    0.000    0.000 
#    0.000    0.000    0.000    0.000    0.000    0.000 
#
# Total GULP energy -595303.525305 kJ/mol
# GULP energy per Si atom -12402.156777 kJ/mol
# Density = 1.996745 g / cm^3
# Si number density = 20.013000 Si / 1000 Ang^3
#
#
#
# Elastic Constant Matrix: (Units=GPa)
#
#
# Indices 1 2 3 4 5 6 
#
# 1 65.6808 11.0239 5.4059 0.0000 0.0000 0.0000
# 2 11.0239 109.2198 24.3601 0.0000 0.0000 0.0000
# 3 5.4059 24.3601 112.6974 0.0000 0.0000 0.0000
# 4 0.0000 0.0000 0.0000 13.2665 0.0000 0.0000
# 5 0.0000 0.0000 0.0000 0.0000 0.7872 0.0000
# 6 0.0000 0.0000 0.0000 0.0000 0.0000 10.2784
#
#
#
# Elastic Compliance Matrix: (Units=1/GPa)
#
#
# Indices 1 2 3 4 5 6 
#
# 1 0.015507 -0.001470 -0.000426 0.000000 0.000000 0.000000
# 2 -0.001470 0.009759 -0.002039 0.000000 0.000000 0.000000
# 3 -0.000426 -0.002039 0.009334 0.000000 0.000000 0.000000
# 4 0.000000 0.000000 0.000000 0.075378 0.000000 0.000000
# 5 0.000000 0.000000 0.000000 0.000000 1.270293 0.000000
# 6 0.000000 0.000000 0.000000 0.000000 0.000000 0.097291
#
#
# Mechanical properties :
#
#
# Convention : Reuss Voigt Hill
#
# Bulk Modulus (GPa) = 37.41093 41.01976 39.21535
# Shear Modulus (GPa) = 3.34595 21.32029 12.33312
#
# Velocity S-wave (km/s) = 1.29442 3.26747 2.48514
# Velocity P-wave (km/s) = 4.57907 5.89713 5.27940
#
# Compressibility (1/GPa) = 0.02673016
#
# Stress axis : x y z
#
# Youngs Moduli (GPa) = 64.48715 102.46960 107.12970
#
# Poissons Ratio (x) = 0.15064 0.04564
# Poissons Ratio (y) = 0.09481 0.21843
# Poissons Ratio (z) = 0.02748 0.20893
#
# Static dielectric constant tensor:
#      x y z
#    x 3.274390 0.000000 0.000000 
#    y 0.000000 3.766220 0.000000 
#    z 0.000000 0.000000 3.799170 
# 
# 
# High freq. dielectric constant tensor:
#      x y z
#    x 1.737590 0.000000 0.000000 
#    y 0.000000 1.798070 0.000000 
#    z 0.000000 0.000000 1.793520 
# 
# From -- ./inp_files/28322.got.cif
#   From: 2010.03.12/outbox.cif.g09.slc.cpg/sg66_15_cif.got.tgz:28322.got - 2010.04.10 21:57:39.
