data_PCOD8277173
_publ_section_title
;
Structure prediction by ZEFSAII (Michael W. Deem and Ramdas Pophale) SiO2 
 PCOD8277173
Probable space group: C C C M
;
_chemical_formula_sum "Si O2"
_cell_formula_units_Z 116
_cell_length_a 32.518164
_cell_length_b 10.541500
_cell_length_c 16.181564
_cell_angle_alpha 90.000000
_cell_angle_beta 90.000000
_cell_angle_gamma 90.000000
_cell_volume 5546.881977
_symmetry_space_group_name_H-M "C C C M"
_symmetry_group_IT_number 66
_symmetry_cell_setting 'orthorhombic'
loop_
_space_group_symop_operation_xyz
x,y,z
-x,-y,z
x,-y,1/2-z
-x,y,1/2-z
-x,-y,-z
x,y,-z
-x,y,1/2+z
x,-y,1/2+z
1/2+x,1/2+y,z
1/2-x,1/2-y,z
1/2+x,1/2-y,1/2-z
1/2-x,1/2+y,1/2-z
1/2-x,1/2-y,-z
1/2+x,1/2+y,-z
1/2-x,1/2+y,1/2+z
1/2+x,1/2-y,1/2+z
loop_
_atom_site_type_symbol
_atom_site_label
_atom_site_fract_x
_atom_site_fract_y
_atom_site_fract_z
Si Si1 0.773820 0.865400 0.842615
Si Si2 0.500000 0.500000 0.750000
Si Si3 0.436604 0.692421 0.670087
Si Si4 0.855294 0.773266 0.094834
Si Si5 0.080233 0.374498 0.303465
Si Si6 0.739735 0.115146 0.843341
Si Si7 0.503758 0.147435 0.910383
Si Si8 0.653736 0.976068 0.402950
O O1 0.750000 0.750000 0.889216
O O2 0.822322 0.840179 0.845124
O O3 0.754765 0.874093 0.751055
O O4 0.764737 0.000178 0.887303
O O5 0.469064 0.581497 0.692336
O O6 0.399197 0.655364 0.608715
O O7 0.410775 0.752860 0.746087
O O8 0.461184 0.804821 0.626601
O O9 0.855714 0.623210 0.116266
O O10 0.842225 0.793319 0.000000
O O11 0.071696 0.500000 0.250000
O O12 0.115307 0.394836 0.371062
O O13 0.039825 0.322307 0.347999
O O14 0.750000 0.250000 0.887452
O O15 0.691921 0.077754 0.850459
O O16 0.500000 0.000000 0.923668
O O17 0.511708 0.211933 0.000000
O O18 0.660359 0.951555 0.500000
#
# Coordination Sequence:
#
# PCOD8277173 Si02
#       8
#    16   4  16  16  16  16  16  16
#     4  10  21  39  66  97 128 177 232 272 336 401
#     4  12  28  48  68  96 132 188 242 274 332 416
#     4  12  25  43  69  95 130 176 228 282 331 407
#     4  11  24  43  69 101 133 170 224 285 344 412
#     4  12  22  36  69  98 130 164 217 273 342 401
#     4  10  23  39  66  93 134 174 224 276 335 406
#     4  11  21  38  64  99 134 163 206 273 347 406
#     4  11  24  41  65 101 138 173 215 280 352 411
#
# _framework density 20.912649999999999
#
# number of rings (size 3 to 8) (size 9 to 14) (size 15 to 20)
#    0.000    0.966    5.517    0.828    5.793    4.414 
#    0.000    1.379    0.000    0.000    0.000    0.000 
#    0.000    0.000    0.000    0.000    0.000    0.000 
#
# Total GULP energy -718746.649400 kJ/mol
# GULP energy per Si atom -12392.183610 kJ/mol
# Density = 2.086505 g / cm^3
# Si number density = 20.912650 Si / 1000 Ang^3
#
#
#
# Elastic Constant Matrix: (Units=GPa)
#
#
# Indices 1 2 3 4 5 6 
#
# 1 163.9620 44.7069 43.7769 0.0000 0.0000 0.0000
# 2 44.7069 125.1871 20.8435 0.0000 0.0000 0.0000
# 3 43.7769 20.8435 84.8622 0.0000 0.0000 0.0000
# 4 0.0000 0.0000 0.0000 -12.4901 0.0000 0.0000
# 5 0.0000 0.0000 0.0000 0.0000 26.4241 0.0000
# 6 0.0000 0.0000 0.0000 0.0000 0.0000 40.9128
#
#
#
# Elastic Compliance Matrix: (Units=1/GPa)
#
#
# Indices 1 2 3 4 5 6 
#
# 1 0.007589 -0.002146 -0.003388 0.000000 0.000000 0.000000
# 2 -0.002146 0.008936 -0.001088 0.000000 0.000000 0.000000
# 3 -0.003388 -0.001088 0.013798 0.000000 0.000000 0.000000
# 4 0.000000 0.000000 0.000000 -0.080063 0.000000 0.000000
# 5 0.000000 0.000000 0.000000 0.000000 0.037844 0.000000
# 6 0.000000 0.000000 0.000000 0.000000 0.000000 0.024442
#
#
# Mechanical properties :
#
#
# Convention : Reuss Voigt Hill
#
# Bulk Modulus (GPa) = 58.54762 65.85176 62.19969
# Shear Modulus (GPa) = 158.82238 28.61494 93.71866
#
# Velocity S-wave (km/s) = 8.72413 3.70308 6.70161
# Velocity P-wave (km/s) = 11.38146 7.05982 9.47045
#
# Compressibility (1/GPa) = 0.01708011
#
# Stress axis : x y z
#
# Youngs Moduli (GPa) = 131.77705 111.91285 72.47193
#
# Poissons Ratio (x) = 0.24017 0.24550
# Poissons Ratio (y) = 0.28280 0.07883
# Poissons Ratio (z) = 0.44640 0.12172
#
# Static dielectric constant tensor:
#      x y z
#    x 3.909680 0.000000 0.000000 
#    y 0.000000 3.959540 0.000000 
#    z 0.000000 0.000000 3.817860 
# 
# 
# High freq. dielectric constant tensor:
#      x y z
#    x 1.828400 0.000000 0.000000 
#    y 0.000000 1.804740 0.000000 
#    z 0.000000 0.000000 1.809970 
# 
# From -- ./inp_files/44774.got.cif
#   From: 2010.03.12/outbox.cif.g09.slc.cpg/sg66_23_cif.got.tgz:44774.got - 2010.04.10 21:57:39.
