data_PCOD8277889
_publ_section_title
;
Structure prediction by ZEFSAII (Michael W. Deem and Ramdas Pophale) SiO2 
 PCOD8277889
Probable space group: C C C M
;
_chemical_formula_sum "Si O2"
_cell_formula_units_Z 36
_cell_length_a 7.493502
_cell_length_b 6.834896
_cell_length_c 30.761424
_cell_angle_alpha 90.000000
_cell_angle_beta 90.000000
_cell_angle_gamma 90.000000
_cell_volume 1575.517292
_symmetry_space_group_name_H-M "C C C M"
_symmetry_group_IT_number 66
_symmetry_cell_setting 'orthorhombic'
loop_
_space_group_symop_operation_xyz
x,y,z
-x,-y,z
x,-y,1/2-z
-x,y,1/2-z
-x,-y,-z
x,y,-z
-x,y,1/2+z
x,-y,1/2+z
1/2+x,1/2+y,z
1/2-x,1/2-y,z
1/2+x,1/2-y,1/2-z
1/2-x,1/2+y,1/2-z
1/2-x,1/2-y,-z
1/2+x,1/2+y,-z
1/2-x,1/2+y,1/2+z
1/2+x,1/2-y,1/2+z
loop_
_atom_site_type_symbol
_atom_site_label
_atom_site_fract_x
_atom_site_fract_y
_atom_site_fract_z
Si Si1 0.000000 0.000000 0.369143
Si Si2 0.000000 0.500000 0.250000
Si Si3 0.750000 0.750000 0.189447
Si Si4 0.787965 0.025818 0.500000
Si Si5 0.750000 0.250000 0.074154
O O1 0.156171 0.912011 0.340047
O O2 0.918073 0.821216 0.397185
O O3 0.112506 0.359856 0.219707
O O4 0.750000 0.250000 0.500000
O O5 0.696269 0.930406 0.457327
O O6 0.000000 0.000000 0.500000
#
# Coordination Sequence:
#
# PCOD8277889 Si02
#       5
#     8   4   8   8   8
#     4  12  26  44  70 106 142 180 232 294 352 410
#     4  12  24  48  72 100 140 178 232 276 342 450
#     4  12  26  45  74 104 138 184 226 284 358 413
#     4  11  26  46  71 101 137 202 238 290 349 413
#     4  11  26  47  70 103 148 186 242 293 348 415
#
# _framework density 22.849637999999999
#
# number of rings (size 3 to 8) (size 9 to 14) (size 15 to 20)
#    0.000    0.444    2.222    5.333    3.111    7.111 
#    0.000    0.000    0.000    0.000    0.000    0.000 
#    0.000    0.000    0.000    0.000    0.000    0.000 
#
# Total GULP energy -223247.928045 kJ/mol
# GULP energy per Si atom -12402.662669 kJ/mol
# Density = 2.279763 g / cm^3
# Si number density = 22.849638 Si / 1000 Ang^3
#
#
#
# Elastic Constant Matrix: (Units=GPa)
#
#
# Indices 1 2 3 4 5 6 
#
# 1 134.4932 79.9140 77.8477 0.0000 0.0000 0.0000
# 2 79.9140 191.4679 85.9978 0.0000 0.0000 0.0000
# 3 77.8477 85.9978 165.1770 0.0000 0.0000 0.0000
# 4 0.0000 0.0000 0.0000 14.5711 0.0000 0.0000
# 5 0.0000 0.0000 0.0000 0.0000 15.4903 0.0000
# 6 0.0000 0.0000 0.0000 0.0000 0.0000 64.4457
#
#
#
# Elastic Compliance Matrix: (Units=1/GPa)
#
#
# Indices 1 2 3 4 5 6 
#
# 1 0.011464 -0.003078 -0.003801 0.000000 0.000000 0.000000
# 2 -0.003078 0.007643 -0.002529 0.000000 0.000000 0.000000
# 3 -0.003801 -0.002529 0.009162 0.000000 0.000000 0.000000
# 4 0.000000 0.000000 0.000000 0.068629 0.000000 0.000000
# 5 0.000000 0.000000 0.000000 0.000000 0.064557 0.000000
# 6 0.000000 0.000000 0.000000 0.000000 0.000000 0.015517
#
#
# Mechanical properties :
#
#
# Convention : Reuss Voigt Hill
#
# Bulk Modulus (GPa) = 105.76613 108.73970 107.25291
# Shear Modulus (GPa) = 25.13353 35.39331 30.26342
#
# Velocity S-wave (km/s) = 3.32015 3.93996 3.64326
# Velocity P-wave (km/s) = 7.81577 8.26984 8.04601
#
# Compressibility (1/GPa) = 0.00945482
#
# Stress axis : x y z
#
# Youngs Moduli (GPa) = 87.23031 130.83517 109.14767
#
# Poissons Ratio (x) = 0.40268 0.41482
# Poissons Ratio (y) = 0.26847 0.27602
# Poissons Ratio (z) = 0.33152 0.33086
#
# Static dielectric constant tensor:
#      x y z
#    x 3.994220 0.000000 0.000000 
#    y 0.000000 4.253070 0.000000 
#    z 0.000000 0.000000 4.615150 
# 
# 
# High freq. dielectric constant tensor:
#      x y z
#    x 1.903680 0.000000 0.000000 
#    y 0.000000 1.918710 0.000000 
#    z 0.000000 0.000000 1.926340 
# 
# From -- ./inp_files/54628.got.cif
#   From: 2010.03.12/outbox.cif.g09.slc.cpg/sg66_28_cif.got.tgz:54628.got - 2010.04.10 21:57:39.
