data_PCOD8277155
_publ_section_title
;
Structure prediction by ZEFSAII (Michael W. Deem and Ramdas Pophale) SiO2 
 PCOD8277155
Probable space group: C C C M
;
_chemical_formula_sum "Si O2"
_cell_formula_units_Z 56
_cell_length_a 14.879309
_cell_length_b 11.909009
_cell_length_c 13.453333
_cell_angle_alpha 90.000000
_cell_angle_beta 90.000000
_cell_angle_gamma 90.000000
_cell_volume 2383.901344
_symmetry_space_group_name_H-M "C C C M"
_symmetry_group_IT_number 66
_symmetry_cell_setting 'orthorhombic'
loop_
_space_group_symop_operation_xyz
x,y,z
-x,-y,z
x,-y,1/2-z
-x,y,1/2-z
-x,-y,-z
x,y,-z
-x,y,1/2+z
x,-y,1/2+z
1/2+x,1/2+y,z
1/2-x,1/2-y,z
1/2+x,1/2-y,1/2-z
1/2-x,1/2+y,1/2-z
1/2-x,1/2-y,-z
1/2+x,1/2+y,-z
1/2-x,1/2+y,1/2+z
1/2+x,1/2-y,1/2+z
loop_
_atom_site_type_symbol
_atom_site_label
_atom_site_fract_x
_atom_site_fract_y
_atom_site_fract_z
Si Si1 0.348055 0.302358 0.884060
Si Si2 0.205504 0.000000 0.750000
Si Si3 0.508862 0.123517 0.612471
Si Si4 0.307570 0.849338 0.886940
O O1 0.250000 0.250000 0.877977
O O2 0.356204 0.408755 0.808686
O O3 0.417448 0.207666 0.840397
O O4 0.371305 0.334583 0.000000
O O5 0.276291 0.960185 0.832301
O O6 0.540650 0.103370 0.500000
O O7 0.412092 0.181629 0.621808
O O8 0.500000 0.000000 0.663629
O O9 0.250000 0.750000 0.837232
O O10 0.278687 0.867255 0.000000
#
# Coordination Sequence:
#
# PCOD8277155 Si02
#       4
#    16   8  16  16
#     4  10  21  39  64  95 131 171 218 272 329 390
#     4  12  22  38  62  94 132 168 210 270 334 384
#     4   9  18  37  66  92 115 155 211 265 317 377
#     4  10  22  41  62  86 122 166 209 255 313 382
#
# _framework density 23.490905000000001
#
# number of rings (size 3 to 8) (size 9 to 14) (size 15 to 20)
#    0.000    2.000    0.000    3.429    0.000    4.571 
#    0.000   16.429    0.000    6.857    0.000    4.000 
#    0.000    3.429    0.000    0.000    0.000    0.571 
#
# Total GULP energy -346963.846455 kJ/mol
# GULP energy per Si atom -12391.565945 kJ/mol
# Density = 2.343744 g / cm^3
# Si number density = 23.490905 Si / 1000 Ang^3
#
#
#
# Elastic Constant Matrix: (Units=GPa)
#
#
# Indices 1 2 3 4 5 6 
#
# 1 144.4466 84.4792 11.7694 0.0000 0.0000 0.0000
# 2 84.4792 158.1831 53.6782 0.0000 0.0000 0.0000
# 3 11.7694 53.6782 100.5042 0.0000 0.0000 0.0000
# 4 0.0000 0.0000 0.0000 23.1471 0.0000 0.0000
# 5 0.0000 0.0000 0.0000 0.0000 -45.9228 0.0000
# 6 0.0000 0.0000 0.0000 0.0000 0.0000 53.3169
#
#
#
# Elastic Compliance Matrix: (Units=1/GPa)
#
#
# Indices 1 2 3 4 5 6 
#
# 1 0.010432 -0.006298 0.002142 0.000000 0.000000 0.000000
# 2 -0.006298 0.011524 -0.005417 0.000000 0.000000 0.000000
# 3 0.002142 -0.005417 0.012592 0.000000 0.000000 0.000000
# 4 0.000000 0.000000 0.000000 0.043202 0.000000 0.000000
# 5 0.000000 0.000000 0.000000 0.000000 -0.021776 0.000000
# 6 0.000000 0.000000 0.000000 0.000000 0.000000 0.018756
#
#
# Mechanical properties :
#
#
# Convention : Reuss Voigt Hill
#
# Bulk Modulus (GPa) = 64.92871 78.10971 71.51921
# Shear Modulus (GPa) = 50.49998 22.98872 36.74435
#
# Velocity S-wave (km/s) = 4.64159 3.13169 3.95928
# Velocity P-wave (km/s) = 7.51171 6.81174 7.17027
#
# Compressibility (1/GPa) = 0.01540151
#
# Stress axis : x y z
#
# Youngs Moduli (GPa) = 95.85970 86.77800 79.41429
#
# Poissons Ratio (x) = 0.54655 -0.17012
# Poissons Ratio (y) = 0.60374 0.43020
# Poissons Ratio (z) = -0.20535 0.47009
#
# Static dielectric constant tensor:
#      x y z
#    x 4.058870 0.000000 0.000000 
#    y 0.000000 4.417740 0.000000 
#    z 0.000000 0.000000 4.451360 
# 
# 
# High freq. dielectric constant tensor:
#      x y z
#    x 1.917230 0.000000 0.000000 
#    y 0.000000 1.920260 0.000000 
#    z 0.000000 0.000000 1.951960 
# 
# From -- ./inp_files/25356.got.cif
#   From: 2010.03.12/outbox.cif.g09.slc.cpg/sg66_13_cif.got.tgz:25356.got - 2010.04.10 21:57:39.
