data_PCOD8277074
_publ_section_title
;
Structure prediction by ZEFSAII (Michael W. Deem and Ramdas Pophale) SiO2 
 PCOD8277074
Probable space group: C C C M
;
_chemical_formula_sum "Si O2"
_cell_formula_units_Z 96
_cell_length_a 13.493388
_cell_length_b 22.174601
_cell_length_c 14.374670
_cell_angle_alpha 90.000000
_cell_angle_beta 90.000000
_cell_angle_gamma 90.000000
_cell_volume 4301.052127
_symmetry_space_group_name_H-M "C C C M"
_symmetry_group_IT_number 66
_symmetry_cell_setting 'orthorhombic'
loop_
_space_group_symop_operation_xyz
x,y,z
-x,-y,z
x,-y,1/2-z
-x,y,1/2-z
-x,-y,-z
x,y,-z
-x,y,1/2+z
x,-y,1/2+z
1/2+x,1/2+y,z
1/2-x,1/2-y,z
1/2+x,1/2-y,1/2-z
1/2-x,1/2+y,1/2-z
1/2-x,1/2-y,-z
1/2+x,1/2+y,-z
1/2-x,1/2+y,1/2+z
1/2+x,1/2-y,1/2+z
loop_
_atom_site_type_symbol
_atom_site_label
_atom_site_fract_x
_atom_site_fract_y
_atom_site_fract_z
Si Si1 0.867295 0.358609 0.107588
Si Si2 0.726340 0.438104 0.603349
Si Si3 0.817247 0.867720 0.274374
Si Si4 0.088324 0.957286 0.893875
Si Si5 0.110295 0.261099 0.742379
Si Si6 0.911440 0.635691 0.894035
O O1 0.784277 0.388484 0.173570
O O2 0.877033 0.289073 0.139455
O O3 0.976480 0.386831 0.126889
O O4 0.834971 0.363520 0.000000
O O5 0.691478 0.419247 0.500000
O O6 0.666969 0.396519 0.674079
O O7 0.694146 0.507522 0.620005
O O8 0.843722 0.424519 0.615953
O O9 0.906431 0.894372 0.337476
O O10 0.815484 0.795752 0.256465
O O11 0.067866 0.940034 0.000000
O O12 0.000000 0.000000 0.856352
O O13 0.127532 0.312198 0.822953
O O14 0.000000 0.234391 0.750000
O O15 0.905746 0.661411 0.000000
#
# Coordination Sequence:
#
# PCOD8277074 Si02
#       6
#    16  16  16  16  16  16
#     4  10  21  38  60  89 127 164 201 257 320 376
#     4  10  22  39  62  88 119 163 211 255 310 369
#     4  12  23  36  63  92 122 165 210 262 310 377
#     4  10  24  45  64  89 126 167 214 265 313 369
#     4  10  22  37  56  90 126 162 206 251 310 379
#     4   9  19  40  64  88 127 167 205 260 318 382
#
# _framework density 22.320119999999999
#
# number of rings (size 3 to 8) (size 9 to 14) (size 15 to 20)
#    0.000    1.833    1.667    1.500    2.333    3.333 
#    0.000    2.500    0.000    6.000    0.000    0.000 
#    0.000    0.000    0.000    0.000    0.000    0.000 
#
# Total GULP energy -594676.837821 kJ/mol
# GULP energy per Si atom -12389.100788 kJ/mol
# Density = 2.226932 g / cm^3
# Si number density = 22.320120 Si / 1000 Ang^3
#
#
#
# Elastic Constant Matrix: (Units=GPa)
#
#
# Indices 1 2 3 4 5 6 
#
# 1 79.3887 17.8032 23.3838 0.0000 0.0000 0.0000
# 2 17.8032 70.5420 26.8888 0.0000 0.0000 0.0000
# 3 23.3838 26.8888 102.0526 0.0000 0.0000 0.0000
# 4 0.0000 0.0000 0.0000 24.8626 0.0000 0.0000
# 5 0.0000 0.0000 0.0000 0.0000 25.6801 0.0000
# 6 0.0000 0.0000 0.0000 0.0000 0.0000 38.0041
#
#
#
# Elastic Compliance Matrix: (Units=1/GPa)
#
#
# Indices 1 2 3 4 5 6 
#
# 1 0.013909 -0.002552 -0.002515 0.000000 0.000000 0.000000
# 2 -0.002552 0.016227 -0.003691 0.000000 0.000000 0.000000
# 3 -0.002515 -0.003691 0.011348 0.000000 0.000000 0.000000
# 4 0.000000 0.000000 0.000000 0.040221 0.000000 0.000000
# 5 0.000000 0.000000 0.000000 0.000000 0.038941 0.000000
# 6 0.000000 0.000000 0.000000 0.000000 0.000000 0.026313
#
#
# Mechanical properties :
#
#
# Convention : Reuss Voigt Hill
#
# Bulk Modulus (GPa) = 41.72063 43.12611 42.42337
# Shear Modulus (GPa) = 28.99182 29.96985 29.48084
#
# Velocity S-wave (km/s) = 3.60795 3.66830 3.63825
# Velocity P-wave (km/s) = 6.00740 6.10782 6.05782
#
# Compressibility (1/GPa) = 0.02396896
#
# Stress axis : x y z
#
# Youngs Moduli (GPa) = 71.89481 61.62647 88.12510
#
# Poissons Ratio (x) = 0.15726 0.22161
# Poissons Ratio (y) = 0.18346 0.32525
# Poissons Ratio (z) = 0.18080 0.22745
#
# Static dielectric constant tensor:
#      x y z
#    x 4.284700 0.000000 0.000000 
#    y 0.000000 3.628520 0.000000 
#    z 0.000000 0.000000 4.247370 
# 
# 
# High freq. dielectric constant tensor:
#      x y z
#    x 1.891630 0.000000 0.000000 
#    y 0.000000 1.840080 0.000000 
#    z 0.000000 0.000000 1.892880 
# 
# From -- ./inp_files/28360.got.cif
#   From: 2010.03.12/outbox.cif.g09.slc.cpg/sg66_15_cif.got.tgz:28360.got - 2010.04.10 21:57:39.
