data_PCOD8277901
_publ_section_title
;
Structure prediction by ZEFSAII (Michael W. Deem and Ramdas Pophale) SiO2 
 PCOD8277901
Probable space group: C C C M
;
_chemical_formula_sum "Si O2"
_cell_formula_units_Z 104
_cell_length_a 8.614698
_cell_length_b 20.256095
_cell_length_c 28.757950
_cell_angle_alpha 90.000000
_cell_angle_beta 90.000000
_cell_angle_gamma 90.000000
_cell_volume 5018.266332
_symmetry_space_group_name_H-M "C C C M"
_symmetry_group_IT_number 66
_symmetry_cell_setting 'orthorhombic'
loop_
_space_group_symop_operation_xyz
x,y,z
-x,-y,z
x,-y,1/2-z
-x,y,1/2-z
-x,-y,-z
x,y,-z
-x,y,1/2+z
x,-y,1/2+z
1/2+x,1/2+y,z
1/2-x,1/2-y,z
1/2+x,1/2-y,1/2-z
1/2-x,1/2+y,1/2-z
1/2-x,1/2-y,-z
1/2+x,1/2+y,-z
1/2-x,1/2+y,1/2+z
1/2+x,1/2-y,1/2+z
loop_
_atom_site_type_symbol
_atom_site_label
_atom_site_fract_x
_atom_site_fract_y
_atom_site_fract_z
Si Si1 0.000000 0.000000 0.837665
Si Si2 0.990788 0.203580 0.052329
Si Si3 0.841258 0.182866 0.724875
Si Si4 0.486582 0.076080 0.367953
Si Si5 0.779575 0.560993 0.280589
Si Si6 0.667440 0.376011 0.628321
Si Si7 0.640997 0.158006 0.052620
O O1 0.914776 0.947547 0.870824
O O2 0.120618 0.961886 0.804803
O O3 0.821763 0.172712 0.056298
O O4 0.969414 0.280226 0.066355
O O5 0.116393 0.165315 0.083338
O O6 0.054493 0.197851 0.000000
O O7 0.750000 0.250000 0.730179
O O8 0.747592 0.121543 0.746115
O O9 0.883193 0.167893 0.671793
O O10 0.000000 0.195110 0.750000
O O11 0.404684 0.086132 0.318113
O O12 0.648731 0.114075 0.369423
O O13 0.382485 0.101014 0.410225
O O14 0.500000 0.000000 0.378327
O O15 0.845862 0.500000 0.250000
O O16 0.601047 0.135118 0.000000
#
# Coordination Sequence:
#
# PCOD8277901 Si02
#       7
#     8  16  16  16  16  16  16
#     4  12  21  46  71  92 122 176 233 272 313 394
#     4   9  21  45  74  99 127 174 223 268 330 401
#     4  12  28  44  64  97 135 174 222 280 332 385
#     4  12  26  41  64 101 136 175 217 275 334 390
#     4  12  23  47  70  90 128 184 233 272 325 391
#     4  12  26  42  68  98 136 169 225 272 329 399
#     4   9  21  44  72  99 131 171 218 272 334 400
#
# _framework density 20.724288000000001
#
# number of rings (size 3 to 8) (size 9 to 14) (size 15 to 20)
#    0.000    0.923    4.615    2.077    4.308    2.462 
#    0.000    1.923    0.000    0.000    0.000    0.000 
#    0.000    0.000    0.000    0.000    0.000    0.000 
#
# Total GULP energy -644875.788244 kJ/mol
# GULP energy per Si atom -12401.457466 kJ/mol
# Density = 2.067712 g / cm^3
# Si number density = 20.724288 Si / 1000 Ang^3
#
#
#
# Elastic Constant Matrix: (Units=GPa)
#
#
# Indices 1 2 3 4 5 6 
#
# 1 95.4948 24.6010 43.9786 0.0000 0.0000 0.0000
# 2 24.6010 95.8912 44.6455 0.0000 0.0000 0.0000
# 3 43.9786 44.6455 122.7982 0.0000 0.0000 0.0000
# 4 0.0000 0.0000 0.0000 41.0407 0.0000 0.0000
# 5 0.0000 0.0000 0.0000 0.0000 42.2960 0.0000
# 6 0.0000 0.0000 0.0000 0.0000 0.0000 47.1229
#
#
#
# Elastic Compliance Matrix: (Units=1/GPa)
#
#
# Indices 1 2 3 4 5 6 
#
# 1 0.012688 -0.001372 -0.004045 0.000000 0.000000 0.000000
# 2 -0.001372 0.012702 -0.004127 0.000000 0.000000 0.000000
# 3 -0.004045 -0.004127 0.011093 0.000000 0.000000 0.000000
# 4 0.000000 0.000000 0.000000 0.024366 0.000000 0.000000
# 5 0.000000 0.000000 0.000000 0.000000 0.023643 0.000000
# 6 0.000000 0.000000 0.000000 0.000000 0.000000 0.021221
#
#
# Mechanical properties :
#
#
# Convention : Reuss Voigt Hill
#
# Bulk Modulus (GPa) = 57.48804 60.07050 58.77927
# Shear Modulus (GPa) = 38.28530 39.48919 38.88725
#
# Velocity S-wave (km/s) = 4.30276 4.36989 4.33645
# Velocity P-wave (km/s) = 7.24463 7.38307 7.31418
#
# Compressibility (1/GPa) = 0.01739492
#
# Stress axis : x y z
#
# Youngs Moduli (GPa) = 78.81341 78.72953 90.15033
#
# Poissons Ratio (x) = 0.10799 0.36470
# Poissons Ratio (y) = 0.10811 0.37202
# Poissons Ratio (z) = 0.31883 0.32489
#
# Static dielectric constant tensor:
#      x y z
#    x 3.769000 0.000000 0.000000 
#    y 0.000000 4.231680 0.000000 
#    z 0.000000 0.000000 3.675020 
# 
# 
# High freq. dielectric constant tensor:
#      x y z
#    x 1.821020 0.000000 0.000000 
#    y 0.000000 1.814700 0.000000 
#    z 0.000000 0.000000 1.814210 
# 
# From -- ./inp_files/68258.got.cif
#   From: 2010.03.12/outbox.cif.g09.slc.cpg/sg66_35_cif.got.tgz:68258.got - 2010.04.10 21:57:39.
