data_PCOD8277455
_publ_section_title
;
Structure prediction by ZEFSAII (Michael W. Deem and Ramdas Pophale) SiO2 
 PCOD8277455
Probable space group: C C C M
;
_chemical_formula_sum "Si O2"
_cell_formula_units_Z 88
_cell_length_a 11.082144
_cell_length_b 11.332283
_cell_length_c 28.740902
_cell_angle_alpha 90.000000
_cell_angle_beta 90.000000
_cell_angle_gamma 90.000000
_cell_volume 3609.454690
_symmetry_space_group_name_H-M "C C C M"
_symmetry_group_IT_number 66
_symmetry_cell_setting 'orthorhombic'
loop_
_space_group_symop_operation_xyz
x,y,z
-x,-y,z
x,-y,1/2-z
-x,y,1/2-z
-x,-y,-z
x,y,-z
-x,y,1/2+z
x,-y,1/2+z
1/2+x,1/2+y,z
1/2-x,1/2-y,z
1/2+x,1/2-y,1/2-z
1/2-x,1/2+y,1/2-z
1/2-x,1/2-y,-z
1/2+x,1/2+y,-z
1/2-x,1/2+y,1/2+z
1/2+x,1/2-y,1/2+z
loop_
_atom_site_type_symbol
_atom_site_label
_atom_site_fract_x
_atom_site_fract_y
_atom_site_fract_z
Si Si1 0.875964 0.693549 0.809753
Si Si2 0.779296 0.500000 0.750000
Si Si3 0.686117 0.370584 0.902016
Si Si4 0.376921 0.567862 0.000000
Si Si5 0.926702 0.887045 0.692984
Si Si6 0.383825 0.070785 0.902067
Si Si7 0.678261 0.130355 0.500000
O O1 0.750000 0.750000 0.794615
O O2 0.871860 0.566613 0.784556
O O3 0.872783 0.677329 0.865619
O O4 0.992470 0.771513 0.793792
O O5 0.700457 0.597712 0.720477
O O6 0.750000 0.250000 0.887875
O O7 0.585989 0.389298 0.862734
O O8 0.769336 0.485478 0.900621
O O9 0.627939 0.352962 0.953277
O O10 0.500000 0.500000 0.000000
O O11 0.266023 0.479972 0.000000
O O12 0.000000 0.000000 0.709054
O O13 0.500000 0.000000 0.886693
O O14 0.403395 0.125497 0.953625
O O15 0.750000 0.250000 0.500000
#
# Coordination Sequence:
#
# PCOD8277455 Si02
#       7
#    16   8  16   8  16  16   8
#     4  12  26  48  76 106 147 191 253 305 376 454
#     4  12  27  54  77 108 152 195 266 311 396 442
#     4  11  23  43  70 102 149 186 236 301 368 441
#     4  10  23  40  68 106 136 186 239 287 358 449
#     4  12  25  49  76 106 143 197 244 313 374 442
#     4  11  23  45  66 109 143 189 238 301 367 447
#     4  10  23  40  72  98 144 184 235 291 364 445
#
# _framework density 24.380414999999999
#
# number of rings (size 3 to 8) (size 9 to 14) (size 15 to 20)
#    0.000    0.727    3.636    3.000    0.000    6.545 
#    6.545    0.000    0.000    0.000    0.000    0.000 
#    0.000    0.000    0.000    0.000    0.000    0.000 
#
# Total GULP energy -545482.736229 kJ/mol
# GULP energy per Si atom -12397.334914 kJ/mol
# Density = 2.432492 g / cm^3
# Si number density = 24.380415 Si / 1000 Ang^3
#
#
#
# Elastic Constant Matrix: (Units=GPa)
#
#
# Indices 1 2 3 4 5 6 
#
# 1 84.0473 31.3098 33.8039 0.0000 0.0000 0.0000
# 2 31.3098 109.9626 44.4897 0.0000 0.0000 0.0000
# 3 33.8039 44.4897 177.5548 0.0000 0.0000 0.0000
# 4 0.0000 0.0000 0.0000 19.0447 0.0000 0.0000
# 5 0.0000 0.0000 0.0000 0.0000 26.8809 0.0000
# 6 0.0000 0.0000 0.0000 0.0000 0.0000 43.2858
#
#
#
# Elastic Compliance Matrix: (Units=1/GPa)
#
#
# Indices 1 2 3 4 5 6 
#
# 1 0.013825 -0.003195 -0.001831 0.000000 0.000000 0.000000
# 2 -0.003195 0.010859 -0.002112 0.000000 0.000000 0.000000
# 3 -0.001831 -0.002112 0.006510 0.000000 0.000000 0.000000
# 4 0.000000 0.000000 0.000000 0.052508 0.000000 0.000000
# 5 0.000000 0.000000 0.000000 0.000000 0.037201 0.000000
# 6 0.000000 0.000000 0.000000 0.000000 0.000000 0.023102
#
#
# Mechanical properties :
#
#
# Convention : Reuss Voigt Hill
#
# Bulk Modulus (GPa) = 59.11910 65.64130 62.38020
# Shear Modulus (GPa) = 30.50232 35.30637 32.90434
#
# Velocity S-wave (km/s) = 3.54093 3.80958 3.67771
# Velocity P-wave (km/s) = 6.40459 6.80682 6.60876
#
# Compressibility (1/GPa) = 0.01691501
#
# Stress axis : x y z
#
# Youngs Moduli (GPa) = 72.33242 92.09362 153.60870
#
# Poissons Ratio (x) = 0.29428 0.28132
# Poissons Ratio (y) = 0.23114 0.32449
# Poissons Ratio (z) = 0.13247 0.19454
#
# Static dielectric constant tensor:
#      x y z
#    x 4.228890 0.000000 0.000000 
#    y 0.000000 4.207280 0.000000 
#    z 0.000000 0.000000 5.053740 
# 
# 
# High freq. dielectric constant tensor:
#      x y z
#    x 1.955140 0.000000 0.000000 
#    y 0.000000 1.962450 0.000000 
#    z 0.000000 0.000000 2.001060 
# 
# From -- ./inp_files/68912.got.cif
#   From: 2010.03.12/outbox.cif.g09.slc.cpg/sg66_35_cif.got.tgz:68912.got - 2010.04.10 21:57:39.
