data_PCOD8277482
_publ_section_title
;
Structure prediction by ZEFSAII (Michael W. Deem and Ramdas Pophale) SiO2 
 PCOD8277482
Probable space group: C C C M
;
_chemical_formula_sum "Si O2"
_cell_formula_units_Z 112
_cell_length_a 14.741629
_cell_length_b 21.862897
_cell_length_c 16.901242
_cell_angle_alpha 90.000000
_cell_angle_beta 90.000000
_cell_angle_gamma 90.000000
_cell_volume 5447.180998
_symmetry_space_group_name_H-M "C C C M"
_symmetry_group_IT_number 66
_symmetry_cell_setting 'orthorhombic'
loop_
_space_group_symop_operation_xyz
x,y,z
-x,-y,z
x,-y,1/2-z
-x,y,1/2-z
-x,-y,-z
x,y,-z
-x,y,1/2+z
x,-y,1/2+z
1/2+x,1/2+y,z
1/2-x,1/2-y,z
1/2+x,1/2-y,1/2-z
1/2-x,1/2+y,1/2-z
1/2-x,1/2-y,-z
1/2+x,1/2+y,-z
1/2-x,1/2+y,1/2+z
1/2+x,1/2-y,1/2+z
loop_
_atom_site_type_symbol
_atom_site_label
_atom_site_fract_x
_atom_site_fract_y
_atom_site_fract_z
Si Si1 0.602268 0.482009 0.337322
Si Si2 0.093241 0.635785 0.702298
Si Si3 0.086395 0.154491 0.192366
Si Si4 0.242496 0.932886 0.910286
Si Si5 0.255715 0.681006 0.194489
Si Si6 0.897871 0.478459 0.408546
Si Si7 0.643091 0.242818 0.592554
O O1 0.500000 0.500000 0.354313
O O2 0.634789 0.500000 0.250000
O O3 0.614098 0.409790 0.345502
O O4 0.663437 0.517126 0.400126
O O5 0.163975 0.655642 0.768541
O O6 0.120945 0.574310 0.655471
O O7 0.092538 0.686968 0.634863
O O8 0.000000 0.628575 0.750000
O O9 0.166563 0.185055 0.240981
O O10 0.079954 0.199272 0.117126
O O11 0.000000 0.148776 0.250000
O O12 0.216225 0.869130 0.869891
O O13 0.336168 0.964063 0.881570
O O14 0.251784 0.914388 0.000000
O O15 0.250000 0.750000 0.158554
O O16 0.875170 0.458545 0.500000
O O17 0.000000 0.500000 0.402145
O O18 0.634028 0.232223 0.500000
O O19 0.750000 0.250000 0.616302
#
# Coordination Sequence:
#
# PCOD8277482 Si02
#       7
#    16  16  16  16  16  16  16
#     4  11  21  40  67  96 122 163 206 268 320 380
#     4  12  23  40  69  96 126 171 218 263 318 383
#     4  12  21  40  69  94 128 168 214 264 323 379
#     4  11  25  42  65  94 129 170 210 264 327 382
#     4  12  24  41  63  93 127 168 221 268 309 379
#     4  10  23  43  64  94 132 164 206 266 326 383
#     4  11  24  42  64  98 135 168 213 271 327 376
#
# _framework density 20.561095000000002
#
# number of rings (size 3 to 8) (size 9 to 14) (size 15 to 20)
#    0.000    0.714    5.714    2.571    0.000    2.571 
#    0.000    2.857    0.000    0.000    0.000    0.000 
#    0.000    0.000    0.000    0.000    0.000    0.000 
#
# Total GULP energy -694252.313626 kJ/mol
# GULP energy per Si atom -12397.362743 kJ/mol
# Density = 2.051430 g / cm^3
# Si number density = 20.561095 Si / 1000 Ang^3
#
#
#
# Elastic Constant Matrix: (Units=GPa)
#
#
# Indices 1 2 3 4 5 6 
#
# 1 62.6970 7.3132 15.7389 0.0000 0.0000 0.0000
# 2 7.3132 136.6658 42.8171 0.0000 0.0000 0.0000
# 3 15.7389 42.8171 67.7513 0.0000 0.0000 0.0000
# 4 0.0000 0.0000 0.0000 27.2346 0.0000 0.0000
# 5 0.0000 0.0000 0.0000 0.0000 31.0056 0.0000
# 6 0.0000 0.0000 0.0000 0.0000 0.0000 31.6688
#
#
#
# Elastic Compliance Matrix: (Units=1/GPa)
#
#
# Indices 1 2 3 4 5 6 
#
# 1 0.016956 0.000407 -0.004196 0.000000 0.000000 0.000000
# 2 0.000407 0.009133 -0.005867 0.000000 0.000000 0.000000
# 3 -0.004196 -0.005867 0.019442 0.000000 0.000000 0.000000
# 4 0.000000 0.000000 0.000000 0.036718 0.000000 0.000000
# 5 0.000000 0.000000 0.000000 0.000000 0.032252 0.000000
# 6 0.000000 0.000000 0.000000 0.000000 0.000000 0.031577
#
#
# Mechanical properties :
#
#
# Convention : Reuss Voigt Hill
#
# Bulk Modulus (GPa) = 38.13881 44.31693 41.22787
# Shear Modulus (GPa) = 28.71425 31.39812 30.05618
#
# Velocity S-wave (km/s) = 3.74108 3.91201 3.82750
# Velocity P-wave (km/s) = 6.10329 6.48118 6.29507
#
# Compressibility (1/GPa) = 0.02622001
#
# Stress axis : x y z
#
# Youngs Moduli (GPa) = 58.97756 109.48903 51.43433
#
# Poissons Ratio (x) = -0.04460 0.21583
# Poissons Ratio (y) = -0.02403 0.30175
# Poissons Ratio (z) = 0.24749 0.64234
#
# Static dielectric constant tensor:
#      x y z
#    x 3.676470 0.000000 0.000000 
#    y 0.000000 3.991150 0.000000 
#    z 0.000000 0.000000 3.615170 
# 
# 
# High freq. dielectric constant tensor:
#      x y z
#    x 1.805110 0.000000 0.000000 
#    y 0.000000 1.820030 0.000000 
#    z 0.000000 0.000000 1.797260 
# 
# From -- ./inp_files/28700.got.cif
#   From: 2010.03.12/outbox.cif.g09.slc.cpg/sg66_15_cif.got.tgz:28700.got - 2010.04.10 21:57:39.
