data_PCOD8277144
_publ_section_title
;
Structure prediction by ZEFSAII (Michael W. Deem and Ramdas Pophale) SiO2 
 PCOD8277144
Probable space group: C C C M
;
_chemical_formula_sum "Si O2"
_cell_formula_units_Z 68
_cell_length_a 16.484880
_cell_length_b 9.519845
_cell_length_c 21.177976
_cell_angle_alpha 90.000000
_cell_angle_beta 90.000000
_cell_angle_gamma 90.000000
_cell_volume 3323.533948
_symmetry_space_group_name_H-M "C C C M"
_symmetry_group_IT_number 66
_symmetry_cell_setting 'orthorhombic'
loop_
_space_group_symop_operation_xyz
x,y,z
-x,-y,z
x,-y,1/2-z
-x,y,1/2-z
-x,-y,-z
x,y,-z
-x,y,1/2+z
x,-y,1/2+z
1/2+x,1/2+y,z
1/2-x,1/2-y,z
1/2+x,1/2-y,1/2-z
1/2-x,1/2+y,1/2-z
1/2-x,1/2-y,-z
1/2+x,1/2+y,-z
1/2-x,1/2+y,1/2+z
1/2+x,1/2-y,1/2+z
loop_
_atom_site_type_symbol
_atom_site_label
_atom_site_fract_x
_atom_site_fract_y
_atom_site_fract_z
Si Si1 0.500000 0.000000 0.750000
Si Si2 0.358518 0.863096 0.672935
Si Si3 0.909804 0.553751 0.429577
Si Si4 0.666584 0.332729 0.928107
Si Si5 0.818208 0.055076 0.684358
O O1 0.440877 0.903984 0.708743
O O2 0.274493 0.910055 0.705201
O O3 0.362748 0.696915 0.662493
O O4 0.352567 0.947148 0.607499
O O5 0.876500 0.544447 0.500000
O O6 0.902095 0.717236 0.408193
O O7 0.000000 0.500000 0.421648
O O8 0.750000 0.250000 0.926581
O O9 0.667698 0.451279 0.874494
O O10 0.650807 0.391758 0.000000
O O11 0.858161 0.000000 0.750000
#
# Coordination Sequence:
#
# PCOD8277144 Si02
#       5
#     4  16  16  16  16
#     4  12  24  44  64  88 124 170 214 242 320 392
#     4  11  24  39  64  92 123 165 206 261 314 364
#     4  10  21  39  64  91 121 165 210 250 307 375
#     4  10  21  39  64  92 128 169 207 257 314 375
#     4  11  25  39  62  99 128 161 206 268 315 370
#
# _framework density 20.460148
#
# number of rings (size 3 to 8) (size 9 to 14) (size 15 to 20)
#    0.000    1.412    4.706    0.000    6.588    0.941 
#    0.000    6.471    0.000    4.235    0.000    0.000 
#    0.000    0.000    0.000    0.000    0.000    0.000 
#
# Total GULP energy -421237.965950 kJ/mol
# GULP energy per Si atom -12389.351940 kJ/mol
# Density = 2.041358 g / cm^3
# Si number density = 20.460148 Si / 1000 Ang^3
#
#
#
# Elastic Constant Matrix: (Units=GPa)
#
#
# Indices 1 2 3 4 5 6 
#
# 1 82.8884 49.9480 21.8075 0.0000 0.0000 0.0000
# 2 49.9480 179.7722 102.2055 0.0000 0.0000 0.0000
# 3 21.8075 102.2055 144.7255 0.0000 0.0000 0.0000
# 4 0.0000 0.0000 0.0000 -77.8940 0.0000 0.0000
# 5 0.0000 0.0000 0.0000 0.0000 429.5910 0.0000
# 6 0.0000 0.0000 0.0000 0.0000 0.0000 34.5800
#
#
#
# Elastic Compliance Matrix: (Units=1/GPa)
#
#
# Indices 1 2 3 4 5 6 
#
# 1 0.014596 -0.004687 0.001110 0.000000 0.000000 0.000000
# 2 -0.004687 0.010799 -0.006920 0.000000 0.000000 0.000000
# 3 0.001110 -0.006920 0.011629 0.000000 0.000000 0.000000
# 4 0.000000 0.000000 0.000000 -0.012838 0.000000 0.000000
# 5 0.000000 0.000000 0.000000 0.000000 0.002328 0.000000
# 6 0.000000 0.000000 0.000000 0.000000 0.000000 0.028918
#
#
# Mechanical properties :
#
#
# Convention : Reuss Voigt Hill
#
# Bulk Modulus (GPa) = 62.37577 83.92310 73.14944
# Shear Modulus (GPa) = 61.14711 92.81708 76.98210
#
# Velocity S-wave (km/s) = 5.47274 6.74265 6.14061
# Velocity P-wave (km/s) = 8.39566 10.08586 9.27932
#
# Compressibility (1/GPa) = 0.01603187
#
# Stress axis : x y z
#
# Youngs Moduli (GPa) = 68.50961 92.60092 85.98974
#
# Poissons Ratio (x) = 0.43400 -0.09548
# Poissons Ratio (y) = 0.32109 0.59506
# Poissons Ratio (z) = -0.07607 0.64081
#
# Static dielectric constant tensor:
#      x y z
#    x 3.750190 0.000000 0.000000 
#    y 0.000000 4.205240 0.000000 
#    z 0.000000 0.000000 4.035490 
# 
# 
# High freq. dielectric constant tensor:
#      x y z
#    x 1.787910 0.000000 0.000000 
#    y 0.000000 1.800990 0.000000 
#    z 0.000000 0.000000 1.809150 
# 
# From -- ./inp_files/46745.got.cif
#   From: 2010.03.12/outbox.cif.g09.slc.cpg/sg66_24_cif.got.tgz:46745.got - 2010.04.10 21:57:39.
