data_PCOD8277062
_publ_section_title
;
Structure prediction by ZEFSAII (Michael W. Deem and Ramdas Pophale) SiO2 
 PCOD8277062
Probable space group: C C C M
;
_chemical_formula_sum "Si O2"
_cell_formula_units_Z 56
_cell_length_a 5.175285
_cell_length_b 24.479147
_cell_length_c 21.385688
_cell_angle_alpha 90.000000
_cell_angle_beta 90.000000
_cell_angle_gamma 90.000000
_cell_volume 2709.279295
_symmetry_space_group_name_H-M "C C C M"
_symmetry_group_IT_number 66
_symmetry_cell_setting 'orthorhombic'
loop_
_space_group_symop_operation_xyz
x,y,z
-x,-y,z
x,-y,1/2-z
-x,y,1/2-z
-x,-y,-z
x,y,-z
-x,y,1/2+z
x,-y,1/2+z
1/2+x,1/2+y,z
1/2-x,1/2-y,z
1/2+x,1/2-y,1/2-z
1/2-x,1/2+y,1/2-z
1/2-x,1/2-y,-z
1/2+x,1/2+y,-z
1/2-x,1/2+y,1/2+z
1/2+x,1/2-y,1/2+z
loop_
_atom_site_type_symbol
_atom_site_label
_atom_site_fract_x
_atom_site_fract_y
_atom_site_fract_z
Si Si1 0.748717 0.975950 0.320659
Si Si2 0.212962 0.185951 0.927523
Si Si3 0.300301 0.146739 0.640564
Si Si4 0.000000 0.280180 0.250000
O O1 0.739419 0.911162 0.325743
O O2 0.500000 0.000000 0.356302
O O3 0.749381 0.000000 0.250000
O O4 0.000000 0.000000 0.355570
O O5 0.250000 0.250000 0.913997
O O6 0.464786 0.150289 0.908718
O O7 0.965692 0.164675 0.890454
O O8 0.160013 0.175421 0.000000
O O9 0.364420 0.186715 0.696050
O O10 0.750000 0.250000 0.280266
#
# Coordination Sequence:
#
# PCOD8277062 Si02
#       4
#    16  16  16   8
#     4  10  21  38  59  87 119 157 205 250 305 371
#     4  11  24  43  66  93 127 169 215 257 305 373
#     4  12  23  40  65  92 126 166 209 258 316 378
#     4  12  24  36  57  94 135 162 194 252 324 390
#
# _framework density 20.669702999999998
#
# number of rings (size 3 to 8) (size 9 to 14) (size 15 to 20)
#    0.000    0.857    0.000    9.429    0.000    6.857 
#    0.000    0.000    0.000   17.143    0.000    0.000 
#    0.000    0.000    0.000    0.000    0.000    0.000 
#
# Total GULP energy -346992.290288 kJ/mol
# GULP energy per Si atom -12392.581796 kJ/mol
# Density = 2.062266 g / cm^3
# Si number density = 20.669703 Si / 1000 Ang^3
#
#
#
# Elastic Constant Matrix: (Units=GPa)
#
#
# Indices 1 2 3 4 5 6 
#
# 1 212.3035 83.9395 37.5938 0.0000 0.0000 0.0000
# 2 83.9395 158.5148 61.5332 0.0000 0.0000 0.0000
# 3 37.5938 61.5332 89.6327 0.0000 0.0000 0.0000
# 4 0.0000 0.0000 0.0000 26.1330 0.0000 0.0000
# 5 0.0000 0.0000 0.0000 0.0000 22.2972 0.0000
# 6 0.0000 0.0000 0.0000 0.0000 0.0000 36.6489
#
#
#
# Elastic Compliance Matrix: (Units=1/GPa)
#
#
# Indices 1 2 3 4 5 6 
#
# 1 0.005971 -0.002985 -0.000455 0.000000 0.000000 0.000000
# 2 -0.002985 0.010093 -0.005677 0.000000 0.000000 0.000000
# 3 -0.000455 -0.005677 0.015245 0.000000 0.000000 0.000000
# 4 0.000000 0.000000 0.000000 0.038266 0.000000 0.000000
# 5 0.000000 0.000000 0.000000 0.000000 0.044849 0.000000
# 6 0.000000 0.000000 0.000000 0.000000 0.000000 0.027286
#
#
# Mechanical properties :
#
#
# Convention : Reuss Voigt Hill
#
# Bulk Modulus (GPa) = 76.48432 91.84266 84.16349
# Shear Modulus (GPa) = 30.43186 35.50814 32.97000
#
# Velocity S-wave (km/s) = 3.84121 4.14923 3.99819
# Velocity P-wave (km/s) = 7.53370 8.21491 7.88167
#
# Compressibility (1/GPa) = 0.01307457
#
# Stress axis : x y z
#
# Youngs Moduli (GPa) = 167.47269 99.07807 65.59690
#
# Poissons Ratio (x) = 0.29578 0.02985
# Poissons Ratio (y) = 0.49996 0.37238
# Poissons Ratio (z) = 0.07620 0.56245
#
# Static dielectric constant tensor:
#      x y z
#    x 7.958360 0.000000 0.000000 
#    y 0.000000 3.845370 0.000000 
#    z 0.000000 0.000000 3.581370 
# 
# 
# High freq. dielectric constant tensor:
#      x y z
#    x 1.851370 0.000000 0.000000 
#    y 0.000000 1.805430 0.000000 
#    z 0.000000 0.000000 1.786410 
# 
# From -- ./inp_files/45479.got.cif
#   From: 2010.03.12/outbox.cif.g09.slc.cpg/sg66_23_cif.got.tgz:45479.got - 2010.04.10 21:57:39.
