data_PCOD8277554
_publ_section_title
;
Structure prediction by ZEFSAII (Michael W. Deem and Ramdas Pophale) SiO2 
 PCOD8277554
Probable space group: C C C M
;
_chemical_formula_sum "Si O2"
_cell_formula_units_Z 88
_cell_length_a 30.316904
_cell_length_b 5.168088
_cell_length_c 25.407132
_cell_angle_alpha 90.000000
_cell_angle_beta 90.000000
_cell_angle_gamma 90.000000
_cell_volume 3980.800310
_symmetry_space_group_name_H-M "C C C M"
_symmetry_group_IT_number 66
_symmetry_cell_setting 'orthorhombic'
loop_
_space_group_symop_operation_xyz
x,y,z
-x,-y,z
x,-y,1/2-z
-x,y,1/2-z
-x,-y,-z
x,y,-z
-x,y,1/2+z
x,-y,1/2+z
1/2+x,1/2+y,z
1/2-x,1/2-y,z
1/2+x,1/2-y,1/2-z
1/2-x,1/2+y,1/2-z
1/2-x,1/2-y,-z
1/2+x,1/2+y,-z
1/2-x,1/2+y,1/2+z
1/2+x,1/2-y,1/2+z
loop_
_atom_site_type_symbol
_atom_site_label
_atom_site_fract_x
_atom_site_fract_y
_atom_site_fract_z
Si Si1 0.093405 0.500000 0.750000
Si Si2 0.000000 0.500000 0.590819
Si Si3 0.450798 0.810051 0.000000
Si Si4 0.368200 0.580867 0.613076
Si Si5 0.661767 0.903146 0.664039
Si Si6 0.250000 0.750000 0.218850
Si Si7 0.545268 0.661906 0.831112
Si Si8 0.105686 0.181049 0.000000
O O1 0.124480 0.351236 0.708464
O O2 0.061522 0.281582 0.775634
O O3 0.019918 0.276989 0.552700
O O4 0.038127 0.603673 0.628358
O O5 0.413327 0.604738 0.000000
O O6 0.431220 0.100018 0.000000
O O7 0.343088 0.306925 0.617195
O O8 0.415994 0.510227 0.638547
O O9 0.366390 0.689789 0.553563
O O10 0.343338 0.801250 0.646057
O O11 0.710655 0.871431 0.685405
O O12 0.268955 0.500000 0.250000
O O13 0.500000 0.500000 0.823099
#
# Coordination Sequence:
#
# PCOD8277554 Si02
#       8
#     8   8   8  16  16   8  16   8
#     4  10  26  47  60  94 136 180 230 282 341 402
#     4  11  24  41  56  90 126 169 242 297 344 374
#     4  11  24  38  66  90 124 172 235 311 337 379
#     4  11  25  44  69  96 141 173 230 281 340 395
#     4  11  25  47  69 105 136 174 212 288 342 412
#     4  12  24  44  80 111 134 175 226 270 350 422
#     4  11  25  43  60  86 130 189 232 281 331 400
#     4  12  22  43  68  97 126 183 227 280 346 408
#
# _framework density 22.106106
#
# number of rings (size 3 to 8) (size 9 to 14) (size 15 to 20)
#    0.000    0.909    2.727    3.273   10.182    1.091 
#    3.273    0.000    0.000    3.273    0.000    0.000 
#    0.000    0.000    0.000    0.000    0.000    0.000 
#
# Total GULP energy -545392.036376 kJ/mol
# GULP energy per Si atom -12395.273554 kJ/mol
# Density = 2.205579 g / cm^3
# Si number density = 22.106106 Si / 1000 Ang^3
#
#
#
# Elastic Constant Matrix: (Units=GPa)
#
#
# Indices 1 2 3 4 5 6 
#
# 1 114.9989 34.4056 37.7187 0.0000 0.0000 0.0000
# 2 34.4056 92.1393 16.3428 0.0000 0.0000 0.0000
# 3 37.7187 16.3428 102.7116 0.0000 0.0000 0.0000
# 4 0.0000 0.0000 0.0000 25.2728 0.0000 0.0000
# 5 0.0000 0.0000 0.0000 0.0000 16.3049 0.0000
# 6 0.0000 0.0000 0.0000 0.0000 0.0000 38.0842
#
#
#
# Elastic Compliance Matrix: (Units=1/GPa)
#
#
# Indices 1 2 3 4 5 6 
#
# 1 0.010853 -0.003443 -0.003438 0.000000 0.000000 0.000000
# 2 -0.003443 0.012261 -0.000686 0.000000 0.000000 0.000000
# 3 -0.003438 -0.000686 0.011108 0.000000 0.000000 0.000000
# 4 0.000000 0.000000 0.000000 0.039568 0.000000 0.000000
# 5 0.000000 0.000000 0.000000 0.000000 0.061331 0.000000
# 6 0.000000 0.000000 0.000000 0.000000 0.000000 0.026258
#
#
# Mechanical properties :
#
#
# Convention : Reuss Voigt Hill
#
# Bulk Modulus (GPa) = 52.39155 54.08711 53.23933
# Shear Modulus (GPa) = 27.34096 30.69121 29.01609
#
# Velocity S-wave (km/s) = 3.52064 3.73011 3.62689
# Velocity P-wave (km/s) = 6.34650 6.56291 6.45561
#
# Compressibility (1/GPa) = 0.01908705
#
# Stress axis : x y z
#
# Youngs Moduli (GPa) = 92.13696 81.56262 90.02756
#
# Poissons Ratio (x) = 0.28082 0.30950
# Poissons Ratio (y) = 0.31723 0.06180
# Poissons Ratio (z) = 0.31675 0.05599
#
# Static dielectric constant tensor:
#      x y z
#    x 3.762200 0.000000 0.000000 
#    y 0.000000 4.088230 0.000000 
#    z 0.000000 0.000000 4.248120 
# 
# 
# High freq. dielectric constant tensor:
#      x y z
#    x 1.842970 0.000000 0.000000 
#    y 0.000000 1.881430 0.000000 
#    z 0.000000 0.000000 1.875200 
# 
# From -- ./inp_files/60453.got.cif
#   From: 2010.03.12/outbox.cif.g09.slc.cpg/sg66_31_cif.got.tgz:60453.got - 2010.04.10 21:57:39.
