data_PCOD8277294
_publ_section_title
;
Structure prediction by ZEFSAII (Michael W. Deem and Ramdas Pophale) SiO2 
 PCOD8277294
Probable space group: C C C M
;
_chemical_formula_sum "Si O2"
_cell_formula_units_Z 64
_cell_length_a 17.146632
_cell_length_b 11.162224
_cell_length_c 15.032145
_cell_angle_alpha 90.000000
_cell_angle_beta 90.000000
_cell_angle_gamma 90.000000
_cell_volume 2877.070586
_symmetry_space_group_name_H-M "C C C M"
_symmetry_group_IT_number 66
_symmetry_cell_setting 'orthorhombic'
loop_
_space_group_symop_operation_xyz
x,y,z
-x,-y,z
x,-y,1/2-z
-x,y,1/2-z
-x,-y,-z
x,y,-z
-x,y,1/2+z
x,-y,1/2+z
1/2+x,1/2+y,z
1/2-x,1/2-y,z
1/2+x,1/2-y,1/2-z
1/2-x,1/2+y,1/2-z
1/2-x,1/2-y,-z
1/2+x,1/2+y,-z
1/2-x,1/2+y,1/2+z
1/2+x,1/2-y,1/2+z
loop_
_atom_site_type_symbol
_atom_site_label
_atom_site_fract_x
_atom_site_fract_y
_atom_site_fract_z
Si Si1 0.083265 0.067548 0.000000
Si Si2 0.128318 0.070568 0.663220
Si Si3 0.836637 0.312289 0.500000
Si Si4 0.500000 0.288687 0.250000
Si Si5 0.750000 0.750000 0.300274
Si Si6 0.629650 0.113884 0.691398
O O1 0.130443 0.024362 0.914536
O O2 0.093658 0.211643 0.000000
O O3 0.000000 0.000000 0.000000
O O4 0.042238 0.127392 0.677056
O O5 0.188627 0.177359 0.639407
O O6 0.156456 0.000000 0.750000
O O7 0.750000 0.250000 0.500000
O O8 0.850058 0.399980 0.586030
O O9 0.562041 0.212282 0.304234
O O10 0.708057 0.844094 0.237265
O O11 0.600890 0.000000 0.750000
#
# Coordination Sequence:
#
# PCOD8277294 Si02
#       6
#     8  16   8   8   8  16
#     4  12  24  41  70 100 132 174 227 285 345 405
#     4  11  22  39  64  93 131 172 221 281 339 397
#     4  12  26  42  69 109 137 179 242 287 345 432
#     4  10  22  42  66  98 134 182 232 276 340 420
#     4  10  22  38  60  92 130 174 220 276 332 416
#     4  11  23  43  67  94 138 182 229 282 354 408
#
# _framework density 22.244848999999999
#
# number of rings (size 3 to 8) (size 9 to 14) (size 15 to 20)
#    0.000    1.000    1.250    7.500    3.500    0.500 
#    0.000    7.500    0.000    0.000    0.000    0.000 
#    0.000    0.000    0.000    0.000    0.000    0.000 
#
# Total GULP energy -396578.294197 kJ/mol
# GULP energy per Si atom -12393.071694 kJ/mol
# Density = 2.219422 g / cm^3
# Si number density = 22.244849 Si / 1000 Ang^3
#
#
#
# Elastic Constant Matrix: (Units=GPa)
#
#
# Indices 1 2 3 4 5 6 
#
# 1 85.4789 19.3936 2.5978 0.0000 0.0000 0.0000
# 2 19.3936 97.7820 39.0263 0.0000 0.0000 0.0000
# 3 2.5978 39.0263 139.9531 0.0000 0.0000 0.0000
# 4 0.0000 0.0000 0.0000 30.9615 0.0000 0.0000
# 5 0.0000 0.0000 0.0000 0.0000 5.5431 0.0000
# 6 0.0000 0.0000 0.0000 0.0000 0.0000 25.4219
#
#
#
# Elastic Compliance Matrix: (Units=1/GPa)
#
#
# Indices 1 2 3 4 5 6 
#
# 1 0.012282 -0.002639 0.000508 0.000000 0.000000 0.000000
# 2 -0.002639 0.012074 -0.003318 0.000000 0.000000 0.000000
# 3 0.000508 -0.003318 0.008061 0.000000 0.000000 0.000000
# 4 0.000000 0.000000 0.000000 0.032298 0.000000 0.000000
# 5 0.000000 0.000000 0.000000 0.000000 0.180404 0.000000
# 6 0.000000 0.000000 0.000000 0.000000 0.000000 0.039336
#
#
# Mechanical properties :
#
#
# Convention : Reuss Voigt Hill
#
# Bulk Modulus (GPa) = 46.46871 49.47215 47.97043
# Shear Modulus (GPa) = 16.52744 29.86506 23.19625
#
# Velocity S-wave (km/s) = 2.72872 3.66807 3.23270
# Velocity P-wave (km/s) = 5.55544 6.34254 5.96199
#
# Compressibility (1/GPa) = 0.02151986
#
# Stress axis : x y z
#
# Youngs Moduli (GPa) = 81.41982 82.81960 124.05314
#
# Poissons Ratio (x) = 0.21853 -0.06300
# Poissons Ratio (y) = 0.21484 0.41161
# Poissons Ratio (z) = -0.04135 0.27480
#
# Static dielectric constant tensor:
#      x y z
#    x 4.126780 0.000000 0.000000 
#    y 0.000000 5.000390 0.000000 
#    z 0.000000 0.000000 3.901840 
# 
# 
# High freq. dielectric constant tensor:
#      x y z
#    x 1.888030 0.000000 0.000000 
#    y 0.000000 1.871810 0.000000 
#    z 0.000000 0.000000 1.863580 
# 
# From -- ./inp_files/25887.got.cif
#   From: 2010.03.12/outbox.cif.g09.slc.cpg/sg66_13_cif.got.tgz:25887.got - 2010.04.10 21:57:39.
