data_PCOD8277693
_publ_section_title
;
Structure prediction by ZEFSAII (Michael W. Deem and Ramdas Pophale) SiO2 
 PCOD8277693
Probable space group: C C C M
;
_chemical_formula_sum "Si O2"
_cell_formula_units_Z 96
_cell_length_a 27.849094
_cell_length_b 9.064267
_cell_length_c 19.681521
_cell_angle_alpha 90.000000
_cell_angle_beta 90.000000
_cell_angle_gamma 90.000000
_cell_volume 4968.238303
_symmetry_space_group_name_H-M "C C C M"
_symmetry_group_IT_number 66
_symmetry_cell_setting 'orthorhombic'
loop_
_space_group_symop_operation_xyz
x,y,z
-x,-y,z
x,-y,1/2-z
-x,y,1/2-z
-x,-y,-z
x,y,-z
-x,y,1/2+z
x,-y,1/2+z
1/2+x,1/2+y,z
1/2-x,1/2-y,z
1/2+x,1/2-y,1/2-z
1/2-x,1/2+y,1/2-z
1/2-x,1/2-y,-z
1/2+x,1/2+y,-z
1/2-x,1/2+y,1/2+z
1/2+x,1/2-y,1/2+z
loop_
_atom_site_type_symbol
_atom_site_label
_atom_site_fract_x
_atom_site_fract_y
_atom_site_fract_z
Si Si1 0.719817 0.107660 0.186863
Si Si2 0.875740 0.764622 0.292403
Si Si3 0.372576 0.410217 0.150179
Si Si4 0.979094 0.662446 0.683724
Si Si5 0.470957 0.350642 0.076811
Si Si6 0.228614 0.910325 0.421217
O O1 0.750000 0.250000 0.206409
O O2 0.665689 0.162671 0.175815
O O3 0.725034 0.000000 0.250000
O O4 0.739768 0.030528 0.119046
O O5 0.866907 0.795547 0.212546
O O6 0.921975 0.666342 0.309062
O O7 0.880377 0.922161 0.327722
O O8 0.418172 0.360407 0.107446
O O9 0.325871 0.404906 0.103724
O O10 0.000000 0.500000 0.685203
O O11 0.000000 0.749630 0.750000
O O12 0.996519 0.731888 0.614193
O O13 0.500000 0.500000 0.082881
O O14 0.465358 0.297269 0.000000
O O15 0.229891 0.956704 0.500000
O O16 0.250000 0.750000 0.409123
#
# Coordination Sequence:
#
# PCOD8277693 Si02
#       6
#    16  16  16  16  16  16
#     4  12  24  41  65  97 130 164 215 269 323 381
#     4  11  23  38  66  97 125 168 216 269 323 378
#     4  11  21  41  66  94 127 167 223 265 314 385
#     4  11  24  41  63  95 130 165 210 267 324 382
#     4  11  23  40  65  94 126 166 212 263 316 383
#     4  11  25  45  66  94 133 176 216 266 329 391
#
# _framework density 19.322742999999999
#
# number of rings (size 3 to 8) (size 9 to 14) (size 15 to 20)
#    0.000    0.833    5.000    3.000    2.333    2.333 
#    0.000    0.833    0.000    0.000    0.000    0.000 
#    0.000    0.000    0.000    0.000    0.000    0.000 
#
# Total GULP energy -595265.303821 kJ/mol
# GULP energy per Si atom -12401.360496 kJ/mol
# Density = 1.927876 g / cm^3
# Si number density = 19.322743 Si / 1000 Ang^3
#
#
#
# Elastic Constant Matrix: (Units=GPa)
#
#
# Indices 1 2 3 4 5 6 
#
# 1 162.6198 39.6116 44.0930 0.0000 0.0000 0.0000
# 2 39.6116 84.3486 34.7698 0.0000 0.0000 0.0000
# 3 44.0930 34.7698 94.6799 0.0000 0.0000 0.0000
# 4 0.0000 0.0000 0.0000 50.4960 0.0000 0.0000
# 5 0.0000 0.0000 0.0000 0.0000 21.1956 0.0000
# 6 0.0000 0.0000 0.0000 0.0000 0.0000 34.3206
#
#
#
# Elastic Compliance Matrix: (Units=1/GPa)
#
#
# Indices 1 2 3 4 5 6 
#
# 1 0.007439 -0.002434 -0.002571 0.000000 0.000000 0.000000
# 2 -0.002434 0.014767 -0.004289 0.000000 0.000000 0.000000
# 3 -0.002571 -0.004289 0.013334 0.000000 0.000000 0.000000
# 4 0.000000 0.000000 0.000000 0.019804 0.000000 0.000000
# 5 0.000000 0.000000 0.000000 0.000000 0.047180 0.000000
# 6 0.000000 0.000000 0.000000 0.000000 0.000000 0.029137
#
#
# Mechanical properties :
#
#
# Convention : Reuss Voigt Hill
#
# Bulk Modulus (GPa) = 58.98900 64.28854 61.63877
# Shear Modulus (GPa) = 32.07204 36.08070 34.07637
#
# Velocity S-wave (km/s) = 4.07849 4.32588 4.20400
# Velocity P-wave (km/s) = 7.26453 7.63506 7.45209
#
# Compressibility (1/GPa) = 0.01695231
#
# Stress axis : x y z
#
# Youngs Moduli (GPa) = 134.42335 67.71993 74.99474
#
# Poissons Ratio (x) = 0.16482 0.19279
# Poissons Ratio (y) = 0.32717 0.32168
# Poissons Ratio (z) = 0.34556 0.29048
#
# Static dielectric constant tensor:
#      x y z
#    x 3.859510 0.000000 0.000000 
#    y 0.000000 3.497340 0.000000 
#    z 0.000000 0.000000 3.803630 
# 
# 
# High freq. dielectric constant tensor:
#      x y z
#    x 1.773080 0.000000 0.000000 
#    y 0.000000 1.753980 0.000000 
#    z 0.000000 0.000000 1.754160 
# 
# From -- ./inp_files/52974.got.cif
#   From: 2010.03.12/outbox.cif.g09.slc.cpg/sg66_27_cif.got.tgz:52974.got - 2010.04.10 21:57:39.
