data_PCOD8277238
_publ_section_title
;
Structure prediction by ZEFSAII (Michael W. Deem and Ramdas Pophale) SiO2 
 PCOD8277238
Probable space group: C C C M
;
_chemical_formula_sum "Si O2"
_cell_formula_units_Z 80
_cell_length_a 15.359037
_cell_length_b 26.629026
_cell_length_c 10.122048
_cell_angle_alpha 90.000000
_cell_angle_beta 90.000000
_cell_angle_gamma 90.000000
_cell_volume 4139.879124
_symmetry_space_group_name_H-M "C C C M"
_symmetry_group_IT_number 66
_symmetry_cell_setting 'orthorhombic'
loop_
_space_group_symop_operation_xyz
x,y,z
-x,-y,z
x,-y,1/2-z
-x,y,1/2-z
-x,-y,-z
x,y,-z
-x,y,1/2+z
x,-y,1/2+z
1/2+x,1/2+y,z
1/2-x,1/2-y,z
1/2+x,1/2-y,1/2-z
1/2-x,1/2+y,1/2-z
1/2-x,1/2-y,-z
1/2+x,1/2+y,-z
1/2-x,1/2+y,1/2+z
1/2+x,1/2-y,1/2+z
loop_
_atom_site_type_symbol
_atom_site_label
_atom_site_fract_x
_atom_site_fract_y
_atom_site_fract_z
Si Si1 0.420974 0.132504 0.849430
Si Si2 0.348798 0.550596 0.500000
Si Si3 0.277149 0.942114 0.736343
Si Si4 0.492214 0.624490 0.000000
Si Si5 0.317938 0.434329 0.500000
Si Si6 0.347848 0.759198 0.348442
Si Si7 0.500000 0.694449 0.250000
O O1 0.500000 0.137499 0.750000
O O2 0.364703 0.084942 0.806980
O O3 0.362152 0.181634 0.837530
O O4 0.454752 0.125543 0.000000
O O5 0.297591 0.568193 0.629343
O O6 0.442072 0.577302 0.500000
O O7 0.358175 0.490396 0.500000
O O8 0.302096 0.000000 0.750000
O O9 0.241978 0.922153 0.874974
O O10 0.504692 0.659008 0.874734
O O11 0.395672 0.604170 0.000000
O O12 0.360001 0.740673 0.500000
O O13 0.250000 0.750000 0.298233
O O14 0.414510 0.729777 0.252918
#
# Coordination Sequence:
#
# PCOD8277238 Si02
#       7
#    16   8  16   8   8  16   8
#     4  11  24  42  67  92 123 166 212 260 320 383
#     4  10  21  42  64  87 129 174 214 247 310 388
#     4  10  22  41  65  93 126 163 214 264 309 376
#     4  12  25  36  66  92 134 166 209 262 312 376
#     4  10  23  40  60  95 131 166 208 263 314 366
#     4  10  23  43  67  88 124 171 211 259 320 382
#     4  12  24  42  59 102 129 156 220 270 312 382
#
# _framework density 19.324235000000002
#
# number of rings (size 3 to 8) (size 9 to 14) (size 15 to 20)
#    0.000    1.400    3.000    1.500    7.000    0.400 
#    0.000    5.500    0.000    0.000    0.000    0.000 
#    0.000    0.000    0.000    0.000    0.000    0.000 
#
# Total GULP energy -496148.917540 kJ/mol
# GULP energy per Si atom -12403.722939 kJ/mol
# Density = 1.928025 g / cm^3
# Si number density = 19.324235 Si / 1000 Ang^3
#
#
#
# Elastic Constant Matrix: (Units=GPa)
#
#
# Indices 1 2 3 4 5 6 
#
# 1 118.5478 43.3954 43.9959 0.0000 0.0000 0.0000
# 2 43.3954 71.3693 37.4171 0.0000 0.0000 0.0000
# 3 43.9959 37.4171 134.4457 0.0000 0.0000 0.0000
# 4 0.0000 0.0000 0.0000 193.8133 0.0000 0.0000
# 5 0.0000 0.0000 0.0000 0.0000 33.7078 0.0000
# 6 0.0000 0.0000 0.0000 0.0000 0.0000 38.4790
#
#
#
# Elastic Compliance Matrix: (Units=1/GPa)
#
#
# Indices 1 2 3 4 5 6 
#
# 1 0.011334 -0.005792 -0.002097 0.000000 0.000000 0.000000
# 2 -0.005792 0.019365 -0.003494 0.000000 0.000000 0.000000
# 3 -0.002097 -0.003494 0.009097 0.000000 0.000000 0.000000
# 4 0.000000 0.000000 0.000000 0.005160 0.000000 0.000000
# 5 0.000000 0.000000 0.000000 0.000000 0.029667 0.000000
# 6 0.000000 0.000000 0.000000 0.000000 0.000000 0.025988
#
#
# Mechanical properties :
#
#
# Convention : Reuss Voigt Hill
#
# Bulk Modulus (GPa) = 58.72142 63.77552 61.24847
# Shear Modulus (GPa) = 38.74377 66.50363 52.62370
#
# Velocity S-wave (km/s) = 4.48250 5.87276 5.22409
# Velocity P-wave (km/s) = 7.56597 8.89159 8.25543
#
# Compressibility (1/GPa) = 0.01702956
#
# Stress axis : x y z
#
# Youngs Moduli (GPa) = 88.23116 51.63876 109.93161
#
# Poissons Ratio (x) = 0.29910 0.23052
# Poissons Ratio (y) = 0.51104 0.38411
# Poissons Ratio (z) = 0.18501 0.18043
#
# Static dielectric constant tensor:
#      x y z
#    x 3.450420 0.000000 0.000000 
#    y 0.000000 3.635150 0.000000 
#    z 0.000000 0.000000 3.619080 
# 
# 
# High freq. dielectric constant tensor:
#      x y z
#    x 1.750510 0.000000 0.000000 
#    y 0.000000 1.761730 0.000000 
#    z 0.000000 0.000000 1.760790 
# 
# From -- ./inp_files/16412.got.cif
#   From: 2010.03.12/outbox.cif.g09.slc.cpg/sg66_9_cif.got.tgz:16412.got - 2010.04.10 21:57:39.
