data_PCOD8277743
_publ_section_title
;
Structure prediction by ZEFSAII (Michael W. Deem and Ramdas Pophale) SiO2 
 PCOD8277743
Probable space group: C C C M
;
_chemical_formula_sum "Si O2"
_cell_formula_units_Z 64
_cell_length_a 16.484760
_cell_length_b 11.708491
_cell_length_c 15.849794
_cell_angle_alpha 90.000000
_cell_angle_beta 90.000000
_cell_angle_gamma 90.000000
_cell_volume 3059.195116
_symmetry_space_group_name_H-M "C C C M"
_symmetry_group_IT_number 66
_symmetry_cell_setting 'orthorhombic'
loop_
_space_group_symop_operation_xyz
x,y,z
-x,-y,z
x,-y,1/2-z
-x,y,1/2-z
-x,-y,-z
x,y,-z
-x,y,1/2+z
x,-y,1/2+z
1/2+x,1/2+y,z
1/2-x,1/2-y,z
1/2+x,1/2-y,1/2-z
1/2-x,1/2+y,1/2-z
1/2-x,1/2-y,-z
1/2+x,1/2+y,-z
1/2-x,1/2+y,1/2+z
1/2+x,1/2-y,1/2+z
loop_
_atom_site_type_symbol
_atom_site_label
_atom_site_fract_x
_atom_site_fract_y
_atom_site_fract_z
Si Si1 0.637730 0.736111 0.660178
Si Si2 0.260670 0.928845 0.904054
Si Si3 0.513305 0.372753 0.596226
Si Si4 0.310898 0.341457 0.845244
O O1 0.661806 0.868079 0.641613
O O2 0.684645 0.657844 0.592168
O O3 0.541299 0.716297 0.650023
O O4 0.668506 0.694560 0.750496
O O5 0.234499 0.037482 0.848697
O O6 0.282616 0.964349 0.000000
O O7 0.500000 0.500000 0.633418
O O8 0.484400 0.367346 0.500000
O O9 0.607099 0.339925 0.600981
O O10 0.250000 0.250000 0.886267
#
# Coordination Sequence:
#
# PCOD8277743 Si02
#       4
#    16  16  16  16
#     4  11  22  39  66  92 125 169 221 263 313 385
#     4  11  22  39  64  93 130 172 214 261 323 395
#     4  11  23  39  63  94 129 167 217 270 324 382
#     4  12  25  40  65  99 134 166 212 273 334 380
#
# _framework density 20.920535999999998
#
# number of rings (size 3 to 8) (size 9 to 14) (size 15 to 20)
#    0.000    0.750    5.000    5.250    0.000    3.000 
#    0.000    1.250    0.000    6.000    0.000    0.000 
#    0.000    0.000    0.000    0.000    0.000    0.000 
#
# Total GULP energy -396797.961746 kJ/mol
# GULP energy per Si atom -12399.936305 kJ/mol
# Density = 2.087292 g / cm^3
# Si number density = 20.920536 Si / 1000 Ang^3
#
#
#
# Elastic Constant Matrix: (Units=GPa)
#
#
# Indices 1 2 3 4 5 6 
#
# 1 145.9742 76.7373 12.6258 0.0000 0.0000 0.0000
# 2 76.7373 108.0077 25.8025 0.0000 0.0000 0.0000
# 3 12.6258 25.8025 90.4531 0.0000 0.0000 0.0000
# 4 0.0000 0.0000 0.0000 13.1563 0.0000 0.0000
# 5 0.0000 0.0000 0.0000 0.0000 23.7873 0.0000
# 6 0.0000 0.0000 0.0000 0.0000 0.0000 40.4661
#
#
#
# Elastic Compliance Matrix: (Units=1/GPa)
#
#
# Indices 1 2 3 4 5 6 
#
# 1 0.010981 -0.007979 0.000743 0.000000 0.000000 0.000000
# 2 -0.007979 0.015734 -0.003374 0.000000 0.000000 0.000000
# 3 0.000743 -0.003374 0.011914 0.000000 0.000000 0.000000
# 4 0.000000 0.000000 0.000000 0.076009 0.000000 0.000000
# 5 0.000000 0.000000 0.000000 0.000000 0.042039 0.000000
# 6 0.000000 0.000000 0.000000 0.000000 0.000000 0.024712
#
#
# Mechanical properties :
#
#
# Convention : Reuss Voigt Hill
#
# Bulk Modulus (GPa) = 57.44365 63.86292 60.65328
# Shear Modulus (GPa) = 23.99087 30.76658 27.37872
#
# Velocity S-wave (km/s) = 3.39006 3.83905 3.62152
# Velocity P-wave (km/s) = 6.54530 7.08829 6.82220
#
# Compressibility (1/GPa) = 0.01740837
#
# Stress axis : x y z
#
# Youngs Moduli (GPa) = 91.06761 63.55729 83.93300
#
# Poissons Ratio (x) = 0.50714 -0.06240
# Poissons Ratio (y) = 0.72665 0.28323
# Poissons Ratio (z) = -0.06770 0.21447
#
# Static dielectric constant tensor:
#      x y z
#    x 3.879490 0.000000 0.000000 
#    y 0.000000 3.859670 0.000000 
#    z 0.000000 0.000000 3.635150 
# 
# 
# High freq. dielectric constant tensor:
#      x y z
#    x 1.812120 0.000000 0.000000 
#    y 0.000000 1.800370 0.000000 
#    z 0.000000 0.000000 1.824880 
# 
# From -- ./inp_files/25749.got.cif
#   From: 2010.03.12/outbox.cif.g09.slc.cpg/sg66_13_cif.got.tgz:25749.got - 2010.04.10 21:57:39.
