data_PCOD8277717
_publ_section_title
;
Structure prediction by ZEFSAII (Michael W. Deem and Ramdas Pophale) SiO2 
 PCOD8277717
Probable space group: C C C M
;
_chemical_formula_sum "Si O2"
_cell_formula_units_Z 112
_cell_length_a 25.056872
_cell_length_b 15.806684
_cell_length_c 15.657325
_cell_angle_alpha 90.000000
_cell_angle_beta 90.000000
_cell_angle_gamma 90.000000
_cell_volume 6201.334987
_symmetry_space_group_name_H-M "C C C M"
_symmetry_group_IT_number 66
_symmetry_cell_setting 'orthorhombic'
loop_
_space_group_symop_operation_xyz
x,y,z
-x,-y,z
x,-y,1/2-z
-x,y,1/2-z
-x,-y,-z
x,y,-z
-x,y,1/2+z
x,-y,1/2+z
1/2+x,1/2+y,z
1/2-x,1/2-y,z
1/2+x,1/2-y,1/2-z
1/2-x,1/2+y,1/2-z
1/2-x,1/2-y,-z
1/2+x,1/2+y,-z
1/2-x,1/2+y,1/2+z
1/2+x,1/2-y,1/2+z
loop_
_atom_site_type_symbol
_atom_site_label
_atom_site_fract_x
_atom_site_fract_y
_atom_site_fract_z
Si Si1 0.195939 0.797121 0.100124
Si Si2 0.780577 0.892498 0.000000
Si Si3 0.174864 0.706588 0.500000
Si Si4 0.884496 0.672084 0.663799
Si Si5 0.827383 0.479694 0.095824
Si Si6 0.107543 0.364897 0.142165
Si Si7 0.007484 0.403557 0.600355
Si Si8 0.284394 0.487044 0.654205
O O1 0.250000 0.750000 0.134221
O O2 0.140539 0.764411 0.144237
O O3 0.198378 0.895883 0.121012
O O4 0.190776 0.783411 0.000000
O O5 0.801545 0.941378 0.915048
O O6 0.802976 0.799296 0.000000
O O7 0.716622 0.872463 0.000000
O O8 0.139426 0.700836 0.415448
O O9 0.848047 0.614657 0.603865
O O10 0.875226 0.651613 0.762031
O O11 0.946177 0.653216 0.642661
O O12 0.877618 0.539641 0.114838
O O13 0.779562 0.495621 0.161355
O O14 0.804298 0.489212 0.000000
O O15 0.045158 0.351731 0.125293
O O16 0.017892 0.407016 0.500000
O O17 0.000000 0.500000 0.636082
O O18 0.308037 0.500000 0.750000
#
# Coordination Sequence:
#
# PCOD8277717 Si02
#       8
#    16   8   8  16  16  16  16  16
#     4  11  23  39  58  84 121 161 196 238 293 349
#     4  11  24  42  61  85 119 157 201 246 293 357
#     4  11  24  40  61  81 119 157 195 242 301 347
#     4  12  25  34  57  87 119 153 205 242 281 347
#     4  12  20  36  53  81 121 161 195 234 291 348
#     4  12  22  39  56  84 117 158 195 244 292 345
#     4  11  22  37  58  83 118 161 195 232 292 353
#     4  12  23  39  60  85 117 160 200 243 297 350
#
# _framework density 18.060628000000001
#
# number of rings (size 3 to 8) (size 9 to 14) (size 15 to 20)
#    0.000    0.429    7.143    3.000    2.000    0.571 
#    0.000    0.000    0.000    0.000    0.000    2.000 
#    0.000    0.000    0.000    0.000    0.000    0.000 
#
# Total GULP energy -694192.774968 kJ/mol
# GULP energy per Si atom -12396.299553 kJ/mol
# Density = 1.801952 g / cm^3
# Si number density = 18.060628 Si / 1000 Ang^3
#
#
#
# Elastic Constant Matrix: (Units=GPa)
#
#
# Indices 1 2 3 4 5 6 
#
# 1 74.9686 24.5321 25.6284 0.0000 0.0000 0.0000
# 2 24.5321 90.6554 37.7675 0.0000 0.0000 0.0000
# 3 25.6284 37.7675 115.6235 0.0000 0.0000 0.0000
# 4 0.0000 0.0000 0.0000 13.9727 0.0000 0.0000
# 5 0.0000 0.0000 0.0000 0.0000 4.3963 0.0000
# 6 0.0000 0.0000 0.0000 0.0000 0.0000 29.0256
#
#
#
# Elastic Compliance Matrix: (Units=1/GPa)
#
#
# Indices 1 2 3 4 5 6 
#
# 1 0.015162 -0.003129 -0.002339 0.000000 0.000000 0.000000
# 2 -0.003129 0.013414 -0.003688 0.000000 0.000000 0.000000
# 3 -0.002339 -0.003688 0.010372 0.000000 0.000000 0.000000
# 4 0.000000 0.000000 0.000000 0.071568 0.000000 0.000000
# 5 0.000000 0.000000 0.000000 0.000000 0.227466 0.000000
# 6 0.000000 0.000000 0.000000 0.000000 0.000000 0.034452
#
#
# Mechanical properties :
#
#
# Convention : Reuss Voigt Hill
#
# Bulk Modulus (GPa) = 48.45690 50.78929 49.62310
# Shear Modulus (GPa) = 12.57468 22.36688 17.47078
#
# Velocity S-wave (km/s) = 2.64151 3.52296 3.11358
# Velocity P-wave (km/s) = 6.01597 6.68812 6.36092
#
# Compressibility (1/GPa) = 0.02063689
#
# Stress axis : x y z
#
# Youngs Moduli (GPa) = 65.95321 74.54958 96.41489
#
# Poissons Ratio (x) = 0.23324 0.22550
# Poissons Ratio (y) = 0.20635 0.35558
# Poissons Ratio (z) = 0.15425 0.27494
#
# Static dielectric constant tensor:
#      x y z
#    x 3.333780 0.000000 0.000000 
#    y 0.000000 3.220950 0.000000 
#    z 0.000000 0.000000 3.415020 
# 
# 
# High freq. dielectric constant tensor:
#      x y z
#    x 1.679760 0.000000 0.000000 
#    y 0.000000 1.683040 0.000000 
#    z 0.000000 0.000000 1.713870 
# 
# From -- ./inp_files/33364.got.cif
#   From: 2010.03.12/outbox.cif.g09.slc.cpg/sg66_17_cif.got.tgz:33364.got - 2010.04.10 21:57:39.
