data_PCOD8277338
_publ_section_title
;
Structure prediction by ZEFSAII (Michael W. Deem and Ramdas Pophale) SiO2 
 PCOD8277338
Probable space group: C C C M
;
_chemical_formula_sum "Si O2"
_cell_formula_units_Z 80
_cell_length_a 12.642038
_cell_length_b 12.574538
_cell_length_c 23.242258
_cell_angle_alpha 90.000000
_cell_angle_beta 90.000000
_cell_angle_gamma 90.000000
_cell_volume 3694.770324
_symmetry_space_group_name_H-M "C C C M"
_symmetry_group_IT_number 66
_symmetry_cell_setting 'orthorhombic'
loop_
_space_group_symop_operation_xyz
x,y,z
-x,-y,z
x,-y,1/2-z
-x,y,1/2-z
-x,-y,-z
x,y,-z
-x,y,1/2+z
x,-y,1/2+z
1/2+x,1/2+y,z
1/2-x,1/2-y,z
1/2+x,1/2-y,1/2-z
1/2-x,1/2+y,1/2-z
1/2-x,1/2-y,-z
1/2+x,1/2+y,-z
1/2-x,1/2+y,1/2+z
1/2+x,1/2-y,1/2+z
loop_
_atom_site_type_symbol
_atom_site_label
_atom_site_fract_x
_atom_site_fract_y
_atom_site_fract_z
Si Si1 0.213819 0.910660 0.623153
Si Si2 0.927913 0.596379 0.935095
Si Si3 0.011160 0.829976 0.436248
Si Si4 0.187791 0.850557 0.136938
Si Si5 0.383032 0.375352 0.243000
O O1 0.327356 0.867787 0.603260
O O2 0.125068 0.881778 0.576467
O O3 0.176956 0.854638 0.682752
O O4 0.241948 0.036137 0.626517
O O5 0.996433 0.702656 0.935424
O O6 0.000000 0.500000 0.909561
O O7 0.891364 0.565364 0.000000
O O8 0.978610 0.869536 0.500000
O O9 0.928765 0.869181 0.388807
O O10 0.250000 0.750000 0.108410
O O11 0.184745 0.826923 0.205019
O O12 0.395554 0.500000 0.250000
O O13 0.500000 0.323301 0.250000
#
# Coordination Sequence:
#
# PCOD8277338 Si02
#       5
#    16  16  16  16  16
#     4  11  21  38  64  87 117 158 202 252 297 362
#     4  10  22  40  60  87 125 161 198 248 308 368
#     4  11  23  38  59  88 118 156 206 249 296 368
#     4  11  23  38  59  87 122 154 195 250 310 361
#     4   9  18  37  60  83 113 151 197 247 297 353
#
# _framework density 21.652225000000001
#
# number of rings (size 3 to 8) (size 9 to 14) (size 15 to 20)
#    0.000    1.600    2.000    3.000    0.000    6.000 
#    0.000    0.000    0.000    4.200    0.000    0.000 
#    0.000    0.000    0.000    0.000    0.000    0.000 
#
# Total GULP energy -495740.020300 kJ/mol
# GULP energy per Si atom -12393.500508 kJ/mol
# Density = 2.160294 g / cm^3
# Si number density = 21.652225 Si / 1000 Ang^3
#
#
#
# Elastic Constant Matrix: (Units=GPa)
#
#
# Indices 1 2 3 4 5 6 
#
# 1 88.6245 0.1822 30.9336 0.0000 0.0000 0.0000
# 2 0.1822 65.2875 6.5853 0.0000 0.0000 0.0000
# 3 30.9336 6.5853 117.5679 0.0000 0.0000 0.0000
# 4 0.0000 0.0000 0.0000 22.6530 0.0000 0.0000
# 5 0.0000 0.0000 0.0000 0.0000 24.0835 0.0000
# 6 0.0000 0.0000 0.0000 0.0000 0.0000 29.3373
#
#
#
# Elastic Compliance Matrix: (Units=1/GPa)
#
#
# Indices 1 2 3 4 5 6 
#
# 1 0.012430 0.000297 -0.003287 0.000000 0.000000 0.000000
# 2 0.000297 0.015411 -0.000941 0.000000 0.000000 0.000000
# 3 -0.003287 -0.000941 0.009423 0.000000 0.000000 0.000000
# 4 0.000000 0.000000 0.000000 0.044144 0.000000 0.000000
# 5 0.000000 0.000000 0.000000 0.000000 0.041522 0.000000
# 6 0.000000 0.000000 0.000000 0.000000 0.000000 0.034086
#
#
# Mechanical properties :
#
#
# Convention : Reuss Voigt Hill
#
# Bulk Modulus (GPa) = 34.01203 38.54246 36.27725
# Shear Modulus (GPa) = 28.62360 30.80003 29.71181
#
# Velocity S-wave (km/s) = 3.63984 3.77568 3.70838
# Velocity P-wave (km/s) = 5.77988 6.07017 5.92680
#
# Compressibility (1/GPa) = 0.02940136
#
# Stress axis : x y z
#
# Youngs Moduli (GPa) = 80.44840 64.88878 106.11930
#
# Poissons Ratio (x) = -0.01926 0.34884
# Poissons Ratio (y) = -0.02388 0.09989
# Poissons Ratio (z) = 0.26445 0.06108
#
# Static dielectric constant tensor:
#      x y z
#    x 3.613570 0.000000 0.000000 
#    y 0.000000 3.811840 0.000000 
#    z 0.000000 0.000000 4.027790 
# 
# 
# High freq. dielectric constant tensor:
#      x y z
#    x 1.837180 0.000000 0.000000 
#    y 0.000000 1.850260 0.000000 
#    z 0.000000 0.000000 1.847730 
# 
# From -- ./inp_files/56588.got.cif
#   From: 2010.03.12/outbox.cif.g09.slc.cpg/sg66_29_cif.got.tgz:56588.got - 2010.04.10 21:57:39.
