data_PCOD8277116
_publ_section_title
;
Structure prediction by ZEFSAII (Michael W. Deem and Ramdas Pophale) SiO2 
 PCOD8277116
Probable space group: C C C M
;
_chemical_formula_sum "Si O2"
_cell_formula_units_Z 96
_cell_length_a 25.529205
_cell_length_b 20.534434
_cell_length_c 8.881941
_cell_angle_alpha 90.000000
_cell_angle_beta 90.000000
_cell_angle_gamma 90.000000
_cell_volume 4656.160169
_symmetry_space_group_name_H-M "C C C M"
_symmetry_group_IT_number 66
_symmetry_cell_setting 'orthorhombic'
loop_
_space_group_symop_operation_xyz
x,y,z
-x,-y,z
x,-y,1/2-z
-x,y,1/2-z
-x,-y,-z
x,y,-z
-x,y,1/2+z
x,-y,1/2+z
1/2+x,1/2+y,z
1/2-x,1/2-y,z
1/2+x,1/2-y,1/2-z
1/2-x,1/2+y,1/2-z
1/2-x,1/2-y,-z
1/2+x,1/2+y,-z
1/2-x,1/2+y,1/2+z
1/2+x,1/2-y,1/2+z
loop_
_atom_site_type_symbol
_atom_site_label
_atom_site_fract_x
_atom_site_fract_y
_atom_site_fract_z
Si Si1 0.199259 0.213177 0.339540
Si Si2 0.724457 0.590948 0.825201
Si Si3 0.379915 0.203354 0.171068
Si Si4 0.120795 0.063382 0.323627
Si Si5 0.945070 0.824598 0.173583
Si Si6 0.656379 0.065004 0.325205
O O1 0.179973 0.179233 0.500000
O O2 0.250000 0.250000 0.387942
O O3 0.211775 0.166636 0.199762
O O4 0.158848 0.267321 0.290547
O O5 0.682479 0.555077 0.717645
O O6 0.783643 0.576585 0.769274
O O7 0.715587 0.573269 0.000000
O O8 0.432894 0.246720 0.187068
O O9 0.382632 0.126072 0.211579
O O10 0.358444 0.209038 0.000000
O O11 0.110501 0.061511 0.500000
O O12 0.099549 0.131601 0.254437
O O13 0.092125 0.000000 0.250000
O O14 0.000000 0.839778 0.250000
O O15 0.947543 0.845902 0.000000
O O16 0.657990 0.051416 0.500000
O O17 0.632978 0.000000 0.250000
#
# Coordination Sequence:
#
# PCOD8277116 Si02
#       6
#    16  16  16  16  16  16
#     4  11  21  31  51  85 118 153 198 244 287 340
#     4  11  21  35  56  83 120 165 205 240 285 341
#     4  10  21  39  61  83 114 156 197 240 299 361
#     4  12  25  41  61  88 123 161 204 246 292 348
#     4  11  24  43  67  91 116 148 193 249 307 363
#     4  10  22  37  56  85 120 161 201 241 288 350
#
# _framework density 20.617847000000001
#
# number of rings (size 3 to 8) (size 9 to 14) (size 15 to 20)
#    0.000    1.167    3.333    3.500    0.000    5.000 
#    0.000    1.667    0.000    0.500    0.000    3.500 
#    0.000    0.000    0.000    0.000    0.000    0.000 
#
# Total GULP energy -594628.293835 kJ/mol
# GULP energy per Si atom -12388.089455 kJ/mol
# Density = 2.057092 g / cm^3
# Si number density = 20.617847 Si / 1000 Ang^3
#
#
#
# Elastic Constant Matrix: (Units=GPa)
#
#
# Indices 1 2 3 4 5 6 
#
# 1 45.5534 19.4657 21.4630 0.0000 0.0000 0.0000
# 2 19.4657 147.4957 42.5845 0.0000 0.0000 0.0000
# 3 21.4630 42.5845 109.4992 0.0000 0.0000 0.0000
# 4 0.0000 0.0000 0.0000 34.1055 0.0000 0.0000
# 5 0.0000 0.0000 0.0000 0.0000 13.7993 0.0000
# 6 0.0000 0.0000 0.0000 0.0000 0.0000 12.2579
#
#
#
# Elastic Compliance Matrix: (Units=1/GPa)
#
#
# Indices 1 2 3 4 5 6 
#
# 1 0.024751 -0.002102 -0.004034 0.000000 0.000000 0.000000
# 2 -0.002102 0.007816 -0.002628 0.000000 0.000000 0.000000
# 3 -0.004034 -0.002628 0.010945 0.000000 0.000000 0.000000
# 4 0.000000 0.000000 0.000000 0.029321 0.000000 0.000000
# 5 0.000000 0.000000 0.000000 0.000000 0.072467 0.000000
# 6 0.000000 0.000000 0.000000 0.000000 0.000000 0.081580
#
#
# Mechanical properties :
#
#
# Convention : Reuss Voigt Hill
#
# Bulk Modulus (GPa) = 38.48368 52.17496 45.32932
# Shear Modulus (GPa) = 19.75746 26.63488 23.19617
#
# Velocity S-wave (km/s) = 3.09895 3.59811 3.35782
# Velocity P-wave (km/s) = 5.61341 6.52859 6.08822
#
# Compressibility (1/GPa) = 0.02598504
#
# Stress axis : x y z
#
# Youngs Moduli (GPa) = 40.40221 127.94449 91.36512
#
# Poissons Ratio (x) = 0.26892 0.36857
# Poissons Ratio (y) = 0.08492 0.24007
# Poissons Ratio (z) = 0.16299 0.33619
#
# Static dielectric constant tensor:
#      x y z
#    x 3.364930 0.000000 0.000000 
#    y 0.000000 4.065390 0.000000 
#    z 0.000000 0.000000 3.697800 
# 
# 
# High freq. dielectric constant tensor:
#      x y z
#    x 1.759290 0.000000 0.000000 
#    y 0.000000 1.819070 0.000000 
#    z 0.000000 0.000000 1.818170 
# 
# From -- ./inp_files/10267.got.cif
#   From: 2010.03.12/outbox.cif.g09.slc.cpg/sg66_6_cif.got.tgz:10267.got - 2010.04.10 21:57:39.
