data_PCOD8277566
_publ_section_title
;
Structure prediction by ZEFSAII (Michael W. Deem and Ramdas Pophale) SiO2 
 PCOD8277566
Probable space group: C C C M
;
_chemical_formula_sum "Si O2"
_cell_formula_units_Z 128
_cell_length_a 12.214678
_cell_length_b 25.127580
_cell_length_c 24.351258
_cell_angle_alpha 90.000000
_cell_angle_beta 90.000000
_cell_angle_gamma 90.000000
_cell_volume 7474.017133
_symmetry_space_group_name_H-M "C C C M"
_symmetry_group_IT_number 66
_symmetry_cell_setting 'orthorhombic'
loop_
_space_group_symop_operation_xyz
x,y,z
-x,-y,z
x,-y,1/2-z
-x,y,1/2-z
-x,-y,-z
x,y,-z
-x,y,1/2+z
x,-y,1/2+z
1/2+x,1/2+y,z
1/2-x,1/2-y,z
1/2+x,1/2-y,1/2-z
1/2-x,1/2+y,1/2-z
1/2-x,1/2-y,-z
1/2+x,1/2+y,-z
1/2-x,1/2+y,1/2+z
1/2+x,1/2-y,1/2+z
loop_
_atom_site_type_symbol
_atom_site_label
_atom_site_fract_x
_atom_site_fract_y
_atom_site_fract_z
Si Si1 0.232477 0.171741 0.938759
Si Si2 0.644565 0.402592 0.642880
Si Si3 0.371143 0.509603 0.811060
Si Si4 0.397714 0.377321 0.645771
Si Si5 0.897938 0.714359 0.782137
Si Si6 0.082472 0.263799 0.096627
Si Si7 0.167725 0.827916 0.742729
Si Si8 0.353937 0.286153 0.564116
O O1 0.227569 0.117273 0.904411
O O2 0.153942 0.209949 0.902652
O O3 0.355500 0.195511 0.944744
O O4 0.185202 0.163589 0.000000
O O5 0.673819 0.464796 0.647540
O O6 0.519838 0.390382 0.625801
O O7 0.661306 0.378005 0.702935
O O8 0.500000 0.500000 0.806071
O O9 0.320511 0.500000 0.750000
O O10 0.338927 0.566609 0.838241
O O11 0.390085 0.341240 0.699868
O O12 0.344234 0.342245 0.596822
O O13 0.909624 0.703137 0.846668
O O14 0.898699 0.778183 0.780274
O O15 0.794601 0.688194 0.752163
O O16 0.000000 0.689805 0.750000
O O17 0.959327 0.249527 0.080123
O O18 0.357950 0.300430 0.500000
O O19 0.250000 0.250000 0.579047
#
# Coordination Sequence:
#
# PCOD8277566 Si02
#       8
#    16  16  16  16  16  16  16  16
#     4  11  20  32  53  76 102 139 175 215 265 308
#     4  11  18  33  51  77 107 134 173 215 258 311
#     4   9  18  31  50  75 103 136 175 210 261 319
#     4  11  21  32  54  74 105 142 173 215 258 313
#     4  11  21  30  45  76 109 136 165 212 261 317
#     4  11  19  35  51  74 106 140 175 210 259 318
#     4  11  19  31  48  72 104 139 168 206 262 312
#     4  11  24  38  53  76 107 146 186 218 256 316
#
# _framework density 17.125997000000002
#
# number of rings (size 3 to 8) (size 9 to 14) (size 15 to 20)
#    0.000    1.250    5.000    4.125    3.500    0.000 
#    0.000    0.625    0.000    2.250    0.000    4.375 
#    0.000    3.000    0.000    0.000    0.000    0.000 
#
# Total GULP energy -793129.874251 kJ/mol
# GULP energy per Si atom -12392.654285 kJ/mol
# Density = 1.708702 g / cm^3
# Si number density = 17.125997 Si / 1000 Ang^3
#
#
#
# Elastic Constant Matrix: (Units=GPa)
#
#
# Indices 1 2 3 4 5 6 
#
# 1 72.6928 26.0653 15.3068 0.0000 0.0000 0.0000
# 2 26.0653 101.4615 34.7933 0.0000 0.0000 0.0000
# 3 15.3068 34.7933 87.6420 0.0000 0.0000 0.0000
# 4 0.0000 0.0000 0.0000 14.9687 0.0000 0.0000
# 5 0.0000 0.0000 0.0000 0.0000 23.0841 0.0000
# 6 0.0000 0.0000 0.0000 0.0000 0.0000 17.5826
#
#
#
# Elastic Compliance Matrix: (Units=1/GPa)
#
#
# Indices 1 2 3 4 5 6 
#
# 1 0.015276 -0.003484 -0.001285 0.000000 0.000000 0.000000
# 2 -0.003484 0.012204 -0.004236 0.000000 0.000000 0.000000
# 3 -0.001285 -0.004236 0.013316 0.000000 0.000000 0.000000
# 4 0.000000 0.000000 0.000000 0.066806 0.000000 0.000000
# 5 0.000000 0.000000 0.000000 0.000000 0.043320 0.000000
# 6 0.000000 0.000000 0.000000 0.000000 0.000000 0.056874
#
#
# Mechanical properties :
#
#
# Convention : Reuss Voigt Hill
#
# Bulk Modulus (GPa) = 43.88661 46.01414 44.95037
# Shear Modulus (GPa) = 21.42226 23.50247 22.46236
#
# Velocity S-wave (km/s) = 3.54059 3.70851 3.62552
# Velocity P-wave (km/s) = 6.51120 6.72783 6.62040
#
# Compressibility (1/GPa) = 0.02278599
#
# Stress axis : x y z
#
# Youngs Moduli (GPa) = 65.46093 81.94258 75.09609
#
# Poissons Ratio (x) = 0.28547 0.09650
# Poissons Ratio (y) = 0.22805 0.31813
# Poissons Ratio (z) = 0.08412 0.34714
#
# Static dielectric constant tensor:
#      x y z
#    x 3.093760 0.000000 0.000000 
#    y 0.000000 3.222550 0.000000 
#    z 0.000000 0.000000 3.160080 
# 
# 
# High freq. dielectric constant tensor:
#      x y z
#    x 1.634280 0.000000 0.000000 
#    y 0.000000 1.640880 0.000000 
#    z 0.000000 0.000000 1.664260 
# 
# From -- ./inp_files/57370.got.cif
#   From: 2010.03.12/outbox.cif.g09.slc.cpg/sg66_29_cif.got.tgz:57370.got - 2010.04.10 21:57:39.
