data_PCOD8277418
_publ_section_title
;
Structure prediction by ZEFSAII (Michael W. Deem and Ramdas Pophale) SiO2 
 PCOD8277418
Probable space group: C C C M
;
_chemical_formula_sum "Si O2"
_cell_formula_units_Z 112
_cell_length_a 13.466336
_cell_length_b 17.443037
_cell_length_c 22.506201
_cell_angle_alpha 90.000000
_cell_angle_beta 90.000000
_cell_angle_gamma 90.000000
_cell_volume 5286.567011
_symmetry_space_group_name_H-M "C C C M"
_symmetry_group_IT_number 66
_symmetry_cell_setting 'orthorhombic'
loop_
_space_group_symop_operation_xyz
x,y,z
-x,-y,z
x,-y,1/2-z
-x,y,1/2-z
-x,-y,-z
x,y,-z
-x,y,1/2+z
x,-y,1/2+z
1/2+x,1/2+y,z
1/2-x,1/2-y,z
1/2+x,1/2-y,1/2-z
1/2-x,1/2+y,1/2-z
1/2-x,1/2-y,-z
1/2+x,1/2+y,-z
1/2-x,1/2+y,1/2+z
1/2+x,1/2-y,1/2+z
loop_
_atom_site_type_symbol
_atom_site_label
_atom_site_fract_x
_atom_site_fract_y
_atom_site_fract_z
Si Si1 0.233029 0.923196 0.432296
Si Si2 0.484201 0.271423 0.682129
Si Si3 0.403252 0.045665 0.567747
Si Si4 0.191557 0.679197 0.858644
Si Si5 0.673635 0.185358 0.654908
Si Si6 0.936327 0.925246 0.838154
Si Si7 0.737983 0.411817 0.749185
O O1 0.201392 0.907722 0.500000
O O2 0.291624 0.848985 0.408249
O O3 0.134311 0.940582 0.394577
O O4 0.305017 0.995373 0.426993
O O5 0.500000 0.287667 0.750000
O O6 0.380062 0.229550 0.681886
O O7 0.563560 0.217064 0.649223
O O8 0.490263 0.353889 0.648569
O O9 0.429462 0.066081 0.500000
O O10 0.375582 0.126010 0.599002
O O11 0.500000 0.000000 0.594920
O O12 0.250000 0.750000 0.892435
O O13 0.260013 0.626968 0.814752
O O14 0.750000 0.250000 0.675515
O O15 0.677074 0.122199 0.706670
O O16 0.871153 0.902611 0.780025
O O17 0.000000 0.000000 0.824330
O O18 0.767516 0.500000 0.750000
#
# Coordination Sequence:
#
# PCOD8277418 Si02
#       7
#    16  16  16  16  16  16  16
#     4  10  22  43  72  96 131 177 224 282 334 392
#     4  12  24  40  63  94 136 176 208 271 342 396
#     4  10  23  47  72  94 129 178 231 281 336 405
#     4  12  25  40  66  98 136 170 221 281 343 399
#     4  11  20  41  61  94 135 163 214 271 324 388
#     4  11  26  41  64  98 135 178 224 265 333 411
#     4  11  23  40  62  92 132 174 217 264 322 404
#
# _framework density 21.185770999999999
#
# number of rings (size 3 to 8) (size 9 to 14) (size 15 to 20)
#    0.000    1.000    4.286    3.857    6.000    0.857 
#    0.000    1.429    0.000    0.000    0.000    0.000 
#    0.000    0.000    0.000    0.000    0.000    0.000 
#
# Total GULP energy -694093.545370 kJ/mol
# GULP energy per Si atom -12394.527596 kJ/mol
# Density = 2.113755 g / cm^3
# Si number density = 21.185771 Si / 1000 Ang^3
#
#
#
# Elastic Constant Matrix: (Units=GPa)
#
#
# Indices 1 2 3 4 5 6 
#
# 1 78.1175 40.7105 28.4375 0.0000 0.0000 0.0000
# 2 40.7105 153.4819 38.8698 0.0000 0.0000 0.0000
# 3 28.4375 38.8698 86.8662 0.0000 0.0000 0.0000
# 4 0.0000 0.0000 0.0000 18.6152 0.0000 0.0000
# 5 0.0000 0.0000 0.0000 0.0000 17.3654 0.0000
# 6 0.0000 0.0000 0.0000 0.0000 0.0000 45.4651
#
#
#
# Elastic Compliance Matrix: (Units=1/GPa)
#
#
# Indices 1 2 3 4 5 6 
#
# 1 0.015860 -0.003261 -0.003733 0.000000 0.000000 0.000000
# 2 -0.003261 0.008019 -0.002520 0.000000 0.000000 0.000000
# 3 -0.003733 -0.002520 0.013862 0.000000 0.000000 0.000000
# 4 0.000000 0.000000 0.000000 0.053720 0.000000 0.000000
# 5 0.000000 0.000000 0.000000 0.000000 0.057586 0.000000
# 6 0.000000 0.000000 0.000000 0.000000 0.000000 0.021995
#
#
# Mechanical properties :
#
#
# Convention : Reuss Voigt Hill
#
# Bulk Modulus (GPa) = 53.44385 59.38901 56.41643
# Shear Modulus (GPa) = 25.47035 30.31899 27.89467
#
# Velocity S-wave (km/s) = 3.47109 3.78709 3.63253
# Velocity P-wave (km/s) = 6.43006 6.87140 6.65439
#
# Compressibility (1/GPa) = 0.01871123
#
# Stress axis : x y z
#
# Youngs Moduli (GPa) = 63.05284 124.70664 72.14097
#
# Poissons Ratio (x) = 0.40672 0.26928
# Poissons Ratio (y) = 0.20564 0.18183
# Poissons Ratio (z) = 0.23535 0.31432
#
# Static dielectric constant tensor:
#      x y z
#    x 4.312290 0.000000 0.000000 
#    y 0.000000 4.631570 0.000000 
#    z 0.000000 0.000000 3.641680 
# 
# 
# High freq. dielectric constant tensor:
#      x y z
#    x 1.832710 0.000000 0.000000 
#    y 0.000000 1.852820 0.000000 
#    z 0.000000 0.000000 1.801650 
# 
# From -- ./inp_files/58242.got.cif
#   From: 2010.03.12/outbox.cif.g09.slc.cpg/sg66_30_cif.got.tgz:58242.got - 2010.04.10 21:57:39.
