data_PCOD8277802
_publ_section_title
;
Structure prediction by ZEFSAII (Michael W. Deem and Ramdas Pophale) SiO2 
 PCOD8277802
Probable space group: C C C M
;
_chemical_formula_sum "Si O2"
_cell_formula_units_Z 88
_cell_length_a 11.151817
_cell_length_b 21.654690
_cell_length_c 14.677149
_cell_angle_alpha 90.000000
_cell_angle_beta 90.000000
_cell_angle_gamma 90.000000
_cell_volume 3544.372091
_symmetry_space_group_name_H-M "C C C M"
_symmetry_group_IT_number 66
_symmetry_cell_setting 'orthorhombic'
loop_
_space_group_symop_operation_xyz
x,y,z
-x,-y,z
x,-y,1/2-z
-x,y,1/2-z
-x,-y,-z
x,y,-z
-x,y,1/2+z
x,-y,1/2+z
1/2+x,1/2+y,z
1/2-x,1/2-y,z
1/2+x,1/2-y,1/2-z
1/2-x,1/2+y,1/2-z
1/2-x,1/2-y,-z
1/2+x,1/2+y,-z
1/2-x,1/2+y,1/2+z
1/2+x,1/2-y,1/2+z
loop_
_atom_site_type_symbol
_atom_site_label
_atom_site_fract_x
_atom_site_fract_y
_atom_site_fract_z
Si Si1 0.250000 0.750000 0.816873
Si Si2 0.996312 0.729847 0.103521
Si Si3 0.164566 0.356287 0.774164
Si Si4 0.258552 0.086707 0.397036
Si Si5 0.994025 0.866357 0.643969
Si Si6 0.204798 0.050655 0.100755
O O1 0.138390 0.731141 0.879105
O O2 0.273124 0.691825 0.748697
O O3 0.949054 0.799780 0.117197
O O4 0.942535 0.682948 0.179239
O O5 0.968434 0.708071 0.000000
O O6 0.138704 0.389972 0.674989
O O7 0.206067 0.408824 0.840556
O O8 0.311941 0.087649 0.500000
O O9 0.141948 0.131235 0.393722
O O10 0.209641 0.019832 0.364931
O O11 0.000000 0.878292 0.750000
O O12 0.070946 0.921668 0.599614
O O13 0.258183 0.052181 0.000000
#
# Coordination Sequence:
#
# PCOD8277802 Si02
#       6
#     8  16  16  16  16  16
#     4  12  25  46  73 104 146 198 249 306 369 462
#     4  12  26  45  73 110 151 196 244 310 382 453
#     4  12  24  43  70 106 151 189 247 311 380 445
#     4  11  24  42  69 104 148 203 260 312 374 450
#     4  12  22  40  67 106 152 197 253 313 385 451
#     4  11  23  40  67 105 152 202 252 313 379 447
#
# _framework density 24.828092000000002
#
# number of rings (size 3 to 8) (size 9 to 14) (size 15 to 20)
#    0.000    0.364    3.636    6.273    0.000    2.909 
#    0.000    2.727    0.000   10.909    0.000   15.273 
#    0.000    0.000    0.000    0.000    0.000    0.000 
#
# Total GULP energy -545170.885133 kJ/mol
# GULP energy per Si atom -12390.247389 kJ/mol
# Density = 2.477158 g / cm^3
# Si number density = 24.828092 Si / 1000 Ang^3
#
#
#
# Elastic Constant Matrix: (Units=GPa)
#
#
# Indices 1 2 3 4 5 6 
#
# 1 71.2363 44.2546 41.3438 0.0000 0.0000 0.0000
# 2 44.2546 148.7398 76.0076 0.0000 0.0000 0.0000
# 3 41.3438 76.0076 182.9086 0.0000 0.0000 0.0000
# 4 0.0000 0.0000 0.0000 41.1743 0.0000 0.0000
# 5 0.0000 0.0000 0.0000 0.0000 28.3160 0.0000
# 6 0.0000 0.0000 0.0000 0.0000 0.0000 37.6005
#
#
#
# Elastic Compliance Matrix: (Units=1/GPa)
#
#
# Indices 1 2 3 4 5 6 
#
# 1 0.017975 -0.004154 -0.002337 0.000000 0.000000 0.000000
# 2 -0.004154 0.009496 -0.003007 0.000000 0.000000 0.000000
# 3 -0.002337 -0.003007 0.007245 0.000000 0.000000 0.000000
# 4 0.000000 0.000000 0.000000 0.024287 0.000000 0.000000
# 5 0.000000 0.000000 0.000000 0.000000 0.035316 0.000000
# 6 0.000000 0.000000 0.000000 0.000000 0.000000 0.026595
#
#
# Mechanical properties :
#
#
# Convention : Reuss Voigt Hill
#
# Bulk Modulus (GPa) = 63.61354 80.67741 72.14548
# Shear Modulus (GPa) = 34.44750 37.50340 35.97545
#
# Velocity S-wave (km/s) = 3.72888 3.89076 3.81068
# Velocity P-wave (km/s) = 6.64956 7.26285 6.96296
#
# Compressibility (1/GPa) = 0.01571992
#
# Stress axis : x y z
#
# Youngs Moduli (GPa) = 55.63436 105.31123 138.02708
#
# Poissons Ratio (x) = 0.43745 0.32253
# Poissons Ratio (y) = 0.23110 0.41505
# Poissons Ratio (z) = 0.13000 0.31667
#
# Static dielectric constant tensor:
#      x y z
#    x 4.033110 0.000000 0.000000 
#    y 0.000000 4.988810 0.000000 
#    z 0.000000 0.000000 4.786140 
# 
# 
# High freq. dielectric constant tensor:
#      x y z
#    x 1.948470 0.000000 0.000000 
#    y 0.000000 2.012800 0.000000 
#    z 0.000000 0.000000 2.006580 
# 
# From -- ./inp_files/26538.got.cif
#   From: 2010.03.12/outbox.cif.g09.slc.cpg/sg66_14_cif.got.tgz:26538.got - 2010.04.10 21:57:39.
