data_PCOD8277568
_publ_section_title
;
Structure prediction by ZEFSAII (Michael W. Deem and Ramdas Pophale) SiO2 
 PCOD8277568
Probable space group: C C C M
;
_chemical_formula_sum "Si O2"
_cell_formula_units_Z 80
_cell_length_a 22.726295
_cell_length_b 21.104129
_cell_length_c 10.188024
_cell_angle_alpha 90.000000
_cell_angle_beta 90.000000
_cell_angle_gamma 90.000000
_cell_volume 4886.366433
_symmetry_space_group_name_H-M "C C C M"
_symmetry_group_IT_number 66
_symmetry_cell_setting 'orthorhombic'
loop_
_space_group_symop_operation_xyz
x,y,z
-x,-y,z
x,-y,1/2-z
-x,y,1/2-z
-x,-y,-z
x,y,-z
-x,y,1/2+z
x,-y,1/2+z
1/2+x,1/2+y,z
1/2-x,1/2-y,z
1/2+x,1/2-y,1/2-z
1/2-x,1/2+y,1/2-z
1/2-x,1/2-y,-z
1/2+x,1/2+y,-z
1/2-x,1/2+y,1/2+z
1/2+x,1/2-y,1/2+z
loop_
_atom_site_type_symbol
_atom_site_label
_atom_site_fract_x
_atom_site_fract_y
_atom_site_fract_z
Si Si1 0.745435 0.414692 0.000000
Si Si2 0.107366 0.557818 0.500000
Si Si3 0.334290 0.769215 0.653800
Si Si4 0.273350 0.351193 0.767281
Si Si5 0.932173 0.356818 0.265946
Si Si6 0.115683 0.587982 0.000000
Si Si7 0.752655 0.560767 0.000000
O O1 0.716667 0.381210 0.125220
O O2 0.731038 0.488824 0.000000
O O3 0.814877 0.407058 0.000000
O O4 0.078190 0.587295 0.370506
O O5 0.092773 0.483881 0.500000
O O6 0.177009 0.569941 0.500000
O O7 0.320056 0.773421 0.500000
O O8 0.326731 0.697272 0.703295
O O9 0.288580 0.814602 0.728308
O O10 0.399898 0.792873 0.685200
O O11 0.274434 0.407777 0.871206
O O12 0.000000 0.339897 0.250000
O O13 0.907953 0.377200 0.126677
#
# Coordination Sequence:
#
# PCOD8277568 Si02
#       7
#     8   8  16  16  16   8   8
#     4  11  22  31  51  83 111 128 165 222 264 300
#     4  11  21  37  51  67 105 142 184 213 251 305
#     4  11  20  36  56  71  98 138 181 208 256 320
#     4  11  19  34  55  76 100 136 172 208 260 316
#     4  12  23  36  52  72 100 135 186 226 252 293
#     4  11  23  35  49  73 103 142 176 221 263 287
#     4  11  18  35  55  75 105 142 173 204 250 318
#
# _framework density 16.372084000000001
#
# number of rings (size 3 to 8) (size 9 to 14) (size 15 to 20)
#    0.000    0.800    7.000    2.400    0.000    8.000 
#    0.000    0.000    0.000    0.000    0.000    0.000 
#    0.000    4.800    0.000    0.000    0.000    0.000 
#
# Total GULP energy -496163.227394 kJ/mol
# GULP energy per Si atom -12404.080685 kJ/mol
# Density = 1.633482 g / cm^3
# Si number density = 16.372084 Si / 1000 Ang^3
#
#
#
# Elastic Constant Matrix: (Units=GPa)
#
#
# Indices 1 2 3 4 5 6 
#
# 1 53.5756 41.1751 14.2379 0.0000 0.0000 0.0000
# 2 41.1751 110.3268 51.0105 0.0000 0.0000 0.0000
# 3 14.2379 51.0105 131.0522 0.0000 0.0000 0.0000
# 4 0.0000 0.0000 0.0000 26.6581 0.0000 0.0000
# 5 0.0000 0.0000 0.0000 0.0000 37.1720 0.0000
# 6 0.0000 0.0000 0.0000 0.0000 0.0000 17.6318
#
#
#
# Elastic Compliance Matrix: (Units=1/GPa)
#
#
# Indices 1 2 3 4 5 6 
#
# 1 0.026320 -0.010366 0.001176 0.000000 0.000000 0.000000
# 2 -0.010366 0.015136 -0.004765 0.000000 0.000000 0.000000
# 3 0.001176 -0.004765 0.009358 0.000000 0.000000 0.000000
# 4 0.000000 0.000000 0.000000 0.037512 0.000000 0.000000
# 5 0.000000 0.000000 0.000000 0.000000 0.026902 0.000000
# 6 0.000000 0.000000 0.000000 0.000000 0.000000 0.056716
#
#
# Mechanical properties :
#
#
# Convention : Reuss Voigt Hill
#
# Bulk Modulus (GPa) = 43.66568 56.42240 50.04404
# Shear Modulus (GPa) = 24.09763 28.86111 26.47937
#
# Velocity S-wave (km/s) = 3.84066 4.20316 4.02599
# Velocity P-wave (km/s) = 6.81148 7.62186 7.22804
#
# Compressibility (1/GPa) = 0.02290128
#
# Stress axis : x y z
#
# Youngs Moduli (GPa) = 37.99427 66.06727 106.86409
#
# Poissons Ratio (x) = 0.68487 -0.12562
# Poissons Ratio (y) = 0.39386 0.50924
# Poissons Ratio (z) = -0.04466 0.31483
#
# Static dielectric constant tensor:
#      x y z
#    x 2.905930 0.000000 0.000000 
#    y 0.000000 3.210880 0.000000 
#    z 0.000000 0.000000 3.280480 
# 
# 
# High freq. dielectric constant tensor:
#      x y z
#    x 1.587600 0.000000 0.000000 
#    y 0.000000 1.629340 0.000000 
#    z 0.000000 0.000000 1.651690 
# 
# From -- ./inp_files/7740.got.cif
#   From: 2010.03.12/outbox.cif.g09.slc.cpg/sg66_4_cif.got.tgz:7740.got - 2010.04.10 21:57:39.
