data_PCOD8277999
_publ_section_title
;
Structure prediction by ZEFSAII (Michael W. Deem and Ramdas Pophale) SiO2 
 PCOD8277999
Probable space group: C M M A
;
_chemical_formula_sum "Si O2"
_cell_formula_units_Z 96
_cell_length_a 27.257788
_cell_length_b 8.800850
_cell_length_c 24.142681
_cell_angle_alpha 90.000000
_cell_angle_beta 90.000000
_cell_angle_gamma 90.000000
_cell_volume 5791.628873
_symmetry_space_group_name_H-M "C M M A"
_symmetry_group_IT_number 67
_symmetry_cell_setting 'orthorhombic'
loop_
_space_group_symop_operation_xyz
x,y,z
-x,1/2-y,z
x,-y,-z
-x,1/2+y,-z
-x,-y,-z
x,1/2+y,-z
-x,y,z
x,1/2-y,z
1/2+x,1/2+y,z
1/2-x,-y,z
1/2+x,1/2-y,-z
1/2-x,y,-z
1/2-x,1/2-y,-z
1/2+x,y,-z
1/2-x,1/2+y,z
1/2+x,-y,z
loop_
_atom_site_type_symbol
_atom_site_label
_atom_site_fract_x
_atom_site_fract_y
_atom_site_fract_z
Si Si1 0.304336 0.431288 0.554774
Si Si2 0.945458 0.074226 0.840808
Si Si3 0.602757 0.928570 0.058481
Si Si4 0.349303 0.426026 0.220084
Si Si5 0.300404 0.571455 0.119459
Si Si6 0.696956 0.570910 0.665184
O O1 0.331260 0.500000 0.500000
O O2 0.303941 0.250000 0.552222
O O3 0.250000 0.500000 0.556147
O O4 0.328836 0.491711 0.611631
O O5 0.939965 0.250000 0.856697
O O6 0.905724 0.029421 0.793749
O O7 0.000000 0.037968 0.817860
O O8 0.937248 0.979408 0.896648
O O9 0.600854 0.750000 0.052489
O O10 0.656479 0.984251 0.078509
O O11 0.589319 0.000000 0.000000
O O12 0.339044 0.250000 0.207984
O O13 0.311998 0.519696 0.181934
O O14 0.339084 0.465455 0.283866
O O15 0.294894 0.750000 0.119086
O O16 0.250000 0.500000 0.097723
O O17 0.703101 0.750000 0.654589
O O18 0.750000 0.500000 0.677982
#
# Coordination Sequence:
#
# PCOD8277999 Si02
#       6
#    16  16  16  16  16  16
#     4  10  17  26  39  56  82 117 155 189 220 252
#     4   9  18  34  54  72  90 114 143 178 223 270
#     4  10  21  35  50  69  91 115 145 180 218 262
#     4   9  18  31  47  67  91 117 147 184 221 262
#     4  10  20  32  47  66  89 118 149 181 217 259
#     4  10  18  27  40  61  89 120 153 184 215 252
#
# _framework density 16.575648000000001
#
# number of rings (size 3 to 8) (size 9 to 14) (size 15 to 20)
#    0.000    2.333    0.000    5.000    0.000    5.667 
#    0.000    1.667    0.000    0.000    0.000    0.000 
#    0.000    0.667    0.000    1.167    0.000    2.000 
#
# Total GULP energy -595104.010623 kJ/mol
# GULP energy per Si atom -12398.000221 kJ/mol
# Density = 1.653792 g / cm^3
# Si number density = 16.575648 Si / 1000 Ang^3
#
#
#
# Elastic Constant Matrix: (Units=GPa)
#
#
# Indices 1 2 3 4 5 6 
#
# 1 74.5005 20.7760 32.5814 0.0000 0.0000 0.0000
# 2 20.7760 77.3338 40.0417 0.0000 0.0000 0.0000
# 3 32.5814 40.0417 122.6664 0.0000 0.0000 0.0000
# 4 0.0000 0.0000 0.0000 25.3410 0.0000 0.0000
# 5 0.0000 0.0000 0.0000 0.0000 12.1705 0.0000
# 6 0.0000 0.0000 0.0000 0.0000 0.0000 16.5453
#
#
#
# Elastic Compliance Matrix: (Units=1/GPa)
#
#
# Indices 1 2 3 4 5 6 
#
# 1 0.015565 -0.002456 -0.003332 0.000000 0.000000 0.000000
# 2 -0.002456 0.015949 -0.004554 0.000000 0.000000 0.000000
# 3 -0.003332 -0.004554 0.010524 0.000000 0.000000 0.000000
# 4 0.000000 0.000000 0.000000 0.039462 0.000000 0.000000
# 5 0.000000 0.000000 0.000000 0.000000 0.082166 0.000000
# 6 0.000000 0.000000 0.000000 0.000000 0.000000 0.060440
#
#
# Mechanical properties :
#
#
# Convention : Reuss Voigt Hill
#
# Bulk Modulus (GPa) = 46.83216 51.25544 49.04380
# Shear Modulus (GPa) = 19.84856 22.88479 21.36668
#
# Velocity S-wave (km/s) = 3.46418 3.71971 3.59422
# Velocity P-wave (km/s) = 6.65700 7.03119 6.84665
#
# Compressibility (1/GPa) = 0.02135285
#
# Stress axis : x y z
#
# Youngs Moduli (GPa) = 64.24642 62.70137 95.02279
#
# Poissons Ratio (x) = 0.15400 0.31666
# Poissons Ratio (y) = 0.15780 0.43271
# Poissons Ratio (z) = 0.21410 0.28552
#
# Static dielectric constant tensor:
#      x y z
#    x 2.984140 0.000000 0.000000 
#    y 0.000000 3.196530 0.000000 
#    z 0.000000 0.000000 3.584080 
# 
# 
# High freq. dielectric constant tensor:
#      x y z
#    x 1.599270 0.000000 0.000000 
#    y 0.000000 1.651120 0.000000 
#    z 0.000000 0.000000 1.639070 
# 
# From -- ./inp_files/40939.got.cif
#   From: 2010.03.12/outbox.cif.g09.slc.cpg/sg67_21_cif.got.tgz:40939.got - 2010.04.10 22:41:39.
