data_PCOD8277094
_publ_section_title
;
Structure prediction by ZEFSAII (Michael W. Deem and Ramdas Pophale) SiO2 
 PCOD8277094
Probable space group: C C C M
;
_chemical_formula_sum "Si O2"
_cell_formula_units_Z 68
_cell_length_a 29.469757
_cell_length_b 5.173773
_cell_length_c 23.548148
_cell_angle_alpha 90.000000
_cell_angle_beta 90.000000
_cell_angle_gamma 90.000000
_cell_volume 3590.382195
_symmetry_space_group_name_H-M "C C C M"
_symmetry_group_IT_number 66
_symmetry_cell_setting 'orthorhombic'
loop_
_space_group_symop_operation_xyz
x,y,z
-x,-y,z
x,-y,1/2-z
-x,y,1/2-z
-x,-y,-z
x,y,-z
-x,y,1/2+z
x,-y,1/2+z
1/2+x,1/2+y,z
1/2-x,1/2-y,z
1/2+x,1/2-y,1/2-z
1/2-x,1/2+y,1/2-z
1/2-x,1/2-y,-z
1/2+x,1/2+y,-z
1/2-x,1/2+y,1/2+z
1/2+x,1/2-y,1/2+z
loop_
_atom_site_type_symbol
_atom_site_label
_atom_site_fract_x
_atom_site_fract_y
_atom_site_fract_z
Si Si1 0.370911 0.464925 0.616206
Si Si2 0.541172 0.681958 0.847746
Si Si3 0.000000 0.500000 0.250000
Si Si4 0.404367 0.948280 0.564493
Si Si5 0.221609 0.001099 0.316393
O O1 0.413753 0.504930 0.659096
O O2 0.372280 0.694150 0.569185
O O3 0.325282 0.487549 0.650997
O O4 0.374974 0.190094 0.585725
O O5 0.500000 0.500000 0.867529
O O6 0.550688 0.900548 0.896349
O O7 0.531841 0.819068 0.788035
O O8 0.420123 0.992527 0.500000
O O9 0.250000 0.750000 0.334442
O O10 0.210425 0.000000 0.250000
O O11 0.250000 0.250000 0.334290
#
# Coordination Sequence:
#
# PCOD8277094 Si02
#       5
#    16  16   4  16  16
#     4  10  22  40  64  92 122 169 203 259 319 359
#     4  10  24  39  63  93 126 169 202 258 306 379
#     4  12  22  44  58  94 140 154 216 244 316 378
#     4  10  22  41  64  92 124 166 216 257 307 364
#     4  10  21  38  62  94 127 162 206 258 310 378
#
# _framework density 18.939487
#
# number of rings (size 3 to 8) (size 9 to 14) (size 15 to 20)
#    1.412    0.471    0.000    3.882    0.000    4.235 
#    2.118    1.765    0.000   14.118    0.000    0.000 
#    0.000    0.000    0.000    0.000    0.000    0.000 
#
# Total GULP energy -421379.622178 kJ/mol
# GULP energy per Si atom -12393.518299 kJ/mol
# Density = 1.889638 g / cm^3
# Si number density = 18.939487 Si / 1000 Ang^3
#
#
#
# Elastic Constant Matrix: (Units=GPa)
#
#
# Indices 1 2 3 4 5 6 
#
# 1 137.9280 59.7534 72.4666 0.0000 0.0000 0.0000
# 2 59.7534 156.9192 50.1045 0.0000 0.0000 0.0000
# 3 72.4666 50.1045 112.9684 0.0000 0.0000 0.0000
# 4 0.0000 0.0000 0.0000 81.5138 0.0000 0.0000
# 5 0.0000 0.0000 0.0000 0.0000 -37.6093 0.0000
# 6 0.0000 0.0000 0.0000 0.0000 0.0000 21.2062
#
#
#
# Elastic Compliance Matrix: (Units=1/GPa)
#
#
# Indices 1 2 3 4 5 6 
#
# 1 0.011657 -0.002390 -0.006418 0.000000 0.000000 0.000000
# 2 -0.002390 0.007914 -0.001977 0.000000 0.000000 0.000000
# 3 -0.006418 -0.001977 0.013846 0.000000 0.000000 0.000000
# 4 0.000000 0.000000 0.000000 0.012268 0.000000 0.000000
# 5 0.000000 0.000000 0.000000 0.000000 -0.026589 0.000000
# 6 0.000000 0.000000 0.000000 0.000000 0.000000 0.047156
#
#
# Mechanical properties :
#
#
# Convention : Reuss Voigt Hill
#
# Bulk Modulus (GPa) = 84.40537 85.82938 85.11737
# Shear Modulus (GPa) = 54.48326 28.05488 41.26907
#
# Velocity S-wave (km/s) = 5.36931 3.85293 4.67304
# Velocity P-wave (km/s) = 9.11602 8.07524 8.61137
#
# Compressibility (1/GPa) = 0.01184759
#
# Stress axis : x y z
#
# Youngs Moduli (GPa) = 85.78186 126.35845 72.22312
#
# Poissons Ratio (x) = 0.30197 0.46353
# Poissons Ratio (y) = 0.20500 0.14279
# Poissons Ratio (z) = 0.55056 0.24982
#
# Static dielectric constant tensor:
#      x y z
#    x 3.229390 0.000000 0.000000 
#    y 0.000000 3.684600 0.000000 
#    z 0.000000 0.000000 3.225280 
# 
# 
# High freq. dielectric constant tensor:
#      x y z
#    x 1.723660 0.000000 0.000000 
#    y 0.000000 1.759450 0.000000 
#    z 0.000000 0.000000 1.717020 
# 
# From -- ./inp_files/60028.got.cif
#   From: 2010.03.12/outbox.cif.g09.slc.cpg/sg66_31_cif.got.tgz:60028.got - 2010.04.10 21:57:39.
