data_PCOD8277223
_publ_section_title
;
Structure prediction by ZEFSAII (Michael W. Deem and Ramdas Pophale) SiO2 
 PCOD8277223
Probable space group: C C C M
;
_chemical_formula_sum "Si O2"
_cell_formula_units_Z 64
_cell_length_a 20.991226
_cell_length_b 15.460816
_cell_length_c 9.909148
_cell_angle_alpha 90.000000
_cell_angle_beta 90.000000
_cell_angle_gamma 90.000000
_cell_volume 3215.929585
_symmetry_space_group_name_H-M "C C C M"
_symmetry_group_IT_number 66
_symmetry_cell_setting 'orthorhombic'
loop_
_space_group_symop_operation_xyz
x,y,z
-x,-y,z
x,-y,1/2-z
-x,y,1/2-z
-x,-y,-z
x,y,-z
-x,y,1/2+z
x,-y,1/2+z
1/2+x,1/2+y,z
1/2-x,1/2-y,z
1/2+x,1/2-y,1/2-z
1/2-x,1/2+y,1/2-z
1/2-x,1/2-y,-z
1/2+x,1/2+y,-z
1/2-x,1/2+y,1/2+z
1/2+x,1/2-y,1/2+z
loop_
_atom_site_type_symbol
_atom_site_label
_atom_site_fract_x
_atom_site_fract_y
_atom_site_fract_z
Si Si1 0.557443 0.628240 0.652613
Si Si2 0.629181 0.061092 0.000000
Si Si3 0.571696 0.822901 0.728106
Si Si4 0.662365 0.500000 0.250000
Si Si5 0.248219 0.035157 0.000000
Si Si6 0.370032 0.868925 0.500000
O O1 0.500000 0.600033 0.750000
O O2 0.537504 0.604634 0.500000
O O3 0.571763 0.729626 0.659455
O O4 0.620650 0.578028 0.693165
O O5 0.608597 0.109955 0.865464
O O6 0.597836 0.965030 0.000000
O O7 0.706359 0.050575 0.000000
O O8 0.500000 0.856392 0.750000
O O9 0.607499 0.815386 0.870418
O O10 0.705504 0.538463 0.132287
O O11 0.293209 0.120700 0.000000
#
# Coordination Sequence:
#
# PCOD8277223 Si02
#       6
#    16   8  16   8   8   8
#     4  11  26  44  69 100 130 159 207 270 327 389
#     4  10  21  41  63  88 140 169 216 262 310 370
#     4  11  22  39  64  98 133 166 210 268 323 379
#     4  12  23  46  70  92 125 172 218 256 332 378
#     4  10  24  42  64  92 130 176 216 272 292 376
#     4  10  23  39  63  92 136 171 216 262 310 366
#
# _framework density 19.900932999999998
#
# number of rings (size 3 to 8) (size 9 to 14) (size 15 to 20)
#    0.750    0.500    2.500    3.375    7.000    4.000 
#    0.000    7.500    0.000    0.000    0.000    0.000 
#    0.000    0.000    0.000    0.000    0.000    0.000 
#
# Total GULP energy -396879.112569 kJ/mol
# GULP energy per Si atom -12402.472268 kJ/mol
# Density = 1.985564 g / cm^3
# Si number density = 19.900933 Si / 1000 Ang^3
#
#
#
# Elastic Constant Matrix: (Units=GPa)
#
#
# Indices 1 2 3 4 5 6 
#
# 1 127.4523 26.5983 67.4469 0.0000 0.0000 0.0000
# 2 26.5983 37.6745 14.7925 0.0000 0.0000 0.0000
# 3 67.4469 14.7925 175.9839 0.0000 0.0000 0.0000
# 4 0.0000 0.0000 0.0000 24.0810 0.0000 0.0000
# 5 0.0000 0.0000 0.0000 0.0000 50.1487 0.0000
# 6 0.0000 0.0000 0.0000 0.0000 0.0000 6.5934
#
#
#
# Elastic Compliance Matrix: (Units=1/GPa)
#
#
# Indices 1 2 3 4 5 6 
#
# 1 0.011163 -0.006413 -0.003739 0.000000 0.000000 0.000000
# 2 -0.006413 0.031133 -0.000159 0.000000 0.000000 0.000000
# 3 -0.003739 -0.000159 0.007129 0.000000 0.000000 0.000000
# 4 0.000000 0.000000 0.000000 0.041527 0.000000 0.000000
# 5 0.000000 0.000000 0.000000 0.000000 0.019941 0.000000
# 6 0.000000 0.000000 0.000000 0.000000 0.000000 0.151668
#
#
# Mechanical properties :
#
#
# Convention : Reuss Voigt Hill
#
# Bulk Modulus (GPa) = 34.71936 62.08734 48.40335
# Shear Modulus (GPa) = 17.07743 31.64948 24.36345
#
# Velocity S-wave (km/s) = 2.93255 3.99225 3.50271
# Velocity P-wave (km/s) = 5.38056 7.24684 6.38228
#
# Compressibility (1/GPa) = 0.02880238
#
# Stress axis : x y z
#
# Youngs Moduli (GPa) = 89.57953 32.11997 140.27549
#
# Poissons Ratio (x) = 0.20599 0.52454
# Poissons Ratio (y) = 0.57448 0.02232
# Poissons Ratio (z) = 0.33497 0.00511
#
# Static dielectric constant tensor:
#      x y z
#    x 3.644470 0.000000 0.000000 
#    y 0.000000 3.436330 0.000000 
#    z 0.000000 0.000000 3.720440 
# 
# 
# High freq. dielectric constant tensor:
#      x y z
#    x 1.776540 0.000000 0.000000 
#    y 0.000000 1.765500 0.000000 
#    z 0.000000 0.000000 1.798080 
# 
# From -- ./inp_files/6219.got.cif
#   From: 2010.03.12/outbox.cif.g09.slc.cpg/sg66_4_cif.got.tgz:6219.got - 2010.04.10 21:57:39.
