data_PCOD8277985
_publ_section_title
;
Structure prediction by ZEFSAII (Michael W. Deem and Ramdas Pophale) SiO2 
 PCOD8277985
Probable space group: C M M A
;
_chemical_formula_sum "Si O2"
_cell_formula_units_Z 88
_cell_length_a 18.185378
_cell_length_b 14.178897
_cell_length_c 17.905472
_cell_angle_alpha 90.000000
_cell_angle_beta 90.000000
_cell_angle_gamma 90.000000
_cell_volume 4616.900916
_symmetry_space_group_name_H-M "C M M A"
_symmetry_group_IT_number 67
_symmetry_cell_setting 'orthorhombic'
loop_
_space_group_symop_operation_xyz
x,y,z
-x,1/2-y,z
x,-y,-z
-x,1/2+y,-z
-x,-y,-z
x,1/2+y,-z
-x,y,z
x,1/2-y,z
1/2+x,1/2+y,z
1/2-x,-y,z
1/2+x,1/2-y,-z
1/2-x,y,-z
1/2-x,1/2-y,-z
1/2+x,y,-z
1/2-x,1/2+y,z
1/2+x,-y,z
loop_
_atom_site_type_symbol
_atom_site_label
_atom_site_fract_x
_atom_site_fract_y
_atom_site_fract_z
Si Si1 0.500000 0.537622 0.916641
Si Si2 0.413172 0.750000 0.565757
Si Si3 0.250000 0.000000 0.802767
Si Si4 0.589626 0.750000 0.397352
Si Si5 0.917667 0.887417 0.311535
Si Si6 0.877215 0.591587 0.710255
Si Si7 0.000000 0.147531 0.180877
Si Si8 0.861723 0.142943 0.849760
O O1 0.500000 0.441364 0.871887
O O2 0.429377 0.600955 0.897032
O O3 0.500000 0.500000 0.000000
O O4 0.500000 0.750000 0.556094
O O5 0.381520 0.750000 0.482455
O O6 0.385513 0.658889 0.612825
O O7 0.199755 0.935937 0.748517
O O8 0.293441 0.929219 0.858743
O O9 0.500000 0.750000 0.387796
O O10 0.629061 0.659530 0.360712
O O11 0.874395 0.853473 0.238841
O O12 0.000000 0.850797 0.299498
O O13 0.917280 0.999025 0.320489
O O14 0.926780 0.644898 0.770314
O O15 0.000000 0.250000 0.139117
O O16 0.844775 0.250000 0.877805
#
# Coordination Sequence:
#
# PCOD8277985 Si02
#       8
#     8   8   8   8  16  16   8  16
#     4  12  25  43  68 101 129 152 197 263 319 370
#     4   9  20  28  49  93 123 149 197 272 325 361
#     4  10  24  36  61  99 118 168 222 258 290 366
#     4  11  20  34  55  89 125 155 203 266 323 369
#     4  10  16  31  57  85 114 152 204 259 307 358
#     4  11  19  36  58  84 118 159 211 248 309 362
#     4  12  20  37  66  88 118 162 197 260 308 370
#     4  11  21  39  69  92 127 163 213 255 307 369
#
# _framework density 19.060404999999999
#
# number of rings (size 3 to 8) (size 9 to 14) (size 15 to 20)
#    0.000    1.273    8.182    0.273    1.273    1.455 
#    0.000    3.182    0.000   14.182    0.000    0.000 
#    0.000    0.000    0.000    0.000    0.000    0.000 
#
# Total GULP energy -545278.765492 kJ/mol
# GULP energy per Si atom -12392.699216 kJ/mol
# Density = 1.901702 g / cm^3
# Si number density = 19.060405 Si / 1000 Ang^3
#
#
#
# Elastic Constant Matrix: (Units=GPa)
#
#
# Indices 1 2 3 4 5 6 
#
# 1 95.6357 35.8192 24.0859 0.0000 0.0000 0.0000
# 2 35.8192 158.4245 36.3908 0.0000 0.0000 0.0000
# 3 24.0859 36.3908 91.0926 0.0000 0.0000 0.0000
# 4 0.0000 0.0000 0.0000 19.6973 0.0000 0.0000
# 5 0.0000 0.0000 0.0000 0.0000 9.8577 0.0000
# 6 0.0000 0.0000 0.0000 0.0000 0.0000 22.0021
#
#
#
# Elastic Compliance Matrix: (Units=1/GPa)
#
#
# Indices 1 2 3 4 5 6 
#
# 1 0.011835 -0.002155 -0.002268 0.000000 0.000000 0.000000
# 2 -0.002155 0.007342 -0.002363 0.000000 0.000000 0.000000
# 3 -0.002268 -0.002363 0.012522 0.000000 0.000000 0.000000
# 4 0.000000 0.000000 0.000000 0.050768 0.000000 0.000000
# 5 0.000000 0.000000 0.000000 0.000000 0.101444 0.000000
# 6 0.000000 0.000000 0.000000 0.000000 0.000000 0.045450
#
#
# Mechanical properties :
#
#
# Convention : Reuss Voigt Hill
#
# Bulk Modulus (GPa) = 55.17073 59.74942 57.46007
# Shear Modulus (GPa) = 20.08224 26.90187 23.49205
#
# Velocity S-wave (km/s) = 3.24946 3.76094 3.51451
# Velocity P-wave (km/s) = 6.56404 7.09049 6.83234
#
# Compressibility (1/GPa) = 0.01812555
#
# Stress axis : x y z
#
# Youngs Moduli (GPa) = 84.49748 136.19868 79.86066
#
# Poissons Ratio (x) = 0.29347 0.18116
# Poissons Ratio (y) = 0.18207 0.18875
# Poissons Ratio (z) = 0.19168 0.32190
#
# Static dielectric constant tensor:
#      x y z
#    x 3.407120 0.000000 0.000000 
#    y 0.000000 3.958980 0.000000 
#    z 0.000000 0.000000 3.568400 
# 
# 
# High freq. dielectric constant tensor:
#      x y z
#    x 1.720690 0.000000 0.000000 
#    y 0.000000 1.765000 0.000000 
#    z 0.000000 0.000000 1.710910 
# 
# From -- ./inp_files/34189.got.cif
#   From: 2010.03.12/outbox.cif.g09.slc.cpg/sg67_18_cif.got.tgz:34189.got - 2010.04.10 22:41:39.
