data_PCOD8277664
_publ_section_title
;
Structure prediction by ZEFSAII (Michael W. Deem and Ramdas Pophale) SiO2 
 PCOD8277664
Probable space group: C C C M
;
_chemical_formula_sum "Si O2"
_cell_formula_units_Z 96
_cell_length_a 10.020813
_cell_length_b 28.121243
_cell_length_c 17.039032
_cell_angle_alpha 90.000000
_cell_angle_beta 90.000000
_cell_angle_gamma 90.000000
_cell_volume 4801.560325
_symmetry_space_group_name_H-M "C C C M"
_symmetry_group_IT_number 66
_symmetry_cell_setting 'orthorhombic'
loop_
_space_group_symop_operation_xyz
x,y,z
-x,-y,z
x,-y,1/2-z
-x,y,1/2-z
-x,-y,-z
x,y,-z
-x,y,1/2+z
x,-y,1/2+z
1/2+x,1/2+y,z
1/2-x,1/2-y,z
1/2+x,1/2-y,1/2-z
1/2-x,1/2+y,1/2-z
1/2-x,1/2-y,-z
1/2+x,1/2+y,-z
1/2-x,1/2+y,1/2+z
1/2+x,1/2-y,1/2+z
loop_
_atom_site_type_symbol
_atom_site_label
_atom_site_fract_x
_atom_site_fract_y
_atom_site_fract_z
Si Si1 0.397454 0.255444 0.407718
Si Si2 0.484144 0.646442 0.407017
Si Si3 0.774661 0.395823 0.665428
Si Si4 0.736836 0.402496 0.849706
Si Si5 0.149248 0.498329 0.842915
Si Si6 0.481027 0.152871 0.409847
O O1 0.380193 0.262230 0.500000
O O2 0.250000 0.250000 0.369634
O O3 0.473234 0.301694 0.373787
O O4 0.483929 0.208729 0.388543
O O5 0.483740 0.645314 0.500000
O O6 0.336954 0.634957 0.377199
O O7 0.584902 0.607008 0.373737
O O8 0.754004 0.394345 0.757795
O O9 0.775043 0.449894 0.632458
O O10 0.918768 0.373521 0.648119
O O11 0.768140 0.456713 0.874526
O O12 0.831911 0.366882 0.897487
O O13 0.137424 0.500000 0.750000
O O14 0.000000 0.500000 0.879278
O O15 0.523469 0.144827 0.500000
#
# Coordination Sequence:
#
# PCOD8277664 Si02
#       6
#    16  16  16  16  16  16
#     4   9  18  36  61  84 112 159 203 230 282 369
#     4  11  23  41  61  85 120 156 196 245 295 349
#     4  11  23  39  59  91 123 150 192 251 298 339
#     4  11  21  39  64  87 114 159 201 235 288 357
#     4   9  18  36  61  85 115 158 197 229 285 365
#     4  11  21  37  62  89 116 153 199 241 289 349
#
# _framework density 19.993501999999999
#
# number of rings (size 3 to 8) (size 9 to 14) (size 15 to 20)
#    0.000    1.667    3.333    2.000    0.000    1.333 
#    0.000   15.000    0.000    0.000    0.000    0.000 
#    0.000    0.000    0.000    0.000    0.000    0.000 
#
# Total GULP energy -595317.930865 kJ/mol
# GULP energy per Si atom -12402.456893 kJ/mol
# Density = 1.994800 g / cm^3
# Si number density = 19.993502 Si / 1000 Ang^3
#
#
#
# Elastic Constant Matrix: (Units=GPa)
#
#
# Indices 1 2 3 4 5 6 
#
# 1 61.9259 27.1751 14.0801 0.0000 0.0000 0.0000
# 2 27.1751 145.1819 24.9133 0.0000 0.0000 0.0000
# 3 14.0801 24.9133 51.6435 0.0000 0.0000 0.0000
# 4 0.0000 0.0000 0.0000 21.9734 0.0000 0.0000
# 5 0.0000 0.0000 0.0000 0.0000 47.0714 0.0000
# 6 0.0000 0.0000 0.0000 0.0000 0.0000 36.8794
#
#
#
# Elastic Compliance Matrix: (Units=1/GPa)
#
#
# Indices 1 2 3 4 5 6 
#
# 1 0.018193 -0.002785 -0.003617 0.000000 0.000000 0.000000
# 2 -0.002785 0.007936 -0.003069 0.000000 0.000000 0.000000
# 3 -0.003617 -0.003069 0.021830 0.000000 0.000000 0.000000
# 4 0.000000 0.000000 0.000000 0.045510 0.000000 0.000000
# 5 0.000000 0.000000 0.000000 0.000000 0.021244 0.000000
# 6 0.000000 0.000000 0.000000 0.000000 0.000000 0.027115
#
#
# Mechanical properties :
#
#
# Convention : Reuss Voigt Hill
#
# Bulk Modulus (GPa) = 34.46175 43.45426 38.95801
# Shear Modulus (GPa) = 29.33557 34.02367 31.67962
#
# Velocity S-wave (km/s) = 3.83463 4.12969 3.98489
# Velocity P-wave (km/s) = 6.07287 6.67237 6.37966
#
# Compressibility (1/GPa) = 0.02901768
#
# Stress axis : x y z
#
# Youngs Moduli (GPa) = 54.96714 126.01119 45.80819
#
# Poissons Ratio (x) = 0.35090 0.16568
# Poissons Ratio (y) = 0.15307 0.14059
# Poissons Ratio (z) = 0.19880 0.38674
#
# Static dielectric constant tensor:
#      x y z
#    x 3.666240 0.000000 0.000000 
#    y 0.000000 4.016870 0.000000 
#    z 0.000000 0.000000 3.307650 
# 
# 
# High freq. dielectric constant tensor:
#      x y z
#    x 1.776860 0.000000 0.000000 
#    y 0.000000 1.796520 0.000000 
#    z 0.000000 0.000000 1.754930 
# 
# From -- ./inp_files/47354.got.cif
#   From: 2010.03.12/outbox.cif.g09.slc.cpg/sg66_24_cif.got.tgz:47354.got - 2010.04.10 21:57:39.
