data_PCOD8277146
_publ_section_title
;
Structure prediction by ZEFSAII (Michael W. Deem and Ramdas Pophale) SiO2 
 PCOD8277146
Probable space group: C C C M
;
_chemical_formula_sum "Si O2"
_cell_formula_units_Z 72
_cell_length_a 8.895443
_cell_length_b 22.719988
_cell_length_c 18.042566
_cell_angle_alpha 90.000000
_cell_angle_beta 90.000000
_cell_angle_gamma 90.000000
_cell_volume 3646.481222
_symmetry_space_group_name_H-M "C C C M"
_symmetry_group_IT_number 66
_symmetry_cell_setting 'orthorhombic'
loop_
_space_group_symop_operation_xyz
x,y,z
-x,-y,z
x,-y,1/2-z
-x,y,1/2-z
-x,-y,-z
x,y,-z
-x,y,1/2+z
x,-y,1/2+z
1/2+x,1/2+y,z
1/2-x,1/2-y,z
1/2+x,1/2-y,1/2-z
1/2-x,1/2+y,1/2-z
1/2-x,1/2-y,-z
1/2+x,1/2+y,-z
1/2-x,1/2+y,1/2+z
1/2+x,1/2-y,1/2+z
loop_
_atom_site_type_symbol
_atom_site_label
_atom_site_fract_x
_atom_site_fract_y
_atom_site_fract_z
Si Si1 0.002180 0.731709 0.500000
Si Si2 0.339879 0.986467 0.664193
Si Si3 0.719770 0.340215 0.000000
Si Si4 0.859118 0.906830 0.351574
Si Si5 0.309114 0.373883 0.190621
Si Si6 0.250000 0.750000 0.619827
O O1 0.897296 0.674327 0.500000
O O2 0.890742 0.785701 0.500000
O O3 0.106096 0.732214 0.572158
O O4 0.310741 0.916868 0.650772
O O5 0.500000 0.000000 0.624369
O O6 0.354754 0.000000 0.750000
O O7 0.201088 0.026592 0.635631
O O8 0.685430 0.374488 0.074232
O O9 0.783677 0.876843 0.279207
O O10 0.035857 0.902881 0.336899
O O11 0.292197 0.305884 0.169728
#
# Coordination Sequence:
#
# PCOD8277146 Si02
#       6
#     8  16   8  16  16   8
#     4  10  24  40  60  82 130 167 193 243 315 360
#     4   9  19  37  62  91 122 154 194 257 307 342
#     4  11  22  42  58  88 123 165 199 247 306 370
#     4  10  21  40  62  91 121 161 204 246 306 358
#     4  10  21  39  64  92 121 159 207 250 294 360
#     4  11  22  42  62  91 118 164 204 249 296 366
#
# _framework density 19.745062999999998
#
# number of rings (size 3 to 8) (size 9 to 14) (size 15 to 20)
#    0.000    2.000    2.222    0.667    3.111    4.444 
#    0.000    5.000    0.000    0.000    0.000    0.000 
#    0.000    0.000    0.000    0.000    0.000    0.000 
#
# Total GULP energy -446074.655702 kJ/mol
# GULP energy per Si atom -12390.962658 kJ/mol
# Density = 1.970012 g / cm^3
# Si number density = 19.745063 Si / 1000 Ang^3
#
#
#
# Elastic Constant Matrix: (Units=GPa)
#
#
# Indices 1 2 3 4 5 6 
#
# 1 102.1817 34.0715 31.6694 0.0000 0.0000 0.0000
# 2 34.0715 98.4933 39.4078 0.0000 0.0000 0.0000
# 3 31.6694 39.4078 107.3397 0.0000 0.0000 0.0000
# 4 0.0000 0.0000 0.0000 12.6094 0.0000 0.0000
# 5 0.0000 0.0000 0.0000 0.0000 10.7402 0.0000
# 6 0.0000 0.0000 0.0000 0.0000 0.0000 33.7308
#
#
#
# Elastic Compliance Matrix: (Units=1/GPa)
#
#
# Indices 1 2 3 4 5 6 
#
# 1 0.011515 -0.003076 -0.002268 0.000000 0.000000 0.000000
# 2 -0.003076 0.012723 -0.003763 0.000000 0.000000 0.000000
# 3 -0.002268 -0.003763 0.011367 0.000000 0.000000 0.000000
# 4 0.000000 0.000000 0.000000 0.079306 0.000000 0.000000
# 5 0.000000 0.000000 0.000000 0.000000 0.093108 0.000000
# 6 0.000000 0.000000 0.000000 0.000000 0.000000 0.029647
#
#
# Mechanical properties :
#
#
# Convention : Reuss Voigt Hill
#
# Bulk Modulus (GPa) = 57.50419 57.59022 57.54721
# Shear Modulus (GPa) = 19.10750 24.94046 22.02398
#
# Velocity S-wave (km/s) = 3.11418 3.55790 3.34341
# Velocity P-wave (km/s) = 6.48979 6.79032 6.64175
#
# Compressibility (1/GPa) = 0.01739004
#
# Stress axis : x y z
#
# Youngs Moduli (GPa) = 86.84258 78.59919 87.97335
#
# Poissons Ratio (x) = 0.24176 0.19954
# Poissons Ratio (y) = 0.26712 0.33108
# Poissons Ratio (z) = 0.19697 0.29580
#
# Static dielectric constant tensor:
#      x y z
#    x 4.105600 0.000000 0.000000 
#    y 0.000000 3.637370 0.000000 
#    z 0.000000 0.000000 3.404700 
# 
# 
# High freq. dielectric constant tensor:
#      x y z
#    x 1.782970 0.000000 0.000000 
#    y 0.000000 1.772120 0.000000 
#    z 0.000000 0.000000 1.747920 
# 
# From -- ./inp_files/24537.got.cif
#   From: 2010.03.12/outbox.cif.g09.slc.cpg/sg66_13_cif.got.tgz:24537.got - 2010.04.10 21:57:39.
