data_PCOD8277590
_publ_section_title
;
Structure prediction by ZEFSAII (Michael W. Deem and Ramdas Pophale) SiO2 
 PCOD8277590
Probable space group: C C C M
;
_chemical_formula_sum "Si O2"
_cell_formula_units_Z 80
_cell_length_a 21.961967
_cell_length_b 21.961962
_cell_length_c 12.966009
_cell_angle_alpha 90.000000
_cell_angle_beta 90.000000
_cell_angle_gamma 90.000000
_cell_volume 6253.867694
_symmetry_space_group_name_H-M "C C C M"
_symmetry_group_IT_number 66
_symmetry_cell_setting 'orthorhombic'
loop_
_space_group_symop_operation_xyz
x,y,z
-x,-y,z
x,-y,1/2-z
-x,y,1/2-z
-x,-y,-z
x,y,-z
-x,y,1/2+z
x,-y,1/2+z
1/2+x,1/2+y,z
1/2-x,1/2-y,z
1/2+x,1/2-y,1/2-z
1/2-x,1/2+y,1/2-z
1/2-x,1/2-y,-z
1/2+x,1/2+y,-z
1/2-x,1/2+y,1/2+z
1/2+x,1/2-y,1/2+z
loop_
_atom_site_type_symbol
_atom_site_label
_atom_site_fract_x
_atom_site_fract_y
_atom_site_fract_z
Si Si1 0.291847 0.605249 0.881339
Si Si2 0.796799 0.703201 0.378481
Si Si3 0.500000 0.343192 0.750000
Si Si4 0.843192 0.000000 0.750000
Si Si5 0.050129 0.050129 0.120856
Si Si6 0.105249 0.791847 0.881339
O O1 0.226037 0.635156 0.849147
O O2 0.300314 0.548697 0.805737
O O3 0.346439 0.653561 0.867009
O O4 0.290659 0.582876 0.000000
O O5 0.789884 0.710116 0.500000
O O6 0.750000 0.750000 0.324888
O O7 0.864844 0.726037 0.349147
O O8 0.468593 0.384593 0.836183
O O9 0.548697 0.300314 0.805737
O O10 0.884593 0.031407 0.663817
O O11 0.056030 0.056030 0.000000
O O12 0.000000 0.000000 0.152571
O O13 0.082876 0.790659 0.000000
#
# Coordination Sequence:
#
# PCOD8277590 Si02
#       6
#    16  16   8   8  16  16
#     4   9  16  26  40  56  76  99 130 165 192 223
#     4   7  12  24  40  56  70  91 124 167 205 220
#     4  12  17  26  36  56  76 107 128 154 188 224
#     4  12  17  26  36  56  76 107 128 154 188 224
#     4  11  20  28  34  47  76 109 137 156 177 213
#     4   9  16  26  40  56  76  99 130 165 192 223
#
# _framework density 12.792083999999999
#
# number of rings (size 3 to 8) (size 9 to 14) (size 15 to 20)
#    0.000    2.400    4.000    3.600    0.000    3.200 
#    0.000    0.000    0.000    0.000    0.000    7.000 
#    0.000    0.800    0.000    7.200    0.000    0.000 
#
# Total GULP energy -495540.914719 kJ/mol
# GULP energy per Si atom -12388.522868 kJ/mol
# Density = 1.276297 g / cm^3
# Si number density = 12.792084 Si / 1000 Ang^3
#
#
#
# Elastic Constant Matrix: (Units=GPa)
#
#
# Indices 1 2 3 4 5 6 
#
# 1 72.0960 57.0639 42.4949 0.0000 0.0000 0.0000
# 2 57.0639 72.0960 42.4949 0.0000 0.0000 0.0000
# 3 42.4949 42.4949 69.9657 0.0000 0.0000 0.0000
# 4 0.0000 0.0000 0.0000 13.1359 0.0000 0.0000
# 5 0.0000 0.0000 0.0000 0.0000 13.1359 0.0000
# 6 0.0000 0.0000 0.0000 0.0000 0.0000 29.2687
#
#
#
# Elastic Compliance Matrix: (Units=1/GPa)
#
#
# Indices 1 2 3 4 5 6 
#
# 1 0.039711 -0.026814 -0.007833 0.000000 0.000000 0.000000
# 2 -0.026814 0.039711 -0.007833 0.000000 0.000000 0.000000
# 3 -0.007833 -0.007833 0.023808 0.000000 0.000000 0.000000
# 4 0.000000 0.000000 0.000000 0.076127 0.000000 0.000000
# 5 0.000000 0.000000 0.000000 0.000000 0.076127 0.000000
# 6 0.000000 0.000000 0.000000 0.000000 0.000000 0.034166
#
#
# Mechanical properties :
#
#
# Convention : Reuss Voigt Hill
#
# Bulk Modulus (GPa) = 54.73753 55.36279 55.05016
# Shear Modulus (GPa) = 13.13373 15.91502 14.52438
#
# Velocity S-wave (km/s) = 3.20770 3.53105 3.37325
# Velocity P-wave (km/s) = 7.52344 7.74579 7.63543
#
# Compressibility (1/GPa) = 0.01826900
#
# Stress axis : x y z
#
# Youngs Moduli (GPa) = 25.18222 25.18222 42.00323
#
# Poissons Ratio (x) = 0.67524 0.32901
# Poissons Ratio (y) = 0.67524 0.32901
# Poissons Ratio (z) = 0.19725 0.19725
#
# Static dielectric constant tensor:
#      x y z
#    x 2.597220 0.000000 0.000000 
#    y 0.000000 2.597220 0.000000 
#    z 0.000000 0.000000 2.469200 
# 
# 
# High freq. dielectric constant tensor:
#      x y z
#    x 1.462850 0.000000 0.000000 
#    y 0.000000 1.462850 0.000000 
#    z 0.000000 0.000000 1.475530 
# 
# From -- ./inp_files/30256.got.cif
#   From: 2010.03.12/outbox.cif.g09.slc.cpg/sg66_16_cif.got.tgz:30256.got - 2010.04.10 21:57:39.
