data_PCOD8277936
_publ_section_title
;
Structure prediction by ZEFSAII (Michael W. Deem and Ramdas Pophale) SiO2 
 PCOD8277936
Probable space group: C M M A
;
_chemical_formula_sum "Si O2"
_cell_formula_units_Z 96
_cell_length_a 8.741765
_cell_length_b 19.285899
_cell_length_c 31.621119
_cell_angle_alpha 90.000000
_cell_angle_beta 90.000000
_cell_angle_gamma 90.000000
_cell_volume 5331.092892
_symmetry_space_group_name_H-M "C M M A"
_symmetry_group_IT_number 67
_symmetry_cell_setting 'orthorhombic'
loop_
_space_group_symop_operation_xyz
x,y,z
-x,1/2-y,z
x,-y,-z
-x,1/2+y,-z
-x,-y,-z
x,1/2+y,-z
-x,y,z
x,1/2-y,z
1/2+x,1/2+y,z
1/2-x,-y,z
1/2+x,1/2-y,-z
1/2-x,y,-z
1/2-x,1/2-y,-z
1/2+x,y,-z
1/2-x,1/2+y,z
1/2+x,-y,z
loop_
_atom_site_type_symbol
_atom_site_label
_atom_site_fract_x
_atom_site_fract_y
_atom_site_fract_z
Si Si1 0.672297 0.167444 0.957827
Si Si2 0.176911 0.925382 0.708278
Si Si3 0.822836 0.424542 0.198305
Si Si4 0.819898 0.329156 0.871963
Si Si5 0.317522 0.422832 0.542135
Si Si6 0.318477 0.422823 0.373787
O O1 0.500000 0.139961 0.956121
O O2 0.679908 0.250000 0.959313
O O3 0.758548 0.139925 0.916186
O O4 0.750000 0.136467 0.000000
O O5 0.197660 0.891029 0.754536
O O6 0.264924 0.884787 0.669921
O O7 0.000000 0.931886 0.695529
O O8 0.250000 0.000000 0.713412
O O9 0.750000 0.500000 0.194020
O O10 0.744039 0.371976 0.166832
O O11 0.000000 0.431990 0.186909
O O12 0.764909 0.250000 0.866333
O O13 0.000000 0.334999 0.872606
O O14 0.500000 0.423509 0.540973
O O15 0.250000 0.500000 0.542986
O O16 0.250000 0.385268 0.500000
O O17 0.255256 0.385274 0.584824
O O18 0.500000 0.423506 0.378126
O O19 0.250000 0.500000 0.370885
#
# Coordination Sequence:
#
# PCOD8277936 Si02
#       6
#    16  16  16  16  16  16
#     4   9  16  27  45  69  96 124 155 191 230 271
#     4   9  16  26  39  56  76 101 135 175 217 259
#     4  10  20  33  50  70  94 124 158 196 237 281
#     4  10  20  33  50  73 100 128 159 195 234 276
#     4  10  16  22  29  39  57  82 115 156 202 251
#     4  10  16  22  32  46  64  89 122 162 207 252
#
# _framework density 18.007563999999999
#
# number of rings (size 3 to 8) (size 9 to 14) (size 15 to 20)
#    0.000    2.333    0.000    7.500    0.000    5.000 
#    0.000    0.000    0.000    0.500    0.000    3.500 
#    0.000    0.000    0.000    0.000    0.000    0.833 
#
# Total GULP energy -594769.615950 kJ/mol
# GULP energy per Si atom -12391.033666 kJ/mol
# Density = 1.796658 g / cm^3
# Si number density = 18.007564 Si / 1000 Ang^3
#
#
#
# Elastic Constant Matrix: (Units=GPa)
#
#
# Indices 1 2 3 4 5 6 
#
# 1 144.7366 19.8768 73.6011 0.0000 0.0000 0.0000
# 2 19.8768 21.0190 30.9919 0.0000 0.0000 0.0000
# 3 73.6011 30.9919 185.3643 0.0000 0.0000 0.0000
# 4 0.0000 0.0000 0.0000 -24.1223 0.0000 0.0000
# 5 0.0000 0.0000 0.0000 0.0000 22.0339 0.0000
# 6 0.0000 0.0000 0.0000 0.0000 0.0000 13.6969
#
#
#
# Elastic Compliance Matrix: (Units=1/GPa)
#
#
# Indices 1 2 3 4 5 6 
#
# 1 0.008937 -0.004272 -0.002834 0.000000 0.000000 0.000000
# 2 -0.004272 0.065185 -0.009202 0.000000 0.000000 0.000000
# 3 -0.002834 -0.009202 0.008059 0.000000 0.000000 0.000000
# 4 0.000000 0.000000 0.000000 -0.041455 0.000000 0.000000
# 5 0.000000 0.000000 0.000000 0.000000 0.045385 0.000000
# 6 0.000000 0.000000 0.000000 0.000000 0.000000 0.073009
#
#
# Mechanical properties :
#
#
# Convention : Reuss Voigt Hill
#
# Bulk Modulus (GPa) = 20.17640 66.67325 43.42483
# Shear Modulus (GPa) = 24.00874 17.43169 20.72022
#
# Velocity S-wave (km/s) = 3.65534 3.11468 3.39579
# Velocity P-wave (km/s) = 5.38926 7.07393 6.28827
#
# Compressibility (1/GPa) = 0.04956285
#
# Stress axis : x y z
#
# Youngs Moduli (GPa) = 111.89299 15.34105 124.08955
#
# Poissons Ratio (x) = 0.06554 0.35170
# Poissons Ratio (y) = 0.47805 1.14188
# Poissons Ratio (z) = 0.31713 0.14117
#
# Static dielectric constant tensor:
#      x y z
#    x 3.490450 0.000000 0.000000 
#    y 0.000000 2.533260 0.000000 
#    z 0.000000 0.000000 4.766800 
# 
# 
# High freq. dielectric constant tensor:
#      x y z
#    x 1.720780 0.000000 0.000000 
#    y 0.000000 1.590980 0.000000 
#    z 0.000000 0.000000 1.737000 
# 
# From -- ./inp_files/43663.got.cif
#   From: 2010.03.12/outbox.cif.g09.slc.cpg/sg67_22_cif.got.tgz:43663.got - 2010.04.10 22:41:39.
