data_PCOD8277653
_publ_section_title
;
Structure prediction by ZEFSAII (Michael W. Deem and Ramdas Pophale) SiO2 
 PCOD8277653
Probable space group: C C C M
;
_chemical_formula_sum "Si O2"
_cell_formula_units_Z 112
_cell_length_a 11.429407
_cell_length_b 28.899224
_cell_length_c 17.229981
_cell_angle_alpha 90.000000
_cell_angle_beta 90.000000
_cell_angle_gamma 90.000000
_cell_volume 5691.079835
_symmetry_space_group_name_H-M "C C C M"
_symmetry_group_IT_number 66
_symmetry_cell_setting 'orthorhombic'
loop_
_space_group_symop_operation_xyz
x,y,z
-x,-y,z
x,-y,1/2-z
-x,y,1/2-z
-x,-y,-z
x,y,-z
-x,y,1/2+z
x,-y,1/2+z
1/2+x,1/2+y,z
1/2-x,1/2-y,z
1/2+x,1/2-y,1/2-z
1/2-x,1/2+y,1/2-z
1/2-x,1/2-y,-z
1/2+x,1/2+y,-z
1/2-x,1/2+y,1/2+z
1/2+x,1/2-y,1/2+z
loop_
_atom_site_type_symbol
_atom_site_label
_atom_site_fract_x
_atom_site_fract_y
_atom_site_fract_z
Si Si1 0.013432 0.553453 0.916560
Si Si2 0.400731 0.462754 0.909695
Si Si3 0.920442 0.787501 0.587266
Si Si4 0.787320 0.398817 0.160907
Si Si5 0.184073 0.543385 0.697020
Si Si6 0.974824 0.878480 0.659874
Si Si7 0.648746 0.190319 0.088061
O O1 0.919762 0.567427 0.851510
O O2 0.000000 0.500000 0.930288
O O3 0.146345 0.561782 0.888197
O O4 0.991060 0.578480 0.000000
O O5 0.500000 0.500000 0.886922
O O6 0.288242 0.474713 0.857805
O O7 0.440495 0.410506 0.891003
O O8 0.367035 0.466449 0.000000
O O9 0.968451 0.793118 0.500000
O O10 0.992587 0.823815 0.640656
O O11 0.783575 0.796454 0.589951
O O12 0.933520 0.733689 0.614695
O O13 0.776564 0.413420 0.250368
O O14 0.655344 0.392258 0.131588
O O15 0.866654 0.352622 0.147297
O O16 0.141387 0.500000 0.750000
O O17 0.000000 0.887176 0.750000
O O18 0.614744 0.175745 0.000000
#
# Coordination Sequence:
#
# PCOD8277653 Si02
#       7
#    16  16  16  16  16  16  16
#     4  11  24  39  57  80 107 147 196 244 291 346
#     4  11  25  40  58  83 117 163 208 243 286 355
#     4   8  15  30  54  80 115 149 182 233 289 343
#     4  11  21  35  60  83 116 151 193 241 300 350
#     4  12  23  40  57  80 116 153 194 246 301 350
#     4  11  21  36  56  90 121 155 195 239 295 355
#     4   8  15  30  53  85 114 144 185 236 290 343
#
# _framework density 19.679921
#
# number of rings (size 3 to 8) (size 9 to 14) (size 15 to 20)
#    0.000    1.714    2.857    3.429    0.000    1.714 
#    0.000    1.429    0.000    0.000    0.000    0.000 
#    0.000    5.714    0.000    0.000    0.000    0.000 
#
# Total GULP energy -693934.791951 kJ/mol
# GULP energy per Si atom -12391.692713 kJ/mol
# Density = 1.963513 g / cm^3
# Si number density = 19.679921 Si / 1000 Ang^3
#
#
#
# Elastic Constant Matrix: (Units=GPa)
#
#
# Indices 1 2 3 4 5 6 
#
# 1 61.6873 17.9400 28.9814 0.0000 0.0000 0.0000
# 2 17.9400 90.4539 34.6341 0.0000 0.0000 0.0000
# 3 28.9814 34.6341 103.4072 0.0000 0.0000 0.0000
# 4 0.0000 0.0000 0.0000 39.3847 0.0000 0.0000
# 5 0.0000 0.0000 0.0000 0.0000 72.2743 0.0000
# 6 0.0000 0.0000 0.0000 0.0000 0.0000 25.8681
#
#
#
# Elastic Compliance Matrix: (Units=1/GPa)
#
#
# Indices 1 2 3 4 5 6 
#
# 1 0.018973 -0.001981 -0.004654 0.000000 0.000000 0.000000
# 2 -0.001981 0.012889 -0.003762 0.000000 0.000000 0.000000
# 3 -0.004654 -0.003762 0.012235 0.000000 0.000000 0.000000
# 4 0.000000 0.000000 0.000000 0.025391 0.000000 0.000000
# 5 0.000000 0.000000 0.000000 0.000000 0.013836 0.000000
# 6 0.000000 0.000000 0.000000 0.000000 0.000000 0.038658
#
#
# Mechanical properties :
#
#
# Convention : Reuss Voigt Hill
#
# Bulk Modulus (GPa) = 42.91221 46.51773 44.71497
# Shear Modulus (GPa) = 33.21328 39.10495 36.15911
#
# Velocity S-wave (km/s) = 4.11259 4.46247 4.29109
# Velocity P-wave (km/s) = 6.66360 7.08801 6.87908
#
# Compressibility (1/GPa) = 0.02330339
#
# Stress axis : x y z
#
# Youngs Moduli (GPa) = 52.70515 77.58837 81.73455
#
# Poissons Ratio (x) = 0.15371 0.38040
# Poissons Ratio (y) = 0.10441 0.30745
# Poissons Ratio (z) = 0.24529 0.29185
#
# Static dielectric constant tensor:
#      x y z
#    x 3.391150 0.000000 0.000000 
#    y 0.000000 4.115610 0.000000 
#    z 0.000000 0.000000 3.784720 
# 
# 
# High freq. dielectric constant tensor:
#      x y z
#    x 1.733310 0.000000 0.000000 
#    y 0.000000 1.767270 0.000000 
#    z 0.000000 0.000000 1.766930 
# 
# From -- ./inp_files/27003.got.cif
#   From: 2010.03.12/outbox.cif.g09.slc.cpg/sg66_14_cif.got.tgz:27003.got - 2010.04.10 21:57:39.
