data_PCOD8277175
_publ_section_title
;
Structure prediction by ZEFSAII (Michael W. Deem and Ramdas Pophale) SiO2 
 PCOD8277175
Probable space group: C C C M
;
_chemical_formula_sum "Si O2"
_cell_formula_units_Z 116
_cell_length_a 16.438605
_cell_length_b 11.592773
_cell_length_c 26.419250
_cell_angle_alpha 90.000000
_cell_angle_beta 90.000000
_cell_angle_gamma 90.000000
_cell_volume 5034.690481
_symmetry_space_group_name_H-M "C C C M"
_symmetry_group_IT_number 66
_symmetry_cell_setting 'orthorhombic'
loop_
_space_group_symop_operation_xyz
x,y,z
-x,-y,z
x,-y,1/2-z
-x,y,1/2-z
-x,-y,-z
x,y,-z
-x,y,1/2+z
x,-y,1/2+z
1/2+x,1/2+y,z
1/2-x,1/2-y,z
1/2+x,1/2-y,1/2-z
1/2-x,1/2+y,1/2-z
1/2-x,1/2-y,-z
1/2+x,1/2+y,-z
1/2-x,1/2+y,1/2+z
1/2+x,1/2-y,1/2+z
loop_
_atom_site_type_symbol
_atom_site_label
_atom_site_fract_x
_atom_site_fract_y
_atom_site_fract_z
Si Si1 0.887403 0.188694 0.713889
Si Si2 0.934971 0.598936 0.158078
Si Si3 0.249261 0.565193 0.660980
Si Si4 0.823226 0.171684 0.178235
Si Si5 0.060337 0.096742 0.593696
Si Si6 0.185526 0.923041 0.555529
Si Si7 0.937978 0.723650 0.056229
Si Si8 0.500000 0.500000 0.250000
O O1 0.948729 0.283264 0.689483
O O2 0.806166 0.171821 0.679448
O O3 0.858952 0.224311 0.770004
O O4 0.942558 0.074782 0.713656
O O5 0.844414 0.565820 0.176901
O O6 0.940916 0.622712 0.097986
O O7 0.000000 0.500000 0.173147
O O8 0.288522 0.455265 0.688227
O O9 0.248920 0.559432 0.599777
O O10 0.750000 0.250000 0.157186
O O11 0.895172 0.167705 0.137761
O O12 0.014682 0.191228 0.560304
O O13 0.122420 0.028893 0.557532
O O14 0.000000 0.000000 0.617396
O O15 0.227629 0.925923 0.500000
O O16 0.143153 0.799327 0.563974
O O17 0.939303 0.668062 0.000000
#
# Coordination Sequence:
#
# PCOD8277175 Si02
#       8
#    16  16  16  16  16  16  16   4
#     4  12  26  46  75 105 140 182 241 295 357 428
#     4  12  29  47  69  99 149 194 238 292 355 437
#     4  11  23  46  68 100 140 190 236 296 359 417
#     4  11  24  40  72 101 136 183 232 293 358 432
#     4   9  20  37  67 102 138 177 226 298 360 421
#     4   9  18  35  67 106 131 171 235 301 358 422
#     4  10  21  39  68 100 138 188 237 295 355 422
#     4  12  28  44  78 112 124 168 236 302 340 420
#
# _framework density 23.040146
#
# number of rings (size 3 to 8) (size 9 to 14) (size 15 to 20)
#    0.000    1.379    2.759    1.655    4.828    2.483 
#    0.000    3.103    0.000    2.069    0.000    0.000 
#    0.000    0.000    0.000    0.000    0.000    0.000 
#
# Total GULP energy -719103.618505 kJ/mol
# GULP energy per Si atom -12398.338250 kJ/mol
# Density = 2.298771 g / cm^3
# Si number density = 23.040146 Si / 1000 Ang^3
#
#
#
# Elastic Constant Matrix: (Units=GPa)
#
#
# Indices 1 2 3 4 5 6 
#
# 1 116.4177 42.1620 33.3615 0.0000 0.0000 0.0000
# 2 42.1620 90.0969 37.0965 0.0000 0.0000 0.0000
# 3 33.3615 37.0965 126.3617 0.0000 0.0000 0.0000
# 4 0.0000 0.0000 0.0000 27.0970 0.0000 0.0000
# 5 0.0000 0.0000 0.0000 0.0000 15.6833 0.0000
# 6 0.0000 0.0000 0.0000 0.0000 0.0000 42.8696
#
#
#
# Elastic Compliance Matrix: (Units=1/GPa)
#
#
# Indices 1 2 3 4 5 6 
#
# 1 0.010595 -0.004330 -0.001526 0.000000 0.000000 0.000000
# 2 -0.004330 0.014395 -0.003083 0.000000 0.000000 0.000000
# 3 -0.001526 -0.003083 0.009222 0.000000 0.000000 0.000000
# 4 0.000000 0.000000 0.000000 0.036904 0.000000 0.000000
# 5 0.000000 0.000000 0.000000 0.000000 0.063762 0.000000
# 6 0.000000 0.000000 0.000000 0.000000 0.000000 0.023327
#
#
# Mechanical properties :
#
#
# Convention : Reuss Voigt Hill
#
# Bulk Modulus (GPa) = 61.22149 62.01291 61.61720
# Shear Modulus (GPa) = 27.54413 31.81373 29.67893
#
# Velocity S-wave (km/s) = 3.46133 3.71994 3.59296
# Velocity P-wave (km/s) = 6.52715 6.73975 6.63430
#
# Compressibility (1/GPa) = 0.01633413
#
# Stress axis : x y z
#
# Youngs Moduli (GPa) = 94.38247 69.47041 108.43929
#
# Poissons Ratio (x) = 0.30079 0.16550
# Poissons Ratio (y) = 0.40865 0.33429
# Poissons Ratio (z) = 0.14405 0.21416
#
# Static dielectric constant tensor:
#      x y z
#    x 4.138230 0.000000 0.000000 
#    y 0.000000 4.013000 0.000000 
#    z 0.000000 0.000000 4.061800 
# 
# 
# High freq. dielectric constant tensor:
#      x y z
#    x 1.908020 0.000000 0.000000 
#    y 0.000000 1.890870 0.000000 
#    z 0.000000 0.000000 1.909870 
# 
# From -- ./inp_files/65323.got.cif
#   From: 2010.03.12/outbox.cif.g09.slc.cpg/sg66_33_cif.got.tgz:65323.got - 2010.04.10 21:57:39.
