data_PCOD8277661
_publ_section_title
;
Structure prediction by ZEFSAII (Michael W. Deem and Ramdas Pophale) SiO2 
 PCOD8277661
Probable space group: C C C M
;
_chemical_formula_sum "Si O2"
_cell_formula_units_Z 80
_cell_length_a 10.718549
_cell_length_b 22.523896
_cell_length_c 15.009021
_cell_angle_alpha 90.000000
_cell_angle_beta 90.000000
_cell_angle_gamma 90.000000
_cell_volume 3623.530125
_symmetry_space_group_name_H-M "C C C M"
_symmetry_group_IT_number 66
_symmetry_cell_setting 'orthorhombic'
loop_
_space_group_symop_operation_xyz
x,y,z
-x,-y,z
x,-y,1/2-z
-x,y,1/2-z
-x,-y,-z
x,y,-z
-x,y,1/2+z
x,-y,1/2+z
1/2+x,1/2+y,z
1/2-x,1/2-y,z
1/2+x,1/2-y,1/2-z
1/2-x,1/2+y,1/2-z
1/2-x,1/2-y,-z
1/2+x,1/2+y,-z
1/2-x,1/2+y,1/2+z
1/2+x,1/2-y,1/2+z
loop_
_atom_site_type_symbol
_atom_site_label
_atom_site_fract_x
_atom_site_fract_y
_atom_site_fract_z
Si Si1 0.259554 0.114792 0.099055
Si Si2 0.999808 0.067645 0.394331
Si Si3 0.643347 0.995634 0.347620
Si Si4 0.146057 0.700886 0.744941
Si Si5 0.748142 0.875717 0.600673
O O1 0.311115 0.048362 0.089373
O O2 0.344304 0.151719 0.167441
O O3 0.118550 0.107070 0.135432
O O4 0.263525 0.143972 0.000000
O O5 0.005784 0.062414 0.500000
O O6 0.117460 0.105394 0.359342
O O7 0.000000 0.000000 0.355049
O O8 0.500000 0.000000 0.330304
O O9 0.709833 0.000000 0.250000
O O10 0.665891 0.934620 0.398758
O O11 0.250000 0.750000 0.719908
O O12 0.184126 0.674851 0.840394
O O13 0.000000 0.722702 0.750000
O O14 0.757150 0.850888 0.500000
#
# Coordination Sequence:
#
# PCOD8277661 Si02
#       5
#    16  16  16  16  16
#     4  11  23  42  69  99 138 178 218 275 335 399
#     4   9  18  35  63 105 142 173 217 260 317 404
#     4  11  21  36  61  99 140 176 213 262 332 410
#     4  12  30  51  70  97 129 172 236 290 339 404
#     4  11  23  42  69  99 138 178 218 275 335 399
#
# _framework density 22.077918
#
# number of rings (size 3 to 8) (size 9 to 14) (size 15 to 20)
#    0.000    1.200    4.000    1.800    2.800    4.800 
#    0.000    2.000    0.000    0.000    0.000    0.000 
#    0.000    0.000    0.000    0.000    0.000    0.000 
#
# Total GULP energy -495813.932752 kJ/mol
# GULP energy per Si atom -12395.348319 kJ/mol
# Density = 2.202767 g / cm^3
# Si number density = 22.077918 Si / 1000 Ang^3
#
#
#
# Elastic Constant Matrix: (Units=GPa)
#
#
# Indices 1 2 3 4 5 6 
#
# 1 138.8424 15.8709 20.5727 0.0000 0.0000 0.0000
# 2 15.8709 49.8582 7.6467 0.0000 0.0000 0.0000
# 3 20.5727 7.6467 91.9464 0.0000 0.0000 0.0000
# 4 0.0000 0.0000 0.0000 20.1012 0.0000 0.0000
# 5 0.0000 0.0000 0.0000 0.0000 29.3574 0.0000
# 6 0.0000 0.0000 0.0000 0.0000 0.0000 40.1928
#
#
#
# Elastic Compliance Matrix: (Units=1/GPa)
#
#
# Indices 1 2 3 4 5 6 
#
# 1 0.007683 -0.002210 -0.001535 0.000000 0.000000 0.000000
# 2 -0.002210 0.020952 -0.001248 0.000000 0.000000 0.000000
# 3 -0.001535 -0.001248 0.011323 0.000000 0.000000 0.000000
# 4 0.000000 0.000000 0.000000 0.049748 0.000000 0.000000
# 5 0.000000 0.000000 0.000000 0.000000 0.034063 0.000000
# 6 0.000000 0.000000 0.000000 0.000000 0.000000 0.024880
#
#
# Mechanical properties :
#
#
# Convention : Reuss Voigt Hill
#
# Bulk Modulus (GPa) = 33.36539 40.98083 37.17311
# Shear Modulus (GPa) = 29.65152 33.70073 31.67613
#
# Velocity S-wave (km/s) = 3.66873 3.91121 3.79191
# Velocity P-wave (km/s) = 5.75252 6.24492 6.00377
#
# Compressibility (1/GPa) = 0.02997117
#
# Stress axis : x y z
#
# Youngs Moduli (GPa) = 130.16592 47.72863 88.31445
#
# Poissons Ratio (x) = 0.10548 0.13557
# Poissons Ratio (y) = 0.28767 0.11021
# Poissons Ratio (z) = 0.19982 0.05956
#
# Static dielectric constant tensor:
#      x y z
#    x 4.283790 0.000000 0.000000 
#    y 0.000000 3.662770 0.000000 
#    z 0.000000 0.000000 4.002520 
# 
# 
# High freq. dielectric constant tensor:
#      x y z
#    x 1.882210 0.000000 0.000000 
#    y 0.000000 1.834250 0.000000 
#    z 0.000000 0.000000 1.870800 
# 
# From -- ./inp_files/26343.got.cif
#   From: 2010.03.12/outbox.cif.g09.slc.cpg/sg66_14_cif.got.tgz:26343.got - 2010.04.10 21:57:39.
