data_PCOD8277036
_publ_section_title
;
Structure prediction by ZEFSAII (Michael W. Deem and Ramdas Pophale) SiO2 
 PCOD8277036
Probable space group: C C C M
;
_chemical_formula_sum "Si O2"
_cell_formula_units_Z 52
_cell_length_a 8.854350
_cell_length_b 18.572105
_cell_length_c 15.075996
_cell_angle_alpha 90.000000
_cell_angle_beta 90.000000
_cell_angle_gamma 90.000000
_cell_volume 2479.155849
_symmetry_space_group_name_H-M "C C C M"
_symmetry_group_IT_number 66
_symmetry_cell_setting 'orthorhombic'
loop_
_space_group_symop_operation_xyz
x,y,z
-x,-y,z
x,-y,1/2-z
-x,y,1/2-z
-x,-y,-z
x,y,-z
-x,y,1/2+z
x,-y,1/2+z
1/2+x,1/2+y,z
1/2-x,1/2-y,z
1/2+x,1/2-y,1/2-z
1/2-x,1/2+y,1/2-z
1/2-x,1/2-y,-z
1/2+x,1/2+y,-z
1/2-x,1/2+y,1/2+z
1/2+x,1/2-y,1/2+z
loop_
_atom_site_type_symbol
_atom_site_label
_atom_site_fract_x
_atom_site_fract_y
_atom_site_fract_z
Si Si1 0.500000 0.000000 0.750000
Si Si2 0.150698 0.369484 0.164265
Si Si3 0.687345 0.577838 0.500000
Si Si4 0.678015 0.823931 0.645751
Si Si5 0.333973 0.589337 0.500000
O O1 0.397661 0.048993 0.813521
O O2 0.227104 0.335363 0.251909
O O3 0.003811 0.322641 0.136676
O O4 0.271585 0.369235 0.086037
O O5 0.761188 0.609975 0.588147
O O6 0.511917 0.596424 0.500000
O O7 0.719295 0.493060 0.500000
O O8 0.750000 0.750000 0.609755
#
# Coordination Sequence:
#
# PCOD8277036 Si02
#       5
#     4  16   8  16   8
#     4   8  16  34  60  86 104 146 200 242 288 332
#     4  10  21  37  63  85 114 153 197 243 287 353
#     4  11  24  38  60  86 122 151 188 248 294 345
#     4  10  22  41  60  85 115 155 196 238 288 344
#     4  11  23  38  57  92 118 151 192 237 304 343
#
# _framework density 20.974881
#
# number of rings (size 3 to 8) (size 9 to 14) (size 15 to 20)
#    0.000    2.154    0.000    5.077    0.000    8.000 
#    0.000    5.385    0.000    0.000    0.000    0.000 
#    0.000    0.000    0.000    0.000    0.000    0.000 
#
# Total GULP energy -322432.160441 kJ/mol
# GULP energy per Si atom -12401.236940 kJ/mol
# Density = 2.092714 g / cm^3
# Si number density = 20.974881 Si / 1000 Ang^3
#
#
#
# Elastic Constant Matrix: (Units=GPa)
#
#
# Indices 1 2 3 4 5 6 
#
# 1 79.2541 18.8626 52.0473 0.0000 0.0000 0.0000
# 2 18.8626 64.7468 7.0763 0.0000 0.0000 0.0000
# 3 52.0473 7.0763 130.4790 0.0000 0.0000 0.0000
# 4 0.0000 0.0000 0.0000 13.0931 0.0000 0.0000
# 5 0.0000 0.0000 0.0000 0.0000 3.3254 0.0000
# 6 0.0000 0.0000 0.0000 0.0000 0.0000 31.6532
#
#
#
# Elastic Compliance Matrix: (Units=1/GPa)
#
#
# Indices 1 2 3 4 5 6 
#
# 1 0.018350 -0.004573 -0.007072 0.000000 0.000000 0.000000
# 2 -0.004573 0.016677 0.000920 0.000000 0.000000 0.000000
# 3 -0.007072 0.000920 0.010435 0.000000 0.000000 0.000000
# 4 0.000000 0.000000 0.000000 0.076376 0.000000 0.000000
# 5 0.000000 0.000000 0.000000 0.000000 0.300719 0.000000
# 6 0.000000 0.000000 0.000000 0.000000 0.000000 0.031592
#
#
# Mechanical properties :
#
#
# Convention : Reuss Voigt Hill
#
# Bulk Modulus (GPa) = 41.64652 47.82805 44.73728
# Shear Modulus (GPa) = 10.33905 22.71391 16.52648
#
# Velocity S-wave (km/s) = 2.22260 3.29433 2.81003
# Velocity P-wave (km/s) = 5.14637 6.10919 5.64833
#
# Compressibility (1/GPa) = 0.02401161
#
# Stress axis : x y z
#
# Youngs Moduli (GPa) = 54.49542 59.96457 95.83063
#
# Poissons Ratio (x) = 0.27422 0.67769
# Poissons Ratio (y) = 0.24921 -0.08814
# Poissons Ratio (z) = 0.38538 -0.05515
#
# Static dielectric constant tensor:
#      x y z
#    x 3.593990 0.000000 0.000000 
#    y 0.000000 3.688690 0.000000 
#    z 0.000000 0.000000 3.813380 
# 
# 
# High freq. dielectric constant tensor:
#      x y z
#    x 1.809970 0.000000 0.000000 
#    y 0.000000 1.819910 0.000000 
#    z 0.000000 0.000000 1.832790 
# 
# From -- ./inp_files/23774.got.cif
#   From: 2010.03.12/outbox.cif.g09.slc.cpg/sg66_12_cif.got.tgz:23774.got - 2010.04.10 21:57:39.
