data_PCOD8277236
_publ_section_title
;
Structure prediction by ZEFSAII (Michael W. Deem and Ramdas Pophale) SiO2 
 PCOD8277236
Probable space group: C C C M
;
_chemical_formula_sum "Si O2"
_cell_formula_units_Z 56
_cell_length_a 13.778399
_cell_length_b 10.853483
_cell_length_c 16.246189
_cell_angle_alpha 90.000000
_cell_angle_beta 90.000000
_cell_angle_gamma 90.000000
_cell_volume 2429.513903
_symmetry_space_group_name_H-M "C C C M"
_symmetry_group_IT_number 66
_symmetry_cell_setting 'orthorhombic'
loop_
_space_group_symop_operation_xyz
x,y,z
-x,-y,z
x,-y,1/2-z
-x,y,1/2-z
-x,-y,-z
x,y,-z
-x,y,1/2+z
x,-y,1/2+z
1/2+x,1/2+y,z
1/2-x,1/2-y,z
1/2+x,1/2-y,1/2-z
1/2-x,1/2+y,1/2-z
1/2-x,1/2-y,-z
1/2+x,1/2+y,-z
1/2-x,1/2+y,1/2+z
1/2+x,1/2-y,1/2+z
loop_
_atom_site_type_symbol
_atom_site_label
_atom_site_fract_x
_atom_site_fract_y
_atom_site_fract_z
Si Si1 0.411302 0.162913 0.700300
Si Si2 0.750000 0.750000 0.180936
Si Si3 0.063507 0.888647 0.093893
Si Si4 0.271301 0.997952 0.906091
O O1 0.500000 0.101658 0.750000
O O2 0.343304 0.239160 0.761605
O O3 0.459317 0.260382 0.637820
O O4 0.355339 0.053460 0.653249
O O5 0.761038 0.867389 0.122156
O O6 0.178377 0.910517 0.101191
O O7 0.030359 0.872483 0.000000
O O8 0.000000 0.000000 0.133240
O O9 0.309439 0.001271 0.000000
#
# Coordination Sequence:
#
# PCOD8277236 Si02
#       4
#    16   8  16  16
#     4  12  25  42  70 104 142 186 239 296 363 418
#     4  12  25  42  67 100 142 182 238 300 345 420
#     4  10  21  41  71 104 138 181 237 296 358 429
#     4  11  24  45  69  99 142 190 236 291 361 434
#
# _framework density 23.049879000000001
#
# number of rings (size 3 to 8) (size 9 to 14) (size 15 to 20)
#    0.000    0.857    2.857    3.857    0.000    7.429 
#    0.000    5.714    0.000    0.000    0.000    0.000 
#    0.000    0.000    0.000    0.000    0.000    0.000 
#
# Total GULP energy -347355.824007 kJ/mol
# GULP energy per Si atom -12405.565143 kJ/mol
# Density = 2.299742 g / cm^3
# Si number density = 23.049879 Si / 1000 Ang^3
#
#
#
# Elastic Constant Matrix: (Units=GPa)
#
#
# Indices 1 2 3 4 5 6 
#
# 1 111.6204 24.8112 60.5671 0.0000 0.0000 0.0000
# 2 24.8112 129.7902 53.2433 0.0000 0.0000 0.0000
# 3 60.5671 53.2433 125.9366 0.0000 0.0000 0.0000
# 4 0.0000 0.0000 0.0000 27.1303 0.0000 0.0000
# 5 0.0000 0.0000 0.0000 0.0000 41.8027 0.0000
# 6 0.0000 0.0000 0.0000 0.0000 0.0000 37.9890
#
#
#
# Elastic Compliance Matrix: (Units=1/GPa)
#
#
# Indices 1 2 3 4 5 6 
#
# 1 0.012123 0.000090 -0.005868 0.000000 0.000000 0.000000
# 2 0.000090 0.009322 -0.003984 0.000000 0.000000 0.000000
# 3 -0.005868 -0.003984 0.012447 0.000000 0.000000 0.000000
# 4 0.000000 0.000000 0.000000 0.036859 0.000000 0.000000
# 5 0.000000 0.000000 0.000000 0.000000 0.023922 0.000000
# 6 0.000000 0.000000 0.000000 0.000000 0.000000 0.026323
#
#
# Mechanical properties :
#
#
# Convention : Reuss Voigt Hill
#
# Bulk Modulus (GPa) = 69.60534 71.62112 70.61323
# Shear Modulus (GPa) = 34.40870 36.63278 35.52074
#
# Velocity S-wave (km/s) = 3.86786 3.99091 3.92986
# Velocity P-wave (km/s) = 7.08593 7.23714 7.16193
#
# Compressibility (1/GPa) = 0.01436671
#
# Stress axis : x y z
#
# Youngs Moduli (GPa) = 82.48578 107.27247 80.33825
#
# Poissons Ratio (x) = -0.00964 0.47146
# Poissons Ratio (y) = -0.00741 0.32010
# Poissons Ratio (z) = 0.48407 0.42742
#
# Static dielectric constant tensor:
#      x y z
#    x 4.172820 0.000000 0.000000 
#    y 0.000000 4.035040 0.000000 
#    z 0.000000 0.000000 4.314550 
# 
# 
# High freq. dielectric constant tensor:
#      x y z
#    x 1.910000 0.000000 0.000000 
#    y 0.000000 1.920260 0.000000 
#    z 0.000000 0.000000 1.918880 
# 
# From -- ./inp_files/25374.got.cif
#   From: 2010.03.12/outbox.cif.g09.slc.cpg/sg66_13_cif.got.tgz:25374.got - 2010.04.10 21:57:39.
