data_PCOD8277019
_publ_section_title
;
Structure prediction by ZEFSAII (Michael W. Deem and Ramdas Pophale) SiO2 
 PCOD8277019
Probable space group: C C C M
;
_chemical_formula_sum "Si O2"
_cell_formula_units_Z 64
_cell_length_a 8.831477
_cell_length_b 21.052432
_cell_length_c 15.497387
_cell_angle_alpha 90.000000
_cell_angle_beta 90.000000
_cell_angle_gamma 90.000000
_cell_volume 2881.337250
_symmetry_space_group_name_H-M "C C C M"
_symmetry_group_IT_number 66
_symmetry_cell_setting 'orthorhombic'
loop_
_space_group_symop_operation_xyz
x,y,z
-x,-y,z
x,-y,1/2-z
-x,y,1/2-z
-x,-y,-z
x,y,-z
-x,y,1/2+z
x,-y,1/2+z
1/2+x,1/2+y,z
1/2-x,1/2-y,z
1/2+x,1/2-y,1/2-z
1/2-x,1/2+y,1/2-z
1/2-x,1/2-y,-z
1/2+x,1/2+y,-z
1/2-x,1/2+y,1/2+z
1/2+x,1/2-y,1/2+z
loop_
_atom_site_type_symbol
_atom_site_label
_atom_site_fract_x
_atom_site_fract_y
_atom_site_fract_z
Si Si1 0.098552 0.561137 0.101022
Si Si2 0.935828 0.188983 0.344924
Si Si3 0.107696 0.323077 0.901780
Si Si4 0.431504 0.437299 0.345798
O O1 0.251035 0.557776 0.156375
O O2 0.000000 0.500000 0.124444
O O3 0.009026 0.623896 0.130599
O O4 0.139905 0.563155 0.000000
O O5 0.969903 0.253502 0.397489
O O6 0.755772 0.175177 0.341457
O O7 0.000000 0.199351 0.250000
O O8 0.017233 0.128619 0.391513
O O9 0.157266 0.337125 0.000000
O O10 0.500000 0.500000 0.393212
O O11 0.500000 0.434603 0.250000
#
# Coordination Sequence:
#
# PCOD8277019 Si02
#       4
#    16  16  16  16
#     4  10  22  40  63  89 117 154 199 246 294 348
#     4  10  21  37  60  90 122 156 196 243 297 352
#     4  10  22  41  63  87 120 160 200 244 295 352
#     4  10  22  40  59  87 121 155 195 241 296 352
#
# _framework density 22.211908000000001
#
# number of rings (size 3 to 8) (size 9 to 14) (size 15 to 20)
#    0.000    2.000    0.000    3.000    0.000   11.500 
#    0.000   15.000    0.000    0.000    0.000    0.000 
#    0.000    0.000    0.000    0.000    0.000    0.000 
#
# Total GULP energy -396739.010861 kJ/mol
# GULP energy per Si atom -12398.094089 kJ/mol
# Density = 2.216135 g / cm^3
# Si number density = 22.211908 Si / 1000 Ang^3
#
#
#
# Elastic Constant Matrix: (Units=GPa)
#
#
# Indices 1 2 3 4 5 6 
#
# 1 187.9861 103.6970 52.1418 0.0000 0.0000 0.0000
# 2 103.6970 221.1663 7.4676 0.0000 0.0000 0.0000
# 3 52.1418 7.4676 57.8326 0.0000 0.0000 0.0000
# 4 0.0000 0.0000 0.0000 -9.7269 0.0000 0.0000
# 5 0.0000 0.0000 0.0000 0.0000 29.9599 0.0000
# 6 0.0000 0.0000 0.0000 0.0000 0.0000 47.7340
#
#
#
# Elastic Compliance Matrix: (Units=1/GPa)
#
#
# Indices 1 2 3 4 5 6 
#
# 1 0.010175 -0.004481 -0.008595 0.000000 0.000000 0.000000
# 2 -0.004481 0.006514 0.003199 0.000000 0.000000 0.000000
# 3 -0.008595 0.003199 0.024628 0.000000 0.000000 0.000000
# 4 0.000000 0.000000 0.000000 -0.102808 0.000000 0.000000
# 5 0.000000 0.000000 0.000000 0.000000 0.033378 0.000000
# 6 0.000000 0.000000 0.000000 0.000000 0.000000 0.020949
#
#
# Mechanical properties :
#
#
# Convention : Reuss Voigt Hill
#
# Bulk Modulus (GPa) = 46.37688 88.17751 67.27719
# Shear Modulus (GPa) = 252.79165 33.83866 143.31516
#
# Velocity S-wave (km/s) = 10.67971 3.90737 8.04126
# Velocity P-wave (km/s) = 13.15293 7.75508 10.79677
#
# Compressibility (1/GPa) = 0.02156247
#
# Stress axis : x y z
#
# Youngs Moduli (GPa) = 98.27765 153.50893 40.60434
#
# Poissons Ratio (x) = 0.68781 0.34901
# Poissons Ratio (y) = 0.44034 -0.12987
# Poissons Ratio (z) = 0.84474 -0.49101
#
# Static dielectric constant tensor:
#      x y z
#    x 3.861630 0.000000 0.000000 
#    y 0.000000 5.138110 0.000000 
#    z 0.000000 0.000000 3.554520 
# 
# 
# High freq. dielectric constant tensor:
#      x y z
#    x 1.870020 0.000000 0.000000 
#    y 0.000000 1.909030 0.000000 
#    z 0.000000 0.000000 1.841930 
# 
# From -- ./inp_files/24150.got.cif
#   From: 2010.03.12/outbox.cif.g09.slc.cpg/sg66_13_cif.got.tgz:24150.got - 2010.04.10 21:57:39.
