data_PCOD8277177
_publ_section_title
;
Structure prediction by ZEFSAII (Michael W. Deem and Ramdas Pophale) SiO2 
 PCOD8277177
Probable space group: C C C M
;
_chemical_formula_sum "Si O2"
_cell_formula_units_Z 64
_cell_length_a 8.838538
_cell_length_b 16.798494
_cell_length_c 20.112438
_cell_angle_alpha 90.000000
_cell_angle_beta 90.000000
_cell_angle_gamma 90.000000
_cell_volume 2986.176685
_symmetry_space_group_name_H-M "C C C M"
_symmetry_group_IT_number 66
_symmetry_cell_setting 'orthorhombic'
loop_
_space_group_symop_operation_xyz
x,y,z
-x,-y,z
x,-y,1/2-z
-x,y,1/2-z
-x,-y,-z
x,y,-z
-x,y,1/2+z
x,-y,1/2+z
1/2+x,1/2+y,z
1/2-x,1/2-y,z
1/2+x,1/2-y,1/2-z
1/2-x,1/2+y,1/2-z
1/2-x,1/2-y,-z
1/2+x,1/2+y,-z
1/2-x,1/2+y,1/2+z
1/2+x,1/2-y,1/2+z
loop_
_atom_site_type_symbol
_atom_site_label
_atom_site_fract_x
_atom_site_fract_y
_atom_site_fract_z
Si Si1 0.032823 0.625562 0.500000
Si Si2 0.257046 0.515724 0.000000
Si Si3 0.104451 0.695596 0.634849
Si Si4 0.000000 0.204898 0.750000
Si Si5 0.500000 0.500000 0.108686
Si Si6 0.291006 0.578566 0.292452
O O1 0.188528 0.573834 0.500000
O O2 0.025376 0.681583 0.564412
O O3 0.882433 0.574256 0.500000
O O4 0.361671 0.532576 0.064191
O O5 0.250000 0.750000 0.622996
O O6 0.991011 0.740012 0.684620
O O7 0.145617 0.608724 0.666475
O O8 0.847636 0.151112 0.753900
O O9 0.431825 0.432920 0.156936
O O10 0.250436 0.500000 0.250000
#
# Coordination Sequence:
#
# PCOD8277177 Si02
#       6
#     8   8  16   8   8  16
#     4  11  21  44  59  96 132 173 212 274 324 398
#     4  10  24  36  65  92 129 162 227 271 320 381
#     4  10  23  40  64  92 130 174 209 268 336 395
#     4  10  21  40  57  96 128 162 210 262 319 390
#     4  11  19  40  64  96 117 171 218 276 316 384
#     4  11  20  38  67  93 121 167 222 266 319 391
#
# _framework density 21.432088
#
# number of rings (size 3 to 8) (size 9 to 14) (size 15 to 20)
#    0.000    1.500    5.000    0.375    0.000    2.000 
#    4.500    0.000    0.000    6.000    0.000    0.000 
#    0.000    0.000    0.000    0.000    0.000    0.000 
#
# Total GULP energy -396716.820948 kJ/mol
# GULP energy per Si atom -12397.400655 kJ/mol
# Density = 2.138331 g / cm^3
# Si number density = 21.432088 Si / 1000 Ang^3
#
#
#
# Elastic Constant Matrix: (Units=GPa)
#
#
# Indices 1 2 3 4 5 6 
#
# 1 68.9348 29.9944 46.0446 0.0000 0.0000 0.0000
# 2 29.9944 117.2906 77.4289 0.0000 0.0000 0.0000
# 3 46.0446 77.4289 165.7930 0.0000 0.0000 0.0000
# 4 0.0000 0.0000 0.0000 20.7398 0.0000 0.0000
# 5 0.0000 0.0000 0.0000 0.0000 22.6386 0.0000
# 6 0.0000 0.0000 0.0000 0.0000 0.0000 26.4674
#
#
#
# Elastic Compliance Matrix: (Units=1/GPa)
#
#
# Indices 1 2 3 4 5 6 
#
# 1 0.018097 -0.001894 -0.004141 0.000000 0.000000 0.000000
# 2 -0.001894 0.012524 -0.005323 0.000000 0.000000 0.000000
# 3 -0.004141 -0.005323 0.009668 0.000000 0.000000 0.000000
# 4 0.000000 0.000000 0.000000 0.048216 0.000000 0.000000
# 5 0.000000 0.000000 0.000000 0.000000 0.044172 0.000000
# 6 0.000000 0.000000 0.000000 0.000000 0.000000 0.037782
#
#
# Mechanical properties :
#
#
# Convention : Reuss Voigt Hill
#
# Bulk Modulus (GPa) = 56.90895 73.21714 65.06304
# Shear Modulus (GPa) = 25.12137 27.20588 26.16362
#
# Velocity S-wave (km/s) = 3.42736 3.56673 3.49774
# Velocity P-wave (km/s) = 6.50179 7.15532 6.83637
#
# Compressibility (1/GPa) = 0.01757193
#
# Stress axis : x y z
#
# Youngs Moduli (GPa) = 55.25861 79.84570 103.43646
#
# Poissons Ratio (x) = 0.15122 0.42837
# Poissons Ratio (y) = 0.10465 0.55060
# Poissons Ratio (z) = 0.22885 0.42502
#
# Static dielectric constant tensor:
#      x y z
#    x 3.635280 0.000000 0.000000 
#    y 0.000000 3.883700 0.000000 
#    z 0.000000 0.000000 4.088690 
# 
# 
# High freq. dielectric constant tensor:
#      x y z
#    x 1.818380 0.000000 0.000000 
#    y 0.000000 1.836840 0.000000 
#    z 0.000000 0.000000 1.851680 
# 
# From -- ./inp_files/55070.got.cif
#   From: 2010.03.12/outbox.cif.g09.slc.cpg/sg66_28_cif.got.tgz:55070.got - 2010.04.10 21:57:39.
