data_PCOD8277817
_publ_section_title
;
Structure prediction by ZEFSAII (Michael W. Deem and Ramdas Pophale) SiO2 
 PCOD8277817
Probable space group: C C C M
;
_chemical_formula_sum "Si O2"
_cell_formula_units_Z 44
_cell_length_a 4.672216
_cell_length_b 17.347049
_cell_length_c 21.417502
_cell_angle_alpha 90.000000
_cell_angle_beta 90.000000
_cell_angle_gamma 90.000000
_cell_volume 1735.870544
_symmetry_space_group_name_H-M "C C C M"
_symmetry_group_IT_number 66
_symmetry_cell_setting 'orthorhombic'
loop_
_space_group_symop_operation_xyz
x,y,z
-x,-y,z
x,-y,1/2-z
-x,y,1/2-z
-x,-y,-z
x,y,-z
-x,y,1/2+z
x,-y,1/2+z
1/2+x,1/2+y,z
1/2-x,1/2-y,z
1/2+x,1/2-y,1/2-z
1/2-x,1/2+y,1/2-z
1/2-x,1/2-y,-z
1/2+x,1/2+y,-z
1/2-x,1/2+y,1/2+z
1/2+x,1/2-y,1/2+z
loop_
_atom_site_type_symbol
_atom_site_label
_atom_site_fract_x
_atom_site_fract_y
_atom_site_fract_z
Si Si1 0.623663 0.617049 0.350507
Si Si2 0.382453 0.085524 0.069628
Si Si3 0.000000 0.000000 0.750000
Si Si4 0.750000 0.750000 0.790992
O O1 0.439976 0.579490 0.406173
O O2 0.686400 0.556261 0.294477
O O3 0.442777 0.690643 0.329124
O O4 0.928236 0.638471 0.382335
O O5 0.500000 0.000000 0.069959
O O6 0.388677 0.121391 0.000000
O O7 0.500000 0.794164 0.750000
#
# Coordination Sequence:
#
# PCOD8277817 Si02
#       4
#    16  16   4   8
#     4  12  25  42  68 101 134 177 225 286 340 413
#     4  11  23  43  68  97 131 175 231 288 339 395
#     4  12  24  42  70 102 136 168 240 276 340 410
#     4  12  26  44  65 100 149 182 220 276 362 420
#
# _framework density 25.347514
#
# number of rings (size 3 to 8) (size 9 to 14) (size 15 to 20)
#    0.000    0.364    5.455    3.273    0.000    4.364 
#    0.000    5.455    0.000    0.000    0.000    0.000 
#    0.000    0.000    0.000    0.000    0.000    0.000 
#
# Total GULP energy -272620.150870 kJ/mol
# GULP energy per Si atom -12391.825040 kJ/mol
# Density = 2.528982 g / cm^3
# Si number density = 25.347514 Si / 1000 Ang^3
#
#
#
# Elastic Constant Matrix: (Units=GPa)
#
#
# Indices 1 2 3 4 5 6 
#
# 1 115.5242 4.2144 34.4824 0.0000 0.0000 0.0000
# 2 4.2144 81.7800 27.6144 0.0000 0.0000 0.0000
# 3 34.4824 27.6144 169.4597 0.0000 0.0000 0.0000
# 4 0.0000 0.0000 0.0000 -27.6585 0.0000 0.0000
# 5 0.0000 0.0000 0.0000 0.0000 12.4332 0.0000
# 6 0.0000 0.0000 0.0000 0.0000 0.0000 34.0371
#
#
#
# Elastic Compliance Matrix: (Units=1/GPa)
#
#
# Indices 1 2 3 4 5 6 
#
# 1 0.009218 0.000168 -0.001903 0.000000 0.000000 0.000000
# 2 0.000168 0.012943 -0.002143 0.000000 0.000000 0.000000
# 3 -0.001903 -0.002143 0.006638 0.000000 0.000000 0.000000
# 4 0.000000 0.000000 0.000000 -0.036155 0.000000 0.000000
# 5 0.000000 0.000000 0.000000 0.000000 0.080430 0.000000
# 6 0.000000 0.000000 0.000000 0.000000 0.000000 0.029380
#
#
# Mechanical properties :
#
#
# Convention : Reuss Voigt Hill
#
# Bulk Modulus (GPa) = 47.52566 55.48737 51.50652
# Shear Modulus (GPa) = 42.65322 23.79253 33.22288
#
# Velocity S-wave (km/s) = 4.10657 3.06707 3.62428
# Velocity P-wave (km/s) = 6.42461 5.87203 6.15452
#
# Compressibility (1/GPa) = 0.02104126
#
# Stress axis : x y z
#
# Youngs Moduli (GPa) = 108.48206 77.26188 150.65693
#
# Poissons Ratio (x) = -0.01295 0.28671
# Poissons Ratio (y) = -0.01818 0.32289
# Poissons Ratio (z) = 0.20645 0.16559
#
# Static dielectric constant tensor:
#      x y z
#    x 5.779710 0.000000 0.000000 
#    y 0.000000 4.155070 0.000000 
#    z 0.000000 0.000000 5.301000 
# 
# 
# High freq. dielectric constant tensor:
#      x y z
#    x 2.026840 0.000000 0.000000 
#    y 0.000000 1.983350 0.000000 
#    z 0.000000 0.000000 2.024450 
# 
# From -- ./inp_files/53721.got.cif
#   From: 2010.03.12/outbox.cif.g09.slc.cpg/sg66_27_cif.got.tgz:53721.got - 2010.04.10 21:57:39.
