data_PCOD8277420
_publ_section_title
;
Structure prediction by ZEFSAII (Michael W. Deem and Ramdas Pophale) SiO2 
 PCOD8277420
Probable space group: C C C M
;
_chemical_formula_sum "Si O2"
_cell_formula_units_Z 36
_cell_length_a 21.322704
_cell_length_b 7.428013
_cell_length_c 9.214098
_cell_angle_alpha 90.000000
_cell_angle_beta 90.000000
_cell_angle_gamma 90.000000
_cell_volume 1459.377883
_symmetry_space_group_name_H-M "C C C M"
_symmetry_group_IT_number 66
_symmetry_cell_setting 'orthorhombic'
loop_
_space_group_symop_operation_xyz
x,y,z
-x,-y,z
x,-y,1/2-z
-x,y,1/2-z
-x,-y,-z
x,y,-z
-x,y,1/2+z
x,-y,1/2+z
1/2+x,1/2+y,z
1/2-x,1/2-y,z
1/2+x,1/2-y,1/2-z
1/2-x,1/2+y,1/2-z
1/2-x,1/2-y,-z
1/2+x,1/2+y,-z
1/2-x,1/2+y,1/2+z
1/2+x,1/2-y,1/2+z
loop_
_atom_site_type_symbol
_atom_site_label
_atom_site_fract_x
_atom_site_fract_y
_atom_site_fract_z
Si Si1 0.187031 0.668959 0.839188
Si Si2 0.460212 0.236024 0.000000
Si Si3 0.000000 0.500000 0.250000
Si Si4 0.402318 0.398456 0.500000
O O1 0.160993 0.500000 0.750000
O O2 0.250000 0.750000 0.765017
O O3 0.133008 0.823032 0.855685
O O4 0.205248 0.596548 0.000000
O O5 0.454201 0.116345 0.145613
O O6 0.404505 0.383805 0.000000
O O7 0.527637 0.327520 0.000000
#
# Coordination Sequence:
#
# PCOD8277420 Si02
#       4
#    16   8   4   8
#     4   9  20  41  64 101 140 183 233 285 343 405
#     4  10  22  44  68 100 140 173 233 274 360 409
#     4  10  24  44  68  98 138 174 228 294 322 440
#     4   9  21  40  67  98 138 188 216 290 339 422
#
# _framework density 24.668049
#
# number of rings (size 3 to 8) (size 9 to 14) (size 15 to 20)
#    1.333    1.333    0.000    0.000    3.111    4.444 
#    8.000    0.000    9.778    0.000    0.000    0.000 
#    0.000    0.000    0.000    0.000    0.000    0.000 
#
# Total GULP energy -223058.771417 kJ/mol
# GULP energy per Si atom -12392.153968 kJ/mol
# Density = 2.461190 g / cm^3
# Si number density = 24.668049 Si / 1000 Ang^3
#
#
#
# Elastic Constant Matrix: (Units=GPa)
#
#
# Indices 1 2 3 4 5 6 
#
# 1 111.8732 72.6921 22.2248 0.0000 0.0000 0.0000
# 2 72.6921 223.3929 89.1129 0.0000 0.0000 0.0000
# 3 22.2248 89.1129 117.3140 0.0000 0.0000 0.0000
# 4 0.0000 0.0000 0.0000 48.2389 0.0000 0.0000
# 5 0.0000 0.0000 0.0000 0.0000 -4.1142 0.0000
# 6 0.0000 0.0000 0.0000 0.0000 0.0000 54.9122
#
#
#
# Elastic Compliance Matrix: (Units=1/GPa)
#
#
# Indices 1 2 3 4 5 6 
#
# 1 0.011408 -0.004089 0.000945 0.000000 0.000000 0.000000
# 2 -0.004089 0.007888 -0.005217 0.000000 0.000000 0.000000
# 3 0.000945 -0.005217 0.012308 0.000000 0.000000 0.000000
# 4 0.000000 0.000000 0.000000 0.020730 0.000000 0.000000
# 5 0.000000 0.000000 0.000000 0.000000 -0.243063 0.000000
# 6 0.000000 0.000000 0.000000 0.000000 0.000000 0.018211
#
#
# Mechanical properties :
#
#
# Convention : Reuss Voigt Hill
#
# Bulk Modulus (GPa) = 67.19780 91.18219 79.19000
# Shear Modulus (GPa) = -33.14901 37.71074 2.28086
#
# Velocity S-wave (km/s) = -3.66977 3.91414 0.96262
# Velocity P-wave (km/s) = 3.05674 7.58098 5.77992
#
# Compressibility (1/GPa) = 0.01488144
#
# Stress axis : x y z
#
# Youngs Moduli (GPa) = 87.65822 126.77132 81.24633
#
# Poissons Ratio (x) = 0.51838 -0.07677
# Poissons Ratio (y) = 0.35844 0.42389
# Poissons Ratio (z) = -0.08283 0.66141
#
# Static dielectric constant tensor:
#      x y z
#    x 4.089370 0.000000 0.000000 
#    y 0.000000 4.685450 0.000000 
#    z 0.000000 0.000000 4.183550 
# 
# 
# High freq. dielectric constant tensor:
#      x y z
#    x 1.975090 0.000000 0.000000 
#    y 0.000000 1.974860 0.000000 
#    z 0.000000 0.000000 1.958190 
# 
# From -- ./inp_files/18260.got.cif
#   From: 2010.03.12/outbox.cif.g09.slc.cpg/sg66_10_cif.got.tgz:18260.got - 2010.04.10 21:57:39.
