data_PCOD8277756
_publ_section_title
;
Structure prediction by ZEFSAII (Michael W. Deem and Ramdas Pophale) SiO2 
 PCOD8277756
Probable space group: C C C M
;
_chemical_formula_sum "Si O2"
_cell_formula_units_Z 64
_cell_length_a 8.738524
_cell_length_b 15.568218
_cell_length_c 22.462407
_cell_angle_alpha 90.000000
_cell_angle_beta 90.000000
_cell_angle_gamma 90.000000
_cell_volume 3055.858775
_symmetry_space_group_name_H-M "C C C M"
_symmetry_group_IT_number 66
_symmetry_cell_setting 'orthorhombic'
loop_
_space_group_symop_operation_xyz
x,y,z
-x,-y,z
x,-y,1/2-z
-x,y,1/2-z
-x,-y,-z
x,y,-z
-x,y,1/2+z
x,-y,1/2+z
1/2+x,1/2+y,z
1/2-x,1/2-y,z
1/2+x,1/2-y,1/2-z
1/2-x,1/2+y,1/2-z
1/2-x,1/2-y,-z
1/2+x,1/2+y,-z
1/2-x,1/2+y,1/2+z
1/2+x,1/2-y,1/2+z
loop_
_atom_site_type_symbol
_atom_site_label
_atom_site_fract_x
_atom_site_fract_y
_atom_site_fract_z
Si Si1 0.363305 0.672046 0.125179
Si Si2 0.253457 0.000000 0.250000
Si Si3 0.500000 0.632500 0.750000
Si Si4 0.676730 0.661835 0.931278
Si Si5 0.169585 0.496445 0.376970
O O1 0.250000 0.750000 0.114496
O O2 0.439383 0.683259 0.191414
O O3 0.496069 0.672759 0.076564
O O4 0.271989 0.585809 0.107730
O O5 0.144323 0.077465 0.229040
O O6 0.359757 0.015627 0.306430
O O7 0.750000 0.750000 0.907482
O O8 0.740086 0.582035 0.893865
O O9 0.716785 0.645676 0.000000
O O10 0.000000 0.500000 0.406863
#
# Coordination Sequence:
#
# PCOD8277756 Si02
#       5
#    16   8   8  16  16
#     4  11  23  41  64  96 131 170 219 269 326 391
#     4   9  17  36  62  90 126 168 206 264 320 388
#     4   9  18  36  60  90 129 164 208 261 326 382
#     4  11  25  45  68  94 129 174 223 275 324 383
#     4  11  22  40  64  96 132 169 216 268 329 389
#
# _framework density 20.943377000000002
#
# number of rings (size 3 to 8) (size 9 to 14) (size 15 to 20)
#    0.000    1.500    2.500    2.625    0.000    4.000 
#    9.000    0.000    0.000    0.000    0.000    0.000 
#    0.000    0.000    0.000    0.000    0.000    0.000 
#
# Total GULP energy -396480.550832 kJ/mol
# GULP energy per Si atom -12390.017214 kJ/mol
# Density = 2.089571 g / cm^3
# Si number density = 20.943377 Si / 1000 Ang^3
#
#
#
# Elastic Constant Matrix: (Units=GPa)
#
#
# Indices 1 2 3 4 5 6 
#
# 1 148.6285 70.0091 21.8133 0.0000 0.0000 0.0000
# 2 70.0091 165.4548 35.6287 0.0000 0.0000 0.0000
# 3 21.8133 35.6287 48.9099 0.0000 0.0000 0.0000
# 4 0.0000 0.0000 0.0000 -17.6919 0.0000 0.0000
# 5 0.0000 0.0000 0.0000 0.0000 -5.9458 0.0000
# 6 0.0000 0.0000 0.0000 0.0000 0.0000 65.2555
#
#
#
# Elastic Compliance Matrix: (Units=1/GPa)
#
#
# Indices 1 2 3 4 5 6 
#
# 1 0.008481 -0.003290 -0.001386 0.000000 0.000000 0.000000
# 2 -0.003290 0.008445 -0.004684 0.000000 0.000000 0.000000
# 3 -0.001386 -0.004684 0.024476 0.000000 0.000000 0.000000
# 4 0.000000 0.000000 0.000000 -0.056523 0.000000 0.000000
# 5 0.000000 0.000000 0.000000 0.000000 -0.168185 0.000000
# 6 0.000000 0.000000 0.000000 0.000000 0.000000 0.015324
#
#
# Mechanical properties :
#
#
# Convention : Reuss Voigt Hill
#
# Bulk Modulus (GPa) = 44.08850 68.65503 56.37177
# Shear Modulus (GPa) = -35.28580 24.02636 -5.62972
#
# Velocity S-wave (km/s) = -4.10911 3.39072 -1.64131
# Velocity P-wave (km/s) = 1.18997 6.94130 4.83558
#
# Compressibility (1/GPa) = 0.02268165
#
# Stress axis : x y z
#
# Youngs Moduli (GPa) = 117.90459 118.41465 40.85625
#
# Poissons Ratio (x) = 0.38963 0.05662
# Poissons Ratio (y) = 0.38795 0.19138
# Poissons Ratio (z) = 0.16339 0.55469
#
# Static dielectric constant tensor:
#      x y z
#    x 3.893040 0.000000 0.000000 
#    y 0.000000 3.837910 0.000000 
#    z 0.000000 0.000000 5.870710 
# 
# 
# High freq. dielectric constant tensor:
#      x y z
#    x 1.837150 0.000000 0.000000 
#    y 0.000000 1.812410 0.000000 
#    z 0.000000 0.000000 1.810230 
# 
# From -- ./inp_files/55036.got.cif
#   From: 2010.03.12/outbox.cif.g09.slc.cpg/sg66_28_cif.got.tgz:55036.got - 2010.04.10 21:57:39.
