data_PCOD8277319
_publ_section_title
;
Structure prediction by ZEFSAII (Michael W. Deem and Ramdas Pophale) SiO2 
 PCOD8277319
Probable space group: C C C M
;
_chemical_formula_sum "Si O2"
_cell_formula_units_Z 64
_cell_length_a 9.757486
_cell_length_b 13.807476
_cell_length_c 24.952761
_cell_angle_alpha 90.000000
_cell_angle_beta 90.000000
_cell_angle_gamma 90.000000
_cell_volume 3361.792011
_symmetry_space_group_name_H-M "C C C M"
_symmetry_group_IT_number 66
_symmetry_cell_setting 'orthorhombic'
loop_
_space_group_symop_operation_xyz
x,y,z
-x,-y,z
x,-y,1/2-z
-x,y,1/2-z
-x,-y,-z
x,y,-z
-x,y,1/2+z
x,-y,1/2+z
1/2+x,1/2+y,z
1/2-x,1/2-y,z
1/2+x,1/2-y,1/2-z
1/2-x,1/2+y,1/2-z
1/2-x,1/2-y,-z
1/2+x,1/2+y,-z
1/2-x,1/2+y,1/2+z
1/2+x,1/2-y,1/2+z
loop_
_atom_site_type_symbol
_atom_site_label
_atom_site_fract_x
_atom_site_fract_y
_atom_site_fract_z
Si Si1 0.402770 0.907598 0.500000
Si Si2 0.750000 0.250000 0.850065
Si Si3 0.157949 0.886494 0.242526
Si Si4 0.581562 0.598464 0.000000
Si Si5 0.978666 0.255755 0.412922
Si Si6 0.250000 0.250000 0.172809
O O1 0.241405 0.930439 0.500000
O O2 0.434622 0.847676 0.447072
O O3 0.500000 0.000000 0.500000
O O4 0.787060 0.155415 0.814227
O O5 0.629820 0.226100 0.891403
O O6 0.251768 0.843842 0.289451
O O7 0.000000 0.854934 0.250000
O O8 0.175937 0.000000 0.250000
O O9 0.500000 0.500000 0.000000
O O10 0.538819 0.658081 0.052707
O O11 0.885701 0.248732 0.361333
#
# Coordination Sequence:
#
# PCOD8277319 Si02
#       6
#     8   8  16   8  16   8
#     4  11  25  42  63  95 127 160 206 262 310 362
#     4  11  24  39  64  98 120 167 212 253 306 366
#     4  10  22  39  62  92 124 159 208 258 306 366
#     4  11  25  42  65  93 123 166 208 254 310 372
#     4  11  23  43  64  86 130 166 206 249 313 369
#     4  11  20  41  64  84 122 169 196 253 306 372
#
# _framework density 19.037465000000001
#
# number of rings (size 3 to 8) (size 9 to 14) (size 15 to 20)
#    0.000    1.250    5.000    0.750    3.500    5.000 
#    0.000    1.250    0.000    0.000    0.000    0.000 
#    0.000    0.000    0.000    0.000    0.000    0.000 
#
# Total GULP energy -396797.135027 kJ/mol
# GULP energy per Si atom -12399.910470 kJ/mol
# Density = 1.899414 g / cm^3
# Si number density = 19.037465 Si / 1000 Ang^3
#
#
#
# Elastic Constant Matrix: (Units=GPa)
#
#
# Indices 1 2 3 4 5 6 
#
# 1 154.1605 54.3113 59.7140 0.0000 0.0000 0.0000
# 2 54.3113 133.6247 46.8484 0.0000 0.0000 0.0000
# 3 59.7140 46.8484 113.4099 0.0000 0.0000 0.0000
# 4 0.0000 0.0000 0.0000 8.4606 0.0000 0.0000
# 5 0.0000 0.0000 0.0000 0.0000 44.5425 0.0000
# 6 0.0000 0.0000 0.0000 0.0000 0.0000 32.9662
#
#
#
# Elastic Compliance Matrix: (Units=1/GPa)
#
#
# Indices 1 2 3 4 5 6 
#
# 1 0.008693 -0.002255 -0.003646 0.000000 0.000000 0.000000
# 2 -0.002255 0.009336 -0.002669 0.000000 0.000000 0.000000
# 3 -0.003646 -0.002669 0.011840 0.000000 0.000000 0.000000
# 4 0.000000 0.000000 0.000000 0.118194 0.000000 0.000000
# 5 0.000000 0.000000 0.000000 0.000000 0.022450 0.000000
# 6 0.000000 0.000000 0.000000 0.000000 0.000000 0.030334
#
#
# Mechanical properties :
#
#
# Convention : Reuss Voigt Hill
#
# Bulk Modulus (GPa) = 78.56096 80.32693 79.44395
# Shear Modulus (GPa) = 22.49904 33.21532 27.85718
#
# Velocity S-wave (km/s) = 3.44150 4.18153 3.82944
# Velocity P-wave (km/s) = 7.55963 8.09934 7.83414
#
# Compressibility (1/GPa) = 0.01272897
#
# Stress axis : x y z
#
# Youngs Moduli (GPa) = 115.02905 107.11135 84.46087
#
# Poissons Ratio (x) = 0.24156 0.30793
# Poissons Ratio (y) = 0.25942 0.22544
# Poissons Ratio (z) = 0.41937 0.28590
#
# Static dielectric constant tensor:
#      x y z
#    x 3.402590 0.000000 0.000000 
#    y 0.000000 3.261810 0.000000 
#    z 0.000000 0.000000 4.708240 
# 
# 
# High freq. dielectric constant tensor:
#      x y z
#    x 1.754080 0.000000 0.000000 
#    y 0.000000 1.734960 0.000000 
#    z 0.000000 0.000000 1.758870 
# 
# From -- ./inp_files/55086.got.cif
#   From: 2010.03.12/outbox.cif.g09.slc.cpg/sg66_28_cif.got.tgz:55086.got - 2010.04.10 21:57:39.
