data_PCOD8277964
_publ_section_title
;
Structure prediction by ZEFSAII (Michael W. Deem and Ramdas Pophale) SiO2 
 PCOD8277964
Probable space group: C M M A
;
_chemical_formula_sum "Si O2"
_cell_formula_units_Z 56
_cell_length_a 36.443209
_cell_length_b 8.490987
_cell_length_c 9.774935
_cell_angle_alpha 90.000000
_cell_angle_beta 90.000000
_cell_angle_gamma 90.000000
_cell_volume 3024.744292
_symmetry_space_group_name_H-M "C M M A"
_symmetry_group_IT_number 67
_symmetry_cell_setting 'orthorhombic'
loop_
_space_group_symop_operation_xyz
x,y,z
-x,1/2-y,z
x,-y,-z
-x,1/2+y,-z
-x,-y,-z
x,1/2+y,-z
-x,y,z
x,1/2-y,z
1/2+x,1/2+y,z
1/2-x,-y,z
1/2+x,1/2-y,-z
1/2-x,y,-z
1/2-x,1/2-y,-z
1/2+x,y,-z
1/2-x,1/2+y,z
1/2+x,-y,z
loop_
_atom_site_type_symbol
_atom_site_label
_atom_site_fract_x
_atom_site_fract_y
_atom_site_fract_z
Si Si1 0.500000 0.563607 0.846224
Si Si2 0.574180 0.436644 0.846700
Si Si3 0.710020 0.936229 0.353649
Si Si4 0.850503 0.436477 0.846976
O O1 0.500000 0.750000 0.844895
O O2 0.536977 0.498591 0.771771
O O3 0.500000 0.500000 0.000000
O O4 0.575471 0.250000 0.843805
O O5 0.611078 0.506209 0.777988
O O6 0.573331 0.500000 0.000000
O O7 0.711283 0.750000 0.359079
O O8 0.696688 0.000000 0.500000
O O9 0.750000 0.000000 0.315596
O O10 0.682606 0.993525 0.238279
O O11 0.848753 0.250000 0.847139
O O12 0.846937 0.500000 0.000000
#
# Coordination Sequence:
#
# PCOD8277964 Si02
#       4
#     8  16  16  16
#     4  10  16  24  38  60  91 130 169 208 251 302
#     4  10  17  27  42  65  96 132 169 210 255 305
#     4  11  22  39  59  81 105 136 173 214 258 309
#     4  11  21  35  53  78 108 140 174 216 263 312
#
# _framework density 18.513963
#
# number of rings (size 3 to 8) (size 9 to 14) (size 15 to 20)
#    0.000    1.429    0.000   13.286    0.000    0.571 
#    0.000    2.857    0.000    0.000    0.000    1.000 
#    0.000    0.000    0.000    0.000    0.000    0.000 
#
# Total GULP energy -347111.145479 kJ/mol
# GULP energy per Si atom -12396.826624 kJ/mol
# Density = 1.847182 g / cm^3
# Si number density = 18.513963 Si / 1000 Ang^3
#
#
#
# Elastic Constant Matrix: (Units=GPa)
#
#
# Indices 1 2 3 4 5 6 
#
# 1 162.2315 71.5458 60.8440 0.0000 0.0000 0.0000
# 2 71.5458 209.3454 31.7417 0.0000 0.0000 0.0000
# 3 60.8440 31.7417 48.7507 0.0000 0.0000 0.0000
# 4 0.0000 0.0000 0.0000 22.0315 0.0000 0.0000
# 5 0.0000 0.0000 0.0000 0.0000 -3.6629 0.0000
# 6 0.0000 0.0000 0.0000 0.0000 0.0000 43.0285
#
#
#
# Elastic Compliance Matrix: (Units=1/GPa)
#
#
# Indices 1 2 3 4 5 6 
#
# 1 0.012362 -0.002092 -0.014067 0.000000 0.000000 0.000000
# 2 -0.002092 0.005654 -0.001070 0.000000 0.000000 0.000000
# 3 -0.014067 -0.001070 0.038766 0.000000 0.000000 0.000000
# 4 0.000000 0.000000 0.000000 0.045390 0.000000 0.000000
# 5 0.000000 0.000000 0.000000 0.000000 -0.273010 0.000000
# 6 0.000000 0.000000 0.000000 0.000000 0.000000 0.023240
#
#
# Mechanical properties :
#
#
# Convention : Reuss Voigt Hill
#
# Bulk Modulus (GPa) = 44.79548 83.17674 63.98611
# Shear Modulus (GPa) = -47.30458 29.35915 -8.97271
#
# Velocity S-wave (km/s) = -5.06026 3.98651 -2.20386
# Velocity P-wave (km/s) = 3.14541 8.13718 5.30661
#
# Compressibility (1/GPa) = 0.02232368
#
# Stress axis : x y z
#
# Youngs Moduli (GPa) = 80.89059 176.86363 25.79592
#
# Poissons Ratio (x) = 0.37002 0.36287
# Poissons Ratio (y) = 0.16923 0.02761
# Poissons Ratio (z) = 1.13788 0.18930
#
# Static dielectric constant tensor:
#      x y z
#    x 4.694460 0.000000 0.000000 
#    y 0.000000 3.611980 0.000000 
#    z 0.000000 0.000000 2.883350 
# 
# 
# High freq. dielectric constant tensor:
#      x y z
#    x 1.751570 0.000000 0.000000 
#    y 0.000000 1.749320 0.000000 
#    z 0.000000 0.000000 1.648690 
# 
# From -- ./inp_files/15700.got.cif
#   From: 2010.03.12/outbox.cif.g09.slc.cpg/sg67_8_cif.got.tgz:15700.got - 2010.04.10 22:41:39.
