data_PCOD8277498
_publ_section_title
;
Structure prediction by ZEFSAII (Michael W. Deem and Ramdas Pophale) SiO2 
 PCOD8277498
Probable space group: C C C M
;
_chemical_formula_sum "Si O2"
_cell_formula_units_Z 88
_cell_length_a 15.601307
_cell_length_b 27.188027
_cell_length_c 10.340209
_cell_angle_alpha 90.000000
_cell_angle_beta 90.000000
_cell_angle_gamma 90.000000
_cell_volume 4385.993588
_symmetry_space_group_name_H-M "C C C M"
_symmetry_group_IT_number 66
_symmetry_cell_setting 'orthorhombic'
loop_
_space_group_symop_operation_xyz
x,y,z
-x,-y,z
x,-y,1/2-z
-x,y,1/2-z
-x,-y,-z
x,y,-z
-x,y,1/2+z
x,-y,1/2+z
1/2+x,1/2+y,z
1/2-x,1/2-y,z
1/2+x,1/2-y,1/2-z
1/2-x,1/2+y,1/2-z
1/2-x,1/2-y,-z
1/2+x,1/2+y,-z
1/2-x,1/2+y,1/2+z
1/2+x,1/2-y,1/2+z
loop_
_atom_site_type_symbol
_atom_site_label
_atom_site_fract_x
_atom_site_fract_y
_atom_site_fract_z
Si Si1 0.571713 0.307937 0.145983
Si Si2 0.092230 0.293989 0.260349
Si Si3 0.875744 0.603434 0.000000
Si Si4 0.322963 0.945123 0.233033
Si Si5 0.337920 0.219133 0.000000
Si Si6 0.454728 0.947225 0.000000
Si Si7 0.252782 0.353365 0.351812
O O1 0.500000 0.323324 0.250000
O O2 0.584899 0.249099 0.134240
O O3 0.659616 0.331012 0.201811
O O4 0.551018 0.327324 0.000000
O O5 0.109803 0.264721 0.126286
O O6 0.168380 0.331952 0.282222
O O7 0.000000 0.322031 0.250000
O O8 0.846126 0.574538 0.873730
O O9 0.836489 0.658647 0.000000
O O10 0.979621 0.599179 0.000000
O O11 0.401063 0.943078 0.131863
O O12 0.246634 0.911713 0.174045
O O13 0.287442 0.000000 0.250000
O O14 0.250000 0.250000 0.000000
O O15 0.500000 0.000000 0.000000
O O16 0.243332 0.339337 0.500000
#
# Coordination Sequence:
#
# PCOD8277498 Si02
#       7
#    16  16   8  16   8   8  16
#     4  10  23  44  69  95 121 163 216 273 337 398
#     4  11  25  38  61  93 129 172 216 266 324 395
#     4  12  26  38  62  92 120 178 236 271 334 377
#     4  12  24  41  60  92 130 173 216 268 329 398
#     4  12  26  42  60  89 135 180 232 283 325 389
#     4  12  24  42  64  89 135 183 222 276 331 410
#     4  11  23  42  66  90 128 171 215 269 326 393
#
# _framework density 20.063870000000001
#
# number of rings (size 3 to 8) (size 9 to 14) (size 15 to 20)
#    0.000    0.727    4.545    2.727    8.909    1.455 
#    3.273    0.000    0.000    0.545    0.000    2.545 
#    0.000    0.000    0.000    0.000    0.000    0.000 
#
# Total GULP energy -545281.284140 kJ/mol
# GULP energy per Si atom -12392.756458 kJ/mol
# Density = 2.001820 g / cm^3
# Si number density = 20.063870 Si / 1000 Ang^3
#
#
#
# Elastic Constant Matrix: (Units=GPa)
#
#
# Indices 1 2 3 4 5 6 
#
# 1 139.2046 65.9232 45.4280 0.0000 0.0000 0.0000
# 2 65.9232 118.0035 22.4956 0.0000 0.0000 0.0000
# 3 45.4280 22.4956 112.7769 0.0000 0.0000 0.0000
# 4 0.0000 0.0000 0.0000 24.6407 0.0000 0.0000
# 5 0.0000 0.0000 0.0000 0.0000 31.7052 0.0000
# 6 0.0000 0.0000 0.0000 0.0000 0.0000 19.4460
#
#
#
# Elastic Compliance Matrix: (Units=1/GPa)
#
#
# Indices 1 2 3 4 5 6 
#
# 1 0.010820 -0.005420 -0.003277 0.000000 0.000000 0.000000
# 2 -0.005420 0.011524 -0.000116 0.000000 0.000000 0.000000
# 3 -0.003277 -0.000116 0.010210 0.000000 0.000000 0.000000
# 4 0.000000 0.000000 0.000000 0.040583 0.000000 0.000000
# 5 0.000000 0.000000 0.000000 0.000000 0.031541 0.000000
# 6 0.000000 0.000000 0.000000 0.000000 0.000000 0.051424
#
#
# Mechanical properties :
#
#
# Convention : Reuss Voigt Hill
#
# Bulk Modulus (GPa) = 66.98387 70.85316 68.91852
# Shear Modulus (GPa) = 27.97923 30.90093 29.44008
#
# Velocity S-wave (km/s) = 3.73836 3.92870 3.83471
# Velocity P-wave (km/s) = 7.21745 7.48132 7.35057
#
# Compressibility (1/GPa) = 0.01492897
#
# Stress axis : x y z
#
# Youngs Moduli (GPa) = 92.42292 86.77441 97.94078
#
# Poissons Ratio (x) = 0.47030 0.32098
# Poissons Ratio (y) = 0.50091 0.01132
# Poissons Ratio (z) = 0.30290 0.01003
#
# Static dielectric constant tensor:
#      x y z
#    x 3.648240 0.000000 0.000000 
#    y 0.000000 3.792390 0.000000 
#    z 0.000000 0.000000 4.042580 
# 
# 
# High freq. dielectric constant tensor:
#      x y z
#    x 1.758750 0.000000 0.000000 
#    y 0.000000 1.769250 0.000000 
#    z 0.000000 0.000000 1.814040 
# 
# From -- ./inp_files/16649.got.cif
#   From: 2010.03.12/outbox.cif.g09.slc.cpg/sg66_9_cif.got.tgz:16649.got - 2010.04.10 21:57:39.
