data_PCOD8277669
_publ_section_title
;
Structure prediction by ZEFSAII (Michael W. Deem and Ramdas Pophale) SiO2 
 PCOD8277669
Probable space group: C C C M
;
_chemical_formula_sum "Si O2"
_cell_formula_units_Z 112
_cell_length_a 11.405772
_cell_length_b 19.580051
_cell_length_c 26.898876
_cell_angle_alpha 90.000000
_cell_angle_beta 90.000000
_cell_angle_gamma 90.000000
_cell_volume 6007.207554
_symmetry_space_group_name_H-M "C C C M"
_symmetry_group_IT_number 66
_symmetry_cell_setting 'orthorhombic'
loop_
_space_group_symop_operation_xyz
x,y,z
-x,-y,z
x,-y,1/2-z
-x,y,1/2-z
-x,-y,-z
x,y,-z
-x,y,1/2+z
x,-y,1/2+z
1/2+x,1/2+y,z
1/2-x,1/2-y,z
1/2+x,1/2-y,1/2-z
1/2-x,1/2+y,1/2-z
1/2-x,1/2-y,-z
1/2+x,1/2+y,-z
1/2-x,1/2+y,1/2+z
1/2+x,1/2-y,1/2+z
loop_
_atom_site_type_symbol
_atom_site_label
_atom_site_fract_x
_atom_site_fract_y
_atom_site_fract_z
Si Si1 0.569277 0.288897 0.056287
Si Si2 0.806888 0.644966 0.443434
Si Si3 0.458502 0.924209 0.863623
Si Si4 0.953565 0.928746 0.695127
Si Si5 0.408183 0.308407 0.145595
Si Si6 0.343093 0.836924 0.672403
Si Si7 0.694160 0.924713 0.729511
O O1 0.668819 0.345589 0.069197
O O2 0.627246 0.215823 0.063974
O O3 0.454991 0.293989 0.090418
O O4 0.525967 0.298897 0.000000
O O5 0.821270 0.618779 0.500000
O O6 0.863762 0.590682 0.406290
O O7 0.573505 0.877848 0.864935
O O8 0.408325 0.909538 0.808978
O O9 0.500000 0.000000 0.872046
O O10 0.813830 0.921853 0.697998
O O11 0.000000 0.929190 0.750000
O O12 0.001888 0.861888 0.668722
O O13 0.000000 0.000000 0.669567
O O14 0.397905 0.239117 0.178728
O O15 0.278321 0.338703 0.142000
O O16 0.317561 0.869552 0.726490
O O17 0.676461 0.000000 0.750000
#
# Coordination Sequence:
#
# PCOD8277669 Si02
#       7
#    16  16  16  16  16  16  16
#     4   9  18  38  67  89 114 151 194 248 306 358
#     4   9  19  39  63  91 118 148 197 249 300 359
#     4  12  24  37  61  86 120 165 200 240 295 357
#     4  11  21  38  62  84 114 156 205 238 294 352
#     4  11  22  41  60  87 122 154 197 257 295 346
#     4  11  24  39  54  86 126 158 200 242 294 351
#     4  12  22  40  58  83 118 166 205 239 287 358
#
# _framework density 18.644269999999999
#
# number of rings (size 3 to 8) (size 9 to 14) (size 15 to 20)
#    0.000    1.286    5.714    2.143    0.000    1.429 
#    0.000    2.143    0.000    0.429    0.000    0.000 
#    0.000    0.000    0.000    0.000    0.000    0.000 
#
# Total GULP energy -694226.162650 kJ/mol
# GULP energy per Si atom -12396.895762 kJ/mol
# Density = 1.860183 g / cm^3
# Si number density = 18.644270 Si / 1000 Ang^3
#
#
#
# Elastic Constant Matrix: (Units=GPa)
#
#
# Indices 1 2 3 4 5 6 
#
# 1 100.3400 45.3756 59.9163 0.0000 0.0000 0.0000
# 2 45.3756 89.6202 55.9274 0.0000 0.0000 0.0000
# 3 59.9163 55.9274 100.1401 0.0000 0.0000 0.0000
# 4 0.0000 0.0000 0.0000 17.9805 0.0000 0.0000
# 5 0.0000 0.0000 0.0000 0.0000 35.6910 0.0000
# 6 0.0000 0.0000 0.0000 0.0000 0.0000 33.6031
#
#
#
# Elastic Compliance Matrix: (Units=1/GPa)
#
#
# Indices 1 2 3 4 5 6 
#
# 1 0.016113 -0.003288 -0.007805 0.000000 0.000000 0.000000
# 2 -0.003288 0.017798 -0.007973 0.000000 0.000000 0.000000
# 3 -0.007805 -0.007973 0.019109 0.000000 0.000000 0.000000
# 4 0.000000 0.000000 0.000000 0.055616 0.000000 0.000000
# 5 0.000000 0.000000 0.000000 0.000000 0.028018 0.000000
# 6 0.000000 0.000000 0.000000 0.000000 0.000000 0.029759
#
#
# Mechanical properties :
#
#
# Convention : Reuss Voigt Hill
#
# Bulk Modulus (GPa) = 67.16312 68.05988 67.61150
# Shear Modulus (GPa) = 23.86537 26.04699 24.95618
#
# Velocity S-wave (km/s) = 3.58164 3.74177 3.66258
# Velocity P-wave (km/s) = 7.29424 7.43313 7.36401
#
# Compressibility (1/GPa) = 0.01488912
#
# Stress axis : x y z
#
# Youngs Moduli (GPa) = 62.05987 56.18464 52.33187
#
# Poissons Ratio (x) = 0.18472 0.40845
# Poissons Ratio (y) = 0.20404 0.41725
# Poissons Ratio (z) = 0.48437 0.44797
#
# Static dielectric constant tensor:
#      x y z
#    x 3.661340 0.000000 0.000000 
#    y 0.000000 3.817330 0.000000 
#    z 0.000000 0.000000 3.286380 
# 
# 
# High freq. dielectric constant tensor:
#      x y z
#    x 1.739300 0.000000 0.000000 
#    y 0.000000 1.722950 0.000000 
#    z 0.000000 0.000000 1.705780 
# 
# From -- ./inp_files/57165.got.cif
#   From: 2010.03.12/outbox.cif.g09.slc.cpg/sg66_29_cif.got.tgz:57165.got - 2010.04.10 21:57:39.
