data_PCOD8277610
_publ_section_title
;
Structure prediction by ZEFSAII (Michael W. Deem and Ramdas Pophale) SiO2 
 PCOD8277610
Probable space group: C C C M
;
_chemical_formula_sum "Si O2"
_cell_formula_units_Z 88
_cell_length_a 17.561859
_cell_length_b 11.078654
_cell_length_c 22.630749
_cell_angle_alpha 90.000000
_cell_angle_beta 90.000000
_cell_angle_gamma 90.000000
_cell_volume 4403.078343
_symmetry_space_group_name_H-M "C C C M"
_symmetry_group_IT_number 66
_symmetry_cell_setting 'orthorhombic'
loop_
_space_group_symop_operation_xyz
x,y,z
-x,-y,z
x,-y,1/2-z
-x,y,1/2-z
-x,-y,-z
x,y,-z
-x,y,1/2+z
x,-y,1/2+z
1/2+x,1/2+y,z
1/2-x,1/2-y,z
1/2+x,1/2-y,1/2-z
1/2-x,1/2+y,1/2-z
1/2-x,1/2-y,-z
1/2+x,1/2+y,-z
1/2-x,1/2+y,1/2+z
1/2+x,1/2-y,1/2+z
loop_
_atom_site_type_symbol
_atom_site_label
_atom_site_fract_x
_atom_site_fract_y
_atom_site_fract_z
Si Si1 0.250000 0.250000 0.092690
Si Si2 0.897854 0.084166 0.000000
Si Si3 0.032484 0.373080 0.617752
Si Si4 0.095793 0.205999 0.845883
Si Si5 0.500000 0.500000 0.604349
Si Si6 0.746009 0.946803 0.000000
Si Si7 0.376319 0.147606 0.500000
Si Si8 0.587003 0.870213 0.262101
O O1 0.180393 0.200015 0.130011
O O2 0.277372 0.134445 0.055627
O O3 0.948468 0.080705 0.059820
O O4 0.836442 0.975962 0.000000
O O5 0.854276 0.211779 0.000000
O O6 0.073226 0.386069 0.555890
O O7 0.093525 0.331049 0.668613
O O8 0.000000 0.500000 0.639155
O O9 0.958826 0.287941 0.613664
O O10 0.110086 0.257733 0.779680
O O11 0.054988 0.075158 0.851210
O O12 0.700584 0.071293 0.000000
O O13 0.500000 0.893805 0.250000
O O14 0.630367 0.000000 0.250000
#
# Coordination Sequence:
#
# PCOD8277610 Si02
#       8
#     8   8  16  16   8   8   8  16
#     4  11  24  40  62  96 132 171 216 270 336 381
#     4  11  22  41  60  84 133 177 220 254 328 377
#     4  11  20  37  61 101 125 156 211 276 326 377
#     4  11  21  39  68  91 127 170 218 266 324 393
#     4  11  22  40  65  90 128 176 218 264 306 405
#     4  11  24  39  58  93 136 173 205 278 333 387
#     4  12  24  36  66  94 129 167 223 265 322 398
#     4   9  17  35  63  89 123 156 201 270 330 361
#
# _framework density 19.986015999999999
#
# number of rings (size 3 to 8) (size 9 to 14) (size 15 to 20)
#    0.000    1.273    7.273    1.636    0.000    1.455 
#    0.000    4.091    4.000    6.545    0.000    0.000 
#    0.000    0.000    0.000    0.000    0.000    0.000 
#
# Total GULP energy -545149.639465 kJ/mol
# GULP energy per Si atom -12389.764533 kJ/mol
# Density = 1.994053 g / cm^3
# Si number density = 19.986016 Si / 1000 Ang^3
#
#
#
# Elastic Constant Matrix: (Units=GPa)
#
#
# Indices 1 2 3 4 5 6 
#
# 1 84.9771 32.9126 35.5076 0.0000 0.0000 0.0000
# 2 32.9126 112.0230 36.6606 0.0000 0.0000 0.0000
# 3 35.5076 36.6606 148.6051 0.0000 0.0000 0.0000
# 4 0.0000 0.0000 0.0000 6.9434 0.0000 0.0000
# 5 0.0000 0.0000 0.0000 0.0000 -20.2258 0.0000
# 6 0.0000 0.0000 0.0000 0.0000 0.0000 30.4212
#
#
#
# Elastic Compliance Matrix: (Units=1/GPa)
#
#
# Indices 1 2 3 4 5 6 
#
# 1 0.014119 -0.003311 -0.002557 0.000000 0.000000 0.000000
# 2 -0.003311 0.010487 -0.001796 0.000000 0.000000 0.000000
# 3 -0.002557 -0.001796 0.007783 0.000000 0.000000 0.000000
# 4 0.000000 0.000000 0.000000 0.144023 0.000000 0.000000
# 5 0.000000 0.000000 0.000000 0.000000 -0.049442 0.000000
# 6 0.000000 0.000000 0.000000 0.000000 0.000000 0.032872
#
#
# Mechanical properties :
#
#
# Convention : Reuss Voigt Hill
#
# Bulk Modulus (GPa) = 58.61234 61.75186 60.18210
# Shear Modulus (GPa) = 27.64617 19.46272 23.55444
#
# Velocity S-wave (km/s) = 3.72328 3.12399 3.43672
# Velocity P-wave (km/s) = 6.91911 6.63152 6.77684
#
# Compressibility (1/GPa) = 0.01706125
#
# Stress axis : x y z
#
# Youngs Moduli (GPa) = 70.82811 95.35247 128.48217
#
# Poissons Ratio (x) = 0.31575 0.32848
# Poissons Ratio (y) = 0.23454 0.23075
# Poissons Ratio (z) = 0.18108 0.17125
#
# Static dielectric constant tensor:
#      x y z
#    x 2.864100 0.000000 0.000000 
#    y 0.000000 3.835700 0.000000 
#    z 0.000000 0.000000 4.486230 
# 
# 
# High freq. dielectric constant tensor:
#      x y z
#    x 1.745400 0.000000 0.000000 
#    y 0.000000 1.785490 0.000000 
#    z 0.000000 0.000000 1.781600 
# 
# From -- ./inp_files/58065.got.cif
#   From: 2010.03.12/outbox.cif.g09.slc.cpg/sg66_30_cif.got.tgz:58065.got - 2010.04.10 21:57:39.
