data_PCOD8277459
_publ_section_title
;
Structure prediction by ZEFSAII (Michael W. Deem and Ramdas Pophale) SiO2 
 PCOD8277459
Probable space group: C C C M
;
_chemical_formula_sum "Si O2"
_cell_formula_units_Z 96
_cell_length_a 11.607323
_cell_length_b 24.320831
_cell_length_c 17.067634
_cell_angle_alpha 90.000000
_cell_angle_beta 90.000000
_cell_angle_gamma 90.000000
_cell_volume 4818.188658
_symmetry_space_group_name_H-M "C C C M"
_symmetry_group_IT_number 66
_symmetry_cell_setting 'orthorhombic'
loop_
_space_group_symop_operation_xyz
x,y,z
-x,-y,z
x,-y,1/2-z
-x,y,1/2-z
-x,-y,-z
x,y,-z
-x,y,1/2+z
x,-y,1/2+z
1/2+x,1/2+y,z
1/2-x,1/2-y,z
1/2+x,1/2-y,1/2-z
1/2-x,1/2+y,1/2-z
1/2-x,1/2-y,-z
1/2+x,1/2+y,-z
1/2-x,1/2+y,1/2+z
1/2+x,1/2-y,1/2+z
loop_
_atom_site_type_symbol
_atom_site_label
_atom_site_fract_x
_atom_site_fract_y
_atom_site_fract_z
Si Si1 0.859114 0.872025 0.667092
Si Si2 0.619408 0.749797 0.291550
Si Si3 0.750159 0.943956 0.201181
Si Si4 0.543913 0.061826 0.589641
Si Si5 0.640442 0.846788 0.412329
Si Si6 0.451283 0.558892 0.414516
O O1 0.907811 0.811472 0.681107
O O2 0.795034 0.894773 0.744322
O O3 0.768256 0.871926 0.596204
O O4 0.968514 0.907879 0.644774
O O5 0.500000 0.769052 0.250000
O O6 0.750000 0.750000 0.249530
O O7 0.629296 0.791912 0.362488
O O8 0.632658 0.926433 0.159375
O O9 0.831646 0.951889 0.127222
O O10 0.738450 0.000000 0.250000
O O11 0.589454 0.071812 0.500000
O O12 0.443740 0.104129 0.611633
O O13 0.500000 0.000000 0.596834
O O14 0.617918 0.827578 0.500000
O O15 0.500000 0.500000 0.431794
O O16 0.435944 0.588422 0.500000
#
# Coordination Sequence:
#
# PCOD8277459 Si02
#       6
#    16  16  16  16  16  16
#     4  11  23  39  63  92 123 160 207 262 307 371
#     4  10  23  41  65  93 125 164 211 265 321 374
#     4  12  23  37  60  90 124 161 206 254 309 378
#     4  10  23  41  61  89 127 164 205 255 317 381
#     4  10  23  42  66  92 122 162 208 258 312 379
#     4  11  23  38  58  84 123 164 201 247 308 368
#
# _framework density 19.924499999999998
#
# number of rings (size 3 to 8) (size 9 to 14) (size 15 to 20)
#    0.000    1.333    1.667    3.500    4.667    5.333 
#    0.000    0.000    0.000    0.500    0.000    0.000 
#    0.000    0.000    0.000    0.000    0.000    0.000 
#
# Total GULP energy -594759.216664 kJ/mol
# GULP energy per Si atom -12390.817014 kJ/mol
# Density = 1.987915 g / cm^3
# Si number density = 19.924500 Si / 1000 Ang^3
#
#
#
# Elastic Constant Matrix: (Units=GPa)
#
#
# Indices 1 2 3 4 5 6 
#
# 1 95.9165 0.4732 23.8974 0.0000 0.0000 0.0000
# 2 0.4732 81.9122 8.6895 0.0000 0.0000 0.0000
# 3 23.8974 8.6895 66.6623 0.0000 0.0000 0.0000
# 4 0.0000 0.0000 0.0000 30.2899 0.0000 0.0000
# 5 0.0000 0.0000 0.0000 0.0000 51.8356 0.0000
# 6 0.0000 0.0000 0.0000 0.0000 0.0000 30.3477
#
#
#
# Elastic Compliance Matrix: (Units=1/GPa)
#
#
# Indices 1 2 3 4 5 6 
#
# 1 0.011460 0.000375 -0.004157 0.000000 0.000000 0.000000
# 2 0.000375 0.012392 -0.001750 0.000000 0.000000 0.000000
# 3 -0.004157 -0.001750 0.016719 0.000000 0.000000 0.000000
# 4 0.000000 0.000000 0.000000 0.033014 0.000000 0.000000
# 5 0.000000 0.000000 0.000000 0.000000 0.019292 0.000000
# 6 0.000000 0.000000 0.000000 0.000000 0.000000 0.032951
#
#
# Mechanical properties :
#
#
# Convention : Reuss Voigt Hill
#
# Bulk Modulus (GPa) = 33.89036 34.51235 34.20135
# Shear Modulus (GPa) = 34.07687 36.59003 35.33345
#
# Velocity S-wave (km/s) = 4.14006 4.29001 4.21571
# Velocity P-wave (km/s) = 6.31663 6.47288 6.39523
#
# Compressibility (1/GPa) = 0.02950692
#
# Stress axis : x y z
#
# Youngs Moduli (GPa) = 87.26328 80.69958 59.81133
#
# Poissons Ratio (x) = -0.03024 0.24863
# Poissons Ratio (y) = -0.03270 0.10465
# Poissons Ratio (z) = 0.36275 0.14119
#
# Static dielectric constant tensor:
#      x y z
#    x 3.986750 0.000000 0.000000 
#    y 0.000000 3.590320 0.000000 
#    z 0.000000 0.000000 3.747270 
# 
# 
# High freq. dielectric constant tensor:
#      x y z
#    x 1.788990 0.000000 0.000000 
#    y 0.000000 1.780450 0.000000 
#    z 0.000000 0.000000 1.776190 
# 
# From -- ./inp_files/38862.got.cif
#   From: 2010.03.12/outbox.cif.g09.slc.cpg/sg66_20_cif.got.tgz:38862.got - 2010.04.10 21:57:39.
