data_PCOD8277017
_publ_section_title
;
Structure prediction by ZEFSAII (Michael W. Deem and Ramdas Pophale) SiO2 
 PCOD8277017
Probable space group: C C C M
;
_chemical_formula_sum "Si O2"
_cell_formula_units_Z 72
_cell_length_a 20.369804
_cell_length_b 8.899837
_cell_length_c 19.062924
_cell_angle_alpha 90.000000
_cell_angle_beta 90.000000
_cell_angle_gamma 90.000000
_cell_volume 3455.878133
_symmetry_space_group_name_H-M "C C C M"
_symmetry_group_IT_number 66
_symmetry_cell_setting 'orthorhombic'
loop_
_space_group_symop_operation_xyz
x,y,z
-x,-y,z
x,-y,1/2-z
-x,y,1/2-z
-x,-y,-z
x,y,-z
-x,y,1/2+z
x,-y,1/2+z
1/2+x,1/2+y,z
1/2-x,1/2-y,z
1/2+x,1/2-y,1/2-z
1/2-x,1/2+y,1/2-z
1/2-x,1/2-y,-z
1/2+x,1/2+y,-z
1/2-x,1/2+y,1/2+z
1/2+x,1/2-y,1/2+z
loop_
_atom_site_type_symbol
_atom_site_label
_atom_site_fract_x
_atom_site_fract_y
_atom_site_fract_z
Si Si1 0.563285 0.235824 0.793032
Si Si2 0.076066 0.525870 0.922959
Si Si3 0.500000 0.500000 0.868416
Si Si4 0.115475 0.809200 0.421929
Si Si5 0.815051 0.155954 0.712054
O O1 0.500000 0.168608 0.750000
O O2 0.588988 0.137930 0.858589
O O3 0.547419 0.402958 0.819179
O O4 0.623266 0.247703 0.739613
O O5 0.110598 0.368056 0.906934
O O6 0.000000 0.500000 0.929050
O O7 0.100201 0.588376 0.000000
O O8 0.455931 0.387531 0.914412
O O9 0.140983 0.840979 0.500000
O O10 0.170015 0.876832 0.369795
O O11 0.750000 0.250000 0.722974
O O12 0.804562 0.000000 0.750000
#
# Coordination Sequence:
#
# PCOD8277017 Si02
#       5
#    16  16   8  16  16
#     4  12  22  41  68  96 130 168 219 275 326 382
#     4  10  21  37  59  97 136 166 206 262 328 391
#     4  12  20  40  66  98 132 164 218 276 322 384
#     4  11  24  42  67  96 131 175 217 268 333 390
#     4  12  27  46  67  95 133 172 221 269 326 394
#
# _framework density 20.834067999999998
#
# number of rings (size 3 to 8) (size 9 to 14) (size 15 to 20)
#    0.000    0.667    6.667    0.667    3.111    3.556 
#    0.000    0.000    0.000    1.333    0.000    0.000 
#    0.000    0.000    0.000    0.000    0.000    0.000 
#
# Total GULP energy -446346.894361 kJ/mol
# GULP energy per Si atom -12398.524843 kJ/mol
# Density = 2.078665 g / cm^3
# Si number density = 20.834068 Si / 1000 Ang^3
#
#
#
# Elastic Constant Matrix: (Units=GPa)
#
#
# Indices 1 2 3 4 5 6 
#
# 1 112.7924 34.4135 52.4862 0.0000 0.0000 0.0000
# 2 34.4135 88.2994 71.6303 0.0000 0.0000 0.0000
# 3 52.4862 71.6303 177.4434 0.0000 0.0000 0.0000
# 4 0.0000 0.0000 0.0000 33.1230 0.0000 0.0000
# 5 0.0000 0.0000 0.0000 0.0000 10.5311 0.0000
# 6 0.0000 0.0000 0.0000 0.0000 0.0000 15.4108
#
#
#
# Elastic Compliance Matrix: (Units=1/GPa)
#
#
# Indices 1 2 3 4 5 6 
#
# 1 0.010602 -0.002361 -0.002183 0.000000 0.000000 0.000000
# 2 -0.002361 0.017366 -0.006312 0.000000 0.000000 0.000000
# 3 -0.002183 -0.006312 0.008829 0.000000 0.000000 0.000000
# 4 0.000000 0.000000 0.000000 0.030191 0.000000 0.000000
# 5 0.000000 0.000000 0.000000 0.000000 0.094957 0.000000
# 6 0.000000 0.000000 0.000000 0.000000 0.000000 0.064890
#
#
# Mechanical properties :
#
#
# Convention : Reuss Voigt Hill
#
# Bulk Modulus (GPa) = 66.28999 77.28836 71.78918
# Shear Modulus (GPa) = 19.71813 26.47999 23.09906
#
# Velocity S-wave (km/s) = 3.07976 3.56897 3.33335
# Velocity P-wave (km/s) = 6.67336 7.35942 7.02477
#
# Compressibility (1/GPa) = 0.01508523
#
# Stress axis : x y z
#
# Youngs Moduli (GPa) = 94.32182 57.58535 113.26132
#
# Poissons Ratio (x) = 0.13597 0.24723
# Poissons Ratio (y) = 0.22272 0.71487
# Poissons Ratio (z) = 0.20588 0.36346
#
# Static dielectric constant tensor:
#      x y z
#    x 3.617240 0.000000 0.000000 
#    y 0.000000 3.156700 0.000000 
#    z 0.000000 0.000000 4.426020 
# 
# 
# High freq. dielectric constant tensor:
#      x y z
#    x 1.777220 0.000000 0.000000 
#    y 0.000000 1.814300 0.000000 
#    z 0.000000 0.000000 1.840130 
# 
# From -- ./inp_files/36729.got.cif
#   From: 2010.03.12/outbox.cif.g09.slc.cpg/sg66_19_cif.got.tgz:36729.got - 2010.04.10 21:57:39.
