data_PCOD8277981
_publ_section_title
;
Structure prediction by ZEFSAII (Michael W. Deem and Ramdas Pophale) SiO2 
 PCOD8277981
Probable space group: C M M A
;
_chemical_formula_sum "Si O2"
_cell_formula_units_Z 96
_cell_length_a 8.850804
_cell_length_b 23.745584
_cell_length_c 25.550523
_cell_angle_alpha 90.000000
_cell_angle_beta 90.000000
_cell_angle_gamma 90.000000
_cell_volume 5369.889794
_symmetry_space_group_name_H-M "C M M A"
_symmetry_group_IT_number 67
_symmetry_cell_setting 'orthorhombic'
loop_
_space_group_symop_operation_xyz
x,y,z
-x,1/2-y,z
x,-y,-z
-x,1/2+y,-z
-x,-y,-z
x,1/2+y,-z
-x,y,z
x,1/2-y,z
1/2+x,1/2+y,z
1/2-x,-y,z
1/2+x,1/2-y,-z
1/2-x,y,-z
1/2-x,1/2-y,-z
1/2+x,y,-z
1/2-x,1/2+y,z
1/2+x,-y,z
loop_
_atom_site_type_symbol
_atom_site_label
_atom_site_fract_x
_atom_site_fract_y
_atom_site_fract_z
Si Si1 0.173549 0.373628 0.155302
Si Si2 0.678872 0.060673 0.249056
Si Si3 0.176509 0.750000 0.285941
Si Si4 0.679371 0.860223 0.661032
Si Si5 0.822153 0.685402 0.446419
Si Si6 0.830113 0.250000 0.180358
Si Si7 0.179299 0.060555 0.053048
O O1 0.271298 0.396563 0.203622
O O2 0.195021 0.306597 0.146818
O O3 0.228700 0.400531 0.101199
O O4 0.000000 0.389527 0.166864
O O5 0.500000 0.054845 0.246610
O O6 0.732690 0.084876 0.306087
O O7 0.750000 0.000000 0.239957
O O8 0.250457 0.694538 0.311117
O O9 0.205474 0.750000 0.224878
O O10 0.000000 0.750000 0.297555
O O11 0.500000 0.857185 0.663638
O O12 0.731982 0.856887 0.600239
O O13 0.771919 0.750000 0.434283
O O14 0.750000 0.663070 0.500000
O O15 0.000000 0.682818 0.453012
O O16 0.000000 0.250000 0.204181
O O17 0.000000 0.055622 0.047000
O O18 0.250000 0.000000 0.064071
O O19 0.250000 0.086485 0.000000
#
# Coordination Sequence:
#
# PCOD8277981 Si02
#       7
#    16  16   8  16  16   8  16
#     4  10  21  36  54  78 108 139 168 205 255 306
#     4  11  22  35  53  76 102 134 172 213 255 302
#     4  10  16  30  51  74  98 132 175 205 244 303
#     4   9  17  30  51  73  99 133 167 205 249 302
#     4   9  16  28  46  70  99 128 160 200 247 297
#     4  10  20  34  51  76 110 140 165 203 254 301
#     4  10  20  35  55  77 101 132 172 214 256 298
#
# _framework density 17.877461
#
# number of rings (size 3 to 8) (size 9 to 14) (size 15 to 20)
#    0.000    2.167    2.500    2.000    0.000    2.667 
#    0.000    2.917    0.000    0.500    0.000    3.500 
#    0.000    0.000    0.000    0.000    0.000    0.000 
#
# Total GULP energy -594922.682020 kJ/mol
# GULP energy per Si atom -12394.222542 kJ/mol
# Density = 1.783677 g / cm^3
# Si number density = 17.877461 Si / 1000 Ang^3
#
#
#
# Elastic Constant Matrix: (Units=GPa)
#
#
# Indices 1 2 3 4 5 6 
#
# 1 43.9523 25.5134 34.4068 0.0000 0.0000 0.0000
# 2 25.5134 100.4193 60.3916 0.0000 0.0000 0.0000
# 3 34.4068 60.3916 148.8107 0.0000 0.0000 0.0000
# 4 0.0000 0.0000 0.0000 31.8387 0.0000 0.0000
# 5 0.0000 0.0000 0.0000 0.0000 28.0698 0.0000
# 6 0.0000 0.0000 0.0000 0.0000 0.0000 14.8351
#
#
#
# Elastic Compliance Matrix: (Units=1/GPa)
#
#
# Indices 1 2 3 4 5 6 
#
# 1 0.029206 -0.004444 -0.004949 0.000000 0.000000 0.000000
# 2 -0.004444 0.013850 -0.004593 0.000000 0.000000 0.000000
# 3 -0.004949 -0.004593 0.009728 0.000000 0.000000 0.000000
# 4 0.000000 0.000000 0.000000 0.031408 0.000000 0.000000
# 5 0.000000 0.000000 0.000000 0.000000 0.035626 0.000000
# 6 0.000000 0.000000 0.000000 0.000000 0.000000 0.067408
#
#
# Mechanical properties :
#
#
# Convention : Reuss Voigt Hill
#
# Bulk Modulus (GPa) = 40.30417 59.31178 49.80798
# Shear Modulus (GPa) = 22.37455 26.47341 24.42398
#
# Velocity S-wave (km/s) = 3.54156 3.85233 3.70021
# Velocity P-wave (km/s) = 6.27034 7.28259 6.79534
#
# Compressibility (1/GPa) = 0.02481133
#
# Stress axis : x y z
#
# Youngs Moduli (GPa) = 34.23958 72.20464 102.79292
#
# Poissons Ratio (x) = 0.32086 0.50876
# Poissons Ratio (y) = 0.15215 0.47214
# Poissons Ratio (z) = 0.16946 0.33164
#
# Static dielectric constant tensor:
#      x y z
#    x 3.153940 0.000000 0.000000 
#    y 0.000000 3.363880 0.000000 
#    z 0.000000 0.000000 3.507690 
# 
# 
# High freq. dielectric constant tensor:
#      x y z
#    x 1.676860 0.000000 0.000000 
#    y 0.000000 1.677320 0.000000 
#    z 0.000000 0.000000 1.694650 
# 
# From -- ./inp_files/43685.got.cif
#   From: 2010.03.12/outbox.cif.g09.slc.cpg/sg67_22_cif.got.tgz:43685.got - 2010.04.10 22:41:39.
