data_PCOD8277786
_publ_section_title
;
Structure prediction by ZEFSAII (Michael W. Deem and Ramdas Pophale) SiO2 
 PCOD8277786
Probable space group: C C C M
;
_chemical_formula_sum "Si O2"
_cell_formula_units_Z 64
_cell_length_a 14.331080
_cell_length_b 11.677146
_cell_length_c 18.295079
_cell_angle_alpha 90.000000
_cell_angle_beta 90.000000
_cell_angle_gamma 90.000000
_cell_volume 3061.610367
_symmetry_space_group_name_H-M "C C C M"
_symmetry_group_IT_number 66
_symmetry_cell_setting 'orthorhombic'
loop_
_space_group_symop_operation_xyz
x,y,z
-x,-y,z
x,-y,1/2-z
-x,y,1/2-z
-x,-y,-z
x,y,-z
-x,y,1/2+z
x,-y,1/2+z
1/2+x,1/2+y,z
1/2-x,1/2-y,z
1/2+x,1/2-y,1/2-z
1/2-x,1/2+y,1/2-z
1/2-x,1/2-y,-z
1/2+x,1/2+y,-z
1/2-x,1/2+y,1/2+z
1/2+x,1/2-y,1/2+z
loop_
_atom_site_type_symbol
_atom_site_label
_atom_site_fract_x
_atom_site_fract_y
_atom_site_fract_z
Si Si1 0.581370 0.093323 0.500000
Si Si2 0.250000 0.750000 0.870416
Si Si3 0.896560 0.965274 0.000000
Si Si4 0.147001 0.226795 0.895650
Si Si5 0.723157 0.097444 0.000000
Si Si6 0.387991 0.634081 0.755579
O O1 0.578715 0.173511 0.572580
O O2 0.500000 0.000000 0.500000
O O3 0.678267 0.026753 0.500000
O O4 0.333205 0.687423 0.825155
O O5 0.304251 0.836973 0.925166
O O6 0.882796 0.895611 0.925779
O O7 0.000000 0.000000 0.000000
O O8 0.834489 0.079247 0.000000
O O9 0.250000 0.250000 0.925357
O O10 0.147840 0.216061 0.808933
O O11 0.359515 0.500000 0.750000
O O12 0.500000 0.646334 0.750000
#
# Coordination Sequence:
#
# PCOD8277786 Si02
#       6
#     8   8   8  16   8  16
#     4  11  25  42  68  95 133 176 223 272 333 405
#     4  11  26  42  68  97 136 174 218 287 334 396
#     4  11  23  38  72  99 130 174 228 276 328 387
#     4  11  22  45  67  94 131 180 224 270 330 405
#     4  11  24  43  66 101 136 170 226 280 338 385
#     4  11  26  44  67  97 134 175 226 275 335 398
#
# _framework density 20.904032000000001
#
# number of rings (size 3 to 8) (size 9 to 14) (size 15 to 20)
#    0.000    1.000    3.750    2.250   10.500    2.000 
#    0.000    0.000    0.000    0.000    0.000    0.000 
#    0.000    0.000    0.000    0.000    0.000    0.000 
#
# Total GULP energy -396500.388606 kJ/mol
# GULP energy per Si atom -12390.637144 kJ/mol
# Density = 2.085645 g / cm^3
# Si number density = 20.904032 Si / 1000 Ang^3
#
#
#
# Elastic Constant Matrix: (Units=GPa)
#
#
# Indices 1 2 3 4 5 6 
#
# 1 116.5107 49.6074 36.7698 0.0000 0.0000 0.0000
# 2 49.6074 129.7556 65.8309 0.0000 0.0000 0.0000
# 3 36.7698 65.8309 156.6788 0.0000 0.0000 0.0000
# 4 0.0000 0.0000 0.0000 654.1614 0.0000 0.0000
# 5 0.0000 0.0000 0.0000 0.0000 12.2127 0.0000
# 6 0.0000 0.0000 0.0000 0.0000 0.0000 42.7401
#
#
#
# Elastic Compliance Matrix: (Units=1/GPa)
#
#
# Indices 1 2 3 4 5 6 
#
# 1 0.010368 -0.003469 -0.000976 0.000000 0.000000 0.000000
# 2 -0.003469 0.010955 -0.003789 0.000000 0.000000 0.000000
# 3 -0.000976 -0.003789 0.008203 0.000000 0.000000 0.000000
# 4 0.000000 0.000000 0.000000 0.001529 0.000000 0.000000
# 5 0.000000 0.000000 0.000000 0.000000 0.081882 0.000000
# 6 0.000000 0.000000 0.000000 0.000000 0.000000 0.023397
#
#
# Mechanical properties :
#
#
# Convention : Reuss Voigt Hill
#
# Bulk Modulus (GPa) = 76.57154 78.59569 77.58361
# Shear Modulus (GPa) = 31.81583 158.53865 95.17724
#
# Velocity S-wave (km/s) = 3.90551 8.71813 6.75495
# Velocity P-wave (km/s) = 7.55294 11.79072 9.90121
#
# Compressibility (1/GPa) = 0.01305968
#
# Stress axis : x y z
#
# Youngs Moduli (GPa) = 96.45325 91.28049 121.89998
#
# Poissons Ratio (x) = 0.31663 0.11894
# Poissons Ratio (y) = 0.33457 0.46187
# Poissons Ratio (z) = 0.09411 0.34586
#
# Static dielectric constant tensor:
#      x y z
#    x 3.714960 0.000000 0.000000 
#    y 0.000000 3.804020 0.000000 
#    z 0.000000 0.000000 4.058630 
# 
# 
# High freq. dielectric constant tensor:
#      x y z
#    x 1.816260 0.000000 0.000000 
#    y 0.000000 1.829250 0.000000 
#    z 0.000000 0.000000 1.825760 
# 
# From -- ./inp_files/38094.got.cif
#   From: 2010.03.12/outbox.cif.g09.slc.cpg/sg66_20_cif.got.tgz:38094.got - 2010.04.10 21:57:39.
