data_PCOD8277255
_publ_section_title
;
Structure prediction by ZEFSAII (Michael W. Deem and Ramdas Pophale) SiO2 
 PCOD8277255
Probable space group: C C C M
;
_chemical_formula_sum "Si O2"
_cell_formula_units_Z 104
_cell_length_a 8.973541
_cell_length_b 21.708592
_cell_length_c 26.156393
_cell_angle_alpha 90.000000
_cell_angle_beta 90.000000
_cell_angle_gamma 90.000000
_cell_volume 5095.342266
_symmetry_space_group_name_H-M "C C C M"
_symmetry_group_IT_number 66
_symmetry_cell_setting 'orthorhombic'
loop_
_space_group_symop_operation_xyz
x,y,z
-x,-y,z
x,-y,1/2-z
-x,y,1/2-z
-x,-y,-z
x,y,-z
-x,y,1/2+z
x,-y,1/2+z
1/2+x,1/2+y,z
1/2-x,1/2-y,z
1/2+x,1/2-y,1/2-z
1/2-x,1/2+y,1/2-z
1/2-x,1/2-y,-z
1/2+x,1/2+y,-z
1/2-x,1/2+y,1/2+z
1/2+x,1/2-y,1/2+z
loop_
_atom_site_type_symbol
_atom_site_label
_atom_site_fract_x
_atom_site_fract_y
_atom_site_fract_z
Si Si1 0.172310 0.016030 0.095893
Si Si2 0.250000 0.750000 0.376394
Si Si3 0.327677 0.132414 0.941047
Si Si4 0.163334 0.598478 0.057132
Si Si5 0.781162 0.345949 0.840299
Si Si6 0.665595 0.020454 0.193547
Si Si7 0.477600 0.265297 0.309369
O O1 0.199674 0.085702 0.077702
O O2 0.277094 0.971111 0.062285
O O3 0.214754 0.009692 0.155467
O O4 0.000000 0.000000 0.087397
O O5 0.319193 0.803622 0.410873
O O6 0.371132 0.719944 0.338832
O O7 0.486915 0.099955 0.931654
O O8 0.301450 0.148218 0.000000
O O9 0.244911 0.640929 0.099267
O O10 0.198205 0.623272 0.000000
O O11 0.832707 0.405948 0.809801
O O12 0.626272 0.324616 0.816014
O O13 0.906765 0.294725 0.834943
O O14 0.500000 0.000000 0.178494
O O15 0.711058 0.000000 0.250000
O O16 0.500000 0.252035 0.250000
#
# Coordination Sequence:
#
# PCOD8277255 Si02
#       7
#    16   8  16  16  16  16  16
#     4  11  24  40  64 100 135 167 215 273 332 396
#     4  12  25  42  68  96 130 172 225 272 324 376
#     4  11  24  43  67  94 132 175 223 268 325 396
#     4  10  21  43  69  94 128 175 216 267 328 390
#     4  10  22  45  64  99 133 164 229 261 325 393
#     4  10  23  41  69  99 130 179 217 270 327 390
#     4  11  25  43  67  94 130 180 216 273 316 388
#
# _framework density 20.410798
#
# number of rings (size 3 to 8) (size 9 to 14) (size 15 to 20)
#    0.000    1.385    1.538    3.923    6.462    4.000 
#    0.000    2.308    0.000    0.000    0.000    0.000 
#    0.000    0.000    0.000    0.000    0.000    0.000 
#
# Total GULP energy -644997.512454 kJ/mol
# GULP energy per Si atom -12403.798316 kJ/mol
# Density = 2.036434 g / cm^3
# Si number density = 20.410798 Si / 1000 Ang^3
#
#
#
# Elastic Constant Matrix: (Units=GPa)
#
#
# Indices 1 2 3 4 5 6 
#
# 1 112.3169 44.1135 31.2035 0.0000 0.0000 0.0000
# 2 44.1135 114.7816 42.7443 0.0000 0.0000 0.0000
# 3 31.2035 42.7443 130.5691 0.0000 0.0000 0.0000
# 4 0.0000 0.0000 0.0000 14.5776 0.0000 0.0000
# 5 0.0000 0.0000 0.0000 0.0000 16.1929 0.0000
# 6 0.0000 0.0000 0.0000 0.0000 0.0000 27.3536
#
#
#
# Elastic Compliance Matrix: (Units=1/GPa)
#
#
# Indices 1 2 3 4 5 6 
#
# 1 0.010700 -0.003599 -0.001379 0.000000 0.000000 0.000000
# 2 -0.003599 0.011132 -0.002784 0.000000 0.000000 0.000000
# 3 -0.001379 -0.002784 0.008900 0.000000 0.000000 0.000000
# 4 0.000000 0.000000 0.000000 0.068598 0.000000 0.000000
# 5 0.000000 0.000000 0.000000 0.000000 0.061755 0.000000
# 6 0.000000 0.000000 0.000000 0.000000 0.000000 0.036558
#
#
# Mechanical properties :
#
#
# Convention : Reuss Voigt Hill
#
# Bulk Modulus (GPa) = 65.75527 65.97669 65.86598
# Shear Modulus (GPa) = 22.91086 27.59858 25.25472
#
# Velocity S-wave (km/s) = 3.35399 3.68116 3.52137
# Velocity P-wave (km/s) = 6.87640 7.10369 6.99097
#
# Compressibility (1/GPa) = 0.01520791
#
# Stress axis : x y z
#
# Youngs Moduli (GPa) = 93.45876 89.82999 112.36182
#
# Poissons Ratio (x) = 0.32327 0.15494
# Poissons Ratio (y) = 0.33633 0.31285
# Poissons Ratio (z) = 0.12888 0.25011
#
# Static dielectric constant tensor:
#      x y z
#    x 3.755850 0.000000 0.000000 
#    y 0.000000 3.613790 0.000000 
#    z 0.000000 0.000000 3.822470 
# 
# 
# High freq. dielectric constant tensor:
#      x y z
#    x 1.796790 0.000000 0.000000 
#    y 0.000000 1.796200 0.000000 
#    z 0.000000 0.000000 1.811570 
# 
# From -- ./inp_files/62702.got.cif
#   From: 2010.03.12/outbox.cif.g09.slc.cpg/sg66_32_cif.got.tgz:62702.got - 2010.04.10 21:57:39.
