data_PCOD8277950
_publ_section_title
;
Structure prediction by ZEFSAII (Michael W. Deem and Ramdas Pophale) SiO2 
 PCOD8277950
Probable space group: C M M A
;
_chemical_formula_sum "Si O2"
_cell_formula_units_Z 56
_cell_length_a 36.579073
_cell_length_b 8.757556
_cell_length_c 9.932788
_cell_angle_alpha 90.000000
_cell_angle_beta 90.000000
_cell_angle_gamma 90.000000
_cell_volume 3181.901890
_symmetry_space_group_name_H-M "C M M A"
_symmetry_group_IT_number 67
_symmetry_cell_setting 'orthorhombic'
loop_
_space_group_symop_operation_xyz
x,y,z
-x,1/2-y,z
x,-y,-z
-x,1/2+y,-z
-x,-y,-z
x,1/2+y,-z
-x,y,z
x,1/2-y,z
1/2+x,1/2+y,z
1/2-x,-y,z
1/2+x,1/2-y,-z
1/2-x,y,-z
1/2-x,1/2-y,-z
1/2+x,y,-z
1/2-x,1/2+y,z
1/2+x,-y,z
loop_
_atom_site_type_symbol
_atom_site_label
_atom_site_fract_x
_atom_site_fract_y
_atom_site_fract_z
Si Si1 0.500000 0.569593 0.849989
Si Si2 0.571098 0.428397 0.853805
Si Si3 0.711360 0.932261 0.356225
Si Si4 0.848506 0.572019 0.854617
O O1 0.500000 0.750000 0.853130
O O2 0.537075 0.509262 0.775227
O O3 0.500000 0.500000 0.000000
O O4 0.562645 0.250000 0.863004
O O5 0.611124 0.461562 0.790398
O O6 0.573029 0.500000 0.000000
O O7 0.713673 0.750000 0.365791
O O8 0.681276 0.990375 0.249981
O O9 0.700098 0.000000 0.500000
O O10 0.750000 0.000000 0.308397
O O11 0.843387 0.750000 0.876881
O O12 0.842254 0.500000 0.000000
#
# Coordination Sequence:
#
# PCOD8277950 Si02
#       4
#     8  16  16  16
#     4  10  16  22  34  56  85 118 151 184 220 266
#     4   9  15  25  39  58  85 118 150 185 224 267
#     4  10  20  35  52  72  94 122 157 194 232 278
#     4   9  19  32  48  70  97 124 156 193 234 278
#
# _framework density 17.599537000000002
#
# number of rings (size 3 to 8) (size 9 to 14) (size 15 to 20)
#    0.000    2.571    0.000    5.571    0.000    4.000 
#    0.000    2.857    0.000    0.000    0.000    1.000 
#    0.000    0.000    0.000    0.000    0.000    0.000 
#
# Total GULP energy -346905.315288 kJ/mol
# GULP energy per Si atom -12389.475546 kJ/mol
# Density = 1.755948 g / cm^3
# Si number density = 17.599537 Si / 1000 Ang^3
#
#
#
# Elastic Constant Matrix: (Units=GPa)
#
#
# Indices 1 2 3 4 5 6 
#
# 1 192.6376 66.3670 75.5388 0.0000 0.0000 0.0000
# 2 66.3670 98.1046 30.0686 0.0000 0.0000 0.0000
# 3 75.5388 30.0686 56.7739 0.0000 0.0000 0.0000
# 4 0.0000 0.0000 0.0000 16.1975 0.0000 0.0000
# 5 0.0000 0.0000 0.0000 0.0000 3.6572 0.0000
# 6 0.0000 0.0000 0.0000 0.0000 0.0000 10.8138
#
#
#
# Elastic Compliance Matrix: (Units=1/GPa)
#
#
# Indices 1 2 3 4 5 6 
#
# 1 0.011951 -0.003833 -0.013871 0.000000 0.000000 0.000000
# 2 -0.003833 0.013398 -0.001996 0.000000 0.000000 0.000000
# 3 -0.013871 -0.001996 0.037126 0.000000 0.000000 0.000000
# 4 0.000000 0.000000 0.000000 0.061738 0.000000 0.000000
# 5 0.000000 0.000000 0.000000 0.000000 0.273433 0.000000
# 6 0.000000 0.000000 0.000000 0.000000 0.000000 0.092475
#
#
# Mechanical properties :
#
#
# Convention : Reuss Voigt Hill
#
# Bulk Modulus (GPa) = 43.33578 76.82945 60.08262
# Shear Modulus (GPa) = 9.30733 17.83647 13.57190
#
# Velocity S-wave (km/s) = 2.30215 3.18695 2.77997
# Velocity P-wave (km/s) = 5.63411 7.56909 6.67212
#
# Compressibility (1/GPa) = 0.02307562
#
# Stress axis : x y z
#
# Youngs Moduli (GPa) = 83.67643 74.63764 26.93560
#
# Poissons Ratio (x) = 0.28611 0.37361
# Poissons Ratio (y) = 0.32076 0.05375
# Poissons Ratio (z) = 1.16064 0.14894
#
# Static dielectric constant tensor:
#      x y z
#    x 4.890530 0.000000 0.000000 
#    y 0.000000 3.408280 0.000000 
#    z 0.000000 0.000000 2.811400 
# 
# 
# High freq. dielectric constant tensor:
#      x y z
#    x 1.712870 0.000000 0.000000 
#    y 0.000000 1.693680 0.000000 
#    z 0.000000 0.000000 1.610330 
# 
# From -- ./inp_files/15709.got.cif
#   From: 2010.03.12/outbox.cif.g09.slc.cpg/sg67_8_cif.got.tgz:15709.got - 2010.04.10 22:41:39.
