data_PCOD8277302
_publ_section_title
;
Structure prediction by ZEFSAII (Michael W. Deem and Ramdas Pophale) SiO2 
 PCOD8277302
Probable space group: C C C M
;
_chemical_formula_sum "Si O2"
_cell_formula_units_Z 64
_cell_length_a 5.153823
_cell_length_b 17.218463
_cell_length_c 36.119146
_cell_angle_alpha 90.000000
_cell_angle_beta 90.000000
_cell_angle_gamma 90.000000
_cell_volume 3205.245907
_symmetry_space_group_name_H-M "C C C M"
_symmetry_group_IT_number 66
_symmetry_cell_setting 'orthorhombic'
loop_
_space_group_symop_operation_xyz
x,y,z
-x,-y,z
x,-y,1/2-z
-x,y,1/2-z
-x,-y,-z
x,y,-z
-x,y,1/2+z
x,-y,1/2+z
1/2+x,1/2+y,z
1/2-x,1/2-y,z
1/2+x,1/2-y,1/2-z
1/2-x,1/2+y,1/2-z
1/2-x,1/2-y,-z
1/2+x,1/2+y,-z
1/2-x,1/2+y,1/2+z
1/2+x,1/2-y,1/2+z
loop_
_atom_site_type_symbol
_atom_site_label
_atom_site_fract_x
_atom_site_fract_y
_atom_site_fract_z
Si Si1 0.948966 0.087678 0.921568
Si Si2 0.452238 0.091037 0.042328
Si Si3 0.247868 0.658881 0.226945
Si Si4 0.262344 0.449595 0.341338
O O1 0.724883 0.130010 0.945573
O O2 0.864358 0.090277 0.878884
O O3 0.226411 0.127310 0.931164
O O4 0.000000 0.000000 0.935385
O O5 0.500000 0.000000 0.049627
O O6 0.383281 0.109757 0.000000
O O7 0.500000 0.632546 0.250000
O O8 0.250000 0.750000 0.219090
O O9 0.215287 0.618390 0.187574
O O10 0.000000 0.632438 0.250000
O O11 0.500000 0.500000 0.325376
O O12 0.000000 0.500000 0.348152
#
# Coordination Sequence:
#
# PCOD8277302 Si02
#       4
#    16  16  16  16
#     4   9  16  26  38  60  93 124 156 196 240 281
#     4   9  15  23  37  57  87 128 163 190 231 287
#     4  10  22  39  56  75 101 131 164 205 249 294
#     4  11  21  33  52  76 103 133 164 204 250 296
#
# _framework density 19.967269000000002
#
# number of rings (size 3 to 8) (size 9 to 14) (size 15 to 20)
#    0.000    2.250    0.000    6.000    0.000    6.000 
#    0.000    0.000    0.000    0.000    0.000    0.000 
#    0.000    6.000    0.000    0.000    0.000   21.500 
#
# Total GULP energy -396513.582927 kJ/mol
# GULP energy per Si atom -12391.049466 kJ/mol
# Density = 1.992182 g / cm^3
# Si number density = 19.967269 Si / 1000 Ang^3
#
#
#
# Elastic Constant Matrix: (Units=GPa)
#
#
# Indices 1 2 3 4 5 6 
#
# 1 196.7519 21.9851 95.9070 0.0000 0.0000 0.0000
# 2 21.9851 16.4893 35.2477 0.0000 0.0000 0.0000
# 3 95.9070 35.2477 154.9432 0.0000 0.0000 0.0000
# 4 0.0000 0.0000 0.0000 6.9241 0.0000 0.0000
# 5 0.0000 0.0000 0.0000 0.0000 36.0549 0.0000
# 6 0.0000 0.0000 0.0000 0.0000 0.0000 -2.4688
#
#
#
# Elastic Compliance Matrix: (Units=1/GPa)
#
#
# Indices 1 2 3 4 5 6 
#
# 1 0.007279 -0.000144 -0.004473 0.000000 0.000000 0.000000
# 2 -0.000144 0.118054 -0.026767 0.000000 0.000000 0.000000
# 3 -0.004473 -0.026767 0.015312 0.000000 0.000000 0.000000
# 4 0.000000 0.000000 0.000000 0.144422 0.000000 0.000000
# 5 0.000000 0.000000 0.000000 0.000000 0.027736 0.000000
# 6 0.000000 0.000000 0.000000 0.000000 0.000000 -0.405047
#
#
# Mechanical properties :
#
#
# Convention : Reuss Voigt Hill
#
# Bulk Modulus (GPa) = 12.84064 74.94044 43.89054
# Shear Modulus (GPa) = -1421.19377 22.43834 -699.37771
#
# Velocity S-wave (km/s) = -26.70781 3.35588 -18.73559
# Velocity P-wave (km/s) = 30.73485 7.25459 21.11874
#
# Compressibility (1/GPa) = 0.07787774
#
# Stress axis : x y z
#
# Youngs Moduli (GPa) = 137.38395 8.47069 65.30960
#
# Poissons Ratio (x) = 0.00122 0.29211
# Poissons Ratio (y) = 0.01976 1.74814
# Poissons Ratio (z) = 0.61449 0.22673
#
# Static dielectric constant tensor:
#      x y z
#    x 4.235630 0.000000 0.000000 
#    y 0.000000 2.894940 0.000000 
#    z 0.000000 0.000000 3.479020 
# 
# 
# High freq. dielectric constant tensor:
#      x y z
#    x 1.816920 0.000000 0.000000 
#    y 0.000000 1.695750 0.000000 
#    z 0.000000 0.000000 1.785530 
# 
# From -- ./inp_files/66961.got.cif
#   From: 2010.03.12/outbox.cif.g09.slc.cpg/sg66_34_cif.got.tgz:66961.got - 2010.04.10 21:57:39.
