data_PCOD8277304
_publ_section_title
;
Structure prediction by ZEFSAII (Michael W. Deem and Ramdas Pophale) SiO2 
 PCOD8277304
Probable space group: C C C M
;
_chemical_formula_sum "Si O2"
_cell_formula_units_Z 52
_cell_length_a 30.354455
_cell_length_b 9.045771
_cell_length_c 9.860444
_cell_angle_alpha 90.000000
_cell_angle_beta 90.000000
_cell_angle_gamma 90.000000
_cell_volume 2707.475278
_symmetry_space_group_name_H-M "C C C M"
_symmetry_group_IT_number 66
_symmetry_cell_setting 'orthorhombic'
loop_
_space_group_symop_operation_xyz
x,y,z
-x,-y,z
x,-y,1/2-z
-x,y,1/2-z
-x,-y,-z
x,y,-z
-x,y,1/2+z
x,-y,1/2+z
1/2+x,1/2+y,z
1/2-x,1/2-y,z
1/2+x,1/2-y,1/2-z
1/2-x,1/2+y,1/2-z
1/2-x,1/2-y,-z
1/2+x,1/2+y,-z
1/2-x,1/2+y,1/2+z
1/2+x,1/2-y,1/2+z
loop_
_atom_site_type_symbol
_atom_site_label
_atom_site_fract_x
_atom_site_fract_y
_atom_site_fract_z
Si Si1 0.289620 0.641820 0.343897
Si Si2 0.634400 0.866600 0.157077
Si Si3 0.000000 0.000000 0.750000
Si Si4 0.536602 0.783831 0.847900
O O1 0.287238 0.500000 0.250000
O O2 0.285445 0.591148 0.500000
O O3 0.250000 0.750000 0.304221
O O4 0.335614 0.724124 0.317199
O O5 0.585028 0.826251 0.203171
O O6 0.651883 0.000000 0.250000
O O7 0.636679 0.915403 0.000000
O O8 0.968837 0.105016 0.657650
O O9 0.500000 0.859706 0.750000
O O10 0.528523 0.840285 0.000000
#
# Coordination Sequence:
#
# PCOD8277304 Si02
#       4
#    16  16   4  16
#     4  10  22  39  61  88 117 147 186 232 278 335
#     4  10  22  39  56  82 115 149 190 233 279 335
#     4   8  18  32  52  72 110 140 180 232 274 324
#     4   9  19  33  53  77 107 144 185 230 275 329
#
# _framework density 19.206085000000002
#
# number of rings (size 3 to 8) (size 9 to 14) (size 15 to 20)
#    0.923    1.538    0.000    1.385    2.154    3.692 
#    0.000    3.077    0.000    0.000    0.000    0.000 
#    0.000    0.000    0.000    0.000    0.000    0.000 
#
# Total GULP energy -322319.723038 kJ/mol
# GULP energy per Si atom -12396.912425 kJ/mol
# Density = 1.916237 g / cm^3
# Si number density = 19.206085 Si / 1000 Ang^3
#
#
#
# Elastic Constant Matrix: (Units=GPa)
#
#
# Indices 1 2 3 4 5 6 
#
# 1 131.9609 42.7905 62.7344 0.0000 0.0000 0.0000
# 2 42.7905 113.2480 70.3189 0.0000 0.0000 0.0000
# 3 62.7344 70.3189 104.9102 0.0000 0.0000 0.0000
# 4 0.0000 0.0000 0.0000 37.4454 0.0000 0.0000
# 5 0.0000 0.0000 0.0000 0.0000 24.3620 0.0000
# 6 0.0000 0.0000 0.0000 0.0000 0.0000 26.3826
#
#
#
# Elastic Compliance Matrix: (Units=1/GPa)
#
#
# Indices 1 2 3 4 5 6 
#
# 1 0.010589 -0.000119 -0.006252 0.000000 0.000000 0.000000
# 2 -0.000119 0.015127 -0.010068 0.000000 0.000000 0.000000
# 3 -0.006252 -0.010068 0.020019 0.000000 0.000000 0.000000
# 4 0.000000 0.000000 0.000000 0.026706 0.000000 0.000000
# 5 0.000000 0.000000 0.000000 0.000000 0.041047 0.000000
# 6 0.000000 0.000000 0.000000 0.000000 0.000000 0.037904
#
#
# Mechanical properties :
#
#
# Convention : Reuss Voigt Hill
#
# Bulk Modulus (GPa) = 77.78244 77.97852 77.88048
# Shear Modulus (GPa) = 26.51747 29.25636 27.88692
#
# Velocity S-wave (km/s) = 3.71978 3.90716 3.81462
# Velocity P-wave (km/s) = 7.68348 7.81304 7.74853
#
# Compressibility (1/GPa) = 0.01285637
#
# Stress axis : x y z
#
# Youngs Moduli (GPa) = 94.43847 66.10905 49.95219
#
# Poissons Ratio (x) = 0.00785 0.31232
# Poissons Ratio (y) = 0.01121 0.50292
# Poissons Ratio (z) = 0.59047 0.66558
#
# Static dielectric constant tensor:
#      x y z
#    x 3.585470 0.000000 0.000000 
#    y 0.000000 3.282190 0.000000 
#    z 0.000000 0.000000 3.379730 
# 
# 
# High freq. dielectric constant tensor:
#      x y z
#    x 1.755000 0.000000 0.000000 
#    y 0.000000 1.740160 0.000000 
#    z 0.000000 0.000000 1.743400 
# 
# From -- ./inp_files/20275.got.cif
#   From: 2010.03.12/outbox.cif.g09.slc.cpg/sg66_11_cif.got.tgz:20275.got - 2010.04.10 21:57:39.
