data_PCOD8277998
_publ_section_title
;
Structure prediction by ZEFSAII (Michael W. Deem and Ramdas Pophale) SiO2 
 PCOD8277998
Probable space group: C M M A
;
_chemical_formula_sum "Si O2"
_cell_formula_units_Z 104
_cell_length_a 8.834356
_cell_length_b 25.758096
_cell_length_c 28.083267
_cell_angle_alpha 90.000000
_cell_angle_beta 90.000000
_cell_angle_gamma 90.000000
_cell_volume 6390.521240
_symmetry_space_group_name_H-M "C M M A"
_symmetry_group_IT_number 67
_symmetry_cell_setting 'orthorhombic'
loop_
_space_group_symop_operation_xyz
x,y,z
-x,1/2-y,z
x,-y,-z
-x,1/2+y,-z
-x,-y,-z
x,1/2+y,-z
-x,y,z
x,1/2-y,z
1/2+x,1/2+y,z
1/2-x,-y,z
1/2+x,1/2-y,-z
1/2-x,y,-z
1/2-x,1/2-y,-z
1/2+x,y,-z
1/2-x,1/2+y,z
1/2+x,-y,z
loop_
_atom_site_type_symbol
_atom_site_label
_atom_site_fract_x
_atom_site_fract_y
_atom_site_fract_z
Si Si1 0.669984 0.307880 0.720276
Si Si2 0.676827 0.250000 0.448922
Si Si3 0.181088 0.443682 0.859170
Si Si4 0.181643 0.057690 0.047204
Si Si5 0.822012 0.901335 0.240787
Si Si6 0.177459 0.835602 0.374711
Si Si7 0.822539 0.446359 0.659792
O O1 0.500000 0.329992 0.719664
O O2 0.674815 0.250000 0.740763
O O3 0.771897 0.341980 0.755157
O O4 0.733020 0.307891 0.667103
O O5 0.500000 0.250000 0.456438
O O6 0.750000 0.250000 0.500000
O O7 0.724692 0.303606 0.421986
O O8 0.250000 0.500000 0.860491
O O9 0.254636 0.413754 0.904880
O O10 0.241745 0.420685 0.809483
O O11 0.000000 0.443738 0.863026
O O12 0.000000 0.057167 0.046243
O O13 0.250000 0.000000 0.047502
O O14 0.250000 0.085992 0.000000
O O15 0.760354 0.933444 0.286774
O O16 0.000000 0.904807 0.241086
O O17 0.217505 0.897662 0.375517
O O18 0.000000 0.828999 0.364151
O O19 0.750000 0.500000 0.640914
O O20 0.000000 0.455435 0.661007
#
# Coordination Sequence:
#
# PCOD8277998 Si02
#       7
#    16   8  16  16  16  16  16
#     4  10  19  29  45  69  93 116 147 188 225 261
#     4  10  20  34  54  76  98 122 150 194 239 278
#     4  10  18  28  41  59  84 115 150 186 224 266
#     4  10  17  26  39  55  76 106 144 185 228 271
#     4   9  19  31  43  61  88 123 156 183 218 271
#     4   9  18  33  51  69  93 127 157 182 226 281
#     4   9  17  29  45  67  92 121 158 189 218 264
#
# _framework density 16.274101999999999
#
# number of rings (size 3 to 8) (size 9 to 14) (size 15 to 20)
#    0.000    2.462    0.769    5.077    0.000    5.231 
#    0.000    0.000    0.000    0.462    0.000    3.231 
#    0.000    0.615    0.000    2.000    0.000    3.231 
#
# Total GULP energy -644253.659700 kJ/mol
# GULP energy per Si atom -12389.493456 kJ/mol
# Density = 1.623706 g / cm^3
# Si number density = 16.274102 Si / 1000 Ang^3
#
#
#
# Elastic Constant Matrix: (Units=GPa)
#
#
# Indices 1 2 3 4 5 6 
#
# 1 30.8823 15.6454 25.6396 0.0000 0.0000 0.0000
# 2 15.6454 88.2309 47.7581 0.0000 0.0000 0.0000
# 3 25.6396 47.7581 124.9489 0.0000 0.0000 0.0000
# 4 0.0000 0.0000 0.0000 17.9180 0.0000 0.0000
# 5 0.0000 0.0000 0.0000 0.0000 12.6970 0.0000
# 6 0.0000 0.0000 0.0000 0.0000 0.0000 22.5593
#
#
#
# Elastic Compliance Matrix: (Units=1/GPa)
#
#
# Indices 1 2 3 4 5 6 
#
# 1 0.039789 -0.003324 -0.006894 0.000000 0.000000 0.000000
# 2 -0.003324 0.014568 -0.004886 0.000000 0.000000 0.000000
# 3 -0.006894 -0.004886 0.011286 0.000000 0.000000 0.000000
# 4 0.000000 0.000000 0.000000 0.055810 0.000000 0.000000
# 5 0.000000 0.000000 0.000000 0.000000 0.078759 0.000000
# 6 0.000000 0.000000 0.000000 0.000000 0.000000 0.044328
#
#
# Mechanical properties :
#
#
# Convention : Reuss Voigt Hill
#
# Bulk Modulus (GPa) = 28.22146 46.90535 37.56341
# Shear Modulus (GPa) = 17.44847 20.96946 19.20896
#
# Velocity S-wave (km/s) = 3.27794 3.59349 3.43933
# Velocity P-wave (km/s) = 5.63076 6.78986 6.23729
#
# Compressibility (1/GPa) = 0.03543403
#
# Stress axis : x y z
#
# Youngs Moduli (GPa) = 25.13275 68.64309 88.60857
#
# Poissons Ratio (x) = 0.22815 0.61089
# Poissons Ratio (y) = 0.08353 0.43296
# Poissons Ratio (z) = 0.17327 0.33540
#
# Static dielectric constant tensor:
#      x y z
#    x 3.119280 0.000000 0.000000 
#    y 0.000000 3.025650 0.000000 
#    z 0.000000 0.000000 2.417850 
# 
# 
# High freq. dielectric constant tensor:
#      x y z
#    x 1.632180 0.000000 0.000000 
#    y 0.000000 1.594110 0.000000 
#    z 0.000000 0.000000 1.616470 
# 
# From -- ./inp_files/43861.got.cif
#   From: 2010.03.12/outbox.cif.g09.slc.cpg/sg67_22_cif.got.tgz:43861.got - 2010.04.10 22:41:39.
