data_PCOD8277233
_publ_section_title
;
Structure prediction by ZEFSAII (Michael W. Deem and Ramdas Pophale) SiO2 
 PCOD8277233
Probable space group: C C C M
;
_chemical_formula_sum "Si O2"
_cell_formula_units_Z 112
_cell_length_a 29.697363
_cell_length_b 10.336068
_cell_length_c 16.871549
_cell_angle_alpha 90.000000
_cell_angle_beta 90.000000
_cell_angle_gamma 90.000000
_cell_volume 5178.788834
_symmetry_space_group_name_H-M "C C C M"
_symmetry_group_IT_number 66
_symmetry_cell_setting 'orthorhombic'
loop_
_space_group_symop_operation_xyz
x,y,z
-x,-y,z
x,-y,1/2-z
-x,y,1/2-z
-x,-y,-z
x,y,-z
-x,y,1/2+z
x,-y,1/2+z
1/2+x,1/2+y,z
1/2-x,1/2-y,z
1/2+x,1/2-y,1/2-z
1/2-x,1/2+y,1/2-z
1/2-x,1/2-y,-z
1/2+x,1/2+y,-z
1/2-x,1/2+y,1/2+z
1/2+x,1/2-y,1/2+z
loop_
_atom_site_type_symbol
_atom_site_label
_atom_site_fract_x
_atom_site_fract_y
_atom_site_fract_z
Si Si1 0.557336 0.036146 0.661202
Si Si2 0.299876 0.232097 0.407364
Si Si3 0.046704 0.049788 0.339612
Si Si4 0.662181 0.977043 0.838115
Si Si5 0.355654 0.526863 0.906528
Si Si6 0.487755 0.199734 0.407843
Si Si7 0.697435 0.725900 0.910053
O O1 0.609590 0.025841 0.652881
O O2 0.537156 0.176682 0.633601
O O3 0.541436 0.000000 0.750000
O O4 0.538264 0.935051 0.597555
O O5 0.296398 0.258422 0.500000
O O6 0.250000 0.250000 0.369639
O O7 0.334640 0.338971 0.371591
O O8 0.316780 0.086570 0.393914
O O9 0.093885 0.999636 0.375296
O O10 0.042530 0.203108 0.354288
O O11 0.046185 0.000000 0.250000
O O12 0.000000 0.000000 0.381727
O O13 0.675421 0.833067 0.857063
O O14 0.679224 0.000000 0.750000
O O15 0.320740 0.413656 0.880458
O O16 0.359507 0.535894 0.000000
O O17 0.491739 0.243670 0.500000
O O18 0.750000 0.750000 0.900747
O O19 0.681983 0.745526 0.000000
#
# Coordination Sequence:
#
# PCOD8277233 Si02
#       7
#    16  16  16  16  16  16  16
#     4  10  23  39  66  92 127 167 205 259 329 390
#     4  10  21  41  69  97 128 168 213 264 327 393
#     4  11  27  42  63  87 128 177 220 262 327 395
#     4  11  24  39  60  94 127 165 212 258 312 380
#     4  10  22  41  66  97 130 167 216 274 326 385
#     4  11  23  41  65  94 124 158 213 272 317 373
#     4  10  22  41  65  93 128 168 210 262 327 392
#
# _framework density 21.626677999999998
#
# number of rings (size 3 to 8) (size 9 to 14) (size 15 to 20)
#    0.000    1.571    0.000    4.286    6.000    9.714 
#    0.000    1.429    0.000    0.000    0.000    0.000 
#    0.000    0.000    0.000    0.000    0.000    0.000 
#
# Total GULP energy -693943.324118 kJ/mol
# GULP energy per Si atom -12391.845074 kJ/mol
# Density = 2.157746 g / cm^3
# Si number density = 21.626678 Si / 1000 Ang^3
#
#
#
# Elastic Constant Matrix: (Units=GPa)
#
#
# Indices 1 2 3 4 5 6 
#
# 1 132.5072 32.6004 29.1769 0.0000 0.0000 0.0000
# 2 32.6004 92.6096 35.2001 0.0000 0.0000 0.0000
# 3 29.1769 35.2001 94.3661 0.0000 0.0000 0.0000
# 4 0.0000 0.0000 0.0000 22.1961 0.0000 0.0000
# 5 0.0000 0.0000 0.0000 0.0000 13.7578 0.0000
# 6 0.0000 0.0000 0.0000 0.0000 0.0000 43.1591
#
#
#
# Elastic Compliance Matrix: (Units=1/GPa)
#
#
# Indices 1 2 3 4 5 6 
#
# 1 0.008507 -0.002324 -0.001763 0.000000 0.000000 0.000000
# 2 -0.002324 0.013217 -0.004211 0.000000 0.000000 0.000000
# 3 -0.001763 -0.004211 0.012713 0.000000 0.000000 0.000000
# 4 0.000000 0.000000 0.000000 0.045053 0.000000 0.000000
# 5 0.000000 0.000000 0.000000 0.000000 0.072686 0.000000
# 6 0.000000 0.000000 0.000000 0.000000 0.000000 0.023170
#
#
# Mechanical properties :
#
#
# Convention : Reuss Voigt Hill
#
# Bulk Modulus (GPa) = 56.05744 57.04867 56.55305
# Shear Modulus (GPa) = 25.26649 30.65629 27.96139
#
# Velocity S-wave (km/s) = 3.42175 3.76908 3.59961
# Velocity P-wave (km/s) = 6.44887 6.73628 6.59414
#
# Compressibility (1/GPa) = 0.01783885
#
# Stress axis : x y z
#
# Youngs Moduli (GPa) = 117.55210 75.66015 78.65885
#
# Poissons Ratio (x) = 0.17587 0.13869
# Poissons Ratio (y) = 0.27324 0.33127
# Poissons Ratio (z) = 0.20727 0.31864
#
# Static dielectric constant tensor:
#      x y z
#    x 3.989390 0.000000 0.000000 
#    y 0.000000 4.420680 0.000000 
#    z 0.000000 0.000000 3.776500 
# 
# 
# High freq. dielectric constant tensor:
#      x y z
#    x 1.867550 0.000000 0.000000 
#    y 0.000000 1.855220 0.000000 
#    z 0.000000 0.000000 1.832430 
# 
# From -- ./inp_files/33836.got.cif
#   From: 2010.03.12/outbox.cif.g09.slc.cpg/sg66_17_cif.got.tgz:33836.got - 2010.04.10 21:57:39.
