data_PCOD8277125
_publ_section_title
;
Structure prediction by ZEFSAII (Michael W. Deem and Ramdas Pophale) SiO2 
 PCOD8277125
Probable space group: C C C M
;
_chemical_formula_sum "Si O2"
_cell_formula_units_Z 68
_cell_length_a 5.259228
_cell_length_b 19.125877
_cell_length_c 29.501155
_cell_angle_alpha 90.000000
_cell_angle_beta 90.000000
_cell_angle_gamma 90.000000
_cell_volume 2967.442940
_symmetry_space_group_name_H-M "C C C M"
_symmetry_group_IT_number 66
_symmetry_cell_setting 'orthorhombic'
loop_
_space_group_symop_operation_xyz
x,y,z
-x,-y,z
x,-y,1/2-z
-x,y,1/2-z
-x,-y,-z
x,y,-z
-x,y,1/2+z
x,-y,1/2+z
1/2+x,1/2+y,z
1/2-x,1/2-y,z
1/2+x,1/2-y,1/2-z
1/2-x,1/2+y,1/2-z
1/2-x,1/2-y,-z
1/2+x,1/2+y,-z
1/2-x,1/2+y,1/2+z
1/2+x,1/2-y,1/2+z
loop_
_atom_site_type_symbol
_atom_site_label
_atom_site_fract_x
_atom_site_fract_y
_atom_site_fract_z
Si Si1 0.427215 0.316545 0.951654
Si Si2 0.678630 0.565612 0.175349
Si Si3 0.237442 0.542916 0.576658
Si Si4 0.511966 0.706832 0.353342
Si Si5 0.500000 0.000000 0.750000
O O1 0.250000 0.250000 0.950478
O O2 0.258552 0.386774 0.952374
O O3 0.592258 0.315722 0.905207
O O4 0.582772 0.315432 0.000000
O O5 0.500000 0.500000 0.174435
O O6 0.835472 0.565273 0.128317
O O7 0.520817 0.638140 0.177913
O O8 0.849521 0.555808 0.219528
O O9 0.500000 0.500000 0.573523
O O10 0.000000 0.500000 0.556478
O O11 0.250000 0.750000 0.352308
O O12 0.750000 0.750000 0.333177
#
# Coordination Sequence:
#
# PCOD8277125 Si02
#       5
#    16  16  16  16   4
#     4   9  20  37  60  93 130 170 220 268 314 371
#     4  10  23  39  67  95 126 163 214 260 326 394
#     4  10  21  39  61  89 125 169 212 260 318 386
#     4  10  23  42  68  93 129 178 215 260 323 390
#     4  12  22  40  72  98 126 160 212 284 326 400
#
# _framework density 22.915354000000001
#
# number of rings (size 3 to 8) (size 9 to 14) (size 15 to 20)
#    0.000    2.118    1.176    0.353    3.294   12.706 
#    0.000    4.706    5.176    0.000    0.000    0.000 
#    0.000    0.000    0.000    0.000    0.000    0.000 
#
# Total GULP energy -421236.303735 kJ/mol
# GULP energy per Si atom -12389.303051 kJ/mol
# Density = 2.286320 g / cm^3
# Si number density = 22.915354 Si / 1000 Ang^3
#
#
#
# Elastic Constant Matrix: (Units=GPa)
#
#
# Indices 1 2 3 4 5 6 
#
# 1 115.3454 68.8452 27.2885 0.0000 0.0000 0.0000
# 2 68.8452 197.6717 48.8208 0.0000 0.0000 0.0000
# 3 27.2885 48.8208 117.8898 0.0000 0.0000 0.0000
# 4 0.0000 0.0000 0.0000 42.4033 0.0000 0.0000
# 5 0.0000 0.0000 0.0000 0.0000 9.6194 0.0000
# 6 0.0000 0.0000 0.0000 0.0000 0.0000 40.9335
#
#
#
# Elastic Compliance Matrix: (Units=1/GPa)
#
#
# Indices 1 2 3 4 5 6 
#
# 1 0.011066 -0.003588 -0.001075 0.000000 0.000000 0.000000
# 2 -0.003588 0.006799 -0.001985 0.000000 0.000000 0.000000
# 3 -0.001075 -0.001985 0.009553 0.000000 0.000000 0.000000
# 4 0.000000 0.000000 0.000000 0.023583 0.000000 0.000000
# 5 0.000000 0.000000 0.000000 0.000000 0.103956 0.000000
# 6 0.000000 0.000000 0.000000 0.000000 0.000000 0.024430
#
#
# Mechanical properties :
#
#
# Convention : Reuss Voigt Hill
#
# Bulk Modulus (GPa) = 70.81845 80.09065 75.45455
# Shear Modulus (GPa) = 25.33035 37.65474 31.49254
#
# Velocity S-wave (km/s) = 3.32834 4.05805 3.71118
# Velocity P-wave (km/s) = 6.76328 7.54875 7.16678
#
# Compressibility (1/GPa) = 0.01412061
#
# Stress axis : x y z
#
# Youngs Moduli (GPa) = 90.36842 147.08248 104.67426
#
# Poissons Ratio (x) = 0.52779 0.11257
# Poissons Ratio (y) = 0.32428 0.20777
# Poissons Ratio (z) = 0.09718 0.29195
#
# Static dielectric constant tensor:
#      x y z
#    x 3.689500 0.000000 0.000000 
#    y 0.000000 4.386430 0.000000 
#    z 0.000000 0.000000 5.704890 
# 
# 
# High freq. dielectric constant tensor:
#      x y z
#    x 1.868640 0.000000 0.000000 
#    y 0.000000 1.927240 0.000000 
#    z 0.000000 0.000000 1.897770 
# 
# From -- ./inp_files/67080.got.cif
#   From: 2010.03.12/outbox.cif.g09.slc.cpg/sg66_34_cif.got.tgz:67080.got - 2010.04.10 21:57:39.
