data_PCOD8277527
_publ_section_title
;
Structure prediction by ZEFSAII (Michael W. Deem and Ramdas Pophale) SiO2 
 PCOD8277527
Probable space group: C C C M
;
_chemical_formula_sum "Si O2"
_cell_formula_units_Z 64
_cell_length_a 8.301801
_cell_length_b 15.143254
_cell_length_c 21.121361
_cell_angle_alpha 90.000000
_cell_angle_beta 90.000000
_cell_angle_gamma 90.000000
_cell_volume 2655.298959
_symmetry_space_group_name_H-M "C C C M"
_symmetry_group_IT_number 66
_symmetry_cell_setting 'orthorhombic'
loop_
_space_group_symop_operation_xyz
x,y,z
-x,-y,z
x,-y,1/2-z
-x,y,1/2-z
-x,-y,-z
x,y,-z
-x,y,1/2+z
x,-y,1/2+z
1/2+x,1/2+y,z
1/2-x,1/2-y,z
1/2+x,1/2-y,1/2-z
1/2-x,1/2+y,1/2-z
1/2-x,1/2-y,-z
1/2+x,1/2+y,-z
1/2-x,1/2+y,1/2+z
1/2+x,1/2-y,1/2+z
loop_
_atom_site_type_symbol
_atom_site_label
_atom_site_fract_x
_atom_site_fract_y
_atom_site_fract_z
Si Si1 0.601109 0.588649 0.166774
Si Si2 0.323335 0.159758 0.277508
Si Si3 0.876499 0.174758 0.931404
Si Si4 0.830156 0.471216 0.894562
O O1 0.500000 0.500000 0.183406
O O2 0.682554 0.629154 0.228991
O O3 0.496618 0.662083 0.128366
O O4 0.743221 0.563589 0.118955
O O5 0.500000 0.176487 0.250000
O O6 0.250000 0.250000 0.306037
O O7 0.345848 0.084742 0.329724
O O8 0.750000 0.250000 0.913463
O O9 0.774175 0.085266 0.943423
O O10 0.961457 0.194310 0.000000
O O11 0.000000 0.500000 0.923938
#
# Coordination Sequence:
#
# PCOD8277527 Si02
#       4
#    16  16  16  16
#     4  10  24  42  70  97 137 180 224 272 339 401
#     4  12  27  42  66 102 141 181 220 277 339 411
#     4  10  24  46  71  98 135 177 227 283 338 398
#     4  11  23  42  67 102 137 179 224 277 333 401
#
# _framework density 24.102746
#
# number of rings (size 3 to 8) (size 9 to 14) (size 15 to 20)
#    0.000    1.250    2.500    1.500   10.500    8.000 
#    0.000    0.000    0.000    3.750    0.000    0.000 
#    0.000    0.000    0.000    0.000    0.000    0.000 
#
# Total GULP energy -396421.258594 kJ/mol
# GULP energy per Si atom -12388.164331 kJ/mol
# Density = 2.404789 g / cm^3
# Si number density = 24.102746 Si / 1000 Ang^3
#
#
#
# Elastic Constant Matrix: (Units=GPa)
#
#
# Indices 1 2 3 4 5 6 
#
# 1 111.3759 12.2435 14.8504 0.0000 0.0000 0.0000
# 2 12.2435 72.2351 14.4345 0.0000 0.0000 0.0000
# 3 14.8504 14.4345 111.7814 0.0000 0.0000 0.0000
# 4 0.0000 0.0000 0.0000 21.8784 0.0000 0.0000
# 5 0.0000 0.0000 0.0000 0.0000 28.7536 0.0000
# 6 0.0000 0.0000 0.0000 0.0000 0.0000 45.1386
#
#
#
# Elastic Compliance Matrix: (Units=1/GPa)
#
#
# Indices 1 2 3 4 5 6 
#
# 1 0.009269 -0.001360 -0.001056 0.000000 0.000000 0.000000
# 2 -0.001360 0.014410 -0.001680 0.000000 0.000000 0.000000
# 3 -0.001056 -0.001680 0.009303 0.000000 0.000000 0.000000
# 4 0.000000 0.000000 0.000000 0.045707 0.000000 0.000000
# 5 0.000000 0.000000 0.000000 0.000000 0.034778 0.000000
# 6 0.000000 0.000000 0.000000 0.000000 0.000000 0.022154
#
#
# Mechanical properties :
#
#
# Convention : Reuss Voigt Hill
#
# Bulk Modulus (GPa) = 40.33846 42.04991 41.19418
# Shear Modulus (GPa) = 32.87812 36.07838 34.47825
#
# Velocity S-wave (km/s) = 3.69735 3.87312 3.78626
# Velocity P-wave (km/s) = 5.91605 6.12253 6.02018
#
# Compressibility (1/GPa) = 0.02479024
#
# Stress axis : x y z
#
# Youngs Moduli (GPa) = 107.88781 69.39658 107.48943
#
# Poissons Ratio (x) = 0.09438 0.11348
# Poissons Ratio (y) = 0.14673 0.18059
# Poissons Ratio (z) = 0.11390 0.11659
#
# Static dielectric constant tensor:
#      x y z
#    x 4.775860 0.000000 0.000000 
#    y 0.000000 4.516360 0.000000 
#    z 0.000000 0.000000 4.093070 
# 
# 
# High freq. dielectric constant tensor:
#      x y z
#    x 1.962700 0.000000 0.000000 
#    y 0.000000 1.955620 0.000000 
#    z 0.000000 0.000000 1.955380 
# 
# From -- ./inp_files/54941.got.cif
#   From: 2010.03.12/outbox.cif.g09.slc.cpg/sg66_28_cif.got.tgz:54941.got - 2010.04.10 21:57:39.
