data_PCOD8277161
_publ_section_title
;
Structure prediction by ZEFSAII (Michael W. Deem and Ramdas Pophale) SiO2 
 PCOD8277161
Probable space group: C C C M
;
_chemical_formula_sum "Si O2"
_cell_formula_units_Z 104
_cell_length_a 10.258532
_cell_length_b 17.694112
_cell_length_c 27.896303
_cell_angle_alpha 90.000000
_cell_angle_beta 90.000000
_cell_angle_gamma 90.000000
_cell_volume 5063.614572
_symmetry_space_group_name_H-M "C C C M"
_symmetry_group_IT_number 66
_symmetry_cell_setting 'orthorhombic'
loop_
_space_group_symop_operation_xyz
x,y,z
-x,-y,z
x,-y,1/2-z
-x,y,1/2-z
-x,-y,-z
x,y,-z
-x,y,1/2+z
x,-y,1/2+z
1/2+x,1/2+y,z
1/2-x,1/2-y,z
1/2+x,1/2-y,1/2-z
1/2-x,1/2+y,1/2-z
1/2-x,1/2-y,-z
1/2+x,1/2+y,-z
1/2-x,1/2+y,1/2+z
1/2+x,1/2-y,1/2+z
loop_
_atom_site_type_symbol
_atom_site_label
_atom_site_fract_x
_atom_site_fract_y
_atom_site_fract_z
Si Si1 0.278528 0.907816 0.668883
Si Si2 0.870750 0.201075 0.602097
Si Si3 0.046190 0.915063 0.053837
Si Si4 0.352058 0.400301 0.260863
Si Si5 0.752718 0.567166 0.633659
Si Si6 0.750000 0.750000 0.280245
Si Si7 0.965023 0.677195 0.347318
O O1 0.175867 0.847303 0.648024
O O2 0.230113 0.944425 0.719737
O O3 0.415836 0.866568 0.678166
O O4 0.286867 0.978016 0.631707
O O5 0.750000 0.250000 0.580627
O O6 0.928064 0.143775 0.562684
O O7 0.984661 0.258739 0.616789
O O8 0.160094 0.902803 0.091845
O O9 0.098635 0.901977 0.000000
O O10 0.000000 0.000000 0.060809
O O11 0.500000 0.420994 0.250000
O O12 0.315973 0.414314 0.315697
O O13 0.317574 0.313293 0.247410
O O14 0.885211 0.612920 0.624513
O O15 0.868169 0.715114 0.310124
#
# Coordination Sequence:
#
# PCOD8277161 Si02
#       7
#    16  16  16  16  16   8  16
#     4  11  22  38  62  90 127 175 212 253 311 385
#     4  10  21  39  65  94 127 165 211 261 315 382
#     4  11  23  42  70  95 124 165 214 272 334 391
#     4  11  24  34  58  88 125 168 214 256 306 368
#     4  11  23  41  61  91 125 166 213 265 314 382
#     4  10  22  34  52  82 123 168 207 262 294 376
#     4  10  22  40  61  89 131 166 209 259 322 367
#
# _framework density 20.538686999999999
#
# number of rings (size 3 to 8) (size 9 to 14) (size 15 to 20)
#    0.000    1.385    1.538    4.615    5.385    2.769 
#    0.000    4.615    0.000    2.769    0.000    0.000 
#    0.000    0.000    0.000    0.000    0.000    0.000 
#
# Total GULP energy -644592.898239 kJ/mol
# GULP energy per Si atom -12396.017274 kJ/mol
# Density = 2.049194 g / cm^3
# Si number density = 20.538687 Si / 1000 Ang^3
#
#
#
# Elastic Constant Matrix: (Units=GPa)
#
#
# Indices 1 2 3 4 5 6 
#
# 1 130.7768 51.0495 52.4984 0.0000 0.0000 0.0000
# 2 51.0495 116.1673 34.3053 0.0000 0.0000 0.0000
# 3 52.4984 34.3053 103.4027 0.0000 0.0000 0.0000
# 4 0.0000 0.0000 0.0000 7.4409 0.0000 0.0000
# 5 0.0000 0.0000 0.0000 0.0000 15.3277 0.0000
# 6 0.0000 0.0000 0.0000 0.0000 0.0000 30.9728
#
#
#
# Elastic Compliance Matrix: (Units=1/GPa)
#
#
# Indices 1 2 3 4 5 6 
#
# 1 0.010715 -0.003439 -0.004299 0.000000 0.000000 0.000000
# 2 -0.003439 0.010647 -0.001786 0.000000 0.000000 0.000000
# 3 -0.004299 -0.001786 0.012446 0.000000 0.000000 0.000000
# 4 0.000000 0.000000 0.000000 0.134393 0.000000 0.000000
# 5 0.000000 0.000000 0.000000 0.000000 0.065242 0.000000
# 6 0.000000 0.000000 0.000000 0.000000 0.000000 0.032286
#
#
# Mechanical properties :
#
#
# Convention : Reuss Voigt Hill
#
# Bulk Modulus (GPa) = 67.75371 69.56146 68.65758
# Shear Modulus (GPa) = 17.25938 24.91451 21.08694
#
# Velocity S-wave (km/s) = 2.90200 3.48667 3.20768
# Velocity P-wave (km/s) = 6.65498 7.08175 6.87168
#
# Compressibility (1/GPa) = 0.01475934
#
# Stress axis : x y z
#
# Youngs Moduli (GPa) = 93.32823 93.92255 80.34570
#
# Poissons Ratio (x) = 0.32301 0.34541
# Poissons Ratio (y) = 0.32096 0.14352
# Poissons Ratio (z) = 0.40122 0.16777
#
# Static dielectric constant tensor:
#      x y z
#    x 3.848610 0.000000 0.000000 
#    y 0.000000 4.346960 0.000000 
#    z 0.000000 0.000000 3.366110 
# 
# 
# High freq. dielectric constant tensor:
#      x y z
#    x 1.807660 0.000000 0.000000 
#    y 0.000000 1.835810 0.000000 
#    z 0.000000 0.000000 1.761950 
# 
# From -- ./inp_files/62690.got.cif
#   From: 2010.03.12/outbox.cif.g09.slc.cpg/sg66_32_cif.got.tgz:62690.got - 2010.04.10 21:57:39.
