data_PCOD8277379
_publ_section_title
;
Structure prediction by ZEFSAII (Michael W. Deem and Ramdas Pophale) SiO2 
 PCOD8277379
Probable space group: C C C M
;
_chemical_formula_sum "Si O2"
_cell_formula_units_Z 96
_cell_length_a 19.123786
_cell_length_b 15.415487
_cell_length_c 14.060211
_cell_angle_alpha 90.000000
_cell_angle_beta 90.000000
_cell_angle_gamma 90.000000
_cell_volume 4144.984994
_symmetry_space_group_name_H-M "C C C M"
_symmetry_group_IT_number 66
_symmetry_cell_setting 'orthorhombic'
loop_
_space_group_symop_operation_xyz
x,y,z
-x,-y,z
x,-y,1/2-z
-x,y,1/2-z
-x,-y,-z
x,y,-z
-x,y,1/2+z
x,-y,1/2+z
1/2+x,1/2+y,z
1/2-x,1/2-y,z
1/2+x,1/2-y,1/2-z
1/2-x,1/2+y,1/2-z
1/2-x,1/2-y,-z
1/2+x,1/2+y,-z
1/2-x,1/2+y,1/2+z
1/2+x,1/2-y,1/2+z
loop_
_atom_site_type_symbol
_atom_site_label
_atom_site_fract_x
_atom_site_fract_y
_atom_site_fract_z
Si Si1 0.651524 0.036703 0.393646
Si Si2 0.049177 0.682041 0.390545
Si Si3 0.113752 0.199443 0.255726
Si Si4 0.612175 0.148799 0.109850
Si Si5 0.199095 0.939118 0.664315
Si Si6 0.429920 0.549866 0.106368
O O1 0.622215 0.025147 0.500000
O O2 0.602011 0.109798 0.347199
O O3 0.731645 0.068650 0.399270
O O4 0.642673 0.941341 0.346515
O O5 0.066667 0.706851 0.500000
O O6 0.058901 0.765702 0.323200
O O7 0.971286 0.646932 0.380260
O O8 0.143277 0.273695 0.326138
O O9 0.178944 0.156910 0.200305
O O10 0.076204 0.126347 0.318355
O O11 0.635377 0.163241 0.000000
O O12 0.222412 0.000000 0.750000
O O13 0.134479 0.982673 0.609167
O O14 0.500000 0.500000 0.133621
O O15 0.434295 0.589373 0.000000
#
# Coordination Sequence:
#
# PCOD8277379 Si02
#       6
#    16  16  16  16  16  16
#     4  10  22  44  67  93 135 184 229 276 340 409
#     4  10  23  40  66 102 138 179 225 278 338 402
#     4  11  24  41  65 100 140 170 223 281 336 400
#     4  10  22  41  69 102 136 175 227 285 341 399
#     4  10  24  41  63  92 133 178 225 272 333 405
#     4  10  23  43  70  97 129 175 226 280 338 399
#
# _framework density 23.160518
#
# number of rings (size 3 to 8) (size 9 to 14) (size 15 to 20)
#    0.000    1.833    0.000    2.000    7.000    6.333 
#    3.000    3.333    0.000    5.500    0.000    0.000 
#    0.000    0.000    0.000    0.000    0.000    0.000 
#
# Total GULP energy -595259.460913 kJ/mol
# GULP energy per Si atom -12401.238769 kJ/mol
# Density = 2.310780 g / cm^3
# Si number density = 23.160518 Si / 1000 Ang^3
#
#
#
# Elastic Constant Matrix: (Units=GPa)
#
#
# Indices 1 2 3 4 5 6 
#
# 1 116.6388 68.4950 26.8627 0.0000 0.0000 0.0000
# 2 68.4950 156.3756 63.5260 0.0000 0.0000 0.0000
# 3 26.8627 63.5260 92.5718 0.0000 0.0000 0.0000
# 4 0.0000 0.0000 0.0000 38.9689 0.0000 0.0000
# 5 0.0000 0.0000 0.0000 0.0000 22.1982 0.0000
# 6 0.0000 0.0000 0.0000 0.0000 0.0000 27.2505
#
#
#
# Elastic Compliance Matrix: (Units=1/GPa)
#
#
# Indices 1 2 3 4 5 6 
#
# 1 0.011544 -0.005124 0.000166 0.000000 0.000000 0.000000
# 2 -0.005124 0.011141 -0.006158 0.000000 0.000000 0.000000
# 3 0.000166 -0.006158 0.014980 0.000000 0.000000 0.000000
# 4 0.000000 0.000000 0.000000 0.025661 0.000000 0.000000
# 5 0.000000 0.000000 0.000000 0.000000 0.045049 0.000000
# 6 0.000000 0.000000 0.000000 0.000000 0.000000 0.036697
#
#
# Mechanical properties :
#
#
# Convention : Reuss Voigt Hill
#
# Bulk Modulus (GPa) = 64.79516 75.92817 70.36167
# Shear Modulus (GPa) = 28.99402 31.46369 30.22886
#
# Velocity S-wave (km/s) = 3.54202 3.68979 3.61666
# Velocity P-wave (km/s) = 6.69068 7.14194 6.91999
#
# Compressibility (1/GPa) = 0.01543325
#
# Stress axis : x y z
#
# Youngs Moduli (GPa) = 86.62309 89.75730 66.75438
#
# Poissons Ratio (x) = 0.45993 -0.01111
# Poissons Ratio (y) = 0.44387 0.41111
# Poissons Ratio (z) = -0.01442 0.55277
#
# Static dielectric constant tensor:
#      x y z
#    x 3.872990 0.000000 0.000000 
#    y 0.000000 4.317410 0.000000 
#    z 0.000000 0.000000 4.326170 
# 
# 
# High freq. dielectric constant tensor:
#      x y z
#    x 1.903170 0.000000 0.000000 
#    y 0.000000 1.915540 0.000000 
#    z 0.000000 0.000000 1.928340 
# 
# From -- ./inp_files/31174.got.cif
#   From: 2010.03.12/outbox.cif.g09.slc.cpg/sg66_16_cif.got.tgz:31174.got - 2010.04.10 21:57:39.
