data_PCOD8277026
_publ_section_title
;
Structure prediction by ZEFSAII (Michael W. Deem and Ramdas Pophale) SiO2 
 PCOD8277026
Probable space group: C C C M
;
_chemical_formula_sum "Si O2"
_cell_formula_units_Z 68
_cell_length_a 16.305652
_cell_length_b 21.480259
_cell_length_c 9.273385
_cell_angle_alpha 90.000000
_cell_angle_beta 90.000000
_cell_angle_gamma 90.000000
_cell_volume 3247.999648
_symmetry_space_group_name_H-M "C C C M"
_symmetry_group_IT_number 66
_symmetry_cell_setting 'orthorhombic'
loop_
_space_group_symop_operation_xyz
x,y,z
-x,-y,z
x,-y,1/2-z
-x,y,1/2-z
-x,-y,-z
x,y,-z
-x,y,1/2+z
x,-y,1/2+z
1/2+x,1/2+y,z
1/2-x,1/2-y,z
1/2+x,1/2-y,1/2-z
1/2-x,1/2+y,1/2-z
1/2-x,1/2-y,-z
1/2+x,1/2+y,-z
1/2-x,1/2+y,1/2+z
1/2+x,1/2-y,1/2+z
loop_
_atom_site_type_symbol
_atom_site_label
_atom_site_fract_x
_atom_site_fract_y
_atom_site_fract_z
Si Si1 0.414226 0.838712 0.668951
Si Si2 0.082777 0.198015 0.164758
Si Si3 0.500000 0.500000 0.250000
Si Si4 0.819659 0.558922 0.665692
Si Si5 0.138291 0.909050 0.156474
O O1 0.500000 0.848326 0.750000
O O2 0.423279 0.856753 0.500000
O O3 0.382589 0.767639 0.684451
O O4 0.346752 0.879528 0.749361
O O5 0.143637 0.145455 0.224562
O O6 0.000000 0.188815 0.250000
O O7 0.064729 0.182903 0.000000
O O8 0.560110 0.455216 0.159847
O O9 0.858338 0.500000 0.750000
O O10 0.851139 0.560209 0.500000
O O11 0.721635 0.552035 0.672431
O O12 0.136179 0.876376 0.000000
#
# Coordination Sequence:
#
# PCOD8277026 Si02
#       5
#    16  16   4  16  16
#     4  10  22  42  66  93 122 160 204 255 311 369
#     4  10  21  37  61  90 123 160 206 255 305 363
#     4  12  22  40  64  94 128 168 208 240 302 356
#     4  11  24  42  62  91 126 162 204 257 309 366
#     4  11  24  39  61  92 127 166 208 251 303 362
#
# _framework density 20.935963000000001
#
# number of rings (size 3 to 8) (size 9 to 14) (size 15 to 20)
#    0.000    1.412    2.353    2.471    0.000    7.059 
#    0.000    7.059    0.000    0.000    0.000    0.000 
#    0.000    0.000    0.000    0.000    0.000    0.000 
#
# Total GULP energy -421488.083258 kJ/mol
# GULP energy per Si atom -12396.708331 kJ/mol
# Density = 2.088831 g / cm^3
# Si number density = 20.935963 Si / 1000 Ang^3
#
#
#
# Elastic Constant Matrix: (Units=GPa)
#
#
# Indices 1 2 3 4 5 6 
#
# 1 59.1193 25.4251 32.5445 0.0000 0.0000 0.0000
# 2 25.4251 119.0237 78.2063 0.0000 0.0000 0.0000
# 3 32.5445 78.2063 187.8464 0.0000 0.0000 0.0000
# 4 0.0000 0.0000 0.0000 35.2311 0.0000 0.0000
# 5 0.0000 0.0000 0.0000 0.0000 31.1186 0.0000
# 6 0.0000 0.0000 0.0000 0.0000 0.0000 27.1954
#
#
#
# Elastic Compliance Matrix: (Units=1/GPa)
#
#
# Indices 1 2 3 4 5 6 
#
# 1 0.019286 -0.002649 -0.002239 0.000000 0.000000 0.000000
# 2 -0.002649 0.011929 -0.004508 0.000000 0.000000 0.000000
# 3 -0.002239 -0.004508 0.007588 0.000000 0.000000 0.000000
# 4 0.000000 0.000000 0.000000 0.028384 0.000000 0.000000
# 5 0.000000 0.000000 0.000000 0.000000 0.032135 0.000000
# 6 0.000000 0.000000 0.000000 0.000000 0.000000 0.036771
#
#
# Mechanical properties :
#
#
# Convention : Reuss Voigt Hill
#
# Bulk Modulus (GPa) = 49.96623 70.92679 60.44651
# Shear Modulus (GPa) = 30.94914 34.02991 32.48953
#
# Velocity S-wave (km/s) = 3.84901 4.03603 3.94363
# Velocity P-wave (km/s) = 6.60842 7.46130 7.04777
#
# Compressibility (1/GPa) = 0.02001352
#
# Stress axis : x y z
#
# Youngs Moduli (GPa) = 51.84982 83.82692 131.78730
#
# Poissons Ratio (x) = 0.22206 0.29501
# Poissons Ratio (y) = 0.13735 0.59405
# Poissons Ratio (z) = 0.11607 0.37786
#
# Static dielectric constant tensor:
#      x y z
#    x 3.490120 0.000000 0.000000 
#    y 0.000000 3.877670 0.000000 
#    z 0.000000 0.000000 4.086130 
# 
# 
# High freq. dielectric constant tensor:
#      x y z
#    x 1.800110 0.000000 0.000000 
#    y 0.000000 1.826250 0.000000 
#    z 0.000000 0.000000 1.836730 
# 
# From -- ./inp_files/6256.got.cif
#   From: 2010.03.12/outbox.cif.g09.slc.cpg/sg66_4_cif.got.tgz:6256.got - 2010.04.10 21:57:39.
