data_PCOD8277216
_publ_section_title
;
Structure prediction by ZEFSAII (Michael W. Deem and Ramdas Pophale) SiO2 
 PCOD8277216
Probable space group: C C C M
;
_chemical_formula_sum "Si O2"
_cell_formula_units_Z 64
_cell_length_a 5.143085
_cell_length_b 34.153841
_cell_length_c 15.806041
_cell_angle_alpha 90.000000
_cell_angle_beta 90.000000
_cell_angle_gamma 90.000000
_cell_volume 2776.427635
_symmetry_space_group_name_H-M "C C C M"
_symmetry_group_IT_number 66
_symmetry_cell_setting 'orthorhombic'
loop_
_space_group_symop_operation_xyz
x,y,z
-x,-y,z
x,-y,1/2-z
-x,y,1/2-z
-x,-y,-z
x,y,-z
-x,y,1/2+z
x,-y,1/2+z
1/2+x,1/2+y,z
1/2-x,1/2-y,z
1/2+x,1/2-y,1/2-z
1/2-x,1/2+y,1/2-z
1/2-x,1/2-y,-z
1/2+x,1/2+y,-z
1/2-x,1/2+y,1/2+z
1/2+x,1/2-y,1/2+z
loop_
_atom_site_type_symbol
_atom_site_label
_atom_site_fract_x
_atom_site_fract_y
_atom_site_fract_z
Si Si1 0.245431 0.017533 0.344596
Si Si2 0.572039 0.141134 0.656250
Si Si3 0.493216 0.775027 0.095234
Si Si4 0.900496 0.099753 0.095389
O O1 0.208671 0.064162 0.346643
O O2 0.500000 0.000000 0.391239
O O3 0.248851 0.000000 0.250000
O O4 0.000000 0.000000 0.394735
O O5 0.500000 0.127244 0.750000
O O6 0.574132 0.188029 0.652253
O O7 0.341978 0.129135 0.592537
O O8 0.847076 0.121182 0.633403
O O9 0.750000 0.750000 0.093560
O O10 0.250000 0.750000 0.133525
O O11 0.418271 0.788443 0.000000
O O12 0.963111 0.085891 0.000000
#
# Coordination Sequence:
#
# PCOD8277216 Si02
#       4
#    16  16  16  16
#     4  10  23  40  67  96 132 177 220 288 339 419
#     4  12  27  43  70 104 141 187 231 287 349 416
#     4  10  21  40  67  97 136 182 228 283 345 407
#     4  12  26  45  70 101 141 182 235 289 347 419
#
# _framework density 23.051203000000001
#
# number of rings (size 3 to 8) (size 9 to 14) (size 15 to 20)
#    0.000    1.000    0.000    6.000   10.500    4.000 
#    0.000    0.000    0.000    0.000    0.000    0.000 
#    0.000    0.000    0.000    0.000    0.000    0.000 
#
# Total GULP energy -396543.483654 kJ/mol
# GULP energy per Si atom -12391.983864 kJ/mol
# Density = 2.299874 g / cm^3
# Si number density = 23.051203 Si / 1000 Ang^3
#
#
#
# Elastic Constant Matrix: (Units=GPa)
#
#
# Indices 1 2 3 4 5 6 
#
# 1 222.0124 80.4251 18.3355 0.0000 0.0000 0.0000
# 2 80.4251 156.9099 45.3492 0.0000 0.0000 0.0000
# 3 18.3355 45.3492 79.8109 0.0000 0.0000 0.0000
# 4 0.0000 0.0000 0.0000 28.9676 0.0000 0.0000
# 5 0.0000 0.0000 0.0000 0.0000 9.2673 0.0000
# 6 0.0000 0.0000 0.0000 0.0000 0.0000 48.6227
#
#
#
# Elastic Compliance Matrix: (Units=1/GPa)
#
#
# Indices 1 2 3 4 5 6 
#
# 1 0.005542 -0.002959 0.000408 0.000000 0.000000 0.000000
# 2 -0.002959 0.009205 -0.004550 0.000000 0.000000 0.000000
# 3 0.000408 -0.004550 0.015022 0.000000 0.000000 0.000000
# 4 0.000000 0.000000 0.000000 0.034521 0.000000 0.000000
# 5 0.000000 0.000000 0.000000 0.000000 0.107906 0.000000
# 6 0.000000 0.000000 0.000000 0.000000 0.000000 0.020567
#
#
# Mechanical properties :
#
#
# Convention : Reuss Voigt Hill
#
# Bulk Modulus (GPa) = 64.24241 82.99474 73.61857
# Shear Modulus (GPa) = 23.56779 38.34642 30.95710
#
# Velocity S-wave (km/s) = 3.20098 4.08307 3.66863
# Velocity P-wave (km/s) = 6.44916 7.63618 7.06764
#
# Compressibility (1/GPa) = 0.01556604
#
# Stress axis : x y z
#
# Youngs Moduli (GPa) = 180.42891 108.64014 66.57111
#
# Poissons Ratio (x) = 0.32143 -0.02715
# Poissons Ratio (y) = 0.53382 0.30293
# Poissons Ratio (z) = -0.07359 0.49436
#
# Static dielectric constant tensor:
#      x y z
#    x 0.102920 0.000000 0.000000 
#    y 0.000000 2.242860 0.000000 
#    z 0.000000 0.000000 3.892030 
# 
# 
# High freq. dielectric constant tensor:
#      x y z
#    x 1.940420 0.000000 0.000000 
#    y 0.000000 1.918480 0.000000 
#    z 0.000000 0.000000 1.887270 
# 
# From -- ./inp_files/35049.got.cif
#   From: 2010.03.12/outbox.cif.g09.slc.cpg/sg66_18_cif.got.tgz:35049.got - 2010.04.10 21:57:39.
