data_PCOD8277555
_publ_section_title
;
Structure prediction by ZEFSAII (Michael W. Deem and Ramdas Pophale) SiO2 
 PCOD8277555
Probable space group: C C C M
;
_chemical_formula_sum "Si O2"
_cell_formula_units_Z 68
_cell_length_a 8.952489
_cell_length_b 14.185786
_cell_length_c 25.784178
_cell_angle_alpha 90.000000
_cell_angle_beta 90.000000
_cell_angle_gamma 90.000000
_cell_volume 3274.541439
_symmetry_space_group_name_H-M "C C C M"
_symmetry_group_IT_number 66
_symmetry_cell_setting 'orthorhombic'
loop_
_space_group_symop_operation_xyz
x,y,z
-x,-y,z
x,-y,1/2-z
-x,y,1/2-z
-x,-y,-z
x,y,-z
-x,y,1/2+z
x,-y,1/2+z
1/2+x,1/2+y,z
1/2-x,1/2-y,z
1/2+x,1/2-y,1/2-z
1/2-x,1/2+y,1/2-z
1/2-x,1/2-y,-z
1/2+x,1/2+y,-z
1/2-x,1/2+y,1/2+z
1/2+x,1/2-y,1/2+z
loop_
_atom_site_type_symbol
_atom_site_label
_atom_site_fract_x
_atom_site_fract_y
_atom_site_fract_z
Si Si1 0.401633 0.419297 0.603964
Si Si2 0.259697 0.954362 0.000000
Si Si3 0.340740 0.155844 0.680623
Si Si4 0.500000 0.000000 0.250000
Si Si5 0.085813 0.263136 0.107010
Si Si6 0.449413 0.861613 0.500000
O O1 0.500000 0.500000 0.631686
O O2 0.343890 0.458545 0.549774
O O3 0.264589 0.393890 0.639759
O O4 0.508159 0.333221 0.592271
O O5 0.368583 0.862605 0.000000
O O6 0.375309 0.037830 0.000000
O O7 0.250000 0.250000 0.703166
O O8 0.491468 0.183889 0.650992
O O9 0.388780 0.073082 0.720340
O O10 0.250000 0.250000 0.131623
O O11 0.106451 0.314712 0.052603
#
# Coordination Sequence:
#
# PCOD8277555 Si02
#       6
#    16   8  16   4  16   8
#     4  11  23  41  65  98 137 179 223 272 335 410
#     4  11  22  35  62  96 138 180 224 271 314 420
#     4  10  26  49  71 105 131 178 231 285 361 418
#     4  12  28  48  86  92 144 176 230 316 364 416
#     4  11  23  40  67  96 139 175 222 279 333 414
#     4  11  22  35  60  98 134 184 226 263 330 404
#
# _framework density 20.766266000000002
#
# number of rings (size 3 to 8) (size 9 to 14) (size 15 to 20)
#    0.000    1.176    2.353    2.824    6.588    1.882 
#    4.235    0.000    0.000    0.000    0.000    0.000 
#    0.000    0.000    0.000    0.000    0.000    0.000 
#
# Total GULP energy -421331.864110 kJ/mol
# GULP energy per Si atom -12392.113650 kJ/mol
# Density = 2.071900 g / cm^3
# Si number density = 20.766266 Si / 1000 Ang^3
#
#
#
# Elastic Constant Matrix: (Units=GPa)
#
#
# Indices 1 2 3 4 5 6 
#
# 1 162.0083 60.2307 47.2386 0.0000 0.0000 0.0000
# 2 60.2307 121.5988 55.4435 0.0000 0.0000 0.0000
# 3 47.2386 55.4435 78.4128 0.0000 0.0000 0.0000
# 4 0.0000 0.0000 0.0000 35.1114 0.0000 0.0000
# 5 0.0000 0.0000 0.0000 0.0000 34.0503 0.0000
# 6 0.0000 0.0000 0.0000 0.0000 0.0000 41.0081
#
#
#
# Elastic Compliance Matrix: (Units=1/GPa)
#
#
# Indices 1 2 3 4 5 6 
#
# 1 0.008012 -0.002609 -0.002982 0.000000 0.000000 0.000000
# 2 -0.002609 0.012986 -0.007610 0.000000 0.000000 0.000000
# 3 -0.002982 -0.007610 0.019931 0.000000 0.000000 0.000000
# 4 0.000000 0.000000 0.000000 0.028481 0.000000 0.000000
# 5 0.000000 0.000000 0.000000 0.000000 0.029368 0.000000
# 6 0.000000 0.000000 0.000000 0.000000 0.000000 0.024385
#
#
# Mechanical properties :
#
#
# Convention : Reuss Voigt Hill
#
# Bulk Modulus (GPa) = 68.84201 76.42729 72.63465
# Shear Modulus (GPa) = 32.38185 35.30776 33.84481
#
# Velocity S-wave (km/s) = 3.95314 4.12788 4.04145
# Velocity P-wave (km/s) = 7.35250 7.72027 7.53863
#
# Compressibility (1/GPa) = 0.01452601
#
# Stress axis : x y z
#
# Youngs Moduli (GPa) = 124.81394 77.00625 50.17413
#
# Poissons Ratio (x) = 0.20090 0.14962
# Poissons Ratio (y) = 0.32562 0.38184
# Poissons Ratio (z) = 0.37220 0.58605
#
# Static dielectric constant tensor:
#      x y z
#    x 3.721160 0.000000 0.000000 
#    y 0.000000 4.106030 0.000000 
#    z 0.000000 0.000000 3.531080 
# 
# 
# High freq. dielectric constant tensor:
#      x y z
#    x 1.840580 0.000000 0.000000 
#    y 0.000000 1.829530 0.000000 
#    z 0.000000 0.000000 1.787680 
# 
# From -- ./inp_files/62123.got.cif
#   From: 2010.03.12/outbox.cif.g09.slc.cpg/sg66_32_cif.got.tgz:62123.got - 2010.04.10 21:57:39.
