data_PCOD8277167
_publ_section_title
;
Structure prediction by ZEFSAII (Michael W. Deem and Ramdas Pophale) SiO2 
 PCOD8277167
Probable space group: C C C M
;
_chemical_formula_sum "Si O2"
_cell_formula_units_Z 104
_cell_length_a 9.594814
_cell_length_b 19.701873
_cell_length_c 26.334014
_cell_angle_alpha 90.000000
_cell_angle_beta 90.000000
_cell_angle_gamma 90.000000
_cell_volume 4978.071585
_symmetry_space_group_name_H-M "C C C M"
_symmetry_group_IT_number 66
_symmetry_cell_setting 'orthorhombic'
loop_
_space_group_symop_operation_xyz
x,y,z
-x,-y,z
x,-y,1/2-z
-x,y,1/2-z
-x,-y,-z
x,y,-z
-x,y,1/2+z
x,-y,1/2+z
1/2+x,1/2+y,z
1/2-x,1/2-y,z
1/2+x,1/2-y,1/2-z
1/2-x,1/2+y,1/2-z
1/2-x,1/2-y,-z
1/2+x,1/2+y,-z
1/2-x,1/2+y,1/2+z
1/2+x,1/2-y,1/2+z
loop_
_atom_site_type_symbol
_atom_site_label
_atom_site_fract_x
_atom_site_fract_y
_atom_site_fract_z
Si Si1 0.250000 0.750000 0.167652
Si Si2 0.234694 0.454378 0.662285
Si Si3 0.988987 0.074927 0.908108
Si Si4 0.657445 0.364064 0.758167
Si Si5 0.577527 0.185200 0.000000
Si Si6 0.099525 0.833460 0.000000
Si Si7 0.455581 0.148709 0.611328
Si Si8 0.257026 0.889322 0.652394
O O1 0.336624 0.700185 0.204117
O O2 0.361288 0.788511 0.131603
O O3 0.383413 0.433257 0.638502
O O4 0.245139 0.423738 0.718878
O O5 0.203995 0.533512 0.666305
O O6 0.111290 0.421894 0.629271
O O7 0.133366 0.107074 0.888712
O O8 0.932151 0.125591 0.949592
O O9 0.000000 0.000000 0.933134
O O10 0.500000 0.389162 0.750000
O O11 0.716496 0.347380 0.702572
O O12 0.741643 0.185326 0.000000
O O13 0.516633 0.262118 0.000000
O O14 0.527412 0.147125 0.050595
O O15 0.612716 0.152750 0.631375
#
# Coordination Sequence:
#
# PCOD8277167 Si02
#       8
#     8  16  16  16   8   8  16  16
#     4  10  26  41  64  92 136 177 224 264 324 400
#     4  10  21  41  66  94 131 172 218 266 329 397
#     4  10  21  39  65  97 130 167 214 272 332 385
#     4  11  23  39  65  96 132 176 218 262 329 395
#     4  11  24  39  71  92 126 176 225 261 328 394
#     4  11  21  41  68  93 122 177 221 265 322 400
#     4  11  24  45  65  97 132 173 223 271 328 389
#     4  11  24  40  66  98 133 170 215 280 324 380
#
# _framework density 20.891622999999999
#
# number of rings (size 3 to 8) (size 9 to 14) (size 15 to 20)
#    0.000    1.385    3.077    2.077    4.308    3.077 
#    0.000    6.154    0.000    0.000    0.000    0.000 
#    0.000    0.000    0.000    0.000    0.000    0.000 
#
# Total GULP energy -644750.614360 kJ/mol
# GULP energy per Si atom -12399.050276 kJ/mol
# Density = 2.084407 g / cm^3
# Si number density = 20.891623 Si / 1000 Ang^3
#
#
#
# Elastic Constant Matrix: (Units=GPa)
#
#
# Indices 1 2 3 4 5 6 
#
# 1 108.3865 19.1193 44.6036 0.0000 0.0000 0.0000
# 2 19.1193 56.2048 38.9477 0.0000 0.0000 0.0000
# 3 44.6036 38.9477 127.8189 0.0000 0.0000 0.0000
# 4 0.0000 0.0000 0.0000 23.7716 0.0000 0.0000
# 5 0.0000 0.0000 0.0000 0.0000 30.1685 0.0000
# 6 0.0000 0.0000 0.0000 0.0000 0.0000 31.2371
#
#
#
# Elastic Compliance Matrix: (Units=1/GPa)
#
#
# Indices 1 2 3 4 5 6 
#
# 1 0.010854 -0.001353 -0.003375 0.000000 0.000000 0.000000
# 2 -0.001353 0.022723 -0.006452 0.000000 0.000000 0.000000
# 3 -0.003375 -0.006452 0.010967 0.000000 0.000000 0.000000
# 4 0.000000 0.000000 0.000000 0.042067 0.000000 0.000000
# 5 0.000000 0.000000 0.000000 0.000000 0.033147 0.000000
# 6 0.000000 0.000000 0.000000 0.000000 0.000000 0.032013
#
#
# Mechanical properties :
#
#
# Convention : Reuss Voigt Hill
#
# Bulk Modulus (GPa) = 45.07771 55.30572 50.19172
# Shear Modulus (GPa) = 27.54411 29.68475 28.61443
#
# Velocity S-wave (km/s) = 3.63496 3.77356 3.70491
# Velocity P-wave (km/s) = 6.26426 6.74659 6.50990
#
# Compressibility (1/GPa) = 0.02218391
#
# Stress axis : x y z
#
# Youngs Moduli (GPa) = 92.13239 44.00782 91.18023
#
# Poissons Ratio (x) = 0.05956 0.30775
# Poissons Ratio (y) = 0.12468 0.58827
# Poissons Ratio (z) = 0.31097 0.28393
#
# Static dielectric constant tensor:
#      x y z
#    x 3.676350 0.000000 0.000000 
#    y 0.000000 3.920530 0.000000 
#    z 0.000000 0.000000 3.912080 
# 
# 
# High freq. dielectric constant tensor:
#      x y z
#    x 1.810110 0.000000 0.000000 
#    y 0.000000 1.817900 0.000000 
#    z 0.000000 0.000000 1.826400 
# 
# From -- ./inp_files/62726.got.cif
#   From: 2010.03.12/outbox.cif.g09.slc.cpg/sg66_32_cif.got.tgz:62726.got - 2010.04.10 21:57:39.
