data_PCOD8277371
_publ_section_title
;
Structure prediction by ZEFSAII (Michael W. Deem and Ramdas Pophale) SiO2 
 PCOD8277371
Probable space group: C C C M
;
_chemical_formula_sum "Si O2"
_cell_formula_units_Z 96
_cell_length_a 17.004362
_cell_length_b 11.637437
_cell_length_c 22.907779
_cell_angle_alpha 90.000000
_cell_angle_beta 90.000000
_cell_angle_gamma 90.000000
_cell_volume 4533.156050
_symmetry_space_group_name_H-M "C C C M"
_symmetry_group_IT_number 66
_symmetry_cell_setting 'orthorhombic'
loop_
_space_group_symop_operation_xyz
x,y,z
-x,-y,z
x,-y,1/2-z
-x,y,1/2-z
-x,-y,-z
x,y,-z
-x,y,1/2+z
x,-y,1/2+z
1/2+x,1/2+y,z
1/2-x,1/2-y,z
1/2+x,1/2-y,1/2-z
1/2-x,1/2+y,1/2-z
1/2-x,1/2-y,-z
1/2+x,1/2+y,-z
1/2-x,1/2+y,1/2+z
1/2+x,1/2-y,1/2+z
loop_
_atom_site_type_symbol
_atom_site_label
_atom_site_fract_x
_atom_site_fract_y
_atom_site_fract_z
Si Si1 0.908066 0.871740 0.745307
Si Si2 0.604515 0.728072 0.381246
Si Si3 0.548315 0.854631 0.931670
Si Si4 0.669933 0.498775 0.065685
Si Si5 0.654757 0.061060 0.934390
Si Si6 0.161306 0.787403 0.640274
O O1 0.887921 0.811379 0.684749
O O2 0.877032 0.787529 0.795658
O O3 0.000000 0.884976 0.750000
O O4 0.869855 0.000000 0.750000
O O5 0.522286 0.791357 0.397697
O O6 0.626748 0.622004 0.422762
O O7 0.666004 0.831113 0.391089
O O8 0.627289 0.803892 0.904493
O O9 0.571685 0.991219 0.922732
O O10 0.541272 0.826868 0.000000
O O11 0.764256 0.506610 0.072044
O O12 0.640000 0.588737 0.113065
O O13 0.646546 0.535357 0.000000
O O14 0.646453 0.109498 0.000000
O O15 0.250000 0.750000 0.648910
#
# Coordination Sequence:
#
# PCOD8277371 Si02
#       6
#    16  16  16  16  16  16
#     4  11  24  46  67  88 125 175 216 278 333 374
#     4  12  23  41  67  94 133 170 228 271 327 397
#     4  11  23  40  67 100 135 173 210 269 340 403
#     4  11  23  39  65 100 134 169 216 278 337 402
#     4  10  22  41  65  97 138 176 210 265 342 407
#     4  12  24  43  67  95 129 171 223 267 329 401
#
# _framework density 21.177299000000001
#
# number of rings (size 3 to 8) (size 9 to 14) (size 15 to 20)
#    0.000    0.833    5.000    3.000    0.000    5.333 
#    0.000    2.500    0.000    0.000    0.000    0.000 
#    0.000    0.000    0.000    0.000    0.000    0.000 
#
# Total GULP energy -594728.267576 kJ/mol
# GULP energy per Si atom -12390.172241 kJ/mol
# Density = 2.112910 g / cm^3
# Si number density = 21.177299 Si / 1000 Ang^3
#
#
#
# Elastic Constant Matrix: (Units=GPa)
#
#
# Indices 1 2 3 4 5 6 
#
# 1 31.7320 -5.9888 18.5769 0.0000 0.0000 0.0000
# 2 -5.9888 88.5879 53.7399 0.0000 0.0000 0.0000
# 3 18.5769 53.7399 145.2609 0.0000 0.0000 0.0000
# 4 0.0000 0.0000 0.0000 -167.4425 0.0000 0.0000
# 5 0.0000 0.0000 0.0000 0.0000 30.9056 0.0000
# 6 0.0000 0.0000 0.0000 0.0000 0.0000 26.1047
#
#
#
# Elastic Compliance Matrix: (Units=1/GPa)
#
#
# Indices 1 2 3 4 5 6 
#
# 1 0.037108 0.006946 -0.007315 0.000000 0.000000 0.000000
# 2 0.006946 0.015855 -0.006754 0.000000 0.000000 0.000000
# 3 -0.007315 -0.006754 0.010318 0.000000 0.000000 0.000000
# 4 0.000000 0.000000 0.000000 -0.005972 0.000000 0.000000
# 5 0.000000 0.000000 0.000000 0.000000 0.032357 0.000000
# 6 0.000000 0.000000 0.000000 0.000000 0.000000 0.038307
#
#
# Mechanical properties :
#
#
# Convention : Reuss Voigt Hill
#
# Bulk Modulus (GPa) = 20.39368 44.24852 32.32110
# Shear Modulus (GPa) = 31.53311 -8.80293 11.36509
#
# Velocity S-wave (km/s) = 3.86295 -2.04103 2.31911
# Velocity P-wave (km/s) = 5.43575 3.92241 4.73987
#
# Compressibility (1/GPa) = 0.04903481
#
# Stress axis : x y z
#
# Youngs Moduli (GPa) = 26.94869 63.07181 96.91468
#
# Poissons Ratio (x) = -0.43811 0.70897
# Poissons Ratio (y) = -0.18719 0.65456
# Poissons Ratio (z) = 0.19714 0.42598
#
# Static dielectric constant tensor:
#      x y z
#    x 3.874400 0.000000 0.000000 
#    y 0.000000 4.414910 0.000000 
#    z 0.000000 0.000000 4.823170 
# 
# 
# High freq. dielectric constant tensor:
#      x y z
#    x 1.839170 0.000000 0.000000 
#    y 0.000000 1.839600 0.000000 
#    z 0.000000 0.000000 1.826450 
# 
# From -- ./inp_files/58772.got.cif
#   From: 2010.03.12/outbox.cif.g09.slc.cpg/sg66_30_cif.got.tgz:58772.got - 2010.04.10 21:57:39.
