data_PCOD8277228
_publ_section_title
;
Structure prediction by ZEFSAII (Michael W. Deem and Ramdas Pophale) SiO2 
 PCOD8277228
Probable space group: C C C M
;
_chemical_formula_sum "Si O2"
_cell_formula_units_Z 68
_cell_length_a 21.943122
_cell_length_b 16.191699
_cell_length_c 9.087104
_cell_angle_alpha 90.000000
_cell_angle_beta 90.000000
_cell_angle_gamma 90.000000
_cell_volume 3228.615579
_symmetry_space_group_name_H-M "C C C M"
_symmetry_group_IT_number 66
_symmetry_cell_setting 'orthorhombic'
loop_
_space_group_symop_operation_xyz
x,y,z
-x,-y,z
x,-y,1/2-z
-x,y,1/2-z
-x,-y,-z
x,y,-z
-x,y,1/2+z
x,-y,1/2+z
1/2+x,1/2+y,z
1/2-x,1/2-y,z
1/2+x,1/2-y,1/2-z
1/2-x,1/2+y,1/2-z
1/2-x,1/2-y,-z
1/2+x,1/2+y,-z
1/2-x,1/2+y,1/2+z
1/2+x,1/2-y,1/2+z
loop_
_atom_site_type_symbol
_atom_site_label
_atom_site_fract_x
_atom_site_fract_y
_atom_site_fract_z
Si Si1 0.422209 0.349529 0.161938
Si Si2 0.659840 0.912790 0.825085
Si Si3 0.795625 0.919701 0.165897
Si Si4 0.000000 0.000000 0.750000
Si Si5 0.058833 0.308609 0.673693
O O1 0.349248 0.353835 0.187114
O O2 0.455167 0.439098 0.159842
O O3 0.445790 0.289716 0.291363
O O4 0.433873 0.309920 0.000000
O O5 0.729249 0.886022 0.785106
O O6 0.618803 0.843372 0.750418
O O7 0.644062 0.000000 0.750000
O O8 0.647734 0.917353 0.000000
O O9 0.816487 0.000000 0.250000
O O10 0.789409 0.949251 0.000000
O O11 0.059330 0.324497 0.500000
O O12 0.000000 0.351749 0.750000
#
# Coordination Sequence:
#
# PCOD8277228 Si02
#       5
#    16  16  16   4  16
#     4  11  23  39  61  93 130 168 209 252 304 362
#     4  10  21  41  67  93 124 161 205 255 311 369
#     4   9  19  36  60  90 124 164 207 254 304 362
#     4  12  22  36  68  94 132 168 212 240 302 356
#     4  12  26  43  63  90 124 161 206 258 313 370
#
# _framework density 21.061658999999999
#
# number of rings (size 3 to 8) (size 9 to 14) (size 15 to 20)
#    0.000    1.412    2.353    3.176    0.000    4.235 
#    0.000    7.059    0.000    0.000    0.000    0.000 
#    0.000    0.000    0.000    0.000    0.000    0.000 
#
# Total GULP energy -421389.762272 kJ/mol
# GULP energy per Si atom -12393.816537 kJ/mol
# Density = 2.101372 g / cm^3
# Si number density = 21.061659 Si / 1000 Ang^3
#
#
#
# Elastic Constant Matrix: (Units=GPa)
#
#
# Indices 1 2 3 4 5 6 
#
# 1 120.9248 31.8092 47.4606 0.0000 0.0000 0.0000
# 2 31.8092 63.1831 25.6627 0.0000 0.0000 0.0000
# 3 47.4606 25.6627 127.5113 0.0000 0.0000 0.0000
# 4 0.0000 0.0000 0.0000 35.0454 0.0000 0.0000
# 5 0.0000 0.0000 0.0000 0.0000 30.5635 0.0000
# 6 0.0000 0.0000 0.0000 0.0000 0.0000 21.3591
#
#
#
# Elastic Compliance Matrix: (Units=1/GPa)
#
#
# Indices 1 2 3 4 5 6 
#
# 1 0.010557 -0.004050 -0.003114 0.000000 0.000000 0.000000
# 2 -0.004050 0.018790 -0.002274 0.000000 0.000000 0.000000
# 3 -0.003114 -0.002274 0.009459 0.000000 0.000000 0.000000
# 4 0.000000 0.000000 0.000000 0.028534 0.000000 0.000000
# 5 0.000000 0.000000 0.000000 0.000000 0.032719 0.000000
# 6 0.000000 0.000000 0.000000 0.000000 0.000000 0.046818
#
#
# Mechanical properties :
#
#
# Convention : Reuss Voigt Hill
#
# Bulk Modulus (GPa) = 50.17776 57.94269 54.06023
# Shear Modulus (GPa) = 29.00265 31.17272 30.08769
#
# Velocity S-wave (km/s) = 3.71487 3.85134 3.78372
# Velocity P-wave (km/s) = 6.50202 6.88097 6.69418
#
# Compressibility (1/GPa) = 0.01992915
#
# Stress axis : x y z
#
# Youngs Moduli (GPa) = 94.72106 53.22077 105.71578
#
# Poissons Ratio (x) = 0.21555 0.32924
# Poissons Ratio (y) = 0.38363 0.24041
# Poissons Ratio (z) = 0.29500 0.12103
#
# Static dielectric constant tensor:
#      x y z
#    x 4.362200 0.000000 0.000000 
#    y 0.000000 3.560890 0.000000 
#    z 0.000000 0.000000 3.671720 
# 
# 
# High freq. dielectric constant tensor:
#      x y z
#    x 1.856100 0.000000 0.000000 
#    y 0.000000 1.796860 0.000000 
#    z 0.000000 0.000000 1.825720 
# 
# From -- ./inp_files/6269.got.cif
#   From: 2010.03.12/outbox.cif.g09.slc.cpg/sg66_4_cif.got.tgz:6269.got - 2010.04.10 21:57:39.
