data_PCOD8277281
_publ_section_title
;
Structure prediction by ZEFSAII (Michael W. Deem and Ramdas Pophale) SiO2 
 PCOD8277281
Probable space group: C C C M
;
_chemical_formula_sum "Si O2"
_cell_formula_units_Z 68
_cell_length_a 23.118408
_cell_length_b 9.070286
_cell_length_c 14.439934
_cell_angle_alpha 90.000000
_cell_angle_beta 90.000000
_cell_angle_gamma 90.000000
_cell_volume 3027.918026
_symmetry_space_group_name_H-M "C C C M"
_symmetry_group_IT_number 66
_symmetry_cell_setting 'orthorhombic'
loop_
_space_group_symop_operation_xyz
x,y,z
-x,-y,z
x,-y,1/2-z
-x,y,1/2-z
-x,-y,-z
x,y,-z
-x,y,1/2+z
x,-y,1/2+z
1/2+x,1/2+y,z
1/2-x,1/2-y,z
1/2+x,1/2-y,1/2-z
1/2-x,1/2+y,1/2-z
1/2-x,1/2-y,-z
1/2+x,1/2+y,-z
1/2-x,1/2+y,1/2+z
1/2+x,1/2-y,1/2+z
loop_
_atom_site_type_symbol
_atom_site_label
_atom_site_fract_x
_atom_site_fract_y
_atom_site_fract_z
Si Si1 0.519329 0.221954 0.896498
Si Si2 0.608885 0.689796 0.892203
Si Si3 0.192228 0.672057 0.260682
Si Si4 0.000000 0.500000 0.750000
Si Si5 0.637785 0.368075 0.104395
O O1 0.459106 0.299708 0.867395
O O2 0.569206 0.341513 0.894823
O O3 0.538022 0.098823 0.820585
O O4 0.514229 0.152415 0.000000
O O5 0.641443 0.817241 0.836227
O O6 0.639253 0.536861 0.860046
O O7 0.618718 0.715970 0.000000
O O8 0.205180 0.500000 0.250000
O O9 0.250000 0.750000 0.298297
O O10 0.174075 0.754272 0.165663
O O11 0.662253 0.353689 0.000000
#
# Coordination Sequence:
#
# PCOD8277281 Si02
#       5
#    16  16  16   4  16
#     4  10  22  37  61  95 133 172 212 252 309 385
#     4  10  22  42  68  96 129 169 213 262 316 377
#     4  12  27  45  66  92 126 167 216 268 321 381
#     4  12  22  32  50  86 136 176 200 252 312 356
#     4  10  22  42  68  96 129 169 213 262 316 377
#
# _framework density 22.457674999999998
#
# number of rings (size 3 to 8) (size 9 to 14) (size 15 to 20)
#    0.000    1.412    0.000    4.588    6.588    4.706 
#    0.000    3.529    0.000    0.000    0.000    0.000 
#    0.000    0.000    0.000    0.000    0.000    0.000 
#
# Total GULP energy -421493.718602 kJ/mol
# GULP energy per Si atom -12396.874077 kJ/mol
# Density = 2.240656 g / cm^3
# Si number density = 22.457675 Si / 1000 Ang^3
#
#
#
# Elastic Constant Matrix: (Units=GPa)
#
#
# Indices 1 2 3 4 5 6 
#
# 1 79.9215 13.1377 14.8829 0.0000 0.0000 0.0000
# 2 13.1377 120.6029 32.2293 0.0000 0.0000 0.0000
# 3 14.8829 32.2293 92.3592 0.0000 0.0000 0.0000
# 4 0.0000 0.0000 0.0000 31.6194 0.0000 0.0000
# 5 0.0000 0.0000 0.0000 0.0000 19.4285 0.0000
# 6 0.0000 0.0000 0.0000 0.0000 0.0000 24.9419
#
#
#
# Elastic Compliance Matrix: (Units=1/GPa)
#
#
# Indices 1 2 3 4 5 6 
#
# 1 0.012996 -0.000944 -0.001765 0.000000 0.000000 0.000000
# 2 -0.000944 0.009213 -0.003063 0.000000 0.000000 0.000000
# 3 -0.001765 -0.003063 0.012180 0.000000 0.000000 0.000000
# 4 0.000000 0.000000 0.000000 0.031626 0.000000 0.000000
# 5 0.000000 0.000000 0.000000 0.000000 0.051471 0.000000
# 6 0.000000 0.000000 0.000000 0.000000 0.000000 0.040093
#
#
# Mechanical properties :
#
#
# Convention : Reuss Voigt Hill
#
# Bulk Modulus (GPa) = 43.77092 45.93151 44.85121
# Shear Modulus (GPa) = 28.29041 30.70688 29.49865
#
# Velocity S-wave (km/s) = 3.55311 3.70174 3.62819
# Velocity P-wave (km/s) = 6.03038 6.22635 6.12915
#
# Compressibility (1/GPa) = 0.02284622
#
# Stress axis : x y z
#
# Youngs Moduli (GPa) = 76.94613 108.54219 82.09878
#
# Poissons Ratio (x) = 0.10248 0.14489
# Poissons Ratio (y) = 0.07265 0.25145
# Poissons Ratio (z) = 0.13579 0.33244
#
# Static dielectric constant tensor:
#      x y z
#    x 3.851070 0.000000 0.000000 
#    y 0.000000 4.041320 0.000000 
#    z 0.000000 0.000000 4.236810 
# 
# 
# High freq. dielectric constant tensor:
#      x y z
#    x 1.871020 0.000000 0.000000 
#    y 0.000000 1.884270 0.000000 
#    z 0.000000 0.000000 1.897400 
# 
# From -- ./inp_files/32946.got.cif
#   From: 2010.03.12/outbox.cif.g09.slc.cpg/sg66_17_cif.got.tgz:32946.got - 2010.04.10 21:57:39.
