data_PCOD8277387
_publ_section_title
;
Structure prediction by ZEFSAII (Michael W. Deem and Ramdas Pophale) SiO2 
 PCOD8277387
Probable space group: C C C M
;
_chemical_formula_sum "Si O2"
_cell_formula_units_Z 112
_cell_length_a 11.223879
_cell_length_b 27.369953
_cell_length_c 17.291218
_cell_angle_alpha 90.000000
_cell_angle_beta 90.000000
_cell_angle_gamma 90.000000
_cell_volume 5311.811000
_symmetry_space_group_name_H-M "C C C M"
_symmetry_group_IT_number 66
_symmetry_cell_setting 'orthorhombic'
loop_
_space_group_symop_operation_xyz
x,y,z
-x,-y,z
x,-y,1/2-z
-x,y,1/2-z
-x,-y,-z
x,y,-z
-x,y,1/2+z
x,-y,1/2+z
1/2+x,1/2+y,z
1/2-x,1/2-y,z
1/2+x,1/2-y,1/2-z
1/2-x,1/2+y,1/2-z
1/2-x,1/2-y,-z
1/2+x,1/2+y,-z
1/2-x,1/2+y,1/2+z
1/2+x,1/2-y,1/2+z
loop_
_atom_site_type_symbol
_atom_site_label
_atom_site_fract_x
_atom_site_fract_y
_atom_site_fract_z
Si Si1 0.005284 0.349612 0.158524
Si Si2 0.476878 0.672091 0.839654
Si Si3 0.935009 0.543936 0.833511
Si Si4 0.023416 0.071692 0.409508
Si Si5 0.667367 0.496146 0.336545
Si Si6 0.736903 0.192338 0.089132
Si Si7 0.886846 0.261835 0.414085
O O1 0.885733 0.329662 0.119844
O O2 0.000000 0.351420 0.250000
O O3 0.044494 0.403238 0.126531
O O4 0.106030 0.310694 0.136637
O O5 0.500000 0.678076 0.750000
O O6 0.526168 0.621142 0.870853
O O7 0.337001 0.668635 0.857499
O O8 0.536335 0.717649 0.881594
O O9 0.797463 0.528024 0.831226
O O10 0.000000 0.500000 0.880901
O O11 0.000000 0.546454 0.750000
O O12 0.042083 0.079715 0.500000
O O13 0.914802 0.035524 0.392666
O O14 0.149231 0.050916 0.373118
O O15 0.616204 0.500000 0.250000
O O16 0.750000 0.250000 0.099750
O O17 0.754283 0.177134 0.000000
O O18 0.937033 0.272136 0.500000
O O19 0.750000 0.250000 0.416035
#
# Coordination Sequence:
#
# PCOD8277387 Si02
#       7
#    16  16  16  16  16  16  16
#     4  11  25  40  69 100 134 179 235 282 334 408
#     4  12  26  42  71 100 135 174 232 286 341 414
#     4  10  22  42  64  99 135 171 218 283 337 390
#     4  11  25  43  65 100 139 178 225 282 348 413
#     4  11  21  41  71  97 132 177 230 278 336 403
#     4  11  24  44  68  94 136 183 224 276 344 410
#     4  11  25  44  66  97 140 180 221 277 348 415
#
# _framework density 21.085087999999999
#
# number of rings (size 3 to 8) (size 9 to 14) (size 15 to 20)
#    0.000    1.000    2.857    4.714    6.000    1.143 
#    0.000    2.143    0.000    3.429    0.000    0.000 
#    0.000    0.000    0.000    0.000    0.000    0.000 
#
# Total GULP energy -693973.844798 kJ/mol
# GULP energy per Si atom -12392.390086 kJ/mol
# Density = 2.103710 g / cm^3
# Si number density = 21.085088 Si / 1000 Ang^3
#
#
#
# Elastic Constant Matrix: (Units=GPa)
#
#
# Indices 1 2 3 4 5 6 
#
# 1 111.6045 40.0871 31.3000 0.0000 0.0000 0.0000
# 2 40.0871 172.3753 27.8990 0.0000 0.0000 0.0000
# 3 31.3000 27.8990 83.3945 0.0000 0.0000 0.0000
# 4 0.0000 0.0000 0.0000 46.5544 0.0000 0.0000
# 5 0.0000 0.0000 0.0000 0.0000 30.0103 0.0000
# 6 0.0000 0.0000 0.0000 0.0000 0.0000 25.6473
#
#
#
# Elastic Compliance Matrix: (Units=1/GPa)
#
#
# Indices 1 2 3 4 5 6 
#
# 1 0.010585 -0.001923 -0.003329 0.000000 0.000000 0.000000
# 2 -0.001923 0.006483 -0.001447 0.000000 0.000000 0.000000
# 3 -0.003329 -0.001447 0.013725 0.000000 0.000000 0.000000
# 4 0.000000 0.000000 0.000000 0.021480 0.000000 0.000000
# 5 0.000000 0.000000 0.000000 0.000000 0.033322 0.000000
# 6 0.000000 0.000000 0.000000 0.000000 0.000000 0.038990
#
#
# Mechanical properties :
#
#
# Convention : Reuss Voigt Hill
#
# Bulk Modulus (GPa) = 57.49186 62.88293 60.18739
# Shear Modulus (GPa) = 34.77512 38.31496 36.54504
#
# Velocity S-wave (km/s) = 4.06553 4.26744 4.16771
# Velocity P-wave (km/s) = 7.02594 7.36000 7.19491
#
# Compressibility (1/GPa) = 0.01739377
#
# Stress axis : x y z
#
# Youngs Moduli (GPa) = 94.47722 154.25830 72.86006
#
# Poissons Ratio (x) = 0.29658 0.24258
# Poissons Ratio (y) = 0.18165 0.10544
# Poissons Ratio (z) = 0.31456 0.22323
#
# Static dielectric constant tensor:
#      x y z
#    x 3.874680 0.000000 0.000000 
#    y 0.000000 4.941960 0.000000 
#    z 0.000000 0.000000 3.835400 
# 
# 
# High freq. dielectric constant tensor:
#      x y z
#    x 1.828600 0.000000 0.000000 
#    y 0.000000 1.850500 0.000000 
#    z 0.000000 0.000000 1.818350 
# 
# From -- ./inp_files/27004.got.cif
#   From: 2010.03.12/outbox.cif.g09.slc.cpg/sg66_14_cif.got.tgz:27004.got - 2010.04.10 21:57:39.
