data_PCOD8277073
_publ_section_title
;
Structure prediction by ZEFSAII (Michael W. Deem and Ramdas Pophale) SiO2 
 PCOD8277073
Probable space group: C C C M
;
_chemical_formula_sum "Si O2"
_cell_formula_units_Z 56
_cell_length_a 10.999077
_cell_length_b 25.635917
_cell_length_c 9.663117
_cell_angle_alpha 90.000000
_cell_angle_beta 90.000000
_cell_angle_gamma 90.000000
_cell_volume 2724.722871
_symmetry_space_group_name_H-M "C C C M"
_symmetry_group_IT_number 66
_symmetry_cell_setting 'orthorhombic'
loop_
_space_group_symop_operation_xyz
x,y,z
-x,-y,z
x,-y,1/2-z
-x,y,1/2-z
-x,-y,-z
x,y,-z
-x,y,1/2+z
x,-y,1/2+z
1/2+x,1/2+y,z
1/2-x,1/2-y,z
1/2+x,1/2-y,1/2-z
1/2-x,1/2+y,1/2-z
1/2-x,1/2-y,-z
1/2+x,1/2+y,-z
1/2-x,1/2+y,1/2+z
1/2+x,1/2-y,1/2+z
loop_
_atom_site_type_symbol
_atom_site_label
_atom_site_fract_x
_atom_site_fract_y
_atom_site_fract_z
Si Si1 0.881371 0.889013 0.836376
Si Si2 0.500000 0.864636 0.250000
Si Si3 0.236327 0.310724 0.343533
Si Si4 0.654805 0.045165 0.649970
O O1 0.822635 0.837553 0.769135
O O2 0.791708 0.937767 0.813385
O O3 0.000000 0.903893 0.750000
O O4 0.907025 0.879206 0.000000
O O5 0.595631 0.828015 0.329481
O O6 0.428554 0.903159 0.353404
O O7 0.278851 0.324439 0.500000
O O8 0.250000 0.250000 0.314220
O O9 0.650194 0.019095 0.500000
O O10 0.607422 0.000000 0.750000
#
# Coordination Sequence:
#
# PCOD8277073 Si02
#       4
#    16   8  16  16
#     4  10  22  40  60  86 121 159 200 248 300 356
#     4  10  21  38  60  88 124 156 195 250 296 358
#     4  10  22  39  61  89 119 158 203 247 299 355
#     4  10  22  38  59  87 118 156 198 245 302 356
#
# _framework density 20.552548000000002
#
# number of rings (size 3 to 8) (size 9 to 14) (size 15 to 20)
#    0.000    2.000    0.000    2.143    2.000   10.286 
#    0.000    2.857    0.000    0.000    0.000    0.000 
#    0.000    0.000    0.000    0.000    0.000    0.000 
#
# Total GULP energy -347101.395159 kJ/mol
# GULP energy per Si atom -12396.478399 kJ/mol
# Density = 2.050577 g / cm^3
# Si number density = 20.552548 Si / 1000 Ang^3
#
#
#
# Elastic Constant Matrix: (Units=GPa)
#
#
# Indices 1 2 3 4 5 6 
#
# 1 127.0776 43.4141 47.9642 0.0000 0.0000 0.0000
# 2 43.4141 119.4877 57.7684 0.0000 0.0000 0.0000
# 3 47.9642 57.7684 136.9956 0.0000 0.0000 0.0000
# 4 0.0000 0.0000 0.0000 23.8208 0.0000 0.0000
# 5 0.0000 0.0000 0.0000 0.0000 3.6473 0.0000
# 6 0.0000 0.0000 0.0000 0.0000 0.0000 20.3051
#
#
#
# Elastic Compliance Matrix: (Units=1/GPa)
#
#
# Indices 1 2 3 4 5 6 
#
# 1 0.009557 -0.002330 -0.002364 0.000000 0.000000 0.000000
# 2 -0.002330 0.011080 -0.003857 0.000000 0.000000 0.000000
# 3 -0.002364 -0.003857 0.009753 0.000000 0.000000 0.000000
# 4 0.000000 0.000000 0.000000 0.041980 0.000000 0.000000
# 5 0.000000 0.000000 0.000000 0.000000 0.274176 0.000000
# 6 0.000000 0.000000 0.000000 0.000000 0.000000 0.049249
#
#
# Mechanical properties :
#
#
# Convention : Reuss Voigt Hill
#
# Bulk Modulus (GPa) = 75.24114 75.76157 75.50135
# Shear Modulus (GPa) = 11.98104 25.18225 18.58164
#
# Velocity S-wave (km/s) = 2.41705 3.50417 3.01009
# Velocity P-wave (km/s) = 6.66919 7.30169 6.99260
#
# Compressibility (1/GPa) = 0.01329060
#
# Stress axis : x y z
#
# Youngs Moduli (GPa) = 104.63218 90.25224 102.52901
#
# Poissons Ratio (x) = 0.21026 0.24235
# Poissons Ratio (y) = 0.24376 0.39541
# Poissons Ratio (z) = 0.24733 0.34806
#
# Static dielectric constant tensor:
#      x y z
#    x 3.917950 0.000000 0.000000 
#    y 0.000000 3.520520 0.000000 
#    z 0.000000 0.000000 3.758570 
# 
# 
# High freq. dielectric constant tensor:
#      x y z
#    x 1.815550 0.000000 0.000000 
#    y 0.000000 1.795240 0.000000 
#    z 0.000000 0.000000 1.809530 
# 
# From -- ./inp_files/3703.got.cif
#   From: 2010.03.12/outbox.cif.g09.slc.cpg/sg66_2_cif.got.tgz:3703.got - 2010.04.10 21:57:39.
