data_PCOD8277727
_publ_section_title
;
Structure prediction by ZEFSAII (Michael W. Deem and Ramdas Pophale) SiO2 
 PCOD8277727
Probable space group: C C C M
;
_chemical_formula_sum "Si O2"
_cell_formula_units_Z 80
_cell_length_a 8.942087
_cell_length_b 15.859588
_cell_length_c 27.411308
_cell_angle_alpha 90.000000
_cell_angle_beta 90.000000
_cell_angle_gamma 90.000000
_cell_volume 3887.411825
_symmetry_space_group_name_H-M "C C C M"
_symmetry_group_IT_number 66
_symmetry_cell_setting 'orthorhombic'
loop_
_space_group_symop_operation_xyz
x,y,z
-x,-y,z
x,-y,1/2-z
-x,y,1/2-z
-x,-y,-z
x,y,-z
-x,y,1/2+z
x,-y,1/2+z
1/2+x,1/2+y,z
1/2-x,1/2-y,z
1/2+x,1/2-y,1/2-z
1/2-x,1/2+y,1/2-z
1/2-x,1/2-y,-z
1/2+x,1/2+y,-z
1/2-x,1/2+y,1/2+z
1/2+x,1/2-y,1/2+z
loop_
_atom_site_type_symbol
_atom_site_label
_atom_site_fract_x
_atom_site_fract_y
_atom_site_fract_z
Si Si1 0.986955 0.282134 0.555011
Si Si2 0.331764 0.493765 0.149242
Si Si3 0.187849 0.883992 0.444043
Si Si4 0.166412 0.329914 0.357866
Si Si5 0.934236 0.416792 0.695610
O O1 0.043446 0.283017 0.500000
O O2 0.931964 0.188421 0.569383
O O3 0.853797 0.348345 0.562221
O O4 0.130907 0.310078 0.585893
O O5 0.500000 0.500000 0.169306
O O6 0.331935 0.460641 0.093545
O O7 0.264934 0.587439 0.149957
O O8 0.244295 0.428536 0.186469
O O9 0.164223 0.915156 0.500000
O O10 0.250000 0.250000 0.334036
O O11 0.003533 0.336267 0.331661
O O12 0.000000 0.500000 0.668998
O O13 0.000000 0.414472 0.750000
#
# Coordination Sequence:
#
# PCOD8277727 Si02
#       5
#    16  16  16  16  16
#     4   9  18  34  57  85 122 164 203 245 295 348
#     4  11  22  38  62  92 119 159 204 246 302 365
#     4   9  18  34  57  89 124 162 204 246 296 352
#     4  11  22  38  58  87 120 155 203 249 298 360
#     4   9  20  42  65  84 115 156 193 250 314 365
#
# _framework density 20.579245
#
# number of rings (size 3 to 8) (size 9 to 14) (size 15 to 20)
#    0.000    2.200    2.000    2.400    0.000    1.600 
#    0.000   14.000    0.000    0.000    0.000    0.000 
#    0.000    0.000    0.000    0.000    0.000    0.000 
#
# Total GULP energy -495626.464834 kJ/mol
# GULP energy per Si atom -12390.661621 kJ/mol
# Density = 2.053241 g / cm^3
# Si number density = 20.579245 Si / 1000 Ang^3
#
#
#
# Elastic Constant Matrix: (Units=GPa)
#
#
# Indices 1 2 3 4 5 6 
#
# 1 136.4943 52.4950 54.4509 0.0000 0.0000 0.0000
# 2 52.4950 101.0368 39.9343 0.0000 0.0000 0.0000
# 3 54.4509 39.9343 93.5503 0.0000 0.0000 0.0000
# 4 0.0000 0.0000 0.0000 18.0623 0.0000 0.0000
# 5 0.0000 0.0000 0.0000 0.0000 23.0020 0.0000
# 6 0.0000 0.0000 0.0000 0.0000 0.0000 31.0689
#
#
#
# Elastic Compliance Matrix: (Units=1/GPa)
#
#
# Indices 1 2 3 4 5 6 
#
# 1 0.010569 -0.003681 -0.004581 0.000000 0.000000 0.000000
# 2 -0.003681 0.013188 -0.003487 0.000000 0.000000 0.000000
# 3 -0.004581 -0.003487 0.014844 0.000000 0.000000 0.000000
# 4 0.000000 0.000000 0.000000 0.055364 0.000000 0.000000
# 5 0.000000 0.000000 0.000000 0.000000 0.043475 0.000000
# 6 0.000000 0.000000 0.000000 0.000000 0.000000 0.032187
#
#
# Mechanical properties :
#
#
# Convention : Reuss Voigt Hill
#
# Bulk Modulus (GPa) = 66.20678 69.42686 67.81682
# Shear Modulus (GPa) = 25.23228 26.70670 25.96949
#
# Velocity S-wave (km/s) = 3.50537 3.60634 3.55621
# Velocity P-wave (km/s) = 6.97316 7.15196 7.06313
#
# Compressibility (1/GPa) = 0.01510419
#
# Stress axis : x y z
#
# Youngs Moduli (GPa) = 94.61381 75.82541 67.36670
#
# Poissons Ratio (x) = 0.27911 0.30857
# Poissons Ratio (y) = 0.34827 0.23492
# Poissons Ratio (z) = 0.43338 0.26442
#
# Static dielectric constant tensor:
#      x y z
#    x 3.868930 0.000000 0.000000 
#    y 0.000000 3.751510 0.000000 
#    z 0.000000 0.000000 3.556300 
# 
# 
# High freq. dielectric constant tensor:
#      x y z
#    x 1.807010 0.000000 0.000000 
#    y 0.000000 1.791650 0.000000 
#    z 0.000000 0.000000 1.790900 
# 
# From -- ./inp_files/62425.got.cif
#   From: 2010.03.12/outbox.cif.g09.slc.cpg/sg66_32_cif.got.tgz:62425.got - 2010.04.10 21:57:39.
