data_PCOD8277273
_publ_section_title
;
Structure prediction by ZEFSAII (Michael W. Deem and Ramdas Pophale) SiO2 
 PCOD8277273
Probable space group: C C C M
;
_chemical_formula_sum "Si O2"
_cell_formula_units_Z 60
_cell_length_a 21.206782
_cell_length_b 11.637611
_cell_length_c 10.910271
_cell_angle_alpha 90.000000
_cell_angle_beta 90.000000
_cell_angle_gamma 90.000000
_cell_volume 2692.614291
_symmetry_space_group_name_H-M "C C C M"
_symmetry_group_IT_number 66
_symmetry_cell_setting 'orthorhombic'
loop_
_space_group_symop_operation_xyz
x,y,z
-x,-y,z
x,-y,1/2-z
-x,y,1/2-z
-x,-y,-z
x,y,-z
-x,y,1/2+z
x,-y,1/2+z
1/2+x,1/2+y,z
1/2-x,1/2-y,z
1/2+x,1/2-y,1/2-z
1/2-x,1/2+y,1/2-z
1/2-x,1/2-y,-z
1/2+x,1/2+y,-z
1/2-x,1/2+y,1/2+z
1/2+x,1/2-y,1/2+z
loop_
_atom_site_type_symbol
_atom_site_label
_atom_site_fract_x
_atom_site_fract_y
_atom_site_fract_z
Si Si1 0.000000 0.500000 0.250000
Si Si2 0.104940 0.347399 0.137803
Si Si3 0.766094 0.585625 0.500000
Si Si4 0.074399 0.128613 0.261385
Si Si5 0.201593 0.500000 0.750000
Si Si6 0.360745 0.275007 0.500000
O O1 0.040642 0.416072 0.164175
O O2 0.097258 0.209960 0.150675
O O3 0.158637 0.386933 0.232662
O O4 0.126729 0.375162 0.000000
O O5 0.757692 0.513533 0.626065
O O6 0.707066 0.667820 0.500000
O O7 0.837404 0.641665 0.500000
O O8 0.095961 0.191224 0.385409
O O9 0.000000 0.119241 0.250000
O O10 0.103593 0.000000 0.250000
#
# Coordination Sequence:
#
# PCOD8277273 Si02
#       6
#     4  16   8  16   8   8
#     4  10  22  36  62  94 140 182 222 276 358 410
#     4  11  22  38  63 101 136 174 227 282 348 407
#     4  11  24  46  74 102 144 177 232 285 356 418
#     4  11  26  43  65  95 137 186 236 281 331 408
#     4  11  22  43  70 104 133 176 219 292 342 422
#     4  11  26  47  70  96 138 191 228 278 352 414
#
# _framework density 22.283177999999999
#
# number of rings (size 3 to 8) (size 9 to 14) (size 15 to 20)
#    0.000    1.067    5.333    0.400    5.600    1.067 
#    0.000    0.000    0.000    4.800    0.000    0.000 
#    0.000    0.000    0.000    0.000    0.000    0.000 
#
# Total GULP energy -371830.182519 kJ/mol
# GULP energy per Si atom -12394.339417 kJ/mol
# Density = 2.223246 g / cm^3
# Si number density = 22.283178 Si / 1000 Ang^3
#
#
#
# Elastic Constant Matrix: (Units=GPa)
#
#
# Indices 1 2 3 4 5 6 
#
# 1 59.1274 4.1749 23.6581 0.0000 0.0000 0.0000
# 2 4.1749 117.6439 23.2909 0.0000 0.0000 0.0000
# 3 23.6581 23.2909 156.0625 0.0000 0.0000 0.0000
# 4 0.0000 0.0000 0.0000 15.3036 0.0000 0.0000
# 5 0.0000 0.0000 0.0000 0.0000 19.1397 0.0000
# 6 0.0000 0.0000 0.0000 0.0000 0.0000 15.0299
#
#
#
# Elastic Compliance Matrix: (Units=1/GPa)
#
#
# Indices 1 2 3 4 5 6 
#
# 1 0.018006 -0.000102 -0.002714 0.000000 0.000000 0.000000
# 2 -0.000102 0.008760 -0.001292 0.000000 0.000000 0.000000
# 3 -0.002714 -0.001292 0.007012 0.000000 0.000000 0.000000
# 4 0.000000 0.000000 0.000000 0.065344 0.000000 0.000000
# 5 0.000000 0.000000 0.000000 0.000000 0.052247 0.000000
# 6 0.000000 0.000000 0.000000 0.000000 0.000000 0.066534
#
#
# Mechanical properties :
#
#
# Convention : Reuss Voigt Hill
#
# Bulk Modulus (GPa) = 39.12108 48.34240 43.73174
# Shear Modulus (GPa) = 21.30932 28.67531 24.99232
#
# Velocity S-wave (km/s) = 3.09576 3.59117 3.35263
# Velocity P-wave (km/s) = 5.51115 6.23996 5.88684
#
# Compressibility (1/GPa) = 0.02556167
#
# Stress axis : x y z
#
# Youngs Moduli (GPa) = 55.53739 114.16045 142.61303
#
# Poissons Ratio (x) = 0.01160 0.38711
# Poissons Ratio (y) = 0.00564 0.18424
# Poissons Ratio (z) = 0.15075 0.14748
#
# Static dielectric constant tensor:
#      x y z
#    x 3.772890 0.000000 0.000000 
#    y 0.000000 4.352840 0.000000 
#    z 0.000000 0.000000 4.058890 
# 
# 
# High freq. dielectric constant tensor:
#      x y z
#    x 1.862380 0.000000 0.000000 
#    y 0.000000 1.881490 0.000000 
#    z 0.000000 0.000000 1.883920 
# 
# From -- ./inp_files/14540.got.cif
#   From: 2010.03.12/outbox.cif.g09.slc.cpg/sg66_8_cif.got.tgz:14540.got - 2010.04.10 21:57:39.
