data_PCOD8277969
_publ_section_title
;
Structure prediction by ZEFSAII (Michael W. Deem and Ramdas Pophale) SiO2 
 PCOD8277969
Probable space group: C M M A
;
_chemical_formula_sum "Si O2"
_cell_formula_units_Z 60
_cell_length_a 15.833056
_cell_length_b 23.917325
_cell_length_c 7.942178
_cell_angle_alpha 90.000000
_cell_angle_beta 90.000000
_cell_angle_gamma 90.000000
_cell_volume 3007.578483
_symmetry_space_group_name_H-M "C M M A"
_symmetry_group_IT_number 67
_symmetry_cell_setting 'orthorhombic'
loop_
_space_group_symop_operation_xyz
x,y,z
-x,1/2-y,z
x,-y,-z
-x,1/2+y,-z
-x,-y,-z
x,1/2+y,-z
-x,y,z
x,1/2-y,z
1/2+x,1/2+y,z
1/2-x,-y,z
1/2+x,1/2-y,-z
1/2-x,y,-z
1/2-x,1/2-y,-z
1/2+x,y,-z
1/2-x,1/2+y,z
1/2+x,-y,z
loop_
_atom_site_type_symbol
_atom_site_label
_atom_site_fract_x
_atom_site_fract_y
_atom_site_fract_z
Si Si1 0.094576 0.250000 0.798848
Si Si2 0.831596 0.974071 0.313684
Si Si3 0.500000 0.980325 0.306300
Si Si4 0.500000 0.646729 0.367795
Si Si5 0.335385 0.652010 0.596873
Si Si6 0.500000 0.250000 0.879805
O O1 0.147524 0.304124 0.744835
O O2 0.000000 0.250000 0.714382
O O3 0.083788 0.250000 0.001644
O O4 0.823651 0.907713 0.316695
O O5 0.834178 0.000000 0.500000
O O6 0.750000 0.000000 0.218594
O O7 0.916949 0.993242 0.217786
O O8 0.500000 0.913929 0.281797
O O9 0.500000 0.000000 0.500000
O O10 0.415192 0.652492 0.474343
O O11 0.500000 0.694201 0.228207
O O12 0.250000 0.669162 0.500000
#
# Coordination Sequence:
#
# PCOD8277969 Si02
#       6
#     8  16   8   8  16   4
#     4  10  24  42  55  78 122 162 201 249 298 343
#     4  10  16  29  49  91 129 136 169 242 320 356
#     4  10  16  26  50  86 117 142 179 239 310 336
#     4  12  19  36  60  87 116 156 205 251 290 372
#     4  12  20  35  65  94 117 150 198 260 310 353
#     4  10  26  44  58  74 124 176 206 244 294 362
#
# _framework density 19.949603
#
# number of rings (size 3 to 8) (size 9 to 14) (size 15 to 20)
#    0.400    0.800    9.333    1.200    0.000    0.000 
#    0.000    2.667    0.000    3.200    0.000    3.733 
#    0.000    0.000    0.000    0.000    0.000    0.000 
#
# Total GULP energy -371832.000135 kJ/mol
# GULP energy per Si atom -12394.400005 kJ/mol
# Density = 1.990420 g / cm^3
# Si number density = 19.949603 Si / 1000 Ang^3
#
#
#
# Elastic Constant Matrix: (Units=GPa)
#
#
# Indices 1 2 3 4 5 6 
#
# 1 194.9452 50.6190 32.0654 0.0000 0.0000 0.0000
# 2 50.6190 191.1374 49.2728 0.0000 0.0000 0.0000
# 3 32.0654 49.2728 43.7292 0.0000 0.0000 0.0000
# 4 0.0000 0.0000 0.0000 -0.4656 0.0000 0.0000
# 5 0.0000 0.0000 0.0000 0.0000 -0.5760 0.0000
# 6 0.0000 0.0000 0.0000 0.0000 0.0000 25.4312
#
#
#
# Elastic Compliance Matrix: (Units=1/GPa)
#
#
# Indices 1 2 3 4 5 6 
#
# 1 0.005886 -0.000629 -0.003608 0.000000 0.000000 0.000000
# 2 -0.000629 0.007441 -0.007923 0.000000 0.000000 0.000000
# 3 -0.003608 -0.007923 0.034441 0.000000 0.000000 0.000000
# 4 0.000000 0.000000 0.000000 -2.147764 0.000000 0.000000
# 5 0.000000 0.000000 0.000000 0.000000 -1.735996 0.000000
# 6 0.000000 0.000000 0.000000 0.000000 0.000000 0.039322
#
#
# Mechanical properties :
#
#
# Convention : Reuss Voigt Hill
#
# Bulk Modulus (GPa) = 42.64592 77.08068 59.86330
# Shear Modulus (GPa) = -1.32819 24.73489 11.70335
#
# Velocity S-wave (km/s) = -0.81683 3.52500 2.42471
# Velocity P-wave (km/s) = 4.53140 7.43566 6.15722
#
# Compressibility (1/GPa) = 0.02344890
#
# Stress axis : x y z
#
# Youngs Moduli (GPa) = 169.88474 134.39376 29.03533
#
# Poissons Ratio (x) = 0.08452 0.10475
# Poissons Ratio (y) = 0.10683 0.23005
# Poissons Ratio (z) = 0.61289 1.06480
#
# Static dielectric constant tensor:
#      x y z
#    x 10.598730 0.000000 0.000000 
#    y 0.000000 5.589450 0.000000 
#    z 0.000000 0.000000 2.925950 
# 
# 
# High freq. dielectric constant tensor:
#      x y z
#    x 1.806970 0.000000 0.000000 
#    y 0.000000 1.796540 0.000000 
#    z 0.000000 0.000000 1.706240 
# 
# From -- ./inp_files/9433.got.cif
#   From: 2010.03.12/outbox.cif.g09.slc.cpg/sg67_5_cif.got.tgz:9433.got - 2010.04.10 22:41:39.
