data_PCOD8277070
_publ_section_title
;
Structure prediction by ZEFSAII (Michael W. Deem and Ramdas Pophale) SiO2 
 PCOD8277070
Probable space group: C C C M
;
_chemical_formula_sum "Si O2"
_cell_formula_units_Z 96
_cell_length_a 10.431768
_cell_length_b 22.995346
_cell_length_c 18.737959
_cell_angle_alpha 90.000000
_cell_angle_beta 90.000000
_cell_angle_gamma 90.000000
_cell_volume 4494.901227
_symmetry_space_group_name_H-M "C C C M"
_symmetry_group_IT_number 66
_symmetry_cell_setting 'orthorhombic'
loop_
_space_group_symop_operation_xyz
x,y,z
-x,-y,z
x,-y,1/2-z
-x,y,1/2-z
-x,-y,-z
x,y,-z
-x,y,1/2+z
x,-y,1/2+z
1/2+x,1/2+y,z
1/2-x,1/2-y,z
1/2+x,1/2-y,1/2-z
1/2-x,1/2+y,1/2-z
1/2-x,1/2-y,-z
1/2+x,1/2+y,-z
1/2-x,1/2+y,1/2+z
1/2+x,1/2-y,1/2+z
loop_
_atom_site_type_symbol
_atom_site_label
_atom_site_fract_x
_atom_site_fract_y
_atom_site_fract_z
Si Si1 0.274846 0.183682 0.861398
Si Si2 0.974347 0.378757 0.166461
Si Si3 0.770122 0.816162 0.694630
Si Si4 0.826825 0.073703 0.418526
Si Si5 0.676730 0.985212 0.331216
Si Si6 0.438372 0.415501 0.674667
O O1 0.250000 0.250000 0.885641
O O2 0.418558 0.158870 0.874751
O O3 0.236165 0.174822 0.779557
O O4 0.186572 0.143244 0.910736
O O5 0.841681 0.347048 0.151218
O O6 0.947920 0.446628 0.141958
O O7 0.000000 0.377377 0.250000
O O8 0.750000 0.750000 0.673167
O O9 0.905577 0.845702 0.670659
O O10 0.824929 0.053232 0.500000
O O11 0.965917 0.060267 0.385491
O O12 0.706056 0.043336 0.377253
O O13 0.805034 0.947642 0.335543
O O14 0.646741 0.000000 0.250000
O O15 0.500000 0.432126 0.750000
#
# Coordination Sequence:
#
# PCOD8277070 Si02
#       6
#    16  16  16  16  16  16
#     4  10  21  38  60  87 124 164 206 259 314 370
#     4   9  19  34  55  92 126 156 206 263 314 359
#     4   9  18  31  60  96 121 154 205 266 311 356
#     4  12  26  40  60  91 124 165 210 253 313 383
#     4  11  21  37  62  91 124 165 207 259 317 374
#     4  11  20  36  61  91 124 162 207 253 311 369
#
# _framework density 21.357533
#
# number of rings (size 3 to 8) (size 9 to 14) (size 15 to 20)
#    0.000    1.667    3.333    2.500    2.333    4.667 
#    0.000    1.667    0.000    1.500    0.000    0.000 
#    0.000    0.000    0.000    0.000    0.000    0.000 
#
# Total GULP energy -594699.952230 kJ/mol
# GULP energy per Si atom -12389.582338 kJ/mol
# Density = 2.130892 g / cm^3
# Si number density = 21.357533 Si / 1000 Ang^3
#
#
#
# Elastic Constant Matrix: (Units=GPa)
#
#
# Indices 1 2 3 4 5 6 
#
# 1 88.8244 35.0638 17.4324 0.0000 0.0000 0.0000
# 2 35.0638 138.7671 30.5606 0.0000 0.0000 0.0000
# 3 17.4324 30.5606 69.7403 0.0000 0.0000 0.0000
# 4 0.0000 0.0000 0.0000 12.2107 0.0000 0.0000
# 5 0.0000 0.0000 0.0000 0.0000 1.9702 0.0000
# 6 0.0000 0.0000 0.0000 0.0000 0.0000 75.4976
#
#
#
# Elastic Compliance Matrix: (Units=1/GPa)
#
#
# Indices 1 2 3 4 5 6 
#
# 1 0.012744 -0.002788 -0.001964 0.000000 0.000000 0.000000
# 2 -0.002788 0.008586 -0.003066 0.000000 0.000000 0.000000
# 3 -0.001964 -0.003066 0.016173 0.000000 0.000000 0.000000
# 4 0.000000 0.000000 0.000000 0.081895 0.000000 0.000000
# 5 0.000000 0.000000 0.000000 0.000000 0.507573 0.000000
# 6 0.000000 0.000000 0.000000 0.000000 0.000000 0.013245
#
#
# Mechanical properties :
#
#
# Convention : Reuss Voigt Hill
#
# Bulk Modulus (GPa) = 45.72742 51.49394 48.61068
# Shear Modulus (GPa) = 7.53988 32.22071 19.88030
#
# Velocity S-wave (km/s) = 1.88095 3.88833 3.05427
# Velocity P-wave (km/s) = 5.11608 6.65744 5.93699
#
# Compressibility (1/GPa) = 0.02186872
#
# Stress axis : x y z
#
# Youngs Moduli (GPa) = 78.46802 116.47087 61.83082
#
# Poissons Ratio (x) = 0.32468 0.12143
# Poissons Ratio (y) = 0.21874 0.18955
# Poissons Ratio (z) = 0.15411 0.35705
#
# Static dielectric constant tensor:
#      x y z
#    x 4.326940 0.000000 0.000000 
#    y 0.000000 4.416480 0.000000 
#    z 0.000000 0.000000 3.283720 
# 
# 
# High freq. dielectric constant tensor:
#      x y z
#    x 1.859130 0.000000 0.000000 
#    y 0.000000 1.862090 0.000000 
#    z 0.000000 0.000000 1.757040 
# 
# From -- ./inp_files/48948.got.cif
#   From: 2010.03.12/outbox.cif.g09.slc.cpg/sg66_25_cif.got.tgz:48948.got - 2010.04.10 21:57:39.
