data_PCOD8277856
_publ_section_title
;
Structure prediction by ZEFSAII (Michael W. Deem and Ramdas Pophale) SiO2 
 PCOD8277856
Probable space group: C C C M
;
_chemical_formula_sum "Si O2"
_cell_formula_units_Z 56
_cell_length_a 16.895173
_cell_length_b 5.533286
_cell_length_c 27.218377
_cell_angle_alpha 90.000000
_cell_angle_beta 90.000000
_cell_angle_gamma 90.000000
_cell_volume 2544.532408
_symmetry_space_group_name_H-M "C C C M"
_symmetry_group_IT_number 66
_symmetry_cell_setting 'orthorhombic'
loop_
_space_group_symop_operation_xyz
x,y,z
-x,-y,z
x,-y,1/2-z
-x,y,1/2-z
-x,-y,-z
x,y,-z
-x,y,1/2+z
x,-y,1/2+z
1/2+x,1/2+y,z
1/2-x,1/2-y,z
1/2+x,1/2-y,1/2-z
1/2-x,1/2+y,1/2-z
1/2-x,1/2-y,-z
1/2+x,1/2+y,-z
1/2-x,1/2+y,1/2+z
1/2+x,1/2-y,1/2+z
loop_
_atom_site_type_symbol
_atom_site_label
_atom_site_fract_x
_atom_site_fract_y
_atom_site_fract_z
Si Si1 0.250000 0.250000 0.125098
Si Si2 0.451630 0.748903 0.872353
Si Si3 0.172280 0.607522 0.800048
Si Si4 0.329771 0.600065 0.945128
O O1 0.196242 0.417406 0.158653
O O2 0.315344 0.375493 0.090746
O O3 0.500000 0.500000 0.872279
O O4 0.394328 0.725050 0.824783
O O5 0.400788 0.760028 0.922741
O O6 0.500000 0.000000 0.869065
O O7 0.135762 0.500000 0.750000
O O8 0.250000 0.750000 0.783390
O O9 0.250000 0.750000 0.946796
O O10 0.352922 0.512956 0.000000
#
# Coordination Sequence:
#
# PCOD8277856 Si02
#       4
#     8  16  16  16
#     4  12  19  44  72 104 142 170 247 308 356 402
#     4  12  27  48  71 103 154 193 230 294 365 438
#     4  12  25  44  75 107 133 191 248 301 355 423
#     4  11  24  43  73 104 137 189 248 301 353 419
#
# _framework density 22.007973
#
# number of rings (size 3 to 8) (size 9 to 14) (size 15 to 20)
#    0.000    0.286    7.143    2.143    0.000    1.714 
#    0.000    4.286    0.000    0.000    0.000    0.000 
#    0.000    0.000    0.000    0.000    0.000    0.000 
#
# Total GULP energy -347163.696864 kJ/mol
# GULP energy per Si atom -12398.703459 kJ/mol
# Density = 2.195788 g / cm^3
# Si number density = 22.007973 Si / 1000 Ang^3
#
#
#
# Elastic Constant Matrix: (Units=GPa)
#
#
# Indices 1 2 3 4 5 6 
#
# 1 107.9437 37.9552 50.1098 0.0000 0.0000 0.0000
# 2 37.9552 106.4257 43.9797 0.0000 0.0000 0.0000
# 3 50.1098 43.9797 192.4803 0.0000 0.0000 0.0000
# 4 0.0000 0.0000 0.0000 -64.2600 0.0000 0.0000
# 5 0.0000 0.0000 0.0000 0.0000 -26.5928 0.0000
# 6 0.0000 0.0000 0.0000 0.0000 0.0000 42.4986
#
#
#
# Elastic Compliance Matrix: (Units=1/GPa)
#
#
# Indices 1 2 3 4 5 6 
#
# 1 0.011414 -0.003139 -0.002254 0.000000 0.000000 0.000000
# 2 -0.003139 0.011239 -0.001751 0.000000 0.000000 0.000000
# 3 -0.002254 -0.001751 0.006182 0.000000 0.000000 0.000000
# 4 0.000000 0.000000 0.000000 -0.015562 0.000000 0.000000
# 5 0.000000 0.000000 0.000000 0.000000 -0.037604 0.000000
# 6 0.000000 0.000000 0.000000 0.000000 0.000000 0.023530
#
#
# Mechanical properties :
#
#
# Convention : Reuss Voigt Hill
#
# Bulk Modulus (GPa) = 68.74130 74.54878 71.64504
# Shear Modulus (GPa) = 272.65801 8.64948 140.65375
#
# Velocity S-wave (km/s) = 11.14269 1.98461 8.00307
# Velocity P-wave (km/s) = 14.03027 6.26088 10.86387
#
# Compressibility (1/GPa) = 0.01454730
#
# Stress axis : x y z
#
# Youngs Moduli (GPa) = 87.60869 88.97364 161.75308
#
# Poissons Ratio (x) = 0.27931 0.36464
# Poissons Ratio (y) = 0.27502 0.28320
# Poissons Ratio (z) = 0.19750 0.15578
#
# Static dielectric constant tensor:
#      x y z
#    x 4.222340 0.000000 0.000000 
#    y 0.000000 4.027540 0.000000 
#    z 0.000000 0.000000 4.344380 
# 
# 
# High freq. dielectric constant tensor:
#      x y z
#    x 1.864890 0.000000 0.000000 
#    y 0.000000 1.864410 0.000000 
#    z 0.000000 0.000000 1.881130 
# 
# From -- ./inp_files/61073.got.cif
#   From: 2010.03.12/outbox.cif.g09.slc.cpg/sg66_31_cif.got.tgz:61073.got - 2010.04.10 21:57:39.
