data_PCOD8277326
_publ_section_title
;
Structure prediction by ZEFSAII (Michael W. Deem and Ramdas Pophale) SiO2 
 PCOD8277326
Probable space group: C C C M
;
_chemical_formula_sum "Si O2"
_cell_formula_units_Z 64
_cell_length_a 12.103786
_cell_length_b 8.839298
_cell_length_c 27.690051
_cell_angle_alpha 90.000000
_cell_angle_beta 90.000000
_cell_angle_gamma 90.000000
_cell_volume 2962.530074
_symmetry_space_group_name_H-M "C C C M"
_symmetry_group_IT_number 66
_symmetry_cell_setting 'orthorhombic'
loop_
_space_group_symop_operation_xyz
x,y,z
-x,-y,z
x,-y,1/2-z
-x,y,1/2-z
-x,-y,-z
x,y,-z
-x,y,1/2+z
x,-y,1/2+z
1/2+x,1/2+y,z
1/2-x,1/2-y,z
1/2+x,1/2-y,1/2-z
1/2-x,1/2+y,1/2-z
1/2-x,1/2-y,-z
1/2+x,1/2+y,-z
1/2-x,1/2+y,1/2+z
1/2+x,1/2-y,1/2+z
loop_
_atom_site_type_symbol
_atom_site_label
_atom_site_fract_x
_atom_site_fract_y
_atom_site_fract_z
Si Si1 0.880931 0.248001 0.810311
Si Si2 0.735789 0.496170 0.500000
Si Si3 0.481335 0.175781 0.101962
Si Si4 0.572004 0.765254 0.500000
Si Si5 0.750000 0.750000 0.080424
Si Si6 0.000000 0.500000 0.750000
Si Si7 0.500000 0.500000 0.250000
O O1 0.750000 0.250000 0.815568
O O2 0.918344 0.100035 0.781967
O O3 0.933386 0.236654 0.863743
O O4 0.921708 0.398993 0.783591
O O5 0.631027 0.604681 0.500000
O O6 0.846983 0.592850 0.500000
O O7 0.732376 0.398406 0.451781
O O8 0.355328 0.221899 0.115302
O O9 0.500000 0.000000 0.109460
O O10 0.494439 0.225690 0.046524
#
# Coordination Sequence:
#
# PCOD8277326 Si02
#       7
#    16   8  16   8   8   4   4
#     4  11  25  46  76 104 139 177 231 287 354 417
#     4  10  22  39  65  92 132 195 238 290 333 392
#     4  12  25  43  67 104 141 188 235 282 345 416
#     4  11  23  41  67  98 144 187 238 282 339 407
#     4  11  24  42  64  94 142 186 236 286 340 399
#     4  10  22  50  72 102 136 180 220 290 366 408
#     4  10  26  50  72 114 132 172 232 298 350 428
#
# _framework density 21.603155999999998
#
# number of rings (size 3 to 8) (size 9 to 14) (size 15 to 20)
#    0.000    1.000    3.750    2.625    3.500    6.000 
#    9.000    0.000    0.000    0.000    0.000    0.000 
#    0.000    0.000    0.000    0.000    0.000    0.000 
#
# Total GULP energy -396988.590495 kJ/mol
# GULP energy per Si atom -12405.893453 kJ/mol
# Density = 2.155399 g / cm^3
# Si number density = 21.603156 Si / 1000 Ang^3
#
#
#
# Elastic Constant Matrix: (Units=GPa)
#
#
# Indices 1 2 3 4 5 6 
#
# 1 211.1490 63.8857 65.0617 0.0000 0.0000 0.0000
# 2 63.8857 125.5469 39.6542 0.0000 0.0000 0.0000
# 3 65.0617 39.6542 126.4535 0.0000 0.0000 0.0000
# 4 0.0000 0.0000 0.0000 -7.5289 0.0000 0.0000
# 5 0.0000 0.0000 0.0000 0.0000 52.7569 0.0000
# 6 0.0000 0.0000 0.0000 0.0000 0.0000 10.0567
#
#
#
# Elastic Compliance Matrix: (Units=1/GPa)
#
#
# Indices 1 2 3 4 5 6 
#
# 1 0.006213 -0.002388 -0.002448 0.000000 0.000000 0.000000
# 2 -0.002388 0.009759 -0.001831 0.000000 0.000000 0.000000
# 3 -0.002448 -0.001831 0.009742 0.000000 0.000000 0.000000
# 4 0.000000 0.000000 0.000000 -0.132822 0.000000 0.000000
# 5 0.000000 0.000000 0.000000 0.000000 0.018955 0.000000
# 6 0.000000 0.000000 0.000000 0.000000 0.000000 0.099437
#
#
# Mechanical properties :
#
#
# Convention : Reuss Voigt Hill
#
# Bulk Modulus (GPa) = 80.78438 88.92807 84.85623
# Shear Modulus (GPa) = 173.94923 30.69347 102.32135
#
# Velocity S-wave (km/s) = 8.98304 3.77342 6.88962
# Velocity P-wave (km/s) = 12.04447 7.76136 10.13183
#
# Compressibility (1/GPa) = 0.01237863
#
# Stress axis : x y z
#
# Youngs Moduli (GPa) = 160.95797 102.47001 102.65170
#
# Poissons Ratio (x) = 0.24474 0.25125
# Poissons Ratio (y) = 0.38443 0.18800
# Poissons Ratio (z) = 0.39396 0.18767
#
# Static dielectric constant tensor:
#      x y z
#    x 3.949840 0.000000 0.000000 
#    y 0.000000 4.150740 0.000000 
#    z 0.000000 0.000000 3.923920 
# 
# 
# High freq. dielectric constant tensor:
#      x y z
#    x 1.863320 0.000000 0.000000 
#    y 0.000000 1.862890 0.000000 
#    z 0.000000 0.000000 1.839640 
# 
# From -- ./inp_files/68648.got.cif
#   From: 2010.03.12/outbox.cif.g09.slc.cpg/sg66_35_cif.got.tgz:68648.got - 2010.04.10 21:57:39.
