data_PCOD8277492
_publ_section_title
;
Structure prediction by ZEFSAII (Michael W. Deem and Ramdas Pophale) SiO2 
 PCOD8277492
Probable space group: C C C M
;
_chemical_formula_sum "Si O2"
_cell_formula_units_Z 88
_cell_length_a 32.013879
_cell_length_b 5.205627
_cell_length_c 25.173453
_cell_angle_alpha 90.000000
_cell_angle_beta 90.000000
_cell_angle_gamma 90.000000
_cell_volume 4195.214166
_symmetry_space_group_name_H-M "C C C M"
_symmetry_group_IT_number 66
_symmetry_cell_setting 'orthorhombic'
loop_
_space_group_symop_operation_xyz
x,y,z
-x,-y,z
x,-y,1/2-z
-x,y,1/2-z
-x,-y,-z
x,y,-z
-x,y,1/2+z
x,-y,1/2+z
1/2+x,1/2+y,z
1/2-x,1/2-y,z
1/2+x,1/2-y,1/2-z
1/2-x,1/2+y,1/2-z
1/2-x,1/2-y,-z
1/2+x,1/2+y,-z
1/2-x,1/2+y,1/2+z
1/2+x,1/2-y,1/2+z
loop_
_atom_site_type_symbol
_atom_site_label
_atom_site_fract_x
_atom_site_fract_y
_atom_site_fract_z
Si Si1 0.084548 0.500000 0.750000
Si Si2 0.000000 0.500000 0.590555
Si Si3 0.450472 0.826040 0.000000
Si Si4 0.372957 0.566987 0.615175
Si Si5 0.652953 0.918374 0.668873
Si Si6 0.223716 0.500000 0.250000
Si Si7 0.543063 0.656573 0.832279
Si Si8 0.103172 0.162717 0.000000
O O1 0.113599 0.358157 0.707126
O O2 0.055580 0.276381 0.775212
O O3 0.978801 0.712784 0.552363
O O4 0.963761 0.389464 0.627162
O O5 0.415660 0.618337 0.000000
O O6 0.430639 0.111583 0.000000
O O7 0.346987 0.302543 0.623461
O O8 0.419266 0.504924 0.638916
O O9 0.370212 0.662805 0.554156
O O10 0.351278 0.794630 0.647322
O O11 0.696073 0.904514 0.700552
O O12 0.250000 0.750000 0.267479
O O13 0.500000 0.500000 0.825982
#
# Coordination Sequence:
#
# PCOD8277492 Si02
#       8
#     8   8   8  16  16   8  16   8
#     4   9  24  43  53  78 116 162 204 246 323 372
#     4  11  24  39  52  76 110 151 216 291 352 346
#     4  11  24  38  58  78 110 151 214 301 335 364
#     4  11  23  41  62  85 127 166 209 263 317 358
#     4  10  23  44  63  94 132 159 189 250 312 365
#     4  11  22  42  77 110 131 160 201 236 289 378
#     4  11  24  40  55  76 113 164 226 276 317 372
#     4  12  22  39  62  88 108 167 220 255 317 383
#
# _framework density 20.976282000000001
#
# number of rings (size 3 to 8) (size 9 to 14) (size 15 to 20)
#    0.000    1.273    1.818    3.273    7.636    6.909 
#    3.273    0.000    0.000    0.000    0.000   12.727 
#    0.000    0.000    0.000    0.000    0.000    0.000 
#
# Total GULP energy -545460.288483 kJ/mol
# GULP energy per Si atom -12396.824738 kJ/mol
# Density = 2.092854 g / cm^3
# Si number density = 20.976282 Si / 1000 Ang^3
#
#
#
# Elastic Constant Matrix: (Units=GPa)
#
#
# Indices 1 2 3 4 5 6 
#
# 1 81.7036 32.3265 31.8284 0.0000 0.0000 0.0000
# 2 32.3265 96.0232 20.0961 0.0000 0.0000 0.0000
# 3 31.8284 20.0961 93.9029 0.0000 0.0000 0.0000
# 4 0.0000 0.0000 0.0000 22.8949 0.0000 0.0000
# 5 0.0000 0.0000 0.0000 0.0000 11.0482 0.0000
# 6 0.0000 0.0000 0.0000 0.0000 0.0000 29.2334
#
#
#
# Elastic Compliance Matrix: (Units=1/GPa)
#
#
# Indices 1 2 3 4 5 6 
#
# 1 0.015670 -0.004359 -0.004378 0.000000 0.000000 0.000000
# 2 -0.004359 0.012115 -0.001115 0.000000 0.000000 0.000000
# 3 -0.004378 -0.001115 0.012372 0.000000 0.000000 0.000000
# 4 0.000000 0.000000 0.000000 0.043678 0.000000 0.000000
# 5 0.000000 0.000000 0.000000 0.000000 0.090513 0.000000
# 6 0.000000 0.000000 0.000000 0.000000 0.000000 0.034207
#
#
# Mechanical properties :
#
#
# Convention : Reuss Voigt Hill
#
# Bulk Modulus (GPa) = 48.89604 48.90350 48.89977
# Shear Modulus (GPa) = 21.26965 25.12722 23.19843
#
# Velocity S-wave (km/s) = 3.18777 3.46481 3.32917
# Velocity P-wave (km/s) = 6.07535 6.27462 6.17579
#
# Compressibility (1/GPa) = 0.02045156
#
# Stress axis : x y z
#
# Youngs Moduli (GPa) = 63.81772 82.54236 80.82745
#
# Poissons Ratio (x) = 0.35979 0.35389
# Poissons Ratio (y) = 0.27817 0.09014
# Poissons Ratio (z) = 0.27942 0.09206
#
# Static dielectric constant tensor:
#      x y z
#    x 3.515000 0.000000 0.000000 
#    y 0.000000 3.736730 0.000000 
#    z 0.000000 0.000000 4.134050 
# 
# 
# High freq. dielectric constant tensor:
#      x y z
#    x 1.778750 0.000000 0.000000 
#    y 0.000000 1.832550 0.000000 
#    z 0.000000 0.000000 1.830980 
# 
# From -- ./inp_files/60452.got.cif
#   From: 2010.03.12/outbox.cif.g09.slc.cpg/sg66_31_cif.got.tgz:60452.got - 2010.04.10 21:57:39.
