data_PCOD8277212
_publ_section_title
;
Structure prediction by ZEFSAII (Michael W. Deem and Ramdas Pophale) SiO2 
 PCOD8277212
Probable space group: C C C M
;
_chemical_formula_sum "Si O2"
_cell_formula_units_Z 64
_cell_length_a 7.203045
_cell_length_b 18.437577
_cell_length_c 22.549906
_cell_angle_alpha 90.000000
_cell_angle_beta 90.000000
_cell_angle_gamma 90.000000
_cell_volume 2994.778530
_symmetry_space_group_name_H-M "C C C M"
_symmetry_group_IT_number 66
_symmetry_cell_setting 'orthorhombic'
loop_
_space_group_symop_operation_xyz
x,y,z
-x,-y,z
x,-y,1/2-z
-x,y,1/2-z
-x,-y,-z
x,y,-z
-x,y,1/2+z
x,-y,1/2+z
1/2+x,1/2+y,z
1/2-x,1/2-y,z
1/2+x,1/2-y,1/2-z
1/2-x,1/2+y,1/2-z
1/2-x,1/2-y,-z
1/2+x,1/2+y,-z
1/2-x,1/2+y,1/2+z
1/2+x,1/2-y,1/2+z
loop_
_atom_site_type_symbol
_atom_site_label
_atom_site_fract_x
_atom_site_fract_y
_atom_site_fract_z
Si Si1 0.451672 0.416249 0.376893
Si Si2 0.198261 0.173447 0.274106
Si Si3 0.161099 0.672043 0.066179
Si Si4 0.810663 0.330950 0.646806
O O1 0.500000 0.500000 0.377418
O O2 0.328047 0.393378 0.319123
O O3 0.323153 0.389337 0.431114
O O4 0.651896 0.380026 0.381302
O O5 0.250000 0.250000 0.306526
O O6 0.331516 0.153727 0.217868
O O7 0.000000 0.194569 0.250000
O O8 0.250000 0.750000 0.079471
O O9 0.005574 0.652759 0.115165
O O10 0.074865 0.669768 0.000000
O O11 0.750000 0.250000 0.633695
#
# Coordination Sequence:
#
# PCOD8277212 Si02
#       4
#    16  16  16  16
#     4  11  24  41  64  98 139 173 215 277 343 405
#     4   9  20  35  63  95 124 166 216 265 332 401
#     4  11  24  42  69  99 129 178 239 282 322 390
#     4  10  21  40  66  99 128 171 221 279 332 395
#
# _framework density 21.370529999999999
#
# number of rings (size 3 to 8) (size 9 to 14) (size 15 to 20)
#    0.000    1.750    2.500    0.750    7.000    7.500 
#    0.000    1.250    0.000    9.000    0.000    0.000 
#    0.000    0.000    0.000    0.000    0.000    0.000 
#
# Total GULP energy -396466.265124 kJ/mol
# GULP energy per Si atom -12389.570785 kJ/mol
# Density = 2.132189 g / cm^3
# Si number density = 21.370530 Si / 1000 Ang^3
#
#
#
# Elastic Constant Matrix: (Units=GPa)
#
#
# Indices 1 2 3 4 5 6 
#
# 1 114.3783 56.5663 57.0150 0.0000 0.0000 0.0000
# 2 56.5663 153.2761 32.3442 0.0000 0.0000 0.0000
# 3 57.0150 32.3442 108.6416 0.0000 0.0000 0.0000
# 4 0.0000 0.0000 0.0000 -15.8189 0.0000 0.0000
# 5 0.0000 0.0000 0.0000 0.0000 33.3270 0.0000
# 6 0.0000 0.0000 0.0000 0.0000 0.0000 37.7120
#
#
#
# Elastic Compliance Matrix: (Units=1/GPa)
#
#
# Indices 1 2 3 4 5 6 
#
# 1 0.013597 -0.003748 -0.006020 0.000000 0.000000 0.000000
# 2 -0.003748 0.007994 -0.000413 0.000000 0.000000 0.000000
# 3 -0.006020 -0.000413 0.012487 0.000000 0.000000 0.000000
# 4 0.000000 0.000000 0.000000 -0.063216 0.000000 0.000000
# 5 0.000000 0.000000 0.000000 0.000000 0.030006 0.000000
# 6 0.000000 0.000000 0.000000 0.000000 0.000000 0.026517
#
#
# Mechanical properties :
#
#
# Convention : Reuss Voigt Hill
#
# Bulk Modulus (GPa) = 72.90463 74.23855 73.57159
# Shear Modulus (GPa) = 95.56638 26.40208 60.98423
#
# Velocity S-wave (km/s) = 6.69446 3.51870 5.34776
# Velocity P-wave (km/s) = 9.69242 7.16397 8.52249
#
# Compressibility (1/GPa) = 0.01371655
#
# Stress axis : x y z
#
# Youngs Moduli (GPa) = 73.54448 125.08662 80.08366
#
# Poissons Ratio (x) = 0.46878 0.48211
# Poissons Ratio (y) = 0.27562 0.03310
# Poissons Ratio (z) = 0.44274 0.05170
#
# Static dielectric constant tensor:
#      x y z
#    x 3.028900 0.000000 0.000000 
#    y 0.000000 3.309190 0.000000 
#    z 0.000000 0.000000 4.448600 
# 
# 
# High freq. dielectric constant tensor:
#      x y z
#    x 1.854280 0.000000 0.000000 
#    y 0.000000 1.806430 0.000000 
#    z 0.000000 0.000000 1.835790 
# 
# From -- ./inp_files/55325.got.cif
#   From: 2010.03.12/outbox.cif.g09.slc.cpg/sg66_28_cif.got.tgz:55325.got - 2010.04.10 21:57:39.
