data_PCOD8277087
_publ_section_title
;
Structure prediction by ZEFSAII (Michael W. Deem and Ramdas Pophale) SiO2 
 PCOD8277087
Probable space group: C C C M
;
_chemical_formula_sum "Si O2"
_cell_formula_units_Z 96
_cell_length_a 15.414466
_cell_length_b 19.912621
_cell_length_c 15.582809
_cell_angle_alpha 90.000000
_cell_angle_beta 90.000000
_cell_angle_gamma 90.000000
_cell_volume 4783.025095
_symmetry_space_group_name_H-M "C C C M"
_symmetry_group_IT_number 66
_symmetry_cell_setting 'orthorhombic'
loop_
_space_group_symop_operation_xyz
x,y,z
-x,-y,z
x,-y,1/2-z
-x,y,1/2-z
-x,-y,-z
x,y,-z
-x,y,1/2+z
x,-y,1/2+z
1/2+x,1/2+y,z
1/2-x,1/2-y,z
1/2+x,1/2-y,1/2-z
1/2-x,1/2+y,1/2-z
1/2-x,1/2-y,-z
1/2+x,1/2+y,-z
1/2-x,1/2+y,1/2+z
1/2+x,1/2-y,1/2+z
loop_
_atom_site_type_symbol
_atom_site_label
_atom_site_fract_x
_atom_site_fract_y
_atom_site_fract_z
Si Si1 0.738921 0.534521 0.336057
Si Si2 0.016881 0.112031 0.000000
Si Si3 0.435866 0.689862 0.672663
Si Si4 0.908306 0.526270 0.097967
Si Si5 0.759237 0.823995 0.270349
Si Si6 0.130771 0.982382 0.000000
Si Si7 0.075274 0.658727 0.314532
O O1 0.700170 0.500000 0.250000
O O2 0.838454 0.511407 0.342998
O O3 0.725676 0.615443 0.337041
O O4 0.688181 0.506117 0.416466
O O5 0.040555 0.151865 0.085850
O O6 0.915217 0.091091 0.000000
O O7 0.063981 0.041999 0.000000
O O8 0.500000 0.667503 0.750000
O O9 0.336427 0.676426 0.700057
O O10 0.450271 0.768049 0.650279
O O11 0.912597 0.606745 0.107914
O O12 0.000000 0.500000 0.129614
O O13 0.888480 0.507794 0.000000
O O14 0.750000 0.750000 0.315038
O O15 0.668577 0.840564 0.228266
O O16 0.000000 0.633983 0.250000
#
# Coordination Sequence:
#
# PCOD8277087 Si02
#       7
#    16   8  16  16  16   8  16
#     4  12  22  40  67  87 125 169 203 256 323 363
#     4  11  24  42  64  87 125 165 202 272 320 358
#     4  10  22  41  64  92 125 161 211 256 317 381
#     4  11  24  38  58  93 127 159 207 254 308 383
#     4  10  21  38  61  93 122 161 211 256 305 372
#     4  11  26  42  59  94 121 154 228 262 300 385
#     4  10  21  39  63  92 124 161 205 253 307 383
#
# _framework density 20.070979999999999
#
# number of rings (size 3 to 8) (size 9 to 14) (size 15 to 20)
#    0.000    1.333    2.500    3.000    1.167    0.000 
#    0.000    3.333    0.000    0.000    0.000    0.000 
#    0.000    0.000    0.000    0.000    0.000    0.000 
#
# Total GULP energy -595022.079421 kJ/mol
# GULP energy per Si atom -12396.293321 kJ/mol
# Density = 2.002530 g / cm^3
# Si number density = 20.070980 Si / 1000 Ang^3
#
#
#
# Elastic Constant Matrix: (Units=GPa)
#
#
# Indices 1 2 3 4 5 6 
#
# 1 109.5060 22.8871 38.0649 0.0000 0.0000 0.0000
# 2 22.8871 126.6929 46.8363 0.0000 0.0000 0.0000
# 3 38.0649 46.8363 108.0361 0.0000 0.0000 0.0000
# 4 0.0000 0.0000 0.0000 29.4195 0.0000 0.0000
# 5 0.0000 0.0000 0.0000 0.0000 17.9558 0.0000
# 6 0.0000 0.0000 0.0000 0.0000 0.0000 59.6196
#
#
#
# Elastic Compliance Matrix: (Units=1/GPa)
#
#
# Indices 1 2 3 4 5 6 
#
# 1 0.010448 -0.000627 -0.003409 0.000000 0.000000 0.000000
# 2 -0.000627 0.009437 -0.003870 0.000000 0.000000 0.000000
# 3 -0.003409 -0.003870 0.012135 0.000000 0.000000 0.000000
# 4 0.000000 0.000000 0.000000 0.033991 0.000000 0.000000
# 5 0.000000 0.000000 0.000000 0.000000 0.055692 0.000000
# 6 0.000000 0.000000 0.000000 0.000000 0.000000 0.016773
#
#
# Mechanical properties :
#
#
# Convention : Reuss Voigt Hill
#
# Bulk Modulus (GPa) = 61.70156 62.20130 61.95143
# Shear Modulus (GPa) = 31.31013 37.16209 34.23611
#
# Velocity S-wave (km/s) = 3.95393 4.30761 4.13456
# Velocity P-wave (km/s) = 7.18701 7.46985 7.32980
#
# Compressibility (1/GPa) = 0.01620704
#
# Stress axis : x y z
#
# Youngs Moduli (GPa) = 95.71123 105.96390 82.40433
#
# Poissons Ratio (x) = 0.06645 0.28095
# Poissons Ratio (y) = 0.06002 0.31893
# Poissons Ratio (z) = 0.32632 0.41011
#
# Static dielectric constant tensor:
#      x y z
#    x 3.861680 0.000000 0.000000 
#    y 0.000000 4.283590 0.000000 
#    z 0.000000 0.000000 3.151400 
# 
# 
# High freq. dielectric constant tensor:
#      x y z
#    x 1.801080 0.000000 0.000000 
#    y 0.000000 1.798860 0.000000 
#    z 0.000000 0.000000 1.761170 
# 
# From -- ./inp_files/28444.got.cif
#   From: 2010.03.12/outbox.cif.g09.slc.cpg/sg66_15_cif.got.tgz:28444.got - 2010.04.10 21:57:39.
