data_PCOD8277035
_publ_section_title
;
Structure prediction by ZEFSAII (Michael W. Deem and Ramdas Pophale) SiO2 
 PCOD8277035
Probable space group: C C C M
;
_chemical_formula_sum "Si O2"
_cell_formula_units_Z 120
_cell_length_a 16.950191
_cell_length_b 18.198970
_cell_length_c 19.687084
_cell_angle_alpha 90.000000
_cell_angle_beta 90.000000
_cell_angle_gamma 90.000000
_cell_volume 6072.993269
_symmetry_space_group_name_H-M "C C C M"
_symmetry_group_IT_number 66
_symmetry_cell_setting 'orthorhombic'
loop_
_space_group_symop_operation_xyz
x,y,z
-x,-y,z
x,-y,1/2-z
-x,y,1/2-z
-x,-y,-z
x,y,-z
-x,y,1/2+z
x,-y,1/2+z
1/2+x,1/2+y,z
1/2-x,1/2-y,z
1/2+x,1/2-y,1/2-z
1/2-x,1/2+y,1/2-z
1/2-x,1/2-y,-z
1/2+x,1/2+y,-z
1/2-x,1/2+y,1/2+z
1/2+x,1/2-y,1/2+z
loop_
_atom_site_type_symbol
_atom_site_label
_atom_site_fract_x
_atom_site_fract_y
_atom_site_fract_z
Si Si1 0.166045 0.230568 0.178872
Si Si2 0.220117 0.330320 0.573470
Si Si3 0.332304 0.000000 0.750000
Si Si4 0.540244 0.163104 0.924379
Si Si5 0.961781 0.180194 0.577252
Si Si6 0.704410 0.613541 0.703211
Si Si7 0.035693 0.921394 0.817635
Si Si8 0.934716 0.622349 0.807172
O O1 0.250000 0.250000 0.144824
O O2 0.118082 0.185843 0.121808
O O3 0.187154 0.180646 0.244827
O O4 0.121264 0.305813 0.199401
O O5 0.224832 0.372043 0.500000
O O6 0.250000 0.250000 0.558571
O O7 0.130373 0.336016 0.602052
O O8 0.281251 0.358948 0.627833
O O9 0.278756 0.937449 0.782236
O O10 0.387140 0.954625 0.697451
O O11 0.509699 0.245540 0.924116
O O12 0.481837 0.115748 0.877743
O O13 0.535371 0.129917 0.000000
O O14 0.941414 0.154775 0.500000
O O15 0.019796 0.123440 0.614090
O O16 0.627144 0.564345 0.696887
O O17 0.000000 0.881380 0.750000
O O18 0.000000 0.000000 0.828569
O O19 0.000000 0.630762 0.750000
#
# Coordination Sequence:
#
# PCOD8277035 Si02
#       8
#    16  16   8  16  16  16  16  16
#     4  11  23  39  64  94 121 161 213 257 312 364
#     4  10  21  37  62  95 126 158 200 257 315 365
#     4  12  25  42  59  92 132 164 208 258 309 380
#     4   9  20  39  62  91 124 160 205 254 309 364
#     4  10  22  39  62  91 124 162 205 258 308 367
#     4  12  24  39  65  90 127 162 206 257 315 367
#     4  11  23  39  61  88 122 164 206 249 314 377
#     4  11  24  39  64  94 124 162 212 258 307 363
#
# _framework density 19.759613000000002
#
# number of rings (size 3 to 8) (size 9 to 14) (size 15 to 20)
#    0.000    1.333    2.667    3.000    5.600    2.133 
#    0.000    0.667    0.000    3.200    0.000    0.000 
#    0.000    0.000    0.000    0.000    0.000    0.000 
#
# Total GULP energy -743512.972783 kJ/mol
# GULP energy per Si atom -12391.882880 kJ/mol
# Density = 1.971464 g / cm^3
# Si number density = 19.759613 Si / 1000 Ang^3
#
#
#
# Elastic Constant Matrix: (Units=GPa)
#
#
# Indices 1 2 3 4 5 6 
#
# 1 133.2774 31.7090 48.1927 0.0000 0.0000 0.0000
# 2 31.7090 68.6460 37.7781 0.0000 0.0000 0.0000
# 3 48.1927 37.7781 130.2795 0.0000 0.0000 0.0000
# 4 0.0000 0.0000 0.0000 13.4458 0.0000 0.0000
# 5 0.0000 0.0000 0.0000 0.0000 32.8763 0.0000
# 6 0.0000 0.0000 0.0000 0.0000 0.0000 30.0500
#
#
#
# Elastic Compliance Matrix: (Units=1/GPa)
#
#
# Indices 1 2 3 4 5 6 
#
# 1 0.009091 -0.002795 -0.002553 0.000000 0.000000 0.000000
# 2 -0.002795 0.018193 -0.004242 0.000000 0.000000 0.000000
# 3 -0.002553 -0.004242 0.009850 0.000000 0.000000 0.000000
# 4 0.000000 0.000000 0.000000 0.074373 0.000000 0.000000
# 5 0.000000 0.000000 0.000000 0.000000 0.030417 0.000000
# 6 0.000000 0.000000 0.000000 0.000000 0.000000 0.033278
#
#
# Mechanical properties :
#
#
# Convention : Reuss Voigt Hill
#
# Bulk Modulus (GPa) = 55.69143 63.06248 59.37695
# Shear Modulus (GPa) = 24.95456 29.57599 27.26527
#
# Velocity S-wave (km/s) = 3.55760 3.87303 3.71866
# Velocity P-wave (km/s) = 6.71722 7.21004 6.96798
#
# Compressibility (1/GPa) = 0.01795608
#
# Stress axis : x y z
#
# Youngs Moduli (GPa) = 109.99863 54.96711 101.52247
#
# Poissons Ratio (x) = 0.15361 0.25914
# Poissons Ratio (y) = 0.30740 0.43063
# Poissons Ratio (z) = 0.28078 0.23315
#
# Static dielectric constant tensor:
#      x y z
#    x 3.967320 0.000000 0.000000 
#    y 0.000000 3.490100 0.000000 
#    z 0.000000 0.000000 4.131040 
# 
# 
# High freq. dielectric constant tensor:
#      x y z
#    x 1.793820 0.000000 0.000000 
#    y 0.000000 1.751310 0.000000 
#    z 0.000000 0.000000 1.770390 
# 
# From -- ./inp_files/42054.got.cif
#   From: 2010.03.12/outbox.cif.g09.slc.cpg/sg66_22_cif.got.tgz:42054.got - 2010.04.10 21:57:39.
