data_PCOD8277475
_publ_section_title
;
Structure prediction by ZEFSAII (Michael W. Deem and Ramdas Pophale) SiO2 
 PCOD8277475
Probable space group: C C C M
;
_chemical_formula_sum "Si O2"
_cell_formula_units_Z 64
_cell_length_a 10.357984
_cell_length_b 14.299299
_cell_length_c 18.583873
_cell_angle_alpha 90.000000
_cell_angle_beta 90.000000
_cell_angle_gamma 90.000000
_cell_volume 2752.492930
_symmetry_space_group_name_H-M "C C C M"
_symmetry_group_IT_number 66
_symmetry_cell_setting 'orthorhombic'
loop_
_space_group_symop_operation_xyz
x,y,z
-x,-y,z
x,-y,1/2-z
-x,y,1/2-z
-x,-y,-z
x,y,-z
-x,y,1/2+z
x,-y,1/2+z
1/2+x,1/2+y,z
1/2-x,1/2-y,z
1/2+x,1/2-y,1/2-z
1/2-x,1/2+y,1/2-z
1/2-x,1/2-y,-z
1/2+x,1/2+y,-z
1/2-x,1/2+y,1/2+z
1/2+x,1/2-y,1/2+z
loop_
_atom_site_type_symbol
_atom_site_label
_atom_site_fract_x
_atom_site_fract_y
_atom_site_fract_z
Si Si1 0.731913 0.854617 0.580955
Si Si2 0.934563 0.646758 0.081172
Si Si3 0.253836 0.476584 0.171599
Si Si4 0.384881 0.706720 0.304524
O O1 0.789674 0.860257 0.500000
O O2 0.750000 0.750000 0.611630
O O3 0.582795 0.883264 0.580958
O O4 0.805246 0.928300 0.632994
O O5 0.858115 0.567820 0.123822
O O6 0.916553 0.747272 0.118517
O O7 0.881210 0.654087 0.000000
O O8 0.195796 0.500000 0.250000
O O9 0.372379 0.404332 0.181892
O O10 0.500000 0.729917 0.250000
O O11 0.250000 0.750000 0.274094
#
# Coordination Sequence:
#
# PCOD8277475 Si02
#       4
#    16  16  16  16
#     4  10  23  42  66  97 140 187 234 288 350 418
#     4  10  23  43  71 100 135 187 239 292 348 420
#     4  11  25  40  65 103 134 184 226 294 345 421
#     4  10  25  45  72 106 143 186 230 294 352 428
#
# _framework density 23.251649
#
# number of rings (size 3 to 8) (size 9 to 14) (size 15 to 20)
#    0.000    1.750    0.000    1.500   10.500    9.000 
#    0.000    0.000    0.000    4.500    0.000    0.000 
#    0.000    0.000    0.000    0.000    0.000    0.000 
#
# Total GULP energy -396859.198858 kJ/mol
# GULP energy per Si atom -12401.849964 kJ/mol
# Density = 2.319873 g / cm^3
# Si number density = 23.251649 Si / 1000 Ang^3
#
#
#
# Elastic Constant Matrix: (Units=GPa)
#
#
# Indices 1 2 3 4 5 6 
#
# 1 64.3653 14.0284 40.4031 0.0000 0.0000 0.0000
# 2 14.0284 185.0371 92.3764 0.0000 0.0000 0.0000
# 3 40.4031 92.3764 190.3560 0.0000 0.0000 0.0000
# 4 0.0000 0.0000 0.0000 44.9894 0.0000 0.0000
# 5 0.0000 0.0000 0.0000 0.0000 17.8490 0.0000
# 6 0.0000 0.0000 0.0000 0.0000 0.0000 25.7557
#
#
#
# Elastic Compliance Matrix: (Units=1/GPa)
#
#
# Indices 1 2 3 4 5 6 
#
# 1 0.017996 0.000716 -0.004167 0.000000 0.000000 0.000000
# 2 0.000716 0.007161 -0.003627 0.000000 0.000000 0.000000
# 3 -0.004167 -0.003627 0.007898 0.000000 0.000000 0.000000
# 4 0.000000 0.000000 0.000000 0.022227 0.000000 0.000000
# 5 0.000000 0.000000 0.000000 0.000000 0.056025 0.000000
# 6 0.000000 0.000000 0.000000 0.000000 0.000000 0.038826
#
#
# Mechanical properties :
#
#
# Convention : Reuss Voigt Hill
#
# Bulk Modulus (GPa) = 52.91419 81.48603 67.20011
# Shear Modulus (GPa) = 29.31011 37.24886 33.27948
#
# Velocity S-wave (km/s) = 3.55429 4.00683 3.78732
# Velocity P-wave (km/s) = 6.29687 7.51848 6.93463
#
# Compressibility (1/GPa) = 0.01889852
#
# Stress axis : x y z
#
# Youngs Moduli (GPa) = 55.56775 139.65067 126.61619
#
# Poissons Ratio (x) = -0.09999 0.52763
# Poissons Ratio (y) = -0.03979 0.45923
# Poissons Ratio (z) = 0.23156 0.50651
#
# Static dielectric constant tensor:
#      x y z
#    x 3.936800 0.000000 0.000000 
#    y 0.000000 4.415530 0.000000 
#    z 0.000000 0.000000 4.347950 
# 
# 
# High freq. dielectric constant tensor:
#      x y z
#    x 1.890830 0.000000 0.000000 
#    y 0.000000 1.935140 0.000000 
#    z 0.000000 0.000000 1.929790 
# 
# From -- ./inp_files/37978.got.cif
#   From: 2010.03.12/outbox.cif.g09.slc.cpg/sg66_19_cif.got.tgz:37978.got - 2010.04.10 21:57:39.
