data_PCOD8277333
_publ_section_title
;
Structure prediction by ZEFSAII (Michael W. Deem and Ramdas Pophale) SiO2 
 PCOD8277333
Probable space group: C C C M
;
_chemical_formula_sum "Si O2"
_cell_formula_units_Z 80
_cell_length_a 11.296927
_cell_length_b 24.736214
_cell_length_c 15.174362
_cell_angle_alpha 90.000000
_cell_angle_beta 90.000000
_cell_angle_gamma 90.000000
_cell_volume 4240.372333
_symmetry_space_group_name_H-M "C C C M"
_symmetry_group_IT_number 66
_symmetry_cell_setting 'orthorhombic'
loop_
_space_group_symop_operation_xyz
x,y,z
-x,-y,z
x,-y,1/2-z
-x,y,1/2-z
-x,-y,-z
x,y,-z
-x,y,1/2+z
x,-y,1/2+z
1/2+x,1/2+y,z
1/2-x,1/2-y,z
1/2+x,1/2-y,1/2-z
1/2-x,1/2+y,1/2-z
1/2-x,1/2-y,-z
1/2+x,1/2+y,-z
1/2-x,1/2+y,1/2+z
1/2+x,1/2-y,1/2+z
loop_
_atom_site_type_symbol
_atom_site_label
_atom_site_fract_x
_atom_site_fract_y
_atom_site_fract_z
Si Si1 0.273530 0.907502 0.904968
Si Si2 0.259926 0.187098 0.101294
Si Si3 0.804422 0.522723 0.839347
Si Si4 0.362817 0.391217 0.768862
Si Si5 0.527315 0.117049 0.352863
O O1 0.200700 0.881527 0.825186
O O2 0.405506 0.883124 0.905317
O O3 0.275882 0.972922 0.902828
O O4 0.217169 0.891753 0.000000
O O5 0.250000 0.250000 0.121243
O O6 0.166636 0.157925 0.165792
O O7 0.394783 0.169164 0.121636
O O8 0.227000 0.173829 0.000000
O O9 0.863816 0.500000 0.750000
O O10 0.682567 0.553512 0.813729
O O11 0.897198 0.564240 0.882056
O O12 0.500000 0.395694 0.750000
O O13 0.500000 0.116973 0.250000
#
# Coordination Sequence:
#
# PCOD8277333 Si02
#       5
#    16  16  16  16  16
#     4  11  22  34  56  88 121 154 194 238 287 343
#     4  10  22  40  63  88 112 146 195 248 305 359
#     4   9  18  31  52  81 117 154 193 226 282 342
#     4  10  22  40  58  79 116 161 198 245 291 349
#     4  11  18  34  60  86 117 154 186 239 298 351
#
# _framework density 18.866268000000002
#
# number of rings (size 3 to 8) (size 9 to 14) (size 15 to 20)
#    0.000    1.800    6.000    1.200    0.000   10.000 
#    0.000    1.000    0.000    0.600    0.000    0.000 
#    0.000    0.000    0.000    0.000    0.000    0.000 
#
# Total GULP energy -495859.692266 kJ/mol
# GULP energy per Si atom -12396.492307 kJ/mol
# Density = 1.882333 g / cm^3
# Si number density = 18.866268 Si / 1000 Ang^3
#
#
#
# Elastic Constant Matrix: (Units=GPa)
#
#
# Indices 1 2 3 4 5 6 
#
# 1 136.1012 38.0209 31.4439 0.0000 0.0000 0.0000
# 2 38.0209 97.5301 35.6301 0.0000 0.0000 0.0000
# 3 31.4439 35.6301 113.9296 0.0000 0.0000 0.0000
# 4 0.0000 0.0000 0.0000 21.8104 0.0000 0.0000
# 5 0.0000 0.0000 0.0000 0.0000 9.6022 0.0000
# 6 0.0000 0.0000 0.0000 0.0000 0.0000 16.6796
#
#
#
# Elastic Compliance Matrix: (Units=1/GPa)
#
#
# Indices 1 2 3 4 5 6 
#
# 1 0.008458 -0.002760 -0.001471 0.000000 0.000000 0.000000
# 2 -0.002760 0.012476 -0.003140 0.000000 0.000000 0.000000
# 3 -0.001471 -0.003140 0.010165 0.000000 0.000000 0.000000
# 4 0.000000 0.000000 0.000000 0.045850 0.000000 0.000000
# 5 0.000000 0.000000 0.000000 0.000000 0.104143 0.000000
# 6 0.000000 0.000000 0.000000 0.000000 0.000000 0.059953
#
#
# Mechanical properties :
#
#
# Convention : Reuss Voigt Hill
#
# Bulk Modulus (GPa) = 61.13403 61.97230 61.55317
# Shear Modulus (GPa) = 19.13937 25.78284 22.46110
#
# Velocity S-wave (km/s) = 3.18854 3.70078 3.45417
# Velocity P-wave (km/s) = 6.78454 7.15406 6.97175
#
# Compressibility (1/GPa) = 0.01635750
#
# Stress axis : x y z
#
# Youngs Moduli (GPa) = 118.22574 80.15190 98.37230
#
# Poissons Ratio (x) = 0.22121 0.14474
# Poissons Ratio (y) = 0.32629 0.30890
# Poissons Ratio (z) = 0.17395 0.25169
#
# Static dielectric constant tensor:
#      x y z
#    x 3.412680 0.000000 0.000000 
#    y 0.000000 3.484790 0.000000 
#    z 0.000000 0.000000 3.581720 
# 
# 
# High freq. dielectric constant tensor:
#      x y z
#    x 1.719450 0.000000 0.000000 
#    y 0.000000 1.713280 0.000000 
#    z 0.000000 0.000000 1.740220 
# 
# From -- ./inp_files/26358.got.cif
#   From: 2010.03.12/outbox.cif.g09.slc.cpg/sg66_14_cif.got.tgz:26358.got - 2010.04.10 21:57:39.
