data_PCOD8277609
_publ_section_title
;
Structure prediction by ZEFSAII (Michael W. Deem and Ramdas Pophale) SiO2 
 PCOD8277609
Probable space group: C C C M
;
_chemical_formula_sum "Si O2"
_cell_formula_units_Z 64
_cell_length_a 20.432520
_cell_length_b 11.410040
_cell_length_c 14.867040
_cell_angle_alpha 90.000000
_cell_angle_beta 90.000000
_cell_angle_gamma 90.000000
_cell_volume 3466.040312
_symmetry_space_group_name_H-M "C C C M"
_symmetry_group_IT_number 66
_symmetry_cell_setting 'orthorhombic'
loop_
_space_group_symop_operation_xyz
x,y,z
-x,-y,z
x,-y,1/2-z
-x,y,1/2-z
-x,-y,-z
x,y,-z
-x,y,1/2+z
x,-y,1/2+z
1/2+x,1/2+y,z
1/2-x,1/2-y,z
1/2+x,1/2-y,1/2-z
1/2-x,1/2+y,1/2-z
1/2-x,1/2-y,-z
1/2+x,1/2+y,-z
1/2-x,1/2+y,1/2+z
1/2+x,1/2-y,1/2+z
loop_
_atom_site_type_symbol
_atom_site_label
_atom_site_fract_x
_atom_site_fract_y
_atom_site_fract_z
Si Si1 0.335867 0.200102 0.601481
Si Si2 0.709519 0.434034 0.157158
Si Si3 0.194918 0.903042 0.500000
Si Si4 0.923561 0.495078 0.144750
Si Si5 0.650875 0.146007 0.500000
O O1 0.323201 0.243495 0.500000
O O2 0.333644 0.315008 0.664619
O O3 0.282010 0.103327 0.627649
O O4 0.404578 0.134430 0.609968
O O5 0.713020 0.500000 0.250000
O O6 0.675994 0.522843 0.087691
O O7 0.272782 0.884244 0.500000
O O8 0.149465 0.787291 0.500000
O O9 0.906025 0.500000 0.250000
O O10 0.000000 0.500000 0.125748
O O11 0.884883 0.595686 0.089312
#
# Coordination Sequence:
#
# PCOD8277609 Si02
#       5
#    16  16   8  16   8
#     4  11  20  37  59  81 117 149 193 236 281 345
#     4  11  21  34  57  85 119 152 182 230 295 345
#     4  11  22  36  52  93 123 148 180 237 288 350
#     4  11  23  39  59  85 112 149 199 239 278 332
#     4  11  23  35  59  82 126 147 184 237 291 334
#
# _framework density 18.464874999999999
#
# number of rings (size 3 to 8) (size 9 to 14) (size 15 to 20)
#    0.000    1.000    6.250    1.875    3.500    2.000 
#    0.000    0.000    0.000    3.000    0.000    0.000 
#    0.000    0.000    0.000    0.000    0.000    0.000 
#
# Total GULP energy -396696.376748 kJ/mol
# GULP energy per Si atom -12396.761773 kJ/mol
# Density = 1.842285 g / cm^3
# Si number density = 18.464875 Si / 1000 Ang^3
#
#
#
# Elastic Constant Matrix: (Units=GPa)
#
#
# Indices 1 2 3 4 5 6 
#
# 1 82.0633 41.8939 22.6255 0.0000 0.0000 0.0000
# 2 41.8939 126.7454 38.3367 0.0000 0.0000 0.0000
# 3 22.6255 38.3367 116.8088 0.0000 0.0000 0.0000
# 4 0.0000 0.0000 0.0000 36.4261 0.0000 0.0000
# 5 0.0000 0.0000 0.0000 0.0000 19.1850 0.0000
# 6 0.0000 0.0000 0.0000 0.0000 0.0000 26.8783
#
#
#
# Elastic Compliance Matrix: (Units=1/GPa)
#
#
# Indices 1 2 3 4 5 6 
#
# 1 0.014865 -0.004488 -0.001406 0.000000 0.000000 0.000000
# 2 -0.004488 0.010114 -0.002450 0.000000 0.000000 0.000000
# 3 -0.001406 -0.002450 0.009638 0.000000 0.000000 0.000000
# 4 0.000000 0.000000 0.000000 0.027453 0.000000 0.000000
# 5 0.000000 0.000000 0.000000 0.000000 0.052124 0.000000
# 6 0.000000 0.000000 0.000000 0.000000 0.000000 0.037205
#
#
# Mechanical properties :
#
#
# Convention : Reuss Voigt Hill
#
# Bulk Modulus (GPa) = 55.77989 59.03664 57.40826
# Shear Modulus (GPa) = 28.72524 31.34863 30.03693
#
# Velocity S-wave (km/s) = 3.94848 4.12484 4.03762
# Velocity P-wave (km/s) = 7.14573 7.39781 7.27286
#
# Compressibility (1/GPa) = 0.01792761
#
# Stress axis : x y z
#
# Youngs Moduli (GPa) = 67.27416 98.86919 103.76069
#
# Poissons Ratio (x) = 0.44372 0.14592
# Poissons Ratio (y) = 0.30192 0.25424
# Poissons Ratio (z) = 0.09461 0.24225
#
# Static dielectric constant tensor:
#      x y z
#    x 3.154940 0.000000 0.000000 
#    y 0.000000 3.588330 0.000000 
#    z 0.000000 0.000000 3.680040 
# 
# 
# High freq. dielectric constant tensor:
#      x y z
#    x 1.681190 0.000000 0.000000 
#    y 0.000000 1.727060 0.000000 
#    z 0.000000 0.000000 1.728780 
# 
# From -- ./inp_files/29600.got.cif
#   From: 2010.03.12/outbox.cif.g09.slc.cpg/sg66_15_cif.got.tgz:29600.got - 2010.04.10 21:57:39.
