data_PCOD8277603
_publ_section_title
;
Structure prediction by ZEFSAII (Michael W. Deem and Ramdas Pophale) SiO2 
 PCOD8277603
Probable space group: C C C M
;
_chemical_formula_sum "Si O2"
_cell_formula_units_Z 112
_cell_length_a 11.458882
_cell_length_b 27.205673
_cell_length_c 18.679263
_cell_angle_alpha 90.000000
_cell_angle_beta 90.000000
_cell_angle_gamma 90.000000
_cell_volume 5823.196668
_symmetry_space_group_name_H-M "C C C M"
_symmetry_group_IT_number 66
_symmetry_cell_setting 'orthorhombic'
loop_
_space_group_symop_operation_xyz
x,y,z
-x,-y,z
x,-y,1/2-z
-x,y,1/2-z
-x,-y,-z
x,y,-z
-x,y,1/2+z
x,-y,1/2+z
1/2+x,1/2+y,z
1/2-x,1/2-y,z
1/2+x,1/2-y,1/2-z
1/2-x,1/2+y,1/2-z
1/2-x,1/2-y,-z
1/2+x,1/2+y,-z
1/2-x,1/2+y,1/2+z
1/2+x,1/2-y,1/2+z
loop_
_atom_site_type_symbol
_atom_site_label
_atom_site_fract_x
_atom_site_fract_y
_atom_site_fract_z
Si Si1 0.341305 0.210256 0.583996
Si Si2 0.526740 0.657982 0.827246
Si Si3 0.055026 0.727841 0.322971
Si Si4 0.599600 0.933097 0.082013
Si Si5 0.832824 0.459023 0.081502
Si Si6 0.272981 0.856406 0.322940
Si Si7 0.220735 0.874739 0.156539
O O1 0.341115 0.214723 0.500000
O O2 0.250000 0.250000 0.617597
O O3 0.471755 0.219992 0.609518
O O4 0.309381 0.155797 0.607995
O O5 0.500000 0.634279 0.750000
O O6 0.568092 0.714020 0.815919
O O7 0.645709 0.635508 0.860890
O O8 0.408157 0.644959 0.869482
O O9 0.177051 0.698969 0.334056
O O10 0.000000 0.706025 0.250000
O O11 0.463583 0.940879 0.095713
O O12 0.638105 0.893273 0.139980
O O13 0.672231 0.982829 0.096926
O O14 0.620888 0.915578 0.000000
O O15 0.741467 0.431507 0.134221
O O16 0.795966 0.448330 0.000000
O O17 0.252993 0.866803 0.239035
#
# Coordination Sequence:
#
# PCOD8277603 Si02
#       7
#    16  16  16  16  16  16  16
#     4  11  22  35  54  84 118 147 184 241 289 330
#     4   9  21  36  53  77 116 156 189 230 283 336
#     4  11  20  35  58  82 113 152 196 236 278 343
#     4   9  20  39  58  83 114 143 183 236 298 353
#     4   9  19  37  62  83 109 147 180 234 306 353
#     4  11  22  34  57  85 112 151 193 236 285 338
#     4  11  20  36  57  84 113 148 196 236 283 345
#
# _framework density 19.233422000000001
#
# number of rings (size 3 to 8) (size 9 to 14) (size 15 to 20)
#    0.000    1.857    2.857    2.571    0.000    2.286 
#    0.000    4.286    0.000    6.000    0.000    0.000 
#    0.000    0.000    0.000    0.000    0.000    0.000 
#
# Total GULP energy -693939.983375 kJ/mol
# GULP energy per Si atom -12391.785417 kJ/mol
# Density = 1.918965 g / cm^3
# Si number density = 19.233422 Si / 1000 Ang^3
#
#
#
# Elastic Constant Matrix: (Units=GPa)
#
#
# Indices 1 2 3 4 5 6 
#
# 1 80.9939 20.9637 29.7583 0.0000 0.0000 0.0000
# 2 20.9637 70.2340 22.9964 0.0000 0.0000 0.0000
# 3 29.7583 22.9964 61.4115 0.0000 0.0000 0.0000
# 4 0.0000 0.0000 0.0000 30.4177 0.0000 0.0000
# 5 0.0000 0.0000 0.0000 0.0000 19.2326 0.0000
# 6 0.0000 0.0000 0.0000 0.0000 0.0000 20.4139
#
#
#
# Elastic Compliance Matrix: (Units=1/GPa)
#
#
# Indices 1 2 3 4 5 6 
#
# 1 0.015383 -0.002451 -0.006536 0.000000 0.000000 0.000000
# 2 -0.002451 0.016618 -0.005035 0.000000 0.000000 0.000000
# 3 -0.006536 -0.005035 0.021336 0.000000 0.000000 0.000000
# 4 0.000000 0.000000 0.000000 0.032876 0.000000 0.000000
# 5 0.000000 0.000000 0.000000 0.000000 0.051995 0.000000
# 6 0.000000 0.000000 0.000000 0.000000 0.000000 0.048986
#
#
# Mechanical properties :
#
#
# Convention : Reuss Voigt Hill
#
# Bulk Modulus (GPa) = 39.53789 40.00844 39.77316
# Shear Modulus (GPa) = 22.35441 23.27426 22.81433
#
# Velocity S-wave (km/s) = 3.41290 3.48242 3.44784
# Velocity P-wave (km/s) = 6.01099 6.08410 6.04766
#
# Compressibility (1/GPa) = 0.02529220
#
# Stress axis : x y z
#
# Youngs Moduli (GPa) = 65.00889 60.17417 46.86868
#
# Poissons Ratio (x) = 0.14751 0.30633
# Poissons Ratio (y) = 0.15936 0.23599
# Poissons Ratio (z) = 0.42490 0.30298
#
# Static dielectric constant tensor:
#      x y z
#    x 3.732040 0.000000 0.000000 
#    y 0.000000 3.503490 0.000000 
#    z 0.000000 0.000000 3.288730 
# 
# 
# High freq. dielectric constant tensor:
#      x y z
#    x 1.748800 0.000000 0.000000 
#    y 0.000000 1.740330 0.000000 
#    z 0.000000 0.000000 1.728860 
# 
# From -- ./inp_files/49158.got.cif
#   From: 2010.03.12/outbox.cif.g09.slc.cpg/sg66_25_cif.got.tgz:49158.got - 2010.04.10 21:57:39.
