data_PCOD8277500
_publ_section_title
;
Structure prediction by ZEFSAII (Michael W. Deem and Ramdas Pophale) SiO2 
 PCOD8277500
Probable space group: C C C M
;
_chemical_formula_sum "Si O2"
_cell_formula_units_Z 88
_cell_length_a 26.420854
_cell_length_b 5.222663
_cell_length_c 26.524356
_cell_angle_alpha 90.000000
_cell_angle_beta 90.000000
_cell_angle_gamma 90.000000
_cell_volume 3660.022057
_symmetry_space_group_name_H-M "C C C M"
_symmetry_group_IT_number 66
_symmetry_cell_setting 'orthorhombic'
loop_
_space_group_symop_operation_xyz
x,y,z
-x,-y,z
x,-y,1/2-z
-x,y,1/2-z
-x,-y,-z
x,y,-z
-x,y,1/2+z
x,-y,1/2+z
1/2+x,1/2+y,z
1/2-x,1/2-y,z
1/2+x,1/2-y,1/2-z
1/2-x,1/2+y,1/2-z
1/2-x,1/2-y,-z
1/2+x,1/2+y,-z
1/2-x,1/2+y,1/2+z
1/2+x,1/2-y,1/2+z
loop_
_atom_site_type_symbol
_atom_site_label
_atom_site_fract_x
_atom_site_fract_y
_atom_site_fract_z
Si Si1 0.834139 0.522145 0.310440
Si Si2 0.000000 0.500000 0.904635
Si Si3 0.393016 0.874258 0.442482
Si Si4 0.161634 0.124022 0.439515
Si Si5 0.750000 0.750000 0.373215
Si Si6 0.000000 0.000000 0.657910
Si Si7 0.110018 0.021807 0.192731
O O1 0.827884 0.500000 0.250000
O O2 0.779373 0.551331 0.336538
O O3 0.867985 0.761306 0.330863
O O4 0.863223 0.271561 0.331594
O O5 0.952679 0.579581 0.938595
O O6 0.014948 0.748320 0.872927
O O7 0.377658 0.865834 0.500000
O O8 0.377273 0.597053 0.420065
O O9 0.360751 0.106563 0.419242
O O10 0.169515 0.116834 0.500000
O O11 0.214361 0.083738 0.410438
O O12 0.049548 0.940282 0.690652
O O13 0.126536 0.000000 0.250000
#
# Coordination Sequence:
#
# PCOD8277500 Si02
#       7
#    16   8  16  16   8   8  16
#     4  10  25  44  68  98 135 178 233 280 338 410
#     4  12  25  38  67 106 136 172 224 274 337 418
#     4  10  23  45  67  95 139 180 220 275 340 415
#     4  10  24  44  70 103 136 178 232 285 345 416
#     4  12  27  44  76  98 140 184 231 300 352 400
#     4  12  25  38  69 104 136 172 222 280 333 422
#     4  10  23  46  67  95 135 179 220 277 340 409
#
# _framework density 24.043569999999999
#
# number of rings (size 3 to 8) (size 9 to 14) (size 15 to 20)
#    0.000    1.455    0.000    3.000    7.636    5.091 
#    0.000   10.000    0.000    0.000    0.000    0.000 
#    0.000    0.000    0.000    0.000    0.000    0.000 
#
# Total GULP energy -545565.161921 kJ/mol
# GULP energy per Si atom -12399.208225 kJ/mol
# Density = 2.398885 g / cm^3
# Si number density = 24.043570 Si / 1000 Ang^3
#
#
#
# Elastic Constant Matrix: (Units=GPa)
#
#
# Indices 1 2 3 4 5 6 
#
# 1 179.8111 78.3371 33.5502 0.0000 0.0000 0.0000
# 2 78.3371 212.5146 45.6508 0.0000 0.0000 0.0000
# 3 33.5502 45.6508 36.1443 0.0000 0.0000 0.0000
# 4 0.0000 0.0000 0.0000 23.1210 0.0000 0.0000
# 5 0.0000 0.0000 0.0000 0.0000 57.8140 0.0000
# 6 0.0000 0.0000 0.0000 0.0000 0.0000 44.6550
#
#
#
# Elastic Compliance Matrix: (Units=1/GPa)
#
#
# Indices 1 2 3 4 5 6 
#
# 1 0.007127 -0.001655 -0.004525 0.000000 0.000000 0.000000
# 2 -0.001655 0.006842 -0.007105 0.000000 0.000000 0.000000
# 3 -0.004525 -0.007105 0.040841 0.000000 0.000000 0.000000
# 4 0.000000 0.000000 0.000000 0.043251 0.000000 0.000000
# 5 0.000000 0.000000 0.000000 0.000000 0.017297 0.000000
# 6 0.000000 0.000000 0.000000 0.000000 0.000000 0.022394
#
#
# Mechanical properties :
#
#
# Convention : Reuss Voigt Hill
#
# Bulk Modulus (GPa) = 35.41156 82.61624 59.01390
# Shear Modulus (GPa) = 28.77955 43.18011 35.97983
#
# Velocity S-wave (km/s) = 3.46349 4.24242 3.87259
# Velocity P-wave (km/s) = 5.54566 7.64416 6.67785
#
# Compressibility (1/GPa) = 0.02823936
#
# Stress axis : x y z
#
# Youngs Moduli (GPa) = 140.31715 146.15759 24.48522
#
# Poissons Ratio (x) = 0.24190 0.11079
# Poissons Ratio (y) = 0.23223 0.17397
# Poissons Ratio (z) = 0.63492 1.03848
#
# Static dielectric constant tensor:
#      x y z
#    x 4.156130 0.000000 0.000000 
#    y 0.000000 4.757530 0.000000 
#    z 0.000000 0.000000 4.254120 
# 
# 
# High freq. dielectric constant tensor:
#      x y z
#    x 1.949940 0.000000 0.000000 
#    y 0.000000 1.965750 0.000000 
#    z 0.000000 0.000000 1.975690 
# 
# From -- ./inp_files/70404.got.cif
#   From: 2010.03.12/outbox.cif.g09.slc.cpg/sg66_36_cif.got.tgz:70404.got - 2010.04.10 21:57:39.
