data_PCOD8277828
_publ_section_title
;
Structure prediction by ZEFSAII (Michael W. Deem and Ramdas Pophale) SiO2 
 PCOD8277828
Probable space group: C C C M
;
_chemical_formula_sum "Si O2"
_cell_formula_units_Z 56
_cell_length_a 13.853240
_cell_length_b 5.550519
_cell_length_c 31.550569
_cell_angle_alpha 90.000000
_cell_angle_beta 90.000000
_cell_angle_gamma 90.000000
_cell_volume 2426.007548
_symmetry_space_group_name_H-M "C C C M"
_symmetry_group_IT_number 66
_symmetry_cell_setting 'orthorhombic'
loop_
_space_group_symop_operation_xyz
x,y,z
-x,-y,z
x,-y,1/2-z
-x,y,1/2-z
-x,-y,-z
x,y,-z
-x,y,1/2+z
x,-y,1/2+z
1/2+x,1/2+y,z
1/2-x,1/2-y,z
1/2+x,1/2-y,1/2-z
1/2-x,1/2+y,1/2-z
1/2-x,1/2-y,-z
1/2+x,1/2+y,-z
1/2-x,1/2+y,1/2+z
1/2+x,1/2-y,1/2+z
loop_
_atom_site_type_symbol
_atom_site_label
_atom_site_fract_x
_atom_site_fract_y
_atom_site_fract_z
Si Si1 0.855318 0.826312 0.714052
Si Si2 0.808993 0.999104 0.546074
Si Si3 0.000000 0.500000 0.174026
Si Si4 0.643305 0.640204 0.132490
O O1 0.750000 0.750000 0.730151
O O2 0.923443 0.599650 0.707800
O O3 0.899822 0.000000 0.750000
O O4 0.852530 0.938778 0.667796
O O5 0.862167 0.980195 0.500000
O O6 0.750000 0.750000 0.552635
O O7 0.750000 0.250000 0.545657
O O8 0.880396 0.019933 0.586576
O O9 0.055566 0.318144 0.142975
O O10 0.750000 0.750000 0.131314
#
# Coordination Sequence:
#
# PCOD8277828 Si02
#       4
#    16  16   8  16
#     4  12  27  49  72 101 140 186 240 300 363 438
#     4   9  19  37  69 107 144 192 245 299 365 432
#     4  12  28  47  71 102 140 190 235 300 372 439
#     4  11  23  44  72 101 144 189 238 301 361 436
#
# _framework density 23.083193000000001
#
# number of rings (size 3 to 8) (size 9 to 14) (size 15 to 20)
#    0.000    1.143    2.857    2.571    4.000    3.429 
#    0.000    0.714    0.000    3.429    0.000    0.000 
#    0.000    0.000    0.000    0.000    0.000    0.000 
#
# Total GULP energy -346874.578383 kJ/mol
# GULP energy per Si atom -12388.377799 kJ/mol
# Density = 2.303065 g / cm^3
# Si number density = 23.083193 Si / 1000 Ang^3
#
#
#
# Elastic Constant Matrix: (Units=GPa)
#
#
# Indices 1 2 3 4 5 6 
#
# 1 103.7849 26.5564 21.5685 0.0000 0.0000 0.0000
# 2 26.5564 123.3488 37.3312 0.0000 0.0000 0.0000
# 3 21.5685 37.3312 198.9378 0.0000 0.0000 0.0000
# 4 0.0000 0.0000 0.0000 47.3912 0.0000 0.0000
# 5 0.0000 0.0000 0.0000 0.0000 -25.8319 0.0000
# 6 0.0000 0.0000 0.0000 0.0000 0.0000 19.4679
#
#
#
# Elastic Compliance Matrix: (Units=1/GPa)
#
#
# Indices 1 2 3 4 5 6 
#
# 1 0.010300 -0.001993 -0.000743 0.000000 0.000000 0.000000
# 2 -0.001993 0.008981 -0.001469 0.000000 0.000000 0.000000
# 3 -0.000743 -0.001469 0.005383 0.000000 0.000000 0.000000
# 4 0.000000 0.000000 0.000000 0.021101 0.000000 0.000000
# 5 0.000000 0.000000 0.000000 0.000000 -0.038712 0.000000
# 6 0.000000 0.000000 0.000000 0.000000 0.000000 0.051367
#
#
# Mechanical properties :
#
#
# Convention : Reuss Voigt Hill
#
# Bulk Modulus (GPa) = 61.52331 66.33155 63.92743
# Shear Modulus (GPa) = 69.20782 30.91313 50.06047
#
# Velocity S-wave (km/s) = 5.48151 3.66349 4.66198
# Velocity P-wave (km/s) = 8.17150 6.83323 7.53215
#
# Compressibility (1/GPa) = 0.01625400
#
# Stress axis : x y z
#
# Youngs Moduli (GPa) = 97.09168 111.34914 185.77260
#
# Poissons Ratio (x) = 0.22188 0.13798
# Poissons Ratio (y) = 0.19347 0.27294
# Poissons Ratio (z) = 0.07211 0.16360
#
# Static dielectric constant tensor:
#      x y z
#    x 3.542960 0.000000 0.000000 
#    y 0.000000 4.434770 0.000000 
#    z 0.000000 0.000000 5.070770 
# 
# 
# High freq. dielectric constant tensor:
#      x y z
#    x 1.879530 0.000000 0.000000 
#    y 0.000000 1.927840 0.000000 
#    z 0.000000 0.000000 1.943930 
# 
# From -- ./inp_files/66777.got.cif
#   From: 2010.03.12/outbox.cif.g09.slc.cpg/sg66_34_cif.got.tgz:66777.got - 2010.04.10 21:57:39.
