data_PCOD8277888
_publ_section_title
;
Structure prediction by ZEFSAII (Michael W. Deem and Ramdas Pophale) SiO2 
 PCOD8277888
Probable space group: C C C M
;
_chemical_formula_sum "Si O2"
_cell_formula_units_Z 56
_cell_length_a 25.229256
_cell_length_b 4.842119
_cell_length_c 18.458674
_cell_angle_alpha 90.000000
_cell_angle_beta 90.000000
_cell_angle_gamma 90.000000
_cell_volume 2254.968096
_symmetry_space_group_name_H-M "C C C M"
_symmetry_group_IT_number 66
_symmetry_cell_setting 'orthorhombic'
loop_
_space_group_symop_operation_xyz
x,y,z
-x,-y,z
x,-y,1/2-z
-x,y,1/2-z
-x,-y,-z
x,y,-z
-x,y,1/2+z
x,-y,1/2+z
1/2+x,1/2+y,z
1/2-x,1/2-y,z
1/2+x,1/2-y,1/2-z
1/2-x,1/2+y,1/2-z
1/2-x,1/2-y,-z
1/2+x,1/2+y,-z
1/2-x,1/2+y,1/2+z
1/2+x,1/2-y,1/2+z
loop_
_atom_site_type_symbol
_atom_site_label
_atom_site_fract_x
_atom_site_fract_y
_atom_site_fract_z
Si Si1 0.112624 0.500000 0.750000
Si Si2 0.674146 0.830735 0.500000
Si Si3 0.810486 0.000000 0.750000
Si Si4 0.250000 0.250000 0.626854
Si Si5 0.103002 0.830938 0.500000
Si Si6 0.465086 0.749691 0.367358
O O1 0.152057 0.255133 0.730881
O O2 0.074702 0.606305 0.687528
O O3 0.706802 0.890094 0.573549
O O4 0.655897 0.513330 0.500000
O O5 0.621493 0.014347 0.500000
O O6 0.772654 0.997811 0.678643
O O7 0.067690 0.897696 0.430413
O O8 0.500000 0.500000 0.331823
O O9 0.500000 0.000000 0.399043
#
# Coordination Sequence:
#
# PCOD8277888 Si02
#       6
#     8   8   8   8   8  16
#     4  12  26  44  68 101 142 185 234 288 350 420
#     4  11  26  45  72 105 142 185 239 298 357 422
#     4  12  25  44  69 101 142 189 235 288 353 424
#     4  11  26  46  72 105 144 190 240 297 360 428
#     4  12  24  46  72 103 140 183 236 296 356 422
#     4  12  25  44  71 103 140 185 237 293 356 425
#
# _framework density 24.834053999999998
#
# number of rings (size 3 to 8) (size 9 to 14) (size 15 to 20)
#    0.000    0.286    0.000    9.000    0.000    8.000 
#    0.000    0.000    0.000    0.000    0.000    0.000 
#    0.000    0.000    0.000    0.000    0.000    0.000 
#
# Total GULP energy -347111.494630 kJ/mol
# GULP energy per Si atom -12396.839094 kJ/mol
# Density = 2.477753 g / cm^3
# Si number density = 24.834054 Si / 1000 Ang^3
#
#
#
# Elastic Constant Matrix: (Units=GPa)
#
#
# Indices 1 2 3 4 5 6 
#
# 1 147.1517 63.1653 77.0459 0.0000 0.0000 0.0000
# 2 63.1653 136.1769 40.8223 0.0000 0.0000 0.0000
# 3 77.0459 40.8223 182.4584 0.0000 0.0000 0.0000
# 4 0.0000 0.0000 0.0000 27.7176 0.0000 0.0000
# 5 0.0000 0.0000 0.0000 0.0000 39.9824 0.0000
# 6 0.0000 0.0000 0.0000 0.0000 0.0000 59.8978
#
#
#
# Elastic Compliance Matrix: (Units=1/GPa)
#
#
# Indices 1 2 3 4 5 6 
#
# 1 0.010203 -0.003688 -0.003483 0.000000 0.000000 0.000000
# 2 -0.003688 0.009205 -0.000502 0.000000 0.000000 0.000000
# 3 -0.003483 -0.000502 0.007064 0.000000 0.000000 0.000000
# 4 0.000000 0.000000 0.000000 0.036078 0.000000 0.000000
# 5 0.000000 0.000000 0.000000 0.000000 0.025011 0.000000
# 6 0.000000 0.000000 0.000000 0.000000 0.000000 0.016695
#
#
# Mechanical properties :
#
#
# Convention : Reuss Voigt Hill
#
# Bulk Modulus (GPa) = 89.89194 91.98377 90.93785
# Shear Modulus (GPa) = 40.54823 44.50312 42.52568
#
# Velocity S-wave (km/s) = 4.04514 4.23782 4.14260
# Velocity P-wave (km/s) = 7.62188 7.81443 7.71876
#
# Compressibility (1/GPa) = 0.01112447
#
# Stress axis : x y z
#
# Youngs Moduli (GPa) = 98.01464 108.64042 141.56790
#
# Poissons Ratio (x) = 0.40070 0.49308
# Poissons Ratio (y) = 0.36151 0.07106
# Poissons Ratio (z) = 0.34138 0.05453
#
# Static dielectric constant tensor:
#      x y z
#    x 5.126640 0.000000 0.000000 
#    y 0.000000 4.479170 0.000000 
#    z 0.000000 0.000000 4.171250 
# 
# 
# High freq. dielectric constant tensor:
#      x y z
#    x 2.018180 0.000000 0.000000 
#    y 0.000000 1.988690 0.000000 
#    z 0.000000 0.000000 1.987890 
# 
# From -- ./inp_files/52179.got.cif
#   From: 2010.03.12/outbox.cif.g09.slc.cpg/sg66_27_cif.got.tgz:52179.got - 2010.04.10 21:57:39.
