data_PCOD8277858
_publ_section_title
;
Structure prediction by ZEFSAII (Michael W. Deem and Ramdas Pophale) SiO2 
 PCOD8277858
Probable space group: C C C M
;
_chemical_formula_sum "Si O2"
_cell_formula_units_Z 72
_cell_length_a 8.341133
_cell_length_b 25.412647
_cell_length_c 15.267280
_cell_angle_alpha 90.000000
_cell_angle_beta 90.000000
_cell_angle_gamma 90.000000
_cell_volume 3236.209441
_symmetry_space_group_name_H-M "C C C M"
_symmetry_group_IT_number 66
_symmetry_cell_setting 'orthorhombic'
loop_
_space_group_symop_operation_xyz
x,y,z
-x,-y,z
x,-y,1/2-z
-x,y,1/2-z
-x,-y,-z
x,y,-z
-x,y,1/2+z
x,-y,1/2+z
1/2+x,1/2+y,z
1/2-x,1/2-y,z
1/2+x,1/2-y,1/2-z
1/2-x,1/2+y,1/2-z
1/2-x,1/2-y,-z
1/2+x,1/2+y,-z
1/2-x,1/2+y,1/2+z
1/2+x,1/2-y,1/2+z
loop_
_atom_site_type_symbol
_atom_site_label
_atom_site_fract_x
_atom_site_fract_y
_atom_site_fract_z
Si Si1 0.945590 0.441453 0.345990
Si Si2 0.937021 0.058127 0.000000
Si Si3 0.601325 0.594776 0.168422
Si Si4 0.369324 0.702836 0.000000
Si Si5 0.097654 0.213205 0.166430
Si Si6 0.871971 0.604036 0.500000
O O1 0.753833 0.441929 0.348456
O O2 0.000000 0.500000 0.370793
O O3 0.000000 0.423984 0.250000
O O4 0.015548 0.398547 0.414224
O O5 0.744188 0.053070 0.000000
O O6 0.991059 0.092166 0.083161
O O7 0.000000 0.000000 0.000000
O O8 0.500000 0.572292 0.250000
O O9 0.659479 0.654298 0.188093
O O10 0.250000 0.750000 0.000000
O O11 0.480676 0.708512 0.084423
O O12 0.252714 0.652244 0.000000
O O13 0.250000 0.250000 0.145665
O O14 0.000000 0.235867 0.250000
#
# Coordination Sequence:
#
# PCOD8277858 Si02
#       6
#    16   8  16   8  16   8
#     4  11  25  43  68 103 138 184 235 286 348 406
#     4  12  23  41  68  96 134 186 232 281 338 404
#     4  11  24  44  69 100 139 182 234 284 344 416
#     4  12  27  45  70 108 140 184 235 284 355 421
#     4  11  25  46  73 103 141 183 238 290 353 416
#     4  12  24  44  68 101 146 180 227 287 346 417
#
# _framework density 22.248249999999999
#
# number of rings (size 3 to 8) (size 9 to 14) (size 15 to 20)
#    0.000    0.667    2.222    4.667    6.222    3.111 
#    0.000    0.000    0.000    0.000    0.000    0.000 
#    0.000    0.000    0.000    0.000    0.000    0.000 
#
# Total GULP energy -446460.869873 kJ/mol
# GULP energy per Si atom -12401.690830 kJ/mol
# Density = 2.219761 g / cm^3
# Si number density = 22.248250 Si / 1000 Ang^3
#
#
#
# Elastic Constant Matrix: (Units=GPa)
#
#
# Indices 1 2 3 4 5 6 
#
# 1 165.7899 54.8897 71.3392 0.0000 0.0000 0.0000
# 2 54.8897 94.6903 29.6097 0.0000 0.0000 0.0000
# 3 71.3392 29.6097 191.3232 0.0000 0.0000 0.0000
# 4 0.0000 0.0000 0.0000 11.5736 0.0000 0.0000
# 5 0.0000 0.0000 0.0000 0.0000 47.5779 0.0000
# 6 0.0000 0.0000 0.0000 0.0000 0.0000 46.0032
#
#
#
# Elastic Compliance Matrix: (Units=1/GPa)
#
#
# Indices 1 2 3 4 5 6 
#
# 1 0.008485 -0.004129 -0.002525 0.000000 0.000000 0.000000
# 2 -0.004129 0.013107 -0.000489 0.000000 0.000000 0.000000
# 3 -0.002525 -0.000489 0.006244 0.000000 0.000000 0.000000
# 4 0.000000 0.000000 0.000000 0.086404 0.000000 0.000000
# 5 0.000000 0.000000 0.000000 0.000000 0.021018 0.000000
# 6 0.000000 0.000000 0.000000 0.000000 0.000000 0.021738
#
#
# Mechanical properties :
#
#
# Convention : Reuss Voigt Hill
#
# Bulk Modulus (GPa) = 73.79790 84.83118 79.31454
# Shear Modulus (GPa) = 28.44166 40.76193 34.60180
#
# Velocity S-wave (km/s) = 3.57932 4.28500 3.94796
# Velocity P-wave (km/s) = 7.09396 7.91794 7.51725
#
# Compressibility (1/GPa) = 0.01355052
#
# Stress axis : x y z
#
# Youngs Moduli (GPa) = 117.85124 76.29397 160.15699
#
# Poissons Ratio (x) = 0.31503 0.40438
# Poissons Ratio (y) = 0.48663 0.07829
# Poissons Ratio (z) = 0.29756 0.03730
#
# Static dielectric constant tensor:
#      x y z
#    x 4.067910 0.000000 0.000000 
#    y 0.000000 3.966560 0.000000 
#    z 0.000000 0.000000 4.215110 
# 
# 
# High freq. dielectric constant tensor:
#      x y z
#    x 1.889040 0.000000 0.000000 
#    y 0.000000 1.870790 0.000000 
#    z 0.000000 0.000000 1.893570 
# 
# From -- ./inp_files/24530.got.cif
#   From: 2010.03.12/outbox.cif.g09.slc.cpg/sg66_13_cif.got.tgz:24530.got - 2010.04.10 21:57:39.
