data_PCOD8277958
_publ_section_title
;
Structure prediction by ZEFSAII (Michael W. Deem and Ramdas Pophale) SiO2 
 PCOD8277958
Probable space group: C M M A
;
_chemical_formula_sum "Si O2"
_cell_formula_units_Z 80
_cell_length_a 19.127587
_cell_length_b 8.670733
_cell_length_c 26.391844
_cell_angle_alpha 90.000000
_cell_angle_beta 90.000000
_cell_angle_gamma 90.000000
_cell_volume 4377.092601
_symmetry_space_group_name_H-M "C M M A"
_symmetry_group_IT_number 67
_symmetry_cell_setting 'orthorhombic'
loop_
_space_group_symop_operation_xyz
x,y,z
-x,1/2-y,z
x,-y,-z
-x,1/2+y,-z
-x,-y,-z
x,1/2+y,-z
-x,y,z
x,1/2-y,z
1/2+x,1/2+y,z
1/2-x,-y,z
1/2+x,1/2-y,-z
1/2-x,y,-z
1/2-x,1/2-y,-z
1/2+x,y,-z
1/2-x,1/2+y,z
1/2+x,-y,z
loop_
_atom_site_type_symbol
_atom_site_label
_atom_site_fract_x
_atom_site_fract_y
_atom_site_fract_z
Si Si1 0.082813 0.419030 0.450923
Si Si2 0.827703 0.566772 0.848178
Si Si3 0.918657 0.430781 0.339417
Si Si4 0.173798 0.568714 0.253874
Si Si5 0.828029 0.433394 0.949320
O O1 0.116904 0.500000 0.500000
O O2 0.115451 0.250000 0.450877
O O3 0.100165 0.493497 0.396096
O O4 0.000000 0.411492 0.457292
O O5 0.828037 0.750000 0.851890
O O6 0.750000 0.500000 0.846016
O O7 0.862735 0.509361 0.795816
O O8 0.866060 0.495578 0.898124
O O9 0.899856 0.250000 0.334059
O O10 0.874892 0.534278 0.301337
O O11 0.000000 0.456663 0.327925
O O12 0.180549 0.750000 0.244784
O O13 0.250000 0.500000 0.264738
O O14 0.827495 0.250000 0.950518
O O15 0.750000 0.500000 0.948449
O O16 0.865903 0.500000 0.000000
#
# Coordination Sequence:
#
# PCOD8277958 Si02
#       5
#    16  16  16  16  16
#     4   8  14  25  43  67  94 122 151 185 227 275
#     4  10  17  27  41  58  82 114 151 189 231 278
#     4   9  18  33  51  72  99 128 157 193 237 281
#     4  11  21  33  49  69  94 126 163 199 237 283
#     4  10  16  23  34  52  78 109 145 184 228 275
#
# _framework density 18.276972000000001
#
# number of rings (size 3 to 8) (size 9 to 14) (size 15 to 20)
#    0.000    2.400    0.000    9.600    0.000    1.200 
#    0.000    2.000    0.000    0.600    0.000    4.200 
#    0.000    0.800    0.000    3.000    0.000   11.200 
#
# Total GULP energy -495581.327911 kJ/mol
# GULP energy per Si atom -12389.533198 kJ/mol
# Density = 1.823537 g / cm^3
# Si number density = 18.276972 Si / 1000 Ang^3
#
#
#
# Elastic Constant Matrix: (Units=GPa)
#
#
# Indices 1 2 3 4 5 6 
#
# 1 21.4842 18.3894 30.1690 0.0000 0.0000 0.0000
# 2 18.3894 149.3925 68.7766 0.0000 0.0000 0.0000
# 3 30.1690 68.7766 188.1754 0.0000 0.0000 0.0000
# 4 0.0000 0.0000 0.0000 18.5140 0.0000 0.0000
# 5 0.0000 0.0000 0.0000 0.0000 -316.3688 0.0000
# 6 0.0000 0.0000 0.0000 0.0000 0.0000 14.4691
#
#
#
# Elastic Compliance Matrix: (Units=1/GPa)
#
#
# Indices 1 2 3 4 5 6 
#
# 1 0.061686 -0.003655 -0.008554 0.000000 0.000000 0.000000
# 2 -0.003655 0.008265 -0.002435 0.000000 0.000000 0.000000
# 3 -0.008554 -0.002435 0.007575 0.000000 0.000000 0.000000
# 4 0.000000 0.000000 0.000000 0.054013 0.000000 0.000000
# 5 0.000000 0.000000 0.000000 0.000000 -0.003161 0.000000
# 6 0.000000 0.000000 0.000000 0.000000 0.000000 0.069113
#
#
# Mechanical properties :
#
#
# Convention : Reuss Voigt Hill
#
# Bulk Modulus (GPa) = 20.73018 65.96912 43.34965
# Shear Modulus (GPa) = 20.58814 -40.56267 -9.98726
#
# Velocity S-wave (km/s) = 3.35991 -4.71609 -2.34014
# Velocity P-wave (km/s) = 5.13993 2.55287 4.05808
#
# Compressibility (1/GPa) = 0.04823886
#
# Stress axis : x y z
#
# Youngs Moduli (GPa) = 16.21106 120.99869 132.00623
#
# Poissons Ratio (x) = 0.44228 1.12916
# Poissons Ratio (y) = 0.05926 0.32138
# Poissons Ratio (z) = 0.13867 0.29458
#
# Static dielectric constant tensor:
#      x y z
#    x 2.626540 0.000000 0.000000 
#    y 0.000000 3.456630 0.000000 
#    z 0.000000 0.000000 4.701190 
# 
# 
# High freq. dielectric constant tensor:
#      x y z
#    x 1.615230 0.000000 0.000000 
#    y 0.000000 1.716780 0.000000 
#    z 0.000000 0.000000 1.746660 
# 
# From -- ./inp_files/44450.got.cif
#   From: 2010.03.12/outbox.cif.g09.slc.cpg/sg67_23_cif.got.tgz:44450.got - 2010.04.10 22:41:39.
