data_PCOD8277405
_publ_section_title
;
Structure prediction by ZEFSAII (Michael W. Deem and Ramdas Pophale) SiO2 
 PCOD8277405
Probable space group: C C C M
;
_chemical_formula_sum "Si O2"
_cell_formula_units_Z 48
_cell_length_a 13.847605
_cell_length_b 10.665448
_cell_length_c 13.690586
_cell_angle_alpha 90.000000
_cell_angle_beta 90.000000
_cell_angle_gamma 90.000000
_cell_volume 2021.975119
_symmetry_space_group_name_H-M "C C C M"
_symmetry_group_IT_number 66
_symmetry_cell_setting 'orthorhombic'
loop_
_space_group_symop_operation_xyz
x,y,z
-x,-y,z
x,-y,1/2-z
-x,y,1/2-z
-x,-y,-z
x,y,-z
-x,y,1/2+z
x,-y,1/2+z
1/2+x,1/2+y,z
1/2-x,1/2-y,z
1/2+x,1/2-y,1/2-z
1/2-x,1/2+y,1/2-z
1/2-x,1/2-y,-z
1/2+x,1/2+y,-z
1/2-x,1/2+y,1/2+z
1/2+x,1/2-y,1/2+z
loop_
_atom_site_type_symbol
_atom_site_label
_atom_site_fract_x
_atom_site_fract_y
_atom_site_fract_z
Si Si1 0.108368 0.675174 0.779285
Si Si2 0.201850 0.451278 0.110550
Si Si3 0.403577 0.569216 0.111295
O O1 0.144017 0.423087 0.639566
O O2 0.327285 0.837016 0.681172
O O3 0.120024 0.813826 0.820379
O O4 0.000000 0.642555 0.750000
O O5 0.316270 0.471993 0.120938
O O6 0.174327 0.414797 0.000000
O O7 0.500000 0.500000 0.148246
O O8 0.416461 0.616158 0.000000
#
# Coordination Sequence:
#
# PCOD8277405 Si02
#       3
#    16  16  16
#     4  11  24  39  65  99 132 172 218 271 327 389
#     4  10  22  43  68  95 130 173 220 270 328 391
#     4  10  23  44  69  96 129 172 221 272 326 387
#
# _framework density 23.739166000000001
#
# number of rings (size 3 to 8) (size 9 to 14) (size 15 to 20)
#    0.000    1.667    0.000    4.000    0.000   15.333 
#    0.000    0.000    0.000   25.000    0.000    0.000 
#    0.000    0.000    0.000    0.000    0.000    0.000 
#
# Total GULP energy -297706.889472 kJ/mol
# GULP energy per Si atom -12404.453728 kJ/mol
# Density = 2.368513 g / cm^3
# Si number density = 23.739166 Si / 1000 Ang^3
#
#
#
# Elastic Constant Matrix: (Units=GPa)
#
#
# Indices 1 2 3 4 5 6 
#
# 1 144.1969 38.6584 58.9608 0.0000 0.0000 0.0000
# 2 38.6584 117.8189 89.1720 0.0000 0.0000 0.0000
# 3 58.9608 89.1720 201.3243 0.0000 0.0000 0.0000
# 4 0.0000 0.0000 0.0000 40.5330 0.0000 0.0000
# 5 0.0000 0.0000 0.0000 0.0000 25.4070 0.0000
# 6 0.0000 0.0000 0.0000 0.0000 0.0000 29.0148
#
#
#
# Elastic Compliance Matrix: (Units=1/GPa)
#
#
# Indices 1 2 3 4 5 6 
#
# 1 0.008005 -0.001282 -0.001777 0.000000 0.000000 0.000000
# 2 -0.001282 0.012973 -0.005371 0.000000 0.000000 0.000000
# 3 -0.001777 -0.005371 0.007866 0.000000 0.000000 0.000000
# 4 0.000000 0.000000 0.000000 0.024671 0.000000 0.000000
# 5 0.000000 0.000000 0.000000 0.000000 0.039359 0.000000
# 6 0.000000 0.000000 0.000000 0.000000 0.000000 0.034465
#
#
# Mechanical properties :
#
#
# Convention : Reuss Voigt Hill
#
# Bulk Modulus (GPa) = 83.43141 92.99139 88.21140
# Shear Modulus (GPa) = 33.73961 37.42756 35.58359
#
# Velocity S-wave (km/s) = 3.77405 3.97497 3.87581
# Velocity P-wave (km/s) = 7.36292 7.76688 7.56760
#
# Compressibility (1/GPa) = 0.01198589
#
# Stress axis : x y z
#
# Youngs Moduli (GPa) = 124.92062 77.08273 127.12577
#
# Poissons Ratio (x) = 0.09882 0.22585
# Poissons Ratio (y) = 0.16015 0.68275
# Poissons Ratio (z) = 0.22193 0.41399
#
# Static dielectric constant tensor:
#      x y z
#    x 4.550810 0.000000 0.000000 
#    y 0.000000 3.921090 0.000000 
#    z 0.000000 0.000000 4.635430 
# 
# 
# High freq. dielectric constant tensor:
#      x y z
#    x 1.960190 0.000000 0.000000 
#    y 0.000000 1.927960 0.000000 
#    z 0.000000 0.000000 1.955890 
# 
# From -- ./inp_files/25167.got.cif
#   From: 2010.03.12/outbox.cif.g09.slc.cpg/sg66_13_cif.got.tgz:25167.got - 2010.04.10 21:57:39.
