data_PCOD8277813
_publ_section_title
;
Structure prediction by ZEFSAII (Michael W. Deem and Ramdas Pophale) SiO2 
 PCOD8277813
Probable space group: C C C M
;
_chemical_formula_sum "Si O2"
_cell_formula_units_Z 64
_cell_length_a 16.948533
_cell_length_b 10.222572
_cell_length_c 16.457949
_cell_angle_alpha 90.000000
_cell_angle_beta 90.000000
_cell_angle_gamma 90.000000
_cell_volume 2851.464726
_symmetry_space_group_name_H-M "C C C M"
_symmetry_group_IT_number 66
_symmetry_cell_setting 'orthorhombic'
loop_
_space_group_symop_operation_xyz
x,y,z
-x,-y,z
x,-y,1/2-z
-x,y,1/2-z
-x,-y,-z
x,y,-z
-x,y,1/2+z
x,-y,1/2+z
1/2+x,1/2+y,z
1/2-x,1/2-y,z
1/2+x,1/2-y,1/2-z
1/2-x,1/2+y,1/2-z
1/2-x,1/2-y,-z
1/2+x,1/2+y,-z
1/2-x,1/2+y,1/2+z
1/2+x,1/2-y,1/2+z
loop_
_atom_site_type_symbol
_atom_site_label
_atom_site_fract_x
_atom_site_fract_y
_atom_site_fract_z
Si Si1 0.646503 0.712144 0.660391
Si Si2 0.275697 0.949764 0.907439
Si Si3 0.512074 0.346216 0.591283
Si Si4 0.333552 0.207698 0.843520
O O1 0.677147 0.813940 0.593315
O O2 0.691567 0.573491 0.640683
O O3 0.552465 0.707712 0.653881
O O4 0.668033 0.766820 0.748101
O O5 0.334623 0.053247 0.863249
O O6 0.258148 0.992151 0.000000
O O7 0.500000 0.500000 0.596569
O O8 0.495021 0.297922 0.500000
O O9 0.597322 0.292450 0.616261
O O10 0.250000 0.250000 0.882537
#
# Coordination Sequence:
#
# PCOD8277813 Si02
#       4
#    16  16  16  16
#     4  11  23  43  70  97 136 179 231 283 348 414
#     4  11  23  42  69  98 135 181 230 281 344 416
#     4  11  25  44  67  98 138 181 229 285 350 418
#     4  12  25  41  68 101 138 176 230 286 344 411
#
# _framework density 22.444606
#
# number of rings (size 3 to 8) (size 9 to 14) (size 15 to 20)
#    0.000    0.750    2.500    6.750    0.000    9.000 
#    0.000    5.000    0.000    0.000    0.000    0.000 
#    0.000    0.000    0.000    0.000    0.000    0.000 
#
# Total GULP energy -396607.570712 kJ/mol
# GULP energy per Si atom -12393.986585 kJ/mol
# Density = 2.239352 g / cm^3
# Si number density = 22.444606 Si / 1000 Ang^3
#
#
#
# Elastic Constant Matrix: (Units=GPa)
#
#
# Indices 1 2 3 4 5 6 
#
# 1 184.0900 56.7615 41.2735 0.0000 0.0000 0.0000
# 2 56.7615 98.9315 53.6875 0.0000 0.0000 0.0000
# 3 41.2735 53.6875 136.3501 0.0000 0.0000 0.0000
# 4 0.0000 0.0000 0.0000 29.5686 0.0000 0.0000
# 5 0.0000 0.0000 0.0000 0.0000 28.4067 0.0000
# 6 0.0000 0.0000 0.0000 0.0000 0.0000 45.0412
#
#
#
# Elastic Compliance Matrix: (Units=1/GPa)
#
#
# Indices 1 2 3 4 5 6 
#
# 1 0.006644 -0.003460 -0.000649 0.000000 0.000000 0.000000
# 2 -0.003460 0.014657 -0.004724 0.000000 0.000000 0.000000
# 3 -0.000649 -0.004724 0.009390 0.000000 0.000000 0.000000
# 4 0.000000 0.000000 0.000000 0.033820 0.000000 0.000000
# 5 0.000000 0.000000 0.000000 0.000000 0.035203 0.000000
# 6 0.000000 0.000000 0.000000 0.000000 0.000000 0.022202
#
#
# Mechanical properties :
#
#
# Convention : Reuss Voigt Hill
#
# Bulk Modulus (GPa) = 76.76805 80.31294 78.54050
# Shear Modulus (GPa) = 34.74075 38.44659 36.59367
#
# Velocity S-wave (km/s) = 3.93853 4.14328 4.04220
# Velocity P-wave (km/s) = 7.41352 7.66482 7.54022
#
# Compressibility (1/GPa) = 0.01302625
#
# Stress axis : x y z
#
# Youngs Moduli (GPa) = 150.50081 68.22869 106.49186
#
# Poissons Ratio (x) = 0.23608 0.06910
# Poissons Ratio (y) = 0.52075 0.50303
# Poissons Ratio (z) = 0.09766 0.32229
#
# Static dielectric constant tensor:
#      x y z
#    x 4.348570 0.000000 0.000000 
#    y 0.000000 4.205110 0.000000 
#    z 0.000000 0.000000 3.964190 
# 
# 
# High freq. dielectric constant tensor:
#      x y z
#    x 1.888460 0.000000 0.000000 
#    y 0.000000 1.882540 0.000000 
#    z 0.000000 0.000000 1.889760 
# 
# From -- ./inp_files/29577.got.cif
#   From: 2010.03.12/outbox.cif.g09.slc.cpg/sg66_15_cif.got.tgz:29577.got - 2010.04.10 21:57:39.
