data_PCOD8277739
_publ_section_title
;
Structure prediction by ZEFSAII (Michael W. Deem and Ramdas Pophale) SiO2 
 PCOD8277739
Probable space group: C C C M
;
_chemical_formula_sum "Si O2"
_cell_formula_units_Z 72
_cell_length_a 18.145469
_cell_length_b 8.632258
_cell_length_c 22.695451
_cell_angle_alpha 90.000000
_cell_angle_beta 90.000000
_cell_angle_gamma 90.000000
_cell_volume 3554.933059
_symmetry_space_group_name_H-M "C C C M"
_symmetry_group_IT_number 66
_symmetry_cell_setting 'orthorhombic'
loop_
_space_group_symop_operation_xyz
x,y,z
-x,-y,z
x,-y,1/2-z
-x,y,1/2-z
-x,-y,-z
x,y,-z
-x,y,1/2+z
x,-y,1/2+z
1/2+x,1/2+y,z
1/2-x,1/2-y,z
1/2+x,1/2-y,1/2-z
1/2-x,1/2+y,1/2-z
1/2-x,1/2-y,-z
1/2+x,1/2+y,-z
1/2-x,1/2+y,1/2+z
1/2+x,1/2-y,1/2+z
loop_
_atom_site_type_symbol
_atom_site_label
_atom_site_fract_x
_atom_site_fract_y
_atom_site_fract_z
Si Si1 0.250000 0.750000 0.660368
Si Si2 0.627413 0.267431 0.065480
Si Si3 0.474639 0.822159 0.167533
Si Si4 0.604036 0.675284 0.771381
Si Si5 0.748796 0.004910 0.066420
O O1 0.315328 0.704313 0.703786
O O2 0.225629 0.613830 0.616828
O O3 0.557802 0.230742 0.105548
O O4 0.685982 0.131429 0.067944
O O5 0.671125 0.424063 0.083388
O O6 0.595149 0.284871 0.000000
O O7 0.544119 0.709619 0.178093
O O8 0.412570 0.794541 0.217765
O O9 0.500000 0.000000 0.167139
O O10 0.595836 0.500000 0.750000
O O11 0.752497 0.933337 0.000000
#
# Coordination Sequence:
#
# PCOD8277739 Si02
#       5
#     8  16  16  16  16
#     4  12  23  38  62  86 109 152 204 236 280 354
#     4   9  19  38  62  87 117 154 191 231 288 349
#     4  11  22  39  60  84 117 153 192 241 290 338
#     4  11  25  40  57  82 118 154 189 242 297 339
#     4   9  19  36  59  88 121 150 185 241 291 333
#
# _framework density 20.253547000000001
#
# number of rings (size 3 to 8) (size 9 to 14) (size 15 to 20)
#    0.000    1.778    0.000    7.000    0.000    5.778 
#    0.000    2.222    0.000    5.333    0.000    0.000 
#    0.000    0.000    0.000    0.000    0.000    0.000 
#
# Total GULP energy -446315.108962 kJ/mol
# GULP energy per Si atom -12397.641916 kJ/mol
# Density = 2.020745 g / cm^3
# Si number density = 20.253547 Si / 1000 Ang^3
#
#
#
# Elastic Constant Matrix: (Units=GPa)
#
#
# Indices 1 2 3 4 5 6 
#
# 1 109.9283 38.1595 59.5272 0.0000 0.0000 0.0000
# 2 38.1595 92.5263 34.3382 0.0000 0.0000 0.0000
# 3 59.5272 34.3382 90.9456 0.0000 0.0000 0.0000
# 4 0.0000 0.0000 0.0000 48.6761 0.0000 0.0000
# 5 0.0000 0.0000 0.0000 0.0000 40.6343 0.0000
# 6 0.0000 0.0000 0.0000 0.0000 0.0000 22.6951
#
#
#
# Elastic Compliance Matrix: (Units=1/GPa)
#
#
# Indices 1 2 3 4 5 6 
#
# 1 0.014733 -0.002904 -0.008547 0.000000 0.000000 0.000000
# 2 -0.002904 0.013141 -0.003061 0.000000 0.000000 0.000000
# 3 -0.008547 -0.003061 0.017745 0.000000 0.000000 0.000000
# 4 0.000000 0.000000 0.000000 0.020544 0.000000 0.000000
# 5 0.000000 0.000000 0.000000 0.000000 0.024610 0.000000
# 6 0.000000 0.000000 0.000000 0.000000 0.000000 0.044062
#
#
# Mechanical properties :
#
#
# Convention : Reuss Voigt Hill
#
# Bulk Modulus (GPa) = 60.25487 61.93889 61.09688
# Shear Modulus (GPa) = 29.51731 33.15947 31.33839
#
# Velocity S-wave (km/s) = 3.82172 4.05064 3.93785
# Velocity P-wave (km/s) = 7.02061 7.24742 7.13491
#
# Compressibility (1/GPa) = 0.01659617
#
# Stress axis : x y z
#
# Youngs Moduli (GPa) = 67.87384 76.09505 56.35246
#
# Poissons Ratio (x) = 0.22101 0.48163
# Poissons Ratio (y) = 0.19713 0.17248
# Poissons Ratio (z) = 0.58011 0.23291
#
# Static dielectric constant tensor:
#      x y z
#    x 3.824530 0.000000 0.000000 
#    y 0.000000 3.824170 0.000000 
#    z 0.000000 0.000000 3.896060 
# 
# 
# High freq. dielectric constant tensor:
#      x y z
#    x 1.783740 0.000000 0.000000 
#    y 0.000000 1.793800 0.000000 
#    z 0.000000 0.000000 1.799440 
# 
# From -- ./inp_files/55242.got.cif
#   From: 2010.03.12/outbox.cif.g09.slc.cpg/sg66_28_cif.got.tgz:55242.got - 2010.04.10 21:57:39.
