data_PCOD8277626
_publ_section_title
;
Structure prediction by ZEFSAII (Michael W. Deem and Ramdas Pophale) SiO2 
 PCOD8277626
Probable space group: C C C M
;
_chemical_formula_sum "Si O2"
_cell_formula_units_Z 96
_cell_length_a 22.419671
_cell_length_b 11.730640
_cell_length_c 17.324555
_cell_angle_alpha 90.000000
_cell_angle_beta 90.000000
_cell_angle_gamma 90.000000
_cell_volume 4556.307540
_symmetry_space_group_name_H-M "C C C M"
_symmetry_group_IT_number 66
_symmetry_cell_setting 'orthorhombic'
loop_
_space_group_symop_operation_xyz
x,y,z
-x,-y,z
x,-y,1/2-z
-x,y,1/2-z
-x,-y,-z
x,y,-z
-x,y,1/2+z
x,-y,1/2+z
1/2+x,1/2+y,z
1/2-x,1/2-y,z
1/2+x,1/2-y,1/2-z
1/2-x,1/2+y,1/2-z
1/2-x,1/2-y,-z
1/2+x,1/2+y,-z
1/2-x,1/2+y,1/2+z
1/2+x,1/2-y,1/2+z
loop_
_atom_site_type_symbol
_atom_site_label
_atom_site_fract_x
_atom_site_fract_y
_atom_site_fract_z
Si Si1 0.814682 0.052184 0.331727
Si Si2 0.692327 0.325249 0.916646
Si Si3 0.635225 0.851503 0.320626
Si Si4 0.606000 0.736904 0.912175
Si Si5 0.682090 0.909176 0.842150
Si Si6 0.003813 0.628219 0.841308
O O1 0.868556 0.132207 0.360999
O O2 0.751165 0.118685 0.322507
O O3 0.834638 0.000000 0.250000
O O4 0.798994 0.957072 0.395337
O O5 0.750000 0.250000 0.928503
O O6 0.660760 0.270566 0.842847
O O7 0.658413 0.321848 0.000000
O O8 0.638574 0.868597 0.228408
O O9 0.570987 0.837339 0.359343
O O10 0.671702 0.956980 0.358569
O O11 0.656968 0.835533 0.913135
O O12 0.543168 0.784913 0.879854
O O13 0.596205 0.696188 0.000000
O O14 0.000000 0.500000 0.874380
O O15 0.000000 0.629458 0.750000
#
# Coordination Sequence:
#
# PCOD8277626 Si02
#       6
#    16  16  16  16  16  16
#     4  12  24  42  68  96 133 183 231 276 338 416
#     4  11  23  39  61  92 130 170 216 272 330 398
#     4  11  20  40  67  99 123 169 234 282 321 393
#     4  12  27  42  64 104 145 179 217 282 364 421
#     4  11  20  40  68 101 134 170 221 286 345 407
#     4  11  21  43  71  96 131 174 229 282 329 406
#
# _framework density 21.069692
#
# number of rings (size 3 to 8) (size 9 to 14) (size 15 to 20)
#    0.000    0.667    6.667    3.000    0.000    3.667 
#    0.000    0.833    0.000    2.000    0.000    0.000 
#    0.000    0.000    0.000    0.000    0.000    0.000 
#
# Total GULP energy -594681.724557 kJ/mol
# GULP energy per Si atom -12389.202595 kJ/mol
# Density = 2.102174 g / cm^3
# Si number density = 21.069692 Si / 1000 Ang^3
#
#
#
# Elastic Constant Matrix: (Units=GPa)
#
#
# Indices 1 2 3 4 5 6 
#
# 1 131.7179 43.6428 40.6946 0.0000 0.0000 0.0000
# 2 43.6428 95.9382 35.0788 0.0000 0.0000 0.0000
# 3 40.6946 35.0788 94.8235 0.0000 0.0000 0.0000
# 4 0.0000 0.0000 0.0000 32.9829 0.0000 0.0000
# 5 0.0000 0.0000 0.0000 0.0000 17.6635 0.0000
# 6 0.0000 0.0000 0.0000 0.0000 0.0000 38.0385
#
#
#
# Elastic Compliance Matrix: (Units=1/GPa)
#
#
# Indices 1 2 3 4 5 6 
#
# 1 0.009578 -0.003301 -0.002890 0.000000 0.000000 0.000000
# 2 -0.003301 0.013191 -0.003463 0.000000 0.000000 0.000000
# 3 -0.002890 -0.003463 0.013067 0.000000 0.000000 0.000000
# 4 0.000000 0.000000 0.000000 0.030319 0.000000 0.000000
# 5 0.000000 0.000000 0.000000 0.000000 0.056614 0.000000
# 6 0.000000 0.000000 0.000000 0.000000 0.000000 0.026289
#
#
# Mechanical properties :
#
#
# Convention : Reuss Voigt Hill
#
# Bulk Modulus (GPa) = 60.49813 62.36801 61.43307
# Shear Modulus (GPa) = 28.75611 31.27454 30.01532
#
# Velocity S-wave (km/s) = 3.69834 3.85689 3.77845
# Velocity P-wave (km/s) = 6.85658 7.03557 6.94665
#
# Compressibility (1/GPa) = 0.01652944
#
# Stress axis : x y z
#
# Youngs Moduli (GPa) = 104.40188 75.80787 76.52703
#
# Poissons Ratio (x) = 0.25022 0.22113
# Poissons Ratio (y) = 0.34460 0.26505
# Poissons Ratio (z) = 0.30168 0.26255
#
# Static dielectric constant tensor:
#      x y z
#    x 3.937240 0.000000 0.000000 
#    y 0.000000 3.826050 0.000000 
#    z 0.000000 0.000000 3.870560 
# 
# 
# High freq. dielectric constant tensor:
#      x y z
#    x 1.815850 0.000000 0.000000 
#    y 0.000000 1.823550 0.000000 
#    z 0.000000 0.000000 1.815750 
# 
# From -- ./inp_files/43549.got.cif
#   From: 2010.03.12/outbox.cif.g09.slc.cpg/sg66_22_cif.got.tgz:43549.got - 2010.04.10 21:57:39.
