data_PCOD8277747
_publ_section_title
;
Structure prediction by ZEFSAII (Michael W. Deem and Ramdas Pophale) SiO2 
 PCOD8277747
Probable space group: C C C M
;
_chemical_formula_sum "Si O2"
_cell_formula_units_Z 64
_cell_length_a 15.301326
_cell_length_b 8.636394
_cell_length_c 22.262169
_cell_angle_alpha 90.000000
_cell_angle_beta 90.000000
_cell_angle_gamma 90.000000
_cell_volume 2941.907344
_symmetry_space_group_name_H-M "C C C M"
_symmetry_group_IT_number 66
_symmetry_cell_setting 'orthorhombic'
loop_
_space_group_symop_operation_xyz
x,y,z
-x,-y,z
x,-y,1/2-z
-x,y,1/2-z
-x,-y,-z
x,y,-z
-x,y,1/2+z
x,-y,1/2+z
1/2+x,1/2+y,z
1/2-x,1/2-y,z
1/2+x,1/2-y,1/2-z
1/2-x,1/2+y,1/2-z
1/2-x,1/2-y,-z
1/2+x,1/2+y,-z
1/2-x,1/2+y,1/2+z
1/2+x,1/2-y,1/2+z
loop_
_atom_site_type_symbol
_atom_site_label
_atom_site_fract_x
_atom_site_fract_y
_atom_site_fract_z
Si Si1 0.642896 0.922897 0.500000
Si Si2 0.037532 0.738235 0.500000
Si Si3 0.421983 0.607633 0.373596
Si Si4 0.085342 0.571379 0.316095
Si Si5 0.243639 0.579494 0.121204
O O1 0.565875 0.796131 0.500000
O O2 0.707784 0.899346 0.445276
O O3 0.599304 0.090171 0.500000
O O4 0.059925 0.833225 0.440598
O O5 0.500000 0.500000 0.351107
O O6 0.417218 0.743184 0.323431
O O7 0.334672 0.507945 0.375651
O O8 0.081025 0.500000 0.250000
O O9 0.176086 0.522595 0.343034
O O10 0.000000 0.500000 0.351081
O O11 0.250000 0.750000 0.150878
#
# Coordination Sequence:
#
# PCOD8277747 Si02
#       5
#     8   8  16  16  16
#     4  11  22  39  66 102 145 187 223 277 342 412
#     4  11  22  39  70 104 147 187 225 273 350 420
#     4  12  25  44  71 105 142 183 230 283 347 419
#     4  11  25  47  70  97 132 176 229 293 348 409
#     4  12  25  42  68 101 139 182 229 282 340 414
#
# _framework density 21.754594999999998
#
# number of rings (size 3 to 8) (size 9 to 14) (size 15 to 20)
#    0.000    0.500    2.500    6.750    0.000    3.000 
#    0.000    7.500    0.000    0.000    0.000    0.000 
#    0.000    0.000    0.000    0.000    0.000    0.000 
#
# Total GULP energy -396761.694507 kJ/mol
# GULP energy per Si atom -12398.802953 kJ/mol
# Density = 2.170508 g / cm^3
# Si number density = 21.754595 Si / 1000 Ang^3
#
#
#
# Elastic Constant Matrix: (Units=GPa)
#
#
# Indices 1 2 3 4 5 6 
#
# 1 217.1763 97.7934 39.9195 0.0000 0.0000 0.0000
# 2 97.7934 189.4131 53.6094 0.0000 0.0000 0.0000
# 3 39.9195 53.6094 92.1617 0.0000 0.0000 0.0000
# 4 0.0000 0.0000 0.0000 -88.1698 0.0000 0.0000
# 5 0.0000 0.0000 0.0000 0.0000 43.2971 0.0000
# 6 0.0000 0.0000 0.0000 0.0000 0.0000 55.9080
#
#
#
# Elastic Compliance Matrix: (Units=1/GPa)
#
#
# Indices 1 2 3 4 5 6 
#
# 1 0.006070 -0.002861 -0.000965 0.000000 0.000000 0.000000
# 2 -0.002861 0.007668 -0.003221 0.000000 0.000000 0.000000
# 3 -0.000965 -0.003221 0.013142 0.000000 0.000000 0.000000
# 4 0.000000 0.000000 0.000000 -0.011342 0.000000 0.000000
# 5 0.000000 0.000000 0.000000 0.000000 0.023096 0.000000
# 6 0.000000 0.000000 0.000000 0.000000 0.000000 0.017887
#
#
# Mechanical properties :
#
#
# Convention : Reuss Voigt Hill
#
# Bulk Modulus (GPa) = 78.21007 97.93284 88.07145
# Shear Modulus (GPa) = 66.77471 22.70230 44.73851
#
# Velocity S-wave (km/s) = 5.54627 3.23393 4.53979
# Velocity P-wave (km/s) = 8.77747 7.68500 8.24934
#
# Compressibility (1/GPa) = 0.01278608
#
# Stress axis : x y z
#
# Youngs Moduli (GPa) = 164.73958 130.40773 76.08968
#
# Poissons Ratio (x) = 0.37308 0.07344
# Poissons Ratio (y) = 0.47130 0.24511
# Poissons Ratio (z) = 0.15900 0.42009
#
# Static dielectric constant tensor:
#      x y z
#    x 8.856740 0.000000 0.000000 
#    y 0.000000 4.398580 0.000000 
#    z 0.000000 0.000000 -7.051610 
# 
# 
# High freq. dielectric constant tensor:
#      x y z
#    x 1.885480 0.000000 0.000000 
#    y 0.000000 1.873140 0.000000 
#    z 0.000000 0.000000 1.840340 
# 
# From -- ./inp_files/55025.got.cif
#   From: 2010.03.12/outbox.cif.g09.slc.cpg/sg66_28_cif.got.tgz:55025.got - 2010.04.10 21:57:39.
