data_PCOD8277010
_publ_section_title
;
Structure prediction by ZEFSAII (Michael W. Deem and Ramdas Pophale) SiO2 
 PCOD8277010
Probable space group: C C C M
;
_chemical_formula_sum "Si O2"
_cell_formula_units_Z 56
_cell_length_a 34.404421
_cell_length_b 4.974429
_cell_length_c 14.869991
_cell_angle_alpha 90.000000
_cell_angle_beta 90.000000
_cell_angle_gamma 90.000000
_cell_volume 2544.885198
_symmetry_space_group_name_H-M "C C C M"
_symmetry_group_IT_number 66
_symmetry_cell_setting 'orthorhombic'
loop_
_space_group_symop_operation_xyz
x,y,z
-x,-y,z
x,-y,1/2-z
-x,y,1/2-z
-x,-y,-z
x,y,-z
-x,y,1/2+z
x,-y,1/2+z
1/2+x,1/2+y,z
1/2-x,1/2-y,z
1/2+x,1/2-y,1/2-z
1/2-x,1/2+y,1/2-z
1/2-x,1/2-y,-z
1/2+x,1/2+y,-z
1/2-x,1/2+y,1/2+z
1/2+x,1/2-y,1/2+z
loop_
_atom_site_type_symbol
_atom_site_label
_atom_site_fract_x
_atom_site_fract_y
_atom_site_fract_z
Si Si1 0.292255 0.251379 0.813361
Si Si2 0.130627 0.085928 0.100116
Si Si3 0.027762 0.253702 0.500000
Si Si4 0.585833 0.099849 0.847373
O O1 0.289999 0.500000 0.750000
O O2 0.250000 0.250000 0.863329
O O3 0.326566 0.295631 0.883894
O O4 0.301519 0.000000 0.750000
O O5 0.101314 0.335157 0.103968
O O6 0.118840 0.834686 0.165410
O O7 0.128868 0.964773 0.000000
O O8 0.052914 0.260607 0.591619
O O9 0.000000 0.500000 0.500000
O O10 0.000000 0.000000 0.500000
O O11 0.570453 0.000000 0.750000
#
# Coordination Sequence:
#
# PCOD8277010 Si02
#       4
#    16  16   8  16
#     4  10  21  37  58  89 131 179 230 282 335 390
#     4  12  22  40  66  98 136 175 230 281 329 390
#     4  12  26  48  74 102 141 172 213 278 336 404
#     4  12  25  45  71 101 135 179 224 269 333 403
#
# _framework density 22.004921
#
# number of rings (size 3 to 8) (size 9 to 14) (size 15 to 20)
#    0.000    0.571    2.857    6.857    0.000    1.143 
#    0.000    1.429    0.000    8.571    0.000    0.000 
#    0.000    0.000    0.000    0.000    0.000    0.000 
#
# Total GULP energy -347075.239823 kJ/mol
# GULP energy per Si atom -12395.544279 kJ/mol
# Density = 2.195484 g / cm^3
# Si number density = 22.004921 Si / 1000 Ang^3
#
#
#
# Elastic Constant Matrix: (Units=GPa)
#
#
# Indices 1 2 3 4 5 6 
#
# 1 123.8633 45.7525 64.0894 0.0000 0.0000 0.0000
# 2 45.7525 153.4623 37.4835 0.0000 0.0000 0.0000
# 3 64.0894 37.4835 125.2454 0.0000 0.0000 0.0000
# 4 0.0000 0.0000 0.0000 60.5669 0.0000 0.0000
# 5 0.0000 0.0000 0.0000 0.0000 24.1619 0.0000
# 6 0.0000 0.0000 0.0000 0.0000 0.0000 44.5057
#
#
#
# Elastic Compliance Matrix: (Units=1/GPa)
#
#
# Indices 1 2 3 4 5 6 
#
# 1 0.011614 -0.002170 -0.005294 0.000000 0.000000 0.000000
# 2 -0.002170 0.007435 -0.001115 0.000000 0.000000 0.000000
# 3 -0.005294 -0.001115 0.011027 0.000000 0.000000 0.000000
# 4 0.000000 0.000000 0.000000 0.016511 0.000000 0.000000
# 5 0.000000 0.000000 0.000000 0.000000 0.041388 0.000000
# 6 0.000000 0.000000 0.000000 0.000000 0.000000 0.022469
#
#
# Mechanical properties :
#
#
# Convention : Reuss Voigt Hill
#
# Bulk Modulus (GPa) = 77.40169 77.46908 77.43539
# Shear Modulus (GPa) = 37.90566 42.86326 40.38446
#
# Velocity S-wave (km/s) = 4.15492 4.41828 4.28863
# Velocity P-wave (km/s) = 7.63341 7.83008 7.73237
#
# Compressibility (1/GPa) = 0.01291961
#
# Stress axis : x y z
#
# Youngs Moduli (GPa) = 86.10434 134.49112 90.68759
#
# Poissons Ratio (x) = 0.29178 0.48007
# Poissons Ratio (y) = 0.18680 0.10113
# Poissons Ratio (z) = 0.45580 0.14997
#
# Static dielectric constant tensor:
#      x y z
#    x 7.902520 0.000000 0.000000 
#    y 0.000000 4.167860 0.000000 
#    z 0.000000 0.000000 3.658800 
# 
# 
# High freq. dielectric constant tensor:
#      x y z
#    x 1.869440 0.000000 0.000000 
#    y 0.000000 1.894290 0.000000 
#    z 0.000000 0.000000 1.848920 
# 
# From -- ./inp_files/22467.got.cif
#   From: 2010.03.12/outbox.cif.g09.slc.cpg/sg66_12_cif.got.tgz:22467.got - 2010.04.10 21:57:39.
