data_PCOD8277502
_publ_section_title
;
Structure prediction by ZEFSAII (Michael W. Deem and Ramdas Pophale) SiO2 
 PCOD8277502
Probable space group: C C C M
;
_chemical_formula_sum "Si O2"
_cell_formula_units_Z 64
_cell_length_a 29.368342
_cell_length_b 4.958224
_cell_length_c 19.903928
_cell_angle_alpha 90.000000
_cell_angle_beta 90.000000
_cell_angle_gamma 90.000000
_cell_volume 2898.306856
_symmetry_space_group_name_H-M "C C C M"
_symmetry_group_IT_number 66
_symmetry_cell_setting 'orthorhombic'
loop_
_space_group_symop_operation_xyz
x,y,z
-x,-y,z
x,-y,1/2-z
-x,y,1/2-z
-x,-y,-z
x,y,-z
-x,y,1/2+z
x,-y,1/2+z
1/2+x,1/2+y,z
1/2-x,1/2-y,z
1/2+x,1/2-y,1/2-z
1/2-x,1/2+y,1/2-z
1/2-x,1/2-y,-z
1/2+x,1/2+y,-z
1/2-x,1/2+y,1/2+z
1/2+x,1/2-y,1/2+z
loop_
_atom_site_type_symbol
_atom_site_label
_atom_site_fract_x
_atom_site_fract_y
_atom_site_fract_z
Si Si1 0.609548 0.058697 0.327038
Si Si2 0.250000 0.750000 0.791127
Si Si3 0.163571 0.947835 0.133183
Si Si4 0.215836 0.001660 0.000000
Si Si5 0.968675 0.755176 0.075158
O O1 0.649705 0.280512 0.327069
O O2 0.570128 0.200774 0.370243
O O3 0.594533 0.000000 0.250000
O O4 0.624212 0.780438 0.363270
O O5 0.230850 0.500000 0.750000
O O6 0.208559 0.837397 0.835017
O O7 0.178633 0.016627 0.058528
O O8 0.250000 0.250000 0.000000
O O9 0.250000 0.750000 0.000000
O O10 0.000000 0.500000 0.069763
O O11 0.948529 0.818965 0.000000
O O12 0.000000 0.000000 0.101176
#
# Coordination Sequence:
#
# PCOD8277502 Si02
#       5
#    16   8  16   8  16
#     4  12  26  45  69 105 140 178 227 284 341 416
#     4  12  24  41  66  89 132 184 222 272 338 394
#     4  12  26  43  67  98 137 180 234 285 340 405
#     4  12  26  46  66  96 130 182 242 294 344 404
#     4  10  23  45  73 103 136 176 221 273 340 412
#
# _framework density 22.081858
#
# number of rings (size 3 to 8) (size 9 to 14) (size 15 to 20)
#    0.000    0.500    1.250    7.500    5.250    0.500 
#    0.000    1.250    0.000    0.000    0.000    0.000 
#    0.000    0.000    0.000    0.000    0.000    0.000 
#
# Total GULP energy -396731.607700 kJ/mol
# GULP energy per Si atom -12397.862741 kJ/mol
# Density = 2.203160 g / cm^3
# Si number density = 22.081858 Si / 1000 Ang^3
#
#
#
# Elastic Constant Matrix: (Units=GPa)
#
#
# Indices 1 2 3 4 5 6 
#
# 1 95.6106 36.2078 74.0442 0.0000 0.0000 0.0000
# 2 36.2078 151.1223 54.5284 0.0000 0.0000 0.0000
# 3 74.0442 54.5284 175.0937 0.0000 0.0000 0.0000
# 4 0.0000 0.0000 0.0000 34.4226 0.0000 0.0000
# 5 0.0000 0.0000 0.0000 0.0000 49.2467 0.0000
# 6 0.0000 0.0000 0.0000 0.0000 0.0000 48.2884
#
#
#
# Elastic Compliance Matrix: (Units=1/GPa)
#
#
# Indices 1 2 3 4 5 6 
#
# 1 0.015871 -0.001556 -0.006227 0.000000 0.000000 0.000000
# 2 -0.001556 0.007607 -0.001711 0.000000 0.000000 0.000000
# 3 -0.006227 -0.001711 0.008877 0.000000 0.000000 0.000000
# 4 0.000000 0.000000 0.000000 0.029051 0.000000 0.000000
# 5 0.000000 0.000000 0.000000 0.000000 0.020306 0.000000
# 6 0.000000 0.000000 0.000000 0.000000 0.000000 0.020709
#
#
# Mechanical properties :
#
#
# Convention : Reuss Voigt Hill
#
# Bulk Modulus (GPa) = 74.80740 83.48748 79.14744
# Shear Modulus (GPa) = 39.72530 43.52796 41.62663
#
# Velocity S-wave (km/s) = 4.24607 4.44465 4.34649
# Velocity P-wave (km/s) = 7.61509 8.01437 7.81728
#
# Compressibility (1/GPa) = 0.01336766
#
# Stress axis : x y z
#
# Youngs Moduli (GPa) = 63.00969 131.45202 112.64533
#
# Poissons Ratio (x) = 0.20449 0.70144
# Poissons Ratio (y) = 0.09802 0.19276
# Poissons Ratio (z) = 0.39236 0.22495
#
# Static dielectric constant tensor:
#      x y z
#    x 3.817420 0.000000 0.000000 
#    y 0.000000 4.301570 0.000000 
#    z 0.000000 0.000000 4.270880 
# 
# 
# High freq. dielectric constant tensor:
#      x y z
#    x 1.867510 0.000000 0.000000 
#    y 0.000000 1.895820 0.000000 
#    z 0.000000 0.000000 1.877860 
# 
# From -- ./inp_files/52782.got.cif
#   From: 2010.03.12/outbox.cif.g09.slc.cpg/sg66_27_cif.got.tgz:52782.got - 2010.04.10 21:57:39.
