data_PCOD8277655
_publ_section_title
;
Structure prediction by ZEFSAII (Michael W. Deem and Ramdas Pophale) SiO2 
 PCOD8277655
Probable space group: C C C M
;
_chemical_formula_sum "Si O2"
_cell_formula_units_Z 64
_cell_length_a 17.746994
_cell_length_b 8.623344
_cell_length_c 20.891893
_cell_angle_alpha 90.000000
_cell_angle_beta 90.000000
_cell_angle_gamma 90.000000
_cell_volume 3197.262593
_symmetry_space_group_name_H-M "C C C M"
_symmetry_group_IT_number 66
_symmetry_cell_setting 'orthorhombic'
loop_
_space_group_symop_operation_xyz
x,y,z
-x,-y,z
x,-y,1/2-z
-x,y,1/2-z
-x,-y,-z
x,y,-z
-x,y,1/2+z
x,-y,1/2+z
1/2+x,1/2+y,z
1/2-x,1/2-y,z
1/2+x,1/2-y,1/2-z
1/2-x,1/2+y,1/2-z
1/2-x,1/2-y,-z
1/2+x,1/2+y,-z
1/2-x,1/2+y,1/2+z
1/2+x,1/2-y,1/2+z
loop_
_atom_site_type_symbol
_atom_site_label
_atom_site_fract_x
_atom_site_fract_y
_atom_site_fract_z
Si Si1 0.818029 0.662007 0.271726
Si Si2 0.594236 0.617562 0.191892
Si Si3 0.962317 0.337209 0.856605
Si Si4 0.582232 0.433625 0.931052
O O1 0.782879 0.500000 0.250000
O O2 0.750000 0.750000 0.309779
O O3 0.837925 0.767895 0.210046
O O4 0.893932 0.626180 0.309544
O O5 0.576516 0.500000 0.250000
O O6 0.519284 0.717895 0.177677
O O7 0.621607 0.521458 0.128817
O O8 0.925985 0.251124 0.917763
O O9 0.000000 0.500000 0.876711
O O10 0.500000 0.500000 0.938894
O O11 0.624901 0.455222 0.000000
#
# Coordination Sequence:
#
# PCOD8277655 Si02
#       4
#    16  16  16  16
#     4  12  25  36  56  92 124 154 199 254 304 352
#     4  11  21  35  62  88 119 156 198 246 302 354
#     4  11  22  36  60  88 119 157 202 249 296 356
#     4   9  20  35  57  88 122 152 190 245 306 358
#
# _framework density 20.017123000000002
#
# number of rings (size 3 to 8) (size 9 to 14) (size 15 to 20)
#    0.000    1.250    5.000    1.500    7.000    0.500 
#    0.000    0.000    0.000    1.500    0.000    0.000 
#    0.000    0.000    0.000    0.000    0.000    0.000 
#
# Total GULP energy -396430.203686 kJ/mol
# GULP energy per Si atom -12388.443865 kJ/mol
# Density = 1.997156 g / cm^3
# Si number density = 20.017123 Si / 1000 Ang^3
#
#
#
# Elastic Constant Matrix: (Units=GPa)
#
#
# Indices 1 2 3 4 5 6 
#
# 1 51.5514 23.6931 -1.5674 0.0000 0.0000 0.0000
# 2 23.6931 145.2830 44.2726 0.0000 0.0000 0.0000
# 3 -1.5674 44.2726 122.8677 0.0000 0.0000 0.0000
# 4 0.0000 0.0000 0.0000 29.5738 0.0000 0.0000
# 5 0.0000 0.0000 0.0000 0.0000 1.2069 0.0000
# 6 0.0000 0.0000 0.0000 0.0000 0.0000 32.6525
#
#
#
# Elastic Compliance Matrix: (Units=1/GPa)
#
#
# Indices 1 2 3 4 5 6 
#
# 1 0.021285 -0.003992 0.001710 0.000000 0.000000 0.000000
# 2 -0.003992 0.008481 -0.003107 0.000000 0.000000 0.000000
# 3 0.001710 -0.003107 0.009280 0.000000 0.000000 0.000000
# 4 0.000000 0.000000 0.000000 0.033814 0.000000 0.000000
# 5 0.000000 0.000000 0.000000 0.000000 0.828546 0.000000
# 6 0.000000 0.000000 0.000000 0.000000 0.000000 0.030626
#
#
# Mechanical properties :
#
#
# Convention : Reuss Voigt Hill
#
# Bulk Modulus (GPa) = 35.37586 50.27763 42.82675
# Shear Modulus (GPa) = 5.25082 29.57357 17.41220
#
# Velocity S-wave (km/s) = 1.62138 3.84788 2.95255
# Velocity P-wave (km/s) = 4.60612 6.70175 5.75021
#
# Compressibility (1/GPa) = 0.02826786
#
# Stress axis : x y z
#
# Youngs Moduli (GPa) = 46.98149 117.91132 107.75713
#
# Poissons Ratio (x) = 0.47074 -0.18427
# Poissons Ratio (y) = 0.18756 0.33478
# Poissons Ratio (z) = -0.08034 0.36633
#
# Static dielectric constant tensor:
#      x y z
#    x 3.390280 0.000000 0.000000 
#    y 0.000000 4.144160 0.000000 
#    z 0.000000 0.000000 4.207840 
# 
# 
# High freq. dielectric constant tensor:
#      x y z
#    x 1.752670 0.000000 0.000000 
#    y 0.000000 1.805500 0.000000 
#    z 0.000000 0.000000 1.750690 
# 
# From -- ./inp_files/50496.got.cif
#   From: 2010.03.12/outbox.cif.g09.slc.cpg/sg66_26_cif.got.tgz:50496.got - 2010.04.10 21:57:39.
