data_PCOD8277812
_publ_section_title
;
Structure prediction by ZEFSAII (Michael W. Deem and Ramdas Pophale) SiO2 
 PCOD8277812
Probable space group: C C C M
;
_chemical_formula_sum "Si O2"
_cell_formula_units_Z 88
_cell_length_a 24.292770
_cell_length_b 11.510736
_cell_length_c 14.828025
_cell_angle_alpha 90.000000
_cell_angle_beta 90.000000
_cell_angle_gamma 90.000000
_cell_volume 4146.325965
_symmetry_space_group_name_H-M "C C C M"
_symmetry_group_IT_number 66
_symmetry_cell_setting 'orthorhombic'
loop_
_space_group_symop_operation_xyz
x,y,z
-x,-y,z
x,-y,1/2-z
-x,y,1/2-z
-x,-y,-z
x,y,-z
-x,y,1/2+z
x,-y,1/2+z
1/2+x,1/2+y,z
1/2-x,1/2-y,z
1/2+x,1/2-y,1/2-z
1/2-x,1/2+y,1/2-z
1/2-x,1/2-y,-z
1/2+x,1/2+y,-z
1/2-x,1/2+y,1/2+z
1/2+x,1/2-y,1/2+z
loop_
_atom_site_type_symbol
_atom_site_label
_atom_site_fract_x
_atom_site_fract_y
_atom_site_fract_z
Si Si1 0.357466 0.196433 0.399153
Si Si2 0.237352 0.530924 0.146463
Si Si3 0.061502 0.048419 0.000000
Si Si4 0.137241 0.055949 0.652841
Si Si5 0.207057 0.350237 0.000000
Si Si6 0.587786 0.807783 0.000000
Si Si7 0.435131 0.994499 0.352585
O O1 0.350396 0.244338 0.500000
O O2 0.298644 0.146515 0.367319
O O3 0.375162 0.306318 0.338182
O O4 0.406435 0.102702 0.401022
O O5 0.234599 0.500000 0.250000
O O6 0.300384 0.545427 0.115014
O O7 0.209811 0.428881 0.088879
O O8 0.094049 0.006911 0.088146
O O9 0.054384 0.187832 0.000000
O O10 0.000000 0.000000 0.000000
O O11 0.130300 0.000000 0.750000
O O12 0.250000 0.250000 0.000000
O O13 0.151619 0.276489 0.000000
O O14 0.577367 0.877953 0.907669
O O15 0.500000 0.000000 0.353139
O O16 0.412154 0.000000 0.250000
#
# Coordination Sequence:
#
# PCOD8277812 Si02
#       7
#    16  16   8  16   8   8  16
#     4  12  23  42  74 101 142 181 234 290 347 414
#     4  11  23  42  68 107 142 181 233 281 357 414
#     4  12  30  49  70  98 134 193 235 287 351 418
#     4  11  27  46  68 103 141 187 232 286 347 421
#     4  12  24  40  67 100 144 186 220 284 351 426
#     4  12  25  45  71  96 138 175 229 286 343 419
#     4  11  25  43  69 102 131 174 226 293 353 398
#
# _framework density 21.223609
#
# number of rings (size 3 to 8) (size 9 to 14) (size 15 to 20)
#    0.000    0.545    4.545    3.000    5.091    4.000 
#    0.000    0.000    0.000    0.000    0.000    0.000 
#    0.000    0.000    0.000    0.000    0.000    0.000 
#
# Total GULP energy -545624.427551 kJ/mol
# GULP energy per Si atom -12400.555172 kJ/mol
# Density = 2.117530 g / cm^3
# Si number density = 21.223609 Si / 1000 Ang^3
#
#
#
# Elastic Constant Matrix: (Units=GPa)
#
#
# Indices 1 2 3 4 5 6 
#
# 1 122.2232 49.5947 49.0049 0.0000 0.0000 0.0000
# 2 49.5947 174.2314 62.0262 0.0000 0.0000 0.0000
# 3 49.0049 62.0262 135.8740 0.0000 0.0000 0.0000
# 4 0.0000 0.0000 0.0000 21.4210 0.0000 0.0000
# 5 0.0000 0.0000 0.0000 0.0000 34.2518 0.0000
# 6 0.0000 0.0000 0.0000 0.0000 0.0000 34.9524
#
#
#
# Elastic Compliance Matrix: (Units=1/GPa)
#
#
# Indices 1 2 3 4 5 6 
#
# 1 0.010053 -0.001876 -0.002770 0.000000 0.000000 0.000000
# 2 -0.001876 0.007203 -0.002612 0.000000 0.000000 0.000000
# 3 -0.002770 -0.002612 0.009551 0.000000 0.000000 0.000000
# 4 0.000000 0.000000 0.000000 0.046683 0.000000 0.000000
# 5 0.000000 0.000000 0.000000 0.000000 0.029196 0.000000
# 6 0.000000 0.000000 0.000000 0.000000 0.000000 0.028610
#
#
# Mechanical properties :
#
#
# Convention : Reuss Voigt Hill
#
# Bulk Modulus (GPa) = 81.34501 83.73112 82.53807
# Shear Modulus (GPa) = 33.35369 36.23855 34.79612
#
# Velocity S-wave (km/s) = 3.96856 4.13663 4.05347
# Velocity P-wave (km/s) = 7.70780 7.89640 7.80267
#
# Compressibility (1/GPa) = 0.01229332
#
# Stress axis : x y z
#
# Youngs Moduli (GPa) = 99.46963 138.82751 104.70185
#
# Poissons Ratio (x) = 0.26039 0.28999
# Poissons Ratio (y) = 0.18657 0.27346
# Poissons Ratio (z) = 0.27549 0.36258
#
# Static dielectric constant tensor:
#      x y z
#    x 3.991800 0.000000 0.000000 
#    y 0.000000 5.483920 0.000000 
#    z 0.000000 0.000000 4.071280 
# 
# 
# High freq. dielectric constant tensor:
#      x y z
#    x 1.843640 0.000000 0.000000 
#    y 0.000000 1.835760 0.000000 
#    z 0.000000 0.000000 1.843290 
# 
# From -- ./inp_files/32252.got.cif
#   From: 2010.03.12/outbox.cif.g09.slc.cpg/sg66_17_cif.got.tgz:32252.got - 2010.04.10 21:57:39.
