data_PCOD8277293
_publ_section_title
;
Structure prediction by ZEFSAII (Michael W. Deem and Ramdas Pophale) SiO2 
 PCOD8277293
Probable space group: C C C M
;
_chemical_formula_sum "Si O2"
_cell_formula_units_Z 80
_cell_length_a 8.793662
_cell_length_b 24.595531
_cell_length_c 18.477739
_cell_angle_alpha 90.000000
_cell_angle_beta 90.000000
_cell_angle_gamma 90.000000
_cell_volume 3996.453831
_symmetry_space_group_name_H-M "C C C M"
_symmetry_group_IT_number 66
_symmetry_cell_setting 'orthorhombic'
loop_
_space_group_symop_operation_xyz
x,y,z
-x,-y,z
x,-y,1/2-z
-x,y,1/2-z
-x,-y,-z
x,y,-z
-x,y,1/2+z
x,-y,1/2+z
1/2+x,1/2+y,z
1/2-x,1/2-y,z
1/2+x,1/2-y,1/2-z
1/2-x,1/2+y,1/2-z
1/2-x,1/2-y,-z
1/2+x,1/2+y,-z
1/2-x,1/2+y,1/2+z
1/2+x,1/2-y,1/2+z
loop_
_atom_site_type_symbol
_atom_site_label
_atom_site_fract_x
_atom_site_fract_y
_atom_site_fract_z
Si Si1 0.435994 0.559344 0.823575
Si Si2 0.454167 0.059664 0.918051
Si Si3 0.172261 0.807896 0.721308
Si Si4 0.133396 0.395285 0.697094
Si Si5 0.350270 0.379628 0.916720
O O1 0.500000 0.500000 0.830333
O O2 0.500000 0.588453 0.750000
O O3 0.255353 0.556486 0.814822
O O4 0.488703 0.593830 0.893389
O O5 0.547535 0.108903 0.879779
O O6 0.275210 0.072585 0.908959
O O7 0.500000 0.000000 0.886513
O O8 0.507087 0.062240 0.000000
O O9 0.250000 0.750000 0.717908
O O10 0.276967 0.841766 0.777852
O O11 0.183625 0.831230 0.639585
O O12 0.000000 0.803057 0.750000
O O13 0.000000 0.414768 0.750000
O O14 0.359349 0.358360 0.000000
#
# Coordination Sequence:
#
# PCOD8277293 Si02
#       5
#    16  16  16  16  16
#     4  11  21  37  60  92 132 169 215 257 302 376
#     4  10  22  38  59  95 139 176 212 251 308 387
#     4  12  25  46  69  92 120 159 219 278 331 391
#     4  12  21  39  65  95 124 169 214 265 319 371
#     4  11  22  42  64  91 132 170 209 261 319 381
#
# _framework density 20.017745999999999
#
# number of rings (size 3 to 8) (size 9 to 14) (size 15 to 20)
#    0.000    0.800    6.000    1.800    0.000    3.600 
#    0.000    0.000    0.000    1.200    0.000    0.000 
#    0.000    0.000    0.000    0.000    0.000    0.000 
#
# Total GULP energy -495607.666432 kJ/mol
# GULP energy per Si atom -12390.191661 kJ/mol
# Density = 1.997218 g / cm^3
# Si number density = 20.017746 Si / 1000 Ang^3
#
#
#
# Elastic Constant Matrix: (Units=GPa)
#
#
# Indices 1 2 3 4 5 6 
#
# 1 149.6300 55.4474 55.4718 0.0000 0.0000 0.0000
# 2 55.4474 108.4296 57.5349 0.0000 0.0000 0.0000
# 3 55.4718 57.5349 130.3666 0.0000 0.0000 0.0000
# 4 0.0000 0.0000 0.0000 15.9257 0.0000 0.0000
# 5 0.0000 0.0000 0.0000 0.0000 32.3125 0.0000
# 6 0.0000 0.0000 0.0000 0.0000 0.0000 28.8444
#
#
#
# Elastic Compliance Matrix: (Units=1/GPa)
#
#
# Indices 1 2 3 4 5 6 
#
# 1 0.008735 -0.003258 -0.002279 0.000000 0.000000 0.000000
# 2 -0.003258 0.013257 -0.004465 0.000000 0.000000 0.000000
# 3 -0.002279 -0.004465 0.010611 0.000000 0.000000 0.000000
# 4 0.000000 0.000000 0.000000 0.062792 0.000000 0.000000
# 5 0.000000 0.000000 0.000000 0.000000 0.030948 0.000000
# 6 0.000000 0.000000 0.000000 0.000000 0.000000 0.034669
#
#
# Mechanical properties :
#
#
# Convention : Reuss Voigt Hill
#
# Bulk Modulus (GPa) = 79.36201 80.59272 79.97737
# Shear Modulus (GPa) = 26.99560 30.08133 28.53846
#
# Velocity S-wave (km/s) = 3.67629 3.88072 3.77989
# Velocity P-wave (km/s) = 7.59948 7.77354 7.68700
#
# Compressibility (1/GPa) = 0.01260049
#
# Stress axis : x y z
#
# Youngs Moduli (GPa) = 114.47873 75.42902 94.24183
#
# Poissons Ratio (x) = 0.24571 0.21480
# Poissons Ratio (y) = 0.37292 0.42078
# Poissons Ratio (z) = 0.26093 0.33678
#
# Static dielectric constant tensor:
#      x y z
#    x 3.980450 0.000000 0.000000 
#    y 0.000000 3.485720 0.000000 
#    z 0.000000 0.000000 3.918620 
# 
# 
# High freq. dielectric constant tensor:
#      x y z
#    x 1.801120 0.000000 0.000000 
#    y 0.000000 1.754520 0.000000 
#    z 0.000000 0.000000 1.782680 
# 
# From -- ./inp_files/36936.got.cif
#   From: 2010.03.12/outbox.cif.g09.slc.cpg/sg66_19_cif.got.tgz:36936.got - 2010.04.10 21:57:39.
