data_PCOD8277399
_publ_section_title
;
Structure prediction by ZEFSAII (Michael W. Deem and Ramdas Pophale) SiO2 
 PCOD8277399
Probable space group: C C C M
;
_chemical_formula_sum "Si O2"
_cell_formula_units_Z 68
_cell_length_a 12.057786
_cell_length_b 14.544896
_cell_length_c 18.409418
_cell_angle_alpha 90.000000
_cell_angle_beta 90.000000
_cell_angle_gamma 90.000000
_cell_volume 3228.629800
_symmetry_space_group_name_H-M "C C C M"
_symmetry_group_IT_number 66
_symmetry_cell_setting 'orthorhombic'
loop_
_space_group_symop_operation_xyz
x,y,z
-x,-y,z
x,-y,1/2-z
-x,y,1/2-z
-x,-y,-z
x,y,-z
-x,y,1/2+z
x,-y,1/2+z
1/2+x,1/2+y,z
1/2-x,1/2-y,z
1/2+x,1/2-y,1/2-z
1/2-x,1/2+y,1/2-z
1/2-x,1/2-y,-z
1/2+x,1/2+y,-z
1/2-x,1/2+y,1/2+z
1/2+x,1/2-y,1/2+z
loop_
_atom_site_type_symbol
_atom_site_label
_atom_site_fract_x
_atom_site_fract_y
_atom_site_fract_z
Si Si1 0.383321 0.854877 0.345701
Si Si2 0.544005 0.102474 0.500000
Si Si3 0.969123 0.822871 0.349278
Si Si4 0.500000 0.000000 0.750000
Si Si5 0.336681 0.397864 0.775663
Si Si6 0.381012 0.733328 0.000000
O O1 0.378786 0.877270 0.431115
O O2 0.465797 0.770908 0.330430
O O3 0.423823 0.942400 0.302555
O O4 0.258176 0.841180 0.318013
O O5 0.435429 0.166533 0.500000
O O6 0.500000 0.000000 0.500000
O O7 0.866047 0.835586 0.294713
O O8 0.921330 0.825370 0.430555
O O9 0.058158 0.903929 0.331525
O O10 0.302522 0.500000 0.750000
O O11 0.250000 0.750000 0.000000
#
# Coordination Sequence:
#
# PCOD8277399 Si02
#       6
#    16   8  16   4  16   8
#     4  11  23  39  65  94 129 168 213 266 324 385
#     4  10  22  43  61  94 133 166 208 270 317 386
#     4  10  23  41  63  91 130 164 219 263 320 385
#     4  12  20  34  60  98 122 158 216 260 312 380
#     4  11  23  43  65  94 128 170 214 271 324 380
#     4  10  24  41  64  92 129 173 218 259 330 396
#
# _framework density 21.061567
#
# number of rings (size 3 to 8) (size 9 to 14) (size 15 to 20)
#    0.000    1.412    2.353    3.529    0.000   10.353 
#    0.000    5.882    0.000    0.000    0.000    0.000 
#    0.000    0.000    0.000    0.000    0.000    0.000 
#
# Total GULP energy -421478.169463 kJ/mol
# GULP energy per Si atom -12396.416749 kJ/mol
# Density = 2.101363 g / cm^3
# Si number density = 21.061567 Si / 1000 Ang^3
#
#
#
# Elastic Constant Matrix: (Units=GPa)
#
#
# Indices 1 2 3 4 5 6 
#
# 1 128.5821 28.3996 86.3888 0.0000 0.0000 0.0000
# 2 28.3996 83.6140 50.7306 0.0000 0.0000 0.0000
# 3 86.3888 50.7306 196.9470 0.0000 0.0000 0.0000
# 4 0.0000 0.0000 0.0000 47.4280 0.0000 0.0000
# 5 0.0000 0.0000 0.0000 0.0000 42.1301 0.0000
# 6 0.0000 0.0000 0.0000 0.0000 0.0000 27.4584
#
#
#
# Elastic Compliance Matrix: (Units=1/GPa)
#
#
# Indices 1 2 3 4 5 6 
#
# 1 0.011092 -0.000967 -0.004617 0.000000 0.000000 0.000000
# 2 -0.000967 0.014259 -0.003249 0.000000 0.000000 0.000000
# 3 -0.004617 -0.003249 0.007939 0.000000 0.000000 0.000000
# 4 0.000000 0.000000 0.000000 0.021085 0.000000 0.000000
# 5 0.000000 0.000000 0.000000 0.000000 0.023736 0.000000
# 6 0.000000 0.000000 0.000000 0.000000 0.000000 0.036419
#
#
# Mechanical properties :
#
#
# Convention : Reuss Voigt Hill
#
# Bulk Modulus (GPa) = 63.99283 82.24234 73.11759
# Shear Modulus (GPa) = 36.38922 39.64492 38.01707
#
# Velocity S-wave (km/s) = 4.16114 4.34329 4.25319
# Velocity P-wave (km/s) = 7.31686 8.01783 7.67535
#
# Compressibility (1/GPa) = 0.01562675
#
# Stress axis : x y z
#
# Youngs Moduli (GPa) = 90.15289 70.12991 125.95398
#
# Poissons Ratio (x) = 0.06778 0.58147
# Poissons Ratio (y) = 0.08714 0.40923
# Poissons Ratio (z) = 0.41620 0.22785
#
# Static dielectric constant tensor:
#      x y z
#    x 4.287450 0.000000 0.000000 
#    y 0.000000 3.787030 0.000000 
#    z 0.000000 0.000000 4.044740 
# 
# 
# High freq. dielectric constant tensor:
#      x y z
#    x 1.828410 0.000000 0.000000 
#    y 0.000000 1.824650 0.000000 
#    z 0.000000 0.000000 1.833410 
# 
# From -- ./inp_files/48272.got.cif
#   From: 2010.03.12/outbox.cif.g09.slc.cpg/sg66_25_cif.got.tgz:48272.got - 2010.04.10 21:57:39.
