data_PCOD8277421
_publ_section_title
;
Structure prediction by ZEFSAII (Michael W. Deem and Ramdas Pophale) SiO2 
 PCOD8277421
Probable space group: C C C M
;
_chemical_formula_sum "Si O2"
_cell_formula_units_Z 112
_cell_length_a 13.624064
_cell_length_b 23.159820
_cell_length_c 16.770566
_cell_angle_alpha 90.000000
_cell_angle_beta 90.000000
_cell_angle_gamma 90.000000
_cell_volume 5291.631279
_symmetry_space_group_name_H-M "C C C M"
_symmetry_group_IT_number 66
_symmetry_cell_setting 'orthorhombic'
loop_
_space_group_symop_operation_xyz
x,y,z
-x,-y,z
x,-y,1/2-z
-x,y,1/2-z
-x,-y,-z
x,y,-z
-x,y,1/2+z
x,-y,1/2+z
1/2+x,1/2+y,z
1/2-x,1/2-y,z
1/2+x,1/2-y,1/2-z
1/2-x,1/2+y,1/2-z
1/2-x,1/2-y,-z
1/2+x,1/2+y,-z
1/2-x,1/2+y,1/2+z
1/2+x,1/2-y,1/2+z
loop_
_atom_site_type_symbol
_atom_site_label
_atom_site_fract_x
_atom_site_fract_y
_atom_site_fract_z
Si Si1 0.002756 0.329645 0.842336
Si Si2 0.085937 0.887292 0.850731
Si Si3 0.220437 0.315645 0.907219
Si Si4 0.859347 0.764882 0.592650
Si Si5 0.069945 0.446336 0.592212
Si Si6 0.284075 0.517328 0.089689
Si Si7 0.866573 0.094043 0.669363
O O1 0.111226 0.325006 0.876675
O O2 0.000000 0.312055 0.750000
O O3 0.931549 0.287936 0.891224
O O4 0.965311 0.394589 0.852182
O O5 0.106338 0.819857 0.858083
O O6 0.147258 0.926176 0.911879
O O7 0.119041 0.906409 0.763448
O O8 0.972064 0.897053 0.871232
O O9 0.250000 0.250000 0.892088
O O10 0.293589 0.355743 0.857748
O O11 0.227014 0.332482 0.000000
O O12 0.861239 0.780551 0.500000
O O13 0.750000 0.750000 0.621414
O O14 0.069455 0.426352 0.500000
O O15 0.177581 0.464328 0.621080
O O16 0.000000 0.500000 0.606716
O O17 0.325390 0.468222 0.146708
O O18 0.276490 0.492691 0.000000
#
# Coordination Sequence:
#
# PCOD8277421 Si02
#       7
#    16  16  16  16  16  16  16
#     4  12  27  41  69 104 141 183 227 290 346 414
#     4  11  25  42  66  97 133 175 223 287 345 416
#     4  11  25  44  68  98 136 181 232 284 344 417
#     4  11  25  45  70  97 134 180 231 281 339 411
#     4  10  22  44  68  94 134 180 230 280 338 410
#     4  11  23  41  68  96 129 175 228 280 342 417
#     4  11  25  42  66  95 135 176 220 283 351 414
#
# _framework density 21.165496000000001
#
# number of rings (size 3 to 8) (size 9 to 14) (size 15 to 20)
#    0.000    1.000    0.000    5.571    8.000    8.857 
#    2.571    0.000    0.000    0.000    0.000    0.000 
#    0.000    0.000    0.000    0.000    0.000    0.000 
#
# Total GULP energy -694833.366125 kJ/mol
# GULP energy per Si atom -12407.738681 kJ/mol
# Density = 2.111732 g / cm^3
# Si number density = 21.165496 Si / 1000 Ang^3
#
#
#
# Elastic Constant Matrix: (Units=GPa)
#
#
# Indices 1 2 3 4 5 6 
#
# 1 198.6853 68.8269 33.3128 0.0000 0.0000 0.0000
# 2 68.8269 123.7683 24.9525 0.0000 0.0000 0.0000
# 3 33.3128 24.9525 49.9147 0.0000 0.0000 0.0000
# 4 0.0000 0.0000 0.0000 40.3485 0.0000 0.0000
# 5 0.0000 0.0000 0.0000 0.0000 37.4457 0.0000
# 6 0.0000 0.0000 0.0000 0.0000 0.0000 43.0622
#
#
#
# Elastic Compliance Matrix: (Units=1/GPa)
#
#
# Indices 1 2 3 4 5 6 
#
# 1 0.006579 -0.003084 -0.002849 0.000000 0.000000 0.000000
# 2 -0.003084 0.010431 -0.003156 0.000000 0.000000 0.000000
# 3 -0.002849 -0.003156 0.023513 0.000000 0.000000 0.000000
# 4 0.000000 0.000000 0.000000 0.024784 0.000000 0.000000
# 5 0.000000 0.000000 0.000000 0.000000 0.026705 0.000000
# 6 0.000000 0.000000 0.000000 0.000000 0.000000 0.023222
#
#
# Mechanical properties :
#
#
# Convention : Reuss Voigt Hill
#
# Bulk Modulus (GPa) = 44.75328 69.61697 57.18512
# Shear Modulus (GPa) = 35.49565 40.52304 38.00934
#
# Velocity S-wave (km/s) = 4.09963 4.38034 4.24230
# Velocity P-wave (km/s) = 6.60300 7.65155 7.14653
#
# Compressibility (1/GPa) = 0.02234473
#
# Stress axis : x y z
#
# Youngs Moduli (GPa) = 151.99412 95.86762 42.52900
#
# Poissons Ratio (x) = 0.29568 0.12117
# Poissons Ratio (y) = 0.46879 0.13423
# Poissons Ratio (z) = 0.43304 0.30257
#
# Static dielectric constant tensor:
#      x y z
#    x 4.242280 0.000000 0.000000 
#    y 0.000000 3.834250 0.000000 
#    z 0.000000 0.000000 3.775070 
# 
# 
# High freq. dielectric constant tensor:
#      x y z
#    x 1.852150 0.000000 0.000000 
#    y 0.000000 1.844410 0.000000 
#    z 0.000000 0.000000 1.831170 
# 
# From -- ./inp_files/28749.got.cif
#   From: 2010.03.12/outbox.cif.g09.slc.cpg/sg66_15_cif.got.tgz:28749.got - 2010.04.10 21:57:39.
