data_PCOD8277389
_publ_section_title
;
Structure prediction by ZEFSAII (Michael W. Deem and Ramdas Pophale) SiO2 
 PCOD8277389
Probable space group: C C C M
;
_chemical_formula_sum "Si O2"
_cell_formula_units_Z 120
_cell_length_a 10.947351
_cell_length_b 25.855238
_cell_length_c 21.147517
_cell_angle_alpha 90.000000
_cell_angle_beta 90.000000
_cell_angle_gamma 90.000000
_cell_volume 5985.727828
_symmetry_space_group_name_H-M "C C C M"
_symmetry_group_IT_number 66
_symmetry_cell_setting 'orthorhombic'
loop_
_space_group_symop_operation_xyz
x,y,z
-x,-y,z
x,-y,1/2-z
-x,y,1/2-z
-x,-y,-z
x,y,-z
-x,y,1/2+z
x,-y,1/2+z
1/2+x,1/2+y,z
1/2-x,1/2-y,z
1/2+x,1/2-y,1/2-z
1/2-x,1/2+y,1/2-z
1/2-x,1/2-y,-z
1/2+x,1/2+y,-z
1/2-x,1/2+y,1/2+z
1/2+x,1/2-y,1/2+z
loop_
_atom_site_type_symbol
_atom_site_label
_atom_site_fract_x
_atom_site_fract_y
_atom_site_fract_z
Si Si1 0.250000 0.250000 0.334498
Si Si2 0.179536 0.700183 0.573213
Si Si3 0.856375 0.507383 0.177853
Si Si4 0.858672 0.843905 0.266012
Si Si5 0.905761 0.319286 0.074395
Si Si6 0.780511 0.891775 0.141318
Si Si7 0.757211 0.091053 0.119601
Si Si8 0.004145 0.940180 0.570620
O O1 0.168588 0.213995 0.289317
O O2 0.166124 0.280478 0.382141
O O3 0.170027 0.711865 0.500000
O O4 0.250000 0.750000 0.604491
O O5 0.249451 0.646604 0.584103
O O6 0.043354 0.689664 0.599041
O O7 0.811791 0.500000 0.250000
O O8 0.819925 0.563583 0.151271
O O9 0.792339 0.465633 0.133786
O O10 0.000000 0.500000 0.172801
O O11 0.782535 0.856193 0.203304
O O12 0.811812 0.884229 0.317404
O O13 0.000000 0.850753 0.250000
O O14 0.853408 0.376596 0.088268
O O15 0.891224 0.306722 0.000000
O O16 0.912020 0.914904 0.124329
O O17 0.869830 0.085372 0.071275
O O18 0.057943 0.932259 0.500000
O O19 0.000000 0.000000 0.588466
#
# Coordination Sequence:
#
# PCOD8277389 Si02
#       8
#     8  16  16  16  16  16  16  16
#     4  10  25  40  62  94 123 160 214 262 316 376
#     4  10  24  43  64  91 122 163 215 264 314 373
#     4  11  23  39  60  90 128 167 208 250 309 381
#     4  11  24  39  61  93 124 161 205 254 318 377
#     4  10  22  42  65  90 125 167 211 262 319 376
#     4  12  23  40  65  90 127 167 203 259 316 375
#     4  11  21  41  62  93 129 163 208 257 317 379
#     4  11  23  38  62  93 126 165 209 257 308 373
#
# _framework density 20.047687
#
# number of rings (size 3 to 8) (size 9 to 14) (size 15 to 20)
#    0.000    1.200    4.000    1.800    2.800    0.000 
#    0.000    4.667    0.000    3.200    0.000    0.000 
#    0.000    0.000    0.000    0.000    0.000    0.000 
#
# Total GULP energy -743914.173867 kJ/mol
# GULP energy per Si atom -12398.569564 kJ/mol
# Density = 2.000206 g / cm^3
# Si number density = 20.047687 Si / 1000 Ang^3
#
#
#
# Elastic Constant Matrix: (Units=GPa)
#
#
# Indices 1 2 3 4 5 6 
#
# 1 111.2002 41.3141 24.6176 0.0000 0.0000 0.0000
# 2 41.3141 116.0938 26.6397 0.0000 0.0000 0.0000
# 3 24.6176 26.6397 66.2670 0.0000 0.0000 0.0000
# 4 0.0000 0.0000 0.0000 25.5554 0.0000 0.0000
# 5 0.0000 0.0000 0.0000 0.0000 34.2841 0.0000
# 6 0.0000 0.0000 0.0000 0.0000 0.0000 31.3228
#
#
#
# Elastic Compliance Matrix: (Units=1/GPa)
#
#
# Indices 1 2 3 4 5 6 
#
# 1 0.010789 -0.003216 -0.002715 0.000000 0.000000 0.000000
# 2 -0.003216 0.010448 -0.003005 0.000000 0.000000 0.000000
# 3 -0.002715 -0.003005 0.017307 0.000000 0.000000 0.000000
# 4 0.000000 0.000000 0.000000 0.039131 0.000000 0.000000
# 5 0.000000 0.000000 0.000000 0.000000 0.029168 0.000000
# 6 0.000000 0.000000 0.000000 0.000000 0.000000 0.031926
#
#
# Mechanical properties :
#
#
# Convention : Reuss Voigt Hill
#
# Bulk Modulus (GPa) = 48.37761 53.18932 50.78347
# Shear Modulus (GPa) = 30.57508 31.63175 31.10342
#
# Velocity S-wave (km/s) = 3.90951 3.97649 3.94315
# Velocity P-wave (km/s) = 6.67553 6.90452 6.79099
#
# Compressibility (1/GPa) = 0.02067072
#
# Stress axis : x y z
#
# Youngs Moduli (GPa) = 92.68862 95.71246 57.77946
#
# Poissons Ratio (x) = 0.30785 0.15687
# Poissons Ratio (y) = 0.29812 0.17364
# Poissons Ratio (z) = 0.25164 0.28764
#
# Static dielectric constant tensor:
#      x y z
#    x 4.077700 0.000000 0.000000 
#    y 0.000000 3.782140 0.000000 
#    z 0.000000 0.000000 3.598260 
# 
# 
# High freq. dielectric constant tensor:
#      x y z
#    x 1.788680 0.000000 0.000000 
#    y 0.000000 1.792360 0.000000 
#    z 0.000000 0.000000 1.783520 
# 
# From -- ./inp_files/49057.got.cif
#   From: 2010.03.12/outbox.cif.g09.slc.cpg/sg66_25_cif.got.tgz:49057.got - 2010.04.10 21:57:39.
