data_PCOD8277549
_publ_section_title
;
Structure prediction by ZEFSAII (Michael W. Deem and Ramdas Pophale) SiO2 
 PCOD8277549
Probable space group: C C C M
;
_chemical_formula_sum "Si O2"
_cell_formula_units_Z 60
_cell_length_a 10.574305
_cell_length_b 10.188236
_cell_length_c 25.153008
_cell_angle_alpha 90.000000
_cell_angle_beta 90.000000
_cell_angle_gamma 90.000000
_cell_volume 2709.821962
_symmetry_space_group_name_H-M "C C C M"
_symmetry_group_IT_number 66
_symmetry_cell_setting 'orthorhombic'
loop_
_space_group_symop_operation_xyz
x,y,z
-x,-y,z
x,-y,1/2-z
-x,y,1/2-z
-x,-y,-z
x,y,-z
-x,y,1/2+z
x,-y,1/2+z
1/2+x,1/2+y,z
1/2-x,1/2-y,z
1/2+x,1/2-y,1/2-z
1/2-x,1/2+y,1/2-z
1/2-x,1/2-y,-z
1/2+x,1/2+y,-z
1/2-x,1/2+y,1/2+z
1/2+x,1/2-y,1/2+z
loop_
_atom_site_type_symbol
_atom_site_label
_atom_site_fract_x
_atom_site_fract_y
_atom_site_fract_z
Si Si1 0.500000 0.500000 0.250000
Si Si2 0.687091 0.558565 0.000000
Si Si3 0.573441 0.707016 0.500000
Si Si4 0.750000 0.250000 0.412696
Si Si5 0.890739 0.243997 0.787464
Si Si6 0.012681 0.654947 0.107066
O O1 0.582714 0.411795 0.209824
O O2 0.755780 0.616651 0.948042
O O3 0.690583 0.398265 0.000000
O O4 0.547430 0.615553 0.000000
O O5 0.575030 0.797055 0.447861
O O6 0.879570 0.268051 0.379437
O O7 0.750000 0.250000 0.762815
O O8 0.000000 0.311126 0.750000
O O9 0.892467 0.309027 0.845402
O O10 0.000000 0.500000 0.104353
#
# Coordination Sequence:
#
# PCOD8277549 Si02
#       6
#     4   8   8   8  16  16
#     4   8  24  48  72  98 136 168 234 294 346 420
#     4   8  16  35  60  88 126 189 232 261 329 399
#     4   9  19  37  59  97 140 185 220 283 323 411
#     4   9  20  38  60  92 134 174 226 279 332 392
#     4  10  25  47  71 100 131 178 227 290 353 414
#     4  11  24  39  65 100 136 180 228 276 347 411
#
# _framework density 22.141674999999999
#
# number of rings (size 3 to 8) (size 9 to 14) (size 15 to 20)
#    0.800    1.600    0.000    1.200    1.867   11.200 
#    0.000    2.000    0.000    0.000    0.000    0.000 
#    0.000    0.000    0.000    0.000    0.000    0.000 
#
# Total GULP energy -371695.815009 kJ/mol
# GULP energy per Si atom -12389.860500 kJ/mol
# Density = 2.209128 g / cm^3
# Si number density = 22.141675 Si / 1000 Ang^3
#
#
#
# Elastic Constant Matrix: (Units=GPa)
#
#
# Indices 1 2 3 4 5 6 
#
# 1 123.2250 16.2377 29.3055 0.0000 0.0000 0.0000
# 2 16.2377 160.2883 46.8777 0.0000 0.0000 0.0000
# 3 29.3055 46.8777 113.4795 0.0000 0.0000 0.0000
# 4 0.0000 0.0000 0.0000 21.5489 0.0000 0.0000
# 5 0.0000 0.0000 0.0000 0.0000 18.2666 0.0000
# 6 0.0000 0.0000 0.0000 0.0000 0.0000 20.9659
#
#
#
# Elastic Compliance Matrix: (Units=1/GPa)
#
#
# Indices 1 2 3 4 5 6 
#
# 1 0.008655 -0.000254 -0.002130 0.000000 0.000000 0.000000
# 2 -0.000254 0.007103 -0.002869 0.000000 0.000000 0.000000
# 3 -0.002130 -0.002869 0.010547 0.000000 0.000000 0.000000
# 4 0.000000 0.000000 0.000000 0.046406 0.000000 0.000000
# 5 0.000000 0.000000 0.000000 0.000000 0.054745 0.000000
# 6 0.000000 0.000000 0.000000 0.000000 0.000000 0.047697
#
#
# Mechanical properties :
#
#
# Convention : Reuss Voigt Hill
#
# Bulk Modulus (GPa) = 63.29017 64.64827 63.96922
# Shear Modulus (GPa) = 26.18810 32.46106 29.32458
#
# Velocity S-wave (km/s) = 3.44285 3.83307 3.64319
# Velocity P-wave (km/s) = 6.66712 6.98934 6.83013
#
# Compressibility (1/GPa) = 0.01580024
#
# Stress axis : x y z
#
# Youngs Moduli (GPa) = 115.53583 140.77580 94.80982
#
# Poissons Ratio (x) = 0.03572 0.20198
# Poissons Ratio (y) = 0.02932 0.27200
# Poissons Ratio (z) = 0.24613 0.40387
#
# Static dielectric constant tensor:
#      x y z
#    x 4.230610 0.000000 0.000000 
#    y 0.000000 4.053020 0.000000 
#    z 0.000000 0.000000 3.628650 
# 
# 
# High freq. dielectric constant tensor:
#      x y z
#    x 1.878100 0.000000 0.000000 
#    y 0.000000 1.870420 0.000000 
#    z 0.000000 0.000000 1.845290 
# 
# From -- ./inp_files/56416.got.cif
#   From: 2010.03.12/outbox.cif.g09.slc.cpg/sg66_29_cif.got.tgz:56416.got - 2010.04.10 21:57:39.
