data_PCOD8277341
_publ_section_title
;
Structure prediction by ZEFSAII (Michael W. Deem and Ramdas Pophale) SiO2 
 PCOD8277341
Probable space group: C C C M
;
_chemical_formula_sum "Si O2"
_cell_formula_units_Z 56
_cell_length_a 23.983588
_cell_length_b 4.994519
_cell_length_c 23.161286
_cell_angle_alpha 90.000000
_cell_angle_beta 90.000000
_cell_angle_gamma 90.000000
_cell_volume 2774.409060
_symmetry_space_group_name_H-M "C C C M"
_symmetry_group_IT_number 66
_symmetry_cell_setting 'orthorhombic'
loop_
_space_group_symop_operation_xyz
x,y,z
-x,-y,z
x,-y,1/2-z
-x,y,1/2-z
-x,-y,-z
x,y,-z
-x,y,1/2+z
x,-y,1/2+z
1/2+x,1/2+y,z
1/2-x,1/2-y,z
1/2+x,1/2-y,1/2-z
1/2-x,1/2+y,1/2-z
1/2-x,1/2-y,-z
1/2+x,1/2+y,-z
1/2-x,1/2+y,1/2+z
1/2+x,1/2-y,1/2+z
loop_
_atom_site_type_symbol
_atom_site_label
_atom_site_fract_x
_atom_site_fract_y
_atom_site_fract_z
Si Si1 0.813805 0.252303 0.789587
Si Si2 0.124085 0.613872 0.904459
Si Si3 0.710546 0.999721 0.500000
Si Si4 0.057418 0.117639 0.065542
O O1 0.825622 0.500000 0.750000
O O2 0.750000 0.250000 0.811891
O O3 0.854792 0.277991 0.843335
O O4 0.828570 0.000000 0.750000
O O5 0.173488 0.489730 0.942479
O O6 0.078355 0.375033 0.897619
O O7 0.100975 0.875007 0.936194
O O8 0.750000 0.750000 0.500000
O O9 0.750000 0.250000 0.500000
O O10 0.047884 0.218986 0.000000
O O11 0.000000 0.000000 0.092386
#
# Coordination Sequence:
#
# PCOD8277341 Si02
#       4
#    16  16   8  16
#     4  10  22  40  62  88 120 166 214 251 298 368
#     4  12  22  40  62  90 127 164 205 258 313 370
#     4  12  24  36  55  92 133 164 198 248 324 384
#     4  11  22  39  62  91 125 163 210 254 308 378
#
# _framework density 20.184480000000001
#
# number of rings (size 3 to 8) (size 9 to 14) (size 15 to 20)
#    0.000    0.857    2.857    5.143    0.000    5.714 
#    0.000    0.000    0.000   12.857    0.000    0.000 
#    0.000    0.000    0.000    0.000    0.000    0.000 
#
# Total GULP energy -347244.306915 kJ/mol
# GULP energy per Si atom -12401.582390 kJ/mol
# Density = 2.013854 g / cm^3
# Si number density = 20.184480 Si / 1000 Ang^3
#
#
#
# Elastic Constant Matrix: (Units=GPa)
#
#
# Indices 1 2 3 4 5 6 
#
# 1 93.4206 43.1779 56.8607 0.0000 0.0000 0.0000
# 2 43.1779 152.9602 45.9080 0.0000 0.0000 0.0000
# 3 56.8607 45.9080 105.5367 0.0000 0.0000 0.0000
# 4 0.0000 0.0000 0.0000 44.0052 0.0000 0.0000
# 5 0.0000 0.0000 0.0000 0.0000 21.1020 0.0000
# 6 0.0000 0.0000 0.0000 0.0000 0.0000 48.3452
#
#
#
# Elastic Compliance Matrix: (Units=1/GPa)
#
#
# Indices 1 2 3 4 5 6 
#
# 1 0.016604 -0.002303 -0.007944 0.000000 0.000000 0.000000
# 2 -0.002303 0.007839 -0.002169 0.000000 0.000000 0.000000
# 3 -0.007944 -0.002169 0.014699 0.000000 0.000000 0.000000
# 4 0.000000 0.000000 0.000000 0.022725 0.000000 0.000000
# 5 0.000000 0.000000 0.000000 0.000000 0.047389 0.000000
# 6 0.000000 0.000000 0.000000 0.000000 0.000000 0.020685
#
#
# Mechanical properties :
#
#
# Convention : Reuss Voigt Hill
#
# Bulk Modulus (GPa) = 69.88292 71.53453 70.70873
# Shear Modulus (GPa) = 31.33988 36.42187 33.88088
#
# Velocity S-wave (km/s) = 3.94467 4.25249 4.10147
# Velocity P-wave (km/s) = 7.44611 7.72197 7.58529
#
# Compressibility (1/GPa) = 0.01430965
#
# Stress axis : x y z
#
# Youngs Moduli (GPa) = 60.22755 127.57242 68.03179
#
# Poissons Ratio (x) = 0.29376 0.54045
# Poissons Ratio (y) = 0.13869 0.14757
# Poissons Ratio (z) = 0.47845 0.27672
#
# Static dielectric constant tensor:
#      x y z
#    x 3.808740 0.000000 0.000000 
#    y 0.000000 3.823940 0.000000 
#    z 0.000000 0.000000 3.494850 
# 
# 
# High freq. dielectric constant tensor:
#      x y z
#    x 1.789500 0.000000 0.000000 
#    y 0.000000 1.815300 0.000000 
#    z 0.000000 0.000000 1.763050 
# 
# From -- ./inp_files/45449.got.cif
#   From: 2010.03.12/outbox.cif.g09.slc.cpg/sg66_23_cif.got.tgz:45449.got - 2010.04.10 21:57:39.
