data_PCOD8277606
_publ_section_title
;
Structure prediction by ZEFSAII (Michael W. Deem and Ramdas Pophale) SiO2 
 PCOD8277606
Probable space group: C C C M
;
_chemical_formula_sum "Si O2"
_cell_formula_units_Z 80
_cell_length_a 22.351953
_cell_length_b 22.579487
_cell_length_c 9.731103
_cell_angle_alpha 90.000000
_cell_angle_beta 90.000000
_cell_angle_gamma 90.000000
_cell_volume 4911.245180
_symmetry_space_group_name_H-M "C C C M"
_symmetry_group_IT_number 66
_symmetry_cell_setting 'orthorhombic'
loop_
_space_group_symop_operation_xyz
x,y,z
-x,-y,z
x,-y,1/2-z
-x,y,1/2-z
-x,-y,-z
x,y,-z
-x,y,1/2+z
x,-y,1/2+z
1/2+x,1/2+y,z
1/2-x,1/2-y,z
1/2+x,1/2-y,1/2-z
1/2-x,1/2+y,1/2-z
1/2-x,1/2-y,-z
1/2+x,1/2+y,-z
1/2-x,1/2+y,1/2+z
1/2+x,1/2-y,1/2+z
loop_
_atom_site_type_symbol
_atom_site_label
_atom_site_fract_x
_atom_site_fract_y
_atom_site_fract_z
Si Si1 0.860477 0.444262 0.000000
Si Si2 0.677476 0.869289 0.258847
Si Si3 0.880184 0.248526 0.839854
Si Si4 0.288228 0.690545 0.345828
Si Si5 0.511187 0.116987 0.000000
Si Si6 0.000000 0.704575 0.750000
Si Si7 0.115567 0.420701 0.000000
O O1 0.825363 0.423241 0.134856
O O2 0.928429 0.420791 0.000000
O O3 0.855958 0.514739 0.000000
O O4 0.654679 0.810647 0.335538
O O5 0.745671 0.862315 0.207678
O O6 0.634505 0.882668 0.131362
O O7 0.842776 0.197734 0.760897
O O8 0.942259 0.252860 0.755688
O O9 0.889468 0.230926 0.000000
O O10 0.311774 0.675846 0.500000
O O11 0.250000 0.750000 0.351737
O O12 0.506115 0.161036 0.124487
O O13 0.456084 0.071238 0.000000
#
# Coordination Sequence:
#
# PCOD8277606 Si02
#       7
#     8  16  16  16   8   8   8
#     4  12  23  36  48  75  95 135 185 222 261 284
#     4  11  20  36  50  69  99 127 167 220 262 303
#     4  11  21  33  51  75  97 130 168 205 257 307
#     4   9  20  32  52  74  91 122 163 207 261 315
#     4  12  21  36  48  66  98 142 178 224 253 282
#     4  12  20  32  51  70 104 134 169 208 256 296
#     4  12  23  34  54  67  97 137 183 226 253 292
#
# _framework density 16.289147
#
# number of rings (size 3 to 8) (size 9 to 14) (size 15 to 20)
#    0.000    1.000    7.000    0.900    4.200    1.200 
#    0.000    3.000    0.000    0.000    0.000    0.000 
#    0.000    0.000    0.000    5.400    0.000    0.000 
#
# Total GULP energy -495966.052278 kJ/mol
# GULP energy per Si atom -12399.151307 kJ/mol
# Density = 1.625207 g / cm^3
# Si number density = 16.289147 Si / 1000 Ang^3
#
#
#
# Elastic Constant Matrix: (Units=GPa)
#
#
# Indices 1 2 3 4 5 6 
#
# 1 67.5846 28.0146 13.0834 0.0000 0.0000 0.0000
# 2 28.0146 40.4170 13.1592 0.0000 0.0000 0.0000
# 3 13.0834 13.1592 83.4367 0.0000 0.0000 0.0000
# 4 0.0000 0.0000 0.0000 10.7100 0.0000 0.0000
# 5 0.0000 0.0000 0.0000 0.0000 25.0493 0.0000
# 6 0.0000 0.0000 0.0000 0.0000 0.0000 23.2375
#
#
#
# Elastic Compliance Matrix: (Units=1/GPa)
#
#
# Indices 1 2 3 4 5 6 
#
# 1 0.020847 -0.014110 -0.001044 0.000000 0.000000 0.000000
# 2 -0.014110 0.035632 -0.003407 0.000000 0.000000 0.000000
# 3 -0.001044 -0.003407 0.012686 0.000000 0.000000 0.000000
# 4 0.000000 0.000000 0.000000 0.093370 0.000000 0.000000
# 5 0.000000 0.000000 0.000000 0.000000 0.039921 0.000000
# 6 0.000000 0.000000 0.000000 0.000000 0.000000 0.043034
#
#
# Mechanical properties :
#
#
# Convention : Reuss Voigt Hill
#
# Bulk Modulus (GPa) = 31.20780 33.32806 32.26793
# Shear Modulus (GPa) = 17.04778 20.94476 18.99627
#
# Velocity S-wave (km/s) = 3.23859 3.58971 3.41866
# Velocity P-wave (km/s) = 5.76063 6.13890 5.95277
#
# Compressibility (1/GPa) = 0.03204327
#
# Stress axis : x y z
#
# Youngs Moduli (GPa) = 47.96823 28.06490 78.82636
#
# Poissons Ratio (x) = 0.39600 0.08226
# Poissons Ratio (y) = 0.67684 0.26857
# Poissons Ratio (z) = 0.05006 0.09562
#
# Static dielectric constant tensor:
#      x y z
#    x 3.326480 0.000000 0.000000 
#    y 0.000000 2.745940 0.000000 
#    z 0.000000 0.000000 3.113320 
# 
# 
# High freq. dielectric constant tensor:
#      x y z
#    x 1.615080 0.000000 0.000000 
#    y 0.000000 1.574680 0.000000 
#    z 0.000000 0.000000 1.652830 
# 
# From -- ./inp_files/6810.got.cif
#   From: 2010.03.12/outbox.cif.g09.slc.cpg/sg66_4_cif.got.tgz:6810.got - 2010.04.10 21:57:39.
