data_PCOD8277537
_publ_section_title
;
Structure prediction by ZEFSAII (Michael W. Deem and Ramdas Pophale) SiO2 
 PCOD8277537
Probable space group: C C C M
;
_chemical_formula_sum "Si O2"
_cell_formula_units_Z 88
_cell_length_a 11.388753
_cell_length_b 14.736967
_cell_length_c 23.876815
_cell_angle_alpha 90.000000
_cell_angle_beta 90.000000
_cell_angle_gamma 90.000000
_cell_volume 4007.381413
_symmetry_space_group_name_H-M "C C C M"
_symmetry_group_IT_number 66
_symmetry_cell_setting 'orthorhombic'
loop_
_space_group_symop_operation_xyz
x,y,z
-x,-y,z
x,-y,1/2-z
-x,y,1/2-z
-x,-y,-z
x,y,-z
-x,y,1/2+z
x,-y,1/2+z
1/2+x,1/2+y,z
1/2-x,1/2-y,z
1/2+x,1/2-y,1/2-z
1/2-x,1/2+y,1/2-z
1/2-x,1/2-y,-z
1/2+x,1/2+y,-z
1/2-x,1/2+y,1/2+z
1/2+x,1/2-y,1/2+z
loop_
_atom_site_type_symbol
_atom_site_label
_atom_site_fract_x
_atom_site_fract_y
_atom_site_fract_z
Si Si1 0.664836 0.663506 0.379012
Si Si2 0.312567 0.888797 0.385470
Si Si3 0.327739 0.956676 0.193144
Si Si4 0.410556 0.714548 0.653477
Si Si5 0.862119 0.517152 0.000000
Si Si6 0.000000 0.320836 0.250000
Si Si7 0.707467 0.648714 0.500000
O O1 0.750000 0.750000 0.378675
O O2 0.722758 0.584459 0.343022
O O3 0.541567 0.680063 0.350803
O O4 0.636211 0.630588 0.442591
O O5 0.387710 0.796577 0.390037
O O6 0.183969 0.864631 0.358581
O O7 0.308589 0.929500 0.447357
O O8 0.377628 0.960042 0.344253
O O9 0.429185 0.883874 0.206217
O O10 0.276691 0.000000 0.250000
O O11 0.405083 0.758407 0.716297
O O12 0.820534 0.414318 0.000000
O O13 0.000000 0.500000 0.000000
O O14 0.750000 0.750000 0.500000
#
# Coordination Sequence:
#
# PCOD8277537 Si02
#       7
#    16  16  16  16   8   8   8
#     4  11  24  44  74 105 143 187 244 292 367 448
#     4  11  28  48  70 109 146 192 246 309 368 433
#     4  12  25  42  72 107 141 189 251 302 363 430
#     4  11  27  46  71 104 151 192 243 299 372 437
#     4  12  28  46  80 108 147 192 256 309 367 440
#     4  12  25  42  76 101 146 200 236 311 356 442
#     4  10  24  45  70 109 139 181 230 296 367 425
#
# _framework density 21.959477
#
# number of rings (size 3 to 8) (size 9 to 14) (size 15 to 20)
#    0.000    0.727    5.455    0.273   10.182    2.909 
#    0.000    1.818    0.000    0.000    0.000    0.000 
#    0.000    0.000    0.000    0.000    0.000    0.000 
#
# Total GULP energy -545360.780580 kJ/mol
# GULP energy per Si atom -12394.563195 kJ/mol
# Density = 2.190950 g / cm^3
# Si number density = 21.959477 Si / 1000 Ang^3
#
#
#
# Elastic Constant Matrix: (Units=GPa)
#
#
# Indices 1 2 3 4 5 6 
#
# 1 95.6370 34.3086 20.8738 0.0000 0.0000 0.0000
# 2 34.3086 99.2818 51.2806 0.0000 0.0000 0.0000
# 3 20.8738 51.2806 154.2034 0.0000 0.0000 0.0000
# 4 0.0000 0.0000 0.0000 39.6217 0.0000 0.0000
# 5 0.0000 0.0000 0.0000 0.0000 23.6767 0.0000
# 6 0.0000 0.0000 0.0000 0.0000 0.0000 34.9085
#
#
#
# Elastic Compliance Matrix: (Units=1/GPa)
#
#
# Indices 1 2 3 4 5 6 
#
# 1 0.011947 -0.003976 -0.000295 0.000000 0.000000 0.000000
# 2 -0.003976 0.013485 -0.003946 0.000000 0.000000 0.000000
# 3 -0.000295 -0.003946 0.007837 0.000000 0.000000 0.000000
# 4 0.000000 0.000000 0.000000 0.025239 0.000000 0.000000
# 5 0.000000 0.000000 0.000000 0.000000 0.042236 0.000000
# 6 0.000000 0.000000 0.000000 0.000000 0.000000 0.028646
#
#
# Mechanical properties :
#
#
# Convention : Reuss Voigt Hill
#
# Bulk Modulus (GPa) = 59.40232 62.44980 60.92606
# Shear Modulus (GPa) = 33.01744 35.81866 34.41805
#
# Velocity S-wave (km/s) = 3.88179 4.04310 3.96326
# Velocity P-wave (km/s) = 6.87027 7.09196 6.98200
#
# Compressibility (1/GPa) = 0.01683436
#
# Stress axis : x y z
#
# Youngs Moduli (GPa) = 83.70325 74.15879 127.59749
#
# Poissons Ratio (x) = 0.29487 0.03763
# Poissons Ratio (y) = 0.33282 0.50351
# Poissons Ratio (z) = 0.02469 0.29264
#
# Static dielectric constant tensor:
#      x y z
#    x 3.724760 0.000000 0.000000 
#    y 0.000000 4.369730 0.000000 
#    z 0.000000 0.000000 4.386140 
# 
# 
# High freq. dielectric constant tensor:
#      x y z
#    x 1.842630 0.000000 0.000000 
#    y 0.000000 1.877130 0.000000 
#    z 0.000000 0.000000 1.876940 
# 
# From -- ./inp_files/56773.got.cif
#   From: 2010.03.12/outbox.cif.g09.slc.cpg/sg66_29_cif.got.tgz:56773.got - 2010.04.10 21:57:39.
