data_PCOD8277331
_publ_section_title
;
Structure prediction by ZEFSAII (Michael W. Deem and Ramdas Pophale) SiO2 
 PCOD8277331
Probable space group: C C C M
;
_chemical_formula_sum "Si O2"
_cell_formula_units_Z 120
_cell_length_a 11.386339
_cell_length_b 24.643937
_cell_length_c 21.374285
_cell_angle_alpha 90.000000
_cell_angle_beta 90.000000
_cell_angle_gamma 90.000000
_cell_volume 5997.714591
_symmetry_space_group_name_H-M "C C C M"
_symmetry_group_IT_number 66
_symmetry_cell_setting 'orthorhombic'
loop_
_space_group_symop_operation_xyz
x,y,z
-x,-y,z
x,-y,1/2-z
-x,y,1/2-z
-x,-y,-z
x,y,-z
-x,y,1/2+z
x,-y,1/2+z
1/2+x,1/2+y,z
1/2-x,1/2-y,z
1/2+x,1/2-y,1/2-z
1/2-x,1/2+y,1/2-z
1/2-x,1/2-y,-z
1/2+x,1/2+y,-z
1/2-x,1/2+y,1/2+z
1/2+x,1/2-y,1/2+z
loop_
_atom_site_type_symbol
_atom_site_label
_atom_site_fract_x
_atom_site_fract_y
_atom_site_fract_z
Si Si1 0.147455 0.150295 0.157408
Si Si2 0.639990 0.562406 0.247640
Si Si3 0.570783 0.332072 0.070715
Si Si4 0.733399 0.117332 0.136136
Si Si5 0.132604 0.340146 0.072916
Si Si6 0.582547 0.221967 0.869335
Si Si7 0.473019 0.938632 0.071198
Si Si8 0.000000 0.219048 0.750000
O O1 0.178214 0.089548 0.181622
O O2 0.259616 0.173206 0.119603
O O3 0.041046 0.150181 0.109819
O O4 0.106286 0.183841 0.219250
O O5 0.680976 0.500000 0.250000
O O6 0.500000 0.567585 0.250000
O O7 0.703793 0.596235 0.301762
O O8 0.669417 0.378000 0.081644
O O9 0.624926 0.273824 0.090703
O O10 0.530449 0.331305 0.000000
O O11 0.681620 0.177643 0.143179
O O12 0.632027 0.076299 0.117224
O O13 0.028101 0.300444 0.092057
O O14 0.088549 0.402017 0.082531
O O15 0.167500 0.330023 0.000000
O O16 0.552048 0.241205 0.800700
O O17 0.500000 0.000000 0.087579
O O18 0.430006 0.931100 0.000000
#
# Coordination Sequence:
#
# PCOD8277331 Si02
#       8
#    16  16  16  16  16  16  16   8
#     4  11  22  42  60  90 127 166 210 265 311 380
#     4  11  23  42  65  88 122 168 210 261 319 371
#     4  11  22  38  62  93 125 163 208 259 316 378
#     4  11  22  40  64  93 124 163 210 258 309 379
#     4  10  22  40  65  93 124 166 209 262 320 376
#     4  10  23  40  61  90 129 166 206 255 310 386
#     4   9  20  40  64  92 127 162 204 256 317 376
#     4  10  22  40  55  90 119 170 206 248 308 368
#
# _framework density 20.007622000000001
#
# number of rings (size 3 to 8) (size 9 to 14) (size 15 to 20)
#    0.000    1.600    2.000    2.400    3.733    4.267 
#    2.400    3.333    0.000    0.800    0.000    0.000 
#    0.000    0.000    0.000    0.000    0.000    0.000 
#
# Total GULP energy -743696.758960 kJ/mol
# GULP energy per Si atom -12394.945983 kJ/mol
# Density = 1.996208 g / cm^3
# Si number density = 20.007622 Si / 1000 Ang^3
#
#
#
# Elastic Constant Matrix: (Units=GPa)
#
#
# Indices 1 2 3 4 5 6 
#
# 1 89.6609 40.3648 36.9728 0.0000 0.0000 0.0000
# 2 40.3648 94.0468 58.5128 0.0000 0.0000 0.0000
# 3 36.9728 58.5128 125.1448 0.0000 0.0000 0.0000
# 4 0.0000 0.0000 0.0000 -0.5361 0.0000 0.0000
# 5 0.0000 0.0000 0.0000 0.0000 36.5150 0.0000
# 6 0.0000 0.0000 0.0000 0.0000 0.0000 20.0782
#
#
#
# Elastic Compliance Matrix: (Units=1/GPa)
#
#
# Indices 1 2 3 4 5 6 
#
# 1 0.014134 -0.004891 -0.001889 0.000000 0.000000 0.000000
# 2 -0.004891 0.016688 -0.006357 0.000000 0.000000 0.000000
# 3 -0.001889 -0.006357 0.011521 0.000000 0.000000 0.000000
# 4 0.000000 0.000000 0.000000 -1.865410 0.000000 0.000000
# 5 0.000000 0.000000 0.000000 0.000000 0.027386 0.000000
# 6 0.000000 0.000000 0.000000 0.000000 0.000000 0.049805
#
#
# Mechanical properties :
#
#
# Convention : Reuss Voigt Hill
#
# Bulk Modulus (GPa) = 62.23523 64.50594 63.37059
# Shear Modulus (GPa) = -2.91674 22.74491 9.91409
#
# Velocity S-wave (km/s) = -1.20871 3.37532 2.22843
# Velocity P-wave (km/s) = 5.40604 6.89210 6.19380
#
# Compressibility (1/GPa) = 0.01606807
#
# Stress axis : x y z
#
# Youngs Moduli (GPa) = 70.75146 59.92450 86.79588
#
# Poissons Ratio (x) = 0.29310 0.16395
# Poissons Ratio (y) = 0.34605 0.55180
# Poissons Ratio (z) = 0.13364 0.38097
#
# Static dielectric constant tensor:
#      x y z
#    x 3.605440 0.000000 0.000000 
#    y 0.000000 3.820870 0.000000 
#    z 0.000000 0.000000 3.685770 
# 
# 
# High freq. dielectric constant tensor:
#      x y z
#    x 1.782480 0.000000 0.000000 
#    y 0.000000 1.781790 0.000000 
#    z 0.000000 0.000000 1.785520 
# 
# From -- ./inp_files/49185.got.cif
#   From: 2010.03.12/outbox.cif.g09.slc.cpg/sg66_25_cif.got.tgz:49185.got - 2010.04.10 21:57:39.
