data_PCOD8277652
_publ_section_title
;
Structure prediction by ZEFSAII (Michael W. Deem and Ramdas Pophale) SiO2 
 PCOD8277652
Probable space group: C C C M
;
_chemical_formula_sum "Si O2"
_cell_formula_units_Z 68
_cell_length_a 8.517300
_cell_length_b 17.179447
_cell_length_c 22.624541
_cell_angle_alpha 90.000000
_cell_angle_beta 90.000000
_cell_angle_gamma 90.000000
_cell_volume 3310.479489
_symmetry_space_group_name_H-M "C C C M"
_symmetry_group_IT_number 66
_symmetry_cell_setting 'orthorhombic'
loop_
_space_group_symop_operation_xyz
x,y,z
-x,-y,z
x,-y,1/2-z
-x,y,1/2-z
-x,-y,-z
x,y,-z
-x,y,1/2+z
x,-y,1/2+z
1/2+x,1/2+y,z
1/2-x,1/2-y,z
1/2+x,1/2-y,1/2-z
1/2-x,1/2+y,1/2-z
1/2-x,1/2-y,-z
1/2+x,1/2+y,-z
1/2-x,1/2+y,1/2+z
1/2+x,1/2-y,1/2+z
loop_
_atom_site_type_symbol
_atom_site_label
_atom_site_fract_x
_atom_site_fract_y
_atom_site_fract_z
Si Si1 0.683522 0.332829 0.244523
Si Si2 0.360872 0.901929 0.148472
Si Si3 0.000000 0.500000 0.750000
Si Si4 0.324285 0.518811 0.430532
Si Si5 0.304041 0.839671 0.365066
O O1 0.500000 0.337859 0.250000
O O2 0.750000 0.250000 0.261614
O O3 0.723634 0.348398 0.175699
O O4 0.759887 0.378676 0.300907
O O5 0.391699 0.949163 0.207982
O O6 0.507588 0.849918 0.126447
O O7 0.300552 0.958089 0.096996
O O8 0.500000 0.500000 0.408213
O O9 0.310779 0.507912 0.500000
O O10 0.282037 0.607262 0.413847
O O11 0.250000 0.750000 0.375176
#
# Coordination Sequence:
#
# PCOD8277652 Si02
#       5
#    16  16   4  16  16
#     4  11  21  35  59  94 130 163 200 252 321 379
#     4  12  21  39  65  90 127 163 209 259 314 378
#     4  12  20  36  60  96 120 156 200 262 304 392
#     4  11  25  44  64  89 122 167 220 265 307 367
#     4  11  22  39  62  93 126 161 207 260 316 376
#
# _framework density 20.540832000000002
#
# number of rings (size 3 to 8) (size 9 to 14) (size 15 to 20)
#    0.000    0.706    4.706    4.235    0.000    2.353 
#    0.000    2.353    0.000    3.529    0.000    0.000 
#    0.000    0.000    0.000    0.000    0.000    0.000 
#
# Total GULP energy -421229.378841 kJ/mol
# GULP energy per Si atom -12389.099378 kJ/mol
# Density = 2.049408 g / cm^3
# Si number density = 20.540832 Si / 1000 Ang^3
#
#
#
# Elastic Constant Matrix: (Units=GPa)
#
#
# Indices 1 2 3 4 5 6 
#
# 1 154.8380 66.0977 47.6481 0.0000 0.0000 0.0000
# 2 66.0977 97.6086 37.7815 0.0000 0.0000 0.0000
# 3 47.6481 37.7815 88.0053 0.0000 0.0000 0.0000
# 4 0.0000 0.0000 0.0000 -43.5851 0.0000 0.0000
# 5 0.0000 0.0000 0.0000 0.0000 29.5469 0.0000
# 6 0.0000 0.0000 0.0000 0.0000 0.0000 32.4697
#
#
#
# Elastic Compliance Matrix: (Units=1/GPa)
#
#
# Indices 1 2 3 4 5 6 
#
# 1 0.009667 -0.005421 -0.002907 0.000000 0.000000 0.000000
# 2 -0.005421 0.015327 -0.003645 0.000000 0.000000 0.000000
# 3 -0.002907 -0.003645 0.014501 0.000000 0.000000 0.000000
# 4 0.000000 0.000000 0.000000 -0.022944 0.000000 0.000000
# 5 0.000000 0.000000 0.000000 0.000000 0.033844 0.000000
# 6 0.000000 0.000000 0.000000 0.000000 0.000000 0.030798
#
#
# Mechanical properties :
#
#
# Convention : Reuss Voigt Hill
#
# Bulk Modulus (GPa) = 64.30814 71.50070 67.90442
# Shear Modulus (GPa) = 45.32163 16.28127 30.80145
#
# Velocity S-wave (km/s) = 4.70235 2.81842 3.87657
# Velocity P-wave (km/s) = 7.80117 6.74359 7.29158
#
# Compressibility (1/GPa) = 0.01555013
#
# Stress axis : x y z
#
# Youngs Moduli (GPa) = 103.44472 65.24495 68.95883
#
# Poissons Ratio (x) = 0.35370 0.20043
# Poissons Ratio (y) = 0.56079 0.25134
# Poissons Ratio (z) = 0.30067 0.23781
#
# Static dielectric constant tensor:
#      x y z
#    x 3.976470 0.000000 0.000000 
#    y 0.000000 4.045530 0.000000 
#    z 0.000000 0.000000 3.609650 
# 
# 
# High freq. dielectric constant tensor:
#      x y z
#    x 1.816940 0.000000 0.000000 
#    y 0.000000 1.800730 0.000000 
#    z 0.000000 0.000000 1.792110 
# 
# From -- ./inp_files/46748.got.cif
#   From: 2010.03.12/outbox.cif.g09.slc.cpg/sg66_24_cif.got.tgz:46748.got - 2010.04.10 21:57:39.
