data_PCOD8277592
_publ_section_title
;
Structure prediction by ZEFSAII (Michael W. Deem and Ramdas Pophale) SiO2 
 PCOD8277592
Probable space group: C C C M
;
_chemical_formula_sum "Si O2"
_cell_formula_units_Z 80
_cell_length_a 23.392119
_cell_length_b 24.100221
_cell_length_c 8.648976
_cell_angle_alpha 90.000000
_cell_angle_beta 90.000000
_cell_angle_gamma 90.000000
_cell_volume 4875.905520
_symmetry_space_group_name_H-M "C C C M"
_symmetry_group_IT_number 66
_symmetry_cell_setting 'orthorhombic'
loop_
_space_group_symop_operation_xyz
x,y,z
-x,-y,z
x,-y,1/2-z
-x,y,1/2-z
-x,-y,-z
x,y,-z
-x,y,1/2+z
x,-y,1/2+z
1/2+x,1/2+y,z
1/2-x,1/2-y,z
1/2+x,1/2-y,1/2-z
1/2-x,1/2+y,1/2-z
1/2-x,1/2-y,-z
1/2+x,1/2+y,-z
1/2-x,1/2+y,1/2+z
1/2+x,1/2-y,1/2+z
loop_
_atom_site_type_symbol
_atom_site_label
_atom_site_fract_x
_atom_site_fract_y
_atom_site_fract_z
Si Si1 0.273513 0.163927 0.320940
Si Si2 0.739789 0.443197 0.681187
Si Si3 0.384817 0.557963 0.183181
Si Si4 0.440377 0.335092 0.181486
Si Si5 0.340160 0.270251 0.320303
O O1 0.272715 0.147622 0.500000
O O2 0.281759 0.108008 0.220956
O O3 0.325768 0.205791 0.285969
O O4 0.214226 0.192903 0.273933
O O5 0.765934 0.500000 0.750000
O O6 0.731731 0.450018 0.500000
O O7 0.678861 0.430263 0.757631
O O8 0.408403 0.500000 0.250000
O O9 0.425865 0.606761 0.238071
O O10 0.384136 0.555220 0.000000
O O11 0.500000 0.313419 0.250000
O O12 0.393495 0.288097 0.216904
O O13 0.444946 0.344384 0.000000
O O14 0.355028 0.279238 0.500000
#
# Coordination Sequence:
#
# PCOD8277592 Si02
#       5
#    16  16  16  16  16
#     4   9  17  31  52  74  99 128 158 196 245 295
#     4  11  20  30  47  72 100 131 164 200 242 288
#     4  11  21  35  51  68  93 125 165 208 249 290
#     4  12  24  37  52  71  95 127 166 208 248 289
#     4   9  18  33  52  73  97 127 160 199 246 293
#
# _framework density 16.407209999999999
#
# number of rings (size 3 to 8) (size 9 to 14) (size 15 to 20)
#    0.000    1.600    2.000    7.800    0.000    1.200 
#    0.000    4.000    0.000    0.000    0.000    0.000 
#    0.000    0.800    0.000    8.400    0.000    3.600 
#
# Total GULP energy -496073.379288 kJ/mol
# GULP energy per Si atom -12401.834482 kJ/mol
# Density = 1.636987 g / cm^3
# Si number density = 16.407210 Si / 1000 Ang^3
#
#
#
# Elastic Constant Matrix: (Units=GPa)
#
#
# Indices 1 2 3 4 5 6 
#
# 1 61.7043 41.2701 34.5193 0.0000 0.0000 0.0000
# 2 41.2701 102.9375 48.6027 0.0000 0.0000 0.0000
# 3 34.5193 48.6027 132.3296 0.0000 0.0000 0.0000
# 4 0.0000 0.0000 0.0000 29.3117 0.0000 0.0000
# 5 0.0000 0.0000 0.0000 0.0000 18.9549 0.0000
# 6 0.0000 0.0000 0.0000 0.0000 0.0000 24.7929
#
#
#
# Elastic Compliance Matrix: (Units=1/GPa)
#
#
# Indices 1 2 3 4 5 6 
#
# 1 0.023206 -0.007798 -0.003189 0.000000 0.000000 0.000000
# 2 -0.007798 0.014373 -0.003245 0.000000 0.000000 0.000000
# 3 -0.003189 -0.003245 0.009581 0.000000 0.000000 0.000000
# 4 0.000000 0.000000 0.000000 0.034116 0.000000 0.000000
# 5 0.000000 0.000000 0.000000 0.000000 0.052757 0.000000
# 6 0.000000 0.000000 0.000000 0.000000 0.000000 0.040334
#
#
# Mechanical properties :
#
#
# Convention : Reuss Voigt Hill
#
# Bulk Modulus (GPa) = 53.48915 60.63952 57.06434
# Shear Modulus (GPa) = 23.91618 26.11718 25.01668
#
# Velocity S-wave (km/s) = 3.82208 3.99408 3.90902
# Velocity P-wave (km/s) = 7.22146 7.63607 7.43166
#
# Compressibility (1/GPa) = 0.01869538
#
# Stress axis : x y z
#
# Youngs Moduli (GPa) = 43.09195 69.57428 104.37684
#
# Poissons Ratio (x) = 0.54254 0.33290
# Poissons Ratio (y) = 0.33603 0.33869
# Poissons Ratio (z) = 0.13744 0.22576
#
# Static dielectric constant tensor:
#      x y z
#    x 2.848140 0.000000 0.000000 
#    y 0.000000 3.288230 0.000000 
#    z 0.000000 0.000000 3.126110 
# 
# 
# High freq. dielectric constant tensor:
#      x y z
#    x 1.583380 0.000000 0.000000 
#    y 0.000000 1.635280 0.000000 
#    z 0.000000 0.000000 1.643880 
# 
# From -- ./inp_files/6907.got.cif
#   From: 2010.03.12/outbox.cif.g09.slc.cpg/sg66_4_cif.got.tgz:6907.got - 2010.04.10 21:57:39.
