data_PCOD8277870
_publ_section_title
;
Structure prediction by ZEFSAII (Michael W. Deem and Ramdas Pophale) SiO2 
 PCOD8277870
Probable space group: C C C M
;
_chemical_formula_sum "Si O2"
_cell_formula_units_Z 104
_cell_length_a 8.656572
_cell_length_b 27.392565
_cell_length_c 22.161640
_cell_angle_alpha 90.000000
_cell_angle_beta 90.000000
_cell_angle_gamma 90.000000
_cell_volume 5255.094646
_symmetry_space_group_name_H-M "C C C M"
_symmetry_group_IT_number 66
_symmetry_cell_setting 'orthorhombic'
loop_
_space_group_symop_operation_xyz
x,y,z
-x,-y,z
x,-y,1/2-z
-x,y,1/2-z
-x,-y,-z
x,y,-z
-x,y,1/2+z
x,-y,1/2+z
1/2+x,1/2+y,z
1/2-x,1/2-y,z
1/2+x,1/2-y,1/2-z
1/2-x,1/2+y,1/2-z
1/2-x,1/2-y,-z
1/2+x,1/2+y,-z
1/2-x,1/2+y,1/2+z
1/2+x,1/2-y,1/2+z
loop_
_atom_site_type_symbol
_atom_site_label
_atom_site_fract_x
_atom_site_fract_y
_atom_site_fract_z
Si Si1 0.953386 0.820595 0.500000
Si Si2 0.250269 0.630250 0.500000
Si Si3 0.328200 0.095847 0.347970
Si Si4 0.967319 0.284680 0.500000
Si Si5 0.326964 0.557077 0.736215
Si Si6 0.165251 0.434338 0.887660
Si Si7 0.710645 0.196877 0.899776
Si Si8 0.163755 0.024254 0.569906
O O1 0.063163 0.772848 0.500000
O O2 0.852481 0.821078 0.559877
O O3 0.063410 0.868018 0.500000
O O4 0.195414 0.604927 0.560786
O O5 0.189947 0.685480 0.500000
O O6 0.294581 0.084532 0.278662
O O7 0.490655 0.071705 0.365737
O O8 0.324955 0.154786 0.351352
O O9 0.194702 0.072575 0.390664
O O10 0.060999 0.298798 0.559391
O O11 0.311093 0.500000 0.750000
O O12 0.500000 0.575377 0.750000
O O13 0.283313 0.571285 0.668115
O O14 0.195495 0.487132 0.917238
O O15 0.750000 0.250000 0.869852
O O16 0.162322 0.039415 0.500000
O O17 0.000000 0.000000 0.588932
#
# Coordination Sequence:
#
# PCOD8277870 Si02
#       8
#     8   8  16   8  16  16  16  16
#     4   9  21  33  64  88 129 168 214 252 312 371
#     4  12  23  36  62  98 139 156 205 263 321 376
#     4  12  24  39  69  85 128 170 208 260 318 366
#     4   9  17  41  56  92 127 167 204 265 309 373
#     4  11  25  45  66  87 122 168 223 261 302 374
#     4  12  25  40  60  97 128 165 204 257 313 383
#     4   9  20  38  62  94 125 166 215 251 309 379
#     4  11  25  38  57  91 132 167 208 254 312 381
#
# _framework density 19.790319
#
# number of rings (size 3 to 8) (size 9 to 14) (size 15 to 20)
#    0.000    1.231    3.846    3.000    7.538    1.231 
#    0.000    0.000    0.000    3.692    0.000    0.000 
#    0.000    0.000    0.000    0.000    0.000    0.000 
#
# Total GULP energy -644714.727477 kJ/mol
# GULP energy per Si atom -12398.360144 kJ/mol
# Density = 1.974527 g / cm^3
# Si number density = 19.790319 Si / 1000 Ang^3
#
#
#
# Elastic Constant Matrix: (Units=GPa)
#
#
# Indices 1 2 3 4 5 6 
#
# 1 94.5876 22.2011 29.5848 0.0000 0.0000 0.0000
# 2 22.2011 65.1359 5.7172 0.0000 0.0000 0.0000
# 3 29.5848 5.7172 90.6463 0.0000 0.0000 0.0000
# 4 0.0000 0.0000 0.0000 17.9721 0.0000 0.0000
# 5 0.0000 0.0000 0.0000 0.0000 19.1216 0.0000
# 6 0.0000 0.0000 0.0000 0.0000 0.0000 29.7888
#
#
#
# Elastic Compliance Matrix: (Units=1/GPa)
#
#
# Indices 1 2 3 4 5 6 
#
# 1 0.012731 -0.003997 -0.003903 0.000000 0.000000 0.000000
# 2 -0.003997 0.016693 0.000252 0.000000 0.000000 0.000000
# 3 -0.003903 0.000252 0.012290 0.000000 0.000000 0.000000
# 4 0.000000 0.000000 0.000000 0.055642 0.000000 0.000000
# 5 0.000000 0.000000 0.000000 0.000000 0.052297 0.000000
# 6 0.000000 0.000000 0.000000 0.000000 0.000000 0.033570
#
#
# Mechanical properties :
#
#
# Convention : Reuss Voigt Hill
#
# Bulk Modulus (GPa) = 37.85396 40.59735 39.22565
# Shear Modulus (GPa) = 24.11682 26.23427 25.17555
#
# Velocity S-wave (km/s) = 3.49466 3.64484 3.57054
# Velocity P-wave (km/s) = 5.95420 6.18639 6.07141
#
# Compressibility (1/GPa) = 0.02641732
#
# Stress axis : x y z
#
# Youngs Moduli (GPa) = 78.54791 59.90650 81.36771
#
# Poissons Ratio (x) = 0.23943 0.31758
# Poissons Ratio (y) = 0.31393 -0.02047
# Poissons Ratio (z) = 0.30658 -0.01507
#
# Static dielectric constant tensor:
#      x y z
#    x 3.661490 0.000000 0.000000 
#    y 0.000000 3.641960 0.000000 
#    z 0.000000 0.000000 3.460110 
# 
# 
# High freq. dielectric constant tensor:
#      x y z
#    x 1.782940 0.000000 0.000000 
#    y 0.000000 1.767070 0.000000 
#    z 0.000000 0.000000 1.754280 
# 
# From -- ./inp_files/47453.got.cif
#   From: 2010.03.12/outbox.cif.g09.slc.cpg/sg66_24_cif.got.tgz:47453.got - 2010.04.10 21:57:39.
