data_PCOD8277624
_publ_section_title
;
Structure prediction by ZEFSAII (Michael W. Deem and Ramdas Pophale) SiO2 
 PCOD8277624
Probable space group: C C C M
;
_chemical_formula_sum "Si O2"
_cell_formula_units_Z 96
_cell_length_a 18.833544
_cell_length_b 15.048445
_cell_length_c 16.031285
_cell_angle_alpha 90.000000
_cell_angle_beta 90.000000
_cell_angle_gamma 90.000000
_cell_volume 4543.515472
_symmetry_space_group_name_H-M "C C C M"
_symmetry_group_IT_number 66
_symmetry_cell_setting 'orthorhombic'
loop_
_space_group_symop_operation_xyz
x,y,z
-x,-y,z
x,-y,1/2-z
-x,y,1/2-z
-x,-y,-z
x,y,-z
-x,y,1/2+z
x,-y,1/2+z
1/2+x,1/2+y,z
1/2-x,1/2-y,z
1/2+x,1/2-y,1/2-z
1/2-x,1/2+y,1/2-z
1/2-x,1/2-y,-z
1/2+x,1/2+y,-z
1/2-x,1/2+y,1/2+z
1/2+x,1/2-y,1/2+z
loop_
_atom_site_type_symbol
_atom_site_label
_atom_site_fract_x
_atom_site_fract_y
_atom_site_fract_z
Si Si1 0.600550 0.757442 0.683590
Si Si2 0.664776 0.939805 0.667624
Si Si3 0.420697 0.520904 0.651795
Si Si4 0.973906 0.349792 0.500000
Si Si5 0.900748 0.531719 0.500000
Si Si6 0.941791 0.219281 0.355309
Si Si7 0.691492 0.384142 0.095978
O O1 0.605638 0.862268 0.668676
O O2 0.524746 0.711302 0.668156
O O3 0.611801 0.748814 0.782482
O O4 0.658757 0.708364 0.627495
O O5 0.647636 0.988437 0.581001
O O6 0.744641 0.903660 0.659945
O O7 0.656868 0.000000 0.750000
O O8 0.500000 0.500000 0.624293
O O9 0.408851 0.500000 0.750000
O O10 0.410569 0.622682 0.621987
O O11 0.365752 0.462803 0.599320
O O12 0.954686 0.451496 0.500000
O O13 0.940808 0.295388 0.424100
O O14 0.060405 0.368294 0.500000
O O15 0.716987 0.372516 0.000000
#
# Coordination Sequence:
#
# PCOD8277624 Si02
#       7
#    16  16  16   8   8  16  16
#     4  11  23  42  65 100 133 179 222 282 351 416
#     4  12  26  46  69  95 139 186 237 290 351 418
#     4  11  20  40  64  94 136 180 218 280 341 419
#     4  11  24  42  71 101 134 175 224 303 360 413
#     4  11  24  48  67 100 138 176 242 295 353 429
#     4  11  22  40  67 100 138 171 223 283 352 417
#     4  12  26  41  67  98 138 182 234 286 348 419
#
# _framework density 21.129014000000002
#
# number of rings (size 3 to 8) (size 9 to 14) (size 15 to 20)
#    0.000    0.667    5.833    3.000    3.500    1.000 
#    0.000    0.000    0.000    1.000    0.000    0.000 
#    0.000    0.000    0.000    0.000    0.000    0.000 
#
# Total GULP energy -594684.098029 kJ/mol
# GULP energy per Si atom -12389.252042 kJ/mol
# Density = 2.108092 g / cm^3
# Si number density = 21.129014 Si / 1000 Ang^3
#
#
#
# Elastic Constant Matrix: (Units=GPa)
#
#
# Indices 1 2 3 4 5 6 
#
# 1 43.9241 14.1486 17.5829 0.0000 0.0000 0.0000
# 2 14.1486 124.4543 47.6670 0.0000 0.0000 0.0000
# 3 17.5829 47.6670 134.7131 0.0000 0.0000 0.0000
# 4 0.0000 0.0000 0.0000 61.7351 0.0000 0.0000
# 5 0.0000 0.0000 0.0000 0.0000 31.4041 0.0000
# 6 0.0000 0.0000 0.0000 0.0000 0.0000 22.9426
#
#
#
# Elastic Compliance Matrix: (Units=1/GPa)
#
#
# Indices 1 2 3 4 5 6 
#
# 1 0.024363 -0.001795 -0.002545 0.000000 0.000000 0.000000
# 2 -0.001795 0.009427 -0.003101 0.000000 0.000000 0.000000
# 3 -0.002545 -0.003101 0.008853 0.000000 0.000000 0.000000
# 4 0.000000 0.000000 0.000000 0.016198 0.000000 0.000000
# 5 0.000000 0.000000 0.000000 0.000000 0.031843 0.000000
# 6 0.000000 0.000000 0.000000 0.000000 0.000000 0.043587
#
#
# Mechanical properties :
#
#
# Convention : Reuss Voigt Hill
#
# Bulk Modulus (GPa) = 36.02209 51.32092 43.67150
# Shear Modulus (GPa) = 31.56417 38.12923 34.84670
#
# Velocity S-wave (km/s) = 3.86927 4.25266 4.06548
# Velocity P-wave (km/s) = 6.08665 6.96100 6.53845
#
# Compressibility (1/GPa) = 0.02776074
#
# Stress axis : x y z
#
# Youngs Moduli (GPa) = 41.04508 106.07831 112.95968
#
# Poissons Ratio (x) = 0.19042 0.28746
# Poissons Ratio (y) = 0.07368 0.35033
# Poissons Ratio (z) = 0.10445 0.32899
#
# Static dielectric constant tensor:
#      x y z
#    x 3.666860 0.000000 0.000000 
#    y 0.000000 3.787720 0.000000 
#    z 0.000000 0.000000 4.070630 
# 
# 
# High freq. dielectric constant tensor:
#      x y z
#    x 1.810710 0.000000 0.000000 
#    y 0.000000 1.835150 0.000000 
#    z 0.000000 0.000000 1.832550 
# 
# From -- ./inp_files/31227.got.cif
#   From: 2010.03.12/outbox.cif.g09.slc.cpg/sg66_16_cif.got.tgz:31227.got - 2010.04.10 21:57:39.
