data_PCOD8277794
_publ_section_title
;
Structure prediction by ZEFSAII (Michael W. Deem and Ramdas Pophale) SiO2 
 PCOD8277794
Probable space group: C C C M
;
_chemical_formula_sum "Si O2"
_cell_formula_units_Z 64
_cell_length_a 11.562648
_cell_length_b 16.655518
_cell_length_c 15.951858
_cell_angle_alpha 90.000000
_cell_angle_beta 90.000000
_cell_angle_gamma 90.000000
_cell_volume 3072.038993
_symmetry_space_group_name_H-M "C C C M"
_symmetry_group_IT_number 66
_symmetry_cell_setting 'orthorhombic'
loop_
_space_group_symop_operation_xyz
x,y,z
-x,-y,z
x,-y,1/2-z
-x,y,1/2-z
-x,-y,-z
x,y,-z
-x,y,1/2+z
x,-y,1/2+z
1/2+x,1/2+y,z
1/2-x,1/2-y,z
1/2+x,1/2-y,1/2-z
1/2-x,1/2+y,1/2-z
1/2-x,1/2-y,-z
1/2+x,1/2+y,-z
1/2-x,1/2+y,1/2+z
1/2+x,1/2-y,1/2+z
loop_
_atom_site_type_symbol
_atom_site_label
_atom_site_fract_x
_atom_site_fract_y
_atom_site_fract_z
Si Si1 0.841267 0.310289 0.594357
Si Si2 0.748045 0.863346 0.597851
Si Si3 0.437297 0.743218 0.840057
Si Si4 0.627709 0.984870 0.152835
O O1 0.802978 0.329008 0.500000
O O2 0.750000 0.250000 0.638055
O O3 0.836358 0.393148 0.643679
O O4 0.965299 0.267428 0.593380
O O5 0.738913 0.839030 0.500000
O O6 0.657157 0.814276 0.655067
O O7 0.876276 0.840717 0.632835
O O8 0.722048 0.957816 0.608259
O O9 0.500000 0.738069 0.750000
O O10 0.500000 0.000000 0.113274
O O11 0.624985 0.000000 0.250000
#
# Coordination Sequence:
#
# PCOD8277794 Si02
#       4
#    16  16  16  16
#     4  11  24  41  65  95 130 168 214 270 331 391
#     4  11  23  41  68  99 134 175 227 279 333 399
#     4  11  23  38  65  96 133 172 216 269 332 396
#     4  11  23  40  65  99 128 167 221 275 332 386
#
# _framework density 20.833068999999998
#
# number of rings (size 3 to 8) (size 9 to 14) (size 15 to 20)
#    0.000    1.000    2.500    5.250    7.000    1.000 
#    0.000    1.250    0.000    4.500    0.000    0.000 
#    0.000    0.000    0.000    0.000    0.000    0.000 
#
# Total GULP energy -396756.955848 kJ/mol
# GULP energy per Si atom -12398.654870 kJ/mol
# Density = 2.078565 g / cm^3
# Si number density = 20.833069 Si / 1000 Ang^3
#
#
#
# Elastic Constant Matrix: (Units=GPa)
#
#
# Indices 1 2 3 4 5 6 
#
# 1 117.6073 94.3376 38.7488 0.0000 0.0000 0.0000
# 2 94.3376 172.6187 44.1502 0.0000 0.0000 0.0000
# 3 38.7488 44.1502 106.1326 0.0000 0.0000 0.0000
# 4 0.0000 0.0000 0.0000 27.1589 0.0000 0.0000
# 5 0.0000 0.0000 0.0000 0.0000 33.9710 0.0000
# 6 0.0000 0.0000 0.0000 0.0000 0.0000 42.7480
#
#
#
# Elastic Compliance Matrix: (Units=1/GPa)
#
#
# Indices 1 2 3 4 5 6 
#
# 1 0.015675 -0.007948 -0.002416 0.000000 0.000000 0.000000
# 2 -0.007948 0.010513 -0.001472 0.000000 0.000000 0.000000
# 3 -0.002416 -0.001472 0.010917 0.000000 0.000000 0.000000
# 4 0.000000 0.000000 0.000000 0.036820 0.000000 0.000000
# 5 0.000000 0.000000 0.000000 0.000000 0.029437 0.000000
# 6 0.000000 0.000000 0.000000 0.000000 0.000000 0.023393
#
#
# Mechanical properties :
#
#
# Convention : Reuss Voigt Hill
#
# Bulk Modulus (GPa) = 74.44857 83.42576 78.93717
# Shear Modulus (GPa) = 32.27796 35.38370 33.83083
#
# Velocity S-wave (km/s) = 3.94046 4.12568 4.03414
# Velocity P-wave (km/s) = 7.51774 7.92634 7.72474
#
# Compressibility (1/GPa) = 0.01343209
#
# Stress axis : x y z
#
# Youngs Moduli (GPa) = 63.79720 95.11757 91.60421
#
# Poissons Ratio (x) = 0.75602 0.22135
# Poissons Ratio (y) = 0.50708 0.13480
# Poissons Ratio (z) = 0.15416 0.13997
#
# Static dielectric constant tensor:
#      x y z
#    x 4.059200 0.000000 0.000000 
#    y 0.000000 3.902460 0.000000 
#    z 0.000000 0.000000 3.695260 
# 
# 
# High freq. dielectric constant tensor:
#      x y z
#    x 1.807440 0.000000 0.000000 
#    y 0.000000 1.809590 0.000000 
#    z 0.000000 0.000000 1.824130 
# 
# From -- ./inp_files/25736.got.cif
#   From: 2010.03.12/outbox.cif.g09.slc.cpg/sg66_13_cif.got.tgz:25736.got - 2010.04.10 21:57:39.
