data_PCOD8277681
_publ_section_title
;
Structure prediction by ZEFSAII (Michael W. Deem and Ramdas Pophale) SiO2 
 PCOD8277681
Probable space group: C C C M
;
_chemical_formula_sum "Si O2"
_cell_formula_units_Z 72
_cell_length_a 13.156321
_cell_length_b 14.818180
_cell_length_c 18.026489
_cell_angle_alpha 90.000000
_cell_angle_beta 90.000000
_cell_angle_gamma 90.000000
_cell_volume 3514.313292
_symmetry_space_group_name_H-M "C C C M"
_symmetry_group_IT_number 66
_symmetry_cell_setting 'orthorhombic'
loop_
_space_group_symop_operation_xyz
x,y,z
-x,-y,z
x,-y,1/2-z
-x,y,1/2-z
-x,-y,-z
x,y,-z
-x,y,1/2+z
x,-y,1/2+z
1/2+x,1/2+y,z
1/2-x,1/2-y,z
1/2+x,1/2-y,1/2-z
1/2-x,1/2+y,1/2-z
1/2-x,1/2-y,-z
1/2+x,1/2+y,-z
1/2-x,1/2+y,1/2+z
1/2+x,1/2-y,1/2+z
loop_
_atom_site_type_symbol
_atom_site_label
_atom_site_fract_x
_atom_site_fract_y
_atom_site_fract_z
Si Si1 0.881328 0.503489 0.000000
Si Si2 0.430023 0.416931 0.879042
Si Si3 0.598218 0.284784 0.914154
Si Si4 0.708141 0.886840 0.626413
Si Si5 0.693438 0.500000 0.750000
Si Si6 0.226207 0.855037 0.500000
O O1 0.843374 0.459681 0.924788
O O2 0.000000 0.500000 0.000000
O O3 0.839712 0.605013 0.000000
O O4 0.500000 0.500000 0.909339
O O5 0.499846 0.327583 0.874909
O O6 0.382445 0.440876 0.799950
O O7 0.335171 0.392694 0.930123
O O8 0.631239 0.197809 0.865781
O O9 0.688363 0.357344 0.913796
O O10 0.575431 0.258146 0.000000
O O11 0.733846 0.931188 0.705628
O O12 0.250000 0.750000 0.500000
#
# Coordination Sequence:
#
# PCOD8277681 Si02
#       6
#     8  16  16  16   8   8
#     4  12  24  44  73  92 133 192 236 283 343 432
#     4  12  24  43  75 105 140 182 236 290 361 423
#     4  11  21  39  77 106 126 173 239 300 337 410
#     4  11  23  43  68 100 139 180 236 283 349 423
#     4  12  25  44  67 104 146 194 219 288 369 436
#     4  12  27  45  67 111 142 174 234 321 348 392
#
# _framework density 20.487644
#
# number of rings (size 3 to 8) (size 9 to 14) (size 15 to 20)
#    0.000    0.444    7.778    1.333    3.111    0.000 
#    4.000    0.556    9.778    0.000    0.000    0.000 
#    0.000    0.000    0.000    0.000    0.000    0.000 
#
# Total GULP energy -446342.952043 kJ/mol
# GULP energy per Si atom -12398.415335 kJ/mol
# Density = 2.044101 g / cm^3
# Si number density = 20.487644 Si / 1000 Ang^3
#
#
#
# Elastic Constant Matrix: (Units=GPa)
#
#
# Indices 1 2 3 4 5 6 
#
# 1 142.8572 92.1595 64.5879 0.0000 0.0000 0.0000
# 2 92.1595 139.1458 72.9472 0.0000 0.0000 0.0000
# 3 64.5879 72.9472 135.5132 0.0000 0.0000 0.0000
# 4 0.0000 0.0000 0.0000 33.4023 0.0000 0.0000
# 5 0.0000 0.0000 0.0000 0.0000 19.1843 0.0000
# 6 0.0000 0.0000 0.0000 0.0000 0.0000 52.7618
#
#
#
# Elastic Compliance Matrix: (Units=1/GPa)
#
#
# Indices 1 2 3 4 5 6 
#
# 1 0.012643 -0.007265 -0.002115 0.000000 0.000000 0.000000
# 2 -0.007265 0.014187 -0.004174 0.000000 0.000000 0.000000
# 3 -0.002115 -0.004174 0.010634 0.000000 0.000000 0.000000
# 4 0.000000 0.000000 0.000000 0.029938 0.000000 0.000000
# 5 0.000000 0.000000 0.000000 0.000000 0.052126 0.000000
# 6 0.000000 0.000000 0.000000 0.000000 0.000000 0.018953
#
#
# Mechanical properties :
#
#
# Convention : Reuss Voigt Hill
#
# Bulk Modulus (GPa) = 96.56505 97.43393 96.99949
# Shear Modulus (GPa) = 29.57850 33.59111 31.58480
#
# Velocity S-wave (km/s) = 3.80376 4.05356 3.93065
# Velocity P-wave (km/s) = 8.15641 8.34081 8.24913
#
# Compressibility (1/GPa) = 0.01035571
#
# Stress axis : x y z
#
# Youngs Moduli (GPa) = 79.09525 70.48847 94.03391
#
# Poissons Ratio (x) = 0.51209 0.19890
# Poissons Ratio (y) = 0.57462 0.39252
# Poissons Ratio (z) = 0.16730 0.29423
#
# Static dielectric constant tensor:
#      x y z
#    x 3.988230 0.000000 0.000000 
#    y 0.000000 3.948480 0.000000 
#    z 0.000000 0.000000 3.642480 
# 
# 
# High freq. dielectric constant tensor:
#      x y z
#    x 1.806940 0.000000 0.000000 
#    y 0.000000 1.808200 0.000000 
#    z 0.000000 0.000000 1.784950 
# 
# From -- ./inp_files/40083.got.cif
#   From: 2010.03.12/outbox.cif.g09.slc.cpg/sg66_21_cif.got.tgz:40083.got - 2010.04.10 21:57:39.
