data_PCOD8277844
_publ_section_title
;
Structure prediction by ZEFSAII (Michael W. Deem and Ramdas Pophale) SiO2 
 PCOD8277844
Probable space group: C C C M
;
_chemical_formula_sum "Si O2"
_cell_formula_units_Z 72
_cell_length_a 8.688710
_cell_length_b 24.737153
_cell_length_c 15.666748
_cell_angle_alpha 90.000000
_cell_angle_beta 90.000000
_cell_angle_gamma 90.000000
_cell_volume 3367.316010
_symmetry_space_group_name_H-M "C C C M"
_symmetry_group_IT_number 66
_symmetry_cell_setting 'orthorhombic'
loop_
_space_group_symop_operation_xyz
x,y,z
-x,-y,z
x,-y,1/2-z
-x,y,1/2-z
-x,-y,-z
x,y,-z
-x,y,1/2+z
x,-y,1/2+z
1/2+x,1/2+y,z
1/2-x,1/2-y,z
1/2+x,1/2-y,1/2-z
1/2-x,1/2+y,1/2-z
1/2-x,1/2-y,-z
1/2+x,1/2+y,-z
1/2-x,1/2+y,1/2+z
1/2+x,1/2-y,1/2+z
loop_
_atom_site_type_symbol
_atom_site_label
_atom_site_fract_x
_atom_site_fract_y
_atom_site_fract_z
Si Si1 0.934328 0.440063 0.337115
Si Si2 0.931039 0.060145 0.000000
Si Si3 0.593549 0.596096 0.167361
Si Si4 0.078953 0.733117 0.000000
Si Si5 0.089047 0.222406 0.165990
Si Si6 0.910143 0.605362 0.500000
O O1 0.749048 0.439244 0.336693
O O2 0.000000 0.500000 0.345188
O O3 0.000000 0.413428 0.250000
O O4 0.990995 0.406709 0.416983
O O5 0.990542 0.088601 0.915612
O O6 0.746162 0.069311 0.000000
O O7 0.000000 0.000000 0.000000
O O8 0.500000 0.575940 0.250000
O O9 0.627251 0.659241 0.171041
O O10 0.250000 0.750000 0.000000
O O11 0.099454 0.669172 0.000000
O O12 0.999812 0.758399 0.082586
O O13 0.250000 0.250000 0.164837
O O14 0.000000 0.241599 0.250000
#
# Coordination Sequence:
#
# PCOD8277844 Si02
#       6
#    16   8  16   8  16   8
#     4  11  24  43  66  95 128 166 213 266 321 384
#     4  12  25  42  65  94 129 172 219 269 323 384
#     4  11  24  43  67  95 129 169 215 266 322 384
#     4  12  25  41  64  94 130 169 217 267 319 383
#     4  11  24  42  66  95 129 169 214 266 323 385
#     4  12  24  41  67  94 129 173 213 266 325 381
#
# _framework density 21.382013000000001
#
# number of rings (size 3 to 8) (size 9 to 14) (size 15 to 20)
#    0.000    0.667    0.000    8.000    0.000    9.333 
#    0.000    0.000    0.000    0.000    0.000    0.000 
#    0.000    0.000    0.000    0.000    0.000    0.000 
#
# Total GULP energy -446383.602964 kJ/mol
# GULP energy per Si atom -12399.544527 kJ/mol
# Density = 2.133335 g / cm^3
# Si number density = 21.382013 Si / 1000 Ang^3
#
#
#
# Elastic Constant Matrix: (Units=GPa)
#
#
# Indices 1 2 3 4 5 6 
#
# 1 185.8060 47.9216 74.9659 0.0000 0.0000 0.0000
# 2 47.9216 84.3701 32.8769 0.0000 0.0000 0.0000
# 3 74.9659 32.8769 201.9501 0.0000 0.0000 0.0000
# 4 0.0000 0.0000 0.0000 29.2435 0.0000 0.0000
# 5 0.0000 0.0000 0.0000 0.0000 49.4936 0.0000
# 6 0.0000 0.0000 0.0000 0.0000 0.0000 40.6126
#
#
#
# Elastic Compliance Matrix: (Units=1/GPa)
#
#
# Indices 1 2 3 4 5 6 
#
# 1 0.007051 -0.003187 -0.002098 0.000000 0.000000 0.000000
# 2 -0.003187 0.014096 -0.001112 0.000000 0.000000 0.000000
# 3 -0.002098 -0.001112 0.005912 0.000000 0.000000 0.000000
# 4 0.000000 0.000000 0.000000 0.034196 0.000000 0.000000
# 5 0.000000 0.000000 0.000000 0.000000 0.020205 0.000000
# 6 0.000000 0.000000 0.000000 0.000000 0.000000 0.024623
#
#
# Mechanical properties :
#
#
# Convention : Reuss Voigt Hill
#
# Bulk Modulus (GPa) = 70.10702 87.07278 78.58990
# Shear Modulus (GPa) = 40.44322 44.96074 42.70198
#
# Velocity S-wave (km/s) = 4.35381 4.59054 4.47374
# Velocity P-wave (km/s) = 7.62452 8.30110 7.96999
#
# Compressibility (1/GPa) = 0.01426391
#
# Stress axis : x y z
#
# Youngs Moduli (GPa) = 141.83307 70.94253 169.15735
#
# Poissons Ratio (x) = 0.22609 0.35496
# Poissons Ratio (y) = 0.45202 0.18806
# Poissons Ratio (z) = 0.29762 0.07887
#
# Static dielectric constant tensor:
#      x y z
#    x 4.110480 0.000000 0.000000 
#    y 0.000000 3.581190 0.000000 
#    z 0.000000 0.000000 4.353850 
# 
# 
# High freq. dielectric constant tensor:
#      x y z
#    x 1.856700 0.000000 0.000000 
#    y 0.000000 1.847820 0.000000 
#    z 0.000000 0.000000 1.868250 
# 
# From -- ./inp_files/24532.got.cif
#   From: 2010.03.12/outbox.cif.g09.slc.cpg/sg66_13_cif.got.tgz:24532.got - 2010.04.10 21:57:39.
