data_PCOD8277043
_publ_section_title
;
Structure prediction by ZEFSAII (Michael W. Deem and Ramdas Pophale) SiO2 
 PCOD8277043
Probable space group: C C C M
;
_chemical_formula_sum "Si O2"
_cell_formula_units_Z 116
_cell_length_a 26.528235
_cell_length_b 26.040601
_cell_length_c 8.964382
_cell_angle_alpha 90.000000
_cell_angle_beta 90.000000
_cell_angle_gamma 90.000000
_cell_volume 6192.695333
_symmetry_space_group_name_H-M "C C C M"
_symmetry_group_IT_number 66
_symmetry_cell_setting 'orthorhombic'
loop_
_space_group_symop_operation_xyz
x,y,z
-x,-y,z
x,-y,1/2-z
-x,y,1/2-z
-x,-y,-z
x,y,-z
-x,y,1/2+z
x,-y,1/2+z
1/2+x,1/2+y,z
1/2-x,1/2-y,z
1/2+x,1/2-y,1/2-z
1/2-x,1/2+y,1/2-z
1/2-x,1/2-y,-z
1/2+x,1/2+y,-z
1/2-x,1/2+y,1/2+z
1/2+x,1/2-y,1/2+z
loop_
_atom_site_type_symbol
_atom_site_label
_atom_site_fract_x
_atom_site_fract_y
_atom_site_fract_z
Si Si1 0.449043 0.794279 0.321836
Si Si2 0.423296 0.319243 0.167491
Si Si3 0.000000 0.000000 0.250000
Si Si4 0.151816 0.678905 0.823838
Si Si5 0.242612 0.365348 0.172455
Si Si6 0.923181 0.082030 0.164085
Si Si7 0.186236 0.052595 0.322239
Si Si8 0.182203 0.777783 0.666459
O O1 0.500000 0.816773 0.250000
O O2 0.448739 0.800071 0.500000
O O3 0.444133 0.734818 0.270137
O O4 0.402894 0.826303 0.252346
O O5 0.445662 0.368478 0.251798
O O6 0.362595 0.319530 0.181856
O O7 0.441999 0.325960 0.000000
O O8 0.964080 0.036514 0.152656
O O9 0.187644 0.635871 0.748945
O O10 0.175758 0.734750 0.791856
O O11 0.147766 0.669908 0.000000
O O12 0.277189 0.403112 0.266095
O O13 0.265215 0.307519 0.184357
O O14 0.239006 0.382787 0.000000
O O15 0.870833 0.062593 0.236918
O O16 0.910335 0.101509 0.000000
O O17 0.188743 0.048585 0.500000
O O18 0.205656 0.000000 0.250000
O O19 0.178282 0.752395 0.500000
#
# Coordination Sequence:
#
# PCOD8277043 Si02
#       8
#    16  16   4  16  16  16  16  16
#     4  10  21  38  56  79 109 147 184 223 270 323
#     4   9  19  35  54  75 101 134 176 222 275 332
#     4  12  26  44  52  74  98 140 180 246 300 340
#     4  11  22  34  52  81 114 146 182 225 266 326
#     4  11  21  36  57  80 108 144 179 224 281 336
#     4  11  24  39  56  74  97 131 179 234 289 341
#     4  11  23  40  59  81 105 138 182 231 285 345
#     4   9  18  33  52  76 106 143 178 218 274 335
#
# _framework density 18.731746999999999
#
# number of rings (size 3 to 8) (size 9 to 14) (size 15 to 20)
#    0.000    1.655    2.069    3.931    0.966    7.172 
#    0.000    0.000    0.000    0.000    0.000    0.000 
#    0.000    0.552    0.000    5.517    0.000    3.310 
#
# Total GULP energy -719153.961656 kJ/mol
# GULP energy per Si atom -12399.206235 kJ/mol
# Density = 1.868911 g / cm^3
# Si number density = 18.731747 Si / 1000 Ang^3
#
#
#
# Elastic Constant Matrix: (Units=GPa)
#
#
# Indices 1 2 3 4 5 6 
#
# 1 133.2879 29.7583 45.5893 0.0000 0.0000 0.0000
# 2 29.7583 41.7995 22.5452 0.0000 0.0000 0.0000
# 3 45.5893 22.5452 99.9577 0.0000 0.0000 0.0000
# 4 0.0000 0.0000 0.0000 24.9389 0.0000 0.0000
# 5 0.0000 0.0000 0.0000 0.0000 21.2848 0.0000
# 6 0.0000 0.0000 0.0000 0.0000 0.0000 23.5925
#
#
#
# Elastic Compliance Matrix: (Units=1/GPa)
#
#
# Indices 1 2 3 4 5 6 
#
# 1 0.009788 -0.005192 -0.003293 0.000000 0.000000 0.000000
# 2 -0.005192 0.029992 -0.004396 0.000000 0.000000 0.000000
# 3 -0.003293 -0.004396 0.012498 0.000000 0.000000 0.000000
# 4 0.000000 0.000000 0.000000 0.040098 0.000000 0.000000
# 5 0.000000 0.000000 0.000000 0.000000 0.046982 0.000000
# 6 0.000000 0.000000 0.000000 0.000000 0.000000 0.042386
#
#
# Mechanical properties :
#
#
# Convention : Reuss Voigt Hill
#
# Bulk Modulus (GPa) = 37.71611 52.31453 45.01532
# Shear Modulus (GPa) = 23.11120 25.77338 24.44229
#
# Velocity S-wave (km/s) = 3.51636 3.71336 3.61620
# Velocity P-wave (km/s) = 6.05516 6.80987 6.44357
#
# Compressibility (1/GPa) = 0.02651387
#
# Stress axis : x y z
#
# Youngs Moduli (GPa) = 102.16407 33.34277 80.01425
#
# Poissons Ratio (x) = 0.17313 0.26350
# Poissons Ratio (y) = 0.53046 0.35177
# Poissons Ratio (z) = 0.33644 0.14659
#
# Static dielectric constant tensor:
#      x y z
#    x 3.548190 0.000000 0.000000 
#    y 0.000000 3.071150 0.000000 
#    z 0.000000 0.000000 3.354030 
# 
# 
# High freq. dielectric constant tensor:
#      x y z
#    x 1.732360 0.000000 0.000000 
#    y 0.000000 1.680820 0.000000 
#    z 0.000000 0.000000 1.730540 
# 
# From -- ./inp_files/10587.got.cif
#   From: 2010.03.12/outbox.cif.g09.slc.cpg/sg66_6_cif.got.tgz:10587.got - 2010.04.10 21:57:39.
