data_PCOD8277415
_publ_section_title
;
Structure prediction by ZEFSAII (Michael W. Deem and Ramdas Pophale) SiO2 
 PCOD8277415
Probable space group: C C C M
;
_chemical_formula_sum "Si O2"
_cell_formula_units_Z 40
_cell_length_a 14.933098
_cell_length_b 4.765385
_cell_length_c 23.225045
_cell_angle_alpha 90.000000
_cell_angle_beta 90.000000
_cell_angle_gamma 90.000000
_cell_volume 1652.739751
_symmetry_space_group_name_H-M "C C C M"
_symmetry_group_IT_number 66
_symmetry_cell_setting 'orthorhombic'
loop_
_space_group_symop_operation_xyz
x,y,z
-x,-y,z
x,-y,1/2-z
-x,y,1/2-z
-x,-y,-z
x,y,-z
-x,y,1/2+z
x,-y,1/2+z
1/2+x,1/2+y,z
1/2-x,1/2-y,z
1/2+x,1/2-y,1/2-z
1/2-x,1/2+y,1/2-z
1/2-x,1/2-y,-z
1/2+x,1/2+y,-z
1/2-x,1/2+y,1/2+z
1/2+x,1/2-y,1/2+z
loop_
_atom_site_type_symbol
_atom_site_label
_atom_site_fract_x
_atom_site_fract_y
_atom_site_fract_z
Si Si1 0.312833 0.990615 0.436581
Si Si2 0.189344 0.000000 0.250000
Si Si3 0.940411 0.741268 0.655823
O O1 0.348468 0.893623 0.500000
O O2 0.250000 0.250000 0.445013
O O3 0.395760 0.073658 0.396725
O O4 0.250000 0.750000 0.408281
O O5 0.250000 0.750000 0.276231
O O6 0.130862 0.866577 0.199706
O O7 0.000000 0.500000 0.687288
O O8 0.000000 0.000000 0.632389
#
# Coordination Sequence:
#
# PCOD8277415 Si02
#       3
#    16   8  16
#     4  10  22  43  70 100 136 180 229 275 331 410
#     4  12  27  48  71  94 134 188 238 278 333 412
#     4  12  26  44  68 102 140 174 223 288 349 400
#
# _framework density 24.202237
#
# number of rings (size 3 to 8) (size 9 to 14) (size 15 to 20)
#    0.000    0.800    0.000    6.600    0.000    6.400 
#    0.000    0.000    0.000    0.000    0.000    0.000 
#    0.000    0.000    0.000    0.000    0.000    0.000 
#
# Total GULP energy -247944.850505 kJ/mol
# GULP energy per Si atom -12397.242525 kJ/mol
# Density = 2.414715 g / cm^3
# Si number density = 24.202237 Si / 1000 Ang^3
#
#
#
# Elastic Constant Matrix: (Units=GPa)
#
#
# Indices 1 2 3 4 5 6 
#
# 1 153.0781 93.7491 76.7779 0.0000 0.0000 0.0000
# 2 93.7491 202.6043 54.7969 0.0000 0.0000 0.0000
# 3 76.7779 54.7969 119.4102 0.0000 0.0000 0.0000
# 4 0.0000 0.0000 0.0000 30.4854 0.0000 0.0000
# 5 0.0000 0.0000 0.0000 0.0000 27.0361 0.0000
# 6 0.0000 0.0000 0.0000 0.0000 0.0000 82.6403
#
#
#
# Elastic Compliance Matrix: (Units=1/GPa)
#
#
# Indices 1 2 3 4 5 6 
#
# 1 0.011846 -0.003906 -0.005824 0.000000 0.000000 0.000000
# 2 -0.003906 0.006923 -0.000665 0.000000 0.000000 0.000000
# 3 -0.005824 -0.000665 0.012425 0.000000 0.000000 0.000000
# 4 0.000000 0.000000 0.000000 0.032803 0.000000 0.000000
# 5 0.000000 0.000000 0.000000 0.000000 0.036988 0.000000
# 6 0.000000 0.000000 0.000000 0.000000 0.000000 0.012101
#
#
# Mechanical properties :
#
#
# Convention : Reuss Voigt Hill
#
# Bulk Modulus (GPa) = 96.13284 102.86007 99.49646
# Shear Modulus (GPa) = 36.40498 44.68359 40.54429
#
# Velocity S-wave (km/s) = 3.88261 4.30147 4.09740
# Velocity P-wave (km/s) = 7.73992 8.20139 7.97399
#
# Compressibility (1/GPa) = 0.01040227
#
# Stress axis : x y z
#
# Youngs Moduli (GPa) = 84.41632 144.44240 80.48500
#
# Poissons Ratio (x) = 0.56422 0.46876
# Poissons Ratio (y) = 0.32975 0.05356
# Poissons Ratio (z) = 0.49166 0.09612
#
# Static dielectric constant tensor:
#      x y z
#    x 4.590710 0.000000 0.000000 
#    y 0.000000 5.080590 0.000000 
#    z 0.000000 0.000000 4.371410 
# 
# 
# High freq. dielectric constant tensor:
#      x y z
#    x 1.965120 0.000000 0.000000 
#    y 0.000000 1.994940 0.000000 
#    z 0.000000 0.000000 1.947570 
# 
# From -- ./inp_files/60690.got.cif
#   From: 2010.03.12/outbox.cif.g09.slc.cpg/sg66_31_cif.got.tgz:60690.got - 2010.04.10 21:57:39.
