data_PCOD8277263
_publ_section_title
;
Structure prediction by ZEFSAII (Michael W. Deem and Ramdas Pophale) SiO2 
 PCOD8277263
Probable space group: C C C M
;
_chemical_formula_sum "Si O2"
_cell_formula_units_Z 128
_cell_length_a 24.248613
_cell_length_b 11.715096
_cell_length_c 22.952009
_cell_angle_alpha 90.000000
_cell_angle_beta 90.000000
_cell_angle_gamma 90.000000
_cell_volume 6520.088036
_symmetry_space_group_name_H-M "C C C M"
_symmetry_group_IT_number 66
_symmetry_cell_setting 'orthorhombic'
loop_
_space_group_symop_operation_xyz
x,y,z
-x,-y,z
x,-y,1/2-z
-x,y,1/2-z
-x,-y,-z
x,y,-z
-x,y,1/2+z
x,-y,1/2+z
1/2+x,1/2+y,z
1/2-x,1/2-y,z
1/2+x,1/2-y,1/2-z
1/2-x,1/2+y,1/2-z
1/2-x,1/2-y,-z
1/2+x,1/2+y,-z
1/2-x,1/2+y,1/2+z
1/2+x,1/2-y,1/2+z
loop_
_atom_site_type_symbol
_atom_site_label
_atom_site_fract_x
_atom_site_fract_y
_atom_site_fract_z
Si Si1 0.253327 0.382276 0.431465
Si Si2 0.444184 0.716406 0.137402
Si Si3 0.804464 0.315521 0.254896
Si Si4 0.823136 0.497937 0.342327
Si Si5 0.060178 0.467817 0.681524
Si Si6 0.607237 0.377710 0.752081
Si Si7 0.954353 0.904787 0.862089
Si Si8 0.123652 0.943963 0.932061
O O1 0.242336 0.392030 0.500000
O O2 0.250000 0.250000 0.411472
O O3 0.207121 0.460981 0.400710
O O4 0.312586 0.432586 0.413149
O O5 0.430213 0.835862 0.166753
O O6 0.425103 0.624605 0.186678
O O7 0.509140 0.707305 0.119213
O O8 0.406118 0.677335 0.082934
O O9 0.750000 0.250000 0.236203
O O10 0.795648 0.383141 0.315987
O O11 0.820998 0.401516 0.204538
O O12 0.852090 0.224075 0.261233
O O13 0.888765 0.470283 0.351744
O O14 0.063402 0.500000 0.750000
O O15 0.000000 0.500000 0.656349
O O16 0.639274 0.500000 0.750000
O O17 0.561038 0.374905 0.703162
O O18 0.902413 0.942228 0.901965
O O19 0.000000 0.000000 0.868524
O O20 0.118229 0.964324 0.000000
#
# Coordination Sequence:
#
# PCOD8277263 Si02
#       8
#    16  16  16  16  16  16  16  16
#     4  10  22  39  68  94 116 158 210 267 317 364
#     4  11  22  35  58  89 121 164 203 246 306 369
#     4  11  26  36  57  91 122 171 195 247 317 375
#     4  11  22  43  59  87 127 158 208 252 307 371
#     4  11  23  39  59  88 122 168 199 247 299 367
#     4  12  22  35  56  86 129 155 201 248 306 373
#     4  10  22  34  55  90 120 160 193 245 306 363
#     4  10  22  40  60  91 122 157 206 258 315 365
#
# _framework density 19.631636
#
# number of rings (size 3 to 8) (size 9 to 14) (size 15 to 20)
#    0.000    1.250    5.000    1.500   10.500    2.250 
#    0.000    0.000    0.000    2.625    0.000    0.000 
#    0.000    0.000    0.000    0.000    0.000    0.000 
#
# Total GULP energy -792962.341066 kJ/mol
# GULP energy per Si atom -12390.036579 kJ/mol
# Density = 1.958695 g / cm^3
# Si number density = 19.631636 Si / 1000 Ang^3
#
#
#
# Elastic Constant Matrix: (Units=GPa)
#
#
# Indices 1 2 3 4 5 6 
#
# 1 116.0476 17.8707 35.8377 0.0000 0.0000 0.0000
# 2 17.8707 71.0875 14.3386 0.0000 0.0000 0.0000
# 3 35.8377 14.3386 56.9161 0.0000 0.0000 0.0000
# 4 0.0000 0.0000 0.0000 26.1993 0.0000 0.0000
# 5 0.0000 0.0000 0.0000 0.0000 31.1132 0.0000
# 6 0.0000 0.0000 0.0000 0.0000 0.0000 25.5632
#
#
#
# Elastic Compliance Matrix: (Units=1/GPa)
#
#
# Indices 1 2 3 4 5 6 
#
# 1 0.010831 -0.001419 -0.006463 0.000000 0.000000 0.000000
# 2 -0.001419 0.015006 -0.002887 0.000000 0.000000 0.000000
# 3 -0.006463 -0.002887 0.022366 0.000000 0.000000 0.000000
# 4 0.000000 0.000000 0.000000 0.038169 0.000000 0.000000
# 5 0.000000 0.000000 0.000000 0.000000 0.032141 0.000000
# 6 0.000000 0.000000 0.000000 0.000000 0.000000 0.039119
#
#
# Mechanical properties :
#
#
# Convention : Reuss Voigt Hill
#
# Bulk Modulus (GPa) = 37.50014 42.23833 39.86923
# Shear Modulus (GPa) = 26.58748 28.30876 27.44812
#
# Velocity S-wave (km/s) = 3.68410 3.80148 3.74325
# Velocity P-wave (km/s) = 6.10247 6.38988 6.24783
#
# Compressibility (1/GPa) = 0.02666657
#
# Stress axis : x y z
#
# Youngs Moduli (GPa) = 92.32337 66.63891 44.71042
#
# Poissons Ratio (x) = 0.09459 0.28894
# Poissons Ratio (y) = 0.13104 0.12907
# Poissons Ratio (z) = 0.59664 0.19237
#
# Static dielectric constant tensor:
#      x y z
#    x 4.366720 0.000000 0.000000 
#    y 0.000000 3.892410 0.000000 
#    z 0.000000 0.000000 3.324140 
# 
# 
# High freq. dielectric constant tensor:
#      x y z
#    x 1.781970 0.000000 0.000000 
#    y 0.000000 1.758530 0.000000 
#    z 0.000000 0.000000 1.733180 
# 
# From -- ./inp_files/59943.got.cif
#   From: 2010.03.12/outbox.cif.g09.slc.cpg/sg66_30_cif.got.tgz:59943.got - 2010.04.10 21:57:39.
