data_PCOD8277940
_publ_section_title
;
Structure prediction by ZEFSAII (Michael W. Deem and Ramdas Pophale) SiO2 
 PCOD8277940
Probable space group: C M M A
;
_chemical_formula_sum "Si O2"
_cell_formula_units_Z 96
_cell_length_a 19.487580
_cell_length_b 8.895416
_cell_length_c 31.601705
_cell_angle_alpha 90.000000
_cell_angle_beta 90.000000
_cell_angle_gamma 90.000000
_cell_volume 5478.159699
_symmetry_space_group_name_H-M "C M M A"
_symmetry_group_IT_number 67
_symmetry_cell_setting 'orthorhombic'
loop_
_space_group_symop_operation_xyz
x,y,z
-x,1/2-y,z
x,-y,-z
-x,1/2+y,-z
-x,-y,-z
x,1/2+y,-z
-x,y,z
x,1/2-y,z
1/2+x,1/2+y,z
1/2-x,-y,z
1/2+x,1/2-y,-z
1/2-x,y,-z
1/2-x,1/2-y,-z
1/2+x,y,-z
1/2-x,1/2+y,z
1/2+x,-y,z
loop_
_atom_site_type_symbol
_atom_site_label
_atom_site_fract_x
_atom_site_fract_y
_atom_site_fract_z
Si Si1 0.081691 0.080807 0.125436
Si Si2 0.922092 0.427995 0.789453
Si Si3 0.173930 0.070259 0.458316
Si Si4 0.918140 0.419303 0.958055
Si Si5 0.176644 0.924700 0.283730
Si Si6 0.176339 0.574362 0.376802
O O1 0.109642 0.250000 0.126356
O O2 0.000000 0.076043 0.124079
O O3 0.108215 0.996220 0.167279
O O4 0.111429 0.001045 0.083583
O O5 0.918860 0.250000 0.793314
O O6 0.876757 0.489245 0.750492
O O7 0.000000 0.482545 0.781666
O O8 0.175082 0.250000 0.460758
O O9 0.136877 0.000000 0.500000
O O10 0.250000 0.000000 0.456676
O O11 0.136167 0.011983 0.415163
O O12 0.890574 0.250000 0.958008
O O13 0.000000 0.423595 0.957847
O O14 0.889510 0.500000 0.000000
O O15 0.189279 0.750000 0.276239
O O16 0.142650 0.950481 0.330492
O O17 0.250000 0.000000 0.277858
O O18 0.182474 0.750000 0.388338
O O19 0.250000 0.500000 0.372622
#
# Coordination Sequence:
#
# PCOD8277940 Si02
#       6
#    16  16  16  16  16  16
#     4   9  16  25  37  55  79 107 139 174 213 255
#     4   9  17  30  46  63  85 114 147 180 215 256
#     4  10  16  22  32  48  71 100 132 163 199 242
#     4   9  15  22  33  50  74 105 138 171 208 252
#     4   9  18  30  45  64  86 114 145 179 217 256
#     4   9  15  24  36  52  75 102 133 166 203 246
#
# _framework density 17.524134
#
# number of rings (size 3 to 8) (size 9 to 14) (size 15 to 20)
#    0.000    2.833    0.000    4.500    0.000    5.333 
#    0.000    0.000    0.000    0.000    0.000    0.000 
#    0.000    1.333    0.000    8.167    0.000   17.333 
#
# Total GULP energy -594765.864655 kJ/mol
# GULP energy per Si atom -12390.955514 kJ/mol
# Density = 1.748425 g / cm^3
# Si number density = 17.524134 Si / 1000 Ang^3
#
#
#
# Elastic Constant Matrix: (Units=GPa)
#
#
# Indices 1 2 3 4 5 6 
#
# 1 23.4315 16.6631 35.9159 0.0000 0.0000 0.0000
# 2 16.6631 108.8184 72.0909 0.0000 0.0000 0.0000
# 3 35.9159 72.0909 202.7613 0.0000 0.0000 0.0000
# 4 0.0000 0.0000 0.0000 32.0787 0.0000 0.0000
# 5 0.0000 0.0000 0.0000 0.0000 16.4499 0.0000
# 6 0.0000 0.0000 0.0000 0.0000 0.0000 8.2102
#
#
#
# Elastic Compliance Matrix: (Units=1/GPa)
#
#
# Indices 1 2 3 4 5 6 
#
# 1 0.059216 -0.002771 -0.009504 0.000000 0.000000 0.000000
# 2 -0.002771 0.012151 -0.003829 0.000000 0.000000 0.000000
# 3 -0.009504 -0.003829 0.007977 0.000000 0.000000 0.000000
# 4 0.000000 0.000000 0.000000 0.031173 0.000000 0.000000
# 5 0.000000 0.000000 0.000000 0.000000 0.060791 0.000000
# 6 0.000000 0.000000 0.000000 0.000000 0.000000 0.121799
#
#
# Mechanical properties :
#
#
# Convention : Reuss Voigt Hill
#
# Bulk Modulus (GPa) = 21.21578 64.92789 43.07183
# Shear Modulus (GPa) = 14.66158 25.37052 20.01605
#
# Velocity S-wave (km/s) = 2.89563 3.80906 3.38331
# Velocity P-wave (km/s) = 4.82830 7.51506 6.31620
#
# Compressibility (1/GPa) = 0.04713473
#
# Stress axis : x y z
#
# Youngs Moduli (GPa) = 16.88730 82.29875 125.36297
#
# Poissons Ratio (x) = 0.22809 1.19143
# Poissons Ratio (y) = 0.04680 0.48005
# Poissons Ratio (z) = 0.16049 0.31514
#
# Static dielectric constant tensor:
#      x y z
#    x 2.518930 0.000000 0.000000 
#    y 0.000000 3.354490 0.000000 
#    z 0.000000 0.000000 4.334870 
# 
# 
# High freq. dielectric constant tensor:
#      x y z
#    x 1.576200 0.000000 0.000000 
#    y 0.000000 1.688530 0.000000 
#    z 0.000000 0.000000 1.711220 
# 
# From -- ./inp_files/44796.got.cif
#   From: 2010.03.12/outbox.cif.g09.slc.cpg/sg67_23_cif.got.tgz:44796.got - 2010.04.10 22:41:39.
