data_PCOD8277078
_publ_section_title
;
Structure prediction by ZEFSAII (Michael W. Deem and Ramdas Pophale) SiO2 
 PCOD8277078
Probable space group: C C C M
;
_chemical_formula_sum "Si O2"
_cell_formula_units_Z 80
_cell_length_a 25.670376
_cell_length_b 6.298258
_cell_length_c 24.136869
_cell_angle_alpha 90.000000
_cell_angle_beta 90.000000
_cell_angle_gamma 90.000000
_cell_volume 3902.416419
_symmetry_space_group_name_H-M "C C C M"
_symmetry_group_IT_number 66
_symmetry_cell_setting 'orthorhombic'
loop_
_space_group_symop_operation_xyz
x,y,z
-x,-y,z
x,-y,1/2-z
-x,y,1/2-z
-x,-y,-z
x,y,-z
-x,y,1/2+z
x,-y,1/2+z
1/2+x,1/2+y,z
1/2-x,1/2-y,z
1/2+x,1/2-y,1/2-z
1/2-x,1/2+y,1/2-z
1/2-x,1/2-y,-z
1/2+x,1/2+y,-z
1/2-x,1/2+y,1/2+z
1/2+x,1/2-y,1/2+z
loop_
_atom_site_type_symbol
_atom_site_label
_atom_site_fract_x
_atom_site_fract_y
_atom_site_fract_z
Si Si1 0.159194 0.000000 0.250000
Si Si2 0.376627 0.635320 0.863280
Si Si3 0.056218 0.587316 0.936019
Si Si4 0.250000 0.750000 0.296614
Si Si5 0.145998 0.748173 0.561471
Si Si6 0.285896 0.933227 0.115731
O O1 0.118904 0.946438 0.199980
O O2 0.197568 0.797438 0.261367
O O3 0.429440 0.717875 0.894025
O O4 0.351321 0.443527 0.897179
O O5 0.338864 0.834956 0.861649
O O6 0.094727 0.390417 0.928429
O O7 0.000000 0.500000 0.919244
O O8 0.057602 0.670060 0.000000
O O9 0.243914 0.537729 0.332817
O O10 0.146919 0.841980 0.500000
O O11 0.198324 0.608666 0.570256
O O12 0.250000 0.750000 0.088576
#
# Coordination Sequence:
#
# PCOD8277078 Si02
#       6
#     8  16  16   8  16  16
#     4  12  22  36  62  85 120 164 207 254 296 358
#     4  11  22  37  58  91 120 158 204 255 307 363
#     4   9  20  40  66  93 118 152 200 256 319 383
#     4  12  22  40  57  92 115 162 218 252 288 356
#     4  10  21  38  61  89 123 156 199 255 310 369
#     4  11  20  38  56  85 124 158 207 248 293 358
#
# _framework density 20.500116999999999
#
# number of rings (size 3 to 8) (size 9 to 14) (size 15 to 20)
#    0.000    1.400    4.000    1.800    0.000    2.000 
#    0.000    6.500    0.000    3.600    0.000    0.000 
#    0.000    0.000    0.000    0.000    0.000    0.000 
#
# Total GULP energy -495798.541717 kJ/mol
# GULP energy per Si atom -12394.963543 kJ/mol
# Density = 2.045346 g / cm^3
# Si number density = 20.500117 Si / 1000 Ang^3
#
#
#
# Elastic Constant Matrix: (Units=GPa)
#
#
# Indices 1 2 3 4 5 6 
#
# 1 87.3102 37.0482 49.7483 0.0000 0.0000 0.0000
# 2 37.0482 97.4590 55.6672 0.0000 0.0000 0.0000
# 3 49.7483 55.6672 146.1154 0.0000 0.0000 0.0000
# 4 0.0000 0.0000 0.0000 24.2397 0.0000 0.0000
# 5 0.0000 0.0000 0.0000 0.0000 28.0241 0.0000
# 6 0.0000 0.0000 0.0000 0.0000 0.0000 32.1199
#
#
#
# Elastic Compliance Matrix: (Units=1/GPa)
#
#
# Indices 1 2 3 4 5 6 
#
# 1 0.015134 -0.003591 -0.003784 0.000000 0.000000 0.000000
# 2 -0.003591 0.013967 -0.004098 0.000000 0.000000 0.000000
# 3 -0.003784 -0.004098 0.009694 0.000000 0.000000 0.000000
# 4 0.000000 0.000000 0.000000 0.041255 0.000000 0.000000
# 5 0.000000 0.000000 0.000000 0.000000 0.035684 0.000000
# 6 0.000000 0.000000 0.000000 0.000000 0.000000 0.031133
#
#
# Mechanical properties :
#
#
# Convention : Reuss Voigt Hill
#
# Bulk Modulus (GPa) = 63.10682 68.42354 65.76518
# Shear Modulus (GPa) = 28.55577 29.43813 28.99695
#
# Velocity S-wave (km/s) = 3.73628 3.79357 3.76503
# Velocity P-wave (km/s) = 7.03303 7.25519 7.14498
#
# Compressibility (1/GPa) = 0.01584615
#
# Stress axis : x y z
#
# Youngs Moduli (GPa) = 66.07816 71.59808 103.15914
#
# Poissons Ratio (x) = 0.25713 0.39039
# Poissons Ratio (y) = 0.23731 0.42278
# Poissons Ratio (z) = 0.25006 0.29343
#
# Static dielectric constant tensor:
#      x y z
#    x 3.617230 0.000000 0.000000 
#    y 0.000000 3.817990 0.000000 
#    z 0.000000 0.000000 3.838240 
# 
# 
# High freq. dielectric constant tensor:
#      x y z
#    x 1.775660 0.000000 0.000000 
#    y 0.000000 1.810760 0.000000 
#    z 0.000000 0.000000 1.795880 
# 
# From -- ./inp_files/60373.got.cif
#   From: 2010.03.12/outbox.cif.g09.slc.cpg/sg66_31_cif.got.tgz:60373.got - 2010.04.10 21:57:39.
