data_PCOD8277120
_publ_section_title
;
Structure prediction by ZEFSAII (Michael W. Deem and Ramdas Pophale) SiO2 
 PCOD8277120
Probable space group: C C C M
;
_chemical_formula_sum "Si O2"
_cell_formula_units_Z 68
_cell_length_a 7.622627
_cell_length_b 30.313505
_cell_length_c 14.537743
_cell_angle_alpha 90.000000
_cell_angle_beta 90.000000
_cell_angle_gamma 90.000000
_cell_volume 3359.215074
_symmetry_space_group_name_H-M "C C C M"
_symmetry_group_IT_number 66
_symmetry_cell_setting 'orthorhombic'
loop_
_space_group_symop_operation_xyz
x,y,z
-x,-y,z
x,-y,1/2-z
-x,y,1/2-z
-x,-y,-z
x,y,-z
-x,y,1/2+z
x,-y,1/2+z
1/2+x,1/2+y,z
1/2-x,1/2-y,z
1/2+x,1/2-y,1/2-z
1/2-x,1/2+y,1/2-z
1/2-x,1/2-y,-z
1/2+x,1/2+y,-z
1/2-x,1/2+y,1/2+z
1/2+x,1/2-y,1/2+z
loop_
_atom_site_type_symbol
_atom_site_label
_atom_site_fract_x
_atom_site_fract_y
_atom_site_fract_z
Si Si1 0.500000 0.000000 0.750000
Si Si2 0.834333 0.141549 0.103649
Si Si3 0.204249 0.699843 0.740228
Si Si4 0.544842 0.930872 0.606664
Si Si5 0.718657 0.624811 0.104788
O O1 0.392969 0.030841 0.677567
O O2 0.813942 0.183207 0.170979
O O3 0.673606 0.109501 0.122851
O O4 0.013082 0.113119 0.119852
O O5 0.831383 0.160251 0.000000
O O6 0.250000 0.750000 0.720331
O O7 0.256766 0.671375 0.652966
O O8 0.000000 0.693511 0.750000
O O9 0.550743 0.947266 0.500000
O O10 0.348438 0.914672 0.637515
O O11 0.768029 0.633643 0.000000
#
# Coordination Sequence:
#
# PCOD8277120 Si02
#       5
#     4  16  16  16  16
#     4  12  22  36  62  90 120 154 186 244 302 342
#     4  10  21  40  63  84 113 157 200 240 291 349
#     4  12  23  36  56  86 122 155 195 248 293 340
#     4  10  21  39  61  86 117 153 198 239 291 358
#     4  10  21  40  63  84 113 157 200 240 291 349
#
# _framework density 20.242823999999999
#
# number of rings (size 3 to 8) (size 9 to 14) (size 15 to 20)
#    0.000    1.412    2.353    3.882    0.000    0.941 
#    0.000    2.353    0.000    5.647    0.000    0.000 
#    0.000    0.000    0.000    0.000    0.000    0.000 
#
# Total GULP energy -421369.399800 kJ/mol
# GULP energy per Si atom -12393.217641 kJ/mol
# Density = 2.019675 g / cm^3
# Si number density = 20.242824 Si / 1000 Ang^3
#
#
#
# Elastic Constant Matrix: (Units=GPa)
#
#
# Indices 1 2 3 4 5 6 
#
# 1 106.5221 11.5117 20.7759 0.0000 0.0000 0.0000
# 2 11.5117 86.3673 53.9577 0.0000 0.0000 0.0000
# 3 20.7759 53.9577 100.8660 0.0000 0.0000 0.0000
# 4 0.0000 0.0000 0.0000 61.7094 0.0000 0.0000
# 5 0.0000 0.0000 0.0000 0.0000 23.2686 0.0000
# 6 0.0000 0.0000 0.0000 0.0000 0.0000 3.9720
#
#
#
# Elastic Compliance Matrix: (Units=1/GPa)
#
#
# Indices 1 2 3 4 5 6 
#
# 1 0.009781 -0.000068 -0.001978 0.000000 0.000000 0.000000
# 2 -0.000068 0.017391 -0.009289 0.000000 0.000000 0.000000
# 3 -0.001978 -0.009289 0.015291 0.000000 0.000000 0.000000
# 4 0.000000 0.000000 0.000000 0.016205 0.000000 0.000000
# 5 0.000000 0.000000 0.000000 0.000000 0.042976 0.000000
# 6 0.000000 0.000000 0.000000 0.000000 0.000000 0.251763
#
#
# Mechanical properties :
#
#
# Convention : Reuss Voigt Hill
#
# Bulk Modulus (GPa) = 50.52536 51.80511 51.16523
# Shear Modulus (GPa) = 13.06592 31.62402 22.34497
#
# Velocity S-wave (km/s) = 2.54335 3.95680 3.32602
# Velocity P-wave (km/s) = 5.79988 6.82073 6.33092
#
# Compressibility (1/GPa) = 0.01979204
#
# Stress axis : x y z
#
# Youngs Moduli (GPa) = 102.24000 57.50144 65.39857
#
# Poissons Ratio (x) = 0.00389 0.12939
# Poissons Ratio (y) = 0.00692 0.60750
# Poissons Ratio (z) = 0.20227 0.53414
#
# Static dielectric constant tensor:
#      x y z
#    x 7.782240 0.000000 0.000000 
#    y 0.000000 3.313410 0.000000 
#    z 0.000000 0.000000 3.911010 
# 
# 
# High freq. dielectric constant tensor:
#      x y z
#    x 1.796690 0.000000 0.000000 
#    y 0.000000 1.765610 0.000000 
#    z 0.000000 0.000000 1.811160 
# 
# From -- ./inp_files/24380.got.cif
#   From: 2010.03.12/outbox.cif.g09.slc.cpg/sg66_13_cif.got.tgz:24380.got - 2010.04.10 21:57:39.
