data_PCOD8277632
_publ_section_title
;
Structure prediction by ZEFSAII (Michael W. Deem and Ramdas Pophale) SiO2 
 PCOD8277632
Probable space group: C C C M
;
_chemical_formula_sum "Si O2"
_cell_formula_units_Z 60
_cell_length_a 9.101357
_cell_length_b 19.334087
_cell_length_c 16.286644
_cell_angle_alpha 90.000000
_cell_angle_beta 90.000000
_cell_angle_gamma 90.000000
_cell_volume 2865.902570
_symmetry_space_group_name_H-M "C C C M"
_symmetry_group_IT_number 66
_symmetry_cell_setting 'orthorhombic'
loop_
_space_group_symop_operation_xyz
x,y,z
-x,-y,z
x,-y,1/2-z
-x,y,1/2-z
-x,-y,-z
x,y,-z
-x,y,1/2+z
x,-y,1/2+z
1/2+x,1/2+y,z
1/2-x,1/2-y,z
1/2+x,1/2-y,1/2-z
1/2-x,1/2+y,1/2-z
1/2-x,1/2-y,-z
1/2+x,1/2+y,-z
1/2-x,1/2+y,1/2+z
1/2+x,1/2-y,1/2+z
loop_
_atom_site_type_symbol
_atom_site_label
_atom_site_fract_x
_atom_site_fract_y
_atom_site_fract_z
Si Si1 0.172379 0.431969 0.000000
Si Si2 0.000000 0.500000 0.750000
Si Si3 0.436095 0.666969 0.500000
Si Si4 0.781286 0.084971 0.000000
Si Si5 0.441466 0.107845 0.630430
Si Si6 0.923956 0.246989 0.669812
O O1 0.265403 0.502254 0.000000
O O2 0.070255 0.429562 0.079303
O O3 0.273519 0.364046 0.000000
O O4 0.895217 0.551937 0.699125
O O5 0.548320 0.603231 0.500000
O O6 0.459357 0.711155 0.582682
O O7 0.704468 0.121114 0.078042
O O8 0.502499 0.177961 0.667939
O O9 0.750000 0.250000 0.684637
O O10 0.000000 0.209861 0.750000
#
# Coordination Sequence:
#
# PCOD8277632 Si02
#       6
#     8   4   8   8  16  16
#     4  11  20  45  65  93 127 178 219 268 330 396
#     4  12  20  38  68 102 124 162 222 290 316 386
#     4  12  26  44  68  96 143 177 216 275 342 400
#     4  11  24  40  67 100 126 176 225 270 327 396
#     4  11  22  40  71  92 127 173 225 269 326 396
#     4  12  27  45  69  98 134 178 223 276 337 400
#
# _framework density 20.935814000000001
#
# number of rings (size 3 to 8) (size 9 to 14) (size 15 to 20)
#    0.000    0.533    6.667    3.200    3.733    1.067 
#    0.000    0.000    0.000    3.200    0.000    0.000 
#    0.000    0.000    0.000    0.000    0.000    0.000 
#
# Total GULP energy -371881.186755 kJ/mol
# GULP energy per Si atom -12396.039558 kJ/mol
# Density = 2.088816 g / cm^3
# Si number density = 20.935814 Si / 1000 Ang^3
#
#
#
# Elastic Constant Matrix: (Units=GPa)
#
#
# Indices 1 2 3 4 5 6 
#
# 1 76.7884 17.9830 38.5651 0.0000 0.0000 0.0000
# 2 17.9830 90.0375 36.8481 0.0000 0.0000 0.0000
# 3 38.5651 36.8481 152.4227 0.0000 0.0000 0.0000
# 4 0.0000 0.0000 0.0000 32.4950 0.0000 0.0000
# 5 0.0000 0.0000 0.0000 0.0000 -27.6671 0.0000
# 6 0.0000 0.0000 0.0000 0.0000 0.0000 33.4723
#
#
#
# Elastic Compliance Matrix: (Units=1/GPa)
#
#
# Indices 1 2 3 4 5 6 
#
# 1 0.015127 -0.001615 -0.003437 0.000000 0.000000 0.000000
# 2 -0.001615 0.012498 -0.002613 0.000000 0.000000 0.000000
# 3 -0.003437 -0.002613 0.008062 0.000000 0.000000 0.000000
# 4 0.000000 0.000000 0.000000 0.030774 0.000000 0.000000
# 5 0.000000 0.000000 0.000000 0.000000 -0.036144 0.000000
# 6 0.000000 0.000000 0.000000 0.000000 0.000000 0.029875
#
#
# Mechanical properties :
#
#
# Convention : Reuss Voigt Hill
#
# Bulk Modulus (GPa) = 49.12036 56.22676 52.67356
# Shear Modulus (GPa) = 60.74736 22.71688 41.73212
#
# Velocity S-wave (km/s) = 5.39249 3.29762 4.46952
# Velocity P-wave (km/s) = 7.89210 6.43538 7.20067
#
# Compressibility (1/GPa) = 0.02035816
#
# Stress axis : x y z
#
# Youngs Moduli (GPa) = 66.10652 80.01071 124.03890
#
# Poissons Ratio (x) = 0.12919 0.42632
# Poissons Ratio (y) = 0.10674 0.32410
# Poissons Ratio (z) = 0.22721 0.20906
#
# Static dielectric constant tensor:
#      x y z
#    x 3.633790 0.000000 0.000000 
#    y 0.000000 3.701840 0.000000 
#    z 0.000000 0.000000 4.312070 
# 
# 
# High freq. dielectric constant tensor:
#      x y z
#    x 1.797760 0.000000 0.000000 
#    y 0.000000 1.823000 0.000000 
#    z 0.000000 0.000000 1.843380 
# 
# From -- ./inp_files/36147.got.cif
#   From: 2010.03.12/outbox.cif.g09.slc.cpg/sg66_19_cif.got.tgz:36147.got - 2010.04.10 21:57:39.
