data_PCOD8277231
_publ_section_title
;
Structure prediction by ZEFSAII (Michael W. Deem and Ramdas Pophale) SiO2 
 PCOD8277231
Probable space group: C C C M
;
_chemical_formula_sum "Si O2"
_cell_formula_units_Z 116
_cell_length_a 30.024908
_cell_length_b 8.690883
_cell_length_c 21.795315
_cell_angle_alpha 90.000000
_cell_angle_beta 90.000000
_cell_angle_gamma 90.000000
_cell_volume 5687.334065
_symmetry_space_group_name_H-M "C C C M"
_symmetry_group_IT_number 66
_symmetry_cell_setting 'orthorhombic'
loop_
_space_group_symop_operation_xyz
x,y,z
-x,-y,z
x,-y,1/2-z
-x,y,1/2-z
-x,-y,-z
x,y,-z
-x,y,1/2+z
x,-y,1/2+z
1/2+x,1/2+y,z
1/2-x,1/2-y,z
1/2+x,1/2-y,1/2-z
1/2-x,1/2+y,1/2-z
1/2-x,1/2-y,-z
1/2+x,1/2+y,-z
1/2-x,1/2+y,1/2+z
1/2+x,1/2-y,1/2+z
loop_
_atom_site_type_symbol
_atom_site_label
_atom_site_fract_x
_atom_site_fract_y
_atom_site_fract_z
Si Si1 0.692507 0.416523 0.829338
Si Si2 0.344574 0.715636 0.704468
Si Si3 0.817789 0.325632 0.068899
Si Si4 0.774772 0.594514 0.860610
Si Si5 0.000000 0.500000 0.250000
Si Si6 0.435174 0.161561 0.160377
Si Si7 0.003484 0.180543 0.931530
Si Si8 0.919491 0.387072 0.069452
O O1 0.673180 0.319149 0.772886
O O2 0.659982 0.563713 0.838569
O O3 0.699418 0.312082 0.888700
O O4 0.741325 0.492219 0.818728
O O5 0.315455 0.858335 0.682340
O O6 0.395716 0.765371 0.700753
O O7 0.796458 0.491261 0.085581
O O8 0.870921 0.314559 0.074250
O O9 0.802478 0.288675 0.000000
O O10 0.750000 0.750000 0.886372
O O11 0.029063 0.388349 0.209319
O O12 0.457036 0.284216 0.115162
O O13 0.419523 0.022302 0.118286
O O14 0.956996 0.261922 0.912183
O O15 0.016412 0.236734 0.000000
O O16 0.000000 0.000000 0.930202
O O17 0.927935 0.448034 0.000000
#
# Coordination Sequence:
#
# PCOD8277231 Si02
#       8
#    16  16  16  16   4  16  16  16
#     4  10  24  42  64  95 127 165 213 265 329 386
#     4  10  24  43  67  95 125 167 213 267 322 384
#     4  11  24  41  64  95 131 171 212 266 325 382
#     4  10  22  42  66  94 127 164 218 266 319 392
#     4  12  28  40  60  96 124 180 218 254 316 380
#     4  12  23  43  65  93 133 169 214 263 317 384
#     4  10  22  41  69 100 130 169 215 267 321 382
#     4  10  21  41  68  96 128 169 218 260 312 384
#
# _framework density 20.3962
#
# number of rings (size 3 to 8) (size 9 to 14) (size 15 to 20)
#    0.000    1.517    2.759    0.828    3.862    9.655 
#    2.483    2.759    0.000    0.000    0.000    0.000 
#    0.000    0.000    0.000    0.000    0.000    0.000 
#
# Total GULP energy -718872.841134 kJ/mol
# GULP energy per Si atom -12394.359330 kJ/mol
# Density = 2.034978 g / cm^3
# Si number density = 20.396200 Si / 1000 Ang^3
#
#
#
# Elastic Constant Matrix: (Units=GPa)
#
#
# Indices 1 2 3 4 5 6 
#
# 1 131.3302 53.0382 53.4184 0.0000 0.0000 0.0000
# 2 53.0382 106.1482 64.6196 0.0000 0.0000 0.0000
# 3 53.4184 64.6196 119.2285 0.0000 0.0000 0.0000
# 4 0.0000 0.0000 0.0000 30.6243 0.0000 0.0000
# 5 0.0000 0.0000 0.0000 0.0000 3.5868 0.0000
# 6 0.0000 0.0000 0.0000 0.0000 0.0000 30.6835
#
#
#
# Elastic Compliance Matrix: (Units=1/GPa)
#
#
# Indices 1 2 3 4 5 6 
#
# 1 0.010077 -0.003412 -0.002665 0.000000 0.000000 0.000000
# 2 -0.003412 0.015215 -0.006717 0.000000 0.000000 0.000000
# 3 -0.002665 -0.006717 0.013222 0.000000 0.000000 0.000000
# 4 0.000000 0.000000 0.000000 0.032654 0.000000 0.000000
# 5 0.000000 0.000000 0.000000 0.000000 0.278801 0.000000
# 6 0.000000 0.000000 0.000000 0.000000 0.000000 0.032591
#
#
# Mechanical properties :
#
#
# Convention : Reuss Voigt Hill
#
# Bulk Modulus (GPa) = 77.37701 77.65106 77.51403
# Shear Modulus (GPa) = 12.12246 25.35430 18.73838
#
# Velocity S-wave (km/s) = 2.44057 3.52957 3.03433
# Velocity P-wave (km/s) = 6.77947 7.40030 7.09668
#
# Compressibility (1/GPa) = 0.01292374
#
# Stress axis : x y z
#
# Youngs Moduli (GPa) = 99.24015 65.72363 75.63094
#
# Poissons Ratio (x) = 0.22428 0.20157
# Poissons Ratio (y) = 0.33865 0.50805
# Poissons Ratio (z) = 0.26449 0.44150
#
# Static dielectric constant tensor:
#      x y z
#    x 3.915800 0.000000 0.000000 
#    y 0.000000 3.203500 0.000000 
#    z 0.000000 0.000000 3.657720 
# 
# 
# High freq. dielectric constant tensor:
#      x y z
#    x 1.810350 0.000000 0.000000 
#    y 0.000000 1.803220 0.000000 
#    z 0.000000 0.000000 1.788390 
# 
# From -- ./inp_files/60528.got.cif
#   From: 2010.03.12/outbox.cif.g09.slc.cpg/sg66_31_cif.got.tgz:60528.got - 2010.04.10 21:57:39.
