data_PCOD8277815
_publ_section_title
;
Structure prediction by ZEFSAII (Michael W. Deem and Ramdas Pophale) SiO2 
 PCOD8277815
Probable space group: C C C M
;
_chemical_formula_sum "Si O2"
_cell_formula_units_Z 96
_cell_length_a 27.774263
_cell_length_b 9.980887
_cell_length_c 17.272998
_cell_angle_alpha 90.000000
_cell_angle_beta 90.000000
_cell_angle_gamma 90.000000
_cell_volume 4788.278530
_symmetry_space_group_name_H-M "C C C M"
_symmetry_group_IT_number 66
_symmetry_cell_setting 'orthorhombic'
loop_
_space_group_symop_operation_xyz
x,y,z
-x,-y,z
x,-y,1/2-z
-x,y,1/2-z
-x,-y,-z
x,y,-z
-x,y,1/2+z
x,-y,1/2+z
1/2+x,1/2+y,z
1/2-x,1/2-y,z
1/2+x,1/2-y,1/2-z
1/2-x,1/2+y,1/2-z
1/2-x,1/2-y,-z
1/2+x,1/2+y,-z
1/2-x,1/2+y,1/2+z
1/2+x,1/2-y,1/2+z
loop_
_atom_site_type_symbol
_atom_site_label
_atom_site_fract_x
_atom_site_fract_y
_atom_site_fract_z
Si Si1 0.058182 0.266718 0.590070
Si Si2 0.394873 0.479809 0.660410
Si Si3 0.802925 0.090499 0.410349
Si Si4 0.400053 0.975358 0.339579
Si Si5 0.805351 0.596650 0.089534
Si Si6 0.551847 0.722679 0.909817
O O1 0.067196 0.242117 0.500000
O O2 0.069037 0.420005 0.610825
O O3 0.003718 0.232613 0.613375
O O4 0.093791 0.173000 0.638832
O O5 0.405804 0.500000 0.750000
O O6 0.338779 0.505411 0.642711
O O7 0.429204 0.574831 0.609450
O O8 0.813431 0.059311 0.500000
O O9 0.811073 0.246429 0.393473
O O10 0.748422 0.048672 0.388709
O O11 0.408738 0.000000 0.250000
O O12 0.343339 0.986933 0.359567
O O13 0.417725 0.827372 0.360221
O O14 0.815982 0.567149 0.000000
O O15 0.560010 0.753057 0.000000
#
# Coordination Sequence:
#
# PCOD8277815 Si02
#       6
#    16  16  16  16  16  16
#     4  11  25  41  60  89 122 157 201 252 300 347
#     4  12  24  38  61  92 126 156 191 250 309 354
#     4   9  18  36  64  90 113 154 208 246 279 348
#     4  12  24  38  61  92 126 156 191 250 309 354
#     4   9  18  36  64  90 113 154 208 246 279 348
#     4  11  23  43  66  83 112 167 217 240 276 359
#
# _framework density 20.048957999999999
#
# number of rings (size 3 to 8) (size 9 to 14) (size 15 to 20)
#    0.000    1.333    1.667    6.000    0.000    7.333 
#    0.000    0.833    0.000    3.000    0.000    0.000 
#    0.000    0.000    0.000    0.000    0.000    0.000 
#
# Total GULP energy -595508.478492 kJ/mol
# GULP energy per Si atom -12406.426635 kJ/mol
# Density = 2.000333 g / cm^3
# Si number density = 20.048958 Si / 1000 Ang^3
#
#
#
# Elastic Constant Matrix: (Units=GPa)
#
#
# Indices 1 2 3 4 5 6 
#
# 1 115.9041 17.6176 38.3779 0.0000 0.0000 0.0000
# 2 17.6176 49.9188 6.5323 0.0000 0.0000 0.0000
# 3 38.3779 6.5323 74.2246 0.0000 0.0000 0.0000
# 4 0.0000 0.0000 0.0000 28.6614 0.0000 0.0000
# 5 0.0000 0.0000 0.0000 0.0000 14.3685 0.0000
# 6 0.0000 0.0000 0.0000 0.0000 0.0000 19.1686
#
#
#
# Elastic Compliance Matrix: (Units=1/GPa)
#
#
# Indices 1 2 3 4 5 6 
#
# 1 0.010875 -0.003138 -0.005347 0.000000 0.000000 0.000000
# 2 -0.003138 0.021172 -0.000240 0.000000 0.000000 0.000000
# 3 -0.005347 -0.000240 0.016258 0.000000 0.000000 0.000000
# 4 0.000000 0.000000 0.000000 0.034890 0.000000 0.000000
# 5 0.000000 0.000000 0.000000 0.000000 0.069596 0.000000
# 6 0.000000 0.000000 0.000000 0.000000 0.000000 0.052169
#
#
# Mechanical properties :
#
#
# Convention : Reuss Voigt Hill
#
# Bulk Modulus (GPa) = 32.41107 40.56699 36.48903
# Shear Modulus (GPa) = 21.48717 24.27436 22.88076
#
# Velocity S-wave (km/s) = 3.27729 3.48336 3.38190
# Velocity P-wave (km/s) = 5.52466 6.03791 5.78698
#
# Compressibility (1/GPa) = 0.03085366
#
# Stress axis : x y z
#
# Youngs Moduli (GPa) = 91.95122 47.23294 61.50663
#
# Poissons Ratio (x) = 0.14824 0.32887
# Poissons Ratio (y) = 0.28859 0.01479
# Poissons Ratio (z) = 0.49165 0.01136
#
# Static dielectric constant tensor:
#      x y z
#    x 3.841200 0.000000 0.000000 
#    y 0.000000 3.478620 0.000000 
#    z 0.000000 0.000000 3.493750 
# 
# 
# High freq. dielectric constant tensor:
#      x y z
#    x 1.798150 0.000000 0.000000 
#    y 0.000000 1.769510 0.000000 
#    z 0.000000 0.000000 1.777990 
# 
# From -- ./inp_files/52959.got.cif
#   From: 2010.03.12/outbox.cif.g09.slc.cpg/sg66_27_cif.got.tgz:52959.got - 2010.04.10 21:57:39.
