data_PCOD8277796
_publ_section_title
;
Structure prediction by ZEFSAII (Michael W. Deem and Ramdas Pophale) SiO2 
 PCOD8277796
Probable space group: C C C M
;
_chemical_formula_sum "Si O2"
_cell_formula_units_Z 112
_cell_length_a 24.700986
_cell_length_b 14.266666
_cell_length_c 16.676467
_cell_angle_alpha 90.000000
_cell_angle_beta 90.000000
_cell_angle_gamma 90.000000
_cell_volume 5876.798930
_symmetry_space_group_name_H-M "C C C M"
_symmetry_group_IT_number 66
_symmetry_cell_setting 'orthorhombic'
loop_
_space_group_symop_operation_xyz
x,y,z
-x,-y,z
x,-y,1/2-z
-x,y,1/2-z
-x,-y,-z
x,y,-z
-x,y,1/2+z
x,-y,1/2+z
1/2+x,1/2+y,z
1/2-x,1/2-y,z
1/2+x,1/2-y,1/2-z
1/2-x,1/2+y,1/2-z
1/2-x,1/2-y,-z
1/2+x,1/2+y,-z
1/2-x,1/2+y,1/2+z
1/2+x,1/2-y,1/2+z
loop_
_atom_site_type_symbol
_atom_site_label
_atom_site_fract_x
_atom_site_fract_y
_atom_site_fract_z
Si Si1 0.394038 0.656743 0.665146
Si Si2 0.697053 0.805953 0.593671
Si Si3 0.500449 0.608205 0.593233
Si Si4 0.172955 0.997427 0.408561
Si Si5 0.307800 0.206374 0.094223
Si Si6 0.785085 0.509978 0.157834
Si Si7 0.384951 0.330339 0.351160
O O1 0.456822 0.670695 0.642060
O O2 0.378497 0.563180 0.616746
O O3 0.356668 0.742410 0.638886
O O4 0.388928 0.639925 0.759273
O O5 0.690555 0.788300 0.500000
O O6 0.750000 0.750000 0.626640
O O7 0.701518 0.916202 0.609614
O O8 0.642091 0.772033 0.638626
O O9 0.500000 0.500000 0.623730
O O10 0.485795 0.611191 0.500000
O O11 0.557002 0.660634 0.607616
O O12 0.190273 0.976253 0.500000
O O13 0.221421 0.968530 0.349925
O O14 0.157726 0.105274 0.399000
O O15 0.250000 0.250000 0.121792
O O16 0.315275 0.098200 0.118569
O O17 0.315172 0.219720 0.000000
O O18 0.801954 0.500000 0.250000
#
# Coordination Sequence:
#
# PCOD8277796 Si02
#       7
#    16  16  16  16  16  16  16
#     4  12  24  38  59  88 121 156 200 249 297 347
#     4  11  23  39  61  86 120 161 200 240 296 359
#     4  11  23  39  61  86 120 161 200 240 296 359
#     4  12  22  35  55  84 121 161 199 237 292 359
#     4  11  23  39  61  86 120 161 200 240 296 359
#     4  12  24  38  59  88 121 156 200 249 297 347
#     4  12  24  38  59  88 121 156 200 249 297 347
#
# _framework density 19.057994999999998
#
# number of rings (size 3 to 8) (size 9 to 14) (size 15 to 20)
#    0.000    0.429    4.286    6.429    0.000    1.714 
#    0.000    0.000    0.000    0.857    0.000    6.000 
#    0.000    0.000    0.000    0.000    0.000    0.000 
#
# Total GULP energy -694647.858703 kJ/mol
# GULP energy per Si atom -12404.426048 kJ/mol
# Density = 1.901462 g / cm^3
# Si number density = 19.057995 Si / 1000 Ang^3
#
#
#
# Elastic Constant Matrix: (Units=GPa)
#
#
# Indices 1 2 3 4 5 6 
#
# 1 101.1371 35.3058 20.7506 0.0000 0.0000 0.0000
# 2 35.3058 99.9828 20.7336 0.0000 0.0000 0.0000
# 3 20.7506 20.7336 83.4174 0.0000 0.0000 0.0000
# 4 0.0000 0.0000 0.0000 29.9830 0.0000 0.0000
# 5 0.0000 0.0000 0.0000 0.0000 29.7273 0.0000
# 6 0.0000 0.0000 0.0000 0.0000 0.0000 29.8054
#
#
#
# Elastic Compliance Matrix: (Units=1/GPa)
#
#
# Indices 1 2 3 4 5 6 
#
# 1 0.011575 -0.003680 -0.001965 0.000000 0.000000 0.000000
# 2 -0.003680 0.011715 -0.001996 0.000000 0.000000 0.000000
# 3 -0.001965 -0.001996 0.012973 0.000000 0.000000 0.000000
# 4 0.000000 0.000000 0.000000 0.033352 0.000000 0.000000
# 5 0.000000 0.000000 0.000000 0.000000 0.033639 0.000000
# 6 0.000000 0.000000 0.000000 0.000000 0.000000 0.033551
#
#
# Mechanical properties :
#
#
# Convention : Reuss Voigt Hill
#
# Bulk Modulus (GPa) = 47.66216 48.67971 48.17093
# Shear Modulus (GPa) = 31.43038 31.75297 31.59168
#
# Velocity S-wave (km/s) = 4.06544 4.08625 4.07585
# Velocity P-wave (km/s) = 6.86297 6.91821 6.89064
#
# Compressibility (1/GPa) = 0.02098100
#
# Stress axis : x y z
#
# Youngs Moduli (GPa) = 86.39051 85.35913 77.08397
#
# Poissons Ratio (x) = 0.31412 0.15145
# Poissons Ratio (y) = 0.31792 0.15389
# Poissons Ratio (z) = 0.16974 0.17041
#
# Static dielectric constant tensor:
#      x y z
#    x 3.436390 0.000000 0.000000 
#    y 0.000000 3.474640 0.000000 
#    z 0.000000 0.000000 3.478630 
# 
# 
# High freq. dielectric constant tensor:
#      x y z
#    x 1.728560 0.000000 0.000000 
#    y 0.000000 1.729530 0.000000 
#    z 0.000000 0.000000 1.755250 
# 
# From -- ./inp_files/28662.got.cif
#   From: 2010.03.12/outbox.cif.g09.slc.cpg/sg66_15_cif.got.tgz:28662.got - 2010.04.10 21:57:39.
