data_PCOD8277542
_publ_section_title
;
Structure prediction by ZEFSAII (Michael W. Deem and Ramdas Pophale) SiO2 
 PCOD8277542
Probable space group: C C C M
;
_chemical_formula_sum "Si O2"
_cell_formula_units_Z 96
_cell_length_a 11.179812
_cell_length_b 20.991105
_cell_length_c 18.149256
_cell_angle_alpha 90.000000
_cell_angle_beta 90.000000
_cell_angle_gamma 90.000000
_cell_volume 4259.205828
_symmetry_space_group_name_H-M "C C C M"
_symmetry_group_IT_number 66
_symmetry_cell_setting 'orthorhombic'
loop_
_space_group_symop_operation_xyz
x,y,z
-x,-y,z
x,-y,1/2-z
-x,y,1/2-z
-x,-y,-z
x,y,-z
-x,y,1/2+z
x,-y,1/2+z
1/2+x,1/2+y,z
1/2-x,1/2-y,z
1/2+x,1/2-y,1/2-z
1/2-x,1/2+y,1/2-z
1/2-x,1/2-y,-z
1/2+x,1/2+y,-z
1/2-x,1/2+y,1/2+z
1/2+x,1/2-y,1/2+z
loop_
_atom_site_type_symbol
_atom_site_label
_atom_site_fract_x
_atom_site_fract_y
_atom_site_fract_z
Si Si1 0.499646 0.396452 0.915937
Si Si2 0.792029 0.044675 0.849025
Si Si3 0.617595 0.736605 0.416598
Si Si4 0.452196 0.172464 0.171651
Si Si5 0.057889 0.568232 0.919967
Si Si6 0.781367 0.097921 0.690354
O O1 0.578110 0.457220 0.888639
O O2 0.591767 0.337905 0.911457
O O3 0.395153 0.382602 0.858070
O O4 0.451752 0.406167 0.000000
O O5 0.699754 0.070740 0.908969
O O6 0.804283 0.091430 0.777921
O O7 0.744218 0.973552 0.832706
O O8 0.622840 0.761181 0.500000
O O9 0.750000 0.750000 0.380309
O O10 0.502444 0.773160 0.382178
O O11 0.500000 0.193718 0.250000
O O12 0.504959 0.105010 0.148782
O O13 0.310268 0.156466 0.173727
O O14 0.000000 0.500000 0.917456
O O15 0.030814 0.599501 0.000000
#
# Coordination Sequence:
#
# PCOD8277542 Si02
#       6
#    16  16  16  16  16  16
#     4  11  25  44  67  96 134 180 232 283 338 411
#     4  11  22  43  66  95 140 184 220 276 339 413
#     4  10  24  48  72  94 129 177 229 287 348 409
#     4  12  24  42  67 101 135 173 219 283 338 402
#     4  11  22  37  64  98 131 171 223 276 330 398
#     4  11  25  40  66  99 139 177 223 277 343 406
#
# _framework density 22.539413
#
# number of rings (size 3 to 8) (size 9 to 14) (size 15 to 20)
#    0.000    1.000    3.333    3.000    0.000    8.333 
#    0.000    1.667    0.000    0.000    0.000    0.000 
#    0.000    0.000    0.000    0.000    0.000    0.000 
#
# Total GULP energy -594699.889611 kJ/mol
# GULP energy per Si atom -12389.581034 kJ/mol
# Density = 2.248811 g / cm^3
# Si number density = 22.539413 Si / 1000 Ang^3
#
#
#
# Elastic Constant Matrix: (Units=GPa)
#
#
# Indices 1 2 3 4 5 6 
#
# 1 127.2930 6.8505 41.0184 0.0000 0.0000 0.0000
# 2 6.8505 31.0213 20.1536 0.0000 0.0000 0.0000
# 3 41.0184 20.1536 104.3271 0.0000 0.0000 0.0000
# 4 0.0000 0.0000 0.0000 39.1616 0.0000 0.0000
# 5 0.0000 0.0000 0.0000 0.0000 46.7673 0.0000
# 6 0.0000 0.0000 0.0000 0.0000 0.0000 41.4393
#
#
#
# Elastic Compliance Matrix: (Units=1/GPa)
#
#
# Indices 1 2 3 4 5 6 
#
# 1 0.008999 0.000356 -0.003607 0.000000 0.000000 0.000000
# 2 0.000356 0.036876 -0.007264 0.000000 0.000000 0.000000
# 3 -0.003607 -0.007264 0.012407 0.000000 0.000000 0.000000
# 4 0.000000 0.000000 0.000000 0.025535 0.000000 0.000000
# 5 0.000000 0.000000 0.000000 0.000000 0.021382 0.000000
# 6 0.000000 0.000000 0.000000 0.000000 0.000000 0.024132
#
#
# Mechanical properties :
#
#
# Convention : Reuss Voigt Hill
#
# Bulk Modulus (GPa) = 26.84365 44.29849 35.57107
# Shear Modulus (GPa) = 30.71671 38.44821 34.58246
#
# Velocity S-wave (km/s) = 3.69562 4.13464 3.92128
# Velocity P-wave (km/s) = 5.49050 6.51844 6.02643
#
# Compressibility (1/GPa) = 0.03725275
#
# Stress axis : x y z
#
# Youngs Moduli (GPa) = 111.12328 27.11772 80.60262
#
# Poissons Ratio (x) = -0.00965 0.29073
# Poissons Ratio (y) = -0.03956 0.58547
# Poissons Ratio (z) = 0.40081 0.19697
#
# Static dielectric constant tensor:
#      x y z
#    x -1.652430 0.000000 0.000000 
#    y 0.000000 3.564200 0.000000 
#    z 0.000000 0.000000 4.320880 
# 
# 
# High freq. dielectric constant tensor:
#      x y z
#    x 1.889160 0.000000 0.000000 
#    y 0.000000 1.880910 0.000000 
#    z 0.000000 0.000000 1.896710 
# 
# From -- ./inp_files/38820.got.cif
#   From: 2010.03.12/outbox.cif.g09.slc.cpg/sg66_20_cif.got.tgz:38820.got - 2010.04.10 21:57:39.
