data_PCOD8277112
_publ_section_title
;
Structure prediction by ZEFSAII (Michael W. Deem and Ramdas Pophale) SiO2 
 PCOD8277112
Probable space group: C C C M
;
_chemical_formula_sum "Si O2"
_cell_formula_units_Z 112
_cell_length_a 25.367993
_cell_length_b 12.448116
_cell_length_c 17.400766
_cell_angle_alpha 90.000000
_cell_angle_beta 90.000000
_cell_angle_gamma 90.000000
_cell_volume 5494.878611
_symmetry_space_group_name_H-M "C C C M"
_symmetry_group_IT_number 66
_symmetry_cell_setting 'orthorhombic'
loop_
_space_group_symop_operation_xyz
x,y,z
-x,-y,z
x,-y,1/2-z
-x,y,1/2-z
-x,-y,-z
x,y,-z
-x,y,1/2+z
x,-y,1/2+z
1/2+x,1/2+y,z
1/2-x,1/2-y,z
1/2+x,1/2-y,1/2-z
1/2-x,1/2+y,1/2-z
1/2-x,1/2-y,-z
1/2+x,1/2+y,-z
1/2-x,1/2+y,1/2+z
1/2+x,1/2-y,1/2+z
loop_
_atom_site_type_symbol
_atom_site_label
_atom_site_fract_x
_atom_site_fract_y
_atom_site_fract_z
Si Si1 0.656097 0.500922 0.087745
Si Si2 0.602662 0.135088 0.830154
Si Si3 0.691372 0.718481 0.855971
Si Si4 0.994007 0.304403 0.410710
Si Si5 0.692677 0.297420 0.823420
Si Si6 0.894055 0.605895 0.152645
Si Si7 0.955059 0.076073 0.408557
O O1 0.684285 0.615403 0.090672
O O2 0.686887 0.413133 0.137455
O O3 0.598560 0.524896 0.124066
O O4 0.653281 0.460024 0.000000
O O5 0.547600 0.166048 0.868341
O O6 0.647787 0.218169 0.856339
O O7 0.592847 0.138164 0.739532
O O8 0.624316 0.017660 0.854536
O O9 0.750000 0.750000 0.875334
O O10 0.685065 0.687261 0.767072
O O11 0.651306 0.814745 0.879716
O O12 0.007989 0.295037 0.500000
O O13 0.948191 0.391127 0.396278
O O14 0.968225 0.194606 0.377507
O O15 0.750000 0.250000 0.843329
O O16 0.951732 0.078945 0.500000
O O17 0.000000 0.000000 0.376525
#
# Coordination Sequence:
#
# PCOD8277112 Si02
#       7
#    16  16  16  16  16  16  16
#     4  11  22  39  62  89 126 160 195 248 305 360
#     4  10  22  38  60  87 119 160 200 247 302 351
#     4  10  22  40  66  90 117 158 206 254 300 358
#     4  11  21  36  58  86 120 157 199 242 297 363
#     4  10  23  41  64  90 119 159 205 252 298 357
#     4  10  21  39  60  87 120 155 201 252 299 354
#     4   9  18  33  55  81 113 156 194 231 286 352
#
# _framework density 20.382615999999999
#
# number of rings (size 3 to 8) (size 9 to 14) (size 15 to 20)
#    0.000    1.857    1.429    2.143    2.000    4.571 
#    0.000    0.000    0.000    0.000    0.000    0.000 
#    0.000    0.000    0.000    0.000    0.000    0.000 
#
# Total GULP energy -694373.335430 kJ/mol
# GULP energy per Si atom -12399.523847 kJ/mol
# Density = 2.033622 g / cm^3
# Si number density = 20.382616 Si / 1000 Ang^3
#
#
#
# Elastic Constant Matrix: (Units=GPa)
#
#
# Indices 1 2 3 4 5 6 
#
# 1 149.1699 44.1276 24.2325 0.0000 0.0000 0.0000
# 2 44.1276 100.2032 15.0105 0.0000 0.0000 0.0000
# 3 24.2325 15.0105 24.3398 0.0000 0.0000 0.0000
# 4 0.0000 0.0000 0.0000 19.3436 0.0000 0.0000
# 5 0.0000 0.0000 0.0000 0.0000 27.4171 0.0000
# 6 0.0000 0.0000 0.0000 0.0000 0.0000 32.4195
#
#
#
# Elastic Compliance Matrix: (Units=1/GPa)
#
#
# Indices 1 2 3 4 5 6 
#
# 1 0.008645 -0.002774 -0.006896 0.000000 0.000000 0.000000
# 2 -0.002774 0.011886 -0.004568 0.000000 0.000000 0.000000
# 3 -0.006896 -0.004568 0.050768 0.000000 0.000000 0.000000
# 4 0.000000 0.000000 0.000000 0.051697 0.000000 0.000000
# 5 0.000000 0.000000 0.000000 0.000000 0.036474 0.000000
# 6 0.000000 0.000000 0.000000 0.000000 0.000000 0.030846
#
#
# Mechanical properties :
#
#
# Convention : Reuss Voigt Hill
#
# Bulk Modulus (GPa) = 23.35248 48.93934 36.14591
# Shear Modulus (GPa) = 21.45337 28.52553 24.98945
#
# Velocity S-wave (km/s) = 3.24780 3.74505 3.50525
# Velocity P-wave (km/s) = 5.05432 6.53934 5.84419
#
# Compressibility (1/GPa) = 0.04282200
#
# Stress axis : x y z
#
# Youngs Moduli (GPa) = 115.67978 84.13514 19.69756
#
# Poissons Ratio (x) = 0.23338 0.13583
# Poissons Ratio (y) = 0.32089 0.08998
# Poissons Ratio (z) = 0.79770 0.38435
#
# Static dielectric constant tensor:
#      x y z
#    x 3.264030 0.000000 0.000000 
#    y 0.000000 3.816830 0.000000 
#    z 0.000000 0.000000 3.394320 
# 
# 
# High freq. dielectric constant tensor:
#      x y z
#    x 1.806220 0.000000 0.000000 
#    y 0.000000 1.808880 0.000000 
#    z 0.000000 0.000000 1.771890 
# 
# From -- ./inp_files/52617.got.cif
#   From: 2010.03.12/outbox.cif.g09.slc.cpg/sg66_27_cif.got.tgz:52617.got - 2010.04.10 21:57:39.
