data_PCOD8277569
_publ_section_title
;
Structure prediction by ZEFSAII (Michael W. Deem and Ramdas Pophale) SiO2 
 PCOD8277569
Probable space group: C C C M
;
_chemical_formula_sum "Si O2"
_cell_formula_units_Z 80
_cell_length_a 15.394726
_cell_length_b 11.658332
_cell_length_c 22.435549
_cell_angle_alpha 90.000000
_cell_angle_beta 90.000000
_cell_angle_gamma 90.000000
_cell_volume 4026.661141
_symmetry_space_group_name_H-M "C C C M"
_symmetry_group_IT_number 66
_symmetry_cell_setting 'orthorhombic'
loop_
_space_group_symop_operation_xyz
x,y,z
-x,-y,z
x,-y,1/2-z
-x,y,1/2-z
-x,-y,-z
x,y,-z
-x,y,1/2+z
x,-y,1/2+z
1/2+x,1/2+y,z
1/2-x,1/2-y,z
1/2+x,1/2-y,1/2-z
1/2-x,1/2+y,1/2-z
1/2-x,1/2-y,-z
1/2+x,1/2+y,-z
1/2-x,1/2+y,1/2+z
1/2+x,1/2-y,1/2+z
loop_
_atom_site_type_symbol
_atom_site_label
_atom_site_fract_x
_atom_site_fract_y
_atom_site_fract_z
Si Si1 0.126918 0.968574 0.820017
Si Si2 0.956368 0.375790 0.068391
Si Si3 0.823586 0.434762 0.837740
Si Si4 0.474385 0.678247 0.352971
Si Si5 0.092782 0.358968 0.226980
O O1 0.221504 0.948767 0.847032
O O2 0.070135 0.853823 0.828878
O O3 0.127541 0.000000 0.750000
O O4 0.082733 0.064244 0.863935
O O5 0.864719 0.380212 0.102869
O O6 0.000000 0.500000 0.075987
O O7 0.016280 0.271115 0.093572
O O8 0.937450 0.347272 0.000000
O O9 0.869506 0.555485 0.822914
O O10 0.840288 0.349840 0.781958
O O11 0.418446 0.734584 0.300271
O O12 0.000000 0.406285 0.250000
#
# Coordination Sequence:
#
# PCOD8277569 Si02
#       5
#    16  16  16  16  16
#     4  11  24  40  58  96 134 166 202 254 326 390
#     4  11  23  43  68  92 122 168 220 266 309 364
#     4  11  21  37  59  97 125 153 209 263 312 369
#     4  11  23  41  61  88 129 170 204 251 318 388
#     4  11  18  35  61  87 124 155 199 249 316 375
#
# _framework density 19.867577000000001
#
# number of rings (size 3 to 8) (size 9 to 14) (size 15 to 20)
#    0.000    1.000    6.000    3.600    0.000    1.600 
#    3.600    5.000    0.000    2.400    0.000    0.000 
#    0.000    0.000    0.000    0.000    0.000    0.000 
#
# Total GULP energy -495630.307529 kJ/mol
# GULP energy per Si atom -12390.757688 kJ/mol
# Density = 1.982236 g / cm^3
# Si number density = 19.867577 Si / 1000 Ang^3
#
#
#
# Elastic Constant Matrix: (Units=GPa)
#
#
# Indices 1 2 3 4 5 6 
#
# 1 131.9267 30.6812 38.1265 0.0000 0.0000 0.0000
# 2 30.6812 80.1568 46.9609 0.0000 0.0000 0.0000
# 3 38.1265 46.9609 121.1583 0.0000 0.0000 0.0000
# 4 0.0000 0.0000 0.0000 21.3494 0.0000 0.0000
# 5 0.0000 0.0000 0.0000 0.0000 13.8857 0.0000
# 6 0.0000 0.0000 0.0000 0.0000 0.0000 38.0215
#
#
#
# Elastic Compliance Matrix: (Units=1/GPa)
#
#
# Indices 1 2 3 4 5 6 
#
# 1 0.008632 -0.002216 -0.001858 0.000000 0.000000 0.000000
# 2 -0.002216 0.016710 -0.005779 0.000000 0.000000 0.000000
# 3 -0.001858 -0.005779 0.011078 0.000000 0.000000 0.000000
# 4 0.000000 0.000000 0.000000 0.046840 0.000000 0.000000
# 5 0.000000 0.000000 0.000000 0.000000 0.072016 0.000000
# 6 0.000000 0.000000 0.000000 0.000000 0.000000 0.026301
#
#
# Mechanical properties :
#
#
# Convention : Reuss Voigt Hill
#
# Bulk Modulus (GPa) = 59.82798 62.75321 61.29060
# Shear Modulus (GPa) = 24.17165 29.14954 26.66059
#
# Velocity S-wave (km/s) = 3.49182 3.83455 3.66719
# Velocity P-wave (km/s) = 6.81438 7.15956 6.98910
#
# Compressibility (1/GPa) = 0.01671459
#
# Stress axis : x y z
#
# Youngs Moduli (GPa) = 115.84660 59.84587 90.26685
#
# Poissons Ratio (x) = 0.13261 0.16767
# Poissons Ratio (y) = 0.25669 0.52168
# Poissons Ratio (z) = 0.21519 0.34587
#
# Static dielectric constant tensor:
#      x y z
#    x 3.563430 0.000000 0.000000 
#    y 0.000000 3.734480 0.000000 
#    z 0.000000 0.000000 3.396120 
# 
# 
# High freq. dielectric constant tensor:
#      x y z
#    x 1.768650 0.000000 0.000000 
#    y 0.000000 1.794300 0.000000 
#    z 0.000000 0.000000 1.732980 
# 
# From -- ./inp_files/57883.got.cif
#   From: 2010.03.12/outbox.cif.g09.slc.cpg/sg66_29_cif.got.tgz:57883.got - 2010.04.10 21:57:39.
