data_PCOD8277833
_publ_section_title
;
Structure prediction by ZEFSAII (Michael W. Deem and Ramdas Pophale) SiO2 
 PCOD8277833
Probable space group: C C C M
;
_chemical_formula_sum "Si O2"
_cell_formula_units_Z 64
_cell_length_a 8.754863
_cell_length_b 12.772289
_cell_length_c 22.504917
_cell_angle_alpha 90.000000
_cell_angle_beta 90.000000
_cell_angle_gamma 90.000000
_cell_volume 2516.491726
_symmetry_space_group_name_H-M "C C C M"
_symmetry_group_IT_number 66
_symmetry_cell_setting 'orthorhombic'
loop_
_space_group_symop_operation_xyz
x,y,z
-x,-y,z
x,-y,1/2-z
-x,y,1/2-z
-x,-y,-z
x,y,-z
-x,y,1/2+z
x,-y,1/2+z
1/2+x,1/2+y,z
1/2-x,1/2-y,z
1/2+x,1/2-y,1/2-z
1/2-x,1/2+y,1/2-z
1/2-x,1/2-y,-z
1/2+x,1/2+y,-z
1/2-x,1/2+y,1/2+z
1/2+x,1/2-y,1/2+z
loop_
_atom_site_type_symbol
_atom_site_label
_atom_site_fract_x
_atom_site_fract_y
_atom_site_fract_z
Si Si1 0.810872 0.867614 0.434489
Si Si2 0.403789 0.102912 0.666666
Si Si3 0.835450 0.878971 0.762494
Si Si4 0.396160 0.710386 0.382834
O O1 0.790213 0.918386 0.500000
O O2 0.750000 0.750000 0.435218
O O3 0.716948 0.932416 0.384975
O O4 0.992106 0.867157 0.418602
O O5 0.308973 0.156160 0.721696
O O6 0.509485 0.192226 0.641460
O O7 0.500000 0.000000 0.686678
O O8 0.804294 0.852558 0.830887
O O9 0.000000 0.825045 0.750000
O O10 0.850129 0.000000 0.750000
O O11 0.250000 0.750000 0.422388
#
# Coordination Sequence:
#
# PCOD8277833 Si02
#       4
#    16  16  16  16
#     4   9  20  41  66  92 128 175 224 276 331 390
#     4  11  24  43  65  98 132 172 224 271 333 403
#     4  11  24  40  62  91 129 169 212 267 327 395
#     4  11  24  39  67  96 132 175 217 274 335 400
#
# _framework density 25.432231000000002
#
# number of rings (size 3 to 8) (size 9 to 14) (size 15 to 20)
#    0.000    1.500    2.500    1.500    3.500    3.500 
#    0.000    0.000    0.000   10.500    0.000    0.000 
#    0.000    1.000    0.000    0.000    0.000    0.000 
#
# Total GULP energy -396448.194791 kJ/mol
# GULP energy per Si atom -12389.006087 kJ/mol
# Density = 2.537435 g / cm^3
# Si number density = 25.432231 Si / 1000 Ang^3
#
#
#
# Elastic Constant Matrix: (Units=GPa)
#
#
# Indices 1 2 3 4 5 6 
#
# 1 185.7208 14.6677 48.5634 0.0000 0.0000 0.0000
# 2 14.6677 51.4462 -3.9184 0.0000 0.0000 0.0000
# 3 48.5634 -3.9184 125.0127 0.0000 0.0000 0.0000
# 4 0.0000 0.0000 0.0000 -29.6470 0.0000 0.0000
# 5 0.0000 0.0000 0.0000 0.0000 35.4529 0.0000
# 6 0.0000 0.0000 0.0000 0.0000 0.0000 31.2832
#
#
#
# Elastic Compliance Matrix: (Units=1/GPa)
#
#
# Indices 1 2 3 4 5 6 
#
# 1 0.006182 -0.001950 -0.002463 0.000000 0.000000 0.000000
# 2 -0.001950 0.020100 0.001388 0.000000 0.000000 0.000000
# 3 -0.002463 0.001388 0.008999 0.000000 0.000000 0.000000
# 4 0.000000 0.000000 0.000000 -0.033730 0.000000 0.000000
# 5 0.000000 0.000000 0.000000 0.000000 0.028206 0.000000
# 6 0.000000 0.000000 0.000000 0.000000 0.000000 0.031966
#
#
# Mechanical properties :
#
#
# Convention : Reuss Voigt Hill
#
# Bulk Modulus (GPa) = 34.21088 53.42278 43.81683
# Shear Modulus (GPa) = 64.50121 27.60896 46.05509
#
# Velocity S-wave (km/s) = 5.04153 3.29840 4.26008
# Velocity P-wave (km/s) = 6.88261 5.96301 6.43925
#
# Compressibility (1/GPa) = 0.02923047
#
# Stress axis : x y z
#
# Youngs Moduli (GPa) = 161.74847 49.75246 111.11847
#
# Poissons Ratio (x) = 0.09703 0.27366
# Poissons Ratio (y) = 0.31545 -0.15419
# Poissons Ratio (z) = 0.39836 -0.06904
#
# Static dielectric constant tensor:
#      x y z
#    x 6.039980 0.000000 0.000000 
#    y 0.000000 2.867030 0.000000 
#    z 0.000000 0.000000 4.815140 
# 
# 
# High freq. dielectric constant tensor:
#      x y z
#    x 2.053700 0.000000 0.000000 
#    y 0.000000 1.997460 0.000000 
#    z 0.000000 0.000000 1.981690 
# 
# From -- ./inp_files/54958.got.cif
#   From: 2010.03.12/outbox.cif.g09.slc.cpg/sg66_28_cif.got.tgz:54958.got - 2010.04.10 21:57:39.
