data_PCOD8277994
_publ_section_title
;
Structure prediction by ZEFSAII (Michael W. Deem and Ramdas Pophale) SiO2 
 PCOD8277994
Probable space group: C M M A
;
_chemical_formula_sum "Si O2"
_cell_formula_units_Z 96
_cell_length_a 8.692232
_cell_length_b 27.753293
_cell_length_c 24.341265
_cell_angle_alpha 90.000000
_cell_angle_beta 90.000000
_cell_angle_gamma 90.000000
_cell_volume 5872.039584
_symmetry_space_group_name_H-M "C M M A"
_symmetry_group_IT_number 67
_symmetry_cell_setting 'orthorhombic'
loop_
_space_group_symop_operation_xyz
x,y,z
-x,1/2-y,z
x,-y,-z
-x,1/2+y,-z
-x,-y,-z
x,1/2+y,-z
-x,y,z
x,1/2-y,z
1/2+x,1/2+y,z
1/2-x,-y,z
1/2+x,1/2-y,-z
1/2-x,y,-z
1/2-x,1/2-y,-z
1/2+x,y,-z
1/2-x,1/2+y,z
1/2+x,-y,z
loop_
_atom_site_type_symbol
_atom_site_label
_atom_site_fract_x
_atom_site_fract_y
_atom_site_fract_z
Si Si1 0.818922 0.854900 0.557676
Si Si2 0.317316 0.103595 0.724545
Si Si3 0.683473 0.946883 0.165863
Si Si4 0.316707 0.303187 0.665985
Si Si5 0.818669 0.050751 0.382515
Si Si6 0.683203 0.946404 0.945231
O O1 0.750000 0.838429 0.500000
O O2 0.759540 0.819025 0.605426
O O3 0.767629 0.909361 0.572852
O O4 0.000000 0.851729 0.553200
O O5 0.500000 0.103385 0.723065
O O6 0.258692 0.086433 0.783947
O O7 0.257652 0.157884 0.711151
O O8 0.256703 0.066965 0.677607
O O9 0.500000 0.949777 0.161397
O O10 0.753466 0.922119 0.110711
O O11 0.750000 0.000000 0.175228
O O12 0.500000 0.302512 0.666354
O O13 0.250628 0.250000 0.679900
O O14 0.000000 0.045943 0.380736
O O15 0.750000 0.000000 0.400487
O O16 0.500000 0.946519 0.946478
O O17 0.750000 0.000000 0.944655
O O18 0.750000 0.919963 0.000000
#
# Coordination Sequence:
#
# PCOD8277994 Si02
#       6
#    16  16  16  16  16  16
#     4   9  18  30  43  61  83 104 130 166 202 240
#     4   8  15  26  40  59  82 105 132 168 203 240
#     4  10  17  25  38  58  84 112 141 170 201 235
#     4   8  14  27  46  64  81 103 130 162 204 249
#     4   9  17  29  42  57  79 107 137 166 199 236
#     4  10  17  26  38  54  79 112 148 178 204 232
#
# _framework density 16.348663999999999
#
# number of rings (size 3 to 8) (size 9 to 14) (size 15 to 20)
#    0.000    3.000    0.000    6.000    0.000    1.333 
#    0.000    2.500    0.000    2.000    0.000    0.000 
#    0.000    0.667    0.000    1.167    0.000    2.000 
#
# Total GULP energy -594777.257837 kJ/mol
# GULP energy per Si atom -12391.192872 kJ/mol
# Density = 1.631145 g / cm^3
# Si number density = 16.348664 Si / 1000 Ang^3
#
#
#
# Elastic Constant Matrix: (Units=GPa)
#
#
# Indices 1 2 3 4 5 6 
#
# 1 49.9044 13.6799 28.7222 0.0000 0.0000 0.0000
# 2 13.6799 92.2608 41.9065 0.0000 0.0000 0.0000
# 3 28.7222 41.9065 137.4646 0.0000 0.0000 0.0000
# 4 0.0000 0.0000 0.0000 15.8619 0.0000 0.0000
# 5 0.0000 0.0000 0.0000 0.0000 21.5661 0.0000
# 6 0.0000 0.0000 0.0000 0.0000 0.0000 10.9998
#
#
#
# Elastic Compliance Matrix: (Units=1/GPa)
#
#
# Indices 1 2 3 4 5 6 
#
# 1 0.022937 -0.001421 -0.004359 0.000000 0.000000 0.000000
# 2 -0.001421 0.012669 -0.003565 0.000000 0.000000 0.000000
# 3 -0.004359 -0.003565 0.009272 0.000000 0.000000 0.000000
# 4 0.000000 0.000000 0.000000 0.063044 0.000000 0.000000
# 5 0.000000 0.000000 0.000000 0.000000 0.046369 0.000000
# 6 0.000000 0.000000 0.000000 0.000000 0.000000 0.090911
#
#
# Mechanical properties :
#
#
# Convention : Reuss Voigt Hill
#
# Bulk Modulus (GPa) = 38.18673 49.80525 43.99599
# Shear Modulus (GPa) = 18.34044 22.70699 20.52372
#
# Velocity S-wave (km/s) = 3.35301 3.73087 3.54697
# Velocity P-wave (km/s) = 6.19666 7.00640 6.61394
#
# Compressibility (1/GPa) = 0.02618711
#
# Stress axis : x y z
#
# Youngs Moduli (GPa) = 43.59813 78.93325 107.84765
#
# Poissons Ratio (x) = 0.11215 0.47014
# Poissons Ratio (y) = 0.06195 0.38451
# Poissons Ratio (z) = 0.19006 0.28142
#
# Static dielectric constant tensor:
#      x y z
#    x 2.794250 0.000000 0.000000 
#    y 0.000000 3.183400 0.000000 
#    z 0.000000 0.000000 3.864790 
# 
# 
# High freq. dielectric constant tensor:
#      x y z
#    x 1.606620 0.000000 0.000000 
#    y 0.000000 1.592900 0.000000 
#    z 0.000000 0.000000 1.635430 
# 
# From -- ./inp_files/43814.got.cif
#   From: 2010.03.12/outbox.cif.g09.slc.cpg/sg67_22_cif.got.tgz:43814.got - 2010.04.10 22:41:39.
