data_PCOD8277973
_publ_section_title
;
Structure prediction by ZEFSAII (Michael W. Deem and Ramdas Pophale) SiO2 
 PCOD8277973
Probable space group: C M M A
;
_chemical_formula_sum "Si O2"
_cell_formula_units_Z 64
_cell_length_a 23.723335
_cell_length_b 15.437728
_cell_length_c 9.091244
_cell_angle_alpha 90.000000
_cell_angle_beta 90.000000
_cell_angle_gamma 90.000000
_cell_volume 3329.526228
_symmetry_space_group_name_H-M "C M M A"
_symmetry_group_IT_number 67
_symmetry_cell_setting 'orthorhombic'
loop_
_space_group_symop_operation_xyz
x,y,z
-x,1/2-y,z
x,-y,-z
-x,1/2+y,-z
-x,-y,-z
x,1/2+y,-z
-x,y,z
x,1/2-y,z
1/2+x,1/2+y,z
1/2-x,-y,z
1/2+x,1/2-y,-z
1/2-x,y,-z
1/2-x,1/2-y,-z
1/2+x,y,-z
1/2-x,1/2+y,z
1/2+x,-y,z
loop_
_atom_site_type_symbol
_atom_site_label
_atom_site_fract_x
_atom_site_fract_y
_atom_site_fract_z
Si Si1 0.817221 0.250000 0.173060
Si Si2 0.000000 0.154486 0.691024
Si Si3 0.812569 0.750000 0.173052
Si Si4 0.500000 0.087053 0.602962
Si Si5 0.378036 0.097135 0.322588
Si Si6 0.121313 0.904192 0.666723
O O1 0.752395 0.250000 0.220165
O O2 0.846357 0.335682 0.235012
O O3 0.822956 0.250000 0.999415
O O4 0.057333 0.104273 0.736828
O O5 0.000000 0.250000 0.762723
O O6 0.000000 0.165609 0.513801
O O7 0.839202 0.663199 0.236399
O O8 0.445287 0.093793 0.706394
O O9 0.500000 0.000000 0.500000
O O10 0.373277 0.119465 0.495059
O O11 0.354880 0.999970 0.296428
#
# Coordination Sequence:
#
# PCOD8277973 Si02
#       6
#     8   8   8   8  16  16
#     4  11  27  42  55  78 120 161 214 245 290 349
#     4  10  16  28  56  96 117 149 177 224 291 377
#     4  11  25  44  57  76 112 173 208 245 294 353
#     4  10  16  32  58  95 128 144 176 229 314 370
#     4  10  19  36  65  90 118 148 191 243 306 355
#     4  10  20  37  61  95 119 147 189 250 295 363
#
# _framework density 19.221952999999999
#
# number of rings (size 3 to 8) (size 9 to 14) (size 15 to 20)
#    0.000    1.750    6.250    0.750    5.250    4.000 
#    0.000    7.500    0.000    3.000    0.000    0.000 
#    0.000    0.000    0.000    0.000    0.000    0.000 
#
# Total GULP energy -396593.232348 kJ/mol
# GULP energy per Si atom -12393.538511 kJ/mol
# Density = 1.917820 g / cm^3
# Si number density = 19.221953 Si / 1000 Ang^3
#
#
#
# Elastic Constant Matrix: (Units=GPa)
#
#
# Indices 1 2 3 4 5 6 
#
# 1 156.8608 81.5652 61.5235 0.0000 0.0000 0.0000
# 2 81.5652 142.0174 48.6164 0.0000 0.0000 0.0000
# 3 61.5235 48.6164 55.1954 0.0000 0.0000 0.0000
# 4 0.0000 0.0000 0.0000 11.5919 0.0000 0.0000
# 5 0.0000 0.0000 0.0000 0.0000 282.1772 0.0000
# 6 0.0000 0.0000 0.0000 0.0000 0.0000 6.6730
#
#
#
# Elastic Compliance Matrix: (Units=1/GPa)
#
#
# Indices 1 2 3 4 5 6 
#
# 1 0.012387 -0.003418 -0.010796 0.000000 0.000000 0.000000
# 2 -0.003418 0.011024 -0.005900 0.000000 0.000000 0.000000
# 3 -0.010796 -0.005900 0.035348 0.000000 0.000000 0.000000
# 4 0.000000 0.000000 0.000000 0.086267 0.000000 0.000000
# 5 0.000000 0.000000 0.000000 0.000000 0.003544 0.000000
# 6 0.000000 0.000000 0.000000 0.000000 0.000000 0.149858
#
#
# Mechanical properties :
#
#
# Convention : Reuss Voigt Hill
#
# Bulk Modulus (GPa) = 53.96560 81.94265 67.95413
# Shear Modulus (GPa) = 14.49969 70.91298 42.70634
#
# Velocity S-wave (km/s) = 2.74949 6.08044 4.71866
# Velocity P-wave (km/s) = 6.18187 9.59260 8.06949
#
# Compressibility (1/GPa) = 0.01853032
#
# Stress axis : x y z
#
# Youngs Moduli (GPa) = 80.72909 90.70745 28.28996
#
# Poissons Ratio (x) = 0.31008 0.30543
# Poissons Ratio (y) = 0.27597 0.16691
# Poissons Ratio (z) = 0.87157 0.53517
#
# Static dielectric constant tensor:
#      x y z
#    x 3.668600 0.000000 0.000000 
#    y 0.000000 3.681060 0.000000 
#    z 0.000000 0.000000 3.135900 
# 
# 
# High freq. dielectric constant tensor:
#      x y z
#    x 1.750820 0.000000 0.000000 
#    y 0.000000 1.766920 0.000000 
#    z 0.000000 0.000000 1.701290 
# 
# From -- ./inp_files/10758.got.cif
#   From: 2010.03.12/outbox.cif.g09.slc.cpg/sg67_6_cif.got.tgz:10758.got - 2010.04.10 22:41:39.
