data_PCOD8277425
_publ_section_title
;
Structure prediction by ZEFSAII (Michael W. Deem and Ramdas Pophale) SiO2 
 PCOD8277425
Probable space group: C C C M
;
_chemical_formula_sum "Si O2"
_cell_formula_units_Z 68
_cell_length_a 28.066762
_cell_length_b 5.158857
_cell_length_c 19.132752
_cell_angle_alpha 90.000000
_cell_angle_beta 90.000000
_cell_angle_gamma 90.000000
_cell_volume 2770.277303
_symmetry_space_group_name_H-M "C C C M"
_symmetry_group_IT_number 66
_symmetry_cell_setting 'orthorhombic'
loop_
_space_group_symop_operation_xyz
x,y,z
-x,-y,z
x,-y,1/2-z
-x,y,1/2-z
-x,-y,-z
x,y,-z
-x,y,1/2+z
x,-y,1/2+z
1/2+x,1/2+y,z
1/2-x,1/2-y,z
1/2+x,1/2-y,1/2-z
1/2-x,1/2+y,1/2-z
1/2-x,1/2-y,-z
1/2+x,1/2+y,-z
1/2-x,1/2+y,1/2+z
1/2+x,1/2-y,1/2+z
loop_
_atom_site_type_symbol
_atom_site_label
_atom_site_fract_x
_atom_site_fract_y
_atom_site_fract_z
Si Si1 0.816674 0.753297 0.291996
Si Si2 0.209120 0.455081 0.919335
Si Si3 0.079683 0.189858 0.658648
Si Si4 0.102398 0.314901 0.079719
Si Si5 0.500000 0.500000 0.750000
O O1 0.801806 0.500000 0.250000
O O2 0.792663 0.713619 0.369632
O O3 0.873549 0.777471 0.293902
O O4 0.795090 0.000000 0.250000
O O5 0.250000 0.250000 0.899666
O O6 0.159144 0.308388 0.906399
O O7 0.213562 0.551327 0.000000
O O8 0.078208 0.415527 0.601446
O O9 0.078607 0.912397 0.622447
O O10 0.032896 0.197742 0.706169
O O11 0.090410 0.266758 0.000000
#
# Coordination Sequence:
#
# PCOD8277425 Si02
#       5
#    16  16  16  16   4
#     4  11  22  43  69 100 145 191 235 292 365 423
#     4   9  20  41  72 108 144 188 243 294 346 424
#     4  11  24  42  67 100 132 182 231 289 352 418
#     4  10  22  44  70  97 138 182 227 282 355 420
#     4  12  28  42  70 102 136 174 248 292 336 438
#
# _framework density 24.546282000000001
#
# number of rings (size 3 to 8) (size 9 to 14) (size 15 to 20)
#    0.000    1.647    1.176    3.529    0.000    2.824 
#    0.000   18.824    0.000   32.471    0.000    0.000 
#    0.000    2.824    0.000    0.000    0.000    0.471 
#
# Total GULP energy -421644.221142 kJ/mol
# GULP energy per Si atom -12401.300622 kJ/mol
# Density = 2.449041 g / cm^3
# Si number density = 24.546282 Si / 1000 Ang^3
#
#
#
# Elastic Constant Matrix: (Units=GPa)
#
#
# Indices 1 2 3 4 5 6 
#
# 1 147.4063 27.7183 51.6852 0.0000 0.0000 0.0000
# 2 27.7183 142.3302 63.3239 0.0000 0.0000 0.0000
# 3 51.6852 63.3239 151.9945 0.0000 0.0000 0.0000
# 4 0.0000 0.0000 0.0000 30.1912 0.0000 0.0000
# 5 0.0000 0.0000 0.0000 0.0000 90.0493 0.0000
# 6 0.0000 0.0000 0.0000 0.0000 0.0000 25.9459
#
#
#
# Elastic Compliance Matrix: (Units=1/GPa)
#
#
# Indices 1 2 3 4 5 6 
#
# 1 0.007722 -0.000412 -0.002454 0.000000 0.000000 0.000000
# 2 -0.000412 0.008647 -0.003462 0.000000 0.000000 0.000000
# 3 -0.002454 -0.003462 0.008856 0.000000 0.000000 0.000000
# 4 0.000000 0.000000 0.000000 0.033122 0.000000 0.000000
# 5 0.000000 0.000000 0.000000 0.000000 0.011105 0.000000
# 6 0.000000 0.000000 0.000000 0.000000 0.000000 0.038542
#
#
# Mechanical properties :
#
#
# Convention : Reuss Voigt Hill
#
# Bulk Modulus (GPa) = 79.56779 80.79841 80.18310
# Shear Modulus (GPa) = 40.05137 49.17086 44.61111
#
# Velocity S-wave (km/s) = 4.04377 4.48056 4.26776
# Velocity P-wave (km/s) = 7.36808 7.73016 7.55129
#
# Compressibility (1/GPa) = 0.01256790
#
# Stress axis : x y z
#
# Youngs Moduli (GPa) = 129.50102 115.65353 112.91572
#
# Poissons Ratio (x) = 0.04764 0.27712
# Poissons Ratio (y) = 0.05334 0.39094
# Poissons Ratio (z) = 0.31782 0.40042
#
# Static dielectric constant tensor:
#      x y z
#    x 4.389780 0.000000 0.000000 
#    y 0.000000 4.336740 0.000000 
#    z 0.000000 0.000000 4.836910 
# 
# 
# High freq. dielectric constant tensor:
#      x y z
#    x 1.970230 0.000000 0.000000 
#    y 0.000000 1.977390 0.000000 
#    z 0.000000 0.000000 1.987980 
# 
# From -- ./inp_files/52822.got.cif
#   From: 2010.03.12/outbox.cif.g09.slc.cpg/sg66_27_cif.got.tgz:52822.got - 2010.04.10 21:57:39.
