data_PCOD8277353
_publ_section_title
;
Structure prediction by ZEFSAII (Michael W. Deem and Ramdas Pophale) SiO2 
 PCOD8277353
Probable space group: C C C M
;
_chemical_formula_sum "Si O2"
_cell_formula_units_Z 120
_cell_length_a 25.336405
_cell_length_b 8.997717
_cell_length_c 26.715588
_cell_angle_alpha 90.000000
_cell_angle_beta 90.000000
_cell_angle_gamma 90.000000
_cell_volume 6090.347306
_symmetry_space_group_name_H-M "C C C M"
_symmetry_group_IT_number 66
_symmetry_cell_setting 'orthorhombic'
loop_
_space_group_symop_operation_xyz
x,y,z
-x,-y,z
x,-y,1/2-z
-x,y,1/2-z
-x,-y,-z
x,y,-z
-x,y,1/2+z
x,-y,1/2+z
1/2+x,1/2+y,z
1/2-x,1/2-y,z
1/2+x,1/2-y,1/2-z
1/2-x,1/2+y,1/2-z
1/2-x,1/2-y,-z
1/2+x,1/2+y,-z
1/2-x,1/2+y,1/2+z
1/2+x,1/2-y,1/2+z
loop_
_atom_site_type_symbol
_atom_site_label
_atom_site_fract_x
_atom_site_fract_y
_atom_site_fract_z
Si Si1 0.141266 0.790681 0.631631
Si Si2 0.858532 0.785890 0.442563
Si Si3 0.750000 0.750000 0.698953
Si Si4 0.650701 0.828535 0.241329
Si Si5 0.227376 0.965216 0.885995
Si Si6 0.331393 0.957090 0.557525
Si Si7 0.943081 0.036384 0.883770
Si Si8 0.945116 0.151570 0.224865
O O1 0.146291 0.701995 0.682859
O O2 0.138491 0.672486 0.586836
O O3 0.192058 0.893959 0.626946
O O4 0.087858 0.885668 0.629676
O O5 0.850232 0.831902 0.500000
O O6 0.807045 0.836642 0.412066
O O7 0.864438 0.609153 0.436193
O O8 0.911229 0.863828 0.422892
O O9 0.698648 0.738425 0.733798
O O10 0.748196 0.898354 0.664905
O O11 0.596913 0.781635 0.268548
O O12 0.660856 0.000000 0.250000
O O13 0.272303 0.021666 0.922848
O O14 0.328076 0.908264 0.500000
O O15 0.954038 0.129649 0.833763
O O16 0.000000 0.000000 0.908046
O O17 0.000000 0.199679 0.250000
O O18 0.923284 0.000000 0.250000
#
# Coordination Sequence:
#
# PCOD8277353 Si02
#       8
#    16  16   8  16  16  16  16  16
#     4  11  25  39  60  92 124 164 208 256 312 370
#     4  10  22  40  65  93 123 162 209 259 314 372
#     4  12  26  38  61  94 131 172 206 256 318 380
#     4  12  27  38  59  90 133 170 201 254 315 383
#     4  11  22  40  64  88 123 166 216 250 299 373
#     4  11  23  41  62  89 126 164 208 260 309 366
#     4  11  22  42  69  92 119 160 210 266 313 377
#     4  11  21  43  68  91 119 161 212 256 313 361
#
# _framework density 19.703309000000001
#
# number of rings (size 3 to 8) (size 9 to 14) (size 15 to 20)
#    0.000    0.933    4.000    3.200    5.600    4.800 
#    0.000    0.667    0.000    1.600    0.000    0.000 
#    0.000    0.000    0.000    0.000    0.000    0.000 
#
# Total GULP energy -744393.123244 kJ/mol
# GULP energy per Si atom -12406.552054 kJ/mol
# Density = 1.965846 g / cm^3
# Si number density = 19.703309 Si / 1000 Ang^3
#
#
#
# Elastic Constant Matrix: (Units=GPa)
#
#
# Indices 1 2 3 4 5 6 
#
# 1 117.7504 33.7771 60.8302 0.0000 0.0000 0.0000
# 2 33.7771 85.2167 48.7343 0.0000 0.0000 0.0000
# 3 60.8302 48.7343 84.6881 0.0000 0.0000 0.0000
# 4 0.0000 0.0000 0.0000 28.1032 0.0000 0.0000
# 5 0.0000 0.0000 0.0000 0.0000 24.3539 0.0000
# 6 0.0000 0.0000 0.0000 0.0000 0.0000 20.2395
#
#
#
# Elastic Compliance Matrix: (Units=1/GPa)
#
#
# Indices 1 2 3 4 5 6 
#
# 1 0.013508 0.000290 -0.009869 0.000000 0.000000 0.000000
# 2 0.000290 0.017497 -0.010277 0.000000 0.000000 0.000000
# 3 -0.009869 -0.010277 0.024811 0.000000 0.000000 0.000000
# 4 0.000000 0.000000 0.000000 0.035583 0.000000 0.000000
# 5 0.000000 0.000000 0.000000 0.000000 0.041061 0.000000
# 6 0.000000 0.000000 0.000000 0.000000 0.000000 0.049408
#
#
# Mechanical properties :
#
#
# Convention : Reuss Voigt Hill
#
# Bulk Modulus (GPa) = 62.09973 63.81537 62.95755
# Shear Modulus (GPa) = 22.03128 24.16023 23.09575
#
# Velocity S-wave (km/s) = 3.34750 3.50552 3.42742
# Velocity P-wave (km/s) = 6.82106 6.98880 6.90544
#
# Compressibility (1/GPa) = 0.01610313
#
# Stress axis : x y z
#
# Youngs Moduli (GPa) = 74.03067 57.15181 40.30423
#
# Poissons Ratio (x) = -0.01658 0.39778
# Poissons Ratio (y) = -0.02148 0.41422
# Poissons Ratio (z) = 0.73065 0.58737
#
# Static dielectric constant tensor:
#      x y z
#    x 3.646420 0.000000 0.000000 
#    y 0.000000 3.594030 0.000000 
#    z 0.000000 0.000000 3.730630 
# 
# 
# High freq. dielectric constant tensor:
#      x y z
#    x 1.764010 0.000000 0.000000 
#    y 0.000000 1.768040 0.000000 
#    z 0.000000 0.000000 1.778710 
# 
# From -- ./inp_files/66322.got.cif
#   From: 2010.03.12/outbox.cif.g09.slc.cpg/sg66_34_cif.got.tgz:66322.got - 2010.04.10 21:57:39.
