data_PCOD8277902
_publ_section_title
;
Structure prediction by ZEFSAII (Michael W. Deem and Ramdas Pophale) SiO2 
 PCOD8277902
Probable space group: C C C M
;
_chemical_formula_sum "Si O2"
_cell_formula_units_Z 88
_cell_length_a 11.535705
_cell_length_b 22.151327
_cell_length_c 15.032569
_cell_angle_alpha 90.000000
_cell_angle_beta 90.000000
_cell_angle_gamma 90.000000
_cell_volume 3841.289999
_symmetry_space_group_name_H-M "C C C M"
_symmetry_group_IT_number 66
_symmetry_cell_setting 'orthorhombic'
loop_
_space_group_symop_operation_xyz
x,y,z
-x,-y,z
x,-y,1/2-z
-x,y,1/2-z
-x,-y,-z
x,y,-z
-x,y,1/2+z
x,-y,1/2+z
1/2+x,1/2+y,z
1/2-x,1/2-y,z
1/2+x,1/2-y,1/2-z
1/2-x,1/2+y,1/2-z
1/2-x,1/2-y,-z
1/2+x,1/2+y,-z
1/2-x,1/2+y,1/2+z
1/2+x,1/2-y,1/2+z
loop_
_atom_site_type_symbol
_atom_site_label
_atom_site_fract_x
_atom_site_fract_y
_atom_site_fract_z
Si Si1 0.324553 0.691903 0.669625
Si Si2 0.942448 0.565000 0.000000
Si Si3 0.939420 0.756230 0.600042
Si Si4 0.033701 0.069220 0.500000
Si Si5 0.283026 0.623411 0.500000
Si Si6 0.317872 0.368881 0.352126
Si Si7 0.060968 0.373578 0.339968
O O1 0.250000 0.750000 0.702226
O O2 0.452161 0.707815 0.638186
O O3 0.253911 0.662698 0.587727
O O4 0.343435 0.641944 0.747308
O O5 0.801600 0.564504 0.000000
O O6 0.000000 0.500000 0.000000
O O7 0.978330 0.602867 0.084627
O O8 0.961989 0.734175 0.500000
O O9 0.829977 0.802327 0.602548
O O10 0.921918 0.698564 0.662271
O O11 0.101589 0.085012 0.408271
O O12 0.916914 0.107170 0.500000
O O13 0.000000 0.000000 0.500000
O O14 0.190193 0.398711 0.356782
O O15 0.000000 0.395778 0.250000
#
# Coordination Sequence:
#
# PCOD8277902 Si02
#       7
#    16   8  16   8   8  16  16
#     4  12  23  41  71 111 154 192 233 300 379 468
#     4  12  29  48  74  96 135 193 247 311 365 426
#     4  12  22  39  68 112 150 190 233 290 380 454
#     4  12  29  50  77 106 143 201 261 324 381 442
#     4  12  25  48  73 105 145 194 257 299 373 457
#     4  12  24  45  72 107 149 185 242 310 374 443
#     4  12  26  46  71 107 145 193 243 297 372 451
#
# _framework density 22.90897
#
# number of rings (size 3 to 8) (size 9 to 14) (size 15 to 20)
#    0.000    0.000    4.545    7.364    2.545    1.091 
#    0.000    1.818    0.000    0.000    0.000    0.000 
#    0.000    0.000    0.000    0.000    0.000    0.000 
#
# Total GULP energy -545436.697557 kJ/mol
# GULP energy per Si atom -12396.288581 kJ/mol
# Density = 2.285683 g / cm^3
# Si number density = 22.908970 Si / 1000 Ang^3
#
#
#
# Elastic Constant Matrix: (Units=GPa)
#
#
# Indices 1 2 3 4 5 6 
#
# 1 141.6819 26.3886 45.7548 0.0000 0.0000 0.0000
# 2 26.3886 95.4599 40.8562 0.0000 0.0000 0.0000
# 3 45.7548 40.8562 180.2001 0.0000 0.0000 0.0000
# 4 0.0000 0.0000 0.0000 16.5437 0.0000 0.0000
# 5 0.0000 0.0000 0.0000 0.0000 26.5689 0.0000
# 6 0.0000 0.0000 0.0000 0.0000 0.0000 32.2792
#
#
#
# Elastic Compliance Matrix: (Units=1/GPa)
#
#
# Indices 1 2 3 4 5 6 
#
# 1 0.007869 -0.001462 -0.001666 0.000000 0.000000 0.000000
# 2 -0.001462 0.011873 -0.002321 0.000000 0.000000 0.000000
# 3 -0.001666 -0.002321 0.006499 0.000000 0.000000 0.000000
# 4 0.000000 0.000000 0.000000 0.060446 0.000000 0.000000
# 5 0.000000 0.000000 0.000000 0.000000 0.037638 0.000000
# 6 0.000000 0.000000 0.000000 0.000000 0.000000 0.030980
#
#
# Mechanical properties :
#
#
# Convention : Reuss Voigt Hill
#
# Bulk Modulus (GPa) = 65.18054 71.48236 68.33145
# Shear Modulus (GPa) = 29.18582 35.36784 32.27683
#
# Velocity S-wave (km/s) = 3.57317 3.93344 3.75763
# Velocity P-wave (km/s) = 6.74812 7.20415 6.97986
#
# Compressibility (1/GPa) = 0.01534200
#
# Stress axis : x y z
#
# Youngs Moduli (GPa) = 127.08877 84.22480 153.87726
#
# Poissons Ratio (x) = 0.12313 0.25643
# Poissons Ratio (y) = 0.18579 0.35711
# Poissons Ratio (z) = 0.21179 0.19546
#
# Static dielectric constant tensor:
#      x y z
#    x 4.389480 0.000000 0.000000 
#    y 0.000000 4.037700 0.000000 
#    z 0.000000 0.000000 4.416250 
# 
# 
# High freq. dielectric constant tensor:
#      x y z
#    x 1.925090 0.000000 0.000000 
#    y 0.000000 1.862470 0.000000 
#    z 0.000000 0.000000 1.924090 
# 
# From -- ./inp_files/26587.got.cif
#   From: 2010.03.12/outbox.cif.g09.slc.cpg/sg66_14_cif.got.tgz:26587.got - 2010.04.10 21:57:39.
