data_PCOD8277156
_publ_section_title
;
Structure prediction by ZEFSAII (Michael W. Deem and Ramdas Pophale) SiO2 
 PCOD8277156
Probable space group: C C C M
;
_chemical_formula_sum "Si O2"
_cell_formula_units_Z 72
_cell_length_a 8.509828
_cell_length_b 27.082816
_cell_length_c 14.330702
_cell_angle_alpha 90.000000
_cell_angle_beta 90.000000
_cell_angle_gamma 90.000000
_cell_volume 3302.798408
_symmetry_space_group_name_H-M "C C C M"
_symmetry_group_IT_number 66
_symmetry_cell_setting 'orthorhombic'
loop_
_space_group_symop_operation_xyz
x,y,z
-x,-y,z
x,-y,1/2-z
-x,y,1/2-z
-x,-y,-z
x,y,-z
-x,y,1/2+z
x,-y,1/2+z
1/2+x,1/2+y,z
1/2-x,1/2-y,z
1/2+x,1/2-y,1/2-z
1/2-x,1/2+y,1/2-z
1/2-x,1/2-y,-z
1/2+x,1/2+y,-z
1/2-x,1/2+y,1/2+z
1/2+x,1/2-y,1/2+z
loop_
_atom_site_type_symbol
_atom_site_label
_atom_site_fract_x
_atom_site_fract_y
_atom_site_fract_z
Si Si1 0.959583 0.880142 0.850297
Si Si2 0.712338 0.194277 0.603142
Si Si3 0.670535 0.522798 0.103022
Si Si4 0.500000 0.861240 0.750000
Si Si5 0.790469 0.578889 0.394159
O O1 0.873874 0.836729 0.905886
O O2 0.837789 0.927061 0.835526
O O3 0.000000 0.858397 0.750000
O O4 0.117310 0.896918 0.902221
O O5 0.631371 0.192545 0.500000
O O6 0.750000 0.250000 0.631281
O O7 0.605679 0.173171 0.685272
O O8 0.500000 0.500000 0.098489
O O9 0.783149 0.478789 0.139670
O O10 0.724990 0.539645 0.000000
O O11 0.601280 0.894352 0.680284
O O12 0.859908 0.581642 0.500000
#
# Coordination Sequence:
#
# PCOD8277156 Si02
#       5
#    16  16  16   8  16
#     4  11  20  39  67  96 121 169 220 270 310 385
#     4  11  26  46  67  92 127 169 218 278 334 382
#     4   8  16  32  58  90 122 156 201 255 307 367
#     4  12  24  42  65  98 132 172 217 268 326 404
#     4  10  21  39  64  96 133 171 210 262 325 386
#
# _framework density 21.799696000000001
#
# number of rings (size 3 to 8) (size 9 to 14) (size 15 to 20)
#    0.000    1.778    2.222    4.000    1.556    4.000 
#    0.000    2.222    0.000    9.333    0.000    0.000 
#    0.000    0.000    0.000    0.000    0.000    0.000 
#
# Total GULP energy -446064.740107 kJ/mol
# GULP energy per Si atom -12390.687225 kJ/mol
# Density = 2.175008 g / cm^3
# Si number density = 21.799696 Si / 1000 Ang^3
#
#
#
# Elastic Constant Matrix: (Units=GPa)
#
#
# Indices 1 2 3 4 5 6 
#
# 1 81.0929 64.3641 45.1181 0.0000 0.0000 0.0000
# 2 64.3641 160.0021 57.5499 0.0000 0.0000 0.0000
# 3 45.1181 57.5499 129.4053 0.0000 0.0000 0.0000
# 4 0.0000 0.0000 0.0000 19.1643 0.0000 0.0000
# 5 0.0000 0.0000 0.0000 0.0000 7.6815 0.0000
# 6 0.0000 0.0000 0.0000 0.0000 0.0000 18.9873
#
#
#
# Elastic Compliance Matrix: (Units=1/GPa)
#
#
# Indices 1 2 3 4 5 6 
#
# 1 0.019700 -0.006493 -0.003981 0.000000 0.000000 0.000000
# 2 -0.006493 0.009580 -0.001997 0.000000 0.000000 0.000000
# 3 -0.003981 -0.001997 0.010004 0.000000 0.000000 0.000000
# 4 0.000000 0.000000 0.000000 0.052180 0.000000 0.000000
# 5 0.000000 0.000000 0.000000 0.000000 0.130182 0.000000
# 6 0.000000 0.000000 0.000000 0.000000 0.000000 0.052667
#
#
# Mechanical properties :
#
#
# Convention : Reuss Voigt Hill
#
# Bulk Modulus (GPa) = 69.72282 78.28494 74.00388
# Shear Modulus (GPa) = 16.44551 22.73118 19.58835
#
# Velocity S-wave (km/s) = 2.74960 3.23264 3.00085
# Velocity P-wave (km/s) = 6.49101 7.06557 6.78437
#
# Compressibility (1/GPa) = 0.01434251
#
# Stress axis : x y z
#
# Youngs Moduli (GPa) = 50.76191 104.38485 99.96353
#
# Poissons Ratio (x) = 0.67774 0.39795
# Poissons Ratio (y) = 0.32958 0.19960
# Poissons Ratio (z) = 0.20208 0.20843
#
# Static dielectric constant tensor:
#      x y z
#    x 3.744460 0.000000 0.000000 
#    y 0.000000 4.076190 0.000000 
#    z 0.000000 0.000000 4.065900 
# 
# 
# High freq. dielectric constant tensor:
#      x y z
#    x 1.826080 0.000000 0.000000 
#    y 0.000000 1.853660 0.000000 
#    z 0.000000 0.000000 1.872450 
# 
# From -- ./inp_files/24489.got.cif
#   From: 2010.03.12/outbox.cif.g09.slc.cpg/sg66_13_cif.got.tgz:24489.got - 2010.04.10 21:57:39.
