data_PCOD8277310
_publ_section_title
;
Structure prediction by ZEFSAII (Michael W. Deem and Ramdas Pophale) SiO2 
 PCOD8277310
Probable space group: C C C M
;
_chemical_formula_sum "Si O2"
_cell_formula_units_Z 96
_cell_length_a 24.243355
_cell_length_b 12.036840
_cell_length_c 16.882170
_cell_angle_alpha 90.000000
_cell_angle_beta 90.000000
_cell_angle_gamma 90.000000
_cell_volume 4926.443177
_symmetry_space_group_name_H-M "C C C M"
_symmetry_group_IT_number 66
_symmetry_cell_setting 'orthorhombic'
loop_
_space_group_symop_operation_xyz
x,y,z
-x,-y,z
x,-y,1/2-z
-x,y,1/2-z
-x,-y,-z
x,y,-z
-x,y,1/2+z
x,-y,1/2+z
1/2+x,1/2+y,z
1/2-x,1/2-y,z
1/2+x,1/2-y,1/2-z
1/2-x,1/2+y,1/2-z
1/2-x,1/2-y,-z
1/2+x,1/2+y,-z
1/2-x,1/2+y,1/2+z
1/2+x,1/2-y,1/2+z
loop_
_atom_site_type_symbol
_atom_site_label
_atom_site_fract_x
_atom_site_fract_y
_atom_site_fract_z
Si Si1 0.063479 0.007459 0.414485
Si Si2 0.733443 0.376185 0.411944
Si Si3 0.124955 0.190823 0.155275
Si Si4 0.555013 0.705776 0.699553
Si Si5 0.051800 0.420655 0.406962
Si Si6 0.149490 0.573245 0.592347
O O1 0.092852 0.030067 0.500000
O O2 0.076511 0.103444 0.352351
O O3 0.078413 0.887207 0.380758
O O4 0.000000 0.000000 0.430734
O O5 0.717207 0.422689 0.500000
O O6 0.750000 0.250000 0.423657
O O7 0.682183 0.380390 0.350792
O O8 0.787261 0.440692 0.375415
O O9 0.107835 0.225538 0.243948
O O10 0.126866 0.303396 0.105684
O O11 0.500000 0.678026 0.750000
O O12 0.543069 0.810470 0.643830
O O13 0.056207 0.390258 0.500000
O O14 0.106984 0.481857 0.373690
O O15 0.000000 0.500000 0.391404
O O16 0.152359 0.554116 0.500000
#
# Coordination Sequence:
#
# PCOD8277310 Si02
#       6
#    16  16  16  16  16  16
#     4  11  23  38  58  80 108 150 195 233 278 342
#     4   8  15  31  57  87 113 144 191 239 281 327
#     4  11  20  33  60  86 116 147 185 239 292 341
#     4  12  24  38  54  81 122 153 185 234 297 349
#     4  10  22  39  60  86 117 158 200 233 280 351
#     4   9  18  35  61  90 118 149 193 242 281 332
#
# _framework density 19.486675999999999
#
# number of rings (size 3 to 8) (size 9 to 14) (size 15 to 20)
#    0.000    1.833    1.667    4.500    0.000    2.333 
#    0.000    0.000   22.000    0.000    0.000    4.667 
#    0.000    0.000    0.000    0.000    0.000    0.000 
#
# Total GULP energy -594763.308970 kJ/mol
# GULP energy per Si atom -12390.902270 kJ/mol
# Density = 1.944232 g / cm^3
# Si number density = 19.486676 Si / 1000 Ang^3
#
#
#
# Elastic Constant Matrix: (Units=GPa)
#
#
# Indices 1 2 3 4 5 6 
#
# 1 86.2712 11.8474 40.8536 0.0000 0.0000 0.0000
# 2 11.8474 61.4417 26.7557 0.0000 0.0000 0.0000
# 3 40.8536 26.7557 70.8056 0.0000 0.0000 0.0000
# 4 0.0000 0.0000 0.0000 13.3868 0.0000 0.0000
# 5 0.0000 0.0000 0.0000 0.0000 21.4686 0.0000
# 6 0.0000 0.0000 0.0000 0.0000 0.0000 28.5631
#
#
#
# Elastic Compliance Matrix: (Units=1/GPa)
#
#
# Indices 1 2 3 4 5 6 
#
# 1 0.016013 0.001120 -0.009663 0.000000 0.000000 0.000000
# 2 0.001120 0.019560 -0.008037 0.000000 0.000000 0.000000
# 3 -0.009663 -0.008037 0.022735 0.000000 0.000000 0.000000
# 4 0.000000 0.000000 0.000000 0.074701 0.000000 0.000000
# 5 0.000000 0.000000 0.000000 0.000000 0.046580 0.000000
# 6 0.000000 0.000000 0.000000 0.000000 0.000000 0.035010
#
#
# Mechanical properties :
#
#
# Convention : Reuss Voigt Hill
#
# Bulk Modulus (GPa) = 39.76386 41.93689 40.85038
# Shear Modulus (GPa) = 19.52047 21.95448 20.73748
#
# Velocity S-wave (km/s) = 3.16845 3.36019 3.26573
# Velocity P-wave (km/s) = 5.81682 6.05161 5.93538
#
# Compressibility (1/GPa) = 0.02514846
#
# Stress axis : x y z
#
# Youngs Moduli (GPa) = 62.44829 51.12578 43.98426
#
# Poissons Ratio (x) = -0.05726 0.42500
# Poissons Ratio (y) = -0.06994 0.35351
# Poissons Ratio (z) = 0.60341 0.41091
#
# Static dielectric constant tensor:
#      x y z
#    x 4.284910 0.000000 0.000000 
#    y 0.000000 3.460860 0.000000 
#    z 0.000000 0.000000 3.625070 
# 
# 
# High freq. dielectric constant tensor:
#      x y z
#    x 1.763240 0.000000 0.000000 
#    y 0.000000 1.737910 0.000000 
#    z 0.000000 0.000000 1.750600 
# 
# From -- ./inp_files/43568.got.cif
#   From: 2010.03.12/outbox.cif.g09.slc.cpg/sg66_22_cif.got.tgz:43568.got - 2010.04.10 21:57:39.
