data_PCOD8277735
_publ_section_title
;
Structure prediction by ZEFSAII (Michael W. Deem and Ramdas Pophale) SiO2 
 PCOD8277735
Probable space group: C C C M
;
_chemical_formula_sum "Si O2"
_cell_formula_units_Z 112
_cell_length_a 11.632712
_cell_length_b 26.719266
_cell_length_c 17.329646
_cell_angle_alpha 90.000000
_cell_angle_beta 90.000000
_cell_angle_gamma 90.000000
_cell_volume 5386.357700
_symmetry_space_group_name_H-M "C C C M"
_symmetry_group_IT_number 66
_symmetry_cell_setting 'orthorhombic'
loop_
_space_group_symop_operation_xyz
x,y,z
-x,-y,z
x,-y,1/2-z
-x,y,1/2-z
-x,-y,-z
x,y,-z
-x,y,1/2+z
x,-y,1/2+z
1/2+x,1/2+y,z
1/2-x,1/2-y,z
1/2+x,1/2-y,1/2-z
1/2-x,1/2+y,1/2-z
1/2-x,1/2-y,-z
1/2+x,1/2+y,-z
1/2-x,1/2+y,1/2+z
1/2+x,1/2-y,1/2+z
loop_
_atom_site_type_symbol
_atom_site_label
_atom_site_fract_x
_atom_site_fract_y
_atom_site_fract_z
Si Si1 0.959814 0.665039 0.665336
Si Si2 0.457515 0.268097 0.588857
Si Si3 0.654486 0.112877 0.588857
Si Si4 0.914176 0.070995 0.091269
Si Si5 0.308215 0.696503 0.651276
Si Si6 0.837389 0.035823 0.409436
Si Si7 0.805137 0.161984 0.821433
O O1 0.982291 0.710593 0.607498
O O2 0.827586 0.650166 0.663351
O O3 0.000000 0.682312 0.750000
O O4 0.035963 0.617840 0.636945
O O5 0.427206 0.274772 0.500000
O O6 0.570202 0.300024 0.608939
O O7 0.347577 0.287190 0.637205
O O8 0.622944 0.103718 0.500000
O O9 0.725998 0.164238 0.596465
O O10 0.727850 0.066230 0.624338
O O11 0.875150 0.116494 0.143157
O O12 0.043220 0.059460 0.119482
O O13 0.833181 0.023054 0.110673
O O14 0.907553 0.083879 0.000000
O O15 0.250000 0.750000 0.667580
O O16 0.328232 0.667388 0.731052
O O17 0.835887 0.043617 0.500000
#
# Coordination Sequence:
#
# PCOD8277735 Si02
#       7
#    16  16  16  16  16  16  16
#     4  12  24  43  60  84 129 174 211 259 323 379
#     4  12  25  39  61  93 125 164 220 269 314 378
#     4  11  22  38  66  94 120 161 216 262 309 376
#     4   9  18  37  65  96 130 163 205 261 328 387
#     4  12  23  41  63  87 128 170 208 256 316 375
#     4   8  17  37  65  97 128 159 201 268 329 379
#     4  12  24  39  62  89 127 172 211 259 321 383
#
# _framework density 20.793271000000001
#
# number of rings (size 3 to 8) (size 9 to 14) (size 15 to 20)
#    0.000    1.143    2.857    5.571    0.000    4.571 
#    0.000    1.429    0.000    5.143    0.000    0.000 
#    0.000    0.000    0.000    0.000    0.000    0.000 
#
# Total GULP energy -694506.717528 kJ/mol
# GULP energy per Si atom -12401.905670 kJ/mol
# Density = 2.074594 g / cm^3
# Si number density = 20.793271 Si / 1000 Ang^3
#
#
#
# Elastic Constant Matrix: (Units=GPa)
#
#
# Indices 1 2 3 4 5 6 
#
# 1 84.2185 13.8481 20.9811 0.0000 0.0000 0.0000
# 2 13.8481 73.9397 9.8284 0.0000 0.0000 0.0000
# 3 20.9811 9.8284 74.8105 0.0000 0.0000 0.0000
# 4 0.0000 0.0000 0.0000 26.0539 0.0000 0.0000
# 5 0.0000 0.0000 0.0000 0.0000 26.8824 0.0000
# 6 0.0000 0.0000 0.0000 0.0000 0.0000 39.3670
#
#
#
# Elastic Compliance Matrix: (Units=1/GPa)
#
#
# Indices 1 2 3 4 5 6 
#
# 1 0.013048 -0.001992 -0.003398 0.000000 0.000000 0.000000
# 2 -0.001992 0.014069 -0.001290 0.000000 0.000000 0.000000
# 3 -0.003398 -0.001290 0.014489 0.000000 0.000000 0.000000
# 4 0.000000 0.000000 0.000000 0.038382 0.000000 0.000000
# 5 0.000000 0.000000 0.000000 0.000000 0.037199 0.000000
# 6 0.000000 0.000000 0.000000 0.000000 0.000000 0.025402
#
#
# Mechanical properties :
#
#
# Convention : Reuss Voigt Hill
#
# Bulk Modulus (GPa) = 35.40127 35.80931 35.60529
# Shear Modulus (GPa) = 30.23630 31.01472 30.62551
#
# Velocity S-wave (km/s) = 3.81745 3.86628 3.84195
# Velocity P-wave (km/s) = 6.04094 6.09835 6.06971
#
# Compressibility (1/GPa) = 0.02824758
#
# Stress axis : x y z
#
# Youngs Moduli (GPa) = 76.64075 71.07799 69.01579
#
# Poissons Ratio (x) = 0.14159 0.23449
# Poissons Ratio (y) = 0.15268 0.08901
# Poissons Ratio (z) = 0.26040 0.09167
#
# Static dielectric constant tensor:
#      x y z
#    x 4.084150 0.000000 0.000000 
#    y 0.000000 3.888020 0.000000 
#    z 0.000000 0.000000 3.590780 
# 
# 
# High freq. dielectric constant tensor:
#      x y z
#    x 1.819170 0.000000 0.000000 
#    y 0.000000 1.804080 0.000000 
#    z 0.000000 0.000000 1.804200 
# 
# From -- ./inp_files/27018.got.cif
#   From: 2010.03.12/outbox.cif.g09.slc.cpg/sg66_14_cif.got.tgz:27018.got - 2010.04.10 21:57:39.
