data_PCOD8277965
_publ_section_title
;
Structure prediction by ZEFSAII (Michael W. Deem and Ramdas Pophale) SiO2 
 PCOD8277965
Probable space group: C M M A
;
_chemical_formula_sum "Si O2"
_cell_formula_units_Z 72
_cell_length_a 17.939789
_cell_length_b 13.876377
_cell_length_c 15.703907
_cell_angle_alpha 90.000000
_cell_angle_beta 90.000000
_cell_angle_gamma 90.000000
_cell_volume 3909.319231
_symmetry_space_group_name_H-M "C M M A"
_symmetry_group_IT_number 67
_symmetry_cell_setting 'orthorhombic'
loop_
_space_group_symop_operation_xyz
x,y,z
-x,1/2-y,z
x,-y,-z
-x,1/2+y,-z
-x,-y,-z
x,1/2+y,-z
-x,y,z
x,1/2-y,z
1/2+x,1/2+y,z
1/2-x,-y,z
1/2+x,1/2-y,-z
1/2-x,y,-z
1/2-x,1/2-y,-z
1/2+x,y,-z
1/2-x,1/2+y,z
1/2+x,-y,z
loop_
_atom_site_type_symbol
_atom_site_label
_atom_site_fract_x
_atom_site_fract_y
_atom_site_fract_z
Si Si1 0.185430 0.250000 0.069972
Si Si2 0.334295 0.039123 0.415171
Si Si3 0.416188 0.431844 0.919740
Si Si4 0.797782 0.250000 0.583677
Si Si5 0.666472 0.037981 0.227856
Si Si6 0.214883 0.250000 0.770641
O O1 0.135761 0.343204 0.056953
O O2 0.216020 0.250000 0.165715
O O3 0.250000 0.250000 0.000000
O O4 0.346190 0.153783 0.419066
O O5 0.363827 0.006953 0.322161
O O6 0.377307 0.000000 0.500000
O O7 0.250000 0.000000 0.420541
O O8 0.500000 0.395546 0.901942
O O9 0.389190 0.490119 0.837777
O O10 0.413214 0.500000 0.000000
O O11 0.750000 0.250000 0.500000
O O12 0.752008 0.250000 0.673641
O O13 0.665019 0.154097 0.215489
O O14 0.750000 0.000000 0.212239
#
# Coordination Sequence:
#
# PCOD8277965 Si02
#       6
#     8  16  16   8  16   8
#     4  12  23  37  62  86 109 143 184 231 273 327
#     4   9  16  25  43  72 106 142 174 224 274 325
#     4  11  25  41  57  81 113 147 182 228 283 335
#     4  10  16  24  39  69 113 139 168 218 280 320
#     4  10  19  34  55  80 111 145 187 229 276 335
#     4  10  20  31  52  87 107 138 189 230 270 323
#
# _framework density 18.417528000000001
#
# number of rings (size 3 to 8) (size 9 to 14) (size 15 to 20)
#    0.000    1.778    4.444    1.667    0.000    0.000 
#    0.000    1.667    0.000    0.667    0.000    0.000 
#    0.000    0.000    0.000    0.000    0.000    0.000 
#
# Total GULP energy -446003.277660 kJ/mol
# GULP energy per Si atom -12388.979935 kJ/mol
# Density = 1.837561 g / cm^3
# Si number density = 18.417528 Si / 1000 Ang^3
#
#
#
# Elastic Constant Matrix: (Units=GPa)
#
#
# Indices 1 2 3 4 5 6 
#
# 1 80.1571 42.4746 60.7061 0.0000 0.0000 0.0000
# 2 42.4746 127.1351 44.7627 0.0000 0.0000 0.0000
# 3 60.7061 44.7627 158.3321 0.0000 0.0000 0.0000
# 4 0.0000 0.0000 0.0000 28.2727 0.0000 0.0000
# 5 0.0000 0.0000 0.0000 0.0000 1.9232 0.0000
# 6 0.0000 0.0000 0.0000 0.0000 0.0000 13.5163
#
#
#
# Elastic Compliance Matrix: (Units=1/GPa)
#
#
# Indices 1 2 3 4 5 6 
#
# 1 0.019499 -0.004311 -0.006257 0.000000 0.000000 0.000000
# 2 -0.004311 0.009688 -0.001086 0.000000 0.000000 0.000000
# 3 -0.006257 -0.001086 0.009022 0.000000 0.000000 0.000000
# 4 0.000000 0.000000 0.000000 0.035370 0.000000 0.000000
# 5 0.000000 0.000000 0.000000 0.000000 0.519973 0.000000
# 6 0.000000 0.000000 0.000000 0.000000 0.000000 0.073985
#
#
# Mechanical properties :
#
#
# Convention : Reuss Voigt Hill
#
# Bulk Modulus (GPa) = 67.11353 73.50120 70.30737
# Shear Modulus (GPa) = 7.18584 23.25449 15.22017
#
# Velocity S-wave (km/s) = 1.97740 3.55720 2.87783
# Velocity P-wave (km/s) = 6.46008 7.54099 7.02136
#
# Compressibility (1/GPa) = 0.01490012
#
# Stress axis : x y z
#
# Youngs Moduli (GPa) = 51.28512 103.21627 110.84081
#
# Poissons Ratio (x) = 0.44500 0.69355
# Poissons Ratio (y) = 0.22110 0.12038
# Poissons Ratio (z) = 0.32090 0.11210
#
# Static dielectric constant tensor:
#      x y z
#    x 2.622080 0.000000 0.000000 
#    y 0.000000 3.572770 0.000000 
#    z 0.000000 0.000000 4.086250 
# 
# 
# High freq. dielectric constant tensor:
#      x y z
#    x 1.640360 0.000000 0.000000 
#    y 0.000000 1.734530 0.000000 
#    z 0.000000 0.000000 1.749760 
# 
# From -- ./inp_files/28289.got.cif
#   From: 2010.03.12/outbox.cif.g09.slc.cpg/sg67_15_cif.got.tgz:28289.got - 2010.04.10 22:41:39.
