data_PCOD8277550
_publ_section_title
;
Structure prediction by ZEFSAII (Michael W. Deem and Ramdas Pophale) SiO2 
 PCOD8277550
Probable space group: C C C M
;
_chemical_formula_sum "Si O2"
_cell_formula_units_Z 88
_cell_length_a 21.394042
_cell_length_b 10.550593
_cell_length_c 18.190614
_cell_angle_alpha 90.000000
_cell_angle_beta 90.000000
_cell_angle_gamma 90.000000
_cell_volume 4105.982295
_symmetry_space_group_name_H-M "C C C M"
_symmetry_group_IT_number 66
_symmetry_cell_setting 'orthorhombic'
loop_
_space_group_symop_operation_xyz
x,y,z
-x,-y,z
x,-y,1/2-z
-x,y,1/2-z
-x,-y,-z
x,y,-z
-x,y,1/2+z
x,-y,1/2+z
1/2+x,1/2+y,z
1/2-x,1/2-y,z
1/2+x,1/2-y,1/2-z
1/2-x,1/2+y,1/2-z
1/2-x,1/2-y,-z
1/2+x,1/2+y,-z
1/2-x,1/2+y,1/2+z
1/2+x,1/2-y,1/2+z
loop_
_atom_site_type_symbol
_atom_site_label
_atom_site_fract_x
_atom_site_fract_y
_atom_site_fract_z
Si Si1 0.037327 0.370932 0.584039
Si Si2 0.151861 0.597517 0.812922
Si Si3 0.841109 0.947748 0.828660
Si Si4 0.250000 0.750000 0.724421
Si Si5 0.458290 0.619585 0.584264
Si Si6 0.244993 0.900397 0.081520
O O1 0.063596 0.371974 0.500000
O O2 0.091638 0.352212 0.643701
O O3 0.000000 0.500000 0.600062
O O4 0.992881 0.251599 0.595934
O O5 0.130512 0.500000 0.750000
O O6 0.191735 0.709192 0.775305
O O7 0.197806 0.535516 0.873483
O O8 0.778451 0.861856 0.824563
O O9 0.897704 0.871261 0.864484
O O10 0.862296 0.000000 0.750000
O O11 0.821145 0.064589 0.880769
O O12 0.500000 0.500000 0.609320
O O13 0.437525 0.601557 0.500000
O O14 0.250000 0.750000 0.079365
O O15 0.246762 0.957968 0.000000
#
# Coordination Sequence:
#
# PCOD8277550 Si02
#       6
#    16  16  16   8  16  16
#     4  10  25  49  72 100 136 181 236 285 339 413
#     4  12  23  43  68  99 137 177 221 283 340 408
#     4  12  24  44  67  99 142 178 223 285 342 407
#     4  12  24  44  66  96 144 172 220 276 342 408
#     4  10  25  47  71 101 137 180 232 287 342 407
#     4  11  22  39  67  99 131 179 227 271 335 404
#
# _framework density 21.432143
#
# number of rings (size 3 to 8) (size 9 to 14) (size 15 to 20)
#    0.000    0.909    4.545    1.091    7.636    0.727 
#    0.000    1.818    0.000    0.000    0.000    0.000 
#    0.000    0.000    0.000    0.000    0.000    0.000 
#
# Total GULP energy -545560.676412 kJ/mol
# GULP energy per Si atom -12399.106282 kJ/mol
# Density = 2.138336 g / cm^3
# Si number density = 21.432143 Si / 1000 Ang^3
#
#
#
# Elastic Constant Matrix: (Units=GPa)
#
#
# Indices 1 2 3 4 5 6 
#
# 1 125.8814 51.4443 72.9384 0.0000 0.0000 0.0000
# 2 51.4443 115.2252 42.4770 0.0000 0.0000 0.0000
# 3 72.9384 42.4770 144.1926 0.0000 0.0000 0.0000
# 4 0.0000 0.0000 0.0000 7.9929 0.0000 0.0000
# 5 0.0000 0.0000 0.0000 0.0000 21.2464 0.0000
# 6 0.0000 0.0000 0.0000 0.0000 0.0000 33.1261
#
#
#
# Elastic Compliance Matrix: (Units=1/GPa)
#
#
# Indices 1 2 3 4 5 6 
#
# 1 0.012461 -0.003635 -0.005233 0.000000 0.000000 0.000000
# 2 -0.003635 0.010796 -0.001342 0.000000 0.000000 0.000000
# 3 -0.005233 -0.001342 0.009977 0.000000 0.000000 0.000000
# 4 0.000000 0.000000 0.000000 0.125112 0.000000 0.000000
# 5 0.000000 0.000000 0.000000 0.000000 0.047067 0.000000
# 6 0.000000 0.000000 0.000000 0.000000 0.000000 0.030188
#
#
# Mechanical properties :
#
#
# Convention : Reuss Voigt Hill
#
# Bulk Modulus (GPa) = 78.02479 79.89093 78.95786
# Shear Modulus (GPa) = 19.20927 27.03572 23.12249
#
# Velocity S-wave (km/s) = 2.99705 3.55555 3.28818
# Velocity P-wave (km/s) = 6.96139 7.36295 7.16498
#
# Compressibility (1/GPa) = 0.01281644
#
# Stress axis : x y z
#
# Youngs Moduli (GPa) = 80.24861 92.62671 100.22666
#
# Poissons Ratio (x) = 0.33666 0.52446
# Poissons Ratio (y) = 0.29167 0.13449
# Poissons Ratio (z) = 0.41992 0.12429
#
# Static dielectric constant tensor:
#      x y z
#    x 3.737010 0.000000 0.000000 
#    y 0.000000 3.820980 0.000000 
#    z 0.000000 0.000000 4.294300 
# 
# 
# High freq. dielectric constant tensor:
#      x y z
#    x 1.833410 0.000000 0.000000 
#    y 0.000000 1.840530 0.000000 
#    z 0.000000 0.000000 1.854170 
# 
# From -- ./inp_files/42755.got.cif
#   From: 2010.03.12/outbox.cif.g09.slc.cpg/sg66_22_cif.got.tgz:42755.got - 2010.04.10 21:57:39.
