data_PCOD8277836
_publ_section_title
;
Structure prediction by ZEFSAII (Michael W. Deem and Ramdas Pophale) SiO2 
 PCOD8277836
Probable space group: C C C M
;
_chemical_formula_sum "Si O2"
_cell_formula_units_Z 72
_cell_length_a 14.971278
_cell_length_b 17.756684
_cell_length_c 13.546873
_cell_angle_alpha 90.000000
_cell_angle_beta 90.000000
_cell_angle_gamma 90.000000
_cell_volume 3601.304139
_symmetry_space_group_name_H-M "C C C M"
_symmetry_group_IT_number 66
_symmetry_cell_setting 'orthorhombic'
loop_
_space_group_symop_operation_xyz
x,y,z
-x,-y,z
x,-y,1/2-z
-x,y,1/2-z
-x,-y,-z
x,y,-z
-x,y,1/2+z
x,-y,1/2+z
1/2+x,1/2+y,z
1/2-x,1/2-y,z
1/2+x,1/2-y,1/2-z
1/2-x,1/2+y,1/2-z
1/2-x,1/2-y,-z
1/2+x,1/2+y,-z
1/2-x,1/2+y,1/2+z
1/2+x,1/2-y,1/2+z
loop_
_atom_site_type_symbol
_atom_site_label
_atom_site_fract_x
_atom_site_fract_y
_atom_site_fract_z
Si Si1 0.594600 0.872659 0.294640
Si Si2 0.916741 0.555492 0.500000
Si Si3 0.095900 0.210789 0.215123
Si Si4 0.224256 0.921990 0.710612
Si Si5 0.644299 0.764308 0.000000
Si Si6 0.287326 0.922138 0.500000
O O1 0.500000 0.897775 0.250000
O O2 0.586957 0.887657 0.409618
O O3 0.617138 0.785569 0.276683
O O4 0.673120 0.921069 0.245906
O O5 0.829646 0.504080 0.500000
O O6 0.000000 0.500000 0.500000
O O7 0.167410 0.148647 0.249314
O O8 0.098341 0.229818 0.097719
O O9 0.000000 0.179819 0.250000
O O10 0.221430 0.916067 0.592719
O O11 0.181327 0.000000 0.750000
O O12 0.750000 0.750000 0.000000
O O13 0.636512 0.855920 0.000000
#
# Coordination Sequence:
#
# PCOD8277836 Si02
#       6
#    16   8  16  16   8   8
#     4  11  24  40  63  96 132 169 212 271 337 405
#     4  12  26  38  59  99 138 168 204 262 344 418
#     4  11  25  42  67  98 129 176 225 276 328 389
#     4  12  23  42  66  94 133 169 224 275 330 392
#     4  12  20  42  74  92 122 171 237 276 314 402
#     4  12  22  38  66  96 122 175 224 261 320 408
#
# _framework density 19.992757999999998
#
# number of rings (size 3 to 8) (size 9 to 14) (size 15 to 20)
#    0.000    0.444    6.667    2.000    3.111    0.444 
#    0.000    5.556    0.000    2.667    0.000    0.000 
#    0.000    0.000    0.000    0.000    0.000    0.000 
#
# Total GULP energy -446449.492860 kJ/mol
# GULP energy per Si atom -12401.374802 kJ/mol
# Density = 1.994725 g / cm^3
# Si number density = 19.992758 Si / 1000 Ang^3
#
#
#
# Elastic Constant Matrix: (Units=GPa)
#
#
# Indices 1 2 3 4 5 6 
#
# 1 93.0606 42.8364 54.3584 0.0000 0.0000 0.0000
# 2 42.8364 130.6550 61.2190 0.0000 0.0000 0.0000
# 3 54.3584 61.2190 154.2443 0.0000 0.0000 0.0000
# 4 0.0000 0.0000 0.0000 36.3615 0.0000 0.0000
# 5 0.0000 0.0000 0.0000 0.0000 25.2703 0.0000
# 6 0.0000 0.0000 0.0000 0.0000 0.0000 22.2443
#
#
#
# Elastic Compliance Matrix: (Units=1/GPa)
#
#
# Indices 1 2 3 4 5 6 
#
# 1 0.014357 -0.002870 -0.003920 0.000000 0.000000 0.000000
# 2 -0.002870 0.009976 -0.002948 0.000000 0.000000 0.000000
# 3 -0.003920 -0.002948 0.009035 0.000000 0.000000 0.000000
# 4 0.000000 0.000000 0.000000 0.027502 0.000000 0.000000
# 5 0.000000 0.000000 0.000000 0.000000 0.039572 0.000000
# 6 0.000000 0.000000 0.000000 0.000000 0.000000 0.044955
#
#
# Mechanical properties :
#
#
# Convention : Reuss Voigt Hill
#
# Bulk Modulus (GPa) = 71.99061 77.19862 74.59462
# Shear Modulus (GPa) = 29.49780 31.41161 30.45471
#
# Velocity S-wave (km/s) = 3.84529 3.96807 3.90716
# Velocity P-wave (km/s) = 7.47004 7.72601 7.59911
#
# Compressibility (1/GPa) = 0.01389070
#
# Stress axis : x y z
#
# Youngs Moduli (GPa) = 69.65334 100.24045 110.68174
#
# Poissons Ratio (x) = 0.28770 0.43393
# Poissons Ratio (y) = 0.19991 0.32629
# Poissons Ratio (z) = 0.27307 0.29551
#
# Static dielectric constant tensor:
#      x y z
#    x 3.626700 0.000000 0.000000 
#    y 0.000000 3.809510 0.000000 
#    z 0.000000 0.000000 3.760670 
# 
# 
# High freq. dielectric constant tensor:
#      x y z
#    x 1.762600 0.000000 0.000000 
#    y 0.000000 1.790910 0.000000 
#    z 0.000000 0.000000 1.785030 
# 
# From -- ./inp_files/27998.got.cif
#   From: 2010.03.12/outbox.cif.g09.slc.cpg/sg66_14_cif.got.tgz:27998.got - 2010.04.10 21:57:39.
