data_PCOD8277327
_publ_section_title
;
Structure prediction by ZEFSAII (Michael W. Deem and Ramdas Pophale) SiO2 
 PCOD8277327
Probable space group: C C C M
;
_chemical_formula_sum "Si O2"
_cell_formula_units_Z 96
_cell_length_a 14.624373
_cell_length_b 22.739699
_cell_length_c 13.752388
_cell_angle_alpha 90.000000
_cell_angle_beta 90.000000
_cell_angle_gamma 90.000000
_cell_volume 4573.409440
_symmetry_space_group_name_H-M "C C C M"
_symmetry_group_IT_number 66
_symmetry_cell_setting 'orthorhombic'
loop_
_space_group_symop_operation_xyz
x,y,z
-x,-y,z
x,-y,1/2-z
-x,y,1/2-z
-x,-y,-z
x,y,-z
-x,y,1/2+z
x,-y,1/2+z
1/2+x,1/2+y,z
1/2-x,1/2-y,z
1/2+x,1/2-y,1/2-z
1/2-x,1/2+y,1/2-z
1/2-x,1/2-y,-z
1/2+x,1/2+y,-z
1/2-x,1/2+y,1/2+z
1/2+x,1/2-y,1/2+z
loop_
_atom_site_type_symbol
_atom_site_label
_atom_site_fract_x
_atom_site_fract_y
_atom_site_fract_z
Si Si1 0.112634 0.447952 0.000000
Si Si2 0.776261 0.553763 0.189679
Si Si3 0.408840 0.912803 0.000000
Si Si4 0.194420 0.343103 0.332190
Si Si5 0.872458 0.218304 0.194293
Si Si6 0.579364 0.541189 0.110589
Si Si7 0.941974 0.176334 0.609857
O O1 0.168080 0.429675 0.905703
O O2 0.107595 0.518085 0.000000
O O3 0.019151 0.409476 0.000000
O O4 0.822638 0.500000 0.250000
O O5 0.778027 0.614327 0.245961
O O6 0.673320 0.532982 0.168084
O O7 0.361573 0.881342 0.090733
O O8 0.132477 0.288830 0.298257
O O9 0.290299 0.313131 0.365817
O O10 0.871115 0.196258 0.306773
O O11 0.961880 0.205770 0.132717
O O12 0.500000 0.500000 0.156081
O O13 0.542830 0.607054 0.117101
O O14 0.598721 0.521697 0.000000
O O15 0.909228 0.193783 0.500000
#
# Coordination Sequence:
#
# PCOD8277327 Si02
#       7
#     8  16   8  16  16  16  16
#     4  11  26  46  67 100 133 174 228 286 348 406
#     4  12  24  43  71  99 136 177 219 275 343 409
#     4  11  26  47  70  95 130 174 233 293 343 387
#     4  11  25  46  70  97 131 179 228 286 336 403
#     4  10  24  43  66  99 135 178 234 275 333 408
#     4  10  22  39  66 103 139 178 218 265 340 416
#     4  10  22  41  65  98 141 178 222 280 335 407
#
# _framework density 20.990905000000001
#
# number of rings (size 3 to 8) (size 9 to 14) (size 15 to 20)
#    0.000    1.333    4.167    0.000    4.667    4.333 
#    1.500    0.833    0.000    0.000    0.000    0.000 
#    0.000    0.000    0.000    0.000    0.000    0.000 
#
# Total GULP energy -594916.645558 kJ/mol
# GULP energy per Si atom -12394.096782 kJ/mol
# Density = 2.094313 g / cm^3
# Si number density = 20.990905 Si / 1000 Ang^3
#
#
#
# Elastic Constant Matrix: (Units=GPa)
#
#
# Indices 1 2 3 4 5 6 
#
# 1 127.2675 37.5890 47.0805 0.0000 0.0000 0.0000
# 2 37.5890 104.4729 37.5745 0.0000 0.0000 0.0000
# 3 47.0805 37.5745 110.4326 0.0000 0.0000 0.0000
# 4 0.0000 0.0000 0.0000 41.3294 0.0000 0.0000
# 5 0.0000 0.0000 0.0000 0.0000 29.7720 0.0000
# 6 0.0000 0.0000 0.0000 0.0000 0.0000 39.1617
#
#
#
# Elastic Compliance Matrix: (Units=1/GPa)
#
#
# Indices 1 2 3 4 5 6 
#
# 1 0.009792 -0.002304 -0.003391 0.000000 0.000000 0.000000
# 2 -0.002304 0.011448 -0.002913 0.000000 0.000000 0.000000
# 3 -0.003391 -0.002913 0.011492 0.000000 0.000000 0.000000
# 4 0.000000 0.000000 0.000000 0.024196 0.000000 0.000000
# 5 0.000000 0.000000 0.000000 0.000000 0.033589 0.000000
# 6 0.000000 0.000000 0.000000 0.000000 0.000000 0.025535
#
#
# Mechanical properties :
#
#
# Convention : Reuss Voigt Hill
#
# Bulk Modulus (GPa) = 64.44403 65.18458 64.81430
# Shear Modulus (GPa) = 36.11659 36.71455 36.41557
#
# Velocity S-wave (km/s) = 4.15249 4.18672 4.16964
# Velocity P-wave (km/s) = 7.33202 7.38192 7.35701
#
# Compressibility (1/GPa) = 0.01551734
#
# Stress axis : x y z
#
# Youngs Moduli (GPa) = 102.12138 87.34792 87.01595
#
# Poissons Ratio (x) = 0.20122 0.29506
# Poissons Ratio (y) = 0.23525 0.25350
# Poissons Ratio (z) = 0.34628 0.25446
#
# Static dielectric constant tensor:
#      x y z
#    x 3.839360 0.000000 0.000000 
#    y 0.000000 3.858040 0.000000 
#    z 0.000000 0.000000 3.951170 
# 
# 
# High freq. dielectric constant tensor:
#      x y z
#    x 1.820270 0.000000 0.000000 
#    y 0.000000 1.832740 0.000000 
#    z 0.000000 0.000000 1.825490 
# 
# From -- ./inp_files/28448.got.cif
#   From: 2010.03.12/outbox.cif.g09.slc.cpg/sg66_15_cif.got.tgz:28448.got - 2010.04.10 21:57:39.
