data_PCOD8277258
_publ_section_title
;
Structure prediction by ZEFSAII (Michael W. Deem and Ramdas Pophale) SiO2 
 PCOD8277258
Probable space group: C C C M
;
_chemical_formula_sum "Si O2"
_cell_formula_units_Z 88
_cell_length_a 32.579365
_cell_length_b 16.267233
_cell_length_c 9.466551
_cell_angle_alpha 90.000000
_cell_angle_beta 90.000000
_cell_angle_gamma 90.000000
_cell_volume 5017.045982
_symmetry_space_group_name_H-M "C C C M"
_symmetry_group_IT_number 66
_symmetry_cell_setting 'orthorhombic'
loop_
_space_group_symop_operation_xyz
x,y,z
-x,-y,z
x,-y,1/2-z
-x,y,1/2-z
-x,-y,-z
x,y,-z
-x,y,1/2+z
x,-y,1/2+z
1/2+x,1/2+y,z
1/2-x,1/2-y,z
1/2+x,1/2-y,1/2-z
1/2-x,1/2+y,1/2-z
1/2-x,1/2-y,-z
1/2+x,1/2+y,-z
1/2-x,1/2+y,1/2+z
1/2+x,1/2-y,1/2+z
loop_
_atom_site_type_symbol
_atom_site_label
_atom_site_fract_x
_atom_site_fract_y
_atom_site_fract_z
Si Si1 0.701468 0.075943 0.834856
Si Si2 0.556796 0.585407 0.000000
Si Si3 0.780534 0.874177 0.839775
Si Si4 0.331011 0.251215 0.337586
Si Si5 0.534702 0.394313 0.000000
Si Si6 0.156154 0.000000 0.750000
Si Si7 0.401911 0.636414 0.218694
O O1 0.744344 0.093223 0.758162
O O2 0.671160 0.153222 0.820388
O O3 0.680740 0.000000 0.750000
O O4 0.709359 0.054022 0.000000
O O5 0.543810 0.490967 0.000000
O O6 0.512870 0.631627 0.000000
O O7 0.585876 0.612345 0.125187
O O8 0.797505 0.791886 0.765485
O O9 0.815772 0.943755 0.850925
O O10 0.766132 0.854056 0.000000
O O11 0.321687 0.276679 0.500000
O O12 0.376807 0.278527 0.291983
O O13 0.555745 0.354162 0.135710
O O14 0.127381 0.937333 0.840928
#
# Coordination Sequence:
#
# PCOD8277258 Si02
#       7
#    16   8  16  16   8   8  16
#     4  11  23  41  57  77 105 139 183 234 290 338
#     4  11  22  34  52  86 112 148 184 224 259 314
#     4  11  23  35  55  79 106 144 190 234 276 323
#     4  10  23  38  56  77 108 145 182 231 280 328
#     4  11  20  36  56  76 116 152 182 214 269 320
#     4  10  22  30  49  74 112 150 190 228 261 302
#     4  11  21  35  53  77 111 148 186 222 262 321
#
# _framework density 17.540201
#
# number of rings (size 3 to 8) (size 9 to 14) (size 15 to 20)
#    0.000    1.273    3.636    2.182    6.364    5.818 
#    0.000    0.000    0.000    0.000    0.000    0.000 
#    0.000    4.364    0.000    0.000    0.000    0.000 
#
# Total GULP energy -545380.979536 kJ/mol
# GULP energy per Si atom -12395.022262 kJ/mol
# Density = 1.750028 g / cm^3
# Si number density = 17.540201 Si / 1000 Ang^3
#
#
#
# Elastic Constant Matrix: (Units=GPa)
#
#
# Indices 1 2 3 4 5 6 
#
# 1 77.6744 41.0155 29.5892 0.0000 0.0000 0.0000
# 2 41.0155 99.4374 46.6140 0.0000 0.0000 0.0000
# 3 29.5892 46.6140 132.2024 0.0000 0.0000 0.0000
# 4 0.0000 0.0000 0.0000 29.6553 0.0000 0.0000
# 5 0.0000 0.0000 0.0000 0.0000 -12.5850 0.0000
# 6 0.0000 0.0000 0.0000 0.0000 0.0000 16.6778
#
#
#
# Elastic Compliance Matrix: (Units=1/GPa)
#
#
# Indices 1 2 3 4 5 6 
#
# 1 0.016727 -0.006163 -0.001571 0.000000 0.000000 0.000000
# 2 -0.006163 0.014319 -0.003669 0.000000 0.000000 0.000000
# 3 -0.001571 -0.003669 0.009210 0.000000 0.000000 0.000000
# 4 0.000000 0.000000 0.000000 0.033721 0.000000 0.000000
# 5 0.000000 0.000000 0.000000 0.000000 -0.079459 0.000000
# 6 0.000000 0.000000 0.000000 0.000000 0.000000 0.059960
#
#
# Mechanical properties :
#
#
# Convention : Reuss Voigt Hill
#
# Bulk Modulus (GPa) = 57.31006 60.41685 58.86345
# Shear Modulus (GPa) = 60.16898 19.55597 39.86248
#
# Velocity S-wave (km/s) = 5.86327 3.34267 4.77239
# Velocity P-wave (km/s) = 8.86463 7.02976 7.99998
#
# Compressibility (1/GPa) = 0.01744894
#
# Stress axis : x y z
#
# Youngs Moduli (GPa) = 59.78350 69.83799 108.58352
#
# Poissons Ratio (x) = 0.43043 0.17055
# Poissons Ratio (y) = 0.36846 0.39843
# Poissons Ratio (z) = 0.09390 0.25626
#
# Static dielectric constant tensor:
#      x y z
#    x 3.300370 0.000000 0.000000 
#    y 0.000000 3.279540 0.000000 
#    z 0.000000 0.000000 3.314160 
# 
# 
# High freq. dielectric constant tensor:
#      x y z
#    x 1.661640 0.000000 0.000000 
#    y 0.000000 1.650980 0.000000 
#    z 0.000000 0.000000 1.689760 
# 
# From -- ./inp_files/11448.got.cif
#   From: 2010.03.12/outbox.cif.g09.slc.cpg/sg66_6_cif.got.tgz:11448.got - 2010.04.10 21:57:39.
