data_PCOD8277392
_publ_section_title
;
Structure prediction by ZEFSAII (Michael W. Deem and Ramdas Pophale) SiO2 
 PCOD8277392
Probable space group: C C C M
;
_chemical_formula_sum "Si O2"
_cell_formula_units_Z 112
_cell_length_a 11.429609
_cell_length_b 30.932634
_cell_length_c 14.722520
_cell_angle_alpha 90.000000
_cell_angle_beta 90.000000
_cell_angle_gamma 90.000000
_cell_volume 5205.116205
_symmetry_space_group_name_H-M "C C C M"
_symmetry_group_IT_number 66
_symmetry_cell_setting 'orthorhombic'
loop_
_space_group_symop_operation_xyz
x,y,z
-x,-y,z
x,-y,1/2-z
-x,y,1/2-z
-x,-y,-z
x,y,-z
-x,y,1/2+z
x,-y,1/2+z
1/2+x,1/2+y,z
1/2-x,1/2-y,z
1/2+x,1/2-y,1/2-z
1/2-x,1/2+y,1/2-z
1/2-x,1/2-y,-z
1/2+x,1/2+y,-z
1/2-x,1/2+y,1/2+z
1/2+x,1/2-y,1/2+z
loop_
_atom_site_type_symbol
_atom_site_label
_atom_site_fract_x
_atom_site_fract_y
_atom_site_fract_z
Si Si1 0.465394 0.388474 0.895630
Si Si2 0.134436 0.799654 0.607849
Si Si3 0.910184 0.536096 0.899020
Si Si4 0.528071 0.121182 0.150308
Si Si5 0.270516 0.406936 0.398192
Si Si6 0.603546 0.206289 0.392877
Si Si7 0.818635 0.955447 0.778731
O O1 0.426321 0.342577 0.854850
O O2 0.604416 0.384049 0.891882
O O3 0.414291 0.425119 0.828438
O O4 0.422949 0.397035 0.000000
O O5 0.136746 0.800560 0.500000
O O6 0.266255 0.801216 0.645222
O O7 0.067798 0.755268 0.637934
O O8 0.791711 0.537463 0.842669
O O9 0.000000 0.500000 0.858274
O O10 0.966817 0.584062 0.909544
O O11 0.875281 0.521091 0.000000
O O12 0.500000 0.103549 0.250000
O O13 0.663954 0.126023 0.121696
O O14 0.479967 0.169756 0.145888
O O15 0.256330 0.427269 0.500000
O O16 0.265165 0.441008 0.317607
O O17 0.601435 0.202002 0.500000
O O18 0.882221 0.000000 0.750000
#
# Coordination Sequence:
#
# PCOD8277392 Si02
#       7
#    16  16  16  16  16  16  16
#     4  10  22  42  67  93 126 174 221 267 327 392
#     4   8  16  34  63  95 123 157 209 266 324 389
#     4  11  24  42  67  96 128 169 215 273 338 391
#     4  12  23  39  62  91 131 167 215 264 324 395
#     4  11  25  43  61  88 130 174 213 263 324 386
#     4   9  17  33  62  95 124 158 205 267 329 386
#     4  12  25  42  66  95 130 166 224 276 325 390
#
# _framework density 21.517291
#
# number of rings (size 3 to 8) (size 9 to 14) (size 15 to 20)
#    0.000    1.571    1.429    4.714    0.000    4.571 
#    0.000    3.571    0.000    3.857    0.000    0.000 
#    0.000    0.000    0.000    0.000    0.000    0.000 
#
# Total GULP energy -693796.453643 kJ/mol
# GULP energy per Si atom -12389.222386 kJ/mol
# Density = 2.146832 g / cm^3
# Si number density = 21.517291 Si / 1000 Ang^3
#
#
#
# Elastic Constant Matrix: (Units=GPa)
#
#
# Indices 1 2 3 4 5 6 
#
# 1 117.7093 63.1166 36.0438 0.0000 0.0000 0.0000
# 2 63.1166 175.7309 28.2215 0.0000 0.0000 0.0000
# 3 36.0438 28.2215 101.2063 0.0000 0.0000 0.0000
# 4 0.0000 0.0000 0.0000 25.2926 0.0000 0.0000
# 5 0.0000 0.0000 0.0000 0.0000 27.4192 0.0000
# 6 0.0000 0.0000 0.0000 0.0000 0.0000 24.7458
#
#
#
# Elastic Compliance Matrix: (Units=1/GPa)
#
#
# Indices 1 2 3 4 5 6 
#
# 1 0.011351 -0.003588 -0.003042 0.000000 0.000000 0.000000
# 2 -0.003588 0.007092 -0.000700 0.000000 0.000000 0.000000
# 3 -0.003042 -0.000700 0.011159 0.000000 0.000000 0.000000
# 4 0.000000 0.000000 0.000000 0.039537 0.000000 0.000000
# 5 0.000000 0.000000 0.000000 0.000000 0.036471 0.000000
# 6 0.000000 0.000000 0.000000 0.000000 0.000000 0.040411
#
#
# Mechanical properties :
#
#
# Convention : Reuss Voigt Hill
#
# Bulk Modulus (GPa) = 66.92452 72.15670 69.54061
# Shear Modulus (GPa) = 30.18199 33.30915 31.74557
#
# Velocity S-wave (km/s) = 3.74931 3.93875 3.84520
# Velocity P-wave (km/s) = 7.06493 7.36832 7.21822
#
# Compressibility (1/GPa) = 0.01494221
#
# Stress axis : x y z
#
# Youngs Moduli (GPa) = 88.09698 141.00992 89.61176
#
# Poissons Ratio (x) = 0.50600 0.27260
# Poissons Ratio (y) = 0.31613 0.06269
# Poissons Ratio (z) = 0.26799 0.09864
#
# Static dielectric constant tensor:
#      x y z
#    x 3.872780 0.000000 0.000000 
#    y 0.000000 4.266320 0.000000 
#    z 0.000000 0.000000 4.067590 
# 
# 
# High freq. dielectric constant tensor:
#      x y z
#    x 1.841410 0.000000 0.000000 
#    y 0.000000 1.842560 0.000000 
#    z 0.000000 0.000000 1.844670 
# 
# From -- ./inp_files/27021.got.cif
#   From: 2010.03.12/outbox.cif.g09.slc.cpg/sg66_14_cif.got.tgz:27021.got - 2010.04.10 21:57:39.
