data_PCOD8277316
_publ_section_title
;
Structure prediction by ZEFSAII (Michael W. Deem and Ramdas Pophale) SiO2 
 PCOD8277316
Probable space group: C C C M
;
_chemical_formula_sum "Si O2"
_cell_formula_units_Z 72
_cell_length_a 15.432974
_cell_length_b 20.432691
_cell_length_c 9.726313
_cell_angle_alpha 90.000000
_cell_angle_beta 90.000000
_cell_angle_gamma 90.000000
_cell_volume 3067.068200
_symmetry_space_group_name_H-M "C C C M"
_symmetry_group_IT_number 66
_symmetry_cell_setting 'orthorhombic'
loop_
_space_group_symop_operation_xyz
x,y,z
-x,-y,z
x,-y,1/2-z
-x,y,1/2-z
-x,-y,-z
x,y,-z
-x,y,1/2+z
x,-y,1/2+z
1/2+x,1/2+y,z
1/2-x,1/2-y,z
1/2+x,1/2-y,1/2-z
1/2-x,1/2+y,1/2-z
1/2-x,1/2-y,-z
1/2+x,1/2+y,-z
1/2-x,1/2+y,1/2+z
1/2+x,1/2-y,1/2+z
loop_
_atom_site_type_symbol
_atom_site_label
_atom_site_fract_x
_atom_site_fract_y
_atom_site_fract_z
Si Si1 0.368102 0.474742 0.500000
Si Si2 0.761381 0.000000 0.250000
Si Si3 0.625637 0.867554 0.500000
Si Si4 0.000000 0.806187 0.250000
Si Si5 0.157636 0.283332 0.256990
Si Si6 0.651361 0.021805 0.500000
Si Si7 0.070078 0.650414 0.500000
Si Si8 0.459556 0.394122 0.000000
O O1 0.318510 0.455727 0.357130
O O2 0.380934 0.553828 0.500000
O O3 0.454315 0.435483 0.500000
O O4 0.703117 0.040549 0.359284
O O5 0.676232 0.839923 0.368406
O O6 0.623839 0.946113 0.500000
O O7 0.530882 0.834779 0.500000
O O8 0.918210 0.765634 0.310485
O O9 0.954972 0.849468 0.133239
O O10 0.250000 0.250000 0.224137
O O11 0.118410 0.318241 0.126351
O O12 0.571339 0.071067 0.500000
#
# Coordination Sequence:
#
# PCOD8277316 Si02
#       8
#     8   8   8   8  16   8   8   8
#     4  10  22  43  61  98 132 186 220 293 363 402
#     4  10  22  39  61  94 148 162 222 290 326 436
#     4  12  24  48  72 102 145 182 235 307 352 432
#     4  12  24  45  66 101 136 182 232 292 344 416
#     4  12  27  46  73 100 142 189 239 287 356 418
#     4  11  25  41  73 105 131 188 232 279 387 406
#     4  12  24  48  72 102 145 182 235 307 352 432
#     4  11  24  38  70  92 132 181 238 278 358 427
#
# _framework density 23.475186999999998
#
# number of rings (size 3 to 8) (size 9 to 14) (size 15 to 20)
#    0.000    0.667    2.222    5.000    0.000   12.444 
#    0.000    3.333    0.000    0.000    0.000    0.000 
#    0.000    0.000    0.000    0.000    0.000    0.000 
#
# Total GULP energy -446041.897718 kJ/mol
# GULP energy per Si atom -12390.052714 kJ/mol
# Density = 2.342176 g / cm^3
# Si number density = 23.475187 Si / 1000 Ang^3
#
#
#
# Elastic Constant Matrix: (Units=GPa)
#
#
# Indices 1 2 3 4 5 6 
#
# 1 108.9961 30.4852 14.4306 0.0000 0.0000 0.0000
# 2 30.4852 123.2827 36.3807 0.0000 0.0000 0.0000
# 3 14.4306 36.3807 177.7280 0.0000 0.0000 0.0000
# 4 0.0000 0.0000 0.0000 20.2863 0.0000 0.0000
# 5 0.0000 0.0000 0.0000 0.0000 39.6377 0.0000
# 6 0.0000 0.0000 0.0000 0.0000 0.0000 16.1252
#
#
#
# Elastic Compliance Matrix: (Units=1/GPa)
#
#
# Indices 1 2 3 4 5 6 
#
# 1 0.009874 -0.002347 -0.000321 0.000000 0.000000 0.000000
# 2 -0.002347 0.009191 -0.001691 0.000000 0.000000 0.000000
# 3 -0.000321 -0.001691 0.005999 0.000000 0.000000 0.000000
# 4 0.000000 0.000000 0.000000 0.049294 0.000000 0.000000
# 5 0.000000 0.000000 0.000000 0.000000 0.025229 0.000000
# 6 0.000000 0.000000 0.000000 0.000000 0.000000 0.062015
#
#
# Mechanical properties :
#
#
# Convention : Reuss Voigt Hill
#
# Bulk Modulus (GPa) = 61.17933 63.62220 62.40077
# Shear Modulus (GPa) = 28.44682 37.12386 32.78534
#
# Velocity S-wave (km/s) = 3.48484 3.98101 3.74116
# Velocity P-wave (km/s) = 6.50462 6.94924 6.73060
#
# Compressibility (1/GPa) = 0.01634539
#
# Stress axis : x y z
#
# Youngs Moduli (GPa) = 101.28094 108.80600 166.70099
#
# Poissons Ratio (x) = 0.25533 0.05356
# Poissons Ratio (y) = 0.23768 0.28185
# Poissons Ratio (z) = 0.03254 0.18397
#
# Static dielectric constant tensor:
#      x y z
#    x 4.378240 0.000000 0.000000 
#    y 0.000000 4.346180 0.000000 
#    z 0.000000 0.000000 4.124140 
# 
# 
# High freq. dielectric constant tensor:
#      x y z
#    x 1.934390 0.000000 0.000000 
#    y 0.000000 1.923840 0.000000 
#    z 0.000000 0.000000 1.944880 
# 
# From -- ./inp_files/6541.got.cif
#   From: 2010.03.12/outbox.cif.g09.slc.cpg/sg66_4_cif.got.tgz:6541.got - 2010.04.10 21:57:39.
