data_PCOD8277201
_publ_section_title
;
Structure prediction by ZEFSAII (Michael W. Deem and Ramdas Pophale) SiO2 
 PCOD8277201
Probable space group: C C C M
;
_chemical_formula_sum "Si O2"
_cell_formula_units_Z 96
_cell_length_a 13.961281
_cell_length_b 19.265696
_cell_length_c 16.552509
_cell_angle_alpha 90.000000
_cell_angle_beta 90.000000
_cell_angle_gamma 90.000000
_cell_volume 4452.191171
_symmetry_space_group_name_H-M "C C C M"
_symmetry_group_IT_number 66
_symmetry_cell_setting 'orthorhombic'
loop_
_space_group_symop_operation_xyz
x,y,z
-x,-y,z
x,-y,1/2-z
-x,y,1/2-z
-x,-y,-z
x,y,-z
-x,y,1/2+z
x,-y,1/2+z
1/2+x,1/2+y,z
1/2-x,1/2-y,z
1/2+x,1/2-y,1/2-z
1/2-x,1/2+y,1/2-z
1/2-x,1/2-y,-z
1/2+x,1/2+y,-z
1/2-x,1/2+y,1/2+z
1/2+x,1/2-y,1/2+z
loop_
_atom_site_type_symbol
_atom_site_label
_atom_site_fract_x
_atom_site_fract_y
_atom_site_fract_z
Si Si1 0.669227 0.301798 0.865830
Si Si2 0.593133 0.456837 0.405167
Si Si3 0.596496 0.678856 0.200763
Si Si4 0.242320 0.439318 0.409482
Si Si5 0.039556 0.571999 0.159504
Si Si6 0.981350 0.282490 0.591291
O O1 0.750000 0.250000 0.895101
O O2 0.678048 0.315334 0.769108
O O3 0.686353 0.373923 0.910797
O O4 0.570557 0.268568 0.894891
O O5 0.500000 0.500000 0.374503
O O6 0.582267 0.441666 0.500000
O O7 0.606865 0.385045 0.359317
O O8 0.691335 0.496519 0.384565
O O9 0.500000 0.668471 0.250000
O O10 0.599842 0.751400 0.150415
O O11 0.200118 0.448984 0.500000
O O12 0.155338 0.430419 0.345771
O O13 0.000000 0.500000 0.121754
O O14 0.000000 0.579873 0.250000
O O15 0.002871 0.637542 0.109440
O O16 0.945249 0.277631 0.500000
#
# Coordination Sequence:
#
# PCOD8277201 Si02
#       6
#    16  16  16  16  16  16
#     4  11  22  37  63  92 125 158 204 271 321 370
#     4  10  21  40  65  96 136 170 208 262 325 394
#     4  10  22  37  59  90 127 169 210 250 315 390
#     4  11  24  41  66 100 130 168 219 267 322 384
#     4  11  25  43  64  90 125 170 220 272 326 378
#     4  11  22  40  66  92 124 164 215 267 323 382
#
# _framework density 21.562417
#
# number of rings (size 3 to 8) (size 9 to 14) (size 15 to 20)
#    0.000    1.333    1.667    5.000    0.000    8.333 
#    0.000    0.000    0.000    1.000    0.000    0.000 
#    0.000    0.000    0.000    0.000    0.000    0.000 
#
# Total GULP energy -595081.822367 kJ/mol
# GULP energy per Si atom -12397.537966 kJ/mol
# Density = 2.151334 g / cm^3
# Si number density = 21.562417 Si / 1000 Ang^3
#
#
#
# Elastic Constant Matrix: (Units=GPa)
#
#
# Indices 1 2 3 4 5 6 
#
# 1 48.3064 18.4756 36.4426 0.0000 0.0000 0.0000
# 2 18.4756 144.3141 34.6497 0.0000 0.0000 0.0000
# 3 36.4426 34.6497 94.7140 0.0000 0.0000 0.0000
# 4 0.0000 0.0000 0.0000 30.0833 0.0000 0.0000
# 5 0.0000 0.0000 0.0000 0.0000 22.9633 0.0000
# 6 0.0000 0.0000 0.0000 0.0000 0.0000 29.0849
#
#
#
# Elastic Compliance Matrix: (Units=1/GPa)
#
#
# Indices 1 2 3 4 5 6 
#
# 1 0.029340 -0.001146 -0.010869 0.000000 0.000000 0.000000
# 2 -0.001146 0.007641 -0.002354 0.000000 0.000000 0.000000
# 3 -0.010869 -0.002354 0.015602 0.000000 0.000000 0.000000
# 4 0.000000 0.000000 0.000000 0.033241 0.000000 0.000000
# 5 0.000000 0.000000 0.000000 0.000000 0.043548 0.000000
# 6 0.000000 0.000000 0.000000 0.000000 0.000000 0.034382
#
#
# Mechanical properties :
#
#
# Convention : Reuss Voigt Hill
#
# Bulk Modulus (GPa) = 41.94258 51.83001 46.88629
# Shear Modulus (GPa) = 24.94495 29.61074 27.27785
#
# Velocity S-wave (km/s) = 3.40497 3.70977 3.56063
# Velocity P-wave (km/s) = 5.91205 6.51454 6.22060
#
# Compressibility (1/GPa) = 0.02384212
#
# Stress axis : x y z
#
# Youngs Moduli (GPa) = 34.08361 130.86634 64.09604
#
# Poissons Ratio (x) = 0.15003 0.69669
# Poissons Ratio (y) = 0.03907 0.15091
# Poissons Ratio (z) = 0.37047 0.30811
#
# Static dielectric constant tensor:
#      x y z
#    x 3.378100 0.000000 0.000000 
#    y 0.000000 4.069740 0.000000 
#    z 0.000000 0.000000 4.187910 
# 
# 
# High freq. dielectric constant tensor:
#      x y z
#    x 1.824300 0.000000 0.000000 
#    y 0.000000 1.862300 0.000000 
#    z 0.000000 0.000000 1.852520 
# 
# From -- ./inp_files/28403.got.cif
#   From: 2010.03.12/outbox.cif.g09.slc.cpg/sg66_15_cif.got.tgz:28403.got - 2010.04.10 21:57:39.
