data_PCOD8277750
_publ_section_title
;
Structure prediction by ZEFSAII (Michael W. Deem and Ramdas Pophale) SiO2 
 PCOD8277750
Probable space group: C C C M
;
_chemical_formula_sum "Si O2"
_cell_formula_units_Z 64
_cell_length_a 15.295173
_cell_length_b 23.226954
_cell_length_c 8.327789
_cell_angle_alpha 90.000000
_cell_angle_beta 90.000000
_cell_angle_gamma 90.000000
_cell_volume 2958.532649
_symmetry_space_group_name_H-M "C C C M"
_symmetry_group_IT_number 66
_symmetry_cell_setting 'orthorhombic'
loop_
_space_group_symop_operation_xyz
x,y,z
-x,-y,z
x,-y,1/2-z
-x,y,1/2-z
-x,-y,-z
x,y,-z
-x,y,1/2+z
x,-y,1/2+z
1/2+x,1/2+y,z
1/2-x,1/2-y,z
1/2+x,1/2-y,1/2-z
1/2-x,1/2+y,1/2-z
1/2-x,1/2-y,-z
1/2+x,1/2+y,-z
1/2-x,1/2+y,1/2+z
1/2+x,1/2-y,1/2+z
loop_
_atom_site_type_symbol
_atom_site_label
_atom_site_fract_x
_atom_site_fract_y
_atom_site_fract_z
Si Si1 0.751402 0.062072 0.686538
Si Si2 0.350262 0.249480 0.186196
Si Si3 0.592517 0.365096 0.814422
Si Si4 0.591480 0.129136 0.186853
O O1 0.728233 0.060206 0.500000
O O2 0.830661 0.105792 0.713363
O O3 0.665938 0.082155 0.782228
O O4 0.780491 0.000000 0.750000
O O5 0.250000 0.250000 0.242372
O O6 0.402396 0.296375 0.290274
O O7 0.390525 0.187199 0.215357
O O8 0.359222 0.265968 0.000000
O O9 0.500000 0.388394 0.750000
O O10 0.602851 0.381317 0.000000
O O11 0.500000 0.103219 0.250000
O O12 0.587241 0.143680 0.000000
#
# Coordination Sequence:
#
# PCOD8277750 Si02
#       4
#    16  16  16  16
#     4  12  26  47  70  97 130 170 220 272 326 386
#     4  11  22  39  66  98 135 175 215 265 326 390
#     4  12  25  43  68  99 134 174 218 268 326 388
#     4  12  25  43  68  99 134 174 218 268 326 388
#
# _framework density 21.632346999999999
#
# number of rings (size 3 to 8) (size 9 to 14) (size 15 to 20)
#    0.000    0.250    2.500    8.250    0.000    2.000 
#    0.000    5.000    0.000    0.000    0.000    0.000 
#    0.000    0.000    0.000    0.000    0.000    0.000 
#
# Total GULP energy -397145.676992 kJ/mol
# GULP energy per Si atom -12410.802406 kJ/mol
# Density = 2.158311 g / cm^3
# Si number density = 21.632347 Si / 1000 Ang^3
#
#
#
# Elastic Constant Matrix: (Units=GPa)
#
#
# Indices 1 2 3 4 5 6 
#
# 1 138.7006 12.2439 29.9598 0.0000 0.0000 0.0000
# 2 12.2439 77.0427 13.4166 0.0000 0.0000 0.0000
# 3 29.9598 13.4166 102.4800 0.0000 0.0000 0.0000
# 4 0.0000 0.0000 0.0000 37.0613 0.0000 0.0000
# 5 0.0000 0.0000 0.0000 0.0000 33.4750 0.0000
# 6 0.0000 0.0000 0.0000 0.0000 0.0000 1.9063
#
#
#
# Elastic Compliance Matrix: (Units=1/GPa)
#
#
# Indices 1 2 3 4 5 6 
#
# 1 0.007751 -0.000857 -0.002154 0.000000 0.000000 0.000000
# 2 -0.000857 0.013377 -0.001501 0.000000 0.000000 0.000000
# 3 -0.002154 -0.001501 0.010584 0.000000 0.000000 0.000000
# 4 0.000000 0.000000 0.000000 0.026982 0.000000 0.000000
# 5 0.000000 0.000000 0.000000 0.000000 0.029873 0.000000
# 6 0.000000 0.000000 0.000000 0.000000 0.000000 0.524573
#
#
# Mechanical properties :
#
#
# Convention : Reuss Voigt Hill
#
# Bulk Modulus (GPa) = 44.07330 47.71819 45.89574
# Shear Modulus (GPa) = 7.93996 31.99539 19.96768
#
# Velocity S-wave (km/s) = 1.91791 3.85002 3.04147
# Velocity P-wave (km/s) = 5.03215 6.47071 5.79623
#
# Compressibility (1/GPa) = 0.02268947
#
# Stress axis : x y z
#
# Youngs Moduli (GPa) = 129.02218 74.75329 94.48104
#
# Poissons Ratio (x) = 0.06404 0.20348
# Poissons Ratio (y) = 0.11053 0.14181
# Poissons Ratio (z) = 0.27788 0.11220
#
# Static dielectric constant tensor:
#      x y z
#    x 4.148940 0.000000 0.000000 
#    y 0.000000 3.760030 0.000000 
#    z 0.000000 0.000000 3.874470 
# 
# 
# High freq. dielectric constant tensor:
#      x y z
#    x 1.865220 0.000000 0.000000 
#    y 0.000000 1.839850 0.000000 
#    z 0.000000 0.000000 1.863540 
# 
# From -- ./inp_files/5074.got.cif
#   From: 2010.03.12/outbox.cif.g09.slc.cpg/sg66_3_cif.got.tgz:5074.got - 2010.04.10 21:57:39.
