data_PCOD8277343
_publ_section_title
;
Structure prediction by ZEFSAII (Michael W. Deem and Ramdas Pophale) SiO2 
 PCOD8277343
Probable space group: C C C M
;
_chemical_formula_sum "Si O2"
_cell_formula_units_Z 96
_cell_length_a 20.874840
_cell_length_b 15.014700
_cell_length_c 14.887314
_cell_angle_alpha 90.000000
_cell_angle_beta 90.000000
_cell_angle_gamma 90.000000
_cell_volume 4666.122790
_symmetry_space_group_name_H-M "C C C M"
_symmetry_group_IT_number 66
_symmetry_cell_setting 'orthorhombic'
loop_
_space_group_symop_operation_xyz
x,y,z
-x,-y,z
x,-y,1/2-z
-x,y,1/2-z
-x,-y,-z
x,y,-z
-x,y,1/2+z
x,-y,1/2+z
1/2+x,1/2+y,z
1/2-x,1/2-y,z
1/2+x,1/2-y,1/2-z
1/2-x,1/2+y,1/2-z
1/2-x,1/2-y,-z
1/2+x,1/2+y,-z
1/2-x,1/2+y,1/2+z
1/2+x,1/2-y,1/2+z
loop_
_atom_site_type_symbol
_atom_site_label
_atom_site_fract_x
_atom_site_fract_y
_atom_site_fract_z
Si Si1 0.178366 0.257903 0.724703
Si Si2 0.448125 0.258473 0.825362
Si Si3 0.401811 0.022249 0.500000
Si Si4 0.829335 0.915345 0.395426
Si Si5 0.934819 0.947804 0.099908
Si Si6 0.309356 0.949019 0.157049
Si Si7 0.487236 0.849622 0.500000
O O1 0.250000 0.250000 0.768631
O O2 0.124053 0.271711 0.800159
O O3 0.162215 0.173908 0.662257
O O4 0.177634 0.344178 0.662362
O O5 0.500000 0.233640 0.750000
O O6 0.444334 0.364118 0.836241
O O7 0.471757 0.209737 0.914115
O O8 0.359477 0.010547 0.411726
O O9 0.438856 0.117461 0.500000
O O10 0.448029 0.939338 0.500000
O O11 0.840075 0.890963 0.500000
O O12 0.761690 0.963420 0.380804
O O13 0.880999 0.986636 0.360489
O O14 0.914508 0.915822 0.000000
O O15 0.000000 0.000000 0.095527
O O16 0.318493 0.000000 0.250000
#
# Coordination Sequence:
#
# PCOD8277343 Si02
#       7
#    16  16   8  16  16  16   8
#     4  10  24  39  63  99 134 173 221 276 330 393
#     4  12  24  44  67  96 132 178 217 272 342 400
#     4  11  24  44  70  92 122 174 223 288 349 386
#     4  10  22  40  66  97 134 173 224 271 326 395
#     4  10  22  40  62  94 128 169 213 265 324 399
#     4  11  23  41  65  96 133 170 224 277 336 399
#     4  11  26  46  67  95 128 165 232 284 336 418
#
# _framework density 20.573827000000001
#
# number of rings (size 3 to 8) (size 9 to 14) (size 15 to 20)
#    0.000    1.333    1.667    3.000    5.833    2.667 
#    1.500    2.083    0.000    0.000    0.000    0.000 
#    0.000    0.000    0.000    0.000    0.000    0.000 
#
# Total GULP energy -595289.791423 kJ/mol
# GULP energy per Si atom -12401.870655 kJ/mol
# Density = 2.052700 g / cm^3
# Si number density = 20.573827 Si / 1000 Ang^3
#
#
#
# Elastic Constant Matrix: (Units=GPa)
#
#
# Indices 1 2 3 4 5 6 
#
# 1 134.2697 47.2848 57.6188 0.0000 0.0000 0.0000
# 2 47.2848 98.0304 41.4502 0.0000 0.0000 0.0000
# 3 57.6188 41.4502 113.5889 0.0000 0.0000 0.0000
# 4 0.0000 0.0000 0.0000 22.6948 0.0000 0.0000
# 5 0.0000 0.0000 0.0000 0.0000 -64.9947 0.0000
# 6 0.0000 0.0000 0.0000 0.0000 0.0000 35.2201
#
#
#
# Elastic Compliance Matrix: (Units=1/GPa)
#
#
# Indices 1 2 3 4 5 6 
#
# 1 0.010339 -0.003275 -0.004049 0.000000 0.000000 0.000000
# 2 -0.003275 0.013099 -0.003119 0.000000 0.000000 0.000000
# 3 -0.004049 -0.003119 0.011996 0.000000 0.000000 0.000000
# 4 0.000000 0.000000 0.000000 0.044063 0.000000 0.000000
# 5 0.000000 0.000000 0.000000 0.000000 -0.015386 0.000000
# 6 0.000000 0.000000 0.000000 0.000000 0.000000 0.028393
#
#
# Mechanical properties :
#
#
# Convention : Reuss Voigt Hill
#
# Bulk Modulus (GPa) = 68.73922 70.95518 69.84720
# Shear Modulus (GPa) = 42.28721 11.88637 27.08679
#
# Velocity S-wave (km/s) = 4.53856 2.40623 3.63239
# Velocity P-wave (km/s) = 7.80693 6.50253 7.18440
#
# Compressibility (1/GPa) = 0.01454774
#
# Stress axis : x y z
#
# Youngs Moduli (GPa) = 96.72498 76.34037 83.36158
#
# Poissons Ratio (x) = 0.24998 0.33756
# Poissons Ratio (y) = 0.31674 0.26001
# Poissons Ratio (z) = 0.39168 0.23811
#
# Static dielectric constant tensor:
#      x y z
#    x 4.037060 0.000000 0.000000 
#    y 0.000000 3.720740 0.000000 
#    z 0.000000 0.000000 3.752630 
# 
# 
# High freq. dielectric constant tensor:
#      x y z
#    x 1.823260 0.000000 0.000000 
#    y 0.000000 1.809750 0.000000 
#    z 0.000000 0.000000 1.801690 
# 
# From -- ./inp_files/28460.got.cif
#   From: 2010.03.12/outbox.cif.g09.slc.cpg/sg66_15_cif.got.tgz:28460.got - 2010.04.10 21:57:39.
