data_PCOD8277206
_publ_section_title
;
Structure prediction by ZEFSAII (Michael W. Deem and Ramdas Pophale) SiO2 
 PCOD8277206
Probable space group: C C C M
;
_chemical_formula_sum "Si O2"
_cell_formula_units_Z 112
_cell_length_a 26.872099
_cell_length_b 13.984181
_cell_length_c 13.837359
_cell_angle_alpha 90.000000
_cell_angle_beta 90.000000
_cell_angle_gamma 90.000000
_cell_volume 5199.862214
_symmetry_space_group_name_H-M "C C C M"
_symmetry_group_IT_number 66
_symmetry_cell_setting 'orthorhombic'
loop_
_space_group_symop_operation_xyz
x,y,z
-x,-y,z
x,-y,1/2-z
-x,y,1/2-z
-x,-y,-z
x,y,-z
-x,y,1/2+z
x,-y,1/2+z
1/2+x,1/2+y,z
1/2-x,1/2-y,z
1/2+x,1/2-y,1/2-z
1/2-x,1/2+y,1/2-z
1/2-x,1/2-y,-z
1/2+x,1/2+y,-z
1/2-x,1/2+y,1/2+z
1/2+x,1/2-y,1/2+z
loop_
_atom_site_type_symbol
_atom_site_label
_atom_site_fract_x
_atom_site_fract_y
_atom_site_fract_z
Si Si1 0.875874 0.426716 0.885781
Si Si2 0.264562 0.040002 0.386103
Si Si3 0.920970 0.229570 0.112003
Si Si4 0.882381 0.889073 0.229196
Si Si5 0.227281 0.144637 0.209412
Si Si6 0.543987 0.067422 0.615005
Si Si7 0.034888 0.219389 0.113267
O O1 0.819398 0.429149 0.849669
O O2 0.907822 0.335877 0.850314
O O3 0.903940 0.522083 0.849987
O O4 0.875518 0.427396 0.000000
O O5 0.255411 0.058584 0.500000
O O6 0.229156 0.107440 0.320978
O O7 0.256267 0.928204 0.361695
O O8 0.884090 0.158619 0.165778
O O9 0.977292 0.198037 0.136382
O O10 0.909387 0.220138 0.000000
O O11 0.830781 0.856892 0.178560
O O12 0.929123 0.856261 0.164535
O O13 0.884870 0.000000 0.250000
O O14 0.250000 0.250000 0.196977
O O15 0.537726 0.073527 0.500000
O O16 0.544094 0.174675 0.656045
O O17 0.500000 0.000000 0.656250
O O18 0.045814 0.212972 0.000000
#
# Coordination Sequence:
#
# PCOD8277206 Si02
#       7
#    16  16  16  16  16  16  16
#     4   9  17  33  62  97 126 160 201 251 321 393
#     4  10  22  42  67  96 128 168 219 271 331 398
#     4  10  21  40  66  94 124 163 213 261 315 385
#     4  12  26  45  62  89 125 173 222 271 319 376
#     4  11  25  46  66  94 131 170 218 282 338 386
#     4   9  15  30  59  94 134 165 194 249 317 392
#     4  10  22  39  63  95 130 170 211 258 321 388
#
# _framework density 21.539031000000001
#
# number of rings (size 3 to 8) (size 9 to 14) (size 15 to 20)
#    0.000    1.857    2.857    1.286    2.000    3.429 
#    0.000    1.429    0.000    0.000    0.000    0.000 
#    0.000    0.000    0.000    0.000    0.000    0.000 
#
# Total GULP energy -694261.184372 kJ/mol
# GULP energy per Si atom -12397.521150 kJ/mol
# Density = 2.149001 g / cm^3
# Si number density = 21.539031 Si / 1000 Ang^3
#
#
#
# Elastic Constant Matrix: (Units=GPa)
#
#
# Indices 1 2 3 4 5 6 
#
# 1 113.6104 36.9052 23.2146 0.0000 0.0000 0.0000
# 2 36.9052 115.4804 5.1164 0.0000 0.0000 0.0000
# 3 23.2146 5.1164 49.1427 0.0000 0.0000 0.0000
# 4 0.0000 0.0000 0.0000 19.0875 0.0000 0.0000
# 5 0.0000 0.0000 0.0000 0.0000 25.6153 0.0000
# 6 0.0000 0.0000 0.0000 0.0000 0.0000 31.8327
#
#
#
# Elastic Compliance Matrix: (Units=1/GPa)
#
#
# Indices 1 2 3 4 5 6 
#
# 1 0.010835 -0.003251 -0.004780 0.000000 0.000000 0.000000
# 2 -0.003251 0.009675 0.000528 0.000000 0.000000 0.000000
# 3 -0.004780 0.000528 0.022552 0.000000 0.000000 0.000000
# 4 0.000000 0.000000 0.000000 0.052390 0.000000 0.000000
# 5 0.000000 0.000000 0.000000 0.000000 0.039039 0.000000
# 6 0.000000 0.000000 0.000000 0.000000 0.000000 0.031414
#
#
# Mechanical properties :
#
#
# Convention : Reuss Voigt Hill
#
# Bulk Modulus (GPa) = 35.64164 45.41176 40.52670
# Shear Modulus (GPa) = 26.27957 29.50692 27.89324
#
# Velocity S-wave (km/s) = 3.49677 3.70527 3.60253
# Velocity P-wave (km/s) = 5.73468 6.27970 6.01337
#
# Compressibility (1/GPa) = 0.02805707
#
# Stress axis : x y z
#
# Youngs Moduli (GPa) = 92.29634 103.35967 44.34239
#
# Poissons Ratio (x) = 0.33600 0.21195
# Poissons Ratio (y) = 0.30003 -0.02343
# Poissons Ratio (z) = 0.44115 -0.05461
#
# Static dielectric constant tensor:
#      x y z
#    x 4.153100 0.000000 0.000000 
#    y 0.000000 3.901380 0.000000 
#    z 0.000000 0.000000 3.816500 
# 
# 
# High freq. dielectric constant tensor:
#      x y z
#    x 1.852560 0.000000 0.000000 
#    y 0.000000 1.839920 0.000000 
#    z 0.000000 0.000000 1.842390 
# 
# From -- ./inp_files/32429.got.cif
#   From: 2010.03.12/outbox.cif.g09.slc.cpg/sg66_17_cif.got.tgz:32429.got - 2010.04.10 21:57:39.
