data_PCOD8277007
_publ_section_title
;
Structure prediction by ZEFSAII (Michael W. Deem and Ramdas Pophale) SiO2 
 PCOD8277007
Probable space group: C C C M
;
_chemical_formula_sum "Si O2"
_cell_formula_units_Z 116
_cell_length_a 21.776187
_cell_length_b 30.637166
_cell_length_c 8.991047
_cell_angle_alpha 90.000000
_cell_angle_beta 90.000000
_cell_angle_gamma 90.000000
_cell_volume 5998.472814
_symmetry_space_group_name_H-M "C C C M"
_symmetry_group_IT_number 66
_symmetry_cell_setting 'orthorhombic'
loop_
_space_group_symop_operation_xyz
x,y,z
-x,-y,z
x,-y,1/2-z
-x,y,1/2-z
-x,-y,-z
x,y,-z
-x,y,1/2+z
x,-y,1/2+z
1/2+x,1/2+y,z
1/2-x,1/2-y,z
1/2+x,1/2-y,1/2-z
1/2-x,1/2+y,1/2-z
1/2-x,1/2-y,-z
1/2+x,1/2+y,-z
1/2-x,1/2+y,1/2+z
1/2+x,1/2-y,1/2+z
loop_
_atom_site_type_symbol
_atom_site_label
_atom_site_fract_x
_atom_site_fract_y
_atom_site_fract_z
Si Si1 0.061723 0.842793 0.324901
Si Si2 0.176976 0.604971 0.327576
Si Si3 0.562651 0.954993 0.174611
Si Si4 0.728427 0.544342 0.674784
Si Si5 0.835810 0.787751 0.329245
Si Si6 0.804030 0.309046 0.829215
Si Si7 0.000000 0.000000 0.250000
Si Si8 0.592661 0.429848 0.164739
O O1 0.053622 0.841207 0.500000
O O2 0.118387 0.812813 0.278597
O O3 0.071160 0.892967 0.278440
O O4 0.000000 0.824157 0.250000
O O5 0.194465 0.602287 0.500000
O O6 0.113825 0.580735 0.292513
O O7 0.232434 0.584854 0.233409
O O8 0.167214 0.654823 0.278438
O O9 0.500000 0.938245 0.250000
O O10 0.584099 0.000000 0.250000
O O11 0.552173 0.962617 0.000000
O O12 0.752512 0.500000 0.750000
O O13 0.737664 0.539767 0.500000
O O14 0.657886 0.551943 0.719900
O O15 0.853959 0.796764 0.500000
O O16 0.838394 0.736282 0.294257
O O17 0.768073 0.805299 0.296489
O O18 0.814764 0.322370 0.000000
O O19 0.043867 0.030853 0.347914
O O20 0.599417 0.409155 0.000000
#
# Coordination Sequence:
#
# PCOD8277007 Si02
#       8
#    16  16  16  16  16  16   4  16
#     4  12  25  39  59  85 114 151 194 239 289 341
#     4  11  23  37  56  87 121 152 189 235 284 342
#     4  10  21  37  58  83 112 148 190 230 274 332
#     4  11  23  38  56  82 116 155 198 244 291 342
#     4   9  19  39  63  87 115 146 187 233 285 346
#     4   9  19  37  63  89 114 148 184 229 286 344
#     4  12  22  40  64  82 114 156 204 248 294 336
#     4  11  24  40  59  84 115 154 201 248 294 344
#
# _framework density 19.338255
#
# number of rings (size 3 to 8) (size 9 to 14) (size 15 to 20)
#    0.000    1.517    1.379    5.172    0.000    9.379 
#    0.000    2.069    0.000    1.655    0.000    0.000 
#    0.000    0.000    0.000    0.000    0.000    0.000 
#
# Total GULP energy -719430.497254 kJ/mol
# GULP energy per Si atom -12403.974091 kJ/mol
# Density = 1.929424 g / cm^3
# Si number density = 19.338255 Si / 1000 Ang^3
#
#
#
# Elastic Constant Matrix: (Units=GPa)
#
#
# Indices 1 2 3 4 5 6 
#
# 1 93.6412 56.9687 55.0861 0.0000 0.0000 0.0000
# 2 56.9687 115.7283 52.2681 0.0000 0.0000 0.0000
# 3 55.0861 52.2681 118.0437 0.0000 0.0000 0.0000
# 4 0.0000 0.0000 0.0000 34.9329 0.0000 0.0000
# 5 0.0000 0.0000 0.0000 0.0000 20.8727 0.0000
# 6 0.0000 0.0000 0.0000 0.0000 0.0000 25.6105
#
#
#
# Elastic Compliance Matrix: (Units=1/GPa)
#
#
# Indices 1 2 3 4 5 6 
#
# 1 0.017708 -0.006231 -0.005505 0.000000 0.000000 0.000000
# 2 -0.006231 0.012993 -0.002846 0.000000 0.000000 0.000000
# 3 -0.005505 -0.002846 0.012300 0.000000 0.000000 0.000000
# 4 0.000000 0.000000 0.000000 0.028626 0.000000 0.000000
# 5 0.000000 0.000000 0.000000 0.000000 0.047910 0.000000
# 6 0.000000 0.000000 0.000000 0.000000 0.000000 0.039047
#
#
# Mechanical properties :
#
#
# Convention : Reuss Voigt Hill
#
# Bulk Modulus (GPa) = 72.25762 72.89543 72.57653
# Shear Modulus (GPa) = 25.99306 27.15589 26.57447
#
# Velocity S-wave (km/s) = 3.67021 3.75141 3.71103
# Velocity P-wave (km/s) = 7.44358 7.51936 7.48157
#
# Compressibility (1/GPa) = 0.01383937
#
# Stress axis : x y z
#
# Youngs Moduli (GPa) = 56.47191 76.96257 81.29940
#
# Poissons Ratio (x) = 0.47954 0.44752
# Poissons Ratio (y) = 0.35187 0.23135
# Poissons Ratio (z) = 0.31086 0.21900
#
# Static dielectric constant tensor:
#      x y z
#    x 3.548290 0.000000 0.000000 
#    y 0.000000 3.489890 0.000000 
#    z 0.000000 0.000000 3.465720 
# 
# 
# High freq. dielectric constant tensor:
#      x y z
#    x 1.753580 0.000000 0.000000 
#    y 0.000000 1.752950 0.000000 
#    z 0.000000 0.000000 1.756230 
# 
# From -- ./inp_files/9451.got.cif
#   From: 2010.03.12/outbox.cif.g09.slc.cpg/sg66_5_cif.got.tgz:9451.got - 2010.04.10 21:57:39.
