data_PCOD8277705
_publ_section_title
;
Structure prediction by ZEFSAII (Michael W. Deem and Ramdas Pophale) SiO2 
 PCOD8277705
Probable space group: C C C M
;
_chemical_formula_sum "Si O2"
_cell_formula_units_Z 64
_cell_length_a 22.867550
_cell_length_b 19.173478
_cell_length_c 9.001125
_cell_angle_alpha 90.000000
_cell_angle_beta 90.000000
_cell_angle_gamma 90.000000
_cell_volume 3946.547458
_symmetry_space_group_name_H-M "C C C M"
_symmetry_group_IT_number 66
_symmetry_cell_setting 'orthorhombic'
loop_
_space_group_symop_operation_xyz
x,y,z
-x,-y,z
x,-y,1/2-z
-x,y,1/2-z
-x,-y,-z
x,y,-z
-x,y,1/2+z
x,-y,1/2+z
1/2+x,1/2+y,z
1/2-x,1/2-y,z
1/2+x,1/2-y,1/2-z
1/2-x,1/2+y,1/2-z
1/2-x,1/2-y,-z
1/2+x,1/2+y,-z
1/2-x,1/2+y,1/2+z
1/2+x,1/2-y,1/2+z
loop_
_atom_site_type_symbol
_atom_site_label
_atom_site_fract_x
_atom_site_fract_y
_atom_site_fract_z
Si Si1 0.941168 0.263501 0.331911
Si Si2 0.324139 0.827673 0.668732
Si Si3 0.344740 0.695541 0.826974
Si Si4 0.741217 0.572496 0.326687
O O1 0.955584 0.241064 0.500000
O O2 0.895598 0.328994 0.328452
O O3 0.909483 0.197827 0.248628
O O4 0.000000 0.286247 0.250000
O O5 0.300499 0.827313 0.500000
O O6 0.304540 0.756056 0.751877
O O7 0.299367 0.894517 0.754662
O O8 0.314669 0.621536 0.797061
O O9 0.350690 0.712008 0.000000
O O10 0.726347 0.500000 0.250000
O O11 0.753099 0.561301 0.500000
#
# Coordination Sequence:
#
# PCOD8277705 Si02
#       4
#    16  16  16  16
#     4   9  18  30  50  76  99 127 161 205 247 286
#     4   9  19  32  50  74 100 129 163 203 246 290
#     4   9  18  32  50  73 100 129 164 202 245 292
#     4  11  22  33  49  72 102 136 165 201 246 294
#
# _framework density 16.216705000000001
#
# number of rings (size 3 to 8) (size 9 to 14) (size 15 to 20)
#    1.500    1.000    0.000    3.000    0.000    7.000 
#    0.000    0.000    0.000    1.500    0.000   10.500 
#    0.000    0.000    0.000    0.000    0.000    0.000 
#
# Total GULP energy -396454.820192 kJ/mol
# GULP energy per Si atom -12389.213131 kJ/mol
# Density = 1.617980 g / cm^3
# Si number density = 16.216705 Si / 1000 Ang^3
#
#
#
# Elastic Constant Matrix: (Units=GPa)
#
#
# Indices 1 2 3 4 5 6 
#
# 1 51.2794 -6.0697 25.3209 0.0000 0.0000 0.0000
# 2 -6.0697 43.8364 13.9258 0.0000 0.0000 0.0000
# 3 25.3209 13.9258 114.4795 0.0000 0.0000 0.0000
# 4 0.0000 0.0000 0.0000 28.1763 0.0000 0.0000
# 5 0.0000 0.0000 0.0000 0.0000 21.8978 0.0000
# 6 0.0000 0.0000 0.0000 0.0000 0.0000 2.3641
#
#
#
# Elastic Compliance Matrix: (Units=1/GPa)
#
#
# Indices 1 2 3 4 5 6 
#
# 1 0.022887 0.004969 -0.005667 0.000000 0.000000 0.000000
# 2 0.004969 0.024808 -0.004117 0.000000 0.000000 0.000000
# 3 -0.005667 -0.004117 0.010489 0.000000 0.000000 0.000000
# 4 0.000000 0.000000 0.000000 0.035491 0.000000 0.000000
# 5 0.000000 0.000000 0.000000 0.000000 0.045667 0.000000
# 6 0.000000 0.000000 0.000000 0.000000 0.000000 0.422999
#
#
# Mechanical properties :
#
#
# Convention : Reuss Voigt Hill
#
# Bulk Modulus (GPa) = 20.59482 30.66105 25.62794
# Shear Modulus (GPa) = 8.50115 22.24884 15.37500
#
# Velocity S-wave (km/s) = 2.29207 3.70803 3.08246
# Velocity P-wave (km/s) = 4.44209 6.10580 5.33914
#
# Compressibility (1/GPa) = 0.04855589
#
# Stress axis : x y z
#
# Youngs Moduli (GPa) = 43.69226 40.30958 95.33449
#
# Poissons Ratio (x) = -0.20031 0.54024
# Poissons Ratio (y) = -0.21712 0.39248
# Poissons Ratio (z) = 0.24759 0.16595
#
# Static dielectric constant tensor:
#      x y z
#    x 2.900220 0.000000 0.000000 
#    y 0.000000 2.710540 0.000000 
#    z 0.000000 0.000000 3.250050 
# 
# 
# High freq. dielectric constant tensor:
#      x y z
#    x 1.612240 0.000000 0.000000 
#    y 0.000000 1.581510 0.000000 
#    z 0.000000 0.000000 1.649690 
# 
# From -- ./inp_files/6390.got.cif
#   From: 2010.03.12/outbox.cif.g09.slc.cpg/sg66_4_cif.got.tgz:6390.got - 2010.04.10 21:57:39.
