data_PCOD8277322
_publ_section_title
;
Structure prediction by ZEFSAII (Michael W. Deem and Ramdas Pophale) SiO2 
 PCOD8277322
Probable space group: C C C M
;
_chemical_formula_sum "Si O2"
_cell_formula_units_Z 64
_cell_length_a 5.215555
_cell_length_b 28.826177
_cell_length_c 19.216628
_cell_angle_alpha 90.000000
_cell_angle_beta 90.000000
_cell_angle_gamma 90.000000
_cell_volume 2889.114551
_symmetry_space_group_name_H-M "C C C M"
_symmetry_group_IT_number 66
_symmetry_cell_setting 'orthorhombic'
loop_
_space_group_symop_operation_xyz
x,y,z
-x,-y,z
x,-y,1/2-z
-x,y,1/2-z
-x,-y,-z
x,y,-z
-x,y,1/2+z
x,-y,1/2+z
1/2+x,1/2+y,z
1/2-x,1/2-y,z
1/2+x,1/2-y,1/2-z
1/2-x,1/2+y,1/2-z
1/2-x,1/2-y,-z
1/2+x,1/2+y,-z
1/2-x,1/2+y,1/2+z
1/2+x,1/2-y,1/2+z
loop_
_atom_site_type_symbol
_atom_site_label
_atom_site_fract_x
_atom_site_fract_y
_atom_site_fract_z
Si Si1 0.722573 0.300421 0.637777
Si Si2 0.079165 0.608097 0.675865
Si Si3 0.751071 0.970012 0.079762
Si Si4 0.289500 0.165165 0.422130
O O1 0.750000 0.250000 0.675282
O O2 0.762962 0.343700 0.691131
O O3 0.448074 0.303753 0.601536
O O4 0.950638 0.303832 0.580291
O O5 0.257628 0.573280 0.632331
O O6 0.000000 0.586232 0.750000
O O7 0.829130 0.620249 0.628320
O O8 0.500000 0.000000 0.095281
O O9 0.753373 0.952046 0.000000
O O10 0.000000 0.000000 0.096420
O O11 0.243201 0.146681 0.500000
#
# Coordination Sequence:
#
# PCOD8277322 Si02
#       4
#    16  16  16  16
#     4  10  23  41  63  96 132 176 224 280 332 392
#     4  10  25  45  66  98 136 179 221 271 333 406
#     4  10  23  44  71 101 129 166 217 274 338 400
#     4  10  22  39  63  93 129 172 223 278 330 389
#
# _framework density 22.152114999999998
#
# number of rings (size 3 to 8) (size 9 to 14) (size 15 to 20)
#    1.500    0.500    0.000    2.250    3.500    4.500 
#    4.500    1.250    0.000    0.000    0.000    0.000 
#    0.000    0.000    0.000    0.000    0.000    0.000 
#
# Total GULP energy -396476.804613 kJ/mol
# GULP energy per Si atom -12389.900144 kJ/mol
# Density = 2.210170 g / cm^3
# Si number density = 22.152115 Si / 1000 Ang^3
#
#
#
# Elastic Constant Matrix: (Units=GPa)
#
#
# Indices 1 2 3 4 5 6 
#
# 1 154.0362 39.1818 27.4304 0.0000 0.0000 0.0000
# 2 39.1818 139.6433 63.7798 0.0000 0.0000 0.0000
# 3 27.4304 63.7798 115.5713 0.0000 0.0000 0.0000
# 4 0.0000 0.0000 0.0000 13.8572 0.0000 0.0000
# 5 0.0000 0.0000 0.0000 0.0000 -18.3514 0.0000
# 6 0.0000 0.0000 0.0000 0.0000 0.0000 23.6019
#
#
#
# Elastic Compliance Matrix: (Units=1/GPa)
#
#
# Indices 1 2 3 4 5 6 
#
# 1 0.007043 -0.001621 -0.000777 0.000000 0.000000 0.000000
# 2 -0.001621 0.009948 -0.005105 0.000000 0.000000 0.000000
# 3 -0.000777 -0.005105 0.011654 0.000000 0.000000 0.000000
# 4 0.000000 0.000000 0.000000 0.072165 0.000000 0.000000
# 5 0.000000 0.000000 0.000000 0.000000 -0.054492 0.000000
# 6 0.000000 0.000000 0.000000 0.000000 0.000000 0.042369
#
#
# Mechanical properties :
#
#
# Convention : Reuss Voigt Hill
#
# Bulk Modulus (GPa) = 73.32177 74.44832 73.88504
# Shear Modulus (GPa) = 46.19400 22.41213 34.30306
#
# Velocity S-wave (km/s) = 4.57147 3.18423 3.93940
# Velocity P-wave (km/s) = 7.81253 6.87021 7.35647
#
# Compressibility (1/GPa) = 0.01363851
#
# Stress axis : x y z
#
# Youngs Moduli (GPa) = 141.99070 100.52670 85.80528
#
# Poissons Ratio (x) = 0.16298 0.06666
# Poissons Ratio (y) = 0.23021 0.43803
# Poissons Ratio (z) = 0.11030 0.51318
#
# Static dielectric constant tensor:
#      x y z
#    x 4.020860 0.000000 0.000000 
#    y 0.000000 3.785180 0.000000 
#    z 0.000000 0.000000 3.559490 
# 
# 
# High freq. dielectric constant tensor:
#      x y z
#    x 1.880610 0.000000 0.000000 
#    y 0.000000 1.860590 0.000000 
#    z 0.000000 0.000000 1.840840 
# 
# From -- ./inp_files/35042.got.cif
#   From: 2010.03.12/outbox.cif.g09.slc.cpg/sg66_18_cif.got.tgz:35042.got - 2010.04.10 21:57:39.
