data_PCOD8277694
_publ_section_title
;
Structure prediction by ZEFSAII (Michael W. Deem and Ramdas Pophale) SiO2 
 PCOD8277694
Probable space group: C C C M
;
_chemical_formula_sum "Si O2"
_cell_formula_units_Z 64
_cell_length_a 13.943173
_cell_length_b 15.361525
_cell_length_c 14.115351
_cell_angle_alpha 90.000000
_cell_angle_beta 90.000000
_cell_angle_gamma 90.000000
_cell_volume 3023.344455
_symmetry_space_group_name_H-M "C C C M"
_symmetry_group_IT_number 66
_symmetry_cell_setting 'orthorhombic'
loop_
_space_group_symop_operation_xyz
x,y,z
-x,-y,z
x,-y,1/2-z
-x,y,1/2-z
-x,-y,-z
x,y,-z
-x,y,1/2+z
x,-y,1/2+z
1/2+x,1/2+y,z
1/2-x,1/2-y,z
1/2+x,1/2-y,1/2-z
1/2-x,1/2+y,1/2-z
1/2-x,1/2-y,-z
1/2+x,1/2+y,-z
1/2-x,1/2+y,1/2+z
1/2+x,1/2-y,1/2+z
loop_
_atom_site_type_symbol
_atom_site_label
_atom_site_fract_x
_atom_site_fract_y
_atom_site_fract_z
Si Si1 0.303642 0.464605 0.394658
Si Si2 0.601880 0.973023 0.142407
Si Si3 0.103850 0.885485 0.275519
Si Si4 0.860948 0.272411 0.605958
O O1 0.344641 0.444369 0.500000
O O2 0.189100 0.475288 0.406139
O O3 0.347916 0.554551 0.355651
O O4 0.330990 0.387712 0.320528
O O5 0.618103 0.870671 0.133717
O O6 0.500000 0.000000 0.094914
O O7 0.600750 0.000000 0.250000
O O8 0.088304 0.789080 0.316822
O O9 0.000000 0.923445 0.250000
O O10 0.900127 0.254257 0.500000
O O11 0.750000 0.250000 0.611378
#
# Coordination Sequence:
#
# PCOD8277694 Si02
#       4
#    16  16  16  16
#     4  11  21  41  67  94 130 170 214 269 331 390
#     4  11  23  40  69  97 130 172 214 272 331 397
#     4  11  24  40  63  96 128 169 218 273 325 389
#     4  11  22  41  69  95 128 173 223 268 323 404
#
# _framework density 21.168610999999999
#
# number of rings (size 3 to 8) (size 9 to 14) (size 15 to 20)
#    0.000    1.000    5.000    3.000    3.500    5.000 
#    0.000    0.000    0.000    2.250    0.000    0.000 
#    0.000    0.000    0.000    0.000    0.000    0.000 
#
# Total GULP energy -396642.475801 kJ/mol
# GULP energy per Si atom -12395.077369 kJ/mol
# Density = 2.112043 g / cm^3
# Si number density = 21.168611 Si / 1000 Ang^3
#
#
#
# Elastic Constant Matrix: (Units=GPa)
#
#
# Indices 1 2 3 4 5 6 
#
# 1 133.5658 41.1802 35.2937 0.0000 0.0000 0.0000
# 2 41.1802 128.5359 62.4315 0.0000 0.0000 0.0000
# 3 35.2937 62.4315 181.3491 0.0000 0.0000 0.0000
# 4 0.0000 0.0000 0.0000 19.9267 0.0000 0.0000
# 5 0.0000 0.0000 0.0000 0.0000 16.8779 0.0000
# 6 0.0000 0.0000 0.0000 0.0000 0.0000 -13.0713
#
#
#
# Elastic Compliance Matrix: (Units=1/GPa)
#
#
# Indices 1 2 3 4 5 6 
#
# 1 0.008416 -0.002282 -0.000852 0.000000 0.000000 0.000000
# 2 -0.002282 0.009961 -0.002985 0.000000 0.000000 0.000000
# 3 -0.000852 -0.002985 0.006708 0.000000 0.000000 0.000000
# 4 0.000000 0.000000 0.000000 0.050184 0.000000 0.000000
# 5 0.000000 0.000000 0.000000 0.000000 0.059249 0.000000
# 6 0.000000 0.000000 0.000000 0.000000 0.000000 -0.076503
#
#
# Mechanical properties :
#
#
# Convention : Reuss Voigt Hill
#
# Bulk Modulus (GPa) = 77.84825 80.14018 78.99421
# Shear Modulus (GPa) = 67.08289 25.04969 46.06629
#
# Velocity S-wave (km/s) = 5.63548 3.44370 4.66999
# Velocity P-wave (km/s) = 8.89944 7.33160 8.15329
#
# Compressibility (1/GPa) = 0.01284550
#
# Stress axis : x y z
#
# Youngs Moduli (GPa) = 118.82419 100.39151 149.08257
#
# Poissons Ratio (x) = 0.22913 0.12704
# Poissons Ratio (y) = 0.27120 0.44501
# Poissons Ratio (z) = 0.10125 0.29967
#
# Static dielectric constant tensor:
#      x y z
#    x 2.662920 0.000000 0.000000 
#    y 0.000000 4.851110 0.000000 
#    z 0.000000 0.000000 3.876680 
# 
# 
# High freq. dielectric constant tensor:
#      x y z
#    x 1.834020 0.000000 0.000000 
#    y 0.000000 1.809730 0.000000 
#    z 0.000000 0.000000 1.841820 
# 
# From -- ./inp_files/27725.got.cif
#   From: 2010.03.12/outbox.cif.g09.slc.cpg/sg66_14_cif.got.tgz:27725.got - 2010.04.10 21:57:39.
