data_PCOD8277752
_publ_section_title
;
Structure prediction by ZEFSAII (Michael W. Deem and Ramdas Pophale) SiO2 
 PCOD8277752
Probable space group: C C C M
;
_chemical_formula_sum "Si O2"
_cell_formula_units_Z 64
_cell_length_a 8.281141
_cell_length_b 14.603935
_cell_length_c 22.434801
_cell_angle_alpha 90.000000
_cell_angle_beta 90.000000
_cell_angle_gamma 90.000000
_cell_volume 2713.203023
_symmetry_space_group_name_H-M "C C C M"
_symmetry_group_IT_number 66
_symmetry_cell_setting 'orthorhombic'
loop_
_space_group_symop_operation_xyz
x,y,z
-x,-y,z
x,-y,1/2-z
-x,y,1/2-z
-x,-y,-z
x,y,-z
-x,y,1/2+z
x,-y,1/2+z
1/2+x,1/2+y,z
1/2-x,1/2-y,z
1/2+x,1/2-y,1/2-z
1/2-x,1/2+y,1/2-z
1/2-x,1/2-y,-z
1/2+x,1/2+y,-z
1/2-x,1/2+y,1/2+z
1/2+x,1/2-y,1/2+z
loop_
_atom_site_type_symbol
_atom_site_label
_atom_site_fract_x
_atom_site_fract_y
_atom_site_fract_z
Si Si1 0.314852 0.015830 0.871169
Si Si2 0.695717 0.892440 0.000000
Si Si3 0.982749 0.223585 0.000000
Si Si4 0.139301 0.174110 0.621826
Si Si5 0.139885 0.834666 0.701976
O O1 0.301450 0.048201 0.939653
O O2 0.253542 0.082163 0.818395
O O3 0.500000 0.000000 0.855229
O O4 0.207024 0.925583 0.863580
O O5 0.854929 0.833549 0.000000
O O6 0.532810 0.830863 0.000000
O O7 0.864550 0.195542 0.947362
O O8 0.250000 0.250000 0.654437
O O9 0.956125 0.191261 0.642382
O O10 0.250000 0.750000 0.724000
O O11 0.000000 0.861457 0.750000
#
# Coordination Sequence:
#
# PCOD8277752 Si02
#       5
#    16   8   8  16  16
#     4  12  26  45  74 110 151 191 243 299 362 442
#     4  11  22  41  70 110 151 201 237 297 362 442
#     4  11  22  39  70 104 151 197 239 291 360 434
#     4  12  25  44  71 107 145 192 240 297 362 430
#     4  12  27  50  75 103 138 184 240 304 368 433
#
# _framework density 23.588356000000001
#
# number of rings (size 3 to 8) (size 9 to 14) (size 15 to 20)
#    0.000    0.250    2.500    7.500    0.000    3.000 
#    0.000    1.250    0.000    0.000    0.000    0.000 
#    0.000    0.000    0.000    0.000    0.000    0.000 
#
# Total GULP energy -396660.376069 kJ/mol
# GULP energy per Si atom -12395.636752 kJ/mol
# Density = 2.353467 g / cm^3
# Si number density = 23.588356 Si / 1000 Ang^3
#
#
#
# Elastic Constant Matrix: (Units=GPa)
#
#
# Indices 1 2 3 4 5 6 
#
# 1 144.9485 56.7250 42.8694 0.0000 0.0000 0.0000
# 2 56.7250 153.4178 46.6068 0.0000 0.0000 0.0000
# 3 42.8694 46.6068 121.3862 0.0000 0.0000 0.0000
# 4 0.0000 0.0000 0.0000 -9.6426 0.0000 0.0000
# 5 0.0000 0.0000 0.0000 0.0000 283.4011 0.0000
# 6 0.0000 0.0000 0.0000 0.0000 0.0000 48.9866
#
#
#
# Elastic Compliance Matrix: (Units=1/GPa)
#
#
# Indices 1 2 3 4 5 6 
#
# 1 0.008486 -0.002521 -0.002029 0.000000 0.000000 0.000000
# 2 -0.002521 0.008128 -0.002230 0.000000 0.000000 0.000000
# 3 -0.002029 -0.002230 0.009811 0.000000 0.000000 0.000000
# 4 0.000000 0.000000 0.000000 -0.103707 0.000000 0.000000
# 5 0.000000 0.000000 0.000000 0.000000 0.003529 0.000000
# 6 0.000000 0.000000 0.000000 0.000000 0.000000 0.020414
#
#
# Mechanical properties :
#
#
# Convention : Reuss Voigt Hill
#
# Bulk Modulus (GPa) = 77.73694 79.12832 78.43263
# Shear Modulus (GPa) = -140.88089 82.78578 -29.04756
#
# Velocity S-wave (km/s) = -7.73656 5.93062 -3.51299
# Velocity P-wave (km/s) = 6.83950 8.97299 4.10706
#
# Compressibility (1/GPa) = 0.01286390
#
# Stress axis : x y z
#
# Youngs Moduli (GPa) = 117.84532 123.03314 101.92597
#
# Poissons Ratio (x) = 0.31019 0.20679
# Poissons Ratio (y) = 0.29711 0.22733
# Poissons Ratio (z) = 0.23909 0.27441
#
# Static dielectric constant tensor:
#      x y z
#    x 4.815280 0.000000 0.000000 
#    y 0.000000 4.334960 0.000000 
#    z 0.000000 0.000000 4.366320 
# 
# 
# High freq. dielectric constant tensor:
#      x y z
#    x 1.960380 0.000000 0.000000 
#    y 0.000000 1.934260 0.000000 
#    z 0.000000 0.000000 1.943300 
# 
# From -- ./inp_files/55055.got.cif
#   From: 2010.03.12/outbox.cif.g09.slc.cpg/sg66_28_cif.got.tgz:55055.got - 2010.04.10 21:57:39.
