data_PCOD8277691
_publ_section_title
;
Structure prediction by ZEFSAII (Michael W. Deem and Ramdas Pophale) SiO2 
 PCOD8277691
Probable space group: C C C M
;
_chemical_formula_sum "Si O2"
_cell_formula_units_Z 104
_cell_length_a 22.213493
_cell_length_b 7.711554
_cell_length_c 29.539021
_cell_angle_alpha 90.000000
_cell_angle_beta 90.000000
_cell_angle_gamma 90.000000
_cell_volume 5060.050567
_symmetry_space_group_name_H-M "C C C M"
_symmetry_group_IT_number 66
_symmetry_cell_setting 'orthorhombic'
loop_
_space_group_symop_operation_xyz
x,y,z
-x,-y,z
x,-y,1/2-z
-x,y,1/2-z
-x,-y,-z
x,y,-z
-x,y,1/2+z
x,-y,1/2+z
1/2+x,1/2+y,z
1/2-x,1/2-y,z
1/2+x,1/2-y,1/2-z
1/2-x,1/2+y,1/2-z
1/2-x,1/2-y,-z
1/2+x,1/2+y,-z
1/2-x,1/2+y,1/2+z
1/2+x,1/2-y,1/2+z
loop_
_atom_site_type_symbol
_atom_site_label
_atom_site_fract_x
_atom_site_fract_y
_atom_site_fract_z
Si Si1 0.680838 0.946341 0.202680
Si Si2 0.547283 0.360551 0.949436
Si Si3 0.685968 0.459477 0.702018
Si Si4 0.148903 0.023174 0.893843
Si Si5 0.000000 0.500000 0.076361
Si Si6 0.764426 0.451381 0.947984
Si Si7 0.873324 0.422979 0.389709
O O1 0.688273 0.743853 0.196173
O O2 0.746396 0.037636 0.203257
O O3 0.645170 0.006492 0.158444
O O4 0.647870 0.000000 0.250000
O O5 0.500000 0.500000 0.930448
O O6 0.606951 0.380297 0.918549
O O7 0.515557 0.172167 0.952466
O O8 0.567889 0.410766 0.000000
O O9 0.652900 0.500000 0.750000
O O10 0.653564 0.543011 0.658327
O O11 0.123156 0.216130 0.894088
O O12 0.213932 0.045072 0.917690
O O13 0.941915 0.521387 0.107034
O O14 0.750000 0.250000 0.945191
O O15 0.830560 0.495914 0.928564
O O16 0.761950 0.516384 0.000000
#
# Coordination Sequence:
#
# PCOD8277691 Si02
#       7
#    16  16  16  16   8  16  16
#     4   9  18  35  57  87 124 156 201 251 308 376
#     4  11  24  43  65  91 124 170 218 263 311 372
#     4   9  18  33  59  91 121 156 197 250 312 379
#     4  11  21  41  65  91 128 160 207 260 323 376
#     4  12  25  44  65  90 124 174 222 263 309 376
#     4  11  24  39  58  90 125 159 204 262 321 378
#     4  11  23  40  62  90 125 169 208 261 312 377
#
# _framework density 20.553155
#
# number of rings (size 3 to 8) (size 9 to 14) (size 15 to 20)
#    0.000    1.538    3.077    2.077    0.000    6.769 
#    0.000    0.385    0.000    0.462    0.000    0.000 
#    0.000    0.000    0.000    0.000    0.000    0.000 
#
# Total GULP energy -644456.541238 kJ/mol
# GULP energy per Si atom -12393.395024 kJ/mol
# Density = 2.050637 g / cm^3
# Si number density = 20.553155 Si / 1000 Ang^3
#
#
#
# Elastic Constant Matrix: (Units=GPa)
#
#
# Indices 1 2 3 4 5 6 
#
# 1 119.8121 25.3415 64.2291 0.0000 0.0000 0.0000
# 2 25.3415 65.6858 19.8895 0.0000 0.0000 0.0000
# 3 64.2291 19.8895 178.5204 0.0000 0.0000 0.0000
# 4 0.0000 0.0000 0.0000 22.1151 0.0000 0.0000
# 5 0.0000 0.0000 0.0000 0.0000 -118.9297 0.0000
# 6 0.0000 0.0000 0.0000 0.0000 0.0000 34.4603
#
#
#
# Elastic Compliance Matrix: (Units=1/GPa)
#
#
# Indices 1 2 3 4 5 6 
#
# 1 0.010930 -0.003132 -0.003583 0.000000 0.000000 0.000000
# 2 -0.003132 0.016653 -0.000729 0.000000 0.000000 0.000000
# 3 -0.003583 -0.000729 0.006972 0.000000 0.000000 0.000000
# 4 0.000000 0.000000 0.000000 0.045218 0.000000 0.000000
# 5 0.000000 0.000000 0.000000 0.000000 -0.008408 0.000000
# 6 0.000000 0.000000 0.000000 0.000000 0.000000 0.029019
#
#
# Mechanical properties :
#
#
# Convention : Reuss Voigt Hill
#
# Bulk Modulus (GPa) = 50.84610 64.77095 57.80852
# Shear Modulus (GPa) = 41.04197 4.49967 22.77082
#
# Velocity S-wave (km/s) = 4.47348 1.48123 3.33212
# Velocity P-wave (km/s) = 7.17463 5.87432 6.55679
#
# Compressibility (1/GPa) = 0.01966719
#
# Stress axis : x y z
#
# Youngs Moduli (GPa) = 91.49290 60.04999 143.42952
#
# Poissons Ratio (x) = 0.18805 0.51398
# Poissons Ratio (y) = 0.28652 0.10451
# Poissons Ratio (z) = 0.32786 0.04375
#
# Static dielectric constant tensor:
#      x y z
#    x 3.615690 0.000000 0.000000 
#    y 0.000000 3.658220 0.000000 
#    z 0.000000 0.000000 3.993610 
# 
# 
# High freq. dielectric constant tensor:
#      x y z
#    x 1.776860 0.000000 0.000000 
#    y 0.000000 1.807650 0.000000 
#    z 0.000000 0.000000 1.812750 
# 
# From -- ./inp_files/70176.got.cif
#   From: 2010.03.12/outbox.cif.g09.slc.cpg/sg66_36_cif.got.tgz:70176.got - 2010.04.10 21:57:39.
