data_PCOD8277204
_publ_section_title
;
Structure prediction by ZEFSAII (Michael W. Deem and Ramdas Pophale) SiO2 
 PCOD8277204
Probable space group: C C C M
;
_chemical_formula_sum "Si O2"
_cell_formula_units_Z 52
_cell_length_a 5.306867
_cell_length_b 33.223743
_cell_length_c 14.061456
_cell_angle_alpha 90.000000
_cell_angle_beta 90.000000
_cell_angle_gamma 90.000000
_cell_volume 2479.231347
_symmetry_space_group_name_H-M "C C C M"
_symmetry_group_IT_number 66
_symmetry_cell_setting 'orthorhombic'
loop_
_space_group_symop_operation_xyz
x,y,z
-x,-y,z
x,-y,1/2-z
-x,y,1/2-z
-x,-y,-z
x,y,-z
-x,y,1/2+z
x,-y,1/2+z
1/2+x,1/2+y,z
1/2-x,1/2-y,z
1/2+x,1/2-y,1/2-z
1/2-x,1/2+y,1/2-z
1/2-x,1/2-y,-z
1/2+x,1/2+y,-z
1/2-x,1/2+y,1/2+z
1/2+x,1/2-y,1/2+z
loop_
_atom_site_type_symbol
_atom_site_label
_atom_site_fract_x
_atom_site_fract_y
_atom_site_fract_z
Si Si1 0.500000 0.000000 0.250000
Si Si2 0.149618 0.959282 0.105765
Si Si3 0.499393 0.773552 0.111435
Si Si4 0.000000 0.102502 0.250000
Si Si5 0.000000 0.344775 0.750000
O O1 0.635975 0.031723 0.182005
O O2 0.981752 0.924287 0.153398
O O3 0.247085 0.946048 0.000000
O O4 0.000000 0.000000 0.093050
O O5 0.750000 0.750000 0.144139
O O6 0.503511 0.817532 0.156258
O O7 0.250000 0.750000 0.146488
O O8 0.493975 0.780076 0.000000
O O9 0.749796 0.128787 0.247338
#
# Coordination Sequence:
#
# PCOD8277204 Si02
#       5
#     4  16  16   8   8
#     4  12  18  44  68  96 122 158 234 292 324 400
#     4  11  24  42  67  92 125 176 227 281 334 391
#     4  10  21  40  66  93 123 165 219 266 311 387
#     4  12  25  43  60  96 138 170 213 275 328 409
#     4  12  25  39  65  92 135 172 205 266 337 389
#
# _framework density 20.974242
#
# number of rings (size 3 to 8) (size 9 to 14) (size 15 to 20)
#    0.000    0.923    3.077    4.154    0.000    2.462 
#    0.000    0.000    0.000    0.000    0.000    0.000 
#    0.000    0.000    0.000    0.000    0.000    0.000 
#
# Total GULP energy -322302.521842 kJ/mol
# GULP energy per Si atom -12396.250840 kJ/mol
# Density = 2.092650 g / cm^3
# Si number density = 20.974242 Si / 1000 Ang^3
#
#
#
# Elastic Constant Matrix: (Units=GPa)
#
#
# Indices 1 2 3 4 5 6 
#
# 1 159.5698 68.4388 52.5132 0.0000 0.0000 0.0000
# 2 68.4388 138.9899 63.0145 0.0000 0.0000 0.0000
# 3 52.5132 63.0145 172.6225 0.0000 0.0000 0.0000
# 4 0.0000 0.0000 0.0000 2.7223 0.0000 0.0000
# 5 0.0000 0.0000 0.0000 0.0000 32.5948 0.0000
# 6 0.0000 0.0000 0.0000 0.0000 0.0000 47.7975
#
#
#
# Elastic Compliance Matrix: (Units=1/GPa)
#
#
# Indices 1 2 3 4 5 6 
#
# 1 0.008152 -0.003463 -0.001216 0.000000 0.000000 0.000000
# 2 -0.003463 0.010093 -0.002631 0.000000 0.000000 0.000000
# 3 -0.001216 -0.002631 0.007123 0.000000 0.000000 0.000000
# 4 0.000000 0.000000 0.000000 0.367341 0.000000 0.000000
# 5 0.000000 0.000000 0.000000 0.000000 0.030680 0.000000
# 6 0.000000 0.000000 0.000000 0.000000 0.000000 0.020922
#
#
# Mechanical properties :
#
#
# Convention : Reuss Voigt Hill
#
# Bulk Modulus (GPa) = 93.03251 93.23500 93.13375
# Shear Modulus (GPa) = 10.81051 35.77063 23.29057
#
# Velocity S-wave (km/s) = 2.27275 4.13420 3.33594
# Velocity P-wave (km/s) = 7.16513 8.20594 7.70313
#
# Compressibility (1/GPa) = 0.01074893
#
# Stress axis : x y z
#
# Youngs Moduli (GPa) = 122.66615 99.08205 140.38606
#
# Poissons Ratio (x) = 0.34311 0.17069
# Poissons Ratio (y) = 0.42478 0.36933
# Poissons Ratio (z) = 0.14914 0.26066
#
# Static dielectric constant tensor:
#      x y z
#    x 3.861110 0.000000 0.000000 
#    y 0.000000 3.951680 0.000000 
#    z 0.000000 0.000000 4.693390 
# 
# 
# High freq. dielectric constant tensor:
#      x y z
#    x 1.827080 0.000000 0.000000 
#    y 0.000000 1.822470 0.000000 
#    z 0.000000 0.000000 1.842270 
# 
# From -- ./inp_files/34959.got.cif
#   From: 2010.03.12/outbox.cif.g09.slc.cpg/sg66_18_cif.got.tgz:34959.got - 2010.04.10 21:57:39.
