data_PCOD8277052
_publ_section_title
;
Structure prediction by ZEFSAII (Michael W. Deem and Ramdas Pophale) SiO2 
 PCOD8277052
Probable space group: C C C M
;
_chemical_formula_sum "Si O2"
_cell_formula_units_Z 112
_cell_length_a 14.219484
_cell_length_b 26.491009
_cell_length_c 14.905333
_cell_angle_alpha 90.000000
_cell_angle_beta 90.000000
_cell_angle_gamma 90.000000
_cell_volume 5614.667211
_symmetry_space_group_name_H-M "C C C M"
_symmetry_group_IT_number 66
_symmetry_cell_setting 'orthorhombic'
loop_
_space_group_symop_operation_xyz
x,y,z
-x,-y,z
x,-y,1/2-z
-x,y,1/2-z
-x,-y,-z
x,y,-z
-x,y,1/2+z
x,-y,1/2+z
1/2+x,1/2+y,z
1/2-x,1/2-y,z
1/2+x,1/2-y,1/2-z
1/2-x,1/2+y,1/2-z
1/2-x,1/2-y,-z
1/2+x,1/2+y,-z
1/2-x,1/2+y,1/2+z
1/2+x,1/2-y,1/2+z
loop_
_atom_site_type_symbol
_atom_site_label
_atom_site_fract_x
_atom_site_fract_y
_atom_site_fract_z
Si Si1 0.854398 0.770171 0.749171
Si Si2 0.601860 0.160949 0.752407
Si Si3 0.393021 0.002128 0.893726
Si Si4 0.704712 0.895883 0.104101
Si Si5 0.897089 0.150056 0.397680
Si Si6 0.294734 0.099055 0.396163
Si Si7 0.606264 0.647892 0.397886
O O1 0.750000 0.750000 0.756260
O O2 0.917888 0.720580 0.741755
O O3 0.881617 0.800985 0.837512
O O4 0.869430 0.804203 0.662159
O O5 0.500000 0.134043 0.750000
O O6 0.658415 0.148626 0.661583
O O7 0.657822 0.143678 0.840347
O O8 0.337033 0.051345 0.859235
O O9 0.500000 0.000000 0.855611
O O10 0.333373 0.954226 0.859228
O O11 0.395957 0.002701 0.000000
O O12 0.817744 0.892984 0.119973
O O13 0.678694 0.887632 0.000000
O O14 0.890119 0.168780 0.500000
O O15 0.000941 0.127073 0.377143
O O16 0.322485 0.106429 0.500000
O O17 0.181727 0.102783 0.381553
O O18 0.613492 0.666949 0.500000
#
# Coordination Sequence:
#
# PCOD8277052 Si02
#       7
#    16  16  16  16  16  16  16
#     4  12  22  39  59  81 114 151 188 234 282 333
#     4  12  24  36  55  84 111 146 192 231 277 336
#     4   9  18  35  58  82 112 150 185 227 286 336
#     4  10  21  38  58  82 114 148 186 232 281 335
#     4  10  21  38  60  84 113 151 190 231 282 334
#     4  10  21  38  58  82 114 148 186 232 281 335
#     4  10  21  38  60  84 113 151 190 231 282 334
#
# _framework density 19.947755000000001
#
# number of rings (size 3 to 8) (size 9 to 14) (size 15 to 20)
#    0.000    1.571    2.857    2.143    0.000    4.000 
#    0.000    2.143    0.000    4.286    0.000    4.000 
#    0.000    0.000    0.000    0.000    0.000    0.000 
#
# Total GULP energy -694185.740643 kJ/mol
# GULP energy per Si atom -12396.173940 kJ/mol
# Density = 1.990235 g / cm^3
# Si number density = 19.947755 Si / 1000 Ang^3
#
#
#
# Elastic Constant Matrix: (Units=GPa)
#
#
# Indices 1 2 3 4 5 6 
#
# 1 143.2418 44.7079 21.8031 0.0000 0.0000 0.0000
# 2 44.7079 115.2352 28.4459 0.0000 0.0000 0.0000
# 3 21.8031 28.4459 74.7525 0.0000 0.0000 0.0000
# 4 0.0000 0.0000 0.0000 11.8384 0.0000 0.0000
# 5 0.0000 0.0000 0.0000 0.0000 20.1545 0.0000
# 6 0.0000 0.0000 0.0000 0.0000 0.0000 33.9553
#
#
#
# Elastic Compliance Matrix: (Units=1/GPa)
#
#
# Indices 1 2 3 4 5 6 
#
# 1 0.008053 -0.002808 -0.001280 0.000000 0.000000 0.000000
# 2 -0.002808 0.010557 -0.003198 0.000000 0.000000 0.000000
# 3 -0.001280 -0.003198 0.014968 0.000000 0.000000 0.000000
# 4 0.000000 0.000000 0.000000 0.084471 0.000000 0.000000
# 5 0.000000 0.000000 0.000000 0.000000 0.049617 0.000000
# 6 0.000000 0.000000 0.000000 0.000000 0.000000 0.029450
#
#
# Mechanical properties :
#
#
# Convention : Reuss Voigt Hill
#
# Bulk Modulus (GPa) = 52.61945 58.12704 55.37324
# Shear Modulus (GPa) = 22.93335 29.07449 26.00392
#
# Velocity S-wave (km/s) = 3.39436 3.82191 3.61446
# Velocity P-wave (km/s) = 6.46515 6.97702 6.72596
#
# Compressibility (1/GPa) = 0.01900438
#
# Stress axis : x y z
#
# Youngs Moduli (GPa) = 124.18489 94.72511 66.80983
#
# Poissons Ratio (x) = 0.26600 0.08552
# Poissons Ratio (y) = 0.34873 0.21367
# Poissons Ratio (z) = 0.15897 0.30295
#
# Static dielectric constant tensor:
#      x y z
#    x 4.100810 0.000000 0.000000 
#    y 0.000000 3.662060 0.000000 
#    z 0.000000 0.000000 3.627970 
# 
# 
# High freq. dielectric constant tensor:
#      x y z
#    x 1.801140 0.000000 0.000000 
#    y 0.000000 1.752360 0.000000 
#    z 0.000000 0.000000 1.784150 
# 
# From -- ./inp_files/28729.got.cif
#   From: 2010.03.12/outbox.cif.g09.slc.cpg/sg66_15_cif.got.tgz:28729.got - 2010.04.10 21:57:39.
