data_PCOD8277928
_publ_section_title
;
Structure prediction by ZEFSAII (Michael W. Deem and Ramdas Pophale) SiO2 
 PCOD8277928
Probable space group: C C C M
;
_chemical_formula_sum "Si O2"
_cell_formula_units_Z 64
_cell_length_a 12.784268
_cell_length_b 13.085589
_cell_length_c 14.799243
_cell_angle_alpha 90.000000
_cell_angle_beta 90.000000
_cell_angle_gamma 90.000000
_cell_volume 2475.760577
_symmetry_space_group_name_H-M "C C C M"
_symmetry_group_IT_number 66
_symmetry_cell_setting 'orthorhombic'
loop_
_space_group_symop_operation_xyz
x,y,z
-x,-y,z
x,-y,1/2-z
-x,y,1/2-z
-x,-y,-z
x,y,-z
-x,y,1/2+z
x,-y,1/2+z
1/2+x,1/2+y,z
1/2-x,1/2-y,z
1/2+x,1/2-y,1/2-z
1/2-x,1/2+y,1/2-z
1/2-x,1/2-y,-z
1/2+x,1/2+y,-z
1/2-x,1/2+y,1/2+z
1/2+x,1/2-y,1/2+z
loop_
_atom_site_type_symbol
_atom_site_label
_atom_site_fract_x
_atom_site_fract_y
_atom_site_fract_z
Si Si1 0.586338 0.577003 0.393549
Si Si2 0.862616 0.302768 0.598140
Si Si3 0.873250 0.727216 0.706031
Si Si4 0.318369 0.961729 0.898310
O O1 0.500000 0.500000 0.352996
O O2 0.573985 0.584088 0.500000
O O3 0.567156 0.689521 0.354068
O O4 0.698951 0.534328 0.363702
O O5 0.915441 0.273579 0.500000
O O6 0.750000 0.250000 0.598415
O O7 0.921484 0.268861 0.691007
O O8 0.860088 0.424374 0.605759
O O9 0.750000 0.750000 0.708095
O O10 0.888414 0.614407 0.662602
O O11 0.322389 0.917916 0.000000
#
# Coordination Sequence:
#
# PCOD8277928 Si02
#       4
#    16  16  16  16
#     4   9  17  29  47  75 110 143 174 219 290 368
#     4   9  17  28  44  67  96 134 182 236 285 325
#     4   9  16  27  46  69 100 138 181 231 286 342
#     4   9  16  27  46  73 103 137 182 236 291 345
#
# _framework density 25.850643000000002
#
# number of rings (size 3 to 8) (size 9 to 14) (size 15 to 20)
#    0.000    3.000    0.000    1.500    0.000    3.000 
#    0.000    0.000    0.000   27.750    0.000   12.250 
#    0.000   24.000    0.000    4.000    0.000    5.250 
#
# Total GULP energy -396579.880779 kJ/mol
# GULP energy per Si atom -12393.121274 kJ/mol
# Density = 2.579181 g / cm^3
# Si number density = 25.850643 Si / 1000 Ang^3
#
#
#
# Elastic Constant Matrix: (Units=GPa)
#
#
# Indices 1 2 3 4 5 6 
#
# 1 41.2381 21.3641 14.2869 0.0000 0.0000 0.0000
# 2 21.3641 124.1301 38.7957 0.0000 0.0000 0.0000
# 3 14.2869 38.7957 142.1349 0.0000 0.0000 0.0000
# 4 0.0000 0.0000 0.0000 14.4829 0.0000 0.0000
# 5 0.0000 0.0000 0.0000 0.0000 23.4936 0.0000
# 6 0.0000 0.0000 0.0000 0.0000 0.0000 44.4509
#
#
#
# Elastic Compliance Matrix: (Units=1/GPa)
#
#
# Indices 1 2 3 4 5 6 
#
# 1 0.026943 -0.004144 -0.001577 0.000000 0.000000 0.000000
# 2 -0.004144 0.009445 -0.002161 0.000000 0.000000 0.000000
# 3 -0.001577 -0.002161 0.007784 0.000000 0.000000 0.000000
# 4 0.000000 0.000000 0.000000 0.069047 0.000000 0.000000
# 5 0.000000 0.000000 0.000000 0.000000 0.042565 0.000000
# 6 0.000000 0.000000 0.000000 0.000000 0.000000 0.022497
#
#
# Mechanical properties :
#
#
# Convention : Reuss Voigt Hill
#
# Bulk Modulus (GPa) = 35.20347 50.71076 42.95711
# Shear Modulus (GPa) = 24.56828 32.02256 28.29542
#
# Velocity S-wave (km/s) = 3.08619 3.52341 3.31202
# Velocity P-wave (km/s) = 5.13293 6.01764 5.59281
#
# Compressibility (1/GPa) = 0.02840629
#
# Stress axis : x y z
#
# Youngs Moduli (GPa) = 37.11571 105.87761 128.46796
#
# Poissons Ratio (x) = 0.43878 0.20260
# Poissons Ratio (y) = 0.15382 0.27767
# Poissons Ratio (z) = 0.05853 0.22884
#
# Static dielectric constant tensor:
#      x y z
#    x 4.499540 0.000000 0.000000 
#    y 0.000000 4.441170 0.000000 
#    z 0.000000 0.000000 5.372380 
# 
# 
# High freq. dielectric constant tensor:
#      x y z
#    x 2.026530 0.000000 0.000000 
#    y 0.000000 2.035790 0.000000 
#    z 0.000000 0.000000 2.049510 
# 
# From -- ./inp_files/29564.got.cif
#   From: 2010.03.12/outbox.cif.g09.slc.cpg/sg66_15_cif.got.tgz:29564.got - 2010.04.10 21:57:39.
