data_PCOD8277417
_publ_section_title
;
Structure prediction by ZEFSAII (Michael W. Deem and Ramdas Pophale) SiO2 
 PCOD8277417
Probable space group: C C C M
;
_chemical_formula_sum "Si O2"
_cell_formula_units_Z 96
_cell_length_a 25.360436
_cell_length_b 11.452486
_cell_length_c 16.361932
_cell_angle_alpha 90.000000
_cell_angle_beta 90.000000
_cell_angle_gamma 90.000000
_cell_volume 4752.160156
_symmetry_space_group_name_H-M "C C C M"
_symmetry_group_IT_number 66
_symmetry_cell_setting 'orthorhombic'
loop_
_space_group_symop_operation_xyz
x,y,z
-x,-y,z
x,-y,1/2-z
-x,y,1/2-z
-x,-y,-z
x,y,-z
-x,y,1/2+z
x,-y,1/2+z
1/2+x,1/2+y,z
1/2-x,1/2-y,z
1/2+x,1/2-y,1/2-z
1/2-x,1/2+y,1/2-z
1/2-x,1/2-y,-z
1/2+x,1/2+y,-z
1/2-x,1/2+y,1/2+z
1/2+x,1/2-y,1/2+z
loop_
_atom_site_type_symbol
_atom_site_label
_atom_site_fract_x
_atom_site_fract_y
_atom_site_fract_z
Si Si1 0.308540 0.293324 0.906403
Si Si2 0.869303 0.999512 0.845016
Si Si3 0.925627 0.223641 0.150287
Si Si4 0.059237 0.469741 0.408951
Si Si5 0.465578 0.651413 0.405337
Si Si6 0.900957 0.672422 0.825836
O O1 0.250000 0.250000 0.887785
O O2 0.320826 0.432050 0.890468
O O3 0.342471 0.217987 0.843102
O O4 0.323578 0.266170 0.000000
O O5 0.924148 0.933688 0.861469
O O6 0.856447 0.000000 0.750000
O O7 0.876904 0.135810 0.871347
O O8 0.928214 0.331619 0.088461
O O9 0.921034 0.281329 0.239340
O O10 0.978508 0.145395 0.141098
O O11 0.071189 0.515651 0.500000
O O12 0.096765 0.532729 0.340903
O O13 0.000000 0.500000 0.382124
O O14 0.472833 0.617533 0.500000
O O15 0.441463 0.780704 0.395608
#
# Coordination Sequence:
#
# PCOD8277417 Si02
#       6
#    16  16  16  16  16  16
#     4  10  22  43  71  92 113 155 210 265 321 381
#     4  11  22  38  61  91 131 162 205 262 320 381
#     4  12  23  35  59  89 130 170 211 258 314 372
#     4  11  23  36  55  84 128 177 216 252 299 370
#     4  11  22  35  56  88 129 176 213 246 300 378
#     4  11  21  38  61  87 120 164 214 262 307 372
#
# _framework density 20.201339000000001
#
# number of rings (size 3 to 8) (size 9 to 14) (size 15 to 20)
#    0.000    1.000    5.000    5.000    0.000    4.667 
#    0.000    1.667    0.000    0.000    0.000    3.500 
#    0.000    0.000    0.000    0.000    0.000    0.000 
#
# Total GULP energy -594754.850918 kJ/mol
# GULP energy per Si atom -12390.726061 kJ/mol
# Density = 2.015536 g / cm^3
# Si number density = 20.201339 Si / 1000 Ang^3
#
#
#
# Elastic Constant Matrix: (Units=GPa)
#
#
# Indices 1 2 3 4 5 6 
#
# 1 89.1109 34.1356 38.2290 0.0000 0.0000 0.0000
# 2 34.1356 99.4089 -1.6653 0.0000 0.0000 0.0000
# 3 38.2290 -1.6653 88.6084 0.0000 0.0000 0.0000
# 4 0.0000 0.0000 0.0000 24.5250 0.0000 0.0000
# 5 0.0000 0.0000 0.0000 0.0000 24.8514 0.0000
# 6 0.0000 0.0000 0.0000 0.0000 0.0000 28.5768
#
#
#
# Elastic Compliance Matrix: (Units=1/GPa)
#
#
# Indices 1 2 3 4 5 6 
#
# 1 0.016558 -0.005807 -0.007253 0.000000 0.000000 0.000000
# 2 -0.005807 0.012099 0.002733 0.000000 0.000000 0.000000
# 3 -0.007253 0.002733 0.014466 0.000000 0.000000 0.000000
# 4 0.000000 0.000000 0.000000 0.040775 0.000000 0.000000
# 5 0.000000 0.000000 0.000000 0.000000 0.040239 0.000000
# 6 0.000000 0.000000 0.000000 0.000000 0.000000 0.034993
#
#
# Mechanical properties :
#
#
# Convention : Reuss Voigt Hill
#
# Bulk Modulus (GPa) = 44.50590 46.50299 45.50445
# Shear Modulus (GPa) = 26.69863 29.35255 28.02559
#
# Velocity S-wave (km/s) = 3.63936 3.81596 3.72871
# Velocity P-wave (km/s) = 6.30388 6.51806 6.41187
#
# Compressibility (1/GPa) = 0.02246893
#
# Stress axis : x y z
#
# Youngs Moduli (GPa) = 60.39334 82.64881 69.12684
#
# Poissons Ratio (x) = 0.47997 0.50137
# Poissons Ratio (y) = 0.35072 -0.18892
# Poissons Ratio (z) = 0.43803 -0.22587
#
# Static dielectric constant tensor:
#      x y z
#    x 3.347790 0.000000 0.000000 
#    y 0.000000 4.152560 0.000000 
#    z 0.000000 0.000000 3.596260 
# 
# 
# High freq. dielectric constant tensor:
#      x y z
#    x 1.738720 0.000000 0.000000 
#    y 0.000000 1.804770 0.000000 
#    z 0.000000 0.000000 1.794090 
# 
# From -- ./inp_files/43564.got.cif
#   From: 2010.03.12/outbox.cif.g09.slc.cpg/sg66_22_cif.got.tgz:43564.got - 2010.04.10 21:57:39.
