data_PCOD8277589
_publ_section_title
;
Structure prediction by ZEFSAII (Michael W. Deem and Ramdas Pophale) SiO2 
 PCOD8277589
Probable space group: C C C M
;
_chemical_formula_sum "Si O2"
_cell_formula_units_Z 68
_cell_length_a 27.147509
_cell_length_b 6.739439
_cell_length_c 17.454898
_cell_angle_alpha 90.000000
_cell_angle_beta 90.000000
_cell_angle_gamma 90.000000
_cell_volume 3193.530350
_symmetry_space_group_name_H-M "C C C M"
_symmetry_group_IT_number 66
_symmetry_cell_setting 'orthorhombic'
loop_
_space_group_symop_operation_xyz
x,y,z
-x,-y,z
x,-y,1/2-z
-x,y,1/2-z
-x,-y,-z
x,y,-z
-x,y,1/2+z
x,-y,1/2+z
1/2+x,1/2+y,z
1/2-x,1/2-y,z
1/2+x,1/2-y,1/2-z
1/2-x,1/2+y,1/2-z
1/2-x,1/2-y,-z
1/2+x,1/2+y,-z
1/2-x,1/2+y,1/2+z
1/2+x,1/2-y,1/2+z
loop_
_atom_site_type_symbol
_atom_site_label
_atom_site_fract_x
_atom_site_fract_y
_atom_site_fract_z
Si Si1 0.805583 0.807253 0.626082
Si Si2 0.647939 0.033801 0.000000
Si Si3 0.199169 0.863957 0.500000
Si Si4 0.456472 0.340193 0.156178
Si Si5 0.452836 0.864493 0.500000
Si Si6 0.131317 0.000000 0.750000
Si Si7 0.500000 0.000000 0.750000
O O1 0.750000 0.750000 0.647155
O O2 0.830658 0.632770 0.576750
O O3 0.805571 0.006596 0.576334
O O4 0.834381 0.839188 0.706252
O O5 0.656928 0.798810 0.000000
O O6 0.588938 0.036271 0.000000
O O7 0.250000 0.750000 0.500000
O O8 0.500000 0.500000 0.172515
O O9 0.403439 0.412369 0.184221
O O10 0.465676 0.133574 0.197767
O O11 0.451386 0.292873 0.067958
O O12 0.500000 0.000000 0.500000
#
# Coordination Sequence:
#
# PCOD8277589 Si02
#       7
#    16   8   8  16   8   8   4
#     4  11  25  46  71 103 143 187 239 299 353 425
#     4  11  24  46  75 103 140 182 237 298 360 424
#     4  11  19  45  77 100 134 185 240 291 361 418
#     4  12  26  50  74 105 147 191 234 299 359 434
#     4  12  28  44  75 109 137 186 241 294 351 442
#     4  12  27  46  69 104 148 189 235 296 362 418
#     4  12  22  46  78  98 144 192 238 284 372 424
#
# _framework density 21.293050999999998
#
# number of rings (size 3 to 8) (size 9 to 14) (size 15 to 20)
#    0.000    0.471    5.882    2.471    6.588    1.882 
#    4.235    0.000    0.000    0.000    0.000    0.000 
#    0.000    0.000    0.000    0.000    0.000    0.000 
#
# Total GULP energy -421633.324346 kJ/mol
# GULP energy per Si atom -12400.980128 kJ/mol
# Density = 2.124459 g / cm^3
# Si number density = 21.293051 Si / 1000 Ang^3
#
#
#
# Elastic Constant Matrix: (Units=GPa)
#
#
# Indices 1 2 3 4 5 6 
#
# 1 179.9828 60.4466 65.7378 0.0000 0.0000 0.0000
# 2 60.4466 125.2468 54.2973 0.0000 0.0000 0.0000
# 3 65.7378 54.2973 149.9797 0.0000 0.0000 0.0000
# 4 0.0000 0.0000 0.0000 140.5472 0.0000 0.0000
# 5 0.0000 0.0000 0.0000 0.0000 14.7292 0.0000
# 6 0.0000 0.0000 0.0000 0.0000 0.0000 29.2337
#
#
#
# Elastic Compliance Matrix: (Units=1/GPa)
#
#
# Indices 1 2 3 4 5 6 
#
# 1 0.007223 -0.002507 -0.002258 0.000000 0.000000 0.000000
# 2 -0.002507 0.010341 -0.002645 0.000000 0.000000 0.000000
# 3 -0.002258 -0.002645 0.008615 0.000000 0.000000 0.000000
# 4 0.000000 0.000000 0.000000 0.007115 0.000000 0.000000
# 5 0.000000 0.000000 0.000000 0.000000 0.067893 0.000000
# 6 0.000000 0.000000 0.000000 0.000000 0.000000 0.034207
#
#
# Mechanical properties :
#
#
# Convention : Reuss Voigt Hill
#
# Bulk Modulus (GPa) = 88.04038 90.68587 89.36312
# Shear Modulus (GPa) = 32.46765 55.21717 43.84241
#
# Velocity S-wave (km/s) = 3.90911 5.09787 4.54254
# Velocity P-wave (km/s) = 7.86203 8.79392 8.34100
#
# Compressibility (1/GPa) = 0.01135842
#
# Stress axis : x y z
#
# Youngs Moduli (GPa) = 138.44975 96.70510 116.07754
#
# Poissons Ratio (x) = 0.24243 0.26214
# Poissons Ratio (y) = 0.34708 0.30701
# Poissons Ratio (z) = 0.31266 0.25577
#
# Static dielectric constant tensor:
#      x y z
#    x 4.091010 0.000000 0.000000 
#    y 0.000000 4.084080 0.000000 
#    z 0.000000 0.000000 3.933440 
# 
# 
# High freq. dielectric constant tensor:
#      x y z
#    x 1.851950 0.000000 0.000000 
#    y 0.000000 1.838770 0.000000 
#    z 0.000000 0.000000 1.843600 
# 
# From -- ./inp_files/52868.got.cif
#   From: 2010.03.12/outbox.cif.g09.slc.cpg/sg66_27_cif.got.tgz:52868.got - 2010.04.10 21:57:39.
