data_PCOD8277303
_publ_section_title
;
Structure prediction by ZEFSAII (Michael W. Deem and Ramdas Pophale) SiO2 
 PCOD8277303
Probable space group: C C C M
;
_chemical_formula_sum "Si O2"
_cell_formula_units_Z 128
_cell_length_a 22.037443
_cell_length_b 11.343262
_cell_length_c 27.518982
_cell_angle_alpha 90.000000
_cell_angle_beta 90.000000
_cell_angle_gamma 90.000000
_cell_volume 6879.098522
_symmetry_space_group_name_H-M "C C C M"
_symmetry_group_IT_number 66
_symmetry_cell_setting 'orthorhombic'
loop_
_space_group_symop_operation_xyz
x,y,z
-x,-y,z
x,-y,1/2-z
-x,y,1/2-z
-x,-y,-z
x,y,-z
-x,y,1/2+z
x,-y,1/2+z
1/2+x,1/2+y,z
1/2-x,1/2-y,z
1/2+x,1/2-y,1/2-z
1/2-x,1/2+y,1/2-z
1/2-x,1/2-y,-z
1/2+x,1/2+y,-z
1/2-x,1/2+y,1/2+z
1/2+x,1/2-y,1/2+z
loop_
_atom_site_type_symbol
_atom_site_label
_atom_site_fract_x
_atom_site_fract_y
_atom_site_fract_z
Si Si1 0.984319 0.301420 0.400004
Si Si2 0.834490 0.956216 0.598658
Si Si3 0.606567 0.967329 0.944440
Si Si4 0.600598 0.502273 0.304381
Si Si5 0.114153 0.730758 0.943238
Si Si6 0.502357 0.306882 0.303760
Si Si7 0.554860 0.579444 0.944248
Si Si8 0.264162 0.880472 0.556497
O O1 0.952340 0.425571 0.413471
O O2 0.936982 0.198279 0.413339
O O3 0.042828 0.261521 0.430959
O O4 0.998754 0.299820 0.342497
O O5 0.840790 0.815323 0.588130
O O6 0.847130 0.985756 0.655228
O O7 0.883398 0.008951 0.561663
O O8 0.769860 0.014963 0.585872
O O9 0.663961 0.885285 0.935281
O O10 0.630177 0.096563 0.929404
O O11 0.584666 0.965776 0.000000
O O12 0.629336 0.500000 0.250000
O O13 0.563103 0.382578 0.311816
O O14 0.556163 0.612309 0.311156
O O15 0.124042 0.758783 0.000000
O O16 0.500000 0.250785 0.250000
O O17 0.500000 0.500000 0.923087
O O18 0.543450 0.611341 0.000000
O O19 0.246701 0.894796 0.500000
O O20 0.250000 0.750000 0.576251
#
# Coordination Sequence:
#
# PCOD8277303 Si02
#       8
#    16  16  16  16  16  16  16  16
#     4  12  19  32  54  79 111 148 184 222 276 329
#     4  12  20  33  55  83 107 144 186 230 274 320
#     4  10  23  39  52  74 112 157 190 217 266 333
#     4   9  17  31  50  82 114 136 172 223 280 335
#     4  11  22  34  52  80 112 148 187 224 266 327
#     4   9  17  30  50  81 113 139 173 220 279 339
#     4  11  19  26  43  77 114 136 166 221 272 318
#     4  10  22  39  56  79 111 145 183 225 272 331
#
# _framework density 18.607088999999998
#
# number of rings (size 3 to 8) (size 9 to 14) (size 15 to 20)
#    0.000    1.500    3.750    4.125    0.000    2.500 
#    0.000    1.875    0.000    1.500    6.500    0.000 
#    0.000    0.000    0.000    0.000    0.000    0.000 
#
# Total GULP energy -793290.957513 kJ/mol
# GULP energy per Si atom -12395.171211 kJ/mol
# Density = 1.856474 g / cm^3
# Si number density = 18.607089 Si / 1000 Ang^3
#
#
#
# Elastic Constant Matrix: (Units=GPa)
#
#
# Indices 1 2 3 4 5 6 
#
# 1 37.5709 29.4882 23.8586 0.0000 0.0000 0.0000
# 2 29.4882 80.1825 42.7684 0.0000 0.0000 0.0000
# 3 23.8586 42.7684 117.4234 0.0000 0.0000 0.0000
# 4 0.0000 0.0000 0.0000 21.9785 0.0000 0.0000
# 5 0.0000 0.0000 0.0000 0.0000 18.7816 0.0000
# 6 0.0000 0.0000 0.0000 0.0000 0.0000 27.1938
#
#
#
# Elastic Compliance Matrix: (Units=1/GPa)
#
#
# Indices 1 2 3 4 5 6 
#
# 1 0.038421 -0.012369 -0.003302 0.000000 0.000000 0.000000
# 2 -0.012369 0.019460 -0.004575 0.000000 0.000000 0.000000
# 3 -0.003302 -0.004575 0.010853 0.000000 0.000000 0.000000
# 4 0.000000 0.000000 0.000000 0.045499 0.000000 0.000000
# 5 0.000000 0.000000 0.000000 0.000000 0.053244 0.000000
# 6 0.000000 0.000000 0.000000 0.000000 0.000000 0.036773
#
#
# Mechanical properties :
#
#
# Convention : Reuss Voigt Hill
#
# Bulk Modulus (GPa) = 35.40538 47.48969 41.44753
# Shear Modulus (GPa) = 19.67303 22.86156 21.26730
#
# Velocity S-wave (km/s) = 3.25512 3.50901 3.38445
# Velocity P-wave (km/s) = 5.76168 6.48038 6.13157
#
# Compressibility (1/GPa) = 0.02824429
#
# Stress axis : x y z
#
# Youngs Moduli (GPa) = 26.02762 51.38618 92.13821
#
# Poissons Ratio (x) = 0.63558 0.30420
# Poissons Ratio (y) = 0.32193 0.42152
# Poissons Ratio (z) = 0.08593 0.23508
#
# Static dielectric constant tensor:
#      x y z
#    x 3.151610 0.000000 0.000000 
#    y 0.000000 3.533040 0.000000 
#    z 0.000000 0.000000 3.410290 
# 
# 
# High freq. dielectric constant tensor:
#      x y z
#    x 1.693140 0.000000 0.000000 
#    y 0.000000 1.717570 0.000000 
#    z 0.000000 0.000000 1.706810 
# 
# From -- ./inp_files/66180.got.cif
#   From: 2010.03.12/outbox.cif.g09.slc.cpg/sg66_34_cif.got.tgz:66180.got - 2010.04.10 21:57:39.
