data_PCOD8277192
_publ_section_title
;
Structure prediction by ZEFSAII (Michael W. Deem and Ramdas Pophale) SiO2 
 PCOD8277192
Probable space group: C C C M
;
_chemical_formula_sum "Si O2"
_cell_formula_units_Z 100
_cell_length_a 19.399754
_cell_length_b 8.911787
_cell_length_c 29.380577
_cell_angle_alpha 90.000000
_cell_angle_beta 90.000000
_cell_angle_gamma 90.000000
_cell_volume 5079.504406
_symmetry_space_group_name_H-M "C C C M"
_symmetry_group_IT_number 66
_symmetry_cell_setting 'orthorhombic'
loop_
_space_group_symop_operation_xyz
x,y,z
-x,-y,z
x,-y,1/2-z
-x,y,1/2-z
-x,-y,-z
x,y,-z
-x,y,1/2+z
x,-y,1/2+z
1/2+x,1/2+y,z
1/2-x,1/2-y,z
1/2+x,1/2-y,1/2-z
1/2-x,1/2+y,1/2-z
1/2-x,1/2-y,-z
1/2+x,1/2+y,-z
1/2-x,1/2+y,1/2+z
1/2+x,1/2-y,1/2+z
loop_
_atom_site_type_symbol
_atom_site_label
_atom_site_fract_x
_atom_site_fract_y
_atom_site_fract_z
Si Si1 0.316514 0.332445 0.250614
Si Si2 0.408980 0.818222 0.682082
Si Si3 0.670601 0.208394 0.552372
Si Si4 0.500000 0.000000 0.250000
Si Si5 0.182439 0.464093 0.624777
Si Si6 0.666447 0.357530 0.852877
Si Si7 0.432968 0.407725 0.892183
O O1 0.292874 0.500000 0.250000
O O2 0.250000 0.250000 0.232989
O O3 0.373912 0.309327 0.212565
O O4 0.337824 0.289014 0.301924
O O5 0.450135 0.733097 0.641256
O O6 0.459096 0.896021 0.716429
O O7 0.354749 0.942231 0.664626
O O8 0.653141 0.179735 0.500000
O O9 0.750000 0.250000 0.560196
O O10 0.618017 0.340380 0.569008
O O11 0.663080 0.051002 0.578431
O O12 0.263496 0.449561 0.636658
O O13 0.156106 0.293504 0.617171
O O14 0.604759 0.468657 0.862036
O O15 0.500000 0.500000 0.911566
#
# Coordination Sequence:
#
# PCOD8277192 Si02
#       7
#    16  16  16   4  16  16  16
#     4  12  23  35  57  87 120 160 213 268 301 352
#     4  11  26  39  59  81 125 172 214 265 305 372
#     4  10  21  42  71  98 124 157 201 257 321 390
#     4  12  28  40  54  88 122 172 228 256 308 360
#     4  10  21  40  64  89 123 160 204 263 312 375
#     4  11  21  38  60  92 124 161 211 256 314 365
#     4  11  25  42  64  89 126 170 204 255 321 386
#
# _framework density 19.686959999999999
#
# number of rings (size 3 to 8) (size 9 to 14) (size 15 to 20)
#    0.000    1.120    4.800    1.920    5.600    0.320 
#    0.000    2.400    0.000    0.960    0.000    0.000 
#    0.000    0.000    0.000    0.000    0.000    0.000 
#
# Total GULP energy -619494.179277 kJ/mol
# GULP energy per Si atom -12389.883586 kJ/mol
# Density = 1.964215 g / cm^3
# Si number density = 19.686960 Si / 1000 Ang^3
#
#
#
# Elastic Constant Matrix: (Units=GPa)
#
#
# Indices 1 2 3 4 5 6 
#
# 1 89.7085 51.0906 44.4154 0.0000 0.0000 0.0000
# 2 51.0906 121.1872 38.8388 0.0000 0.0000 0.0000
# 3 44.4154 38.8388 116.4862 0.0000 0.0000 0.0000
# 4 0.0000 0.0000 0.0000 25.5094 0.0000 0.0000
# 5 0.0000 0.0000 0.0000 0.0000 19.5053 0.0000
# 6 0.0000 0.0000 0.0000 0.0000 0.0000 31.6337
#
#
#
# Elastic Compliance Matrix: (Units=1/GPa)
#
#
# Indices 1 2 3 4 5 6 
#
# 1 0.016499 -0.005530 -0.004447 0.000000 0.000000 0.000000
# 2 -0.005530 0.011093 -0.001590 0.000000 0.000000 0.000000
# 3 -0.004447 -0.001590 0.010810 0.000000 0.000000 0.000000
# 4 0.000000 0.000000 0.000000 0.039201 0.000000 0.000000
# 5 0.000000 0.000000 0.000000 0.000000 0.051268 0.000000
# 6 0.000000 0.000000 0.000000 0.000000 0.000000 0.031612
#
#
# Mechanical properties :
#
#
# Convention : Reuss Voigt Hill
#
# Bulk Modulus (GPa) = 65.49864 66.23018 65.86441
# Shear Modulus (GPa) = 26.49624 28.19884 27.34754
#
# Velocity S-wave (km/s) = 3.67260 3.78876 3.73113
# Velocity P-wave (km/s) = 7.16424 7.27010 7.21736
#
# Compressibility (1/GPa) = 0.01526749
#
# Stress axis : x y z
#
# Youngs Moduli (GPa) = 60.61149 90.14908 92.50407
#
# Poissons Ratio (x) = 0.49856 0.41135
# Poissons Ratio (y) = 0.33520 0.14707
# Poissons Ratio (z) = 0.26953 0.14332
#
# Static dielectric constant tensor:
#      x y z
#    x 3.558380 0.000000 0.000000 
#    y 0.000000 3.892020 0.000000 
#    z 0.000000 0.000000 3.633450 
# 
# 
# High freq. dielectric constant tensor:
#      x y z
#    x 1.755570 0.000000 0.000000 
#    y 0.000000 1.787920 0.000000 
#    z 0.000000 0.000000 1.750780 
# 
# From -- ./inp_files/65720.got.cif
#   From: 2010.03.12/outbox.cif.g09.slc.cpg/sg66_33_cif.got.tgz:65720.got - 2010.04.10 21:57:39.
