data_PCOD8277704
_publ_section_title
;
Structure prediction by ZEFSAII (Michael W. Deem and Ramdas Pophale) SiO2 
 PCOD8277704
Probable space group: C C C M
;
_chemical_formula_sum "Si O2"
_cell_formula_units_Z 56
_cell_length_a 10.696752
_cell_length_b 16.446954
_cell_length_c 17.854735
_cell_angle_alpha 90.000000
_cell_angle_beta 90.000000
_cell_angle_gamma 90.000000
_cell_volume 3141.165461
_symmetry_space_group_name_H-M "C C C M"
_symmetry_group_IT_number 66
_symmetry_cell_setting 'orthorhombic'
loop_
_space_group_symop_operation_xyz
x,y,z
-x,-y,z
x,-y,1/2-z
-x,y,1/2-z
-x,-y,-z
x,y,-z
-x,y,1/2+z
x,-y,1/2+z
1/2+x,1/2+y,z
1/2-x,1/2-y,z
1/2+x,1/2-y,1/2-z
1/2-x,1/2+y,1/2-z
1/2-x,1/2-y,-z
1/2+x,1/2+y,-z
1/2-x,1/2+y,1/2+z
1/2+x,1/2-y,1/2+z
loop_
_atom_site_type_symbol
_atom_site_label
_atom_site_fract_x
_atom_site_fract_y
_atom_site_fract_z
Si Si1 0.443642 0.085845 0.585000
Si Si2 0.000000 0.831499 0.250000
Si Si3 0.740076 0.845476 0.296333
Si Si4 0.626860 0.793337 0.149760
O O1 0.394163 0.083018 0.500000
O O2 0.325499 0.104852 0.637755
O O3 0.553050 0.153320 0.589391
O O4 0.500000 0.000000 0.609877
O O5 0.120811 0.882509 0.220951
O O6 0.035819 0.776893 0.321355
O O7 0.750000 0.750000 0.317578
O O8 0.661305 0.852114 0.219714
O O9 0.750000 0.750000 0.114436
#
# Coordination Sequence:
#
# PCOD8277704 Si02
#       4
#    16   8  16  16
#     4  11  22  33  48  78 114 144 174 212 261 318
#     4   8  14  30  53  81  96 120 176 232 262 300
#     4   9  16  31  55  78 100 133 175 228 265 307
#     4   9  16  31  53  74 100 135 175 225 261 307
#
# _framework density 17.827777000000001
#
# number of rings (size 3 to 8) (size 9 to 14) (size 15 to 20)
#    0.000    3.143    5.714    0.000    0.000    3.429 
#    0.000    0.000    0.000   13.714    0.000   16.000 
#    0.000    0.000    0.000    0.000    0.000    0.000 
#
# Total GULP energy -346899.490688 kJ/mol
# GULP energy per Si atom -12389.267525 kJ/mol
# Density = 1.778720 g / cm^3
# Si number density = 17.827777 Si / 1000 Ang^3
#
#
#
# Elastic Constant Matrix: (Units=GPa)
#
#
# Indices 1 2 3 4 5 6 
#
# 1 131.6891 27.4611 42.4568 0.0000 0.0000 0.0000
# 2 27.4611 49.9701 25.0468 0.0000 0.0000 0.0000
# 3 42.4568 25.0468 65.3581 0.0000 0.0000 0.0000
# 4 0.0000 0.0000 0.0000 18.2133 0.0000 0.0000
# 5 0.0000 0.0000 0.0000 0.0000 24.1782 0.0000
# 6 0.0000 0.0000 0.0000 0.0000 0.0000 17.3087
#
#
#
# Elastic Compliance Matrix: (Units=1/GPa)
#
#
# Indices 1 2 3 4 5 6 
#
# 1 0.009900 -0.002744 -0.005380 0.000000 0.000000 0.000000
# 2 -0.002744 0.025531 -0.008001 0.000000 0.000000 0.000000
# 3 -0.005380 -0.008001 0.021861 0.000000 0.000000 0.000000
# 4 0.000000 0.000000 0.000000 0.054905 0.000000 0.000000
# 5 0.000000 0.000000 0.000000 0.000000 0.041360 0.000000
# 6 0.000000 0.000000 0.000000 0.000000 0.000000 0.057774
#
#
# Mechanical properties :
#
#
# Convention : Reuss Voigt Hill
#
# Bulk Modulus (GPa) = 39.93316 48.54966 44.24141
# Shear Modulus (GPa) = 19.84690 22.07687 20.96189
#
# Velocity S-wave (km/s) = 3.34017 3.52283 3.43271
# Velocity P-wave (km/s) = 6.10931 6.62109 6.37034
#
# Compressibility (1/GPa) = 0.02504184
#
# Stress axis : x y z
#
# Youngs Moduli (GPa) = 101.00708 39.16872 45.74317
#
# Poissons Ratio (x) = 0.10749 0.24608
# Poissons Ratio (y) = 0.27719 0.36600
# Poissons Ratio (z) = 0.54338 0.31340
#
# Static dielectric constant tensor:
#      x y z
#    x 5.208890 0.000000 0.000000 
#    y 0.000000 2.919270 0.000000 
#    z 0.000000 0.000000 2.970410 
# 
# 
# High freq. dielectric constant tensor:
#      x y z
#    x 1.708430 0.000000 0.000000 
#    y 0.000000 1.649100 0.000000 
#    z 0.000000 0.000000 1.661820 
# 
# From -- ./inp_files/25601.got.cif
#   From: 2010.03.12/outbox.cif.g09.slc.cpg/sg66_13_cif.got.tgz:25601.got - 2010.04.10 21:57:39.
