data_PCOD8277915
_publ_section_title
;
Structure prediction by ZEFSAII (Michael W. Deem and Ramdas Pophale) SiO2 
 PCOD8277915
Probable space group: C C C M
;
_chemical_formula_sum "Si O2"
_cell_formula_units_Z 56
_cell_length_a 11.210237
_cell_length_b 10.678472
_cell_length_c 18.473088
_cell_angle_alpha 90.000000
_cell_angle_beta 90.000000
_cell_angle_gamma 90.000000
_cell_volume 2211.380148
_symmetry_space_group_name_H-M "C C C M"
_symmetry_group_IT_number 66
_symmetry_cell_setting 'orthorhombic'
loop_
_space_group_symop_operation_xyz
x,y,z
-x,-y,z
x,-y,1/2-z
-x,y,1/2-z
-x,-y,-z
x,y,-z
-x,y,1/2+z
x,-y,1/2+z
1/2+x,1/2+y,z
1/2-x,1/2-y,z
1/2+x,1/2-y,1/2-z
1/2-x,1/2+y,1/2-z
1/2-x,1/2-y,-z
1/2+x,1/2+y,-z
1/2-x,1/2+y,1/2+z
1/2+x,1/2-y,1/2+z
loop_
_atom_site_type_symbol
_atom_site_label
_atom_site_fract_x
_atom_site_fract_y
_atom_site_fract_z
Si Si1 0.386449 0.419738 0.657303
Si Si2 0.582115 0.118433 0.500000
Si Si3 0.309121 0.881291 0.653192
Si Si4 0.123756 0.181421 0.500000
Si Si5 0.500000 0.787636 0.250000
O O1 0.500000 0.500000 0.678514
O O2 0.269303 0.499575 0.679277
O O3 0.381760 0.401253 0.571564
O O4 0.401743 0.292304 0.703475
O O5 0.669975 0.114722 0.567749
O O6 0.494765 0.235975 0.500000
O O7 0.500000 0.000000 0.500000
O O8 0.250000 0.750000 0.673446
O O9 0.434398 0.881308 0.694946
O O10 0.250000 0.250000 0.500000
#
# Coordination Sequence:
#
# PCOD8277915 Si02
#       5
#    16   8  16   8   8
#     4  12  25  50  78 113 150 206 262 324 397 472
#     4  12  25  52  73 117 147 199 272 334 392 468
#     4  12  26  49  80 109 156 203 265 325 397 476
#     4  12  25  48  81 107 151 201 264 336 391 465
#     4  12  27  52  77 114 168 205 262 323 402 492
#
# _framework density 25.323551999999999
#
# number of rings (size 3 to 8) (size 9 to 14) (size 15 to 20)
#    0.000    0.000    5.714    3.857    0.000    1.143 
#   10.286    0.000    0.000    0.000    0.000    0.000 
#    0.000    0.000    0.000    0.000    0.000    0.000 
#
# Total GULP energy -347251.963887 kJ/mol
# GULP energy per Si atom -12401.855853 kJ/mol
# Density = 2.526591 g / cm^3
# Si number density = 25.323552 Si / 1000 Ang^3
#
#
#
# Elastic Constant Matrix: (Units=GPa)
#
#
# Indices 1 2 3 4 5 6 
#
# 1 148.2232 55.5370 49.8007 0.0000 0.0000 0.0000
# 2 55.5370 92.6320 28.7786 0.0000 0.0000 0.0000
# 3 49.8007 28.7786 171.0409 0.0000 0.0000 0.0000
# 4 0.0000 0.0000 0.0000 17.7567 0.0000 0.0000
# 5 0.0000 0.0000 0.0000 0.0000 63.3487 0.0000
# 6 0.0000 0.0000 0.0000 0.0000 0.0000 58.2570
#
#
#
# Elastic Compliance Matrix: (Units=1/GPa)
#
#
# Indices 1 2 3 4 5 6 
#
# 1 0.009226 -0.004956 -0.001852 0.000000 0.000000 0.000000
# 2 -0.004956 0.014053 -0.000922 0.000000 0.000000 0.000000
# 3 -0.001852 -0.000922 0.006541 0.000000 0.000000 0.000000
# 4 0.000000 0.000000 0.000000 0.056317 0.000000 0.000000
# 5 0.000000 0.000000 0.000000 0.000000 0.015786 0.000000
# 6 0.000000 0.000000 0.000000 0.000000 0.000000 0.017165
#
#
# Mechanical properties :
#
#
# Convention : Reuss Voigt Hill
#
# Bulk Modulus (GPa) = 69.63655 75.56984 72.60320
# Shear Modulus (GPa) = 35.88510 46.39115 41.13812
#
# Velocity S-wave (km/s) = 3.76848 4.28476 4.03488
# Velocity P-wave (km/s) = 6.81862 7.37464 7.10208
#
# Compressibility (1/GPa) = 0.01436028
#
# Stress axis : x y z
#
# Youngs Moduli (GPa) = 108.39161 71.15956 152.88299
#
# Poissons Ratio (x) = 0.35265 0.28320
# Poissons Ratio (y) = 0.53717 0.14089
# Poissons Ratio (z) = 0.20078 0.06558
#
# Static dielectric constant tensor:
#      x y z
#    x 3.999820 0.000000 0.000000 
#    y 0.000000 4.590150 0.000000 
#    z 0.000000 0.000000 4.669970 
# 
# 
# High freq. dielectric constant tensor:
#      x y z
#    x 2.018230 0.000000 0.000000 
#    y 0.000000 2.006220 0.000000 
#    z 0.000000 0.000000 2.042360 
# 
# From -- ./inp_files/47945.got.cif
#   From: 2010.03.12/outbox.cif.g09.slc.cpg/sg66_24_cif.got.tgz:47945.got - 2010.04.10 21:57:39.
