data_PCOD8277742
_publ_section_title
;
Structure prediction by ZEFSAII (Michael W. Deem and Ramdas Pophale) SiO2 
 PCOD8277742
Probable space group: C C C M
;
_chemical_formula_sum "Si O2"
_cell_formula_units_Z 80
_cell_length_a 14.429983
_cell_length_b 18.569190
_cell_length_c 14.294745
_cell_angle_alpha 90.000000
_cell_angle_beta 90.000000
_cell_angle_gamma 90.000000
_cell_volume 3830.321180
_symmetry_space_group_name_H-M "C C C M"
_symmetry_group_IT_number 66
_symmetry_cell_setting 'orthorhombic'
loop_
_space_group_symop_operation_xyz
x,y,z
-x,-y,z
x,-y,1/2-z
-x,y,1/2-z
-x,-y,-z
x,y,-z
-x,y,1/2+z
x,-y,1/2+z
1/2+x,1/2+y,z
1/2-x,1/2-y,z
1/2+x,1/2-y,1/2-z
1/2-x,1/2+y,1/2-z
1/2-x,1/2-y,-z
1/2+x,1/2+y,-z
1/2-x,1/2+y,1/2+z
1/2+x,1/2-y,1/2+z
loop_
_atom_site_type_symbol
_atom_site_label
_atom_site_fract_x
_atom_site_fract_y
_atom_site_fract_z
Si Si1 0.757021 0.074793 0.768513
Si Si2 0.414592 0.047819 0.396427
Si Si3 0.800370 0.320641 0.605178
Si Si4 0.167437 0.196265 0.392699
Si Si5 0.991919 0.696169 0.641879
O O1 0.670493 0.043949 0.826764
O O2 0.720242 0.112949 0.673956
O O3 0.823847 0.126339 0.827635
O O4 0.813229 0.000000 0.750000
O O5 0.387057 0.018594 0.500000
O O6 0.440798 0.131105 0.408891
O O7 0.500000 0.000000 0.357050
O O8 0.766512 0.340584 0.500000
O O9 0.750000 0.250000 0.644844
O O10 0.906982 0.297225 0.598904
O O11 0.177793 0.172083 0.500000
O O12 0.250000 0.250000 0.364013
O O13 0.067191 0.231494 0.375335
O O14 0.000000 0.678000 0.750000
#
# Coordination Sequence:
#
# PCOD8277742 Si02
#       5
#    16  16  16  16  16
#     4  12  24  39  61  90 131 171 207 261 327 382
#     4  11  23  36  56  91 131 168 203 247 314 389
#     4  11  24  42  62  89 122 163 215 265 318 380
#     4  11  22  39  63  93 125 164 216 264 309 375
#     4  12  21  37  64  89 125 163 208 257 311 375
#
# _framework density 20.885977
#
# number of rings (size 3 to 8) (size 9 to 14) (size 15 to 20)
#    0.000    0.600    4.000    5.400    0.000    3.200 
#    0.000    0.000    0.000    6.000    0.000    8.400 
#    0.000    0.000    0.000    0.000    0.000    0.000 
#
# Total GULP energy -496018.745489 kJ/mol
# GULP energy per Si atom -12400.468637 kJ/mol
# Density = 2.083844 g / cm^3
# Si number density = 20.885977 Si / 1000 Ang^3
#
#
#
# Elastic Constant Matrix: (Units=GPa)
#
#
# Indices 1 2 3 4 5 6 
#
# 1 38.8708 43.1219 11.2709 0.0000 0.0000 0.0000
# 2 43.1219 158.1141 47.1055 0.0000 0.0000 0.0000
# 3 11.2709 47.1055 118.6335 0.0000 0.0000 0.0000
# 4 0.0000 0.0000 0.0000 26.0276 0.0000 0.0000
# 5 0.0000 0.0000 0.0000 0.0000 23.0334 0.0000
# 6 0.0000 0.0000 0.0000 0.0000 0.0000 36.1571
#
#
#
# Elastic Compliance Matrix: (Units=1/GPa)
#
#
# Indices 1 2 3 4 5 6 
#
# 1 0.036919 -0.010234 0.000556 0.000000 0.000000 0.000000
# 2 -0.010234 0.010010 -0.003002 0.000000 0.000000 0.000000
# 3 0.000556 -0.003002 0.009569 0.000000 0.000000 0.000000
# 4 0.000000 0.000000 0.000000 0.038421 0.000000 0.000000
# 5 0.000000 0.000000 0.000000 0.000000 0.043415 0.000000
# 6 0.000000 0.000000 0.000000 0.000000 0.000000 0.027657
#
#
# Mechanical properties :
#
#
# Convention : Reuss Voigt Hill
#
# Bulk Modulus (GPa) = 32.11675 57.62390 44.87033
# Shear Modulus (GPa) = 24.78555 31.31830 28.05193
#
# Velocity S-wave (km/s) = 3.44860 3.87653 3.66881
# Velocity P-wave (km/s) = 5.59175 6.90552 6.28307
#
# Compressibility (1/GPa) = 0.03113640
#
# Stress axis : x y z
#
# Youngs Moduli (GPa) = 27.08656 99.89789 104.50819
#
# Poissons Ratio (x) = 1.02240 -0.05813
# Poissons Ratio (y) = 0.27722 0.31378
# Poissons Ratio (z) = -0.01507 0.29993
#
# Static dielectric constant tensor:
#      x y z
#    x 3.708960 0.000000 0.000000 
#    y 0.000000 3.948860 0.000000 
#    z 0.000000 0.000000 4.008800 
# 
# 
# High freq. dielectric constant tensor:
#      x y z
#    x 1.784530 0.000000 0.000000 
#    y 0.000000 1.814590 0.000000 
#    z 0.000000 0.000000 1.845970 
# 
# From -- ./inp_files/28109.got.cif
#   From: 2010.03.12/outbox.cif.g09.slc.cpg/sg66_15_cif.got.tgz:28109.got - 2010.04.10 21:57:39.
