data_PCOD8277839
_publ_section_title
;
Structure prediction by ZEFSAII (Michael W. Deem and Ramdas Pophale) SiO2 
 PCOD8277839
Probable space group: C C C M
;
_chemical_formula_sum "Si O2"
_cell_formula_units_Z 64
_cell_length_a 4.908237
_cell_length_b 33.613822
_cell_length_c 17.330350
_cell_angle_alpha 90.000000
_cell_angle_beta 90.000000
_cell_angle_gamma 90.000000
_cell_volume 2859.240947
_symmetry_space_group_name_H-M "C C C M"
_symmetry_group_IT_number 66
_symmetry_cell_setting 'orthorhombic'
loop_
_space_group_symop_operation_xyz
x,y,z
-x,-y,z
x,-y,1/2-z
-x,y,1/2-z
-x,-y,-z
x,y,-z
-x,y,1/2+z
x,-y,1/2+z
1/2+x,1/2+y,z
1/2-x,1/2-y,z
1/2+x,1/2-y,1/2-z
1/2-x,1/2+y,1/2-z
1/2-x,1/2-y,-z
1/2+x,1/2+y,-z
1/2-x,1/2+y,1/2+z
1/2+x,1/2-y,1/2+z
loop_
_atom_site_type_symbol
_atom_site_label
_atom_site_fract_x
_atom_site_fract_y
_atom_site_fract_z
Si Si1 0.920448 0.327967 0.334991
Si Si2 0.894601 0.209178 0.910704
Si Si3 0.982497 0.045144 0.589461
Si Si4 0.488496 0.918939 0.163912
O O1 0.660951 0.302088 0.361662
O O2 0.877556 0.375025 0.333520
O O3 0.000000 0.312134 0.250000
O O4 0.166439 0.323786 0.395849
O O5 0.750000 0.250000 0.882981
O O6 0.981349 0.211131 0.000000
O O7 0.053825 0.048501 0.500000
O O8 0.179050 0.075816 0.634970
O O9 0.671535 0.056618 0.604626
O O10 0.000000 0.000000 0.619278
O O11 0.500000 0.936704 0.250000
#
# Coordination Sequence:
#
# PCOD8277839 Si02
#       4
#    16  16  16  16
#     4  11  24  42  64  93 128 164 208 260 312 373
#     4  11  24  42  65  94 127 164 208 257 311 374
#     4  11  24  41  62  91 126 164 210 262 314 373
#     4  11  24  41  63  92 125 164 210 259 313 374
#
# _framework density 22.383562999999999
#
# number of rings (size 3 to 8) (size 9 to 14) (size 15 to 20)
#    0.000    1.000    0.000    6.000    0.000   19.000 
#    0.000    0.000    0.000    0.000    0.000    0.000 
#    0.000    0.000    0.000    0.000    0.000    0.000 
#
# Total GULP energy -396787.270407 kJ/mol
# GULP energy per Si atom -12399.602200 kJ/mol
# Density = 2.233262 g / cm^3
# Si number density = 22.383563 Si / 1000 Ang^3
#
#
#
# Elastic Constant Matrix: (Units=GPa)
#
#
# Indices 1 2 3 4 5 6 
#
# 1 143.7314 40.0529 49.8140 0.0000 0.0000 0.0000
# 2 40.0529 86.6983 55.3876 0.0000 0.0000 0.0000
# 3 49.8140 55.3876 98.8126 0.0000 0.0000 0.0000
# 4 0.0000 0.0000 0.0000 41.1696 0.0000 0.0000
# 5 0.0000 0.0000 0.0000 0.0000 44.6364 0.0000
# 6 0.0000 0.0000 0.0000 0.0000 0.0000 40.3662
#
#
#
# Elastic Compliance Matrix: (Units=1/GPa)
#
#
# Indices 1 2 3 4 5 6 
#
# 1 0.008623 -0.001879 -0.003293 0.000000 0.000000 0.000000
# 2 -0.001879 0.018379 -0.009354 0.000000 0.000000 0.000000
# 3 -0.003293 -0.009354 0.017024 0.000000 0.000000 0.000000
# 4 0.000000 0.000000 0.000000 0.024290 0.000000 0.000000
# 5 0.000000 0.000000 0.000000 0.000000 0.022403 0.000000
# 6 0.000000 0.000000 0.000000 0.000000 0.000000 0.024773
#
#
# Mechanical properties :
#
#
# Convention : Reuss Voigt Hill
#
# Bulk Modulus (GPa) = 66.79710 68.86128 67.82919
# Shear Modulus (GPa) = 33.43683 37.50027 35.46855
#
# Velocity S-wave (km/s) = 3.86918 4.09754 3.98500
# Velocity P-wave (km/s) = 7.06170 7.29503 7.17931
#
# Compressibility (1/GPa) = 0.01497071
#
# Stress axis : x y z
#
# Youngs Moduli (GPa) = 115.97475 54.41121 58.74124
#
# Poissons Ratio (x) = 0.10226 0.19346
# Poissons Ratio (y) = 0.21797 0.54948
# Poissons Ratio (z) = 0.38195 0.50898
#
# Static dielectric constant tensor:
#      x y z
#    x 4.082100 0.000000 0.000000 
#    y 0.000000 3.990630 0.000000 
#    z 0.000000 0.000000 4.048270 
# 
# 
# High freq. dielectric constant tensor:
#      x y z
#    x 1.894500 0.000000 0.000000 
#    y 0.000000 1.883120 0.000000 
#    z 0.000000 0.000000 1.887760 
# 
# From -- ./inp_files/35017.got.cif
#   From: 2010.03.12/outbox.cif.g09.slc.cpg/sg66_18_cif.got.tgz:35017.got - 2010.04.10 21:57:39.
