data_PCOD8277139
_publ_section_title
;
Structure prediction by ZEFSAII (Michael W. Deem and Ramdas Pophale) SiO2 
 PCOD8277139
Probable space group: C C C M
;
_chemical_formula_sum "Si O2"
_cell_formula_units_Z 96
_cell_length_a 19.378333
_cell_length_b 15.492811
_cell_length_c 14.719735
_cell_angle_alpha 90.000000
_cell_angle_beta 90.000000
_cell_angle_gamma 90.000000
_cell_volume 4419.230242
_symmetry_space_group_name_H-M "C C C M"
_symmetry_group_IT_number 66
_symmetry_cell_setting 'orthorhombic'
loop_
_space_group_symop_operation_xyz
x,y,z
-x,-y,z
x,-y,1/2-z
-x,y,1/2-z
-x,-y,-z
x,y,-z
-x,y,1/2+z
x,-y,1/2+z
1/2+x,1/2+y,z
1/2-x,1/2-y,z
1/2+x,1/2-y,1/2-z
1/2-x,1/2+y,1/2-z
1/2-x,1/2-y,-z
1/2+x,1/2+y,-z
1/2-x,1/2+y,1/2+z
1/2+x,1/2-y,1/2+z
loop_
_atom_site_type_symbol
_atom_site_label
_atom_site_fract_x
_atom_site_fract_y
_atom_site_fract_z
Si Si1 0.553074 0.927622 0.393601
Si Si2 0.181129 0.948088 0.396672
Si Si3 0.802332 0.184627 0.757032
Si Si4 0.708577 0.921785 0.395484
Si Si5 0.057859 0.942338 0.102222
Si Si6 0.446406 0.739708 0.827344
O O1 0.553975 0.942809 0.500000
O O2 0.631301 0.935558 0.355845
O O3 0.529377 0.830078 0.371352
O O4 0.500000 0.000000 0.351094
O O5 0.164202 0.916111 0.500000
O O6 0.168400 0.874499 0.323148
O O7 0.259248 0.982238 0.392461
O O8 0.133497 0.029080 0.362557
O O9 0.750000 0.250000 0.707884
O O10 0.756486 0.141183 0.836462
O O11 0.866577 0.239229 0.796940
O O12 0.707045 0.886666 0.500000
O O13 0.045228 0.840346 0.104413
O O14 0.056847 0.973646 0.000000
O O15 0.000000 0.000000 0.154435
O O16 0.500000 0.717586 0.750000
#
# Coordination Sequence:
#
# PCOD8277139 Si02
#       6
#    16  16  16  16  16  16
#     4  10  23  45  69  95 131 178 230 286 344 411
#     4  10  22  40  64  93 128 175 227 281 348 412
#     4  12  24  40  63  97 136 176 228 288 347 411
#     4  10  21  40  69  99 128 173 230 287 346 407
#     4  10  21  39  63  90 123 168 217 272 335 406
#     4  12  25  39  60  99 134 175 220 277 347 413
#
# _framework density 21.723241000000002
#
# number of rings (size 3 to 8) (size 9 to 14) (size 15 to 20)
#    0.000    1.333    3.333    2.000    0.000    4.667 
#    3.000    0.833    0.000    0.000    0.000    0.000 
#    0.000    0.000    0.000    0.000    0.000    0.000 
#
# Total GULP energy -594675.579420 kJ/mol
# GULP energy per Si atom -12389.074571 kJ/mol
# Density = 2.167380 g / cm^3
# Si number density = 21.723241 Si / 1000 Ang^3
#
#
#
# Elastic Constant Matrix: (Units=GPa)
#
#
# Indices 1 2 3 4 5 6 
#
# 1 146.1602 52.3310 27.6205 0.0000 0.0000 0.0000
# 2 52.3310 142.3218 18.7867 0.0000 0.0000 0.0000
# 3 27.6205 18.7867 50.0490 0.0000 0.0000 0.0000
# 4 0.0000 0.0000 0.0000 19.7893 0.0000 0.0000
# 5 0.0000 0.0000 0.0000 0.0000 18.0468 0.0000
# 6 0.0000 0.0000 0.0000 0.0000 0.0000 47.2082
#
#
#
# Elastic Compliance Matrix: (Units=1/GPa)
#
#
# Indices 1 2 3 4 5 6 
#
# 1 0.008482 -0.002631 -0.003693 0.000000 0.000000 0.000000
# 2 -0.002631 0.008209 -0.001629 0.000000 0.000000 0.000000
# 3 -0.003693 -0.001629 0.022630 0.000000 0.000000 0.000000
# 4 0.000000 0.000000 0.000000 0.050532 0.000000 0.000000
# 5 0.000000 0.000000 0.000000 0.000000 0.055412 0.000000
# 6 0.000000 0.000000 0.000000 0.000000 0.000000 0.021183
#
#
# Mechanical properties :
#
#
# Convention : Reuss Voigt Hill
#
# Bulk Modulus (GPa) = 42.71035 59.55639 51.13337
# Shear Modulus (GPa) = 26.29376 32.99504 29.64440
#
# Velocity S-wave (km/s) = 3.48285 3.90151 3.69811
# Velocity P-wave (km/s) = 5.98978 6.91167 6.46718
#
# Compressibility (1/GPa) = 0.02341353
#
# Stress axis : x y z
#
# Youngs Moduli (GPa) = 117.89955 121.81933 44.18887
#
# Poissons Ratio (x) = 0.32053 0.16320
# Poissons Ratio (y) = 0.31022 0.07200
# Poissons Ratio (z) = 0.43542 0.19848
#
# Static dielectric constant tensor:
#      x y z
#    x 4.460060 0.000000 0.000000 
#    y 0.000000 3.861800 0.000000 
#    z 0.000000 0.000000 3.682140 
# 
# 
# High freq. dielectric constant tensor:
#      x y z
#    x 1.871560 0.000000 0.000000 
#    y 0.000000 1.844280 0.000000 
#    z 0.000000 0.000000 1.838890 
# 
# From -- ./inp_files/31187.got.cif
#   From: 2010.03.12/outbox.cif.g09.slc.cpg/sg66_16_cif.got.tgz:31187.got - 2010.04.10 21:57:39.
