data_PCOD8277336
_publ_section_title
;
Structure prediction by ZEFSAII (Michael W. Deem and Ramdas Pophale) SiO2 
 PCOD8277336
Probable space group: C C C M
;
_chemical_formula_sum "Si O2"
_cell_formula_units_Z 112
_cell_length_a 26.465455
_cell_length_b 13.095544
_cell_length_c 14.870663
_cell_angle_alpha 90.000000
_cell_angle_beta 90.000000
_cell_angle_gamma 90.000000
_cell_volume 5153.867400
_symmetry_space_group_name_H-M "C C C M"
_symmetry_group_IT_number 66
_symmetry_cell_setting 'orthorhombic'
loop_
_space_group_symop_operation_xyz
x,y,z
-x,-y,z
x,-y,1/2-z
-x,y,1/2-z
-x,-y,-z
x,y,-z
-x,y,1/2+z
x,-y,1/2+z
1/2+x,1/2+y,z
1/2-x,1/2-y,z
1/2+x,1/2-y,1/2-z
1/2-x,1/2+y,1/2-z
1/2-x,1/2-y,-z
1/2+x,1/2+y,-z
1/2-x,1/2+y,1/2+z
1/2+x,1/2-y,1/2+z
loop_
_atom_site_type_symbol
_atom_site_label
_atom_site_fract_x
_atom_site_fract_y
_atom_site_fract_z
Si Si1 0.101520 0.024629 0.102620
Si Si2 0.434285 0.302261 0.395671
Si Si3 0.044993 0.781616 0.397194
Si Si4 0.661771 0.759583 0.710499
Si Si5 0.688469 0.949333 0.402266
Si Si6 0.207746 0.950259 0.162451
Si Si7 0.640844 0.165074 0.397860
O O1 0.073548 0.121266 0.149472
O O2 0.067271 0.924637 0.113800
O O3 0.156097 0.010813 0.146371
O O4 0.112494 0.050951 0.000000
O O5 0.423147 0.270914 0.500000
O O6 0.488763 0.263648 0.358457
O O7 0.394790 0.250844 0.328123
O O8 0.035273 0.814104 0.500000
O O9 0.079824 0.680266 0.390020
O O10 0.682046 0.866964 0.675171
O O11 0.697153 0.670249 0.673054
O O12 0.664547 0.762794 0.819810
O O13 0.670338 0.909168 0.500000
O O14 0.748932 0.970072 0.411562
O O15 0.655650 0.048992 0.378074
O O16 0.232495 0.000000 0.250000
O O17 0.658291 0.197407 0.500000
#
# Coordination Sequence:
#
# PCOD8277336 Si02
#       7
#    16  16  16  16  16  16  16
#     4   9  17  31  53  83 120 158 194 235 289 353
#     4   9  18  32  55  89 122 153 193 241 294 352
#     4   9  17  33  56  82 118 159 195 237 292 351
#     4  11  22  38  62  88 118 152 191 240 291 350
#     4  11  24  42  63  85 113 151 195 246 297 343
#     4  11  22  36  57  87 121 152 190 236 287 348
#     4  10  22  40  60  83 115 156 200 242 286 343
#
# _framework density 21.731254
#
# number of rings (size 3 to 8) (size 9 to 14) (size 15 to 20)
#    0.000    2.000    0.000    3.857    0.000    4.571 
#    0.000    3.571    0.000   18.000    0.000    0.000 
#    0.000    0.000    0.000    0.000    0.000    0.000 
#
# Total GULP energy -694000.576134 kJ/mol
# GULP energy per Si atom -12392.867431 kJ/mol
# Density = 2.168179 g / cm^3
# Si number density = 21.731254 Si / 1000 Ang^3
#
#
#
# Elastic Constant Matrix: (Units=GPa)
#
#
# Indices 1 2 3 4 5 6 
#
# 1 130.2178 63.7018 25.2700 0.0000 0.0000 0.0000
# 2 63.7018 87.7196 26.4845 0.0000 0.0000 0.0000
# 3 25.2700 26.4845 95.3388 0.0000 0.0000 0.0000
# 4 0.0000 0.0000 0.0000 26.6517 0.0000 0.0000
# 5 0.0000 0.0000 0.0000 0.0000 20.0458 0.0000
# 6 0.0000 0.0000 0.0000 0.0000 0.0000 29.7789
#
#
#
# Elastic Compliance Matrix: (Units=1/GPa)
#
#
# Indices 1 2 3 4 5 6 
#
# 1 0.011970 -0.008443 -0.000827 0.000000 0.000000 0.000000
# 2 -0.008443 0.018399 -0.002873 0.000000 0.000000 0.000000
# 3 -0.000827 -0.002873 0.011506 0.000000 0.000000 0.000000
# 4 0.000000 0.000000 0.000000 0.037521 0.000000 0.000000
# 5 0.000000 0.000000 0.000000 0.000000 0.049886 0.000000
# 6 0.000000 0.000000 0.000000 0.000000 0.000000 0.033581
#
#
# Mechanical properties :
#
#
# Convention : Reuss Voigt Hill
#
# Bulk Modulus (GPa) = 56.85613 60.46544 58.66079
# Shear Modulus (GPa) = 25.90502 28.48328 27.19415
#
# Velocity S-wave (km/s) = 3.45637 3.62429 3.54133
# Velocity P-wave (km/s) = 6.49221 6.73785 6.61617
#
# Compressibility (1/GPa) = 0.01758825
#
# Stress axis : x y z
#
# Youngs Moduli (GPa) = 83.54043 54.35165 86.90849
#
# Poissons Ratio (x) = 0.45889 0.07191
# Poissons Ratio (y) = 0.70533 0.24970
# Poissons Ratio (z) = 0.06912 0.15616
#
# Static dielectric constant tensor:
#      x y z
#    x 4.003600 0.000000 0.000000 
#    y 0.000000 3.720070 0.000000 
#    z 0.000000 0.000000 3.989470 
# 
# 
# High freq. dielectric constant tensor:
#      x y z
#    x 1.853880 0.000000 0.000000 
#    y 0.000000 1.832110 0.000000 
#    z 0.000000 0.000000 1.858160 
# 
# From -- ./inp_files/32436.got.cif
#   From: 2010.03.12/outbox.cif.g09.slc.cpg/sg66_17_cif.got.tgz:32436.got - 2010.04.10 21:57:39.
