data_PCOD8277467
_publ_section_title
;
Structure prediction by ZEFSAII (Michael W. Deem and Ramdas Pophale) SiO2 
 PCOD8277467
Probable space group: C C C M
;
_chemical_formula_sum "Si O2"
_cell_formula_units_Z 56
_cell_length_a 22.578701
_cell_length_b 8.924433
_cell_length_c 12.124639
_cell_angle_alpha 90.000000
_cell_angle_beta 90.000000
_cell_angle_gamma 90.000000
_cell_volume 2443.140272
_symmetry_space_group_name_H-M "C C C M"
_symmetry_group_IT_number 66
_symmetry_cell_setting 'orthorhombic'
loop_
_space_group_symop_operation_xyz
x,y,z
-x,-y,z
x,-y,1/2-z
-x,y,1/2-z
-x,-y,-z
x,y,-z
-x,y,1/2+z
x,-y,1/2+z
1/2+x,1/2+y,z
1/2-x,1/2-y,z
1/2+x,1/2-y,1/2-z
1/2-x,1/2+y,1/2-z
1/2-x,1/2-y,-z
1/2+x,1/2+y,-z
1/2-x,1/2+y,1/2+z
1/2+x,1/2-y,1/2+z
loop_
_atom_site_type_symbol
_atom_site_label
_atom_site_fract_x
_atom_site_fract_y
_atom_site_fract_z
Si Si1 0.419908 0.579286 0.127602
Si Si2 0.185951 0.277686 0.626485
Si Si3 0.603729 0.000000 0.250000
Si Si4 0.462972 0.738333 0.630669
O O1 0.352446 0.627444 0.143252
O O2 0.427490 0.589668 0.320619
O O3 0.467574 0.710186 0.165719
O O4 0.436574 0.555707 0.000000
O O5 0.197251 0.316119 0.500000
O O6 0.250000 0.250000 0.684490
O O7 0.148881 0.415003 0.671361
O O8 0.561972 0.107881 0.321425
O O9 0.455432 0.751069 0.500000
#
# Coordination Sequence:
#
# PCOD8277467 Si02
#       4
#    16  16   8  16
#     4   8  17  38  63  82 112 157 196 236 293 356
#     4  10  23  42  59  80 117 161 199 238 287 345
#     4  12  24  35  60  94 122 151 194 250 298 345
#     4   9  19  37  61  90 119 150 193 244 297 349
#
# _framework density 22.921319
#
# number of rings (size 3 to 8) (size 9 to 14) (size 15 to 20)
#    0.000    2.571    0.000    2.571    0.000    6.857 
#    0.000    7.143    0.000    8.571    0.000   12.000 
#    0.000    0.000    0.000    0.000    0.000    0.000 
#
# Total GULP energy -347208.853516 kJ/mol
# GULP energy per Si atom -12400.316197 kJ/mol
# Density = 2.286915 g / cm^3
# Si number density = 22.921319 Si / 1000 Ang^3
#
#
#
# Elastic Constant Matrix: (Units=GPa)
#
#
# Indices 1 2 3 4 5 6 
#
# 1 199.6988 92.6352 56.9958 0.0000 0.0000 0.0000
# 2 92.6352 163.8314 63.3757 0.0000 0.0000 0.0000
# 3 56.9958 63.3757 79.5678 0.0000 0.0000 0.0000
# 4 0.0000 0.0000 0.0000 42.1292 0.0000 0.0000
# 5 0.0000 0.0000 0.0000 0.0000 31.7212 0.0000
# 6 0.0000 0.0000 0.0000 0.0000 0.0000 34.8276
#
#
#
# Elastic Compliance Matrix: (Units=1/GPa)
#
#
# Indices 1 2 3 4 5 6 
#
# 1 0.007185 -0.002994 -0.002762 0.000000 0.000000 0.000000
# 2 -0.002994 0.010070 -0.005876 0.000000 0.000000 0.000000
# 3 -0.002762 -0.005876 0.019226 0.000000 0.000000 0.000000
# 4 0.000000 0.000000 0.000000 0.023737 0.000000 0.000000
# 5 0.000000 0.000000 0.000000 0.000000 0.031525 0.000000
# 6 0.000000 0.000000 0.000000 0.000000 0.000000 0.028713
#
#
# Mechanical properties :
#
#
# Convention : Reuss Voigt Hill
#
# Bulk Modulus (GPa) = 75.65781 96.56794 86.11287
# Shear Modulus (GPa) = 33.75555 37.07500 35.41528
#
# Velocity S-wave (km/s) = 3.84170 4.02617 3.93502
# Velocity P-wave (km/s) = 7.26344 7.98968 7.63520
#
# Compressibility (1/GPa) = 0.01321741
#
# Stress axis : x y z
#
# Youngs Moduli (GPa) = 139.18596 99.30722 52.01222
#
# Poissons Ratio (x) = 0.29733 0.14364
# Poissons Ratio (y) = 0.41673 0.30562
# Poissons Ratio (z) = 0.38439 0.58351
#
# Static dielectric constant tensor:
#      x y z
#    x 4.203750 0.000000 0.000000 
#    y 0.000000 4.188590 0.000000 
#    z 0.000000 0.000000 4.773280 
# 
# 
# High freq. dielectric constant tensor:
#      x y z
#    x 1.895320 0.000000 0.000000 
#    y 0.000000 1.906470 0.000000 
#    z 0.000000 0.000000 1.957060 
# 
# From -- ./inp_files/16060.got.cif
#   From: 2010.03.12/outbox.cif.g09.slc.cpg/sg66_9_cif.got.tgz:16060.got - 2010.04.10 21:57:39.
