data_PCOD8277793
_publ_section_title
;
Structure prediction by ZEFSAII (Michael W. Deem and Ramdas Pophale) SiO2 
 PCOD8277793
Probable space group: C C C M
;
_chemical_formula_sum "Si O2"
_cell_formula_units_Z 112
_cell_length_a 14.800825
_cell_length_b 14.584756
_cell_length_c 26.387249
_cell_angle_alpha 90.000000
_cell_angle_beta 90.000000
_cell_angle_gamma 90.000000
_cell_volume 5696.121008
_symmetry_space_group_name_H-M "C C C M"
_symmetry_group_IT_number 66
_symmetry_cell_setting 'orthorhombic'
loop_
_space_group_symop_operation_xyz
x,y,z
-x,-y,z
x,-y,1/2-z
-x,y,1/2-z
-x,-y,-z
x,y,-z
-x,y,1/2+z
x,-y,1/2+z
1/2+x,1/2+y,z
1/2-x,1/2-y,z
1/2+x,1/2-y,1/2-z
1/2-x,1/2+y,1/2-z
1/2-x,1/2-y,-z
1/2+x,1/2+y,-z
1/2-x,1/2+y,1/2+z
1/2+x,1/2-y,1/2+z
loop_
_atom_site_type_symbol
_atom_site_label
_atom_site_fract_x
_atom_site_fract_y
_atom_site_fract_z
Si Si1 0.330578 0.186829 0.821056
Si Si2 0.781330 0.483435 0.156127
Si Si3 0.659910 0.798339 0.703391
Si Si4 0.592173 0.533394 0.191839
Si Si5 0.896431 0.790840 0.442839
Si Si6 0.209605 0.608310 0.943320
Si Si7 0.011537 0.211984 0.848858
O O1 0.250000 0.250000 0.843062
O O2 0.311300 0.080026 0.822881
O O3 0.347715 0.211476 0.762979
O O4 0.421188 0.201665 0.854220
O O5 0.834285 0.404492 0.186788
O O6 0.673222 0.481873 0.163651
O O7 0.804432 0.473508 0.096602
O O8 0.750000 0.750000 0.681800
O O9 0.575362 0.741259 0.682977
O O10 0.500000 0.500000 0.165917
O O11 0.597817 0.500000 0.250000
O O12 0.580269 0.642206 0.181630
O O13 0.935328 0.794320 0.500000
O O14 0.860527 0.689043 0.429683
O O15 0.812278 0.858607 0.438053
O O16 0.977117 0.819213 0.404489
O O17 0.191327 0.571510 0.000000
#
# Coordination Sequence:
#
# PCOD8277793 Si02
#       7
#    16  16  16  16  16  16  16
#     4  11  25  41  58  84 131 175 213 255 301 376
#     4  12  22  41  62  89 128 168 209 257 318 374
#     4  11  23  38  64  91 124 164 213 260 315 372
#     4  11  24  35  60  90 125 164 216 253 309 382
#     4   9  18  37  64  96 124 155 204 263 321 375
#     4   9  18  36  65  95 122 153 202 266 321 376
#     4  12  23  40  61  93 129 168 206 263 315 369
#
# _framework density 19.662503000000001
#
# number of rings (size 3 to 8) (size 9 to 14) (size 15 to 20)
#    0.000    1.286    2.857    5.143    6.000    0.571 
#    0.000    2.857    0.000    5.143    0.000    0.000 
#    0.000    0.000    0.000    0.000    0.000    0.000 
#
# Total GULP energy -693984.377636 kJ/mol
# GULP energy per Si atom -12392.578172 kJ/mol
# Density = 1.961775 g / cm^3
# Si number density = 19.662503 Si / 1000 Ang^3
#
#
#
# Elastic Constant Matrix: (Units=GPa)
#
#
# Indices 1 2 3 4 5 6 
#
# 1 61.6850 2.7637 35.9414 0.0000 0.0000 0.0000
# 2 2.7637 62.6626 28.6763 0.0000 0.0000 0.0000
# 3 35.9414 28.6763 95.4753 0.0000 0.0000 0.0000
# 4 0.0000 0.0000 0.0000 18.5886 0.0000 0.0000
# 5 0.0000 0.0000 0.0000 0.0000 19.4175 0.0000
# 6 0.0000 0.0000 0.0000 0.0000 0.0000 30.3367
#
#
#
# Elastic Compliance Matrix: (Units=1/GPa)
#
#
# Indices 1 2 3 4 5 6 
#
# 1 0.021294 0.003164 -0.008966 0.000000 0.000000 0.000000
# 2 0.003164 0.018972 -0.006889 0.000000 0.000000 0.000000
# 3 -0.008966 -0.006889 0.015919 0.000000 0.000000 0.000000
# 4 0.000000 0.000000 0.000000 0.053796 0.000000 0.000000
# 5 0.000000 0.000000 0.000000 0.000000 0.051500 0.000000
# 6 0.000000 0.000000 0.000000 0.000000 0.000000 0.032963
#
#
# Mechanical properties :
#
#
# Convention : Reuss Voigt Hill
#
# Bulk Modulus (GPa) = 32.46645 39.39839 35.93242
# Shear Modulus (GPa) = 21.73023 23.83133 22.78078
#
# Velocity S-wave (km/s) = 3.32800 3.48518 3.40750
# Velocity P-wave (km/s) = 5.59600 6.02297 5.81340
#
# Compressibility (1/GPa) = 0.03080103
#
# Stress axis : x y z
#
# Youngs Moduli (GPa) = 46.96154 52.71004 62.81984
#
# Poissons Ratio (x) = -0.16678 0.56327
# Poissons Ratio (y) = -0.14859 0.43279
# Poissons Ratio (z) = 0.42108 0.36314
#
# Static dielectric constant tensor:
#      x y z
#    x 3.730990 0.000000 0.000000 
#    y 0.000000 3.670170 0.000000 
#    z 0.000000 0.000000 3.598590 
# 
# 
# High freq. dielectric constant tensor:
#      x y z
#    x 1.762510 0.000000 0.000000 
#    y 0.000000 1.758700 0.000000 
#    z 0.000000 0.000000 1.758050 
# 
# From -- ./inp_files/64669.got.cif
#   From: 2010.03.12/outbox.cif.g09.slc.cpg/sg66_33_cif.got.tgz:64669.got - 2010.04.10 21:57:39.
