data_PCOD8277267
_publ_section_title
;
Structure prediction by ZEFSAII (Michael W. Deem and Ramdas Pophale) SiO2 
 PCOD8277267
Probable space group: C C C M
;
_chemical_formula_sum "Si O2"
_cell_formula_units_Z 96
_cell_length_a 23.779757
_cell_length_b 9.681902
_cell_length_c 22.043327
_cell_angle_alpha 90.000000
_cell_angle_beta 90.000000
_cell_angle_gamma 90.000000
_cell_volume 5075.107408
_symmetry_space_group_name_H-M "C C C M"
_symmetry_group_IT_number 66
_symmetry_cell_setting 'orthorhombic'
loop_
_space_group_symop_operation_xyz
x,y,z
-x,-y,z
x,-y,1/2-z
-x,y,1/2-z
-x,-y,-z
x,y,-z
-x,y,1/2+z
x,-y,1/2+z
1/2+x,1/2+y,z
1/2-x,1/2-y,z
1/2+x,1/2-y,1/2-z
1/2-x,1/2+y,1/2-z
1/2-x,1/2-y,-z
1/2+x,1/2+y,-z
1/2-x,1/2+y,1/2+z
1/2+x,1/2-y,1/2+z
loop_
_atom_site_type_symbol
_atom_site_label
_atom_site_fract_x
_atom_site_fract_y
_atom_site_fract_z
Si Si1 0.118887 0.650425 0.241136
Si Si2 0.468050 0.689106 0.308342
Si Si3 0.926843 0.262364 0.120114
Si Si4 0.883955 0.029563 0.619798
Si Si5 0.028873 0.643780 0.000000
Si Si6 0.052810 0.107072 0.000000
Si Si7 0.797041 0.135171 0.289587
O O1 0.147352 0.500000 0.250000
O O2 0.067721 0.674121 0.288919
O O3 0.096493 0.641019 0.172725
O O4 0.160167 0.780052 0.247169
O O5 0.500000 0.632543 0.250000
O O6 0.509260 0.719067 0.364279
O O7 0.428368 0.563604 0.327524
O O8 0.884157 0.134533 0.111491
O O9 0.929595 0.343077 0.057179
O O10 0.904728 0.097183 0.557033
O O11 0.823919 0.086149 0.645590
O O12 0.000000 0.500000 0.000000
O O13 0.976567 0.746702 0.000000
O O14 0.000000 0.000000 0.000000
O O15 0.750000 0.250000 0.305466
O O16 0.777422 0.000000 0.250000
#
# Coordination Sequence:
#
# PCOD8277267 Si02
#       7
#    16  16  16  16   8   8  16
#     4  10  22  35  56  85 122 161 199 247 311 367
#     4   9  19  28  51  83 122 157 197 243 295 354
#     4  11  20  35  53  83 123 166 202 242 291 362
#     4  11  20  36  60  88 118 160 213 248 305 365
#     4  12  26  34  52  86 129 176 208 241 285 350
#     4  12  20  38  61  88 124 176 212 243 284 366
#     4  11  23  42  64  92 116 151 202 270 330 379
#
# _framework density 18.915855000000001
#
# number of rings (size 3 to 8) (size 9 to 14) (size 15 to 20)
#    0.000    1.333    5.000    1.000    2.333    4.333 
#    0.000    0.417    0.000    0.000    0.000    4.667 
#    0.000    0.000    0.000    0.000    0.000    0.000 
#
# Total GULP energy -594777.267256 kJ/mol
# GULP energy per Si atom -12391.193068 kJ/mol
# Density = 1.887280 g / cm^3
# Si number density = 18.915855 Si / 1000 Ang^3
#
#
#
# Elastic Constant Matrix: (Units=GPa)
#
#
# Indices 1 2 3 4 5 6 
#
# 1 75.3246 32.2709 36.0203 0.0000 0.0000 0.0000
# 2 32.2709 134.1178 40.6759 0.0000 0.0000 0.0000
# 3 36.0203 40.6759 110.5287 0.0000 0.0000 0.0000
# 4 0.0000 0.0000 0.0000 19.3303 0.0000 0.0000
# 5 0.0000 0.0000 0.0000 0.0000 21.2001 0.0000
# 6 0.0000 0.0000 0.0000 0.0000 0.0000 31.2992
#
#
#
# Elastic Compliance Matrix: (Units=1/GPa)
#
#
# Indices 1 2 3 4 5 6 
#
# 1 0.016515 -0.002636 -0.004412 0.000000 0.000000 0.000000
# 2 -0.002636 0.008814 -0.002385 0.000000 0.000000 0.000000
# 3 -0.004412 -0.002385 0.011363 0.000000 0.000000 0.000000
# 4 0.000000 0.000000 0.000000 0.051732 0.000000 0.000000
# 5 0.000000 0.000000 0.000000 0.000000 0.047170 0.000000
# 6 0.000000 0.000000 0.000000 0.000000 0.000000 0.031950
#
#
# Mechanical properties :
#
#
# Convention : Reuss Voigt Hill
#
# Bulk Modulus (GPa) = 56.09573 59.76728 57.93151
# Shear Modulus (GPa) = 25.99432 28.43285 27.21359
#
# Velocity S-wave (km/s) = 3.71105 3.88122 3.79709
# Velocity P-wave (km/s) = 6.93414 7.19376 7.06514
#
# Compressibility (1/GPa) = 0.01782667
#
# Stress axis : x y z
#
# Youngs Moduli (GPa) = 60.55123 113.46223 88.00616
#
# Poissons Ratio (x) = 0.29904 0.38829
# Poissons Ratio (y) = 0.15959 0.20986
# Poissons Ratio (z) = 0.26716 0.27056
#
# Static dielectric constant tensor:
#      x y z
#    x 3.347690 0.000000 0.000000 
#    y 0.000000 3.347400 0.000000 
#    z 0.000000 0.000000 3.603390 
# 
# 
# High freq. dielectric constant tensor:
#      x y z
#    x 1.699130 0.000000 0.000000 
#    y 0.000000 1.737490 0.000000 
#    z 0.000000 0.000000 1.735890 
# 
# From -- ./inp_files/60122.got.cif
#   From: 2010.03.12/outbox.cif.g09.slc.cpg/sg66_31_cif.got.tgz:60122.got - 2010.04.10 21:57:39.
