data_PCOD8277561
_publ_section_title
;
Structure prediction by ZEFSAII (Michael W. Deem and Ramdas Pophale) SiO2 
 PCOD8277561
Probable space group: C C C M
;
_chemical_formula_sum "Si O2"
_cell_formula_units_Z 96
_cell_length_a 11.269979
_cell_length_b 19.653874
_cell_length_c 24.344594
_cell_angle_alpha 90.000000
_cell_angle_beta 90.000000
_cell_angle_gamma 90.000000
_cell_volume 5392.297073
_symmetry_space_group_name_H-M "C C C M"
_symmetry_group_IT_number 66
_symmetry_cell_setting 'orthorhombic'
loop_
_space_group_symop_operation_xyz
x,y,z
-x,-y,z
x,-y,1/2-z
-x,y,1/2-z
-x,-y,-z
x,y,-z
-x,y,1/2+z
x,-y,1/2+z
1/2+x,1/2+y,z
1/2-x,1/2-y,z
1/2+x,1/2-y,1/2-z
1/2-x,1/2+y,1/2-z
1/2-x,1/2-y,-z
1/2+x,1/2+y,-z
1/2-x,1/2+y,1/2+z
1/2+x,1/2-y,1/2+z
loop_
_atom_site_type_symbol
_atom_site_label
_atom_site_fract_x
_atom_site_fract_y
_atom_site_fract_z
Si Si1 0.354393 0.570383 0.687693
Si Si2 0.167834 0.954613 0.500000
Si Si3 0.923106 0.421046 0.063150
Si Si4 0.618901 0.414982 0.813952
Si Si5 0.224254 0.171537 0.405746
Si Si6 0.827189 0.560899 0.099478
Si Si7 0.907226 0.894789 0.500000
O O1 0.333269 0.584458 0.751639
O O2 0.481130 0.607148 0.676150
O O3 0.368627 0.492636 0.667322
O O4 0.236199 0.592276 0.654205
O O5 0.231351 0.924732 0.447143
O O6 0.038115 0.923511 0.500000
O O7 0.175976 0.037554 0.500000
O O8 0.843840 0.354577 0.066074
O O9 0.863386 0.480876 0.099719
O O10 0.050583 0.399102 0.088173
O O11 0.938129 0.445725 0.000000
O O12 0.701255 0.363142 0.847016
O O13 0.250000 0.250000 0.396516
O O14 0.116191 0.151980 0.446507
#
# Coordination Sequence:
#
# PCOD8277561 Si02
#       7
#    16   8  16  16  16  16   8
#     4   9  17  32  61  80 109 128 175 243 285 325
#     4  11  18  30  56  85 117 128 170 255 280 318
#     4  11  20  33  51  80 119 151 177 208 278 337
#     4   9  18  34  54  87 103 137 177 232 292 305
#     4  12  22  36  55  76 114 151 187 217 257 342
#     4  11  17  31  54  83 111 143 169 228 283 328
#     4  11  21  31  51  88 110 139 188 225 283 318
#
# _framework density 17.803173000000001
#
# number of rings (size 3 to 8) (size 9 to 14) (size 15 to 20)
#    0.000    1.500    5.833    2.750    0.000    2.667 
#    0.000    0.833    7.333    4.000    0.000    0.000 
#    0.000    0.000    0.000    0.000    0.000    0.000 
#
# Total GULP energy -594703.319704 kJ/mol
# GULP energy per Si atom -12389.652494 kJ/mol
# Density = 1.776265 g / cm^3
# Si number density = 17.803173 Si / 1000 Ang^3
#
#
#
# Elastic Constant Matrix: (Units=GPa)
#
#
# Indices 1 2 3 4 5 6 
#
# 1 100.6270 22.0685 53.2329 0.0000 0.0000 0.0000
# 2 22.0685 72.7373 32.2504 0.0000 0.0000 0.0000
# 3 53.2329 32.2504 99.1658 0.0000 0.0000 0.0000
# 4 0.0000 0.0000 0.0000 16.2778 0.0000 0.0000
# 5 0.0000 0.0000 0.0000 0.0000 33.7940 0.0000
# 6 0.0000 0.0000 0.0000 0.0000 0.0000 17.1240
#
#
#
# Elastic Compliance Matrix: (Units=1/GPa)
#
#
# Indices 1 2 3 4 5 6 
#
# 1 0.013949 -0.001066 -0.007141 0.000000 0.000000 0.000000
# 2 -0.001066 0.016146 -0.004679 0.000000 0.000000 0.000000
# 3 -0.007141 -0.004679 0.015439 0.000000 0.000000 0.000000
# 4 0.000000 0.000000 0.000000 0.061433 0.000000 0.000000
# 5 0.000000 0.000000 0.000000 0.000000 0.029591 0.000000
# 6 0.000000 0.000000 0.000000 0.000000 0.000000 0.058398
#
#
# Mechanical properties :
#
#
# Convention : Reuss Voigt Hill
#
# Bulk Modulus (GPa) = 50.60101 54.18151 52.39126
# Shear Modulus (GPa) = 21.99577 24.43772 23.21674
#
# Velocity S-wave (km/s) = 3.51878 3.70896 3.61512
# Velocity P-wave (km/s) = 6.70770 6.98867 6.84963
#
# Compressibility (1/GPa) = 0.01976245
#
# Stress axis : x y z
#
# Youngs Moduli (GPa) = 71.68782 61.93498 64.76959
#
# Poissons Ratio (x) = 0.06601 0.46255
# Poissons Ratio (y) = 0.07641 0.30304
# Poissons Ratio (z) = 0.51196 0.28978
#
# Static dielectric constant tensor:
#      x y z
#    x 3.529110 0.000000 0.000000 
#    y 0.000000 2.815670 0.000000 
#    z 0.000000 0.000000 3.314380 
# 
# 
# High freq. dielectric constant tensor:
#      x y z
#    x 1.702760 0.000000 0.000000 
#    y 0.000000 1.628420 0.000000 
#    z 0.000000 0.000000 1.689480 
# 
# From -- ./inp_files/56980.got.cif
#   From: 2010.03.12/outbox.cif.g09.slc.cpg/sg66_29_cif.got.tgz:56980.got - 2010.04.10 21:57:39.
