data_PCOD8277046
_publ_section_title
;
Structure prediction by ZEFSAII (Michael W. Deem and Ramdas Pophale) SiO2 
 PCOD8277046
Probable space group: C C C M
;
_chemical_formula_sum "Si O2"
_cell_formula_units_Z 104
_cell_length_a 9.812424
_cell_length_b 23.592567
_cell_length_c 23.777631
_cell_angle_alpha 90.000000
_cell_angle_beta 90.000000
_cell_angle_gamma 90.000000
_cell_volume 5504.528012
_symmetry_space_group_name_H-M "C C C M"
_symmetry_group_IT_number 66
_symmetry_cell_setting 'orthorhombic'
loop_
_space_group_symop_operation_xyz
x,y,z
-x,-y,z
x,-y,1/2-z
-x,y,1/2-z
-x,-y,-z
x,y,-z
-x,y,1/2+z
x,-y,1/2+z
1/2+x,1/2+y,z
1/2-x,1/2-y,z
1/2+x,1/2-y,1/2-z
1/2-x,1/2+y,1/2-z
1/2-x,1/2-y,-z
1/2+x,1/2+y,-z
1/2-x,1/2+y,1/2+z
1/2+x,1/2-y,1/2+z
loop_
_atom_site_type_symbol
_atom_site_label
_atom_site_fract_x
_atom_site_fract_y
_atom_site_fract_z
Si Si1 0.261112 0.400348 0.268371
Si Si2 0.068023 0.854162 0.869286
Si Si3 0.645026 0.975537 0.636687
Si Si4 0.500000 0.829290 0.750000
Si Si5 0.885689 0.048035 0.658471
Si Si6 0.829204 0.631431 0.434525
Si Si7 0.405019 0.232029 0.642477
O O1 0.354693 0.361333 0.308915
O O2 0.200091 0.449828 0.305903
O O3 0.348889 0.429015 0.219989
O O4 0.136367 0.365918 0.241305
O O5 0.169422 0.865015 0.921189
O O6 0.015058 0.789421 0.875414
O O7 0.944906 0.898392 0.875969
O O8 0.621962 0.929852 0.587446
O O9 0.500000 0.000000 0.651205
O O10 0.756595 0.024453 0.622589
O O11 0.515633 0.790218 0.696131
O O12 0.000000 0.000000 0.665284
O O13 0.858534 0.635959 0.500000
O O14 0.909713 0.683207 0.404922
O O15 0.250000 0.250000 0.656102
#
# Coordination Sequence:
#
# PCOD8277046 Si02
#       7
#    16  16  16   8  16  16  16
#     4  11  22  33  54  86 126 168 198 232 308 370
#     4  10  22  38  54  92 119 158 214 250 299 375
#     4  11  23  40  58  91 127 157 211 255 305 381
#     4  12  20  36  55  88 133 160 194 264 302 376
#     4  12  23  37  59  87 128 169 197 246 309 381
#     4  10  21  42  67  87 117 162 217 270 312 360
#     4  10  21  38  56  88 127 160 208 252 308 373
#
# _framework density 18.893536000000001
#
# number of rings (size 3 to 8) (size 9 to 14) (size 15 to 20)
#    0.000    1.231    7.692    1.846    4.308    3.692 
#    0.000    1.538    0.000    0.000    0.000    1.077 
#    0.000    0.000    0.000    0.000    0.000    0.000 
#
# Total GULP energy -644595.123618 kJ/mol
# GULP energy per Si atom -12396.060070 kJ/mol
# Density = 1.885053 g / cm^3
# Si number density = 18.893536 Si / 1000 Ang^3
#
#
#
# Elastic Constant Matrix: (Units=GPa)
#
#
# Indices 1 2 3 4 5 6 
#
# 1 67.3076 31.2408 0.5875 0.0000 0.0000 0.0000
# 2 31.2408 118.6298 21.4675 0.0000 0.0000 0.0000
# 3 0.5875 21.4675 68.2522 0.0000 0.0000 0.0000
# 4 0.0000 0.0000 0.0000 32.1173 0.0000 0.0000
# 5 0.0000 0.0000 0.0000 0.0000 14.5518 0.0000
# 6 0.0000 0.0000 0.0000 0.0000 0.0000 25.1159
#
#
#
# Elastic Compliance Matrix: (Units=1/GPa)
#
#
# Indices 1 2 3 4 5 6 
#
# 1 0.017041 -0.004730 0.001341 0.000000 0.000000 0.000000
# 2 -0.004730 0.010251 -0.003184 0.000000 0.000000 0.000000
# 3 0.001341 -0.003184 0.015641 0.000000 0.000000 0.000000
# 4 0.000000 0.000000 0.000000 0.031136 0.000000 0.000000
# 5 0.000000 0.000000 0.000000 0.000000 0.068720 0.000000
# 6 0.000000 0.000000 0.000000 0.000000 0.000000 0.039815
#
#
# Mechanical properties :
#
#
# Convention : Reuss Voigt Hill
#
# Bulk Modulus (GPa) = 33.57049 40.08679 36.82864
# Shear Modulus (GPa) = 24.30956 27.74992 26.02974
#
# Velocity S-wave (km/s) = 3.59090 3.83659 3.71577
# Velocity P-wave (km/s) = 5.91604 6.39446 6.15990
#
# Compressibility (1/GPa) = 0.02978806
#
# Stress axis : x y z
#
# Youngs Moduli (GPa) = 58.68166 97.54707 63.93303
#
# Poissons Ratio (x) = 0.46144 -0.08575
# Poissons Ratio (y) = 0.27759 0.20354
# Poissons Ratio (z) = -0.07870 0.31056
#
# Static dielectric constant tensor:
#      x y z
#    x 3.077970 0.000000 0.000000 
#    y 0.000000 4.066500 0.000000 
#    z 0.000000 0.000000 3.060240 
# 
# 
# High freq. dielectric constant tensor:
#      x y z
#    x 1.719940 0.000000 0.000000 
#    y 0.000000 1.760660 0.000000 
#    z 0.000000 0.000000 1.693070 
# 
# From -- ./inp_files/47402.got.cif
#   From: 2010.03.12/outbox.cif.g09.slc.cpg/sg66_24_cif.got.tgz:47402.got - 2010.04.10 21:57:39.
