data_PCOD8277488
_publ_section_title
;
Structure prediction by ZEFSAII (Michael W. Deem and Ramdas Pophale) SiO2 
 PCOD8277488
Probable space group: C C C M
;
_chemical_formula_sum "Si O2"
_cell_formula_units_Z 112
_cell_length_a 14.439171
_cell_length_b 22.939886
_cell_length_c 15.015882
_cell_angle_alpha 90.000000
_cell_angle_beta 90.000000
_cell_angle_gamma 90.000000
_cell_volume 4973.754692
_symmetry_space_group_name_H-M "C C C M"
_symmetry_group_IT_number 66
_symmetry_cell_setting 'orthorhombic'
loop_
_space_group_symop_operation_xyz
x,y,z
-x,-y,z
x,-y,1/2-z
-x,y,1/2-z
-x,-y,-z
x,y,-z
-x,y,1/2+z
x,-y,1/2+z
1/2+x,1/2+y,z
1/2-x,1/2-y,z
1/2+x,1/2-y,1/2-z
1/2-x,1/2+y,1/2-z
1/2-x,1/2-y,-z
1/2+x,1/2+y,-z
1/2-x,1/2+y,1/2+z
1/2+x,1/2-y,1/2+z
loop_
_atom_site_type_symbol
_atom_site_label
_atom_site_fract_x
_atom_site_fract_y
_atom_site_fract_z
Si Si1 0.039622 0.105898 0.151762
Si Si2 0.571132 0.049729 0.394476
Si Si3 0.577412 0.169783 0.687818
Si Si4 0.740184 0.313974 0.227109
Si Si5 0.717113 0.531463 0.895002
Si Si6 0.370207 0.715750 0.599498
Si Si7 0.847168 0.907056 0.599357
O O1 0.138577 0.072313 0.150345
O O2 0.045362 0.170777 0.110468
O O3 0.000000 0.108865 0.250000
O O4 0.956693 0.076839 0.095327
O O5 0.566368 0.048959 0.500000
O O6 0.536896 0.111669 0.357653
O O7 0.678307 0.044567 0.362962
O O8 0.500000 0.000000 0.357360
O O9 0.500000 0.198245 0.750000
O O10 0.661772 0.155545 0.755324
O O11 0.599646 0.217537 0.612746
O O12 0.750000 0.250000 0.181392
O O13 0.702728 0.304700 0.327076
O O14 0.675261 0.353983 0.166151
O O15 0.703430 0.464835 0.865959
O O16 0.705330 0.540654 0.000000
O O17 0.327556 0.710135 0.500000
O O18 0.812278 0.890951 0.500000
#
# Coordination Sequence:
#
# PCOD8277488 Si02
#       7
#    16  16  16  16  16  16  16
#     4  12  23  41  67 104 140 177 221 288 351 419
#     4  10  23  45  70  98 132 177 234 290 343 408
#     4  11  25  42  64  99 135 172 222 287 341 412
#     4  10  24  44  67 100 136 172 234 289 339 417
#     4  10  23  43  68  99 136 178 233 287 341 416
#     4  11  23  44  73  99 131 173 223 287 354 408
#     4  11  24  43  66  96 140 186 223 273 343 418
#
# _framework density 22.518198000000002
#
# number of rings (size 3 to 8) (size 9 to 14) (size 15 to 20)
#    0.000    1.286    1.429    3.429    4.000    7.143 
#    0.000    0.714    0.000    0.000    0.000    0.000 
#    0.000    0.000    0.000    0.000    0.000    0.000 
#
# Total GULP energy -694024.109591 kJ/mol
# GULP energy per Si atom -12393.287671 kJ/mol
# Density = 2.246695 g / cm^3
# Si number density = 22.518198 Si / 1000 Ang^3
#
#
#
# Elastic Constant Matrix: (Units=GPa)
#
#
# Indices 1 2 3 4 5 6 
#
# 1 121.3377 44.2339 42.9113 0.0000 0.0000 0.0000
# 2 44.2339 143.8652 59.7118 0.0000 0.0000 0.0000
# 3 42.9113 59.7118 85.1854 0.0000 0.0000 0.0000
# 4 0.0000 0.0000 0.0000 34.3494 0.0000 0.0000
# 5 0.0000 0.0000 0.0000 0.0000 22.4732 0.0000
# 6 0.0000 0.0000 0.0000 0.0000 0.0000 36.7827
#
#
#
# Elastic Compliance Matrix: (Units=1/GPa)
#
#
# Indices 1 2 3 4 5 6 
#
# 1 0.010229 -0.001419 -0.004158 0.000000 0.000000 0.000000
# 2 -0.001419 0.010000 -0.006295 0.000000 0.000000 0.000000
# 3 -0.004158 -0.006295 0.018246 0.000000 0.000000 0.000000
# 4 0.000000 0.000000 0.000000 0.029113 0.000000 0.000000
# 5 0.000000 0.000000 0.000000 0.000000 0.044498 0.000000
# 6 0.000000 0.000000 0.000000 0.000000 0.000000 0.027187
#
#
# Mechanical properties :
#
#
# Convention : Reuss Voigt Hill
#
# Bulk Modulus (GPa) = 67.88275 71.56693 69.72484
# Shear Modulus (GPa) = 29.77492 32.28980 31.03236
#
# Velocity S-wave (km/s) = 3.64023 3.79085 3.71631
# Velocity P-wave (km/s) = 6.91951 7.14224 7.03175
#
# Compressibility (1/GPa) = 0.01473128
#
# Stress axis : x y z
#
# Youngs Moduli (GPa) = 97.75750 100.00028 54.80672
#
# Poissons Ratio (x) = 0.14194 0.22789
# Poissons Ratio (y) = 0.13876 0.34499
# Poissons Ratio (z) = 0.40648 0.62946
#
# Static dielectric constant tensor:
#      x y z
#    x 4.354070 0.000000 0.000000 
#    y 0.000000 4.399210 0.000000 
#    z 0.000000 0.000000 3.897520 
# 
# 
# High freq. dielectric constant tensor:
#      x y z
#    x 1.892460 0.000000 0.000000 
#    y 0.000000 1.895600 0.000000 
#    z 0.000000 0.000000 1.881370 
# 
# From -- ./inp_files/28692.got.cif
#   From: 2010.03.12/outbox.cif.g09.slc.cpg/sg66_15_cif.got.tgz:28692.got - 2010.04.10 21:57:39.
