data_PCOD8277869
_publ_section_title
;
Structure prediction by ZEFSAII (Michael W. Deem and Ramdas Pophale) SiO2 
 PCOD8277869
Probable space group: C C C M
;
_chemical_formula_sum "Si O2"
_cell_formula_units_Z 44
_cell_length_a 5.292907
_cell_length_b 13.149429
_cell_length_c 29.088747
_cell_angle_alpha 90.000000
_cell_angle_beta 90.000000
_cell_angle_gamma 90.000000
_cell_volume 2024.539115
_symmetry_space_group_name_H-M "C C C M"
_symmetry_group_IT_number 66
_symmetry_cell_setting 'orthorhombic'
loop_
_space_group_symop_operation_xyz
x,y,z
-x,-y,z
x,-y,1/2-z
-x,y,1/2-z
-x,-y,-z
x,y,-z
-x,y,1/2+z
x,-y,1/2+z
1/2+x,1/2+y,z
1/2-x,1/2-y,z
1/2+x,1/2-y,1/2-z
1/2-x,1/2+y,1/2-z
1/2-x,1/2-y,-z
1/2+x,1/2+y,-z
1/2-x,1/2+y,1/2+z
1/2+x,1/2-y,1/2+z
loop_
_atom_site_type_symbol
_atom_site_label
_atom_site_fract_x
_atom_site_fract_y
_atom_site_fract_z
Si Si1 0.000000 0.000000 0.367883
Si Si2 0.498242 0.820809 0.500000
Si Si3 0.000000 0.500000 0.250000
Si Si4 0.000000 0.500000 0.427845
Si Si5 0.634592 0.649262 0.296925
O O1 0.956492 0.099375 0.335497
O O2 0.248538 0.009575 0.398087
O O3 0.750000 0.750000 0.500000
O O4 0.490107 0.895492 0.456366
O O5 0.250000 0.750000 0.500000
O O6 0.840944 0.565861 0.285128
O O7 0.500000 0.682838 0.250000
O O8 0.750000 0.750000 0.319469
#
# Coordination Sequence:
#
# PCOD8277869 Si02
#       5
#     8   8   4   8  16
#     4  12  25  45  68 102 148 176 230 297 345 398
#     4  11  24  49  80 104 138 181 222 271 348 434
#     4  12  20  44  62  88 128 180 248 288 336 394
#     4  11  27  46  72 108 140 178 223 283 350 420
#     4  12  25  40  66  92 132 192 240 285 339 401
#
# _framework density 21.733343999999999
#
# number of rings (size 3 to 8) (size 9 to 14) (size 15 to 20)
#    0.000    0.364    5.455    3.273    0.000    7.273 
#    0.000    3.636    0.000    0.000    0.000    0.000 
#    0.000    0.000    0.000    0.000    0.000    0.000 
#
# Total GULP energy -272747.162722 kJ/mol
# GULP energy per Si atom -12397.598306 kJ/mol
# Density = 2.168388 g / cm^3
# Si number density = 21.733344 Si / 1000 Ang^3
#
#
#
# Elastic Constant Matrix: (Units=GPa)
#
#
# Indices 1 2 3 4 5 6 
#
# 1 143.0524 57.0733 51.5342 0.0000 0.0000 0.0000
# 2 57.0733 177.3054 60.0662 0.0000 0.0000 0.0000
# 3 51.5342 60.0662 126.9120 0.0000 0.0000 0.0000
# 4 0.0000 0.0000 0.0000 -67.4346 0.0000 0.0000
# 5 0.0000 0.0000 0.0000 0.0000 48.1100 0.0000
# 6 0.0000 0.0000 0.0000 0.0000 0.0000 48.5642
#
#
#
# Elastic Compliance Matrix: (Units=1/GPa)
#
#
# Indices 1 2 3 4 5 6 
#
# 1 0.008699 -0.001910 -0.002629 0.000000 0.000000 0.000000
# 2 -0.001910 0.007136 -0.002602 0.000000 0.000000 0.000000
# 3 -0.002629 -0.002602 0.010178 0.000000 0.000000 0.000000
# 4 0.000000 0.000000 0.000000 -0.014829 0.000000 0.000000
# 5 0.000000 0.000000 0.000000 0.000000 0.020786 0.000000
# 6 0.000000 0.000000 0.000000 0.000000 0.000000 0.020591
#
#
# Mechanical properties :
#
#
# Convention : Reuss Voigt Hill
#
# Bulk Modulus (GPa) = 85.22861 87.17970 86.20415
# Shear Modulus (GPa) = 70.66785 24.42098 47.54442
#
# Velocity S-wave (km/s) = 5.70845 3.35575 4.68228
# Velocity P-wave (km/s) = 9.09667 7.43069 8.30555
#
# Compressibility (1/GPa) = 0.01173315
#
# Stress axis : x y z
#
# Youngs Moduli (GPa) = 114.95146 140.13028 98.24754
#
# Poissons Ratio (x) = 0.26761 0.25825
# Poissons Ratio (y) = 0.21953 0.25564
# Poissons Ratio (z) = 0.30216 0.36462
#
# Static dielectric constant tensor:
#      x y z
#    x 3.912350 0.000000 0.000000 
#    y 0.000000 4.146770 0.000000 
#    z 0.000000 0.000000 4.222360 
# 
# 
# High freq. dielectric constant tensor:
#      x y z
#    x 1.864410 0.000000 0.000000 
#    y 0.000000 1.875980 0.000000 
#    z 0.000000 0.000000 1.855480 
# 
# From -- ./inp_files/66700.got.cif
#   From: 2010.03.12/outbox.cif.g09.slc.cpg/sg66_34_cif.got.tgz:66700.got - 2010.04.10 21:57:39.
