data_PCOD8277853
_publ_section_title
;
Structure prediction by ZEFSAII (Michael W. Deem and Ramdas Pophale) SiO2 
 PCOD8277853
Probable space group: C C C M
;
_chemical_formula_sum "Si O2"
_cell_formula_units_Z 72
_cell_length_a 9.200885
_cell_length_b 13.442786
_cell_length_c 25.867749
_cell_angle_alpha 90.000000
_cell_angle_beta 90.000000
_cell_angle_gamma 90.000000
_cell_volume 3199.466195
_symmetry_space_group_name_H-M "C C C M"
_symmetry_group_IT_number 66
_symmetry_cell_setting 'orthorhombic'
loop_
_space_group_symop_operation_xyz
x,y,z
-x,-y,z
x,-y,1/2-z
-x,y,1/2-z
-x,-y,-z
x,y,-z
-x,y,1/2+z
x,-y,1/2+z
1/2+x,1/2+y,z
1/2-x,1/2-y,z
1/2+x,1/2-y,1/2-z
1/2-x,1/2+y,1/2-z
1/2-x,1/2-y,-z
1/2+x,1/2+y,-z
1/2-x,1/2+y,1/2+z
1/2+x,1/2-y,1/2+z
loop_
_atom_site_type_symbol
_atom_site_label
_atom_site_fract_x
_atom_site_fract_y
_atom_site_fract_z
Si Si1 0.424179 0.233148 0.500000
Si Si2 0.372655 0.576625 0.500000
Si Si3 0.500000 0.500000 0.826048
Si Si4 0.405566 0.709360 0.796322
Si Si5 0.234536 0.468238 0.892684
Si Si6 0.455358 0.848011 0.111028
O O1 0.250000 0.250000 0.500000
O O2 0.537935 0.322438 0.500000
O O3 0.466503 0.173834 0.449238
O O4 0.500000 0.500000 0.500000
O O5 0.266697 0.560370 0.548365
O O6 0.422515 0.588678 0.793897
O O7 0.378780 0.445238 0.860471
O O8 0.500000 0.755679 0.750000
O O9 0.250000 0.750000 0.780943
O O10 0.443810 0.750371 0.853530
O O11 0.188735 0.583446 0.883516
O O12 0.102153 0.402579 0.871589
#
# Coordination Sequence:
#
# PCOD8277853 Si02
#       6
#     8   8   8  16  16  16
#     4  12  25  40  71 102 144 196 238 299 365 438
#     4  12  23  38  61 103 143 192 248 291 359 437
#     4  12  25  47  76 104 144 185 248 296 369 438
#     4  12  28  51  76 109 144 192 245 304 370 440
#     4  11  24  43  70 105 145 192 238 304 362 439
#     4  11  25  47  71 106 149 184 244 301 369 436
#
# _framework density 22.503754000000001
#
# number of rings (size 3 to 8) (size 9 to 14) (size 15 to 20)
#    0.000    0.444    3.333    5.000    3.111    5.333 
#    0.000    2.222    0.000    0.000    0.000    0.000 
#    0.000    0.000    0.000    0.000    0.000    0.000 
#
# Total GULP energy -446249.428596 kJ/mol
# GULP energy per Si atom -12395.817461 kJ/mol
# Density = 2.245253 g / cm^3
# Si number density = 22.503754 Si / 1000 Ang^3
#
#
#
# Elastic Constant Matrix: (Units=GPa)
#
#
# Indices 1 2 3 4 5 6 
#
# 1 146.2238 46.8968 37.5559 0.0000 0.0000 0.0000
# 2 46.8968 124.9747 23.3839 0.0000 0.0000 0.0000
# 3 37.5559 23.3839 107.5758 0.0000 0.0000 0.0000
# 4 0.0000 0.0000 0.0000 17.4231 0.0000 0.0000
# 5 0.0000 0.0000 0.0000 0.0000 53.6341 0.0000
# 6 0.0000 0.0000 0.0000 0.0000 0.0000 38.0605
#
#
#
# Elastic Compliance Matrix: (Units=1/GPa)
#
#
# Indices 1 2 3 4 5 6 
#
# 1 0.008292 -0.002679 -0.002312 0.000000 0.000000 0.000000
# 2 -0.002679 0.009206 -0.001066 0.000000 0.000000 0.000000
# 3 -0.002312 -0.001066 0.010335 0.000000 0.000000 0.000000
# 4 0.000000 0.000000 0.000000 0.057395 0.000000 0.000000
# 5 0.000000 0.000000 0.000000 0.000000 0.018645 0.000000
# 6 0.000000 0.000000 0.000000 0.000000 0.000000 0.026274
#
#
# Mechanical properties :
#
#
# Convention : Reuss Voigt Hill
#
# Bulk Modulus (GPa) = 63.61973 66.04972 64.83473
# Shear Modulus (GPa) = 33.89810 39.88608 36.89209
#
# Velocity S-wave (km/s) = 3.88536 4.21458 4.05331
# Velocity P-wave (km/s) = 6.96133 7.28682 7.12594
#
# Compressibility (1/GPa) = 0.01571839
#
# Stress axis : x y z
#
# Youngs Moduli (GPa) = 120.59909 108.62106 96.76047
#
# Poissons Ratio (x) = 0.29098 0.22376
# Poissons Ratio (y) = 0.32307 0.10314
# Poissons Ratio (z) = 0.27889 0.11579
#
# Static dielectric constant tensor:
#      x y z
#    x 4.264000 0.000000 0.000000 
#    y 0.000000 3.998020 0.000000 
#    z 0.000000 0.000000 4.020860 
# 
# 
# High freq. dielectric constant tensor:
#      x y z
#    x 1.908360 0.000000 0.000000 
#    y 0.000000 1.887310 0.000000 
#    z 0.000000 0.000000 1.886000 
# 
# From -- ./inp_files/62231.got.cif
#   From: 2010.03.12/outbox.cif.g09.slc.cpg/sg66_32_cif.got.tgz:62231.got - 2010.04.10 21:57:39.
