data_PCOD8277871
_publ_section_title
;
Structure prediction by ZEFSAII (Michael W. Deem and Ramdas Pophale) SiO2 
 PCOD8277871
Probable space group: C C C M
;
_chemical_formula_sum "Si O2"
_cell_formula_units_Z 72
_cell_length_a 27.857373
_cell_length_b 5.175129
_cell_length_c 22.458347
_cell_angle_alpha 90.000000
_cell_angle_beta 90.000000
_cell_angle_gamma 90.000000
_cell_volume 3237.718799
_symmetry_space_group_name_H-M "C C C M"
_symmetry_group_IT_number 66
_symmetry_cell_setting 'orthorhombic'
loop_
_space_group_symop_operation_xyz
x,y,z
-x,-y,z
x,-y,1/2-z
-x,y,1/2-z
-x,-y,-z
x,y,-z
-x,y,1/2+z
x,-y,1/2+z
1/2+x,1/2+y,z
1/2-x,1/2-y,z
1/2+x,1/2-y,1/2-z
1/2-x,1/2+y,1/2-z
1/2-x,1/2-y,-z
1/2+x,1/2+y,-z
1/2-x,1/2+y,1/2+z
1/2+x,1/2-y,1/2+z
loop_
_atom_site_type_symbol
_atom_site_label
_atom_site_fract_x
_atom_site_fract_y
_atom_site_fract_z
Si Si1 0.302753 0.500000 0.750000
Si Si2 0.556331 0.457824 0.433368
Si Si3 0.632843 0.000000 0.250000
Si Si4 0.750000 0.250000 0.652313
Si Si5 0.399478 0.065026 0.379759
Si Si6 0.298261 0.080709 0.568645
O O1 0.334118 0.247733 0.745303
O O2 0.268374 0.512772 0.692529
O O3 0.500000 0.500000 0.436636
O O4 0.577510 0.504184 0.500000
O O5 0.575371 0.174724 0.413445
O O6 0.570077 0.676123 0.385898
O O7 0.601687 0.988345 0.189957
O O8 0.793636 0.325508 0.609042
O O9 0.349661 0.176929 0.408516
O O10 0.301195 0.003331 0.500000
O O11 0.250000 0.250000 0.580496
#
# Coordination Sequence:
#
# PCOD8277871 Si02
#       6
#     8  16   8   8  16  16
#     4  12  25  42  66  92 140 190 250 286 334 397
#     4  11  25  48  77 106 135 175 232 296 357 422
#     4  12  25  46  65 104 137 188 233 290 341 427
#     4  12  25  40  64  94 133 192 240 290 330 406
#     4  12  25  46  72 103 142 185 233 285 354 423
#     4  11  25  42  65 100 144 187 232 288 347 414
#
# _framework density 22.237880000000001
#
# number of rings (size 3 to 8) (size 9 to 14) (size 15 to 20)
#    0.000    0.444    2.222    6.333    4.667    1.778 
#    0.000    3.333    0.000    0.000    0.000    0.000 
#    0.000    0.000    0.000    0.000    0.000    0.000 
#
# Total GULP energy -445995.820814 kJ/mol
# GULP energy per Si atom -12388.772800 kJ/mol
# Density = 2.218727 g / cm^3
# Si number density = 22.237880 Si / 1000 Ang^3
#
#
#
# Elastic Constant Matrix: (Units=GPa)
#
#
# Indices 1 2 3 4 5 6 
#
# 1 91.5381 36.1923 43.6268 0.0000 0.0000 0.0000
# 2 36.1923 127.0947 31.2970 0.0000 0.0000 0.0000
# 3 43.6268 31.2970 175.5768 0.0000 0.0000 0.0000
# 4 0.0000 0.0000 0.0000 -169.7085 0.0000 0.0000
# 5 0.0000 0.0000 0.0000 0.0000 -103.7291 0.0000
# 6 0.0000 0.0000 0.0000 0.0000 0.0000 37.7114
#
#
#
# Elastic Compliance Matrix: (Units=1/GPa)
#
#
# Indices 1 2 3 4 5 6 
#
# 1 0.013504 -0.003158 -0.002793 0.000000 0.000000 0.000000
# 2 -0.003158 0.008968 -0.000814 0.000000 0.000000 0.000000
# 3 -0.002793 -0.000814 0.006534 0.000000 0.000000 0.000000
# 4 0.000000 0.000000 0.000000 -0.005892 0.000000 0.000000
# 5 0.000000 0.000000 0.000000 0.000000 -0.009640 0.000000
# 6 0.000000 0.000000 0.000000 0.000000 0.000000 0.026517
#
#
# Mechanical properties :
#
#
# Convention : Reuss Voigt Hill
#
# Bulk Modulus (GPa) = 64.60900 68.49356 66.55128
# Shear Modulus (GPa) = 85.21089 -28.27233 28.46928
#
# Velocity S-wave (km/s) = 6.19686 -3.56948 3.58189
# Velocity P-wave (km/s) = 8.96204 3.72545 6.86284
#
# Compressibility (1/GPa) = 0.01547772
#
# Stress axis : x y z
#
# Youngs Moduli (GPa) = 74.05300 111.51009 153.03468
#
# Poissons Ratio (x) = 0.35212 0.42735
# Poissons Ratio (y) = 0.23384 0.12455
# Poissons Ratio (z) = 0.20679 0.09076
#
# Static dielectric constant tensor:
#      x y z
#    x 4.558470 0.000000 0.000000 
#    y 0.000000 3.545180 0.000000 
#    z 0.000000 0.000000 4.557450 
# 
# 
# High freq. dielectric constant tensor:
#      x y z
#    x 1.870710 0.000000 0.000000 
#    y 0.000000 1.879600 0.000000 
#    z 0.000000 0.000000 1.899450 
# 
# From -- ./inp_files/60053.got.cif
#   From: 2010.03.12/outbox.cif.g09.slc.cpg/sg66_31_cif.got.tgz:60053.got - 2010.04.10 21:57:39.
