data_PCOD8277725
_publ_section_title
;
Structure prediction by ZEFSAII (Michael W. Deem and Ramdas Pophale) SiO2 
 PCOD8277725
Probable space group: C C C M
;
_chemical_formula_sum "Si O2"
_cell_formula_units_Z 88
_cell_length_a 23.031678
_cell_length_b 12.093151
_cell_length_c 14.963013
_cell_angle_alpha 90.000000
_cell_angle_beta 90.000000
_cell_angle_gamma 90.000000
_cell_volume 4167.581573
_symmetry_space_group_name_H-M "C C C M"
_symmetry_group_IT_number 66
_symmetry_cell_setting 'orthorhombic'
loop_
_space_group_symop_operation_xyz
x,y,z
-x,-y,z
x,-y,1/2-z
-x,y,1/2-z
-x,-y,-z
x,y,-z
-x,y,1/2+z
x,-y,1/2+z
1/2+x,1/2+y,z
1/2-x,1/2-y,z
1/2+x,1/2-y,1/2-z
1/2-x,1/2+y,1/2-z
1/2-x,1/2-y,-z
1/2+x,1/2+y,-z
1/2-x,1/2+y,1/2+z
1/2+x,1/2-y,1/2+z
loop_
_atom_site_type_symbol
_atom_site_label
_atom_site_fract_x
_atom_site_fract_y
_atom_site_fract_z
Si Si1 0.633359 0.000000 0.250000
Si Si2 0.127711 0.133325 0.898589
Si Si3 0.051231 0.419287 0.597991
Si Si4 0.001539 0.810624 0.148999
Si Si5 0.619651 0.383834 0.900226
Si Si6 0.183604 0.263051 0.743873
O O1 0.596108 0.983840 0.339416
O O2 0.672931 0.892222 0.240738
O O3 0.061446 0.175394 0.894044
O O4 0.170047 0.203870 0.836926
O O5 0.136218 0.006418 0.867595
O O6 0.148796 0.148180 0.000000
O O7 0.078786 0.386546 0.500000
O O8 0.000000 0.500000 0.576226
O O9 0.024024 0.314900 0.648210
O O10 0.000000 0.853050 0.250000
O O11 0.049429 0.882788 0.097099
O O12 0.643739 0.288770 0.834506
O O13 0.643617 0.361693 0.000000
O O14 0.250000 0.250000 0.715747
#
# Coordination Sequence:
#
# PCOD8277725 Si02
#       6
#     8  16  16  16  16  16
#     4  12  25  44  66  98 128 179 230 280 332 404
#     4  11  24  43  70 103 141 177 220 274 338 407
#     4  11  22  37  62  96 140 178 212 264 330 408
#     4  12  21  37  66 106 140 174 214 266 334 416
#     4  11  24  44  70 102 137 175 221 276 340 408
#     4  12  28  46  71  95 131 178 238 291 338 391
#
# _framework density 21.115364
#
# number of rings (size 3 to 8) (size 9 to 14) (size 15 to 20)
#    0.000    0.545    3.636    5.182    2.545    5.091 
#    0.000    0.000    0.000    0.000    0.000    0.000 
#    0.000    0.000    0.000    0.000    0.000    0.000 
#
# Total GULP energy -545587.028707 kJ/mol
# GULP energy per Si atom -12399.705198 kJ/mol
# Density = 2.106730 g / cm^3
# Si number density = 21.115364 Si / 1000 Ang^3
#
#
#
# Elastic Constant Matrix: (Units=GPa)
#
#
# Indices 1 2 3 4 5 6 
#
# 1 72.5812 22.0295 10.6460 0.0000 0.0000 0.0000
# 2 22.0295 139.5776 35.3938 0.0000 0.0000 0.0000
# 3 10.6460 35.3938 102.5160 0.0000 0.0000 0.0000
# 4 0.0000 0.0000 0.0000 27.7391 0.0000 0.0000
# 5 0.0000 0.0000 0.0000 0.0000 2.9116 0.0000
# 6 0.0000 0.0000 0.0000 0.0000 0.0000 21.2460
#
#
#
# Elastic Compliance Matrix: (Units=1/GPa)
#
#
# Indices 1 2 3 4 5 6 
#
# 1 0.014528 -0.002094 -0.000786 0.000000 0.000000 0.000000
# 2 -0.002094 0.008154 -0.002598 0.000000 0.000000 0.000000
# 3 -0.000786 -0.002598 0.010733 0.000000 0.000000 0.000000
# 4 0.000000 0.000000 0.000000 0.036050 0.000000 0.000000
# 5 0.000000 0.000000 0.000000 0.000000 0.343455 0.000000
# 6 0.000000 0.000000 0.000000 0.000000 0.000000 0.047068
#
#
# Mechanical properties :
#
#
# Convention : Reuss Voigt Hill
#
# Bulk Modulus (GPa) = 44.52241 50.09041 47.30641
# Shear Modulus (GPa) = 10.45087 26.81971 18.63529
#
# Velocity S-wave (km/s) = 2.22714 3.56778 2.97399
# Velocity P-wave (km/s) = 5.26732 6.38325 5.85194
#
# Compressibility (1/GPa) = 0.02246060
#
# Stress axis : x y z
#
# Youngs Moduli (GPa) = 68.83056 122.64481 93.17044
#
# Poissons Ratio (x) = 0.25679 0.07322
# Poissons Ratio (y) = 0.14411 0.24202
# Poissons Ratio (z) = 0.05409 0.31859
#
# Static dielectric constant tensor:
#      x y z
#    x 3.513110 0.000000 0.000000 
#    y 0.000000 4.017940 0.000000 
#    z 0.000000 0.000000 3.975170 
# 
# 
# High freq. dielectric constant tensor:
#      x y z
#    x 1.798150 0.000000 0.000000 
#    y 0.000000 1.844890 0.000000 
#    z 0.000000 0.000000 1.844290 
# 
# From -- ./inp_files/32189.got.cif
#   From: 2010.03.12/outbox.cif.g09.slc.cpg/sg66_17_cif.got.tgz:32189.got - 2010.04.10 21:57:39.
