data_PCOD8278069
_publ_section_title
;
Structure prediction by ZEFSAII (Michael W. Deem and Ramdas Pophale) SiO2 
 PCOD8278069
Probable space group: C M M A
;
_chemical_formula_sum "Si O2"
_cell_formula_units_Z 80
_cell_length_a 8.671564
_cell_length_b 18.241304
_cell_length_c 25.809600
_cell_angle_alpha 90.000000
_cell_angle_beta 90.000000
_cell_angle_gamma 90.000000
_cell_volume 4082.578919
_symmetry_space_group_name_H-M "C M M A"
_symmetry_group_IT_number 67
_symmetry_cell_setting 'orthorhombic'
loop_
_space_group_symop_operation_xyz
x,y,z
-x,1/2-y,z
x,-y,-z
-x,1/2+y,-z
-x,-y,-z
x,1/2+y,-z
-x,y,z
x,1/2-y,z
1/2+x,1/2+y,z
1/2-x,-y,z
1/2+x,1/2-y,-z
1/2-x,y,-z
1/2-x,1/2-y,-z
1/2+x,y,-z
1/2-x,1/2+y,z
1/2+x,-y,z
loop_
_atom_site_type_symbol
_atom_site_label
_atom_site_fract_x
_atom_site_fract_y
_atom_site_fract_z
Si Si1 0.817250 0.581530 0.051547
Si Si2 0.819619 0.920981 0.351057
Si Si3 0.680792 0.079563 0.844379
Si Si4 0.322636 0.835512 0.259103
Si Si5 0.681885 0.333484 0.554797
O O1 0.750000 0.500000 0.052752
O O2 0.758172 0.618064 0.104984
O O3 0.000000 0.581300 0.049023
O O4 0.750000 0.621851 0.000000
O O5 0.786895 0.869594 0.302233
O O6 0.745823 0.887438 0.402232
O O7 0.000000 0.928185 0.359790
O O8 0.750000 0.000000 0.339369
O O9 0.500000 0.071264 0.854373
O O10 0.719619 0.131359 0.796407
O O11 0.750000 0.000000 0.832467
O O12 0.500000 0.852017 0.273885
O O13 0.289129 0.750000 0.256481
O O14 0.500000 0.340847 0.552534
O O15 0.732038 0.250000 0.567705
O O16 0.750000 0.358558 0.500000
#
# Coordination Sequence:
#
# PCOD8278069 Si02
#       5
#    16  16  16  16  16
#     4  10  17  27  45  71 104 138 175 219 268 322
#     4  12  25  40  60  86 116 150 190 235 282 332
#     4  10  19  32  52  78 108 141 179 223 272 325
#     4  10  22  40  60  82 111 147 185 228 280 336
#     4  10  21  39  63  90 121 155 191 231 276 329
#
# _framework density 19.595458000000001
#
# number of rings (size 3 to 8) (size 9 to 14) (size 15 to 20)
#    0.000    1.600    0.000    7.800    0.000    7.600 
#    0.000    2.000    0.000    0.600    0.000    0.000 
#    0.000    0.000    0.000    0.000    0.000    0.000 
#
# Total GULP energy -496073.499694 kJ/mol
# GULP energy per Si atom -12401.837492 kJ/mol
# Density = 1.955086 g / cm^3
# Si number density = 19.595458 Si / 1000 Ang^3
#
#
#
# Elastic Constant Matrix: (Units=GPa)
#
#
# Indices 1 2 3 4 5 6 
#
# 1 118.1575 25.6625 59.0897 0.0000 0.0000 0.0000
# 2 25.6625 77.7992 54.2247 0.0000 0.0000 0.0000
# 3 59.0897 54.2247 151.9764 0.0000 0.0000 0.0000
# 4 0.0000 0.0000 0.0000 141.5004 0.0000 0.0000
# 5 0.0000 0.0000 0.0000 0.0000 40.7524 0.0000
# 6 0.0000 0.0000 0.0000 0.0000 0.0000 21.3920
#
#
#
# Elastic Compliance Matrix: (Units=1/GPa)
#
#
# Indices 1 2 3 4 5 6 
#
# 1 0.010546 -0.000826 -0.003806 0.000000 0.000000 0.000000
# 2 -0.000826 0.017173 -0.005806 0.000000 0.000000 0.000000
# 3 -0.003806 -0.005806 0.010131 0.000000 0.000000 0.000000
# 4 0.000000 0.000000 0.000000 0.007067 0.000000 0.000000
# 5 0.000000 0.000000 0.000000 0.000000 0.024538 0.000000
# 6 0.000000 0.000000 0.000000 0.000000 0.000000 0.046746
#
#
# Mechanical properties :
#
#
# Convention : Reuss Voigt Hill
#
# Bulk Modulus (GPa) = 58.91237 69.54300 64.22768
# Shear Modulus (GPa) = 35.02987 54.65935 44.84461
#
# Velocity S-wave (km/s) = 4.23265 5.28720 4.78904
# Velocity P-wave (km/s) = 7.34960 8.53458 7.96416
#
# Compressibility (1/GPa) = 0.01697437
#
# Stress axis : x y z
#
# Youngs Moduli (GPa) = 94.82410 58.23163 98.70561
#
# Poissons Ratio (x) = 0.04811 0.37563
# Poissons Ratio (y) = 0.07835 0.57308
# Poissons Ratio (z) = 0.36085 0.33809
#
# Static dielectric constant tensor:
#      x y z
#    x 3.671410 0.000000 0.000000 
#    y 0.000000 3.316860 0.000000 
#    z 0.000000 0.000000 4.153570 
# 
# 
# High freq. dielectric constant tensor:
#      x y z
#    x 1.776660 0.000000 0.000000 
#    y 0.000000 1.732730 0.000000 
#    z 0.000000 0.000000 1.789610 
# 
# From -- ./inp_files/43228.got.cif
#   From: 2010.03.12/outbox.cif.g09.slc.cpg/sg67_22_cif.got.tgz:43228.got - 2010.04.10 22:41:39.
