data_PCOD8278189
_publ_section_title
;
Structure prediction by ZEFSAII (Michael W. Deem and Ramdas Pophale) SiO2 
 PCOD8278189
Probable space group: C M M A
;
_chemical_formula_sum "Si O2"
_cell_formula_units_Z 96
_cell_length_a 10.378618
_cell_length_b 27.263381
_cell_length_c 24.101967
_cell_angle_alpha 90.000000
_cell_angle_beta 90.000000
_cell_angle_gamma 90.000000
_cell_volume 6819.801399
_symmetry_space_group_name_H-M "C M M A"
_symmetry_group_IT_number 67
_symmetry_cell_setting 'orthorhombic'
loop_
_space_group_symop_operation_xyz
x,y,z
-x,1/2-y,z
x,-y,-z
-x,1/2+y,-z
-x,-y,-z
x,1/2+y,-z
-x,y,z
x,1/2-y,z
1/2+x,1/2+y,z
1/2-x,-y,z
1/2+x,1/2-y,-z
1/2-x,y,-z
1/2-x,1/2-y,-z
1/2+x,y,-z
1/2-x,1/2+y,z
1/2+x,-y,z
loop_
_atom_site_type_symbol
_atom_site_label
_atom_site_fract_x
_atom_site_fract_y
_atom_site_fract_z
Si Si1 0.855550 0.691704 0.834148
Si Si2 0.500000 0.807861 0.347779
Si Si3 0.500000 0.113830 0.563669
Si Si4 0.247183 0.808137 0.721072
Si Si5 0.500000 0.613922 0.567449
Si Si6 0.500000 0.308362 0.341709
Si Si7 0.250061 0.445261 0.565689
Si Si8 0.354039 0.691579 0.043150
O O1 0.854581 0.750000 0.833800
O O2 0.763906 0.671691 0.784587
O O3 0.811724 0.673394 0.895207
O O4 0.000000 0.673120 0.821998
O O5 0.500000 0.750000 0.358294
O O6 0.500000 0.833116 0.407829
O O7 0.375105 0.825810 0.314194
O O8 0.500000 0.123901 0.498110
O O9 0.623146 0.083499 0.584666
O O10 0.249216 0.750000 0.722557
O O11 0.377414 0.827340 0.693062
O O12 0.500000 0.666347 0.598071
O O13 0.375685 0.583321 0.586591
O O14 0.500000 0.250000 0.351554
O O15 0.250000 0.500000 0.591495
O O16 0.250000 0.449330 0.500000
O O17 0.500000 0.673475 0.029364
O O18 0.351852 0.750000 0.040525
O O19 0.250000 0.669306 0.000000
#
# Coordination Sequence:
#
# PCOD8278189 Si02
#       8
#    16   8   8  16   8   8  16  16
#     4   8  12  21  36  48  60  84 120 157 191 226
#     4  10  18  28  43  58  75  99 131 168 193 219
#     4  10  19  29  44  65  79  97 130 155 187 243
#     4   9  16  27  39  51  67  93 130 164 193 221
#     4  10  19  31  44  59  83 105 120 151 201 243
#     4  10  20  30  39  54  79 107 129 156 197 239
#     4   9  17  30  47  64  80  97 119 150 189 235
#     4   8  13  20  29  43  63  84 106 140 192 240
#
# _framework density 14.076656
#
# number of rings (size 3 to 8) (size 9 to 14) (size 15 to 20)
#    0.000    3.000    0.833    2.500    0.000    2.333 
#    1.500    0.000    0.000    6.000    0.000    0.000 
#    0.000    0.000    0.000    0.000    0.000    0.000 
#
# Total GULP energy -594825.971282 kJ/mol
# GULP energy per Si atom -12392.207735 kJ/mol
# Density = 1.404462 g / cm^3
# Si number density = 14.076656 Si / 1000 Ang^3
#
#
#
# Elastic Constant Matrix: (Units=GPa)
#
#
# Indices 1 2 3 4 5 6 
#
# 1 121.8471 28.3303 53.3351 0.0000 0.0000 0.0000
# 2 28.3303 37.7780 31.0793 0.0000 0.0000 0.0000
# 3 53.3351 31.0793 93.5210 0.0000 0.0000 0.0000
# 4 0.0000 0.0000 0.0000 1.9779 0.0000 0.0000
# 5 0.0000 0.0000 0.0000 0.0000 14.8587 0.0000
# 6 0.0000 0.0000 0.0000 0.0000 0.0000 6.7015
#
#
#
# Elastic Compliance Matrix: (Units=1/GPa)
#
#
# Indices 1 2 3 4 5 6 
#
# 1 0.011451 -0.004424 -0.005060 0.000000 0.000000 0.000000
# 2 -0.004424 0.038140 -0.010152 0.000000 0.000000 0.000000
# 3 -0.005060 -0.010152 0.016952 0.000000 0.000000 0.000000
# 4 0.000000 0.000000 0.000000 0.505587 0.000000 0.000000
# 5 0.000000 0.000000 0.000000 0.000000 0.067300 0.000000
# 6 0.000000 0.000000 0.000000 0.000000 0.000000 0.149220
#
#
# Mechanical properties :
#
#
# Convention : Reuss Voigt Hill
#
# Bulk Modulus (GPa) = 36.66926 53.18174 44.92550
# Shear Modulus (GPa) = 5.97363 14.06773 10.02068
#
# Velocity S-wave (km/s) = 2.06225 3.16470 2.67097
# Velocity P-wave (km/s) = 5.63708 7.15653 6.44176
#
# Compressibility (1/GPa) = 0.02727080
#
# Stress axis : x y z
#
# Youngs Moduli (GPa) = 87.33230 26.21937 58.98957
#
# Poissons Ratio (x) = 0.11600 0.29849
# Poissons Ratio (y) = 0.38637 0.59884
# Poissons Ratio (z) = 0.44190 0.26617
#
# Static dielectric constant tensor:
#      x y z
#    x 3.068730 0.000000 0.000000 
#    y 0.000000 2.319600 0.000000 
#    z 0.000000 0.000000 2.889630 
# 
# 
# High freq. dielectric constant tensor:
#      x y z
#    x 1.550100 0.000000 0.000000 
#    y 0.000000 1.472370 0.000000 
#    z 0.000000 0.000000 1.527630 
# 
# From -- ./inp_files/38011.got.cif
#   From: 2010.03.12/outbox.cif.g09.slc.cpg/sg67_20_cif.got.tgz:38011.got - 2010.04.10 22:41:39.
