data_PCOD8278417
_publ_section_title
;
Structure prediction by ZEFSAII (Michael W. Deem and Ramdas Pophale) SiO2 
 PCOD8278417
Probable space group: C M M A
;
_chemical_formula_sum "Si O2"
_cell_formula_units_Z 80
_cell_length_a 23.299066
_cell_length_b 8.936799
_cell_length_c 20.115446
_cell_angle_alpha 90.000000
_cell_angle_beta 90.000000
_cell_angle_gamma 90.000000
_cell_volume 4188.419453
_symmetry_space_group_name_H-M "C M M A"
_symmetry_group_IT_number 67
_symmetry_cell_setting 'orthorhombic'
loop_
_space_group_symop_operation_xyz
x,y,z
-x,1/2-y,z
x,-y,-z
-x,1/2+y,-z
-x,-y,-z
x,1/2+y,-z
-x,y,z
x,1/2-y,z
1/2+x,1/2+y,z
1/2-x,-y,z
1/2+x,1/2-y,-z
1/2-x,y,-z
1/2-x,1/2-y,-z
1/2+x,y,-z
1/2-x,1/2+y,z
1/2+x,-y,z
loop_
_atom_site_type_symbol
_atom_site_label
_atom_site_fract_x
_atom_site_fract_y
_atom_site_fract_z
Si Si1 0.065876 0.925877 0.069346
Si Si2 0.625898 0.578906 0.565403
Si Si3 0.000000 0.075200 0.265823
Si Si4 0.811395 0.073386 0.313989
Si Si5 0.500000 0.585563 0.602283
Si Si6 0.611238 0.425832 0.806808
O O1 0.073461 0.750000 0.062630
O O2 0.000000 0.968902 0.088424
O O3 0.111586 0.987734 0.123177
O O4 0.082930 0.000000 0.000000
O O5 0.652599 0.500000 0.500000
O O6 0.647473 0.750000 0.567977
O O7 0.645536 0.494592 0.631868
O O8 0.556994 0.569125 0.558124
O O9 0.943482 0.008010 0.232209
O O10 0.000000 0.250000 0.256035
O O11 0.000000 0.042281 0.343166
O O12 0.807937 0.250000 0.326043
O O13 0.833727 0.038117 0.239242
O O14 0.750000 0.000000 0.323197
O O15 0.500000 0.750000 0.636787
O O16 0.606483 0.250000 0.821158
#
# Coordination Sequence:
#
# PCOD8278417 Si02
#       6
#    16  16   8  16   8  16
#     4  10  20  32  51  82 120 157 189 224 270 328
#     4  11  23  39  59  85 116 150 187 231 283 341
#     4  10  18  31  54  83 113 147 183 227 280 341
#     4  11  24  42  62  84 110 146 192 241 288 336
#     4  10  21  35  55  85 119 149 182 227 278 339
#     4  10  20  35  57  83 114 149 185 228 280 334
#
# _framework density 19.100283999999998
#
# number of rings (size 3 to 8) (size 9 to 14) (size 15 to 20)
#    0.000    1.600    3.000    2.100    0.000    4.400 
#    0.000    2.000    0.000    0.600    0.000    4.200 
#    0.000    0.000    0.000    0.000    0.000    0.000 
#
# Total GULP energy -495965.883513 kJ/mol
# GULP energy per Si atom -12399.147088 kJ/mol
# Density = 1.905681 g / cm^3
# Si number density = 19.100284 Si / 1000 Ang^3
#
#
#
# Elastic Constant Matrix: (Units=GPa)
#
#
# Indices 1 2 3 4 5 6 
#
# 1 71.3689 37.0762 23.8477 0.0000 0.0000 0.0000
# 2 37.0762 100.7439 62.7950 0.0000 0.0000 0.0000
# 3 23.8477 62.7950 128.0138 0.0000 0.0000 0.0000
# 4 0.0000 0.0000 0.0000 37.2675 0.0000 0.0000
# 5 0.0000 0.0000 0.0000 0.0000 15.0319 0.0000
# 6 0.0000 0.0000 0.0000 0.0000 0.0000 22.9022
#
#
#
# Elastic Compliance Matrix: (Units=1/GPa)
#
#
# Indices 1 2 3 4 5 6 
#
# 1 0.017326 -0.006287 -0.000144 0.000000 0.000000 0.000000
# 2 -0.006287 0.016579 -0.006961 0.000000 0.000000 0.000000
# 3 -0.000144 -0.006961 0.011253 0.000000 0.000000 0.000000
# 4 0.000000 0.000000 0.000000 0.026833 0.000000 0.000000
# 5 0.000000 0.000000 0.000000 0.000000 0.066525 0.000000
# 6 0.000000 0.000000 0.000000 0.000000 0.000000 0.043664
#
#
# Mechanical properties :
#
#
# Convention : Reuss Voigt Hill
#
# Bulk Modulus (GPa) = 54.42412 60.84049 57.63231
# Shear Modulus (GPa) = 23.24628 26.80082 25.02355
#
# Velocity S-wave (km/s) = 3.49243 3.74995 3.62348
# Velocity P-wave (km/s) = 6.69466 7.11841 6.90979
#
# Compressibility (1/GPa) = 0.01837420
#
# Stress axis : x y z
#
# Youngs Moduli (GPa) = 57.71781 60.31764 88.86341
#
# Poissons Ratio (x) = 0.37920 0.01278
# Poissons Ratio (y) = 0.36285 0.61861
# Poissons Ratio (z) = 0.00830 0.41989
#
# Static dielectric constant tensor:
#      x y z
#    x 3.348660 0.000000 0.000000 
#    y 0.000000 3.515540 0.000000 
#    z 0.000000 0.000000 3.412060 
# 
# 
# High freq. dielectric constant tensor:
#      x y z
#    x 1.714770 0.000000 0.000000 
#    y 0.000000 1.749760 0.000000 
#    z 0.000000 0.000000 1.744790 
# 
# From -- ./inp_files/35797.got.cif
#   From: 2010.03.12/outbox.cif.g09.slc.cpg/sg67_18_cif.got.tgz:35797.got - 2010.04.10 22:41:39.
