data_PCOD8278423
_publ_section_title
;
Structure prediction by ZEFSAII (Michael W. Deem and Ramdas Pophale) SiO2 
 PCOD8278423
Probable space group: C M M A
;
_chemical_formula_sum "Si O2"
_cell_formula_units_Z 64
_cell_length_a 24.541534
_cell_length_b 8.636852
_cell_length_c 14.685965
_cell_angle_alpha 90.000000
_cell_angle_beta 90.000000
_cell_angle_gamma 90.000000
_cell_volume 3112.860595
_symmetry_space_group_name_H-M "C M M A"
_symmetry_group_IT_number 67
_symmetry_cell_setting 'orthorhombic'
loop_
_space_group_symop_operation_xyz
x,y,z
-x,1/2-y,z
x,-y,-z
-x,1/2+y,-z
-x,-y,-z
x,1/2+y,-z
-x,y,z
x,1/2-y,z
1/2+x,1/2+y,z
1/2-x,-y,z
1/2+x,1/2-y,-z
1/2-x,y,-z
1/2-x,1/2-y,-z
1/2+x,y,-z
1/2-x,1/2+y,z
1/2+x,-y,z
loop_
_atom_site_type_symbol
_atom_site_label
_atom_site_fract_x
_atom_site_fract_y
_atom_site_fract_z
Si Si1 0.690732 0.569132 0.757668
Si Si2 0.109179 0.929511 0.401706
Si Si3 0.110448 0.932919 0.899684
Si Si4 0.000000 0.566249 0.101078
Si Si5 0.500000 0.067412 0.600881
O O1 0.693004 0.750000 0.781482
O O2 0.750000 0.500000 0.745084
O O3 0.660001 0.537905 0.663158
O O4 0.661909 0.480041 0.839825
O O5 0.097098 0.750000 0.415054
O O6 0.122900 0.000000 0.500000
O O7 0.055665 0.005211 0.353600
O O8 0.104874 0.750000 0.905905
O O9 0.055397 0.002631 0.852670
O O10 0.119469 0.000000 0.000000
O O11 0.000000 0.750000 0.102584
O O12 0.000000 0.500000 0.000000
O O13 0.500000 0.250000 0.602167
O O14 0.500000 0.000000 0.500000
#
# Coordination Sequence:
#
# PCOD8278423 Si02
#       5
#    16  16  16   8   8
#     4  11  25  43  61  85 116 154 200 248 292 344
#     4  10  21  38  61  87 119 154 191 237 291 347
#     4  11  22  39  63  90 121 156 194 240 293 350
#     4  10  18  33  58  89 123 155 191 236 288 349
#     4  10  18  31  56  87 119 151 189 234 286 347
#
# _framework density 20.559866
#
# number of rings (size 3 to 8) (size 9 to 14) (size 15 to 20)
#    0.000    1.500    0.000    9.000    0.000    6.000 
#    0.000    6.250    0.000    0.000    0.000    0.000 
#    0.000    0.000    0.000    0.000    0.000    0.000 
#
# Total GULP energy -396817.986209 kJ/mol
# GULP energy per Si atom -12400.562069 kJ/mol
# Density = 2.051307 g / cm^3
# Si number density = 20.559866 Si / 1000 Ang^3
#
#
#
# Elastic Constant Matrix: (Units=GPa)
#
#
# Indices 1 2 3 4 5 6 
#
# 1 180.8162 86.6979 55.4543 0.0000 0.0000 0.0000
# 2 86.6979 203.7361 58.8117 0.0000 0.0000 0.0000
# 3 55.4543 58.8117 80.6088 0.0000 0.0000 0.0000
# 4 0.0000 0.0000 0.0000 28.7436 0.0000 0.0000
# 5 0.0000 0.0000 0.0000 0.0000 67.7106 0.0000
# 6 0.0000 0.0000 0.0000 0.0000 0.0000 35.5523
#
#
#
# Elastic Compliance Matrix: (Units=1/GPa)
#
#
# Indices 1 2 3 4 5 6 
#
# 1 0.007730 -0.002222 -0.003696 0.000000 0.000000 0.000000
# 2 -0.002222 0.006857 -0.003474 0.000000 0.000000 0.000000
# 3 -0.003696 -0.003474 0.017483 0.000000 0.000000 0.000000
# 4 0.000000 0.000000 0.000000 0.034790 0.000000 0.000000
# 5 0.000000 0.000000 0.000000 0.000000 0.014769 0.000000
# 6 0.000000 0.000000 0.000000 0.000000 0.000000 0.028128
#
#
# Mechanical properties :
#
#
# Convention : Reuss Voigt Hill
#
# Bulk Modulus (GPa) = 75.27508 96.34322 85.80915
# Shear Modulus (GPa) = 37.60285 44.01445 40.80865
#
# Velocity S-wave (km/s) = 4.28126 4.63189 4.46002
# Velocity P-wave (km/s) = 7.81863 8.69296 8.26736
#
# Compressibility (1/GPa) = 0.01328461
#
# Stress axis : x y z
#
# Youngs Moduli (GPa) = 129.37294 145.84130 57.19902
#
# Poissons Ratio (x) = 0.32410 0.21142
# Poissons Ratio (y) = 0.28751 0.19870
# Poissons Ratio (z) = 0.47818 0.50663
#
# Static dielectric constant tensor:
#      x y z
#    x 4.303230 0.000000 0.000000 
#    y 0.000000 3.884790 0.000000 
#    z 0.000000 0.000000 3.571040 
# 
# 
# High freq. dielectric constant tensor:
#      x y z
#    x 1.814660 0.000000 0.000000 
#    y 0.000000 1.824490 0.000000 
#    z 0.000000 0.000000 1.792130 
# 
# From -- ./inp_files/29764.got.cif
#   From: 2010.03.12/outbox.cif.g09.slc.cpg/sg67_15_cif.got.tgz:29764.got - 2010.04.10 22:41:39.
