data_PCOD8278836
_publ_section_title
;
Structure prediction by ZEFSAII (Michael W. Deem and Ramdas Pophale) SiO2 
 PCOD8278836
Probable space group: C M M A
;
_chemical_formula_sum "Si O2"
_cell_formula_units_Z 96
_cell_length_a 9.861984
_cell_length_b 24.565732
_cell_length_c 22.536197
_cell_angle_alpha 90.000000
_cell_angle_beta 90.000000
_cell_angle_gamma 90.000000
_cell_volume 5459.773592
_symmetry_space_group_name_H-M "C M M A"
_symmetry_group_IT_number 67
_symmetry_cell_setting 'orthorhombic'
loop_
_space_group_symop_operation_xyz
x,y,z
-x,1/2-y,z
x,-y,-z
-x,1/2+y,-z
-x,-y,-z
x,1/2+y,-z
-x,y,z
x,1/2-y,z
1/2+x,1/2+y,z
1/2-x,-y,z
1/2+x,1/2-y,-z
1/2-x,y,-z
1/2-x,1/2-y,-z
1/2+x,y,-z
1/2-x,1/2+y,z
1/2+x,-y,z
loop_
_atom_site_type_symbol
_atom_site_label
_atom_site_fract_x
_atom_site_fract_y
_atom_site_fract_z
Si Si1 0.500000 0.863526 0.428156
Si Si2 0.768986 0.812088 0.395505
Si Si3 0.155868 0.685509 0.946973
Si Si4 0.227345 0.874055 0.278593
Si Si5 0.500000 0.112982 0.442271
Si Si6 0.000000 0.075465 0.306483
Si Si7 0.845766 0.812725 0.160887
Si Si8 0.000000 0.550827 0.328815
O O1 0.625298 0.822579 0.425697
O O2 0.500000 0.900676 0.487779
O O3 0.500000 0.905782 0.374492
O O4 0.813167 0.750000 0.404277
O O5 0.765916 0.824691 0.325348
O O6 0.870186 0.851204 0.428906
O O7 0.148042 0.750000 0.952929
O O8 0.234066 0.668569 0.887029
O O9 0.000000 0.662345 0.948059
O O10 0.250000 0.661831 0.000000
O O11 0.373221 0.901473 0.270055
O O12 0.172678 0.850649 0.217454
O O13 0.131984 0.921579 0.301968
O O14 0.500000 0.058792 0.400872
O O15 0.000000 0.010889 0.308760
O O16 0.820869 0.750000 0.178597
O O17 0.000000 0.819911 0.136282
#
# Coordination Sequence:
#
# PCOD8278836 Si02
#       8
#     8  16  16  16   8   8  16   8
#     4  10  21  35  48  73  97 125 163 207 253 312
#     4  10  20  33  49  70 100 134 162 199 250 304
#     4   9  17  29  46  72 109 151 188 214 240 281
#     4  10  20  35  51  75 100 128 171 212 255 316
#     4  10  21  33  52  73  95 121 169 209 247 312
#     4  10  22  36  55  70  97 128 160 214 277 316
#     4  10  19  31  50  75 107 144 176 211 251 294
#     4  10  20  38  55  72  93 126 164 216 269 316
#
# _framework density 17.583145999999999
#
# number of rings (size 3 to 8) (size 9 to 14) (size 15 to 20)
#    0.000    2.167    0.833    2.500    1.167    4.333 
#    0.000    0.833    0.000    6.000    0.000    0.000 
#    0.000    4.000    0.000    0.000    0.000    0.000 
#
# Total GULP energy -595072.190901 kJ/mol
# GULP energy per Si atom -12397.337310 kJ/mol
# Density = 1.754313 g / cm^3
# Si number density = 17.583146 Si / 1000 Ang^3
#
#
#
# Elastic Constant Matrix: (Units=GPa)
#
#
# Indices 1 2 3 4 5 6 
#
# 1 128.8764 10.6869 28.8379 0.0000 0.0000 0.0000
# 2 10.6869 51.0445 10.6818 0.0000 0.0000 0.0000
# 3 28.8379 10.6818 88.0710 0.0000 0.0000 0.0000
# 4 0.0000 0.0000 0.0000 11.7574 0.0000 0.0000
# 5 0.0000 0.0000 0.0000 0.0000 33.2980 0.0000
# 6 0.0000 0.0000 0.0000 0.0000 0.0000 -100.5174
#
#
#
# Elastic Compliance Matrix: (Units=1/GPa)
#
#
# Indices 1 2 3 4 5 6 
#
# 1 0.008446 -0.001221 -0.002618 0.000000 0.000000 0.000000
# 2 -0.001221 0.020277 -0.002060 0.000000 0.000000 0.000000
# 3 -0.002618 -0.002060 0.012461 0.000000 0.000000 0.000000
# 4 0.000000 0.000000 0.000000 0.085053 0.000000 0.000000
# 5 0.000000 0.000000 0.000000 0.000000 0.030032 0.000000
# 6 0.000000 0.000000 0.000000 0.000000 0.000000 -0.009949
#
#
# Mechanical properties :
#
#
# Convention : Reuss Voigt Hill
#
# Bulk Modulus (GPa) = 34.02605 40.93391 37.47998
# Shear Modulus (GPa) = 29.77719 3.42660 16.60190
#
# Velocity S-wave (km/s) = 4.11969 1.39751 3.07611
# Velocity P-wave (km/s) = 6.48249 5.09262 5.82913
#
# Compressibility (1/GPa) = 0.02938925
#
# Stress axis : x y z
#
# Youngs Moduli (GPa) = 118.39479 49.31616 80.24776
#
# Poissons Ratio (x) = 0.06019 0.21006
# Poissons Ratio (y) = 0.14451 0.16529
# Poissons Ratio (z) = 0.30991 0.10158
#
# Static dielectric constant tensor:
#      x y z
#    x 3.114290 0.000000 0.000000 
#    y 0.000000 2.844420 0.000000 
#    z 0.000000 0.000000 3.246340 
# 
# 
# High freq. dielectric constant tensor:
#      x y z
#    x 1.706350 0.000000 0.000000 
#    y 0.000000 1.636550 0.000000 
#    z 0.000000 0.000000 1.672500 
# 
# From -- ./inp_files/40863.got.cif
#   From: 2010.03.12/outbox.cif.g09.slc.cpg/sg67_21_cif.got.tgz:40863.got - 2010.04.10 22:41:39.
