data_PCOD8278427
_publ_section_title
;
Structure prediction by ZEFSAII (Michael W. Deem and Ramdas Pophale) SiO2 
 PCOD8278427
Probable space group: C M M A
;
_chemical_formula_sum "Si O2"
_cell_formula_units_Z 96
_cell_length_a 9.438193
_cell_length_b 23.486130
_cell_length_c 24.794618
_cell_angle_alpha 90.000000
_cell_angle_beta 90.000000
_cell_angle_gamma 90.000000
_cell_volume 5496.139359
_symmetry_space_group_name_H-M "C M M A"
_symmetry_group_IT_number 67
_symmetry_cell_setting 'orthorhombic'
loop_
_space_group_symop_operation_xyz
x,y,z
-x,1/2-y,z
x,-y,-z
-x,1/2+y,-z
-x,-y,-z
x,1/2+y,-z
-x,y,z
x,1/2-y,z
1/2+x,1/2+y,z
1/2-x,-y,z
1/2+x,1/2-y,-z
1/2-x,y,-z
1/2-x,1/2-y,-z
1/2+x,y,-z
1/2-x,1/2+y,z
1/2+x,-y,z
loop_
_atom_site_type_symbol
_atom_site_label
_atom_site_fract_x
_atom_site_fract_y
_atom_site_fract_z
Si Si1 0.157463 0.368663 0.141821
Si Si2 0.835106 0.057751 0.244797
Si Si3 0.833960 0.750000 0.292070
Si Si4 0.838110 0.853080 0.665095
Si Si5 0.661073 0.684938 0.449620
Si Si6 0.850853 0.250000 0.195334
Si Si7 0.164732 0.815037 0.054998
O O1 0.213168 0.405951 0.192435
O O2 0.144739 0.304012 0.158181
O O3 0.272136 0.365140 0.093725
O O4 0.000000 0.390113 0.123185
O O5 0.801860 0.090335 0.301010
O O6 0.000000 0.043540 0.240732
O O7 0.750000 0.000000 0.245690
O O8 0.771905 0.805819 0.318278
O O9 0.791739 0.750000 0.229696
O O10 0.000000 0.750000 0.299097
O O11 0.817454 0.858749 0.600486
O O12 0.000000 0.834282 0.677757
O O13 0.500000 0.684645 0.468788
O O14 0.705959 0.750000 0.433634
O O15 0.750000 0.661770 0.500000
O O16 0.000000 0.250000 0.230010
O O17 0.180041 0.750000 0.077765
O O18 0.000000 0.829312 0.045170
O O19 0.250000 0.820007 0.000000
#
# Coordination Sequence:
#
# PCOD8278427 Si02
#       7
#    16  16   8  16  16   8  16
#     4  10  19  33  55  77 102 140 175 210 257 315
#     4  10  22  38  57  77 101 136 180 223 267 316
#     4  12  22  28  45  80 111 134 167 219 265 305
#     4  10  19  36  55  72 102 147 180 204 257 327
#     4   9  17  29  49  74 105 139 171 208 251 310
#     4  10  18  32  51  72 105 142 173 203 255 331
#     4  10  20  32  49  77 113 146 175 210 253 306
#
# _framework density 17.466805999999998
#
# number of rings (size 3 to 8) (size 9 to 14) (size 15 to 20)
#    0.000    2.000    3.333    1.250    0.000    3.333 
#    0.000    0.000    0.000    1.000    0.000    7.000 
#    0.000    0.000    0.000    0.000    0.000    0.000 
#
# Total GULP energy -594727.820654 kJ/mol
# GULP energy per Si atom -12390.162930 kJ/mol
# Density = 1.742705 g / cm^3
# Si number density = 17.466806 Si / 1000 Ang^3
#
#
#
# Elastic Constant Matrix: (Units=GPa)
#
#
# Indices 1 2 3 4 5 6 
#
# 1 106.5874 45.5489 55.2601 0.0000 0.0000 0.0000
# 2 45.5489 81.6414 42.0044 0.0000 0.0000 0.0000
# 3 55.2601 42.0044 106.1574 0.0000 0.0000 0.0000
# 4 0.0000 0.0000 0.0000 4.5915 0.0000 0.0000
# 5 0.0000 0.0000 0.0000 0.0000 29.9728 0.0000
# 6 0.0000 0.0000 0.0000 0.0000 0.0000 236.0519
#
#
#
# Elastic Compliance Matrix: (Units=1/GPa)
#
#
# Indices 1 2 3 4 5 6 
#
# 1 0.014452 -0.005264 -0.005440 0.000000 0.000000 0.000000
# 2 -0.005264 0.017297 -0.004104 0.000000 0.000000 0.000000
# 3 -0.005440 -0.004104 0.013876 0.000000 0.000000 0.000000
# 4 0.000000 0.000000 0.000000 0.217795 0.000000 0.000000
# 5 0.000000 0.000000 0.000000 0.000000 0.033364 0.000000
# 6 0.000000 0.000000 0.000000 0.000000 0.000000 0.004236
#
#
# Mechanical properties :
#
#
# Convention : Reuss Voigt Hill
#
# Bulk Modulus (GPa) = 62.46652 64.44589 63.45621
# Shear Modulus (GPa) = 14.88220 64.22808 39.55514
#
# Velocity S-wave (km/s) = 2.92212 6.07053 4.76393
# Velocity P-wave (km/s) = 6.87209 9.27962 8.16508
#
# Compressibility (1/GPa) = 0.01600857
#
# Stress axis : x y z
#
# Youngs Moduli (GPa) = 69.19525 57.81338 72.06892
#
# Poissons Ratio (x) = 0.30433 0.39206
# Poissons Ratio (y) = 0.36425 0.29577
# Poissons Ratio (z) = 0.37642 0.23726
#
# Static dielectric constant tensor:
#      x y z
#    x 3.458890 0.000000 0.000000 
#    y 0.000000 2.913740 0.000000 
#    z 0.000000 0.000000 3.365050 
# 
# 
# High freq. dielectric constant tensor:
#      x y z
#    x 1.678870 0.000000 0.000000 
#    y 0.000000 1.629890 0.000000 
#    z 0.000000 0.000000 1.677080 
# 
# From -- ./inp_files/43682.got.cif
#   From: 2010.03.12/outbox.cif.g09.slc.cpg/sg67_22_cif.got.tgz:43682.got - 2010.04.10 22:41:39.
