data_PCOD8278621
_publ_section_title
;
Structure prediction by ZEFSAII (Michael W. Deem and Ramdas Pophale) SiO2 
 PCOD8278621
Probable space group: C M M A
;
_chemical_formula_sum "Si O2"
_cell_formula_units_Z 96
_cell_length_a 27.287627
_cell_length_b 8.903715
_cell_length_c 23.789945
_cell_angle_alpha 90.000000
_cell_angle_beta 90.000000
_cell_angle_gamma 90.000000
_cell_volume 5780.034866
_symmetry_space_group_name_H-M "C M M A"
_symmetry_group_IT_number 67
_symmetry_cell_setting 'orthorhombic'
loop_
_space_group_symop_operation_xyz
x,y,z
-x,1/2-y,z
x,-y,-z
-x,1/2+y,-z
-x,-y,-z
x,1/2+y,-z
-x,y,z
x,1/2-y,z
1/2+x,1/2+y,z
1/2-x,-y,z
1/2+x,1/2-y,-z
1/2-x,y,-z
1/2-x,1/2-y,-z
1/2+x,y,-z
1/2-x,1/2+y,z
1/2+x,-y,z
loop_
_atom_site_type_symbol
_atom_site_label
_atom_site_fract_x
_atom_site_fract_y
_atom_site_fract_z
Si Si1 0.555792 0.424881 0.113729
Si Si2 0.557243 0.074560 0.669501
Si Si3 0.390126 0.925738 0.772938
Si Si4 0.197864 0.427375 0.169182
Si Si5 0.143081 0.426161 0.056936
Si Si6 0.441777 0.080801 0.444614
O O1 0.500000 0.477461 0.106295
O O2 0.562470 0.250000 0.100396
O O3 0.571812 0.461679 0.177238
O O4 0.588268 0.516714 0.069576
O O5 0.500000 0.041186 0.678572
O O6 0.568881 0.250000 0.673295
O O7 0.587341 0.986185 0.715893
O O8 0.575212 0.013832 0.609352
O O9 0.379748 0.750000 0.767407
O O10 0.339048 0.009317 0.784177
O O11 0.201364 0.250000 0.175649
O O12 0.250000 0.500000 0.180244
O O13 0.179224 0.474330 0.107200
O O14 0.141402 0.250000 0.048657
O O15 0.163436 0.500000 0.000000
O O16 0.500000 0.084989 0.448169
O O17 0.420853 0.250000 0.440877
O O18 0.420201 0.000000 0.500000
#
# Coordination Sequence:
#
# PCOD8278621 Si02
#       6
#    16  16  16  16  16  16
#     4   9  18  32  49  68  92 123 156 189 227 271
#     4  10  19  29  43  66  97 132 167 201 236 276
#     4  10  19  32  50  71  95 122 155 195 236 280
#     4  10  21  37  55  74  94 118 148 185 234 286
#     4  10  21  35  51  71  94 119 150 187 226 273
#     4   9  16  26  40  59  87 125 167 206 241 277
#
# _framework density 16.608895
#
# number of rings (size 3 to 8) (size 9 to 14) (size 15 to 20)
#    0.000    2.333    0.000    3.000    0.000    7.333 
#    0.000    1.667    0.000    0.000    0.000    0.000 
#    0.000    0.667    0.000    6.667    0.000    4.333 
#
# Total GULP energy -595337.803672 kJ/mol
# GULP energy per Si atom -12402.870910 kJ/mol
# Density = 1.657109 g / cm^3
# Si number density = 16.608895 Si / 1000 Ang^3
#
#
#
# Elastic Constant Matrix: (Units=GPa)
#
#
# Indices 1 2 3 4 5 6 
#
# 1 64.0479 26.0705 17.9333 0.0000 0.0000 0.0000
# 2 26.0705 70.5835 30.0166 0.0000 0.0000 0.0000
# 3 17.9333 30.0166 92.7853 0.0000 0.0000 0.0000
# 4 0.0000 0.0000 0.0000 34.0928 0.0000 0.0000
# 5 0.0000 0.0000 0.0000 0.0000 2.2544 0.0000
# 6 0.0000 0.0000 0.0000 0.0000 0.0000 24.9349
#
#
#
# Elastic Compliance Matrix: (Units=1/GPa)
#
#
# Indices 1 2 3 4 5 6 
#
# 1 0.018576 -0.006185 -0.001589 0.000000 0.000000 0.000000
# 2 -0.006185 0.018487 -0.004785 0.000000 0.000000 0.000000
# 3 -0.001589 -0.004785 0.012633 0.000000 0.000000 0.000000
# 4 0.000000 0.000000 0.000000 0.029332 0.000000 0.000000
# 5 0.000000 0.000000 0.000000 0.000000 0.443568 0.000000
# 6 0.000000 0.000000 0.000000 0.000000 0.000000 0.040104
#
#
# Mechanical properties :
#
#
# Convention : Reuss Voigt Hill
#
# Bulk Modulus (GPa) = 40.68964 41.71749 41.20357
# Shear Modulus (GPa) = 8.38910 22.48284 15.43597
#
# Velocity S-wave (km/s) = 2.24987 3.68321 3.05188
# Velocity P-wave (km/s) = 5.59474 6.57724 6.10579
#
# Compressibility (1/GPa) = 0.02457628
#
# Stress axis : x y z
#
# Youngs Moduli (GPa) = 53.83278 54.09159 79.15901
#
# Poissons Ratio (x) = 0.33457 0.12581
# Poissons Ratio (y) = 0.33297 0.37879
# Poissons Ratio (z) = 0.08556 0.25884
#
# Static dielectric constant tensor:
#      x y z
#    x 2.894420 0.000000 0.000000 
#    y 0.000000 3.257560 0.000000 
#    z 0.000000 0.000000 3.163680 
# 
# 
# High freq. dielectric constant tensor:
#      x y z
#    x 1.603260 0.000000 0.000000 
#    y 0.000000 1.657320 0.000000 
#    z 0.000000 0.000000 1.638450 
# 
# From -- ./inp_files/37123.got.cif
#   From: 2010.03.12/outbox.cif.g09.slc.cpg/sg67_19_cif.got.tgz:37123.got - 2010.04.10 22:41:39.
