data_PCOD8278164
_publ_section_title
;
Structure prediction by ZEFSAII (Michael W. Deem and Ramdas Pophale) SiO2 
 PCOD8278164
Probable space group: C M M A
;
_chemical_formula_sum "Si O2"
_cell_formula_units_Z 120
_cell_length_a 25.569899
_cell_length_b 24.447591
_cell_length_c 11.156754
_cell_angle_alpha 90.000000
_cell_angle_beta 90.000000
_cell_angle_gamma 90.000000
_cell_volume 6974.337201
_symmetry_space_group_name_H-M "C M M A"
_symmetry_group_IT_number 67
_symmetry_cell_setting 'orthorhombic'
loop_
_space_group_symop_operation_xyz
x,y,z
-x,1/2-y,z
x,-y,-z
-x,1/2+y,-z
-x,-y,-z
x,1/2+y,-z
-x,y,z
x,1/2-y,z
1/2+x,1/2+y,z
1/2-x,-y,z
1/2+x,1/2-y,-z
1/2-x,y,-z
1/2-x,1/2-y,-z
1/2+x,y,-z
1/2-x,1/2+y,z
1/2+x,-y,z
loop_
_atom_site_type_symbol
_atom_site_label
_atom_site_fract_x
_atom_site_fract_y
_atom_site_fract_z
Si Si1 0.806860 0.524876 0.773490
Si Si2 0.880332 0.812796 0.218639
Si Si3 0.613832 0.464569 0.390846
Si Si4 0.124916 0.500000 0.000000
Si Si5 0.721490 0.860584 0.327593
Si Si6 0.773009 0.312288 0.883067
Si Si7 0.168282 0.142972 0.560086
Si Si8 0.060542 0.421013 0.835314
O O1 0.750000 0.500000 0.797938
O O2 0.835124 0.491508 0.668332
O O3 0.804333 0.586836 0.731038
O O4 0.839186 0.524781 0.896221
O O5 0.896944 0.750000 0.186743
O O6 0.829784 0.836467 0.147976
O O7 0.862923 0.812713 0.359255
O O8 0.924463 0.856772 0.183851
O O9 0.589824 0.500000 0.500000
O O10 0.630764 0.408615 0.453181
O O11 0.570766 0.453977 0.288120
O O12 0.090210 0.450309 0.945655
O O13 0.731237 0.815998 0.224415
O O14 0.777566 0.876926 0.381300
O O15 0.682494 0.834350 0.427313
O O16 0.783435 0.250000 0.914610
O O17 0.750000 0.343145 0.000000
O O18 0.000000 0.422904 0.866985
#
# Coordination Sequence:
#
# PCOD8278164 Si02
#       8
#    16  16  16   8  16  16  16  16
#     4  11  20  29  46  76 108 142 169 201 239 307
#     4   9  19  35  54  77 103 132 171 219 265 316
#     4  10  18  31  49  73 105 133 166 201 259 308
#     4  10  24  36  50  74 106 142 174 212 272 314
#     4  10  18  26  47  69 101 143 173 197 234 295
#     4   9  19  32  46  68 104 140 167 203 245 295
#     4   9  17  29  44  73 104 137 165 201 246 293
#     4  10  22  39  56  74  98 131 176 229 279 318
#
# _framework density 17.205936000000001
#
# number of rings (size 3 to 8) (size 9 to 14) (size 15 to 20)
#    0.000    2.267    2.667    0.400    3.733    1.333 
#    0.000    2.667    0.000    0.000    0.000    0.000 
#    0.000    0.000    0.000    0.000    0.000    0.000 
#
# Total GULP energy -743456.066436 kJ/mol
# GULP energy per Si atom -12390.934441 kJ/mol
# Density = 1.716677 g / cm^3
# Si number density = 17.205936 Si / 1000 Ang^3
#
#
#
# Elastic Constant Matrix: (Units=GPa)
#
#
# Indices 1 2 3 4 5 6 
#
# 1 75.3247 25.2625 33.3935 0.0000 0.0000 0.0000
# 2 25.2625 63.3309 21.6472 0.0000 0.0000 0.0000
# 3 33.3935 21.6472 101.5657 0.0000 0.0000 0.0000
# 4 0.0000 0.0000 0.0000 21.2556 0.0000 0.0000
# 5 0.0000 0.0000 0.0000 0.0000 13.1124 0.0000
# 6 0.0000 0.0000 0.0000 0.0000 0.0000 17.7611
#
#
#
# Elastic Compliance Matrix: (Units=1/GPa)
#
#
# Indices 1 2 3 4 5 6 
#
# 1 0.017025 -0.005261 -0.004476 0.000000 0.000000 0.000000
# 2 -0.005261 0.018657 -0.002247 0.000000 0.000000 0.000000
# 3 -0.004476 -0.002247 0.011796 0.000000 0.000000 0.000000
# 4 0.000000 0.000000 0.000000 0.047046 0.000000 0.000000
# 5 0.000000 0.000000 0.000000 0.000000 0.076264 0.000000
# 6 0.000000 0.000000 0.000000 0.000000 0.000000 0.056303
#
#
# Mechanical properties :
#
#
# Convention : Reuss Voigt Hill
#
# Bulk Modulus (GPa) = 42.53515 44.53643 43.53579
# Shear Modulus (GPa) = 19.31281 21.08701 20.19991
#
# Velocity S-wave (km/s) = 3.35393 3.50461 3.43010
# Velocity P-wave (km/s) = 6.30661 6.50514 6.40665
#
# Compressibility (1/GPa) = 0.02350997
#
# Stress axis : x y z
#
# Youngs Moduli (GPa) = 58.73800 53.60019 84.77169
#
# Poissons Ratio (x) = 0.28200 0.37945
# Poissons Ratio (y) = 0.30903 0.19045
# Poissons Ratio (z) = 0.26292 0.12042
#
# Static dielectric constant tensor:
#      x y z
#    x 2.958930 0.000000 0.000000 
#    y 0.000000 3.077050 0.000000 
#    z 0.000000 0.000000 3.534410 
# 
# 
# High freq. dielectric constant tensor:
#      x y z
#    x 1.631360 0.000000 0.000000 
#    y 0.000000 1.654600 0.000000 
#    z 0.000000 0.000000 1.672510 
# 
# From -- ./inp_files/22335.got.cif
#   From: 2010.03.12/outbox.cif.g09.slc.cpg/sg67_12_cif.got.tgz:22335.got - 2010.04.10 22:41:39.
