data_PCOD8278599
_publ_section_title
;
Structure prediction by ZEFSAII (Michael W. Deem and Ramdas Pophale) SiO2 
 PCOD8278599
Probable space group: C M M A
;
_chemical_formula_sum "Si O2"
_cell_formula_units_Z 80
_cell_length_a 10.338077
_cell_length_b 27.668313
_cell_length_c 19.867770
_cell_angle_alpha 90.000000
_cell_angle_beta 90.000000
_cell_angle_gamma 90.000000
_cell_volume 5682.920313
_symmetry_space_group_name_H-M "C M M A"
_symmetry_group_IT_number 67
_symmetry_cell_setting 'orthorhombic'
loop_
_space_group_symop_operation_xyz
x,y,z
-x,1/2-y,z
x,-y,-z
-x,1/2+y,-z
-x,-y,-z
x,1/2+y,-z
-x,y,z
x,1/2-y,z
1/2+x,1/2+y,z
1/2-x,-y,z
1/2+x,1/2-y,-z
1/2-x,y,-z
1/2-x,1/2-y,-z
1/2+x,y,-z
1/2-x,1/2+y,z
1/2+x,-y,z
loop_
_atom_site_type_symbol
_atom_site_label
_atom_site_fract_x
_atom_site_fract_y
_atom_site_fract_z
Si Si1 0.147020 0.806504 0.308073
Si Si2 0.644526 0.307489 0.948696
Si Si3 0.361877 0.027692 0.428973
Si Si4 0.855517 0.307377 0.201896
Si Si5 0.851925 0.139545 0.553912
O O1 0.170010 0.750000 0.321118
O O2 0.246139 0.827509 0.252395
O O3 0.176771 0.834069 0.376573
O O4 0.000000 0.816227 0.283580
O O5 0.500000 0.323700 0.970795
O O6 0.653213 0.250000 0.949346
O O7 0.674277 0.326674 0.873359
O O8 0.750000 0.329896 0.000000
O O9 0.500000 0.023785 0.391181
O O10 0.323892 0.083040 0.437994
O O11 0.371895 0.000000 0.500000
O O12 0.250000 0.000000 0.386209
O O13 0.849398 0.250000 0.201236
O O14 0.000000 0.324123 0.224415
O O15 0.750000 0.160785 0.500000
O O16 0.000000 0.148831 0.530039
#
# Coordination Sequence:
#
# PCOD8278599 Si02
#       5
#    16  16  16  16  16
#     4   9  18  30  40  51  70  97 127 157 188 220
#     4   8  13  20  31  49  70  89 113 148 185 216
#     4   9  15  25  41  58  73  89 108 137 179 226
#     4   8  14  25  38  50  67  93 124 155 184 216
#     4  10  19  29  41  57  74  91 118 155 189 225
#
# _framework density 14.077268999999999
#
# number of rings (size 3 to 8) (size 9 to 14) (size 15 to 20)
#    0.000    3.200    2.000    1.200    0.000    2.000 
#    0.000    4.000    0.000    0.000    0.000    0.000 
#    0.000    0.000    0.000    0.000    0.000    1.000 
#
# Total GULP energy -495522.470980 kJ/mol
# GULP energy per Si atom -12388.061775 kJ/mol
# Density = 1.404523 g / cm^3
# Si number density = 14.077269 Si / 1000 Ang^3
#
#
#
# Elastic Constant Matrix: (Units=GPa)
#
#
# Indices 1 2 3 4 5 6 
#
# 1 138.4227 21.5923 78.7038 0.0000 0.0000 0.0000
# 2 21.5923 26.7930 24.1274 0.0000 0.0000 0.0000
# 3 78.7038 24.1274 88.0945 0.0000 0.0000 0.0000
# 4 0.0000 0.0000 0.0000 -0.6626 0.0000 0.0000
# 5 0.0000 0.0000 0.0000 0.0000 29.2764 0.0000
# 6 0.0000 0.0000 0.0000 0.0000 0.0000 13.1213
#
#
#
# Elastic Compliance Matrix: (Units=1/GPa)
#
#
# Indices 1 2 3 4 5 6 
#
# 1 0.014682 -0.000027 -0.013110 0.000000 0.000000 0.000000
# 2 -0.000027 0.049542 -0.013545 0.000000 0.000000 0.000000
# 3 -0.013110 -0.013545 0.026774 0.000000 0.000000 0.000000
# 4 0.000000 0.000000 0.000000 -1.509294 0.000000 0.000000
# 5 0.000000 0.000000 0.000000 0.000000 0.034157 0.000000
# 6 0.000000 0.000000 0.000000 0.000000 0.000000 0.076212
#
#
# Mechanical properties :
#
#
# Convention : Reuss Voigt Hill
#
# Bulk Modulus (GPa) = 26.57094 55.79524 41.18309
# Shear Modulus (GPa) = -4.02570 16.93948 6.45689
#
# Velocity S-wave (km/s) = -1.69291 3.47266 2.14399
# Velocity P-wave (km/s) = 3.88520 7.46995 5.95378
#
# Compressibility (1/GPa) = 0.03763510
#
# Stress axis : x y z
#
# Youngs Moduli (GPa) = 68.10845 20.18489 37.35023
#
# Poissons Ratio (x) = 0.00054 0.48966
# Poissons Ratio (y) = 0.00182 0.50590
# Poissons Ratio (z) = 0.89290 0.27340
#
# Static dielectric constant tensor:
#      x y z
#    x 3.866900 0.000000 0.000000 
#    y 0.000000 2.421520 0.000000 
#    z 0.000000 0.000000 2.724680 
# 
# 
# High freq. dielectric constant tensor:
#      x y z
#    x 1.562580 0.000000 0.000000 
#    y 0.000000 1.483940 0.000000 
#    z 0.000000 0.000000 1.508950 
# 
# From -- ./inp_files/26086.got.cif
#   From: 2010.03.12/outbox.cif.g09.slc.cpg/sg67_14_cif.got.tgz:26086.got - 2010.04.10 22:41:39.
