data_PCOD8278076
_publ_section_title
;
Structure prediction by ZEFSAII (Michael W. Deem and Ramdas Pophale) SiO2 
 PCOD8278076
Probable space group: C M M A
;
_chemical_formula_sum "Si O2"
_cell_formula_units_Z 68
_cell_length_a 19.476664
_cell_length_b 21.575317
_cell_length_c 10.021574
_cell_angle_alpha 90.000000
_cell_angle_beta 90.000000
_cell_angle_gamma 90.000000
_cell_volume 4211.217722
_symmetry_space_group_name_H-M "C M M A"
_symmetry_group_IT_number 67
_symmetry_cell_setting 'orthorhombic'
loop_
_space_group_symop_operation_xyz
x,y,z
-x,1/2-y,z
x,-y,-z
-x,1/2+y,-z
-x,-y,-z
x,1/2+y,-z
-x,y,z
x,1/2-y,z
1/2+x,1/2+y,z
1/2-x,-y,z
1/2+x,1/2-y,-z
1/2-x,y,-z
1/2-x,1/2-y,-z
1/2+x,y,-z
1/2-x,1/2+y,z
1/2+x,-y,z
loop_
_atom_site_type_symbol
_atom_site_label
_atom_site_fract_x
_atom_site_fract_y
_atom_site_fract_z
Si Si1 0.074913 0.823591 0.024813
Si Si2 0.250000 0.000000 0.500000
Si Si3 0.286028 0.320751 0.141851
Si Si4 0.077638 0.677886 0.724197
Si Si5 0.707662 0.618672 0.377945
O O1 0.075661 0.750000 0.014609
O O2 0.086953 0.848378 0.874376
O O3 0.000000 0.846451 0.077565
O O4 0.135360 0.845150 0.124274
O O5 0.295812 0.955703 0.403675
O O6 0.283837 0.250000 0.195762
O O7 0.247554 0.366229 0.241942
O O8 0.250000 0.324083 0.000000
O O9 0.096454 0.750000 0.719812
O O10 0.129761 0.642835 0.625968
O O11 0.000000 0.666340 0.673845
O O12 0.750000 0.650465 0.500000
#
# Coordination Sequence:
#
# PCOD8278076 Si02
#       5
#    16   4  16  16  16
#     4   8  14  25  43  73 111 134 149 187 248 321
#     4   8  24  40  50  64  96 140 204 222 236 284
#     4  10  17  27  50  82 103 124 162 206 268 327
#     4   9  16  28  51  82 108 132 161 198 262 333
#     4  10  20  36  52  67 105 138 180 221 248 287
#
# _framework density 16.147348999999998
#
# number of rings (size 3 to 8) (size 9 to 14) (size 15 to 20)
#    0.706    2.118    2.353    2.118    0.000    1.882 
#    0.000    2.353    0.000    2.824    0.000    3.294 
#    0.000    0.000    0.000    0.000    0.000    0.000 
#
# Total GULP energy -421229.622254 kJ/mol
# GULP energy per Si atom -12389.106537 kJ/mol
# Density = 1.611060 g / cm^3
# Si number density = 16.147349 Si / 1000 Ang^3
#
#
#
# Elastic Constant Matrix: (Units=GPa)
#
#
# Indices 1 2 3 4 5 6 
#
# 1 137.7188 45.0868 39.7962 0.0000 0.0000 0.0000
# 2 45.0868 68.5657 32.8293 0.0000 0.0000 0.0000
# 3 39.7962 32.8293 58.2287 0.0000 0.0000 0.0000
# 4 0.0000 0.0000 0.0000 12.8645 0.0000 0.0000
# 5 0.0000 0.0000 0.0000 0.0000 24.4204 0.0000
# 6 0.0000 0.0000 0.0000 0.0000 0.0000 12.4199
#
#
#
# Elastic Compliance Matrix: (Units=1/GPa)
#
#
# Indices 1 2 3 4 5 6 
#
# 1 0.009973 -0.004513 -0.004272 0.000000 0.000000 0.000000
# 2 -0.004513 0.022019 -0.009330 0.000000 0.000000 0.000000
# 3 -0.004272 -0.009330 0.025354 0.000000 0.000000 0.000000
# 4 0.000000 0.000000 0.000000 0.077734 0.000000 0.000000
# 5 0.000000 0.000000 0.000000 0.000000 0.040949 0.000000
# 6 0.000000 0.000000 0.000000 0.000000 0.000000 0.080516
#
#
# Mechanical properties :
#
#
# Convention : Reuss Voigt Hill
#
# Bulk Modulus (GPa) = 47.35650 55.54866 51.45258
# Shear Modulus (GPa) = 16.67707 19.72767 18.20237
#
# Velocity S-wave (km/s) = 3.21722 3.49911 3.36112
# Velocity P-wave (km/s) = 6.57206 7.12747 6.85539
#
# Compressibility (1/GPa) = 0.02111643
#
# Stress axis : x y z
#
# Youngs Moduli (GPa) = 100.27159 45.41471 39.44209
#
# Poissons Ratio (x) = 0.20494 0.16849
# Poissons Ratio (y) = 0.45248 0.36801
# Poissons Ratio (z) = 0.42834 0.42374
#
# Static dielectric constant tensor:
#      x y z
#    x 3.582640 0.000000 0.000000 
#    y 0.000000 2.611870 0.000000 
#    z 0.000000 0.000000 2.915130 
# 
# 
# High freq. dielectric constant tensor:
#      x y z
#    x 1.637730 0.000000 0.000000 
#    y 0.000000 1.566090 0.000000 
#    z 0.000000 0.000000 1.601520 
# 
# From -- ./inp_files/9832.got.cif
#   From: 2010.03.12/outbox.cif.g09.slc.cpg/sg67_5_cif.got.tgz:9832.got - 2010.04.10 22:41:39.
