data_PCOD8278581
_publ_section_title
;
Structure prediction by ZEFSAII (Michael W. Deem and Ramdas Pophale) SiO2 
 PCOD8278581
Probable space group: C M M A
;
_chemical_formula_sum "Si O2"
_cell_formula_units_Z 88
_cell_length_a 14.585804
_cell_length_b 24.199679
_cell_length_c 11.902388
_cell_angle_alpha 90.000000
_cell_angle_beta 90.000000
_cell_angle_gamma 90.000000
_cell_volume 4201.207016
_symmetry_space_group_name_H-M "C M M A"
_symmetry_group_IT_number 67
_symmetry_cell_setting 'orthorhombic'
loop_
_space_group_symop_operation_xyz
x,y,z
-x,1/2-y,z
x,-y,-z
-x,1/2+y,-z
-x,-y,-z
x,1/2+y,-z
-x,y,z
x,1/2-y,z
1/2+x,1/2+y,z
1/2-x,-y,z
1/2+x,1/2-y,-z
1/2-x,y,-z
1/2-x,1/2-y,-z
1/2+x,y,-z
1/2-x,1/2+y,z
1/2+x,-y,z
loop_
_atom_site_type_symbol
_atom_site_label
_atom_site_fract_x
_atom_site_fract_y
_atom_site_fract_z
Si Si1 0.500000 0.187735 0.738875
Si Si2 0.500000 0.141159 0.972313
Si Si3 0.641474 0.883482 0.387457
Si Si4 0.144878 0.884231 0.355135
Si Si5 0.349121 0.994394 0.307539
Si Si6 0.847518 0.448246 0.058645
Si Si7 0.000000 0.815412 0.222716
O O1 0.500000 0.250000 0.696690
O O2 0.500000 0.186463 0.874002
O O3 0.590145 0.159106 0.691198
O O4 0.408999 0.105251 0.955726
O O5 0.500000 0.171543 0.090872
O O6 0.745692 0.881061 0.340996
O O7 0.624514 0.868083 0.516438
O O8 0.599405 0.945879 0.376107
O O9 0.092297 0.840185 0.277976
O O10 0.105008 0.944936 0.317072
O O11 0.335149 0.967970 0.185279
O O12 0.250000 0.000000 0.365840
O O13 0.897661 0.500000 0.000000
O O14 0.750000 0.436036 0.000000
O O15 0.000000 0.750000 0.241572
#
# Coordination Sequence:
#
# PCOD8278581 Si02
#       7
#     8   8  16  16  16  16   8
#     4  12  26  44  65  91 123 169 223 275 313 363
#     4  12  26  42  63  89 123 168 218 261 320 376
#     4  10  22  42  67  97 131 167 206 258 318 383
#     4  10  23  42  67  97 129 168 209 255 320 381
#     4  10  18  36  65  99 133 161 198 250 317 385
#     4  11  21  36  61  95 131 168 202 249 312 385
#     4  12  28  46  64  87 125 171 221 273 316 367
#
# _framework density 20.946362000000001
#
# number of rings (size 3 to 8) (size 9 to 14) (size 15 to 20)
#    0.000    1.273    3.636    2.727    2.545    5.818 
#    0.000    3.636    0.000    3.273    0.000    0.000 
#    0.000    0.000    0.000    0.000    0.000    0.000 
#
# Total GULP energy -545231.117423 kJ/mol
# GULP energy per Si atom -12391.616305 kJ/mol
# Density = 2.089869 g / cm^3
# Si number density = 20.946362 Si / 1000 Ang^3
#
#
#
# Elastic Constant Matrix: (Units=GPa)
#
#
# Indices 1 2 3 4 5 6 
#
# 1 95.5614 53.7611 44.4563 0.0000 0.0000 0.0000
# 2 53.7611 169.8481 53.7938 0.0000 0.0000 0.0000
# 3 44.4563 53.7938 139.1673 0.0000 0.0000 0.0000
# 4 0.0000 0.0000 0.0000 18.4541 0.0000 0.0000
# 5 0.0000 0.0000 0.0000 0.0000 45.4156 0.0000
# 6 0.0000 0.0000 0.0000 0.0000 0.0000 1.1116
#
#
#
# Elastic Compliance Matrix: (Units=1/GPa)
#
#
# Indices 1 2 3 4 5 6 
#
# 1 0.013815 -0.003390 -0.003103 0.000000 0.000000 0.000000
# 2 -0.003390 0.007541 -0.001832 0.000000 0.000000 0.000000
# 3 -0.003103 -0.001832 0.008885 0.000000 0.000000 0.000000
# 4 0.000000 0.000000 0.000000 0.054188 0.000000 0.000000
# 5 0.000000 0.000000 0.000000 0.000000 0.022019 0.000000
# 6 0.000000 0.000000 0.000000 0.000000 0.000000 0.899567
#
#
# Mechanical properties :
#
#
# Convention : Reuss Voigt Hill
#
# Bulk Modulus (GPa) = 73.57645 78.73324 76.15484
# Shear Modulus (GPa) = 4.86762 29.83399 17.35081
#
# Velocity S-wave (km/s) = 1.52607 3.77809 2.88122
# Velocity P-wave (km/s) = 6.18931 7.53004 6.89236
#
# Compressibility (1/GPa) = 0.01359131
#
# Stress axis : x y z
#
# Youngs Moduli (GPa) = 72.38434 132.61078 112.55108
#
# Poissons Ratio (x) = 0.44957 0.34922
# Poissons Ratio (y) = 0.24539 0.20618
# Poissons Ratio (z) = 0.22459 0.24293
#
# Static dielectric constant tensor:
#      x y z
#    x 3.343740 0.000000 0.000000 
#    y 0.000000 3.820150 0.000000 
#    z 0.000000 0.000000 3.966460 
# 
# 
# High freq. dielectric constant tensor:
#      x y z
#    x 1.815820 0.000000 0.000000 
#    y 0.000000 1.807090 0.000000 
#    z 0.000000 0.000000 1.837110 
# 
# From -- ./inp_files/18144.got.cif
#   From: 2010.03.12/outbox.cif.g09.slc.cpg/sg67_10_cif.got.tgz:18144.got - 2010.04.10 22:41:39.
