data_PCOD8278326
_publ_section_title
;
Structure prediction by ZEFSAII (Michael W. Deem and Ramdas Pophale) SiO2 
 PCOD8278326
Probable space group: C M M A
;
_chemical_formula_sum "Si O2"
_cell_formula_units_Z 72
_cell_length_a 9.602712
_cell_length_b 31.980864
_cell_length_c 13.377760
_cell_angle_alpha 90.000000
_cell_angle_beta 90.000000
_cell_angle_gamma 90.000000
_cell_volume 4108.350584
_symmetry_space_group_name_H-M "C M M A"
_symmetry_group_IT_number 67
_symmetry_cell_setting 'orthorhombic'
loop_
_space_group_symop_operation_xyz
x,y,z
-x,1/2-y,z
x,-y,-z
-x,1/2+y,-z
-x,-y,-z
x,1/2+y,-z
-x,y,z
x,1/2-y,z
1/2+x,1/2+y,z
1/2-x,-y,z
1/2+x,1/2-y,-z
1/2-x,y,-z
1/2-x,1/2-y,-z
1/2+x,y,-z
1/2-x,1/2+y,z
1/2+x,-y,z
loop_
_atom_site_type_symbol
_atom_site_label
_atom_site_fract_x
_atom_site_fract_y
_atom_site_fract_z
Si Si1 0.664407 0.335604 0.298571
Si Si2 0.340862 0.539163 0.799746
Si Si3 0.334707 0.250000 0.398493
Si Si4 0.162317 0.917336 0.405728
Si Si5 0.162920 0.874613 0.096771
O O1 0.500000 0.340476 0.296615
O O2 0.712609 0.290173 0.334872
O O3 0.719023 0.371277 0.374390
O O4 0.716170 0.344001 0.185640
O O5 0.500000 0.525893 0.812443
O O6 0.250000 0.500000 0.833907
O O7 0.309935 0.551037 0.685073
O O8 0.305373 0.577852 0.871644
O O9 0.500000 0.250000 0.420552
O O10 0.250000 0.250000 0.500000
O O11 0.250000 0.933389 0.500000
O O12 0.000000 0.916258 0.434627
O O13 0.000000 0.868220 0.074378
O O14 0.250000 0.862193 0.000000
#
# Coordination Sequence:
#
# PCOD8278326 Si02
#       5
#    16  16   8  16  16
#     4   8  16  31  49  69  96 126 155 186 228 278
#     4   9  19  33  47  65  92 121 152 191 234 278
#     4  10  18  30  51  76 100 128 157 188 225 268
#     4   9  17  30  46  65  91 124 156 188 227 274
#     4   9  18  34  52  69  91 122 156 191 232 278
#
# _framework density 17.525282000000001
#
# number of rings (size 3 to 8) (size 9 to 14) (size 15 to 20)
#    0.000    3.111    0.000    3.333    0.000    2.667 
#    0.000    9.444    0.000    0.000    0.000    0.000 
#    0.000    0.000    0.000    0.000    0.000    0.000 
#
# Total GULP energy -446309.878231 kJ/mol
# GULP energy per Si atom -12397.496618 kJ/mol
# Density = 1.748539 g / cm^3
# Si number density = 17.525282 Si / 1000 Ang^3
#
#
#
# Elastic Constant Matrix: (Units=GPa)
#
#
# Indices 1 2 3 4 5 6 
#
# 1 46.5853 31.9831 43.3018 0.0000 0.0000 0.0000
# 2 31.9831 93.7359 29.7020 0.0000 0.0000 0.0000
# 3 43.3018 29.7020 112.3227 0.0000 0.0000 0.0000
# 4 0.0000 0.0000 0.0000 14.2872 0.0000 0.0000
# 5 0.0000 0.0000 0.0000 0.0000 34.0971 0.0000
# 6 0.0000 0.0000 0.0000 0.0000 0.0000 17.2665
#
#
#
# Elastic Compliance Matrix: (Units=1/GPa)
#
#
# Indices 1 2 3 4 5 6 
#
# 1 0.040027 -0.009570 -0.012900 0.000000 0.000000 0.000000
# 2 -0.009570 0.013932 0.000005 0.000000 0.000000 0.000000
# 3 -0.012900 0.000005 0.013875 0.000000 0.000000 0.000000
# 4 0.000000 0.000000 0.000000 0.069993 0.000000 0.000000
# 5 0.000000 0.000000 0.000000 0.000000 0.029328 0.000000
# 6 0.000000 0.000000 0.000000 0.000000 0.000000 0.057916
#
#
# Mechanical properties :
#
#
# Convention : Reuss Voigt Hill
#
# Bulk Modulus (GPa) = 43.66049 51.40196 47.53122
# Shear Modulus (GPa) = 18.00924 22.97395 20.49159
#
# Velocity S-wave (km/s) = 3.20912 3.62457 3.42315
# Velocity P-wave (km/s) = 6.22079 6.84912 6.54250
#
# Compressibility (1/GPa) = 0.02290400
#
# Stress axis : x y z
#
# Youngs Moduli (GPa) = 24.98292 71.77797 72.07284
#
# Poissons Ratio (x) = 0.68690 0.92978
# Poissons Ratio (y) = 0.23908 -0.00037
# Poissons Ratio (z) = 0.32229 -0.00037
#
# Static dielectric constant tensor:
#      x y z
#    x 2.945560 0.000000 0.000000 
#    y 0.000000 3.382120 0.000000 
#    z 0.000000 0.000000 3.243790 
# 
# 
# High freq. dielectric constant tensor:
#      x y z
#    x 1.651870 0.000000 0.000000 
#    y 0.000000 1.672000 0.000000 
#    z 0.000000 0.000000 1.679040 
# 
# From -- ./inp_files/16595.got.cif
#   From: 2010.03.12/outbox.cif.g09.slc.cpg/sg67_9_cif.got.tgz:16595.got - 2010.04.10 22:41:39.
