data_PCOD8278121
_publ_section_title
;
Structure prediction by ZEFSAII (Michael W. Deem and Ramdas Pophale) SiO2 
 PCOD8278121
Probable space group: C M M A
;
_chemical_formula_sum "Si O2"
_cell_formula_units_Z 64
_cell_length_a 8.582854
_cell_length_b 15.003772
_cell_length_c 24.244285
_cell_angle_alpha 90.000000
_cell_angle_beta 90.000000
_cell_angle_gamma 90.000000
_cell_volume 3122.062275
_symmetry_space_group_name_H-M "C M M A"
_symmetry_group_IT_number 67
_symmetry_cell_setting 'orthorhombic'
loop_
_space_group_symop_operation_xyz
x,y,z
-x,1/2-y,z
x,-y,-z
-x,1/2+y,-z
-x,-y,-z
x,1/2+y,-z
-x,y,z
x,1/2-y,z
1/2+x,1/2+y,z
1/2-x,-y,z
1/2+x,1/2-y,-z
1/2-x,y,-z
1/2-x,1/2-y,-z
1/2+x,y,-z
1/2-x,1/2+y,z
1/2+x,-y,z
loop_
_atom_site_type_symbol
_atom_site_label
_atom_site_fract_x
_atom_site_fract_y
_atom_site_fract_z
Si Si1 0.684623 0.096667 0.941470
Si Si2 0.316106 0.400776 0.445017
Si Si3 0.819961 0.750000 0.752071
Si Si4 0.317939 0.597066 0.333188
Si Si5 0.318136 0.750000 0.869397
O O1 0.500000 0.092690 0.944866
O O2 0.737823 0.162649 0.893858
O O3 0.750000 0.000000 0.926531
O O4 0.750000 0.130674 0.000000
O O5 0.500000 0.399651 0.447740
O O6 0.250000 0.500000 0.444150
O O7 0.250000 0.351390 0.500000
O O8 0.258288 0.357402 0.387787
O O9 0.781278 0.838368 0.717504
O O10 0.707296 0.750000 0.804209
O O11 0.000000 0.750000 0.770799
O O12 0.500000 0.587321 0.344410
O O13 0.250000 0.500000 0.319094
O O14 0.500000 0.750000 0.883393
#
# Coordination Sequence:
#
# PCOD8278121 Si02
#       5
#    16  16   8  16   8
#     4  11  22  40  65  95 129 162 200 244 295 351
#     4  10  17  28  49  78 109 141 180 226 281 343
#     4  10  24  43  60  81 114 154 197 244 291 344
#     4  10  20  37  59  82 110 146 187 234 290 346
#     4  12  25  41  62  89 122 162 205 248 296 348
#
# _framework density 20.499271
#
# number of rings (size 3 to 8) (size 9 to 14) (size 15 to 20)
#    0.000    1.500    0.000    9.750    0.000    3.000 
#    0.000    3.125    0.000    0.000    0.000    0.000 
#    0.000    0.000    0.000    0.000    0.000    0.000 
#
# Total GULP energy -396821.143372 kJ/mol
# GULP energy per Si atom -12400.660730 kJ/mol
# Density = 2.045261 g / cm^3
# Si number density = 20.499271 Si / 1000 Ang^3
#
#
#
# Elastic Constant Matrix: (Units=GPa)
#
#
# Indices 1 2 3 4 5 6 
#
# 1 191.6027 47.3855 67.6367 0.0000 0.0000 0.0000
# 2 47.3855 93.2676 59.4592 0.0000 0.0000 0.0000
# 3 67.6367 59.4592 142.6903 0.0000 0.0000 0.0000
# 4 0.0000 0.0000 0.0000 135.6777 0.0000 0.0000
# 5 0.0000 0.0000 0.0000 0.0000 40.0866 0.0000
# 6 0.0000 0.0000 0.0000 0.0000 0.0000 14.6677
#
#
#
# Elastic Compliance Matrix: (Units=1/GPa)
#
#
# Indices 1 2 3 4 5 6 
#
# 1 0.006487 -0.001819 -0.002317 0.000000 0.000000 0.000000
# 2 -0.001819 0.015110 -0.005434 0.000000 0.000000 0.000000
# 3 -0.002317 -0.005434 0.010371 0.000000 0.000000 0.000000
# 4 0.000000 0.000000 0.000000 0.007370 0.000000 0.000000
# 5 0.000000 0.000000 0.000000 0.000000 0.024946 0.000000
# 6 0.000000 0.000000 0.000000 0.000000 0.000000 0.068177
#
#
# Mechanical properties :
#
#
# Convention : Reuss Voigt Hill
#
# Bulk Modulus (GPa) = 77.95417 86.28039 82.11728
# Shear Modulus (GPa) = 32.07642 54.95834 43.51738
#
# Velocity S-wave (km/s) = 3.96000 5.18345 4.61246
# Velocity P-wave (km/s) = 7.68239 8.83204 8.27720
#
# Compressibility (1/GPa) = 0.01282805
#
# Stress axis : x y z
#
# Youngs Moduli (GPa) = 154.15922 66.17991 96.42245
#
# Poissons Ratio (x) = 0.12035 0.22341
# Poissons Ratio (y) = 0.28035 0.52401
# Poissons Ratio (z) = 0.35719 0.35965
#
# Static dielectric constant tensor:
#      x y z
#    x 3.820170 0.000000 0.000000 
#    y 0.000000 3.674430 0.000000 
#    z 0.000000 0.000000 4.129380 
# 
# 
# High freq. dielectric constant tensor:
#      x y z
#    x 1.819030 0.000000 0.000000 
#    y 0.000000 1.789980 0.000000 
#    z 0.000000 0.000000 1.808990 
# 
# From -- ./inp_files/36604.got.cif
#   From: 2010.03.12/outbox.cif.g09.slc.cpg/sg67_19_cif.got.tgz:36604.got - 2010.04.10 22:41:39.
