data_PCOD8278763
_publ_section_title
;
Structure prediction by ZEFSAII (Michael W. Deem and Ramdas Pophale) SiO2 
 PCOD8278763
Probable space group: C M M A
;
_chemical_formula_sum "Si O2"
_cell_formula_units_Z 104
_cell_length_a 32.214411
_cell_length_b 8.644365
_cell_length_c 21.504636
_cell_angle_alpha 90.000000
_cell_angle_beta 90.000000
_cell_angle_gamma 90.000000
_cell_volume 5988.463231
_symmetry_space_group_name_H-M "C M M A"
_symmetry_group_IT_number 67
_symmetry_cell_setting 'orthorhombic'
loop_
_space_group_symop_operation_xyz
x,y,z
-x,1/2-y,z
x,-y,-z
-x,1/2+y,-z
-x,-y,-z
x,1/2+y,-z
-x,y,z
x,1/2-y,z
1/2+x,1/2+y,z
1/2-x,-y,z
1/2+x,1/2-y,-z
1/2-x,y,-z
1/2-x,1/2-y,-z
1/2+x,y,-z
1/2-x,1/2+y,z
1/2+x,-y,z
loop_
_atom_site_type_symbol
_atom_site_label
_atom_site_fract_x
_atom_site_fract_y
_atom_site_fract_z
Si Si1 0.835123 0.067116 0.563494
Si Si2 0.500000 0.569165 0.626330
Si Si3 0.084105 0.568283 0.617482
Si Si4 0.706073 0.568783 0.690357
Si Si5 0.126795 0.930742 0.746933
Si Si6 0.432801 0.069062 0.165118
Si Si7 0.000000 0.430119 0.245732
Si Si8 0.000000 0.933726 0.068297
O O1 0.841130 0.250000 0.560058
O O2 0.804727 0.019287 0.619747
O O3 0.815355 0.000000 0.500000
O O4 0.879307 0.985303 0.572427
O O5 0.500000 0.750000 0.644622
O O6 0.456652 0.525691 0.592811
O O7 0.500000 0.442703 0.681142
O O8 0.076566 0.750000 0.609874
O O9 0.096157 0.526230 0.689264
O O10 0.708211 0.750000 0.697377
O O11 0.750000 0.500000 0.710053
O O12 0.671345 0.508179 0.737627
O O13 0.133383 0.750000 0.750055
O O14 0.110258 0.986683 0.815406
O O15 0.424845 0.250000 0.159823
O O16 0.457808 0.008923 0.103573
O O17 0.460597 0.024663 0.223333
O O18 0.000000 0.250000 0.224723
O O19 0.000000 0.750000 0.067068
O O20 0.000000 0.000000 0.000000
#
# Coordination Sequence:
#
# PCOD8278763 Si02
#       8
#    16   8  16  16  16  16   8   8
#     4  10  21  37  55  73  94 124 161 200 248 302
#     4  12  21  29  45  67  94 123 154 195 242 291
#     4  10  20  33  49  70  96 123 159 203 248 298
#     4  10  21  36  54  76 103 130 159 199 252 308
#     4  10  19  31  50  74 100 129 164 203 250 305
#     4  10  19  31  47  70 100 135 175 214 253 294
#     4  11  19  27  41  66  95 125 162 201 240 282
#     4   9  20  34  48  71 105 148 188 224 257 285
#
# _framework density 17.366724999999999
#
# number of rings (size 3 to 8) (size 9 to 14) (size 15 to 20)
#    0.000    1.846    1.538    4.154    0.000    5.231 
#    0.000    1.923    0.000    0.000    0.000    0.000 
#    0.000    0.615    0.000    6.462    0.000    3.538 
#
# Total GULP energy -644387.432931 kJ/mol
# GULP energy per Si atom -12392.066018 kJ/mol
# Density = 1.732720 g / cm^3
# Si number density = 17.366725 Si / 1000 Ang^3
#
#
#
# Elastic Constant Matrix: (Units=GPa)
#
#
# Indices 1 2 3 4 5 6 
#
# 1 118.6829 38.3437 32.2288 0.0000 0.0000 0.0000
# 2 38.3437 62.4785 18.2358 0.0000 0.0000 0.0000
# 3 32.2288 18.2358 75.5126 0.0000 0.0000 0.0000
# 4 0.0000 0.0000 0.0000 23.9621 0.0000 0.0000
# 5 0.0000 0.0000 0.0000 0.0000 22.6957 0.0000
# 6 0.0000 0.0000 0.0000 0.0000 0.0000 28.8132
#
#
#
# Elastic Compliance Matrix: (Units=1/GPa)
#
#
# Indices 1 2 3 4 5 6 
#
# 1 0.011255 -0.005923 -0.003373 0.000000 0.000000 0.000000
# 2 -0.005923 0.020336 -0.002383 0.000000 0.000000 0.000000
# 3 -0.003373 -0.002383 0.015258 0.000000 0.000000 0.000000
# 4 0.000000 0.000000 0.000000 0.041733 0.000000 0.000000
# 5 0.000000 0.000000 0.000000 0.000000 0.044061 0.000000
# 6 0.000000 0.000000 0.000000 0.000000 0.000000 0.034706
#
#
# Mechanical properties :
#
#
# Convention : Reuss Voigt Hill
#
# Bulk Modulus (GPa) = 42.57033 48.25453 45.41243
# Shear Modulus (GPa) = 25.18396 26.28524 25.73460
#
# Velocity S-wave (km/s) = 3.81218 3.89465 3.85364
# Velocity P-wave (km/s) = 6.62894 6.93327 6.78281
#
# Compressibility (1/GPa) = 0.02349054
#
# Stress axis : x y z
#
# Youngs Moduli (GPa) = 88.84570 49.17372 65.53888
#
# Poissons Ratio (x) = 0.29125 0.22109
# Poissons Ratio (y) = 0.52623 0.15619
# Poissons Ratio (z) = 0.29972 0.11719
#
# Static dielectric constant tensor:
#      x y z
#    x 3.267110 0.000000 0.000000 
#    y 0.000000 3.227910 0.000000 
#    z 0.000000 0.000000 3.229760 
# 
# 
# High freq. dielectric constant tensor:
#      x y z
#    x 1.664580 0.000000 0.000000 
#    y 0.000000 1.685100 0.000000 
#    z 0.000000 0.000000 1.623780 
# 
# From -- ./inp_files/42959.got.cif
#   From: 2010.03.12/outbox.cif.g09.slc.cpg/sg67_22_cif.got.tgz:42959.got - 2010.04.10 22:41:39.
