data_PCOD8278845
_publ_section_title
;
Structure prediction by ZEFSAII (Michael W. Deem and Ramdas Pophale) SiO2 
 PCOD8278845
Probable space group: C M M A
;
_chemical_formula_sum "Si O2"
_cell_formula_units_Z 52
_cell_length_a 10.176399
_cell_length_b 21.175467
_cell_length_c 13.937744
_cell_angle_alpha 90.000000
_cell_angle_beta 90.000000
_cell_angle_gamma 90.000000
_cell_volume 3003.444471
_symmetry_space_group_name_H-M "C M M A"
_symmetry_group_IT_number 67
_symmetry_cell_setting 'orthorhombic'
loop_
_space_group_symop_operation_xyz
x,y,z
-x,1/2-y,z
x,-y,-z
-x,1/2+y,-z
-x,-y,-z
x,1/2+y,-z
-x,y,z
x,1/2-y,z
1/2+x,1/2+y,z
1/2-x,-y,z
1/2+x,1/2-y,-z
1/2-x,y,-z
1/2-x,1/2-y,-z
1/2+x,y,-z
1/2-x,1/2+y,z
1/2+x,-y,z
loop_
_atom_site_type_symbol
_atom_site_label
_atom_site_fract_x
_atom_site_fract_y
_atom_site_fract_z
Si Si1 0.228389 0.824773 0.221150
Si Si2 0.750000 0.500000 0.500000
Si Si3 0.500000 0.175113 0.867618
Si Si4 0.851004 0.621163 0.423295
Si Si5 0.500000 0.175331 0.081515
O O1 0.220189 0.750000 0.238186
O O2 0.372683 0.847715 0.190451
O O3 0.189900 0.859658 0.317611
O O4 0.129572 0.846926 0.137753
O O5 0.840762 0.544849 0.432846
O O6 0.500000 0.250000 0.876709
O O7 0.500000 0.145566 0.974811
O O8 0.750000 0.653339 0.500000
O O9 0.000000 0.643369 0.444948
O O10 0.500000 0.250000 0.072668
#
# Coordination Sequence:
#
# PCOD8278845 Si02
#       5
#    16   4   8  16   8
#     4  10  19  31  50  78 108 136 166 201 253 302
#     4   8  22  36  56  72  96 128 178 210 250 292
#     4   9  18  30  47  75 108 140 169 199 237 299
#     4  10  21  36  54  74 101 129 171 210 251 298
#     4   9  16  30  49  71 106 140 169 201 239 297
#
# _framework density 17.313455000000001
#
# number of rings (size 3 to 8) (size 9 to 14) (size 15 to 20)
#    0.923    1.538    1.538    1.385    2.154    4.308 
#    0.000    0.000    0.000    0.000    0.000    6.462 
#    0.000    0.000    0.000    0.000    0.000    0.000 
#
# Total GULP energy -322232.407258 kJ/mol
# GULP energy per Si atom -12393.554125 kJ/mol
# Density = 1.727405 g / cm^3
# Si number density = 17.313455 Si / 1000 Ang^3
#
#
#
# Elastic Constant Matrix: (Units=GPa)
#
#
# Indices 1 2 3 4 5 6 
#
# 1 184.2554 21.6012 79.0553 0.0000 0.0000 0.0000
# 2 21.6012 33.5902 33.6497 0.0000 0.0000 0.0000
# 3 79.0553 33.6497 129.1149 0.0000 0.0000 0.0000
# 4 0.0000 0.0000 0.0000 -11.1276 0.0000 0.0000
# 5 0.0000 0.0000 0.0000 0.0000 29.9774 0.0000
# 6 0.0000 0.0000 0.0000 0.0000 0.0000 14.9183
#
#
#
# Elastic Compliance Matrix: (Units=1/GPa)
#
#
# Indices 1 2 3 4 5 6 
#
# 1 0.007363 -0.000296 -0.004431 0.000000 0.000000 0.000000
# 2 -0.000296 0.040301 -0.010322 0.000000 0.000000 0.000000
# 3 -0.004431 -0.010322 0.013148 0.000000 0.000000 0.000000
# 4 0.000000 0.000000 0.000000 -0.089866 0.000000 0.000000
# 5 0.000000 0.000000 0.000000 0.000000 0.033358 0.000000
# 6 0.000000 0.000000 0.000000 0.000000 0.000000 0.067032
#
#
# Mechanical properties :
#
#
# Convention : Reuss Voigt Hill
#
# Bulk Modulus (GPa) = 32.55817 68.39699 50.47758
# Shear Modulus (GPa) = 44.77343 20.93055 32.85199
#
# Velocity S-wave (km/s) = 5.09084 3.48072 4.36074
# Velocity P-wave (km/s) = 7.30763 7.46624 7.38736
#
# Compressibility (1/GPa) = 0.03071425
#
# Stress axis : x y z
#
# Youngs Moduli (GPa) = 135.81080 24.81310 76.05535
#
# Poissons Ratio (x) = 0.00735 0.33702
# Poissons Ratio (y) = 0.04021 0.78504
# Poissons Ratio (z) = 0.60181 0.25612
#
# Static dielectric constant tensor:
#      x y z
#    x 3.266530 0.000000 0.000000 
#    y 0.000000 2.711310 0.000000 
#    z 0.000000 0.000000 3.263700 
# 
# 
# High freq. dielectric constant tensor:
#      x y z
#    x 1.688700 0.000000 0.000000 
#    y 0.000000 1.605720 0.000000 
#    z 0.000000 0.000000 1.677230 
# 
# From -- ./inp_files/16289.got.cif
#   From: 2010.03.12/outbox.cif.g09.slc.cpg/sg67_9_cif.got.tgz:16289.got - 2010.04.10 22:41:39.
