data_PCOD8278173
_publ_section_title
;
Structure prediction by ZEFSAII (Michael W. Deem and Ramdas Pophale) SiO2 
 PCOD8278173
Probable space group: C M M A
;
_chemical_formula_sum "Si O2"
_cell_formula_units_Z 112
_cell_length_a 23.133627
_cell_length_b 17.183340
_cell_length_c 17.582451
_cell_angle_alpha 90.000000
_cell_angle_beta 90.000000
_cell_angle_gamma 90.000000
_cell_volume 6989.252461
_symmetry_space_group_name_H-M "C M M A"
_symmetry_group_IT_number 67
_symmetry_cell_setting 'orthorhombic'
loop_
_space_group_symop_operation_xyz
x,y,z
-x,1/2-y,z
x,-y,-z
-x,1/2+y,-z
-x,-y,-z
x,1/2+y,-z
-x,y,z
x,1/2-y,z
1/2+x,1/2+y,z
1/2-x,-y,z
1/2+x,1/2-y,-z
1/2-x,y,-z
1/2-x,1/2-y,-z
1/2+x,y,-z
1/2-x,1/2+y,z
1/2+x,-y,z
loop_
_atom_site_type_symbol
_atom_site_label
_atom_site_fract_x
_atom_site_fract_y
_atom_site_fract_z
Si Si1 0.719004 0.657189 0.833198
Si Si2 0.151499 0.158836 0.127348
Si Si3 0.064743 0.657024 0.746889
Si Si4 0.734359 0.089608 0.323071
Si Si5 0.648710 0.341945 0.619838
Si Si6 0.814138 0.090468 0.982569
Si Si7 0.812666 0.836657 0.463730
O O1 0.710923 0.750000 0.837061
O O2 0.785276 0.630241 0.846353
O O3 0.701939 0.622842 0.751274
O O4 0.675980 0.615626 0.894732
O O5 0.147586 0.250000 0.132821
O O6 0.102101 0.123405 0.182347
O O7 0.141015 0.132592 0.039896
O O8 0.063732 0.750000 0.749057
O O9 0.093653 0.627737 0.667798
O O10 0.000000 0.622927 0.751858
O O11 0.793327 0.135957 0.335630
O O12 0.689276 0.104247 0.392558
O O13 0.750000 0.000000 0.315201
O O14 0.648835 0.250000 0.616421
O O15 0.646744 0.371788 0.531804
O O16 0.750000 0.122195 0.000000
O O17 0.819838 0.000000 0.000000
O O18 0.833012 0.750000 0.437426
O O19 0.750000 0.829231 0.500000
#
# Coordination Sequence:
#
# PCOD8278173 Si02
#       7
#    16  16  16  16  16  16  16
#     4  10  18  28  42  59  85 120 150 171 207 265
#     4   9  16  27  42  58  84 115 142 174 218 263
#     4   9  16  26  44  68  87 108 144 187 225 261
#     4  11  20  25  40  63  89 115 148 182 215 255
#     4   9  16  29  44  59  88 120 142 174 221 268
#     4   9  18  27  41  59  86 115 146 178 209 255
#     4   8  15  27  41  56  80 116 146 169 209 265
#
# _framework density 16.024602999999999
#
# number of rings (size 3 to 8) (size 9 to 14) (size 15 to 20)
#    0.000    2.714    1.429    2.571    4.000    4.286 
#    0.000    0.000    0.000    0.429    0.000    2.000 
#    0.000    1.143    0.000    8.857    0.000    2.429 
#
# Total GULP energy -693851.273795 kJ/mol
# GULP energy per Si atom -12390.201318 kJ/mol
# Density = 1.598813 g / cm^3
# Si number density = 16.024603 Si / 1000 Ang^3
#
#
#
# Elastic Constant Matrix: (Units=GPa)
#
#
# Indices 1 2 3 4 5 6 
#
# 1 56.1446 6.7673 47.9227 0.0000 0.0000 0.0000
# 2 6.7673 36.4427 41.7573 0.0000 0.0000 0.0000
# 3 47.9227 41.7573 158.3733 0.0000 0.0000 0.0000
# 4 0.0000 0.0000 0.0000 20.3467 0.0000 0.0000
# 5 0.0000 0.0000 0.0000 0.0000 9.2776 0.0000
# 6 0.0000 0.0000 0.0000 0.0000 0.0000 3.6033
#
#
#
# Elastic Compliance Matrix: (Units=1/GPa)
#
#
# Indices 1 2 3 4 5 6 
#
# 1 0.024820 0.005727 -0.009020 0.000000 0.000000 0.000000
# 2 0.005727 0.040641 -0.012448 0.000000 0.000000 0.000000
# 3 -0.009020 -0.012448 0.012326 0.000000 0.000000 0.000000
# 4 0.000000 0.000000 0.000000 0.049148 0.000000 0.000000
# 5 0.000000 0.000000 0.000000 0.000000 0.107787 0.000000
# 6 0.000000 0.000000 0.000000 0.000000 0.000000 0.277522
#
#
# Mechanical properties :
#
#
# Convention : Reuss Voigt Hill
#
# Bulk Modulus (GPa) = 21.59689 49.31725 35.45707
# Shear Modulus (GPa) = 8.94195 16.94642 12.94418
#
# Velocity S-wave (km/s) = 2.36479 3.25549 2.84521
# Velocity P-wave (km/s) = 4.57853 6.70624 5.74180
#
# Compressibility (1/GPa) = 0.04630297
#
# Stress axis : x y z
#
# Youngs Moduli (GPa) = 40.28949 24.60596 81.13002
#
# Poissons Ratio (x) = -0.14091 0.73183
# Poissons Ratio (y) = -0.23073 1.00993
# Poissons Ratio (z) = 0.36343 0.30630
#
# Static dielectric constant tensor:
#      x y z
#    x 2.772020 0.000000 0.000000 
#    y 0.000000 2.810890 0.000000 
#    z 0.000000 0.000000 3.666560 
# 
# 
# High freq. dielectric constant tensor:
#      x y z
#    x 1.542810 0.000000 0.000000 
#    y 0.000000 1.595220 0.000000 
#    z 0.000000 0.000000 1.637830 
# 
# From -- ./inp_files/34521.got.cif
#   From: 2010.03.12/outbox.cif.g09.slc.cpg/sg67_18_cif.got.tgz:34521.got - 2010.04.10 22:41:39.
