data_PCOD8278278
_publ_section_title
;
Structure prediction by ZEFSAII (Michael W. Deem and Ramdas Pophale) SiO2 
 PCOD8278278
Probable space group: C M M A
;
_chemical_formula_sum "Si O2"
_cell_formula_units_Z 104
_cell_length_a 26.317564
_cell_length_b 9.019429
_cell_length_c 24.590687
_cell_angle_alpha 90.000000
_cell_angle_beta 90.000000
_cell_angle_gamma 90.000000
_cell_volume 5837.076618
_symmetry_space_group_name_H-M "C M M A"
_symmetry_group_IT_number 67
_symmetry_cell_setting 'orthorhombic'
loop_
_space_group_symop_operation_xyz
x,y,z
-x,1/2-y,z
x,-y,-z
-x,1/2+y,-z
-x,-y,-z
x,1/2+y,-z
-x,y,z
x,1/2-y,z
1/2+x,1/2+y,z
1/2-x,-y,z
1/2+x,1/2-y,-z
1/2-x,y,-z
1/2-x,1/2-y,-z
1/2+x,y,-z
1/2-x,1/2+y,z
1/2+x,-y,z
loop_
_atom_site_type_symbol
_atom_site_label
_atom_site_fract_x
_atom_site_fract_y
_atom_site_fract_z
Si Si1 0.302398 0.071729 0.558284
Si Si2 0.059647 0.422202 0.263013
Si Si3 0.500000 0.926852 0.442080
Si Si4 0.592170 0.079355 0.942290
Si Si5 0.057892 0.911638 0.158584
Si Si6 0.902187 0.074699 0.377007
Si Si7 0.704618 0.419052 0.942665
O O1 0.297265 0.250000 0.553239
O O2 0.348031 0.023838 0.598567
O O3 0.314732 0.000000 0.500000
O O4 0.250000 0.000000 0.580907
O O5 0.069475 0.250000 0.252872
O O6 0.082595 0.503809 0.209840
O O7 0.091332 0.481925 0.315000
O O8 0.000000 0.451686 0.273403
O O9 0.500000 0.750000 0.446921
O O10 0.550526 0.986480 0.411913
O O11 0.500000 0.000000 0.500000
O O12 0.576525 0.250000 0.950521
O O13 0.648990 0.065386 0.916823
O O14 0.557709 0.003969 0.897149
O O15 0.585053 0.000000 0.000000
O O16 0.084060 0.750000 0.150447
O O17 0.000000 0.888905 0.174633
O O18 0.905897 0.250000 0.377215
O O19 0.720150 0.250000 0.950852
O O20 0.750000 0.500000 0.908267
O O21 0.701264 0.500000 0.000000
#
# Coordination Sequence:
#
# PCOD8278278 Si02
#       7
#    16  16   8  16  16  16  16
#     4  10  19  32  49  71 100 136 176 214 250 295
#     4   9  16  31  54  74  92 121 161 202 246 300
#     4  10  18  30  46  72 106 134 159 194 245 300
#     4  10  20  33  50  73  99 129 164 201 244 297
#     4  10  21  35  50  71  99 129 162 204 250 297
#     4   9  17  30  51  74  98 129 166 206 249 299
#     4   9  16  26  43  67  93 120 151 185 225 277
#
# _framework density 17.817139000000001
#
# number of rings (size 3 to 8) (size 9 to 14) (size 15 to 20)
#    0.000    2.462    0.769    3.231    0.000    3.077 
#    0.000    3.077    0.000    0.923    0.000    2.154 
#    0.000    0.000    0.000    0.000    0.000    0.000 
#
# Total GULP energy -644344.146093 kJ/mol
# GULP energy per Si atom -12391.233579 kJ/mol
# Density = 1.777659 g / cm^3
# Si number density = 17.817139 Si / 1000 Ang^3
#
#
#
# Elastic Constant Matrix: (Units=GPa)
#
#
# Indices 1 2 3 4 5 6 
#
# 1 79.9609 33.7879 48.0943 0.0000 0.0000 0.0000
# 2 33.7879 104.4680 51.9887 0.0000 0.0000 0.0000
# 3 48.0943 51.9887 134.7605 0.0000 0.0000 0.0000
# 4 0.0000 0.0000 0.0000 24.1568 0.0000 0.0000
# 5 0.0000 0.0000 0.0000 0.0000 21.1247 0.0000
# 6 0.0000 0.0000 0.0000 0.0000 0.0000 23.2378
#
#
#
# Elastic Compliance Matrix: (Units=1/GPa)
#
#
# Indices 1 2 3 4 5 6 
#
# 1 0.016653 -0.003005 -0.004784 0.000000 0.000000 0.000000
# 2 -0.003005 0.012389 -0.003707 0.000000 0.000000 0.000000
# 3 -0.004784 -0.003707 0.010558 0.000000 0.000000 0.000000
# 4 0.000000 0.000000 0.000000 0.041396 0.000000 0.000000
# 5 0.000000 0.000000 0.000000 0.000000 0.047338 0.000000
# 6 0.000000 0.000000 0.000000 0.000000 0.000000 0.043033
#
#
# Mechanical properties :
#
#
# Convention : Reuss Voigt Hill
#
# Bulk Modulus (GPa) = 60.21230 65.21456 62.71343
# Shear Modulus (GPa) = 25.01291 26.05843 25.53567
#
# Velocity S-wave (km/s) = 3.75089 3.82848 3.78988
# Velocity P-wave (km/s) = 7.25444 7.49831 7.37738
#
# Compressibility (1/GPa) = 0.01660790
#
# Stress axis : x y z
#
# Youngs Moduli (GPa) = 60.04744 80.71590 94.71503
#
# Poissons Ratio (x) = 0.24259 0.45311
# Poissons Ratio (y) = 0.18047 0.35110
# Poissons Ratio (z) = 0.28726 0.29921
#
# Static dielectric constant tensor:
#      x y z
#    x 3.935910 0.000000 0.000000 
#    y 0.000000 3.397970 0.000000 
#    z 0.000000 0.000000 3.159640 
# 
# 
# High freq. dielectric constant tensor:
#      x y z
#    x 1.679950 0.000000 0.000000 
#    y 0.000000 1.688620 0.000000 
#    z 0.000000 0.000000 1.669010 
# 
# From -- ./inp_files/42951.got.cif
#   From: 2010.03.12/outbox.cif.g09.slc.cpg/sg67_22_cif.got.tgz:42951.got - 2010.04.10 22:41:39.
