data_PCOD8278158
_publ_section_title
;
Structure prediction by ZEFSAII (Michael W. Deem and Ramdas Pophale) SiO2 
 PCOD8278158
Probable space group: C M M A
;
_chemical_formula_sum "Si O2"
_cell_formula_units_Z 112
_cell_length_a 28.006343
_cell_length_b 17.141603
_cell_length_c 11.037135
_cell_angle_alpha 90.000000
_cell_angle_beta 90.000000
_cell_angle_gamma 90.000000
_cell_volume 5298.637279
_symmetry_space_group_name_H-M "C M M A"
_symmetry_group_IT_number 67
_symmetry_cell_setting 'orthorhombic'
loop_
_space_group_symop_operation_xyz
x,y,z
-x,1/2-y,z
x,-y,-z
-x,1/2+y,-z
-x,-y,-z
x,1/2+y,-z
-x,y,z
x,1/2-y,z
1/2+x,1/2+y,z
1/2-x,-y,z
1/2+x,1/2-y,-z
1/2-x,y,-z
1/2-x,1/2-y,-z
1/2+x,y,-z
1/2-x,1/2+y,z
1/2+x,-y,z
loop_
_atom_site_type_symbol
_atom_site_label
_atom_site_fract_x
_atom_site_fract_y
_atom_site_fract_z
Si Si1 0.446770 0.839569 0.373581
Si Si2 0.555608 0.104429 0.120536
Si Si3 0.228321 0.087216 0.380232
Si Si4 0.444909 0.425056 0.855284
Si Si5 0.353711 0.340681 0.241197
Si Si6 0.132548 0.587155 0.494173
Si Si7 0.234889 0.090624 0.870288
O O1 0.500000 0.871825 0.403208
O O2 0.449620 0.750000 0.342131
O O3 0.421819 0.881715 0.258781
O O4 0.411848 0.854681 0.485757
O O5 0.500000 0.131013 0.134897
O O6 0.590629 0.157165 0.201167
O O7 0.562318 0.016291 0.164419
O O8 0.574812 0.107913 0.982271
O O9 0.250000 0.130435 0.500000
O O10 0.171546 0.089028 0.398420
O O11 0.239832 0.128297 0.250289
O O12 0.250000 0.000000 0.377071
O O13 0.500000 0.403361 0.858243
O O14 0.338298 0.250000 0.251143
O O15 0.344734 0.386162 0.367136
O O16 0.321325 0.389180 0.144878
O O17 0.111491 0.500000 0.500000
O O18 0.250000 0.000000 0.874036
O O19 0.250000 0.128339 0.000000
#
# Coordination Sequence:
#
# PCOD8278158 Si02
#       7
#    16  16  16  16  16  16  16
#     4  10  22  38  55  83 124 159 193 249 310 357
#     4   9  19  37  62  91 123 164 206 248 300 366
#     4  10  17  37  65  91 114 147 195 254 317 363
#     4   8  16  34  60  86 114 155 212 259 291 349
#     4  12  26  40  58  92 133 164 202 256 317 383
#     4  12  22  38  66  89 112 159 213 254 301 375
#     4  10  22  41  66  94 122 162 211 261 315 372
#
# _framework density 21.137511
#
# number of rings (size 3 to 8) (size 9 to 14) (size 15 to 20)
#    0.000    1.857    2.857    3.000    0.000    5.429 
#    0.000    3.571    0.000    0.000    0.000    0.000 
#    0.000    0.000    0.000    0.000    0.000    0.000 
#
# Total GULP energy -693858.000611 kJ/mol
# GULP energy per Si atom -12390.321439 kJ/mol
# Density = 2.108940 g / cm^3
# Si number density = 21.137511 Si / 1000 Ang^3
#
#
#
# Elastic Constant Matrix: (Units=GPa)
#
#
# Indices 1 2 3 4 5 6 
#
# 1 115.6407 31.0067 48.2767 0.0000 0.0000 0.0000
# 2 31.0067 69.3918 24.2665 0.0000 0.0000 0.0000
# 3 48.2767 24.2665 147.3118 0.0000 0.0000 0.0000
# 4 0.0000 0.0000 0.0000 12.7824 0.0000 0.0000
# 5 0.0000 0.0000 0.0000 0.0000 31.9044 0.0000
# 6 0.0000 0.0000 0.0000 0.0000 0.0000 23.0214
#
#
#
# Elastic Compliance Matrix: (Units=1/GPa)
#
#
# Indices 1 2 3 4 5 6 
#
# 1 0.010906 -0.003845 -0.002941 0.000000 0.000000 0.000000
# 2 -0.003845 0.016647 -0.001482 0.000000 0.000000 0.000000
# 3 -0.002941 -0.001482 0.007996 0.000000 0.000000 0.000000
# 4 0.000000 0.000000 0.000000 0.078233 0.000000 0.000000
# 5 0.000000 0.000000 0.000000 0.000000 0.031344 0.000000
# 6 0.000000 0.000000 0.000000 0.000000 0.000000 0.043438
#
#
# Mechanical properties :
#
#
# Convention : Reuss Voigt Hill
#
# Bulk Modulus (GPa) = 52.59318 59.93824 56.26571
# Shear Modulus (GPa) = 23.64768 28.79460 26.22114
#
# Velocity S-wave (km/s) = 3.34841 3.69487 3.52590
# Velocity P-wave (km/s) = 6.31542 6.82793 6.57667
#
# Compressibility (1/GPa) = 0.01901387
#
# Stress axis : x y z
#
# Youngs Moduli (GPa) = 91.69199 60.06991 125.05887
#
# Poissons Ratio (x) = 0.23096 0.36777
# Poissons Ratio (y) = 0.35254 0.18537
# Poissons Ratio (z) = 0.26964 0.08904
#
# Static dielectric constant tensor:
#      x y z
#    x 3.700070 0.000000 0.000000 
#    y 0.000000 3.525180 0.000000 
#    z 0.000000 0.000000 4.831390 
# 
# 
# High freq. dielectric constant tensor:
#      x y z
#    x 1.822920 0.000000 0.000000 
#    y 0.000000 1.790490 0.000000 
#    z 0.000000 0.000000 1.838980 
# 
# From -- ./inp_files/23847.got.cif
#   From: 2010.03.12/outbox.cif.g09.slc.cpg/sg67_12_cif.got.tgz:23847.got - 2010.04.10 22:41:39.
