data_PCOD8278882
_publ_section_title
;
Structure prediction by ZEFSAII (Michael W. Deem and Ramdas Pophale) SiO2 
 PCOD8278882
Probable space group: C M M A
;
_chemical_formula_sum "Si O2"
_cell_formula_units_Z 128
_cell_length_a 18.676120
_cell_length_b 18.985070
_cell_length_c 20.104327
_cell_angle_alpha 90.000000
_cell_angle_beta 90.000000
_cell_angle_gamma 90.000000
_cell_volume 7128.339868
_symmetry_space_group_name_H-M "C M M A"
_symmetry_group_IT_number 67
_symmetry_cell_setting 'orthorhombic'
loop_
_space_group_symop_operation_xyz
x,y,z
-x,1/2-y,z
x,-y,-z
-x,1/2+y,-z
-x,-y,-z
x,1/2+y,-z
-x,y,z
x,1/2-y,z
1/2+x,1/2+y,z
1/2-x,-y,z
1/2+x,1/2-y,-z
1/2-x,y,-z
1/2-x,1/2-y,-z
1/2+x,y,-z
1/2-x,1/2+y,z
1/2+x,-y,z
loop_
_atom_site_type_symbol
_atom_site_label
_atom_site_fract_x
_atom_site_fract_y
_atom_site_fract_z
Si Si1 0.830179 0.584853 0.075383
Si Si2 0.918514 0.670077 0.576779
Si Si3 0.669475 0.082737 0.928421
Si Si4 0.181402 0.670069 0.458369
Si Si5 0.328005 0.583600 0.674570
Si Si6 0.418851 0.088835 0.199630
Si Si7 0.663305 0.078120 0.679315
Si Si8 0.420050 0.078986 0.806954
O O1 0.749088 0.611543 0.086515
O O2 0.830583 0.501024 0.077184
O O3 0.880399 0.618240 0.132744
O O4 0.856618 0.608106 0.001611
O O5 0.915538 0.750000 0.603505
O O6 0.891001 0.667033 0.501273
O O7 0.863020 0.623166 0.617431
O O8 0.000000 0.641040 0.580329
O O9 0.615663 0.112117 0.872847
O O10 0.199627 0.750000 0.436531
O O11 0.250000 0.640132 0.500000
O O12 0.162331 0.625239 0.393637
O O13 0.376749 0.614804 0.734354
O O14 0.351564 0.503218 0.661970
O O15 0.245996 0.589668 0.696690
O O16 0.500000 0.117785 0.202758
O O17 0.417833 0.005081 0.194253
O O18 0.620853 0.106995 0.742675
O O19 0.500000 0.108284 0.804242
#
# Coordination Sequence:
#
# PCOD8278882 Si02
#       8
#    16  16  16  16  16  16  16  16
#     4   8  13  22  35  53  80 118 161 202 241 287
#     4  10  21  37  56  77 101 130 163 203 255 306
#     4   8  13  21  35  54  79 117 163 202 240 290
#     4  10  20  37  57  75  98 128 164 206 248 297
#     4  10  20  32  50  73  97 131 166 202 249 299
#     4   9  17  27  39  59  90 126 161 201 248 296
#     4  10  19  32  48  72 100 130 165 204 246 301
#     4   9  16  25  38  58  89 124 158 200 248 293
#
# _framework density 17.956495
#
# number of rings (size 3 to 8) (size 9 to 14) (size 15 to 20)
#    0.000    2.750    1.250    1.875    0.000    5.000 
#    0.000    3.125    0.000    0.000    0.000    0.000 
#    0.000    1.000    0.000    7.625    0.000   10.625 
#
# Total GULP energy -793281.810896 kJ/mol
# GULP energy per Si atom -12395.028295 kJ/mol
# Density = 1.791563 g / cm^3
# Si number density = 17.956495 Si / 1000 Ang^3
#
#
#
# Elastic Constant Matrix: (Units=GPa)
#
#
# Indices 1 2 3 4 5 6 
#
# 1 119.8279 25.2382 74.3312 0.0000 0.0000 0.0000
# 2 25.2382 27.8461 35.7831 0.0000 0.0000 0.0000
# 3 74.3312 35.7831 155.8391 0.0000 0.0000 0.0000
# 4 0.0000 0.0000 0.0000 -2.4439 0.0000 0.0000
# 5 0.0000 0.0000 0.0000 0.0000 26.9094 0.0000
# 6 0.0000 0.0000 0.0000 0.0000 0.0000 14.0908
#
#
#
# Elastic Compliance Matrix: (Units=1/GPa)
#
#
# Indices 1 2 3 4 5 6 
#
# 1 0.012350 -0.005140 -0.004710 0.000000 0.000000 0.000000
# 2 -0.005140 0.053083 -0.009737 0.000000 0.000000 0.000000
# 3 -0.004710 -0.009737 0.010899 0.000000 0.000000 0.000000
# 4 0.000000 0.000000 0.000000 -0.409183 0.000000 0.000000
# 5 0.000000 0.000000 0.000000 0.000000 0.037162 0.000000
# 6 0.000000 0.000000 0.000000 0.000000 0.000000 0.070968
#
#
# Mechanical properties :
#
#
# Convention : Reuss Voigt Hill
#
# Bulk Modulus (GPa) = 26.91286 63.80200 45.35743
# Shear Modulus (GPa) = -28.87492 18.92196 -4.97648
#
# Velocity S-wave (km/s) = -4.01440 3.24970 -1.66656
# Velocity P-wave (km/s) = 2.54300 7.04906 4.64879
#
# Compressibility (1/GPa) = 0.03715695
#
# Stress axis : x y z
#
# Youngs Moduli (GPa) = 80.97300 18.83851 91.74953
#
# Poissons Ratio (x) = 0.09684 0.43216
# Poissons Ratio (y) = 0.41624 0.89335
# Poissons Ratio (z) = 0.38140 0.18343
#
# Static dielectric constant tensor:
#      x y z
#    x 3.515210 0.000000 0.000000 
#    y 0.000000 2.735920 0.000000 
#    z 0.000000 0.000000 3.507340 
# 
# 
# High freq. dielectric constant tensor:
#      x y z
#    x 1.703560 0.000000 0.000000 
#    y 0.000000 1.625150 0.000000 
#    z 0.000000 0.000000 1.707170 
# 
# From -- ./inp_files/35258.got.cif
#   From: 2010.03.12/outbox.cif.g09.slc.cpg/sg67_18_cif.got.tgz:35258.got - 2010.04.10 22:41:39.
