data_PCOD8278050
_publ_section_title
;
Structure prediction by ZEFSAII (Michael W. Deem and Ramdas Pophale) SiO2 
 PCOD8278050
Probable space group: C M M A
;
_chemical_formula_sum "Si O2"
_cell_formula_units_Z 80
_cell_length_a 19.384657
_cell_length_b 8.648954
_cell_length_c 25.683011
_cell_angle_alpha 90.000000
_cell_angle_beta 90.000000
_cell_angle_gamma 90.000000
_cell_volume 4305.936747
_symmetry_space_group_name_H-M "C M M A"
_symmetry_group_IT_number 67
_symmetry_cell_setting 'orthorhombic'
loop_
_space_group_symop_operation_xyz
x,y,z
-x,1/2-y,z
x,-y,-z
-x,1/2+y,-z
-x,-y,-z
x,1/2+y,-z
-x,y,z
x,1/2-y,z
1/2+x,1/2+y,z
1/2-x,-y,z
1/2+x,1/2-y,-z
1/2-x,y,-z
1/2-x,1/2-y,-z
1/2+x,y,-z
1/2-x,1/2+y,z
1/2+x,-y,z
loop_
_atom_site_type_symbol
_atom_site_label
_atom_site_fract_x
_atom_site_fract_y
_atom_site_fract_z
Si Si1 0.580475 0.427947 0.361085
Si Si2 0.325641 0.067084 0.842599
Si Si3 0.326773 0.066562 0.051916
Si Si4 0.920943 0.929536 0.747107
Si Si5 0.676953 0.431022 0.555004
O O1 0.500000 0.461728 0.368821
O O2 0.599121 0.250000 0.370800
O O3 0.603138 0.473438 0.302898
O O4 0.620134 0.533002 0.402023
O O5 0.320653 0.250000 0.849403
O O6 0.374124 0.017443 0.795105
O O7 0.250000 0.000000 0.831913
O O8 0.360961 0.994612 0.894634
O O9 0.326725 0.250000 0.050200
O O10 0.250000 0.000000 0.052525
O O11 0.364834 0.000000 0.000000
O O12 0.910442 0.750000 0.734070
O O13 0.000000 0.965820 0.761684
O O14 0.652546 0.500000 0.500000
O O15 0.685478 0.250000 0.548349
O O16 0.750000 0.500000 0.572897
#
# Coordination Sequence:
#
# PCOD8278050 Si02
#       5
#    16  16  16  16  16
#     4  10  21  37  57  81 108 139 178 220 260 307
#     4  10  19  31  49  74 102 130 165 209 254 303
#     4  10  17  27  44  67  97 129 163 203 249 300
#     4   9  19  36  55  74 100 137 176 213 257 306
#     4  11  22  38  59  82 111 143 176 215 261 313
#
# _framework density 18.579001999999999
#
# number of rings (size 3 to 8) (size 9 to 14) (size 15 to 20)
#    0.000    2.000    0.000    7.200    0.000    4.000 
#    0.000    2.000    0.000    0.600    0.000    0.000 
#    0.000    0.000    0.000    0.000    0.000    0.000 
#
# Total GULP energy -496021.236401 kJ/mol
# GULP energy per Si atom -12400.530910 kJ/mol
# Density = 1.853672 g / cm^3
# Si number density = 18.579002 Si / 1000 Ang^3
#
#
#
# Elastic Constant Matrix: (Units=GPa)
#
#
# Indices 1 2 3 4 5 6 
#
# 1 59.2677 36.4270 67.5303 0.0000 0.0000 0.0000
# 2 36.4270 135.0652 65.6865 0.0000 0.0000 0.0000
# 3 67.5303 65.6865 155.1958 0.0000 0.0000 0.0000
# 4 0.0000 0.0000 0.0000 37.1536 0.0000 0.0000
# 5 0.0000 0.0000 0.0000 0.0000 -5.5385 0.0000
# 6 0.0000 0.0000 0.0000 0.0000 0.0000 22.9329
#
#
#
# Elastic Compliance Matrix: (Units=1/GPa)
#
#
# Indices 1 2 3 4 5 6 
#
# 1 0.034119 -0.002495 -0.013790 0.000000 0.000000 0.000000
# 2 -0.002495 0.009505 -0.002937 0.000000 0.000000 0.000000
# 3 -0.013790 -0.002937 0.013687 0.000000 0.000000 0.000000
# 4 0.000000 0.000000 0.000000 0.026915 0.000000 0.000000
# 5 0.000000 0.000000 0.000000 0.000000 -0.180555 0.000000
# 6 0.000000 0.000000 0.000000 0.000000 0.000000 0.043606
#
#
# Mechanical properties :
#
#
# Convention : Reuss Voigt Hill
#
# Bulk Modulus (GPa) = 53.00553 76.53515 64.77034
# Shear Modulus (GPa) = -625.82092 22.90193 -301.45950
#
# Velocity S-wave (km/s) = -18.37320 3.51476 -12.75188
# Velocity P-wave (km/s) = 20.53065 7.59969 13.48614
#
# Compressibility (1/GPa) = 0.01886596
#
# Stress axis : x y z
#
# Youngs Moduli (GPa) = 29.30954 105.20397 73.06163
#
# Poissons Ratio (x) = 0.26252 1.00751
# Poissons Ratio (y) = 0.07314 0.21461
# Poissons Ratio (z) = 0.40417 0.30902
#
# Static dielectric constant tensor:
#      x y z
#    x 3.138350 0.000000 0.000000 
#    y 0.000000 3.494470 0.000000 
#    z 0.000000 0.000000 3.955990 
# 
# 
# High freq. dielectric constant tensor:
#      x y z
#    x 1.685440 0.000000 0.000000 
#    y 0.000000 1.736740 0.000000 
#    z 0.000000 0.000000 1.740150 
# 
# From -- ./inp_files/44437.got.cif
#   From: 2010.03.12/outbox.cif.g09.slc.cpg/sg67_23_cif.got.tgz:44437.got - 2010.04.10 22:41:39.
