data_PCOD8278471
_publ_section_title
;
Structure prediction by ZEFSAII (Michael W. Deem and Ramdas Pophale) SiO2 
 PCOD8278471
Probable space group: C M M A
;
_chemical_formula_sum "Si O2"
_cell_formula_units_Z 80
_cell_length_a 10.495522
_cell_length_b 18.254633
_cell_length_c 23.281678
_cell_angle_alpha 90.000000
_cell_angle_beta 90.000000
_cell_angle_gamma 90.000000
_cell_volume 4460.580976
_symmetry_space_group_name_H-M "C M M A"
_symmetry_group_IT_number 67
_symmetry_cell_setting 'orthorhombic'
loop_
_space_group_symop_operation_xyz
x,y,z
-x,1/2-y,z
x,-y,-z
-x,1/2+y,-z
-x,-y,-z
x,1/2+y,-z
-x,y,z
x,1/2-y,z
1/2+x,1/2+y,z
1/2-x,-y,z
1/2+x,1/2-y,-z
1/2-x,y,-z
1/2-x,1/2-y,-z
1/2+x,y,-z
1/2-x,1/2+y,z
1/2+x,-y,z
loop_
_atom_site_type_symbol
_atom_site_label
_atom_site_fract_x
_atom_site_fract_y
_atom_site_fract_z
Si Si1 0.500000 0.587518 0.932949
Si Si2 0.000000 0.086354 0.061729
Si Si3 0.253361 0.587005 0.131228
Si Si4 0.136863 0.421689 0.468474
Si Si5 0.354108 0.833890 0.237659
Si Si6 0.644507 0.556394 0.335878
O O1 0.500000 0.500729 0.938424
O O2 0.375045 0.615021 0.899398
O O3 0.500000 0.619576 0.997496
O O4 0.872724 0.113891 0.093245
O O5 0.250000 0.500000 0.139770
O O6 0.262665 0.624361 0.193276
O O7 0.129010 0.500000 0.500000
O O8 0.250000 0.375998 0.500000
O O9 0.172649 0.428269 0.402145
O O10 0.000000 0.381661 0.475178
O O11 0.500000 0.841318 0.216512
O O12 0.311164 0.750000 0.242196
O O13 0.338481 0.868767 0.300628
O O14 0.500000 0.525214 0.327817
O O15 0.750000 0.500000 0.312241
#
# Coordination Sequence:
#
# PCOD8278471 Si02
#       6
#     8   8  16  16  16  16
#     4   9  18  28  51  83 111 131 159 216 267 306
#     4   9  16  30  51  81 109 135 165 204 263 316
#     4  10  18  32  54  78 105 134 172 215 256 306
#     4   9  15  25  45  74 106 129 156 201 256 305
#     4  10  21  37  54  71 100 143 183 215 254 307
#     4  10  19  32  53  81 104 131 172 218 256 303
#
# _framework density 17.934882999999999
#
# number of rings (size 3 to 8) (size 9 to 14) (size 15 to 20)
#    0.000    2.400    3.000    1.200    0.000    2.400 
#    1.800    0.500    0.000    4.200    0.000    0.000 
#    0.000    0.000    0.000    0.000    0.000    0.000 
#
# Total GULP energy -495763.285119 kJ/mol
# GULP energy per Si atom -12394.082128 kJ/mol
# Density = 1.789406 g / cm^3
# Si number density = 17.934883 Si / 1000 Ang^3
#
#
#
# Elastic Constant Matrix: (Units=GPa)
#
#
# Indices 1 2 3 4 5 6 
#
# 1 145.1203 35.8941 57.8411 0.0000 0.0000 0.0000
# 2 35.8941 52.9629 42.8856 0.0000 0.0000 0.0000
# 3 57.8411 42.8856 140.0323 0.0000 0.0000 0.0000
# 4 0.0000 0.0000 0.0000 6.0072 0.0000 0.0000
# 5 0.0000 0.0000 0.0000 0.0000 31.6922 0.0000
# 6 0.0000 0.0000 0.0000 0.0000 0.0000 11.7314
#
#
#
# Elastic Compliance Matrix: (Units=1/GPa)
#
#
# Indices 1 2 3 4 5 6 
#
# 1 0.008855 -0.004042 -0.002420 0.000000 0.000000 0.000000
# 2 -0.004042 0.026952 -0.006585 0.000000 0.000000 0.000000
# 3 -0.002420 -0.006585 0.010157 0.000000 0.000000 0.000000
# 4 0.000000 0.000000 0.000000 0.166468 0.000000 0.000000
# 5 0.000000 0.000000 0.000000 0.000000 0.031554 0.000000
# 6 0.000000 0.000000 0.000000 0.000000 0.000000 0.085242
#
#
# Mechanical properties :
#
#
# Convention : Reuss Voigt Hill
#
# Bulk Modulus (GPa) = 50.32252 67.92858 59.12555
# Shear Modulus (GPa) = 13.81429 23.31912 18.56670
#
# Velocity S-wave (km/s) = 2.77834 3.60975 3.22099
# Velocity P-wave (km/s) = 6.19771 7.43849 6.84627
#
# Compressibility (1/GPa) = 0.01987182
#
# Stress axis : x y z
#
# Youngs Moduli (GPa) = 112.93047 37.10262 98.45115
#
# Poissons Ratio (x) = 0.14996 0.23823
# Poissons Ratio (y) = 0.45645 0.64828
# Poissons Ratio (z) = 0.27327 0.24431
#
# Static dielectric constant tensor:
#      x y z
#    x 4.180910 0.000000 0.000000 
#    y 0.000000 2.800070 0.000000 
#    z 0.000000 0.000000 3.389880 
# 
# 
# High freq. dielectric constant tensor:
#      x y z
#    x 1.708730 0.000000 0.000000 
#    y 0.000000 1.628240 0.000000 
#    z 0.000000 0.000000 1.708610 
# 
# From -- ./inp_files/37763.got.cif
#   From: 2010.03.12/outbox.cif.g09.slc.cpg/sg67_19_cif.got.tgz:37763.got - 2010.04.10 22:41:39.
