data_PCOD8278365
_publ_section_title
;
Structure prediction by ZEFSAII (Michael W. Deem and Ramdas Pophale) SiO2 
 PCOD8278365
Probable space group: C M M A
;
_chemical_formula_sum "Si O2"
_cell_formula_units_Z 96
_cell_length_a 22.571768
_cell_length_b 14.993175
_cell_length_c 12.497031
_cell_angle_alpha 90.000000
_cell_angle_beta 90.000000
_cell_angle_gamma 90.000000
_cell_volume 4229.276070
_symmetry_space_group_name_H-M "C M M A"
_symmetry_group_IT_number 67
_symmetry_cell_setting 'orthorhombic'
loop_
_space_group_symop_operation_xyz
x,y,z
-x,1/2-y,z
x,-y,-z
-x,1/2+y,-z
-x,-y,-z
x,1/2+y,-z
-x,y,z
x,1/2-y,z
1/2+x,1/2+y,z
1/2-x,-y,z
1/2+x,1/2-y,-z
1/2-x,y,-z
1/2-x,1/2-y,-z
1/2+x,y,-z
1/2-x,1/2+y,z
1/2+x,-y,z
loop_
_atom_site_type_symbol
_atom_site_label
_atom_site_fract_x
_atom_site_fract_y
_atom_site_fract_z
Si Si1 0.936169 0.406178 0.057317
Si Si2 0.637230 0.849185 0.431979
Si Si3 0.808205 0.401491 0.049129
Si Si4 0.762803 0.400882 0.283701
Si Si5 0.433848 0.019654 0.710931
Si Si6 0.637368 0.151234 0.319460
O O1 0.873652 0.356947 0.023610
O O2 0.931865 0.420759 0.183655
O O3 0.000000 0.355885 0.032567
O O4 0.939374 0.500000 0.000000
O O5 0.609582 0.750000 0.417380
O O6 0.700905 0.850052 0.374827
O O7 0.646038 0.870940 0.556057
O O8 0.595223 0.924779 0.384375
O O9 0.801939 0.405408 0.176487
O O10 0.808951 0.500000 0.000000
O O11 0.750000 0.350480 0.000000
O O12 0.750000 0.500000 0.325339
O O13 0.701448 0.349911 0.262500
O O14 0.500000 0.997441 0.674557
O O15 0.402959 0.924502 0.733832
O O16 0.609568 0.250000 0.301482
#
# Coordination Sequence:
#
# PCOD8278365 Si02
#       6
#    16  16  16  16  16  16
#     4   9  18  34  59  91 121 159 205 248 308 379
#     4  11  24  41  61  90 127 164 208 262 317 371
#     4  10  18  30  55  95 123 156 202 258 313 373
#     4  12  20  36  63  91 120 166 205 254 309 378
#     4  11  23  41  66  93 121 164 215 256 309 379
#     4  11  25  41  60  90 127 166 209 262 318 371
#
# _framework density 22.698919
#
# number of rings (size 3 to 8) (size 9 to 14) (size 15 to 20)
#    0.000    1.333    5.000    1.500    2.333    4.000 
#    0.000    1.667    0.000    5.000    0.000    4.667 
#    0.000    0.000    0.000    0.000    0.000    0.000 
#
# Total GULP energy -594727.259511 kJ/mol
# GULP energy per Si atom -12390.151240 kJ/mol
# Density = 2.264726 g / cm^3
# Si number density = 22.698919 Si / 1000 Ang^3
#
#
#
# Elastic Constant Matrix: (Units=GPa)
#
#
# Indices 1 2 3 4 5 6 
#
# 1 225.4518 17.4708 1.8591 0.0000 0.0000 0.0000
# 2 17.4708 65.2397 -7.6123 0.0000 0.0000 0.0000
# 3 1.8591 -7.6123 39.6369 0.0000 0.0000 0.0000
# 4 0.0000 0.0000 0.0000 5.7658 0.0000 0.0000
# 5 0.0000 0.0000 0.0000 0.0000 25.3540 0.0000
# 6 0.0000 0.0000 0.0000 0.0000 0.0000 3.5042
#
#
#
# Elastic Compliance Matrix: (Units=1/GPa)
#
#
# Indices 1 2 3 4 5 6 
#
# 1 0.004538 -0.001268 -0.000456 0.000000 0.000000 0.000000
# 2 -0.001268 0.016034 0.003139 0.000000 0.000000 0.000000
# 3 -0.000456 0.003139 0.025853 0.000000 0.000000 0.000000
# 4 0.000000 0.000000 0.000000 0.173436 0.000000 0.000000
# 5 0.000000 0.000000 0.000000 0.000000 0.039441 0.000000
# 6 0.000000 0.000000 0.000000 0.000000 0.000000 0.285369
#
#
# Mechanical properties :
#
#
# Convention : Reuss Voigt Hill
#
# Bulk Modulus (GPa) = 20.30337 39.30705 29.80521
# Shear Modulus (GPa) = 8.95639 28.16554 18.56096
#
# Velocity S-wave (km/s) = 1.98854 3.52637 2.86265
# Velocity P-wave (km/s) = 3.77312 5.82534 4.90770
#
# Compressibility (1/GPa) = 0.04925292
#
# Stress axis : x y z
#
# Youngs Moduli (GPa) = 220.38114 62.36745 38.67986
#
# Poissons Ratio (x) = 0.07911 0.01765
# Poissons Ratio (y) = 0.27953 -0.12141
# Poissons Ratio (z) = 0.10059 -0.19576
#
# Static dielectric constant tensor:
#      x y z
#    x 5.055380 0.000000 0.000000 
#    y 0.000000 3.716310 0.000000 
#    z 0.000000 0.000000 4.115600 
# 
# 
# High freq. dielectric constant tensor:
#      x y z
#    x 1.912420 0.000000 0.000000 
#    y 0.000000 1.855350 0.000000 
#    z 0.000000 0.000000 1.894240 
# 
# From -- ./inp_files/21921.got.cif
#   From: 2010.03.12/outbox.cif.g09.slc.cpg/sg67_11_cif.got.tgz:21921.got - 2010.04.10 22:41:39.
