data_PCOD8278591
_publ_section_title
;
Structure prediction by ZEFSAII (Michael W. Deem and Ramdas Pophale) SiO2 
 PCOD8278591
Probable space group: C M M A
;
_chemical_formula_sum "Si O2"
_cell_formula_units_Z 96
_cell_length_a 9.147522
_cell_length_b 27.652066
_cell_length_c 24.026053
_cell_angle_alpha 90.000000
_cell_angle_beta 90.000000
_cell_angle_gamma 90.000000
_cell_volume 6077.339221
_symmetry_space_group_name_H-M "C M M A"
_symmetry_group_IT_number 67
_symmetry_cell_setting 'orthorhombic'
loop_
_space_group_symop_operation_xyz
x,y,z
-x,1/2-y,z
x,-y,-z
-x,1/2+y,-z
-x,-y,-z
x,1/2+y,-z
-x,y,z
x,1/2-y,z
1/2+x,1/2+y,z
1/2-x,-y,z
1/2+x,1/2-y,-z
1/2-x,y,-z
1/2-x,1/2-y,-z
1/2+x,y,-z
1/2-x,1/2+y,z
1/2+x,-y,z
loop_
_atom_site_type_symbol
_atom_site_label
_atom_site_fract_x
_atom_site_fract_y
_atom_site_fract_z
Si Si1 0.827898 0.856378 0.556775
Si Si2 0.330157 0.551077 0.825945
Si Si3 0.673717 0.196457 0.665626
Si Si4 0.328165 0.104467 0.730977
Si Si5 0.830237 0.049008 0.379797
Si Si6 0.169507 0.551023 0.050525
O O1 0.750000 0.841948 0.500000
O O2 0.771369 0.819849 0.604636
O O3 0.785186 0.910694 0.575084
O O4 0.000000 0.851614 0.548221
O O5 0.500000 0.542439 0.812091
O O6 0.250000 0.500000 0.818506
O O7 0.262578 0.590777 0.785301
O O8 0.311332 0.573817 0.888055
O O9 0.500000 0.196023 0.664172
O O10 0.735149 0.250000 0.679561
O O11 0.724080 0.158195 0.712548
O O12 0.500000 0.103428 0.744513
O O13 0.289107 0.066953 0.681992
O O14 0.000000 0.038237 0.383119
O O15 0.750000 0.000000 0.395231
O O16 0.250000 0.500000 0.053343
O O17 0.000000 0.544819 0.035425
O O18 0.250000 0.580872 0.000000
#
# Coordination Sequence:
#
# PCOD8278591 Si02
#       6
#    16  16  16  16  16  16
#     4   9  18  31  45  63  85 106 133 169 206 247
#     4  10  19  28  40  61  89 119 148 178 211 245
#     4   8  15  30  50  67  84 108 136 169 211 257
#     4   9  17  29  45  64  84 108 141 176 210 252
#     4   9  18  30  42  58  81 109 139 170 204 242
#     4   9  16  25  37  54  79 113 149 180 208 238
#
# _framework density 15.796386
#
# number of rings (size 3 to 8) (size 9 to 14) (size 15 to 20)
#    0.000    3.000    0.000    4.000    0.000    5.333 
#    0.000    4.167    0.000    1.500    0.000    0.000 
#    0.000    0.667    0.000    1.500    0.000    2.667 
#
# Total GULP energy -594834.088322 kJ/mol
# GULP energy per Si atom -12392.376840 kJ/mol
# Density = 1.576043 g / cm^3
# Si number density = 15.796386 Si / 1000 Ang^3
#
#
#
# Elastic Constant Matrix: (Units=GPa)
#
#
# Indices 1 2 3 4 5 6 
#
# 1 64.0882 29.6810 49.1995 0.0000 0.0000 0.0000
# 2 29.6810 94.9815 44.7455 0.0000 0.0000 0.0000
# 3 49.1995 44.7455 122.0003 0.0000 0.0000 0.0000
# 4 0.0000 0.0000 0.0000 10.2885 0.0000 0.0000
# 5 0.0000 0.0000 0.0000 0.0000 29.0834 0.0000
# 6 0.0000 0.0000 0.0000 0.0000 0.0000 13.6128
#
#
#
# Elastic Compliance Matrix: (Units=1/GPa)
#
#
# Indices 1 2 3 4 5 6 
#
# 1 0.023516 -0.003483 -0.008206 0.000000 0.000000 0.000000
# 2 -0.003483 0.013243 -0.003453 0.000000 0.000000 0.000000
# 3 -0.008206 -0.003453 0.012772 0.000000 0.000000 0.000000
# 4 0.000000 0.000000 0.000000 0.097196 0.000000 0.000000
# 5 0.000000 0.000000 0.000000 0.000000 0.034384 0.000000
# 6 0.000000 0.000000 0.000000 0.000000 0.000000 0.073460
#
#
# Mechanical properties :
#
#
# Convention : Reuss Voigt Hill
#
# Bulk Modulus (GPa) = 51.95154 58.70244 55.32699
# Shear Modulus (GPa) = 17.16615 21.09321 19.12968
#
# Velocity S-wave (km/s) = 3.30011 3.65817 3.48374
# Velocity P-wave (km/s) = 6.89062 7.42196 7.16122
#
# Compressibility (1/GPa) = 0.01924871
#
# Stress axis : x y z
#
# Youngs Moduli (GPa) = 42.52395 75.51028 78.29426
#
# Poissons Ratio (x) = 0.26298 0.64249
# Poissons Ratio (y) = 0.14810 0.27032
# Poissons Ratio (z) = 0.34896 0.26071
#
# Static dielectric constant tensor:
#      x y z
#    x 2.866400 0.000000 0.000000 
#    y 0.000000 2.974510 0.000000 
#    z 0.000000 0.000000 3.472020 
# 
# 
# High freq. dielectric constant tensor:
#      x y z
#    x 1.597830 0.000000 0.000000 
#    y 0.000000 1.570930 0.000000 
#    z 0.000000 0.000000 1.610960 
# 
# From -- ./inp_files/40949.got.cif
#   From: 2010.03.12/outbox.cif.g09.slc.cpg/sg67_21_cif.got.tgz:40949.got - 2010.04.10 22:41:39.
