data_PCOD8278774
_publ_section_title
;
Structure prediction by ZEFSAII (Michael W. Deem and Ramdas Pophale) SiO2 
 PCOD8278774
Probable space group: C M M A
;
_chemical_formula_sum "Si O2"
_cell_formula_units_Z 112
_cell_length_a 9.609096
_cell_length_b 18.743134
_cell_length_c 35.949486
_cell_angle_alpha 90.000000
_cell_angle_beta 90.000000
_cell_angle_gamma 90.000000
_cell_volume 6474.666860
_symmetry_space_group_name_H-M "C M M A"
_symmetry_group_IT_number 67
_symmetry_cell_setting 'orthorhombic'
loop_
_space_group_symop_operation_xyz
x,y,z
-x,1/2-y,z
x,-y,-z
-x,1/2+y,-z
-x,-y,-z
x,1/2+y,-z
-x,y,z
x,1/2-y,z
1/2+x,1/2+y,z
1/2-x,-y,z
1/2+x,1/2-y,-z
1/2-x,y,-z
1/2-x,1/2-y,-z
1/2+x,y,-z
1/2-x,1/2+y,z
1/2+x,-y,z
loop_
_atom_site_type_symbol
_atom_site_label
_atom_site_fract_x
_atom_site_fract_y
_atom_site_fract_z
Si Si1 0.339785 0.567639 0.100425
Si Si2 0.654388 0.834795 0.467527
Si Si3 0.665856 0.427101 0.681788
Si Si4 0.839426 0.167851 0.033992
Si Si5 0.334657 0.670666 0.385700
Si Si6 0.335741 0.670563 0.249857
Si Si7 0.661982 0.430748 0.815220
O O1 0.500000 0.545631 0.096285
O O2 0.250000 0.500000 0.089029
O O3 0.298689 0.630741 0.072609
O O4 0.307400 0.593055 0.142428
O O5 0.500000 0.867009 0.472566
O O6 0.647869 0.750000 0.470957
O O7 0.750000 0.868039 0.500000
O O8 0.715970 0.854544 0.426726
O O9 0.500000 0.441742 0.682391
O O10 0.750000 0.500000 0.684474
O O11 0.715291 0.386528 0.644526
O O12 0.714826 0.377793 0.715963
O O13 0.801963 0.250000 0.039947
O O14 0.000000 0.155988 0.023860
O O15 0.750000 0.135535 0.000000
O O16 0.500000 0.675683 0.385987
O O17 0.275609 0.750000 0.376196
O O18 0.500000 0.678010 0.251817
O O19 0.269069 0.750000 0.252061
O O20 0.290104 0.634006 0.211129
O O21 0.500000 0.449411 0.809085
O O22 0.750000 0.500000 0.804270
#
# Coordination Sequence:
#
# PCOD8278774 Si02
#       7
#    16  16  16  16  16  16  16
#     4   9  18  31  47  68  93 121 151 184 223 266
#     4   8  13  22  38  61  86 110 139 177 220 262
#     4  10  19  31  48  68  91 119 150 184 222 265
#     4   9  18  32  48  66  89 118 152 189 229 270
#     4   8  14  26  45  66  87 115 151 186 218 258
#     4   9  17  29  48  73  94 115 150 190 221 255
#     4   9  17  30  48  69  94 122 150 182 221 265
#
# _framework density 17.298188
#
# number of rings (size 3 to 8) (size 9 to 14) (size 15 to 20)
#    0.000    3.143    0.000    1.714    0.000    3.143 
#    0.000    5.000    0.000    4.286    0.000    7.000 
#    0.000    0.000    0.000    0.000    0.000    0.000 
#
# Total GULP energy -694164.620329 kJ/mol
# GULP energy per Si atom -12395.796792 kJ/mol
# Density = 1.725882 g / cm^3
# Si number density = 17.298188 Si / 1000 Ang^3
#
#
#
# Elastic Constant Matrix: (Units=GPa)
#
#
# Indices 1 2 3 4 5 6 
#
# 1 40.1703 39.1947 45.1441 0.0000 0.0000 0.0000
# 2 39.1947 114.3644 83.8283 0.0000 0.0000 0.0000
# 3 45.1441 83.8283 149.1751 0.0000 0.0000 0.0000
# 4 0.0000 0.0000 0.0000 17.4004 0.0000 0.0000
# 5 0.0000 0.0000 0.0000 0.0000 22.0016 0.0000
# 6 0.0000 0.0000 0.0000 0.0000 0.0000 22.8293
#
#
#
# Elastic Compliance Matrix: (Units=1/GPa)
#
#
# Indices 1 2 3 4 5 6 
#
# 1 0.042254 -0.008686 -0.007906 0.000000 0.000000 0.000000
# 2 -0.008686 0.016654 -0.006730 0.000000 0.000000 0.000000
# 3 -0.007906 -0.006730 0.012878 0.000000 0.000000 0.000000
# 4 0.000000 0.000000 0.000000 0.057470 0.000000 0.000000
# 5 0.000000 0.000000 0.000000 0.000000 0.045451 0.000000
# 6 0.000000 0.000000 0.000000 0.000000 0.000000 0.043803
#
#
# Mechanical properties :
#
#
# Convention : Reuss Voigt Hill
#
# Bulk Modulus (GPa) = 39.77444 71.11601 55.44522
# Shear Modulus (GPa) = 18.27918 21.48245 19.88082
#
# Velocity S-wave (km/s) = 3.25424 3.52787 3.39381
# Velocity P-wave (km/s) = 6.09618 7.60234 6.89054
#
# Compressibility (1/GPa) = 0.02514177
#
# Stress axis : x y z
#
# Youngs Moduli (GPa) = 23.66627 60.04609 77.65224
#
# Poissons Ratio (x) = 0.52157 0.61392
# Poissons Ratio (y) = 0.20557 0.52259
# Poissons Ratio (z) = 0.18711 0.40410
#
# Static dielectric constant tensor:
#      x y z
#    x 3.012100 0.000000 0.000000 
#    y 0.000000 3.150820 0.000000 
#    z 0.000000 0.000000 3.584750 
# 
# 
# High freq. dielectric constant tensor:
#      x y z
#    x 1.633470 0.000000 0.000000 
#    y 0.000000 1.648120 0.000000 
#    z 0.000000 0.000000 1.685880 
# 
# From -- ./inp_files/45607.got.cif
#   From: 2010.03.12/outbox.cif.g09.slc.cpg/sg67_23_cif.got.tgz:45607.got - 2010.04.10 22:41:39.
