data_PCOD8278553
_publ_section_title
;
Structure prediction by ZEFSAII (Michael W. Deem and Ramdas Pophale) SiO2 
 PCOD8278553
Probable space group: C M M A
;
_chemical_formula_sum "Si O2"
_cell_formula_units_Z 88
_cell_length_a 27.449584
_cell_length_b 10.076719
_cell_length_c 16.816569
_cell_angle_alpha 90.000000
_cell_angle_beta 90.000000
_cell_angle_gamma 90.000000
_cell_volume 4651.492324
_symmetry_space_group_name_H-M "C M M A"
_symmetry_group_IT_number 67
_symmetry_cell_setting 'orthorhombic'
loop_
_space_group_symop_operation_xyz
x,y,z
-x,1/2-y,z
x,-y,-z
-x,1/2+y,-z
-x,-y,-z
x,1/2+y,-z
-x,y,z
x,1/2-y,z
1/2+x,1/2+y,z
1/2-x,-y,z
1/2+x,1/2-y,-z
1/2-x,y,-z
1/2-x,1/2-y,-z
1/2+x,y,-z
1/2-x,1/2+y,z
1/2+x,-y,z
loop_
_atom_site_type_symbol
_atom_site_label
_atom_site_fract_x
_atom_site_fract_y
_atom_site_fract_z
Si Si1 0.135706 0.515786 0.298574
Si Si2 0.944804 0.403238 0.573714
Si Si3 0.205140 0.250000 0.752582
Si Si4 0.316697 0.750000 0.270023
Si Si5 0.000000 0.600913 0.070134
Si Si6 0.832639 0.250000 0.919644
Si Si7 0.599606 0.485423 0.128487
Si Si8 0.644451 0.250000 0.909186
O O1 0.097508 0.561139 0.364564
O O2 0.177356 0.623102 0.281864
O O3 0.162103 0.376471 0.317275
O O4 0.104420 0.489493 0.221025
O O5 0.936791 0.500000 0.500000
O O6 0.938353 0.250000 0.547142
O O7 0.000000 0.423833 0.608170
O O8 0.258996 0.250000 0.718295
O O9 0.208657 0.250000 0.850298
O O10 0.326788 0.750000 0.174399
O O11 0.953648 0.573584 0.123404
O O12 0.000000 0.750000 0.037174
O O13 0.000000 0.500000 0.000000
O O14 0.862781 0.381996 0.906367
O O15 0.817871 0.250000 0.014160
O O16 0.608683 0.623480 0.082293
#
# Coordination Sequence:
#
# PCOD8278553 Si02
#       8
#    16  16   8   8   8   8  16   8
#     4  10  21  40  60  89 118 157 195 240 293 348
#     4  10  22  40  67  97 125 154 187 232 288 353
#     4  10  20  37  61  87 115 155 212 246 301 347
#     4  10  22  37  59  87 119 161 200 252 299 349
#     4  12  24  34  50  74 107 148 196 245 292 343
#     4  10  18  34  54  77 108 148 199 254 296 350
#     4  10  22  34  52  76 107 153 196 239 287 349
#     4  10  20  36  52  75 114 148 197 252 312 338
#
# _framework density 18.918659999999999
#
# number of rings (size 3 to 8) (size 9 to 14) (size 15 to 20)
#    0.000    1.818    1.818    2.182    3.818    0.364 
#    0.000    0.000    0.000    9.818    0.000    0.000 
#    0.000    0.000    0.000    0.000    0.000    0.000 
#
# Total GULP energy -545245.763440 kJ/mol
# GULP energy per Si atom -12391.949169 kJ/mol
# Density = 1.887560 g / cm^3
# Si number density = 18.918660 Si / 1000 Ang^3
#
#
#
# Elastic Constant Matrix: (Units=GPa)
#
#
# Indices 1 2 3 4 5 6 
#
# 1 100.0204 47.0334 34.2000 0.0000 0.0000 0.0000
# 2 47.0334 168.4350 35.9305 0.0000 0.0000 0.0000
# 3 34.2000 35.9305 75.0957 0.0000 0.0000 0.0000
# 4 0.0000 0.0000 0.0000 35.0986 0.0000 0.0000
# 5 0.0000 0.0000 0.0000 0.0000 19.3135 0.0000
# 6 0.0000 0.0000 0.0000 0.0000 0.0000 22.1347
#
#
#
# Elastic Compliance Matrix: (Units=1/GPa)
#
#
# Indices 1 2 3 4 5 6 
#
# 1 0.012784 -0.002592 -0.004582 0.000000 0.000000 0.000000
# 2 -0.002592 0.007138 -0.002234 0.000000 0.000000 0.000000
# 3 -0.004582 -0.002234 0.016472 0.000000 0.000000 0.000000
# 4 0.000000 0.000000 0.000000 0.028491 0.000000 0.000000
# 5 0.000000 0.000000 0.000000 0.000000 0.051777 0.000000
# 6 0.000000 0.000000 0.000000 0.000000 0.000000 0.045178
#
#
# Mechanical properties :
#
#
# Convention : Reuss Voigt Hill
#
# Bulk Modulus (GPa) = 56.89443 64.20878 60.55160
# Shear Modulus (GPa) = 26.80750 30.40183 28.60466
#
# Velocity S-wave (km/s) = 3.76837 4.01306 3.89264
# Velocity P-wave (km/s) = 7.00519 7.44889 7.23044
#
# Compressibility (1/GPa) = 0.01757641
#
# Stress axis : x y z
#
# Youngs Moduli (GPa) = 78.22561 140.10447 60.70925
#
# Poissons Ratio (x) = 0.36319 0.27814
# Poissons Ratio (y) = 0.20279 0.13565
# Poissons Ratio (z) = 0.35839 0.31306
#
# Static dielectric constant tensor:
#      x y z
#    x 3.269950 0.000000 0.000000 
#    y 0.000000 3.686870 0.000000 
#    z 0.000000 0.000000 3.533310 
# 
# 
# High freq. dielectric constant tensor:
#      x y z
#    x 1.726760 0.000000 0.000000 
#    y 0.000000 1.761810 0.000000 
#    z 0.000000 0.000000 1.712800 
# 
# From -- ./inp_files/36253.got.cif
#   From: 2010.03.12/outbox.cif.g09.slc.cpg/sg67_19_cif.got.tgz:36253.got - 2010.04.10 22:41:39.
