data_PCOD8278245
_publ_section_title
;
Structure prediction by ZEFSAII (Michael W. Deem and Ramdas Pophale) SiO2 
 PCOD8278245
Probable space group: C M M A
;
_chemical_formula_sum "Si O2"
_cell_formula_units_Z 112
_cell_length_a 13.804255
_cell_length_b 27.361801
_cell_length_c 16.390559
_cell_angle_alpha 90.000000
_cell_angle_beta 90.000000
_cell_angle_gamma 90.000000
_cell_volume 6190.866210
_symmetry_space_group_name_H-M "C M M A"
_symmetry_group_IT_number 67
_symmetry_cell_setting 'orthorhombic'
loop_
_space_group_symop_operation_xyz
x,y,z
-x,1/2-y,z
x,-y,-z
-x,1/2+y,-z
-x,-y,-z
x,1/2+y,-z
-x,y,z
x,1/2-y,z
1/2+x,1/2+y,z
1/2-x,-y,z
1/2+x,1/2-y,-z
1/2-x,y,-z
1/2-x,1/2-y,-z
1/2+x,y,-z
1/2-x,1/2+y,z
1/2+x,-y,z
loop_
_atom_site_type_symbol
_atom_site_label
_atom_site_fract_x
_atom_site_fract_y
_atom_site_fract_z
Si Si1 0.615099 0.857878 0.277140
Si Si2 0.109940 0.384643 0.623967
Si Si3 0.754235 0.306027 0.402913
Si Si4 0.106705 0.308148 0.954842
Si Si5 0.267488 0.445683 0.690316
Si Si6 0.605553 0.053574 0.535379
Si Si7 0.300586 0.807747 0.120912
O O1 0.500000 0.857255 0.280256
O O2 0.655792 0.836533 0.363600
O O3 0.654864 0.913034 0.259654
O O4 0.654127 0.824795 0.204908
O O5 0.155203 0.330433 0.629210
O O6 0.163130 0.419763 0.688937
O O7 0.123021 0.405952 0.533394
O O8 0.000000 0.381289 0.652140
O O9 0.759741 0.250000 0.373258
O O10 0.750000 0.309263 0.500000
O O11 0.104112 0.250000 0.955990
O O12 0.188810 0.326071 0.890554
O O13 0.000000 0.328988 0.931406
O O14 0.135165 0.327134 0.045277
O O15 0.250000 0.500000 0.726541
O O16 0.306699 0.445965 0.597998
O O17 0.500000 0.064330 0.577118
O O18 0.601703 0.000000 0.500000
O O19 0.301752 0.750000 0.121380
#
# Coordination Sequence:
#
# PCOD8278245 Si02
#       7
#    16  16  16  16  16  16  16
#     4  11  23  37  55  79 105 136 178 224 273 324
#     4  10  20  32  48  69  91 118 159 212 268 322
#     4  10  22  38  52  67  95 138 183 222 256 299
#     4   8  14  27  51  82 115 147 175 209 258 318
#     4  11  21  33  49  68  99 128 162 212 269 323
#     4  10  18  29  50  74  91 116 157 212 282 338
#     4   9  17  30  51  83 118 147 177 213 259 316
#
# _framework density 18.091168
#
# number of rings (size 3 to 8) (size 9 to 14) (size 15 to 20)
#    0.000    2.143    1.429    4.286    0.000    4.286 
#    0.000    4.286    0.000    3.429    0.000    2.000 
#    0.000    5.714    0.000    0.000    0.000    0.000 
#
# Total GULP energy -693941.276398 kJ/mol
# GULP energy per Si atom -12391.808507 kJ/mol
# Density = 1.804999 g / cm^3
# Si number density = 18.091168 Si / 1000 Ang^3
#
#
#
# Elastic Constant Matrix: (Units=GPa)
#
#
# Indices 1 2 3 4 5 6 
#
# 1 169.1372 41.6160 30.2895 0.0000 0.0000 0.0000
# 2 41.6160 86.9877 7.1147 0.0000 0.0000 0.0000
# 3 30.2895 7.1147 47.0682 0.0000 0.0000 0.0000
# 4 0.0000 0.0000 0.0000 7.2416 0.0000 0.0000
# 5 0.0000 0.0000 0.0000 0.0000 19.7378 0.0000
# 6 0.0000 0.0000 0.0000 0.0000 0.0000 20.5885
#
#
#
# Elastic Compliance Matrix: (Units=1/GPa)
#
#
# Indices 1 2 3 4 5 6 
#
# 1 0.007481 -0.003225 -0.004326 0.000000 0.000000 0.000000
# 2 -0.003225 0.013030 0.000106 0.000000 0.000000 0.000000
# 3 -0.004326 0.000106 0.024014 0.000000 0.000000 0.000000
# 4 0.000000 0.000000 0.000000 0.138092 0.000000 0.000000
# 5 0.000000 0.000000 0.000000 0.000000 0.050664 0.000000
# 6 0.000000 0.000000 0.000000 0.000000 0.000000 0.048571
#
#
# Mechanical properties :
#
#
# Convention : Reuss Voigt Hill
#
# Bulk Modulus (GPa) = 33.74585 51.24817 42.49701
# Shear Modulus (GPa) = 16.30680 24.45844 20.38262
#
# Velocity S-wave (km/s) = 3.00554 3.68088 3.36022
# Velocity P-wave (km/s) = 5.54419 6.81575 6.21259
#
# Compressibility (1/GPa) = 0.02963327
#
# Stress axis : x y z
#
# Youngs Moduli (GPa) = 133.67809 76.74540 41.64244
#
# Poissons Ratio (x) = 0.24750 0.18017
# Poissons Ratio (y) = 0.43111 -0.00440
# Poissons Ratio (z) = 0.57836 -0.00812
#
# Static dielectric constant tensor:
#      x y z
#    x 3.824200 0.000000 0.000000 
#    y 0.000000 3.307170 0.000000 
#    z 0.000000 0.000000 3.449730 
# 
# 
# High freq. dielectric constant tensor:
#      x y z
#    x 1.720550 0.000000 0.000000 
#    y 0.000000 1.683260 0.000000 
#    z 0.000000 0.000000 1.655520 
# 
# From -- ./inp_files/27880.got.cif
#   From: 2010.03.12/outbox.cif.g09.slc.cpg/sg67_14_cif.got.tgz:27880.got - 2010.04.10 22:41:39.
