data_PCOD8278830
_publ_section_title
;
Structure prediction by ZEFSAII (Michael W. Deem and Ramdas Pophale) SiO2 
 PCOD8278830
Probable space group: C M M A
;
_chemical_formula_sum "Si O2"
_cell_formula_units_Z 88
_cell_length_a 8.866212
_cell_length_b 16.293466
_cell_length_c 30.351024
_cell_angle_alpha 90.000000
_cell_angle_beta 90.000000
_cell_angle_gamma 90.000000
_cell_volume 4384.549105
_symmetry_space_group_name_H-M "C M M A"
_symmetry_group_IT_number 67
_symmetry_cell_setting 'orthorhombic'
loop_
_space_group_symop_operation_xyz
x,y,z
-x,1/2-y,z
x,-y,-z
-x,1/2+y,-z
-x,-y,-z
x,1/2+y,-z
-x,y,z
x,1/2-y,z
1/2+x,1/2+y,z
1/2-x,-y,z
1/2+x,1/2-y,-z
1/2-x,y,-z
1/2-x,1/2-y,-z
1/2+x,y,-z
1/2-x,1/2+y,z
1/2+x,-y,z
loop_
_atom_site_type_symbol
_atom_site_label
_atom_site_fract_x
_atom_site_fract_y
_atom_site_fract_z
Si Si1 0.180068 0.589253 0.720301
Si Si2 0.178963 0.840461 0.812205
Si Si3 0.820981 0.750000 0.952310
Si Si4 0.319442 0.410547 0.366438
Si Si5 0.678325 0.585305 0.098472
Si Si6 0.334162 0.346345 0.458100
O O1 0.250000 0.500000 0.722076
O O2 0.238750 0.633887 0.764254
O O3 0.248389 0.634314 0.676781
O O4 0.000000 0.586194 0.717310
O O5 0.242134 0.750000 0.822982
O O6 0.232010 0.902127 0.850772
O O7 0.000000 0.838382 0.811643
O O8 0.766436 0.666174 0.928148
O O9 0.000000 0.750000 0.955172
O O10 0.750000 0.750000 0.000000
O O11 0.500000 0.411151 0.362465
O O12 0.250000 0.500000 0.368608
O O13 0.260502 0.365594 0.410675
O O14 0.500000 0.576414 0.094359
O O15 0.750000 0.500000 0.080571
O O16 0.500000 0.385450 0.458466
O O17 0.340638 0.250000 0.464606
O O18 0.250000 0.386566 0.500000
#
# Coordination Sequence:
#
# PCOD8278830 Si02
#       6
#    16  16   8  16  16  16
#     4  10  19  31  50  74 101 134 171 212 258 310
#     4   9  17  32  54  79 108 142 183 226 269 325
#     4  10  22  40  62  86 118 158 196 240 291 344
#     4  10  20  34  51  71 100 133 166 207 255 310
#     4  10  20  37  61  86 115 154 195 237 290 343
#     4   9  19  35  53  72  94 124 161 203 253 306
#
# _framework density 20.070478999999999
#
# number of rings (size 3 to 8) (size 9 to 14) (size 15 to 20)
#    0.000    2.364    0.909    2.727    0.000    3.636 
#    0.000    4.545    0.000    3.818    0.000    0.000 
#    0.000    0.000    0.000    0.000    0.000    0.000 
#
# Total GULP energy -545213.385266 kJ/mol
# GULP energy per Si atom -12391.213302 kJ/mol
# Density = 2.002480 g / cm^3
# Si number density = 20.070479 Si / 1000 Ang^3
#
#
#
# Elastic Constant Matrix: (Units=GPa)
#
#
# Indices 1 2 3 4 5 6 
#
# 1 52.7575 25.0852 41.8164 0.0000 0.0000 0.0000
# 2 25.0852 97.1751 55.4477 0.0000 0.0000 0.0000
# 3 41.8164 55.4477 175.0022 0.0000 0.0000 0.0000
# 4 0.0000 0.0000 0.0000 32.8235 0.0000 0.0000
# 5 0.0000 0.0000 0.0000 0.0000 26.9359 0.0000
# 6 0.0000 0.0000 0.0000 0.0000 0.0000 20.3317
#
#
#
# Elastic Compliance Matrix: (Units=1/GPa)
#
#
# Indices 1 2 3 4 5 6 
#
# 1 0.024387 -0.003626 -0.004678 0.000000 0.000000 0.000000
# 2 -0.003626 0.013101 -0.003284 0.000000 0.000000 0.000000
# 3 -0.004678 -0.003284 0.007873 0.000000 0.000000 0.000000
# 4 0.000000 0.000000 0.000000 0.030466 0.000000 0.000000
# 5 0.000000 0.000000 0.000000 0.000000 0.037125 0.000000
# 6 0.000000 0.000000 0.000000 0.000000 0.000000 0.049184
#
#
# Mechanical properties :
#
#
# Convention : Reuss Voigt Hill
#
# Bulk Modulus (GPa) = 45.07959 63.29259 54.18609
# Shear Modulus (GPa) = 25.94605 29.52391 27.73498
#
# Velocity S-wave (km/s) = 3.59938 3.83954 3.72140
# Velocity P-wave (km/s) = 6.30741 7.15959 6.74697
#
# Compressibility (1/GPa) = 0.02218299
#
# Stress axis : x y z
#
# Youngs Moduli (GPa) = 41.00576 76.33119 127.02046
#
# Poissons Ratio (x) = 0.27677 0.59425
# Poissons Ratio (y) = 0.14868 0.41719
# Poissons Ratio (z) = 0.19184 0.25071
#
# Static dielectric constant tensor:
#      x y z
#    x 3.525470 0.000000 0.000000 
#    y 0.000000 3.554450 0.000000 
#    z 0.000000 0.000000 4.797360 
# 
# 
# High freq. dielectric constant tensor:
#      x y z
#    x 1.757050 0.000000 0.000000 
#    y 0.000000 1.770960 0.000000 
#    z 0.000000 0.000000 1.804210 
# 
# From -- ./inp_files/45222.got.cif
#   From: 2010.03.12/outbox.cif.g09.slc.cpg/sg67_23_cif.got.tgz:45222.got - 2010.04.10 22:41:39.
