data_PCOD8278908
_publ_section_title
;
Structure prediction by ZEFSAII (Michael W. Deem and Ramdas Pophale) SiO2 
 PCOD8278908
Probable space group: C M M A
;
_chemical_formula_sum "Si O2"
_cell_formula_units_Z 88
_cell_length_a 28.178473
_cell_length_b 8.663220
_cell_length_c 19.182449
_cell_angle_alpha 90.000000
_cell_angle_beta 90.000000
_cell_angle_gamma 90.000000
_cell_volume 4682.748683
_symmetry_space_group_name_H-M "C M M A"
_symmetry_group_IT_number 67
_symmetry_cell_setting 'orthorhombic'
loop_
_space_group_symop_operation_xyz
x,y,z
-x,1/2-y,z
x,-y,-z
-x,1/2+y,-z
-x,-y,-z
x,1/2+y,-z
-x,y,z
x,1/2-y,z
1/2+x,1/2+y,z
1/2-x,-y,z
1/2+x,1/2-y,-z
1/2-x,y,-z
1/2-x,1/2-y,-z
1/2+x,y,-z
1/2-x,1/2+y,z
1/2+x,-y,z
loop_
_atom_site_type_symbol
_atom_site_label
_atom_site_fract_x
_atom_site_fract_y
_atom_site_fract_z
Si Si1 0.000000 0.070698 0.925562
Si Si2 0.301137 0.067205 0.327425
Si Si3 0.379783 0.431201 0.575302
Si Si4 0.637810 0.433302 0.789478
Si Si5 0.552326 0.069287 0.696707
Si Si6 0.102995 0.932479 0.076937
O O1 0.050352 0.021938 0.891402
O O2 0.000000 0.250000 0.937106
O O3 0.000000 0.000000 0.000000
O O4 0.299273 0.250000 0.324330
O O5 0.250000 0.000000 0.344746
O O6 0.335130 0.013908 0.389665
O O7 0.318054 0.002877 0.252575
O O8 0.389306 0.500000 0.500000
O O9 0.368841 0.250000 0.571621
O O10 0.427167 0.465440 0.619918
O O11 0.641428 0.250000 0.786420
O O12 0.589156 0.495964 0.753888
O O13 0.640101 0.492321 0.869213
O O14 0.500000 0.991483 0.704813
O O15 0.547274 0.250000 0.708479
O O16 0.110563 0.750000 0.073458
O O17 0.111477 0.000000 0.000000
#
# Coordination Sequence:
#
# PCOD8278908 Si02
#       6
#     8  16  16  16  16  16
#     4   8  16  28  42  64  98 136 177 218 261 310
#     4  11  22  39  61  83 108 137 174 219 273 327
#     4  10  20  35  55  81 113 144 181 222 267 318
#     4  10  20  34  54  80 109 142 182 224 271 324
#     4   8  16  31  50  74 106 145 185 222 261 309
#     4  10  19  32  49  73 106 144 185 229 275 320
#
# _framework density 18.792382
#
# number of rings (size 3 to 8) (size 9 to 14) (size 15 to 20)
#    0.000    2.364    0.000    4.364    1.273    1.455 
#    0.000    1.818    0.000   10.909    0.000    3.818 
#    0.000    0.000    0.000    0.000    0.000    0.000 
#
# Total GULP energy -545310.924152 kJ/mol
# GULP energy per Si atom -12393.430094 kJ/mol
# Density = 1.874961 g / cm^3
# Si number density = 18.792382 Si / 1000 Ang^3
#
#
#
# Elastic Constant Matrix: (Units=GPa)
#
#
# Indices 1 2 3 4 5 6 
#
# 1 64.5501 15.7881 3.5100 0.0000 0.0000 0.0000
# 2 15.7881 89.7161 26.6654 0.0000 0.0000 0.0000
# 3 3.5100 26.6654 89.4037 0.0000 0.0000 0.0000
# 4 0.0000 0.0000 0.0000 32.9487 0.0000 0.0000
# 5 0.0000 0.0000 0.0000 0.0000 17.9371 0.0000
# 6 0.0000 0.0000 0.0000 0.0000 0.0000 23.0734
#
#
#
# Elastic Compliance Matrix: (Units=1/GPa)
#
#
# Indices 1 2 3 4 5 6 
#
# 1 0.016193 -0.002919 0.000235 0.000000 0.000000 0.000000
# 2 -0.002919 0.012757 -0.003690 0.000000 0.000000 0.000000
# 3 0.000235 -0.003690 0.012277 0.000000 0.000000 0.000000
# 4 0.000000 0.000000 0.000000 0.030350 0.000000 0.000000
# 5 0.000000 0.000000 0.000000 0.000000 0.055750 0.000000
# 6 0.000000 0.000000 0.000000 0.000000 0.000000 0.043340
#
#
# Mechanical properties :
#
#
# Convention : Reuss Voigt Hill
#
# Bulk Modulus (GPa) = 35.11577 37.28854 36.20216
# Shear Modulus (GPa) = 25.91899 27.97228 26.94563
#
# Velocity S-wave (km/s) = 3.71783 3.86228 3.79074
# Velocity P-wave (km/s) = 6.09560 6.30675 6.20207
#
# Compressibility (1/GPa) = 0.02847723
#
# Stress axis : x y z
#
# Youngs Moduli (GPa) = 61.75456 78.38932 81.45556
#
# Poissons Ratio (x) = 0.22886 -0.01914
# Poissons Ratio (y) = 0.18029 0.30059
# Poissons Ratio (z) = -0.01451 0.28927
#
# Static dielectric constant tensor:
#      x y z
#    x 3.558930 0.000000 0.000000 
#    y 0.000000 3.277500 0.000000 
#    z 0.000000 0.000000 2.890500 
# 
# 
# High freq. dielectric constant tensor:
#      x y z
#    x 1.715120 0.000000 0.000000 
#    y 0.000000 1.728310 0.000000 
#    z 0.000000 0.000000 1.728970 
# 
# From -- ./inp_files/32463.got.cif
#   From: 2010.03.12/outbox.cif.g09.slc.cpg/sg67_17_cif.got.tgz:32463.got - 2010.04.10 22:41:39.
