data_PCOD8278534
_publ_section_title
;
Structure prediction by ZEFSAII (Michael W. Deem and Ramdas Pophale) SiO2 
 PCOD8278534
Probable space group: C M M A
;
_chemical_formula_sum "Si O2"
_cell_formula_units_Z 96
_cell_length_a 17.354890
_cell_length_b 17.689173
_cell_length_c 16.729287
_cell_angle_alpha 90.000000
_cell_angle_beta 90.000000
_cell_angle_gamma 90.000000
_cell_volume 5135.784905
_symmetry_space_group_name_H-M "C M M A"
_symmetry_group_IT_number 67
_symmetry_cell_setting 'orthorhombic'
loop_
_space_group_symop_operation_xyz
x,y,z
-x,1/2-y,z
x,-y,-z
-x,1/2+y,-z
-x,-y,-z
x,1/2+y,-z
-x,y,z
x,1/2-y,z
1/2+x,1/2+y,z
1/2-x,-y,z
1/2+x,1/2-y,-z
1/2-x,y,-z
1/2-x,1/2-y,-z
1/2+x,y,-z
1/2-x,1/2+y,z
1/2+x,-y,z
loop_
_atom_site_type_symbol
_atom_site_label
_atom_site_fract_x
_atom_site_fract_y
_atom_site_fract_z
Si Si1 0.664208 0.340089 0.157425
Si Si2 0.411216 0.039139 0.250731
Si Si3 0.589510 0.167360 0.672870
Si Si4 0.841204 0.584387 0.996232
Si Si5 0.335568 0.605417 0.178080
Si Si6 0.410110 0.475323 0.583711
O O1 0.668465 0.250000 0.166552
O O2 0.604670 0.375514 0.221439
O O3 0.632234 0.362119 0.069214
O O4 0.744496 0.380525 0.177349
O O5 0.500000 0.016631 0.234891
O O6 0.355913 0.980608 0.203593
O O7 0.394183 0.035991 0.346074
O O8 0.500000 0.150249 0.685541
O O9 0.604654 0.250000 0.636086
O O10 0.626849 0.163742 0.760478
O O11 0.625047 0.105346 0.612532
O O12 0.877367 0.500000 0.000000
O O13 0.750000 0.577695 0.000000
O O14 0.867139 0.621035 0.911717
O O15 0.370042 0.500000 0.500000
O O16 0.500000 0.464404 0.567313
#
# Coordination Sequence:
#
# PCOD8278534 Si02
#       6
#    16  16  16  16  16  16
#     4  11  22  34  52  78 107 138 174 217 259 303
#     4  10  20  35  55  77 104 138 172 210 258 313
#     4   9  17  29  48  77 107 128 159 216 273 307
#     4   9  17  31  51  73  98 133 177 221 250 292
#     4  10  18  33  56  74  97 135 181 217 249 300
#     4   8  15  30  52  75  97 128 171 210 249 306
#
# _framework density 18.692371000000001
#
# number of rings (size 3 to 8) (size 9 to 14) (size 15 to 20)
#    0.000    2.500    1.667    2.500    0.000    4.000 
#    0.000    3.333    0.000   11.000    0.000    5.833 
#    0.000    0.000    0.000    0.000    0.000    0.000 
#
# Total GULP energy -594785.202103 kJ/mol
# GULP energy per Si atom -12391.358377 kJ/mol
# Density = 1.864983 g / cm^3
# Si number density = 18.692371 Si / 1000 Ang^3
#
#
#
# Elastic Constant Matrix: (Units=GPa)
#
#
# Indices 1 2 3 4 5 6 
#
# 1 29.9909 32.3408 33.3248 0.0000 0.0000 0.0000
# 2 32.3408 121.6542 70.8420 0.0000 0.0000 0.0000
# 3 33.3248 70.8420 168.2194 0.0000 0.0000 0.0000
# 4 0.0000 0.0000 0.0000 21.6960 0.0000 0.0000
# 5 0.0000 0.0000 0.0000 0.0000 14.2236 0.0000
# 6 0.0000 0.0000 0.0000 0.0000 0.0000 21.0150
#
#
#
# Elastic Compliance Matrix: (Units=1/GPa)
#
#
# Indices 1 2 3 4 5 6 
#
# 1 0.050661 -0.010100 -0.005782 0.000000 0.000000 0.000000
# 2 -0.010100 0.012905 -0.003434 0.000000 0.000000 0.000000
# 3 -0.005782 -0.003434 0.008536 0.000000 0.000000 0.000000
# 4 0.000000 0.000000 0.000000 0.046091 0.000000 0.000000
# 5 0.000000 0.000000 0.000000 0.000000 0.070306 0.000000
# 6 0.000000 0.000000 0.000000 0.000000 0.000000 0.047585
#
#
# Mechanical properties :
#
#
# Convention : Reuss Voigt Hill
#
# Bulk Modulus (GPa) = 29.87896 65.87552 47.87724
# Shear Modulus (GPa) = 17.49031 23.61071 20.55051
#
# Velocity S-wave (km/s) = 3.06223 3.55790 3.31933
# Velocity P-wave (km/s) = 5.34062 7.22472 6.35291
#
# Compressibility (1/GPa) = 0.03346837
#
# Stress axis : x y z
#
# Youngs Moduli (GPa) = 19.73921 77.49179 117.14946
#
# Poissons Ratio (x) = 0.78270 0.67741
# Poissons Ratio (y) = 0.19938 0.40224
# Poissons Ratio (z) = 0.11414 0.26607
#
# Static dielectric constant tensor:
#      x y z
#    x 3.090920 0.000000 0.000000 
#    y 0.000000 3.396280 0.000000 
#    z 0.000000 0.000000 3.766450 
# 
# 
# High freq. dielectric constant tensor:
#      x y z
#    x 1.686300 0.000000 0.000000 
#    y 0.000000 1.716350 0.000000 
#    z 0.000000 0.000000 1.727950 
# 
# From -- ./inp_files/34251.got.cif
#   From: 2010.03.12/outbox.cif.g09.slc.cpg/sg67_18_cif.got.tgz:34251.got - 2010.04.10 22:41:39.
