data_PCOD8278466
_publ_section_title
;
Structure prediction by ZEFSAII (Michael W. Deem and Ramdas Pophale) SiO2 
 PCOD8278466
Probable space group: C M M A
;
_chemical_formula_sum "Si O2"
_cell_formula_units_Z 112
_cell_length_a 16.336395
_cell_length_b 28.655106
_cell_length_c 11.986009
_cell_angle_alpha 90.000000
_cell_angle_beta 90.000000
_cell_angle_gamma 90.000000
_cell_volume 5610.904082
_symmetry_space_group_name_H-M "C M M A"
_symmetry_group_IT_number 67
_symmetry_cell_setting 'orthorhombic'
loop_
_space_group_symop_operation_xyz
x,y,z
-x,1/2-y,z
x,-y,-z
-x,1/2+y,-z
-x,-y,-z
x,1/2+y,-z
-x,y,z
x,1/2-y,z
1/2+x,1/2+y,z
1/2-x,-y,z
1/2+x,1/2-y,-z
1/2-x,y,-z
1/2-x,1/2-y,-z
1/2+x,y,-z
1/2-x,1/2+y,z
1/2+x,-y,z
loop_
_atom_site_type_symbol
_atom_site_label
_atom_site_fract_x
_atom_site_fract_y
_atom_site_fract_z
Si Si1 0.402086 0.384253 0.595652
Si Si2 0.097313 0.698993 0.454559
Si Si3 0.159805 0.982187 0.193356
Si Si4 0.406248 0.581229 0.171757
Si Si5 0.097784 0.391834 0.932876
Si Si6 0.090245 0.543058 0.420957
Si Si7 0.902853 0.302632 0.794981
O O1 0.500000 0.389061 0.600947
O O2 0.371505 0.333424 0.555962
O O3 0.363020 0.398324 0.715707
O O4 0.369391 0.416943 0.496316
O O5 0.132018 0.750000 0.482477
O O6 0.126787 0.683905 0.330355
O O7 0.000000 0.698901 0.453028
O O8 0.139347 0.936531 0.123101
O O9 0.152342 0.968717 0.322555
O O10 0.250000 0.000000 0.165556
O O11 0.100488 0.025227 0.163397
O O12 0.500000 0.594727 0.180738
O O13 0.371722 0.607040 0.061626
O O14 0.129469 0.343154 0.878545
O O15 0.000000 0.396970 0.922641
O O16 0.076434 0.500000 0.500000
O O17 0.000000 0.557668 0.372413
O O18 0.871241 0.250000 0.827187
O O19 0.000000 0.301927 0.800254
#
# Coordination Sequence:
#
# PCOD8278466 Si02
#       7
#    16  16  16  16  16  16  16
#     4   9  16  28  47  70  98 131 167 204 247 302
#     4   8  13  22  40  68 100 129 156 195 251 311
#     4  12  24  35  50  74 106 138 173 220 263 310
#     4  10  20  35  51  70  98 138 181 216 252 308
#     4  10  20  34  54  76 102 139 181 219 263 316
#     4  10  18  32  54  74  97 131 169 207 253 311
#     4   8  14  27  49  78 106 128 162 218 272 312
#
# _framework density 19.961134000000001
#
# number of rings (size 3 to 8) (size 9 to 14) (size 15 to 20)
#    0.000    2.429    1.429    3.429    0.000    4.857 
#    0.000    0.714    0.000    4.286    0.000    3.000 
#    0.000    3.429    0.000    0.000    0.000    0.286 
#
# Total GULP energy -693874.615792 kJ/mol
# GULP energy per Si atom -12390.618139 kJ/mol
# Density = 1.991570 g / cm^3
# Si number density = 19.961134 Si / 1000 Ang^3
#
#
#
# Elastic Constant Matrix: (Units=GPa)
#
#
# Indices 1 2 3 4 5 6 
#
# 1 20.9209 10.4074 17.3253 0.0000 0.0000 0.0000
# 2 10.4074 162.1756 93.8337 0.0000 0.0000 0.0000
# 3 17.3253 93.8337 143.0364 0.0000 0.0000 0.0000
# 4 0.0000 0.0000 0.0000 25.3314 0.0000 0.0000
# 5 0.0000 0.0000 0.0000 0.0000 7.7411 0.0000
# 6 0.0000 0.0000 0.0000 0.0000 0.0000 9.2792
#
#
#
# Elastic Compliance Matrix: (Units=1/GPa)
#
#
# Indices 1 2 3 4 5 6 
#
# 1 0.053154 0.000506 -0.006770 0.000000 0.000000 0.000000
# 2 0.000506 0.009943 -0.006584 0.000000 0.000000 0.000000
# 3 -0.006770 -0.006584 0.012131 0.000000 0.000000 0.000000
# 4 0.000000 0.000000 0.000000 0.039477 0.000000 0.000000
# 5 0.000000 0.000000 0.000000 0.000000 0.129180 0.000000
# 6 0.000000 0.000000 0.000000 0.000000 0.000000 0.107768
#
#
# Mechanical properties :
#
#
# Convention : Reuss Voigt Hill
#
# Bulk Modulus (GPa) = 20.18935 63.25176 41.72055
# Shear Modulus (GPa) = 12.69487 22.10811 17.40149
#
# Velocity S-wave (km/s) = 2.52460 3.33161 2.95578
# Velocity P-wave (km/s) = 4.31676 6.82318 5.70921
#
# Compressibility (1/GPa) = 0.04953107
#
# Stress axis : x y z
#
# Youngs Moduli (GPa) = 18.81327 100.57066 82.43597
#
# Poissons Ratio (x) = -0.05091 0.55812
# Poissons Ratio (y) = -0.00952 0.54278
# Poissons Ratio (z) = 0.12737 0.66218
#
# Static dielectric constant tensor:
#      x y z
#    x 2.997380 0.000000 0.000000 
#    y 0.000000 2.542720 0.000000 
#    z 0.000000 0.000000 7.474780 
# 
# 
# High freq. dielectric constant tensor:
#      x y z
#    x 1.715950 0.000000 0.000000 
#    y 0.000000 1.781740 0.000000 
#    z 0.000000 0.000000 1.785270 
# 
# From -- ./inp_files/18655.got.cif
#   From: 2010.03.12/outbox.cif.g09.slc.cpg/sg67_10_cif.got.tgz:18655.got - 2010.04.10 22:41:39.
