data_PCOD8278961
_publ_section_title
;
Structure prediction by ZEFSAII (Michael W. Deem and Ramdas Pophale) SiO2 
 PCOD8278961
Probable space group: C M M A
;
_chemical_formula_sum "Si O2"
_cell_formula_units_Z 96
_cell_length_a 8.764604
_cell_length_b 28.777145
_cell_length_c 20.878902
_cell_angle_alpha 90.000000
_cell_angle_beta 90.000000
_cell_angle_gamma 90.000000
_cell_volume 5266.082512
_symmetry_space_group_name_H-M "C M M A"
_symmetry_group_IT_number 67
_symmetry_cell_setting 'orthorhombic'
loop_
_space_group_symop_operation_xyz
x,y,z
-x,1/2-y,z
x,-y,-z
-x,1/2+y,-z
-x,-y,-z
x,1/2+y,-z
-x,y,z
x,1/2-y,z
1/2+x,1/2+y,z
1/2-x,-y,z
1/2+x,1/2-y,-z
1/2-x,y,-z
1/2-x,1/2-y,-z
1/2+x,y,-z
1/2-x,1/2+y,z
1/2+x,-y,z
loop_
_atom_site_type_symbol
_atom_site_label
_atom_site_fract_x
_atom_site_fract_y
_atom_site_fract_z
Si Si1 0.320703 0.390678 0.065233
Si Si2 0.318576 0.050718 0.186821
Si Si3 0.682380 0.550440 0.566385
Si Si4 0.823807 0.198426 0.746508
Si Si5 0.322709 0.697520 0.118029
Si Si6 0.320834 0.895429 0.688981
O O1 0.500000 0.393354 0.059557
O O2 0.260491 0.420941 0.124913
O O3 0.271430 0.337155 0.073376
O O4 0.250000 0.411163 0.000000
O O5 0.500000 0.047835 0.187664
O O6 0.254390 0.076661 0.250024
O O7 0.250000 0.000000 0.184050
O O8 0.500000 0.547618 0.562111
O O9 0.750000 0.500000 0.581149
O O10 0.750000 0.570056 0.500000
O O11 0.743327 0.584415 0.622435
O O12 0.796780 0.250000 0.717161
O O13 0.721056 0.190340 0.808207
O O14 0.778600 0.159359 0.694242
O O15 0.000000 0.191881 0.767597
O O16 0.500000 0.686464 0.110063
O O17 0.283218 0.750000 0.096487
O O18 0.500000 0.902801 0.688740
#
# Coordination Sequence:
#
# PCOD8278961 Si02
#       6
#    16  16  16  16  16  16
#     4  11  23  39  57  75 102 136 174 217 261 315
#     4  10  21  37  55  76 102 131 171 216 260 308
#     4  10  19  32  51  74 108 141 174 214 253 306
#     4   9  16  30  54  79 104 135 171 211 257 306
#     4  10  20  34  53  79 108 135 168 211 261 315
#     4   9  17  32  53  79 106 134 171 214 255 302
#
# _framework density 18.229870999999999
#
# number of rings (size 3 to 8) (size 9 to 14) (size 15 to 20)
#    0.000    2.167    1.667    2.500    0.000    3.000 
#    0.000    4.167    0.000    0.500    0.000    0.000 
#    0.000    0.000    0.000    0.000    0.000    0.667 
#
# Total GULP energy -595145.294107 kJ/mol
# GULP energy per Si atom -12398.860294 kJ/mol
# Density = 1.818838 g / cm^3
# Si number density = 18.229871 Si / 1000 Ang^3
#
#
#
# Elastic Constant Matrix: (Units=GPa)
#
#
# Indices 1 2 3 4 5 6 
#
# 1 41.3417 24.7042 28.3505 0.0000 0.0000 0.0000
# 2 24.7042 125.3851 75.7357 0.0000 0.0000 0.0000
# 3 28.3505 75.7357 147.2470 0.0000 0.0000 0.0000
# 4 0.0000 0.0000 0.0000 30.7242 0.0000 0.0000
# 5 0.0000 0.0000 0.0000 0.0000 22.7071 0.0000
# 6 0.0000 0.0000 0.0000 0.0000 0.0000 23.3720
#
#
#
# Elastic Compliance Matrix: (Units=1/GPa)
#
#
# Indices 1 2 3 4 5 6 
#
# 1 0.028820 -0.003375 -0.003813 0.000000 0.000000 0.000000
# 2 -0.003375 0.011965 -0.005504 0.000000 0.000000 0.000000
# 3 -0.003813 -0.005504 0.010357 0.000000 0.000000 0.000000
# 4 0.000000 0.000000 0.000000 0.032548 0.000000 0.000000
# 5 0.000000 0.000000 0.000000 0.000000 0.044039 0.000000
# 6 0.000000 0.000000 0.000000 0.000000 0.000000 0.042786
#
#
# Mechanical properties :
#
#
# Convention : Reuss Voigt Hill
#
# Bulk Modulus (GPa) = 38.82437 63.50604 51.16520
# Shear Modulus (GPa) = 24.45155 27.70622 26.07889
#
# Velocity S-wave (km/s) = 3.66634 3.90272 3.78637
# Velocity P-wave (km/s) = 6.26626 7.43103 6.87336
#
# Compressibility (1/GPa) = 0.02575702
#
# Stress axis : x y z
#
# Youngs Moduli (GPa) = 34.69769 83.57552 96.55685
#
# Poissons Ratio (x) = 0.28209 0.36817
# Poissons Ratio (y) = 0.11711 0.53149
# Poissons Ratio (z) = 0.13230 0.46003
#
# Static dielectric constant tensor:
#      x y z
#    x 3.217660 0.000000 0.000000 
#    y 0.000000 3.546800 0.000000 
#    z 0.000000 0.000000 3.549200 
# 
# 
# High freq. dielectric constant tensor:
#      x y z
#    x 1.694440 0.000000 0.000000 
#    y 0.000000 1.710370 0.000000 
#    z 0.000000 0.000000 1.694710 
# 
# From -- ./inp_files/37148.got.cif
#   From: 2010.03.12/outbox.cif.g09.slc.cpg/sg67_19_cif.got.tgz:37148.got - 2010.04.10 22:41:39.
