data_PCOD8278146
_publ_section_title
;
Structure prediction by ZEFSAII (Michael W. Deem and Ramdas Pophale) SiO2 
 PCOD8278146
Probable space group: C M M A
;
_chemical_formula_sum "Si O2"
_cell_formula_units_Z 104
_cell_length_a 14.094251
_cell_length_b 18.544990
_cell_length_c 21.848485
_cell_angle_alpha 90.000000
_cell_angle_beta 90.000000
_cell_angle_gamma 90.000000
_cell_volume 5710.707716
_symmetry_space_group_name_H-M "C M M A"
_symmetry_group_IT_number 67
_symmetry_cell_setting 'orthorhombic'
loop_
_space_group_symop_operation_xyz
x,y,z
-x,1/2-y,z
x,-y,-z
-x,1/2+y,-z
-x,-y,-z
x,1/2+y,-z
-x,y,z
x,1/2-y,z
1/2+x,1/2+y,z
1/2-x,-y,z
1/2+x,1/2-y,-z
1/2-x,y,-z
1/2-x,1/2-y,-z
1/2+x,y,-z
1/2-x,1/2+y,z
1/2+x,-y,z
loop_
_atom_site_type_symbol
_atom_site_label
_atom_site_fract_x
_atom_site_fract_y
_atom_site_fract_z
Si Si1 0.500000 0.560296 0.552164
Si Si2 0.355551 0.527185 0.772836
Si Si3 0.891239 0.829649 0.172730
Si Si4 0.226040 0.612812 0.065617
Si Si5 0.000000 0.330949 0.393043
Si Si6 0.105740 0.019422 0.094271
Si Si7 0.500000 0.525863 0.323342
Si Si8 0.859831 0.832366 0.498623
O O1 0.500000 0.500000 0.500000
O O2 0.500000 0.521266 0.616251
O O3 0.407905 0.611698 0.548012
O O4 0.250000 0.500000 0.770471
O O5 0.359212 0.614688 0.774025
O O6 0.405434 0.504386 0.835573
O O7 0.407038 0.493670 0.714726
O O8 0.879554 0.750000 0.200933
O O9 0.825127 0.833225 0.112212
O O10 0.000000 0.844072 0.152748
O O11 0.156078 0.544106 0.055036
O O12 0.327477 0.589535 0.093743
O O13 0.250000 0.649180 0.000000
O O14 0.093683 0.342577 0.434462
O O15 0.000000 0.250000 0.364920
O O16 0.000000 0.388852 0.338363
O O17 0.000000 0.035659 0.068468
O O18 0.875926 0.750000 0.476148
O O19 0.750000 0.852315 0.500000
#
# Coordination Sequence:
#
# PCOD8278146 Si02
#       8
#     8  16  16  16   8  16   8  16
#     4  11  21  37  53  86 121 149 180 239 297 338
#     4  11  20  37  58  81 108 145 195 243 286 331
#     4  10  20  38  61  81 112 158 192 235 298 353
#     4  10  19  30  51  85 114 144 189 237 285 350
#     4   9  19  38  57  83 118 151 185 231 287 342
#     4  10  17  31  54  76 111 149 185 235 292 343
#     4  12  23  36  58  88 114 147 202 244 277 346
#     4   9  18  36  62  83 114 158 191 219 279 354
#
# _framework density 18.211403000000001
#
# number of rings (size 3 to 8) (size 9 to 14) (size 15 to 20)
#    0.000    1.846    6.154    3.000    0.000    3.692 
#    0.000    2.308    0.000    0.462    0.000    0.000 
#    0.000    0.000    0.000    0.000    0.000    0.000 
#
# Total GULP energy -644571.906944 kJ/mol
# GULP energy per Si atom -12395.613595 kJ/mol
# Density = 1.816995 g / cm^3
# Si number density = 18.211403 Si / 1000 Ang^3
#
#
#
# Elastic Constant Matrix: (Units=GPa)
#
#
# Indices 1 2 3 4 5 6 
#
# 1 152.6824 52.1113 20.2270 0.0000 0.0000 0.0000
# 2 52.1113 119.8336 41.0710 0.0000 0.0000 0.0000
# 3 20.2270 41.0710 73.7282 0.0000 0.0000 0.0000
# 4 0.0000 0.0000 0.0000 22.0266 0.0000 0.0000
# 5 0.0000 0.0000 0.0000 0.0000 20.2480 0.0000
# 6 0.0000 0.0000 0.0000 0.0000 0.0000 14.9139
#
#
#
# Elastic Compliance Matrix: (Units=1/GPa)
#
#
# Indices 1 2 3 4 5 6 
#
# 1 0.007697 -0.003242 -0.000305 0.000000 0.000000 0.000000
# 2 -0.003242 0.011680 -0.005617 0.000000 0.000000 0.000000
# 3 -0.000305 -0.005617 0.016776 0.000000 0.000000 0.000000
# 4 0.000000 0.000000 0.000000 0.045400 0.000000 0.000000
# 5 0.000000 0.000000 0.000000 0.000000 0.049388 0.000000
# 6 0.000000 0.000000 0.000000 0.000000 0.000000 0.067051
#
#
# Mechanical properties :
#
#
# Convention : Reuss Voigt Hill
#
# Bulk Modulus (GPa) = 56.10589 63.67365 59.88977
# Shear Modulus (GPa) = 22.49599 26.96003 24.72801
#
# Velocity S-wave (km/s) = 3.51845 3.85176 3.68887
# Velocity P-wave (km/s) = 6.88339 7.40412 7.14849
#
# Compressibility (1/GPa) = 0.01782344
#
# Stress axis : x y z
#
# Youngs Moduli (GPa) = 129.92717 85.61657 59.60874
#
# Poissons Ratio (x) = 0.27760 0.01820
# Poissons Ratio (y) = 0.42127 0.33482
# Poissons Ratio (z) = 0.03967 0.48090
#
# Static dielectric constant tensor:
#      x y z
#    x 3.582970 0.000000 0.000000 
#    y 0.000000 3.402910 0.000000 
#    z 0.000000 0.000000 3.395630 
# 
# 
# High freq. dielectric constant tensor:
#      x y z
#    x 1.718670 0.000000 0.000000 
#    y 0.000000 1.695040 0.000000 
#    z 0.000000 0.000000 1.678000 
# 
# From -- ./inp_files/38690.got.cif
#   From: 2010.03.12/outbox.cif.g09.slc.cpg/sg67_20_cif.got.tgz:38690.got - 2010.04.10 22:41:39.
