data_PCOD8278957
_publ_section_title
;
Structure prediction by ZEFSAII (Michael W. Deem and Ramdas Pophale) SiO2 
 PCOD8278957
Probable space group: C M M A
;
_chemical_formula_sum "Si O2"
_cell_formula_units_Z 72
_cell_length_a 8.931496
_cell_length_b 31.933135
_cell_length_c 13.492765
_cell_angle_alpha 90.000000
_cell_angle_beta 90.000000
_cell_angle_gamma 90.000000
_cell_volume 3848.280512
_symmetry_space_group_name_H-M "C M M A"
_symmetry_group_IT_number 67
_symmetry_cell_setting 'orthorhombic'
loop_
_space_group_symop_operation_xyz
x,y,z
-x,1/2-y,z
x,-y,-z
-x,1/2+y,-z
-x,-y,-z
x,1/2+y,-z
-x,y,z
x,1/2-y,z
1/2+x,1/2+y,z
1/2-x,-y,z
1/2+x,1/2-y,-z
1/2-x,y,-z
1/2-x,1/2-y,-z
1/2+x,y,-z
1/2-x,1/2+y,z
1/2+x,-y,z
loop_
_atom_site_type_symbol
_atom_site_label
_atom_site_fract_x
_atom_site_fract_y
_atom_site_fract_z
Si Si1 0.824774 0.582009 0.604867
Si Si2 0.826118 0.166424 0.284478
Si Si3 0.175288 0.626564 0.103877
Si Si4 0.823392 0.957959 0.211587
Si Si5 0.323391 0.750000 0.393557
O O1 0.750000 0.573867 0.500000
O O2 0.793335 0.629649 0.637277
O O3 0.748980 0.550316 0.681581
O O4 0.000000 0.572103 0.599130
O O5 0.733976 0.159664 0.184171
O O6 0.769834 0.209356 0.333266
O O7 0.000000 0.168137 0.255917
O O8 0.217926 0.579543 0.136967
O O9 0.000000 0.632442 0.093090
O O10 0.250000 0.636903 0.000000
O O11 0.000000 0.963302 0.223547
O O12 0.750000 0.000000 0.166823
O O13 0.500000 0.750000 0.408897
O O14 0.250000 0.750000 0.500000
#
# Coordination Sequence:
#
# PCOD8278957 Si02
#       5
#    16  16  16  16   8
#     4  10  19  32  51  74 103 140 177 215 259 310
#     4   9  19  35  54  78 109 141 176 217 260 307
#     4  10  21  37  58  80 104 136 174 216 263 313
#     4  10  21  36  53  76 104 134 171 216 262 311
#     4  10  20  34  55  84 115 146 177 214 258 306
#
# _framework density 18.709655999999999
#
# number of rings (size 3 to 8) (size 9 to 14) (size 15 to 20)
#    0.000    2.222    0.000    2.667    0.000    5.333 
#    0.000    5.000    0.000    0.000    0.000    0.000 
#    0.000    0.000    0.000    0.000    0.000    0.000 
#
# Total GULP energy -446564.679985 kJ/mol
# GULP energy per Si atom -12404.574444 kJ/mol
# Density = 1.866707 g / cm^3
# Si number density = 18.709656 Si / 1000 Ang^3
#
#
#
# Elastic Constant Matrix: (Units=GPa)
#
#
# Indices 1 2 3 4 5 6 
#
# 1 78.8285 36.6093 54.1651 0.0000 0.0000 0.0000
# 2 36.6093 108.0123 41.0909 0.0000 0.0000 0.0000
# 3 54.1651 41.0909 131.2111 0.0000 0.0000 0.0000
# 4 0.0000 0.0000 0.0000 15.1482 0.0000 0.0000
# 5 0.0000 0.0000 0.0000 0.0000 34.8121 0.0000
# 6 0.0000 0.0000 0.0000 0.0000 0.0000 26.4768
#
#
#
# Elastic Compliance Matrix: (Units=1/GPa)
#
#
# Indices 1 2 3 4 5 6 
#
# 1 0.019080 -0.003940 -0.006642 0.000000 0.000000 0.000000
# 2 -0.003940 0.011324 -0.001920 0.000000 0.000000 0.000000
# 3 -0.006642 -0.001920 0.010965 0.000000 0.000000 0.000000
# 4 0.000000 0.000000 0.000000 0.066015 0.000000 0.000000
# 5 0.000000 0.000000 0.000000 0.000000 0.028726 0.000000
# 6 0.000000 0.000000 0.000000 0.000000 0.000000 0.037769
#
#
# Mechanical properties :
#
#
# Convention : Reuss Voigt Hill
#
# Bulk Modulus (GPa) = 61.11002 64.64249 62.87625
# Shear Modulus (GPa) = 24.46947 27.69985 26.08466
#
# Velocity S-wave (km/s) = 3.62035 3.85192 3.73793
# Velocity P-wave (km/s) = 7.08584 7.37620 7.23248
#
# Compressibility (1/GPa) = 0.01636393
#
# Stress axis : x y z
#
# Youngs Moduli (GPa) = 52.41181 88.30853 91.20257
#
# Poissons Ratio (x) = 0.34792 0.60581
# Poissons Ratio (y) = 0.20649 0.17510
# Poissons Ratio (z) = 0.34814 0.16954
#
# Static dielectric constant tensor:
#      x y z
#    x 3.481140 0.000000 0.000000 
#    y 0.000000 3.528220 0.000000 
#    z 0.000000 0.000000 3.330890 
# 
# 
# High freq. dielectric constant tensor:
#      x y z
#    x 1.734900 0.000000 0.000000 
#    y 0.000000 1.723280 0.000000 
#    z 0.000000 0.000000 1.724600 
# 
# From -- ./inp_files/25282.got.cif
#   From: 2010.03.12/outbox.cif.g09.slc.cpg/sg67_13_cif.got.tgz:25282.got - 2010.04.10 22:41:39.
