data_PCOD8278687
_publ_section_title
;
Structure prediction by ZEFSAII (Michael W. Deem and Ramdas Pophale) SiO2 
 PCOD8278687
Probable space group: C M M A
;
_chemical_formula_sum "Si O2"
_cell_formula_units_Z 104
_cell_length_a 26.611370
_cell_length_b 9.077170
_cell_length_c 24.471481
_cell_angle_alpha 90.000000
_cell_angle_beta 90.000000
_cell_angle_gamma 90.000000
_cell_volume 5911.231337
_symmetry_space_group_name_H-M "C M M A"
_symmetry_group_IT_number 67
_symmetry_cell_setting 'orthorhombic'
loop_
_space_group_symop_operation_xyz
x,y,z
-x,1/2-y,z
x,-y,-z
-x,1/2+y,-z
-x,-y,-z
x,1/2+y,-z
-x,y,z
x,1/2-y,z
1/2+x,1/2+y,z
1/2-x,-y,z
1/2+x,1/2-y,-z
1/2-x,y,-z
1/2-x,1/2-y,-z
1/2+x,y,-z
1/2-x,1/2+y,z
1/2+x,-y,z
loop_
_atom_site_type_symbol
_atom_site_label
_atom_site_fract_x
_atom_site_fract_y
_atom_site_fract_z
Si Si1 0.057770 0.412486 0.157368
Si Si2 0.940025 0.915887 0.053577
Si Si3 0.102169 0.076669 0.747436
Si Si4 0.298128 0.916217 0.254430
Si Si5 0.500000 0.424124 0.442026
Si Si6 0.900262 0.422774 0.621619
Si Si7 0.200709 0.416215 0.384415
O O1 0.082883 0.250000 0.162837
O O2 0.082390 0.502154 0.107070
O O3 0.060889 0.502830 0.213927
O O4 0.000000 0.391414 0.143385
O O5 0.918788 0.750000 0.052833
O O6 0.000000 0.913271 0.054875
O O7 0.920273 0.000000 0.000000
O O8 0.102856 0.250000 0.756580
O O9 0.090335 0.036170 0.684789
O O10 0.154712 0.008202 0.766664
O O11 0.299999 0.750000 0.231722
O O12 0.296321 0.915348 0.319555
O O13 0.250000 0.000000 0.230452
O O14 0.500000 0.250000 0.449401
O O15 0.500000 0.500000 0.500000
O O16 0.549973 0.475387 0.410051
O O17 0.890245 0.250000 0.614886
O O18 0.851109 0.504426 0.597358
O O19 0.200558 0.250000 0.407678
O O20 0.250000 0.500000 0.408104
#
# Coordination Sequence:
#
# PCOD8278687 Si02
#       7
#    16  16  16  16   8  16  16
#     4  10  20  31  42  61  92 127 160 198 240 282
#     4   9  16  27  43  61  82 114 157 200 240 283
#     4  10  19  30  47  69  95 126 159 194 237 288
#     4   9  16  27  43  64  93 124 156 190 229 279
#     4  10  22  40  58  76  98 130 169 210 247 288
#     4   9  19  34  52  73  99 130 165 202 246 295
#     4   9  16  27  47  74 102 128 158 194 239 291
#
# _framework density 17.593627000000001
#
# number of rings (size 3 to 8) (size 9 to 14) (size 15 to 20)
#    0.000    2.615    0.000    2.308    1.077    7.692 
#    0.000    0.000    0.000    0.462    0.000    3.231 
#    0.000    0.615    0.000    6.154    0.000    4.308 
#
# Total GULP energy -644675.937380 kJ/mol
# GULP energy per Si atom -12397.614180 kJ/mol
# Density = 1.755358 g / cm^3
# Si number density = 17.593627 Si / 1000 Ang^3
#
#
#
# Elastic Constant Matrix: (Units=GPa)
#
#
# Indices 1 2 3 4 5 6 
#
# 1 92.0425 48.1748 38.2705 0.0000 0.0000 0.0000
# 2 48.1748 131.9862 50.0221 0.0000 0.0000 0.0000
# 3 38.2705 50.0221 78.7219 0.0000 0.0000 0.0000
# 4 0.0000 0.0000 0.0000 24.9921 0.0000 0.0000
# 5 0.0000 0.0000 0.0000 0.0000 2.5428 0.0000
# 6 0.0000 0.0000 0.0000 0.0000 0.0000 29.5320
#
#
#
# Elastic Compliance Matrix: (Units=1/GPa)
#
#
# Indices 1 2 3 4 5 6 
#
# 1 0.014759 -0.003514 -0.004942 0.000000 0.000000 0.000000
# 2 -0.003514 0.010817 -0.005165 0.000000 0.000000 0.000000
# 3 -0.004942 -0.005165 0.018387 0.000000 0.000000 0.000000
# 4 0.000000 0.000000 0.000000 0.040013 0.000000 0.000000
# 5 0.000000 0.000000 0.000000 0.000000 0.393267 0.000000
# 6 0.000000 0.000000 0.000000 0.000000 0.000000 0.033862
#
#
# Mechanical properties :
#
#
# Convention : Reuss Voigt Hill
#
# Bulk Modulus (GPa) = 59.80514 63.96503 61.88509
# Shear Modulus (GPa) = 9.19255 22.49893 15.84574
#
# Velocity S-wave (km/s) = 2.28829 3.57993 3.00434
# Velocity P-wave (km/s) = 6.40687 7.31599 6.87647
#
# Compressibility (1/GPa) = 0.01672097
#
# Stress axis : x y z
#
# Youngs Moduli (GPa) = 67.75742 92.45078 54.38501
#
# Poissons Ratio (x) = 0.32486 0.26877
# Poissons Ratio (y) = 0.23809 0.28089
# Poissons Ratio (z) = 0.33486 0.47750
#
# Static dielectric constant tensor:
#      x y z
#    x 3.165370 0.000000 0.000000 
#    y 0.000000 3.519590 0.000000 
#    z 0.000000 0.000000 2.979710 
# 
# 
# High freq. dielectric constant tensor:
#      x y z
#    x 1.653740 0.000000 0.000000 
#    y 0.000000 1.697920 0.000000 
#    z 0.000000 0.000000 1.646130 
# 
# From -- ./inp_files/42744.got.cif
#   From: 2010.03.12/outbox.cif.g09.slc.cpg/sg67_22_cif.got.tgz:42744.got - 2010.04.10 22:41:39.
