data_PCOD8278722
_publ_section_title
;
Structure prediction by ZEFSAII (Michael W. Deem and Ramdas Pophale) SiO2 
 PCOD8278722
Probable space group: C M M A
;
_chemical_formula_sum "Si O2"
_cell_formula_units_Z 80
_cell_length_a 17.389325
_cell_length_b 25.232655
_cell_length_c 9.752815
_cell_angle_alpha 90.000000
_cell_angle_beta 90.000000
_cell_angle_gamma 90.000000
_cell_volume 4279.328837
_symmetry_space_group_name_H-M "C M M A"
_symmetry_group_IT_number 67
_symmetry_cell_setting 'orthorhombic'
loop_
_space_group_symop_operation_xyz
x,y,z
-x,1/2-y,z
x,-y,-z
-x,1/2+y,-z
-x,-y,-z
x,1/2+y,-z
-x,y,z
x,1/2-y,z
1/2+x,1/2+y,z
1/2-x,-y,z
1/2+x,1/2-y,-z
1/2-x,y,-z
1/2-x,1/2-y,-z
1/2+x,y,-z
1/2-x,1/2+y,z
1/2+x,-y,z
loop_
_atom_site_type_symbol
_atom_site_label
_atom_site_fract_x
_atom_site_fract_y
_atom_site_fract_z
Si Si1 0.178126 0.690193 0.900853
Si Si2 0.586685 0.050227 0.687371
Si Si3 0.716392 0.627081 0.360303
Si Si4 0.316901 0.960736 0.776420
Si Si5 0.414255 0.907187 0.010597
O O1 0.146299 0.750000 0.896144
O O2 0.202961 0.673924 0.747542
O O3 0.111526 0.652888 0.959874
O O4 0.250000 0.685051 0.000000
O O5 0.500000 0.050708 0.627680
O O6 0.636581 0.095433 0.611707
O O7 0.624926 0.008123 0.326966
O O8 0.587404 0.060008 0.849931
O O9 0.750000 0.652335 0.500000
O O10 0.780798 0.586897 0.307841
O O11 0.250000 0.000000 0.828782
O O12 0.358590 0.936988 0.907776
O O13 0.500000 0.905368 0.948576
#
# Coordination Sequence:
#
# PCOD8278722 Si02
#       5
#    16  16  16  16  16
#     4  10  20  36  59  81 101 132 179 227 277 329
#     4   9  19  32  50  76 109 146 183 217 257 320
#     4  10  21  36  54  77 110 143 181 221 266 318
#     4  10  19  30  50  77 112 151 184 216 264 311
#     4  10  19  32  52  82 111 138 178 226 278 323
#
# _framework density 18.694519
#
# number of rings (size 3 to 8) (size 9 to 14) (size 15 to 20)
#    0.000    2.200    2.000    1.200    0.000   10.000 
#    0.000    3.000    0.000    0.000    0.000    0.000 
#    0.000    0.000    0.000    0.000    0.000    0.000 
#
# Total GULP energy -495967.941735 kJ/mol
# GULP energy per Si atom -12399.198543 kJ/mol
# Density = 1.865197 g / cm^3
# Si number density = 18.694519 Si / 1000 Ang^3
#
#
#
# Elastic Constant Matrix: (Units=GPa)
#
#
# Indices 1 2 3 4 5 6 
#
# 1 112.8318 21.7557 20.5134 0.0000 0.0000 0.0000
# 2 21.7557 80.7345 8.2566 0.0000 0.0000 0.0000
# 3 20.5134 8.2566 52.8374 0.0000 0.0000 0.0000
# 4 0.0000 0.0000 0.0000 -7.1814 0.0000 0.0000
# 5 0.0000 0.0000 0.0000 0.0000 13.5580 0.0000
# 6 0.0000 0.0000 0.0000 0.0000 0.0000 17.9019
#
#
#
# Elastic Compliance Matrix: (Units=1/GPa)
#
#
# Indices 1 2 3 4 5 6 
#
# 1 0.009947 -0.002323 -0.003499 0.000000 0.000000 0.000000
# 2 -0.002323 0.013130 -0.001150 0.000000 0.000000 0.000000
# 3 -0.003499 -0.001150 0.020464 0.000000 0.000000 0.000000
# 4 0.000000 0.000000 0.000000 -0.139248 0.000000 0.000000
# 5 0.000000 0.000000 0.000000 0.000000 0.073757 0.000000
# 6 0.000000 0.000000 0.000000 0.000000 0.000000 0.055860
#
#
# Mechanical properties :
#
#
# Convention : Reuss Voigt Hill
#
# Bulk Modulus (GPa) = 33.78619 38.60611 36.19615
# Shear Modulus (GPa) = 86.62728 17.91422 52.27075
#
# Velocity S-wave (km/s) = 6.81461 3.09894 5.29350
# Velocity P-wave (km/s) = 8.94598 5.78795 7.53429
#
# Compressibility (1/GPa) = 0.02959789
#
# Stress axis : x y z
#
# Youngs Moduli (GPa) = 100.53634 76.16290 48.86621
#
# Poissons Ratio (x) = 0.17689 0.17097
# Poissons Ratio (y) = 0.23350 0.05620
# Poissons Ratio (z) = 0.35175 0.08759
#
# Static dielectric constant tensor:
#      x y z
#    x 3.866850 0.000000 0.000000 
#    y 0.000000 3.419870 0.000000 
#    z 0.000000 0.000000 3.231270 
# 
# 
# High freq. dielectric constant tensor:
#      x y z
#    x 1.732680 0.000000 0.000000 
#    y 0.000000 1.711610 0.000000 
#    z 0.000000 0.000000 1.708950 
# 
# From -- ./inp_files/9924.got.cif
#   From: 2010.03.12/outbox.cif.g09.slc.cpg/sg67_5_cif.got.tgz:9924.got - 2010.04.10 22:41:39.
