data_PCOD8278083
_publ_section_title
;
Structure prediction by ZEFSAII (Michael W. Deem and Ramdas Pophale) SiO2 
 PCOD8278083
Probable space group: C M M A
;
_chemical_formula_sum "Si O2"
_cell_formula_units_Z 96
_cell_length_a 8.776817
_cell_length_b 30.078524
_cell_length_c 25.722601
_cell_angle_alpha 90.000000
_cell_angle_beta 90.000000
_cell_angle_gamma 90.000000
_cell_volume 6790.604632
_symmetry_space_group_name_H-M "C M M A"
_symmetry_group_IT_number 67
_symmetry_cell_setting 'orthorhombic'
loop_
_space_group_symop_operation_xyz
x,y,z
-x,1/2-y,z
x,-y,-z
-x,1/2+y,-z
-x,-y,-z
x,1/2+y,-z
-x,y,z
x,1/2-y,z
1/2+x,1/2+y,z
1/2-x,-y,z
1/2+x,1/2-y,-z
1/2-x,y,-z
1/2-x,1/2-y,-z
1/2+x,y,-z
1/2-x,1/2+y,z
1/2+x,-y,z
loop_
_atom_site_type_symbol
_atom_site_label
_atom_site_fract_x
_atom_site_fract_y
_atom_site_fract_z
Si Si1 0.828643 0.696998 0.448040
Si Si2 0.171384 0.303032 0.344056
Si Si3 0.681991 0.455917 0.942356
Si Si4 0.675044 0.302394 0.864535
Si Si5 0.180323 0.133395 0.943452
Si Si6 0.170644 0.302833 0.759375
O O1 0.823246 0.750000 0.448209
O O2 0.750000 0.678112 0.500000
O O3 0.744939 0.678244 0.396969
O O4 0.000000 0.679226 0.446996
O O5 0.175983 0.250000 0.344135
O O6 0.261257 0.322097 0.294239
O O7 0.000000 0.320791 0.340900
O O8 0.500000 0.457329 0.942580
O O9 0.750000 0.500000 0.913804
O O10 0.744025 0.410469 0.916483
O O11 0.750000 0.455191 0.000000
O O12 0.500000 0.316082 0.872904
O O13 0.698939 0.250000 0.870318
O O14 0.781019 0.324774 0.907639
O O15 0.726638 0.318824 0.807543
O O16 0.000000 0.127093 0.948421
O O17 0.250000 0.142535 0.000000
O O18 0.169628 0.250000 0.756518
O O19 0.000000 0.321407 0.766525
#
# Coordination Sequence:
#
# PCOD8278083 Si02
#       6
#    16  16  16  16  16  16
#     4   9  15  21  28  39  56  77 100 128 165 210
#     4   9  15  22  32  45  60  79 104 135 171 211
#     4  10  17  28  45  65  86 105 125 148 178 216
#     4  10  20  33  46  59  76  99 127 159 194 230
#     4  11  21  33  47  63  82 103 127 154 187 227
#     4   9  16  26  39  53  67  85 112 146 182 218
#
# _framework density 14.137180000000001
#
# number of rings (size 3 to 8) (size 9 to 14) (size 15 to 20)
#    0.000    2.333    0.000    6.500    0.000    7.333 
#    0.000    0.000    0.000    0.000    0.000    0.000 
#    0.000    0.000    0.000    0.000    0.000    0.000 
#
# Total GULP energy -595037.058208 kJ/mol
# GULP energy per Si atom -12396.605379 kJ/mol
# Density = 1.410500 g / cm^3
# Si number density = 14.137180 Si / 1000 Ang^3
#
#
#
# Elastic Constant Matrix: (Units=GPa)
#
#
# Indices 1 2 3 4 5 6 
#
# 1 128.5056 24.8382 40.9879 0.0000 0.0000 0.0000
# 2 24.8382 29.8516 24.9580 0.0000 0.0000 0.0000
# 3 40.9879 24.9580 90.2105 0.0000 0.0000 0.0000
# 4 0.0000 0.0000 0.0000 0.2519 0.0000 0.0000
# 5 0.0000 0.0000 0.0000 0.0000 27.8421 0.0000
# 6 0.0000 0.0000 0.0000 0.0000 0.0000 15.4829
#
#
#
# Elastic Compliance Matrix: (Units=1/GPa)
#
#
# Indices 1 2 3 4 5 6 
#
# 1 0.009809 -0.005770 -0.002861 0.000000 0.000000 0.000000
# 2 -0.005770 0.046974 -0.010374 0.000000 0.000000 0.000000
# 3 -0.002861 -0.010374 0.015255 0.000000 0.000000 0.000000
# 4 0.000000 0.000000 0.000000 3.970477 0.000000 0.000000
# 5 0.000000 0.000000 0.000000 0.000000 0.035917 0.000000
# 6 0.000000 0.000000 0.000000 0.000000 0.000000 0.064588
#
#
# Mechanical properties :
#
#
# Convention : Reuss Voigt Hill
#
# Bulk Modulus (GPa) = 29.38738 47.79287 38.59012
# Shear Modulus (GPa) = 1.19264 19.23428 10.21346
#
# Velocity S-wave (km/s) = 0.91948 3.69256 2.69077
# Velocity P-wave (km/s) = 4.68612 7.21525 6.08357
#
# Compressibility (1/GPa) = 0.03402821
#
# Stress axis : x y z
#
# Youngs Moduli (GPa) = 101.94203 21.28842 65.55206
#
# Poissons Ratio (x) = 0.12284 0.18752
# Poissons Ratio (y) = 0.58825 0.68005
# Poissons Ratio (z) = 0.29161 0.22085
#
# Static dielectric constant tensor:
#      x y z
#    x 2.986780 0.000000 0.000000 
#    y 0.000000 2.657950 0.000000 
#    z 0.000000 0.000000 2.786270 
# 
# 
# High freq. dielectric constant tensor:
#      x y z
#    x 1.565810 0.000000 0.000000 
#    y 0.000000 1.469520 0.000000 
#    z 0.000000 0.000000 1.529460 
# 
# From -- ./inp_files/40911.got.cif
#   From: 2010.03.12/outbox.cif.g09.slc.cpg/sg67_21_cif.got.tgz:40911.got - 2010.04.10 22:41:39.
