data_PCOD8278285
_publ_section_title
;
Structure prediction by ZEFSAII (Michael W. Deem and Ramdas Pophale) SiO2 
 PCOD8278285
Probable space group: C M M A
;
_chemical_formula_sum "Si O2"
_cell_formula_units_Z 80
_cell_length_a 27.286362
_cell_length_b 8.851689
_cell_length_c 18.299465
_cell_angle_alpha 90.000000
_cell_angle_beta 90.000000
_cell_angle_gamma 90.000000
_cell_volume 4419.876925
_symmetry_space_group_name_H-M "C M M A"
_symmetry_group_IT_number 67
_symmetry_cell_setting 'orthorhombic'
loop_
_space_group_symop_operation_xyz
x,y,z
-x,1/2-y,z
x,-y,-z
-x,1/2+y,-z
-x,-y,-z
x,1/2+y,-z
-x,y,z
x,1/2-y,z
1/2+x,1/2+y,z
1/2-x,-y,z
1/2+x,1/2-y,-z
1/2-x,y,-z
1/2-x,1/2-y,-z
1/2+x,y,-z
1/2-x,1/2+y,z
1/2+x,-y,z
loop_
_atom_site_type_symbol
_atom_site_label
_atom_site_fract_x
_atom_site_fract_y
_atom_site_fract_z
Si Si1 0.250000 0.000000 0.187837
Si Si2 0.196188 0.568170 0.573562
Si Si3 0.680942 0.583881 0.932085
Si Si4 0.500000 0.929735 0.919139
Si Si5 0.404380 0.569697 0.145888
Si Si6 0.341336 0.917957 0.276560
O O1 0.281499 0.108033 0.134950
O O2 0.212058 0.090676 0.238248
O O3 0.171659 0.500000 0.500000
O O4 0.199069 0.750000 0.570636
O O5 0.250000 0.500000 0.581682
O O6 0.164279 0.507733 0.642989
O O7 0.662064 0.750000 0.954160
O O8 0.635153 0.475566 0.914607
O O9 0.707264 0.500000 0.000000
O O10 0.500000 0.750000 0.926898
O O11 0.545821 0.984255 0.871619
O O12 0.500000 0.000000 0.000000
O O13 0.411982 0.750000 0.145228
O O14 0.382786 0.507831 0.224188
O O15 0.359724 0.750000 0.289819
#
# Coordination Sequence:
#
# PCOD8278285 Si02
#       6
#     8  16  16   8  16  16
#     4  10  19  32  47  66  96 134 174 210 251 298
#     4  10  18  30  47  73 105 141 178 212 249 294
#     4  11  22  34  49  69  96 130 170 214 257 304
#     4  12  24  40  60  82 105 132 167 214 267 318
#     4  10  21  38  57  77 100 130 168 212 262 314
#     4   9  18  32  50  72 102 136 171 209 251 301
#
# _framework density 18.10005
#
# number of rings (size 3 to 8) (size 9 to 14) (size 15 to 20)
#    0.000    1.800    1.000    4.800    0.000    3.200 
#    0.000    3.000    0.000    0.000    0.000    0.700 
#    0.000    0.000    0.000    0.000    0.000    0.000 
#
# Total GULP energy -495531.449175 kJ/mol
# GULP energy per Si atom -12388.286229 kJ/mol
# Density = 1.805885 g / cm^3
# Si number density = 18.100050 Si / 1000 Ang^3
#
#
#
# Elastic Constant Matrix: (Units=GPa)
#
#
# Indices 1 2 3 4 5 6 
#
# 1 99.7613 28.0400 57.1621 0.0000 0.0000 0.0000
# 2 28.0400 101.9609 44.6279 0.0000 0.0000 0.0000
# 3 57.1621 44.6279 158.9208 0.0000 0.0000 0.0000
# 4 0.0000 0.0000 0.0000 20.0153 0.0000 0.0000
# 5 0.0000 0.0000 0.0000 0.0000 22.4190 0.0000
# 6 0.0000 0.0000 0.0000 0.0000 0.0000 16.6284
#
#
#
# Elastic Compliance Matrix: (Units=1/GPa)
#
#
# Indices 1 2 3 4 5 6 
#
# 1 0.012888 -0.001728 -0.004150 0.000000 0.000000 0.000000
# 2 -0.001728 0.011414 -0.002584 0.000000 0.000000 0.000000
# 3 -0.004150 -0.002584 0.008511 0.000000 0.000000 0.000000
# 4 0.000000 0.000000 0.000000 0.049962 0.000000 0.000000
# 5 0.000000 0.000000 0.000000 0.000000 0.044605 0.000000
# 6 0.000000 0.000000 0.000000 0.000000 0.000000 0.060138
#
#
# Mechanical properties :
#
#
# Convention : Reuss Voigt Hill
#
# Bulk Modulus (GPa) = 62.93796 68.92254 65.93025
# Shear Modulus (GPa) = 23.83941 27.20008 25.51975
#
# Velocity S-wave (km/s) = 3.63311 3.88075 3.75897
# Velocity P-wave (km/s) = 7.24204 7.63162 7.43938
#
# Compressibility (1/GPa) = 0.01588866
#
# Stress axis : x y z
#
# Youngs Moduli (GPa) = 77.59372 87.61409 117.49680
#
# Poissons Ratio (x) = 0.15136 0.48766
# Poissons Ratio (y) = 0.13405 0.30359
# Poissons Ratio (z) = 0.32205 0.22638
#
# Static dielectric constant tensor:
#      x y z
#    x 3.157610 0.000000 0.000000 
#    y 0.000000 3.237340 0.000000 
#    z 0.000000 0.000000 3.853410 
# 
# 
# High freq. dielectric constant tensor:
#      x y z
#    x 1.665120 0.000000 0.000000 
#    y 0.000000 1.697820 0.000000 
#    z 0.000000 0.000000 1.708210 
# 
# From -- ./inp_files/35777.got.cif
#   From: 2010.03.12/outbox.cif.g09.slc.cpg/sg67_18_cif.got.tgz:35777.got - 2010.04.10 22:41:39.
