data_PCOD8278948
_publ_section_title
;
Structure prediction by ZEFSAII (Michael W. Deem and Ramdas Pophale) SiO2 
 PCOD8278948
Probable space group: C M M A
;
_chemical_formula_sum "Si O2"
_cell_formula_units_Z 120
_cell_length_a 9.014305
_cell_length_b 26.933472
_cell_length_c 27.939540
_cell_angle_alpha 90.000000
_cell_angle_beta 90.000000
_cell_angle_gamma 90.000000
_cell_volume 6783.344003
_symmetry_space_group_name_H-M "C M M A"
_symmetry_group_IT_number 67
_symmetry_cell_setting 'orthorhombic'
loop_
_space_group_symop_operation_xyz
x,y,z
-x,1/2-y,z
x,-y,-z
-x,1/2+y,-z
-x,-y,-z
x,1/2+y,-z
-x,y,z
x,1/2-y,z
1/2+x,1/2+y,z
1/2-x,-y,z
1/2+x,1/2-y,-z
1/2-x,y,-z
1/2-x,1/2-y,-z
1/2+x,y,-z
1/2-x,1/2+y,z
1/2+x,-y,z
loop_
_atom_site_type_symbol
_atom_site_label
_atom_site_fract_x
_atom_site_fract_y
_atom_site_fract_z
Si Si1 0.326636 0.639337 0.547844
Si Si2 0.325947 0.550757 0.884688
Si Si3 0.327872 0.250000 0.050017
Si Si4 0.669578 0.307105 0.355860
Si Si5 0.824931 0.858033 0.051367
Si Si6 0.826038 0.449551 0.774658
Si Si7 0.671617 0.390206 0.696465
Si Si8 0.326109 0.052338 0.600447
O O1 0.500000 0.630228 0.539074
O O2 0.250000 0.660285 0.500000
O O3 0.297082 0.679655 0.589085
O O4 0.249232 0.587844 0.561740
O O5 0.500000 0.543698 0.891669
O O6 0.250000 0.500000 0.903123
O O7 0.265549 0.598247 0.914165
O O8 0.284798 0.561096 0.829636
O O9 0.500000 0.250000 0.039174
O O10 0.286513 0.303180 0.075062
O O11 0.250000 0.250000 0.000000
O O12 0.500000 0.320771 0.343456
O O13 0.704330 0.250000 0.347881
O O14 0.776682 0.335948 0.319848
O O15 0.000000 0.863475 0.044368
O O16 0.750000 0.864329 0.000000
O O17 0.750000 0.500000 0.756733
O O18 0.763900 0.404551 0.743371
O O19 0.000000 0.454841 0.766568
O O20 0.500000 0.388447 0.710131
O O21 0.705026 0.428835 0.654070
O O22 0.500000 0.048965 0.589610
O O23 0.250000 0.000000 0.594246
#
# Coordination Sequence:
#
# PCOD8278948 Si02
#       8
#    16  16   8  16  16  16  16  16
#     4  10  20  34  51  72  99 129 162 199 238 284
#     4   9  19  33  48  69 100 134 170 207 249 300
#     4   8  14  26  46  68  90 118 156 202 248 288
#     4   9  19  36  56  76  99 129 164 202 245 290
#     4   9  17  30  48  71  97 128 167 211 254 300
#     4  10  19  32  51  73 100 132 166 204 244 293
#     4  10  20  33  52  77 101 127 160 201 248 296
#     4  10  20  33  49  71  98 126 159 196 239 289
#
# _framework density 17.690390000000001
#
# number of rings (size 3 to 8) (size 9 to 14) (size 15 to 20)
#    0.000    2.533    0.000    2.000    0.000    5.333 
#    0.000    2.667    1.467    0.000    0.000    0.000 
#    0.000    0.000    0.000    0.000    0.000    0.000 
#
# Total GULP energy -743870.956043 kJ/mol
# GULP energy per Si atom -12397.849267 kJ/mol
# Density = 1.765013 g / cm^3
# Si number density = 17.690390 Si / 1000 Ang^3
#
#
#
# Elastic Constant Matrix: (Units=GPa)
#
#
# Indices 1 2 3 4 5 6 
#
# 1 66.9896 38.2942 36.3018 0.0000 0.0000 0.0000
# 2 38.2942 112.0881 52.1196 0.0000 0.0000 0.0000
# 3 36.3018 52.1196 77.8840 0.0000 0.0000 0.0000
# 4 0.0000 0.0000 0.0000 18.6284 0.0000 0.0000
# 5 0.0000 0.0000 0.0000 0.0000 27.2683 0.0000
# 6 0.0000 0.0000 0.0000 0.0000 0.0000 27.6679
#
#
#
# Elastic Compliance Matrix: (Units=1/GPa)
#
#
# Indices 1 2 3 4 5 6 
#
# 1 0.021039 -0.003815 -0.007253 0.000000 0.000000 0.000000
# 2 -0.003815 0.013644 -0.007352 0.000000 0.000000 0.000000
# 3 -0.007253 -0.007352 0.021140 0.000000 0.000000 0.000000
# 4 0.000000 0.000000 0.000000 0.053681 0.000000 0.000000
# 5 0.000000 0.000000 0.000000 0.000000 0.036673 0.000000
# 6 0.000000 0.000000 0.000000 0.000000 0.000000 0.036143
#
#
# Mechanical properties :
#
#
# Convention : Reuss Voigt Hill
#
# Bulk Modulus (GPa) = 52.68101 56.71032 54.69567
# Shear Modulus (GPa) = 22.17412 23.39600 22.78506
#
# Velocity S-wave (km/s) = 3.54426 3.64060 3.59275
# Velocity P-wave (km/s) = 6.82592 7.05682 6.94233
#
# Compressibility (1/GPa) = 0.01898217
#
# Stress axis : x y z
#
# Youngs Moduli (GPa) = 47.53033 73.29465 47.30320
#
# Poissons Ratio (x) = 0.27964 0.34310
# Poissons Ratio (y) = 0.18134 0.34777
# Poissons Ratio (z) = 0.34475 0.53886
#
# Static dielectric constant tensor:
#      x y z
#    x 3.761010 0.000000 0.000000 
#    y 0.000000 3.509880 0.000000 
#    z 0.000000 0.000000 3.154090 
# 
# 
# High freq. dielectric constant tensor:
#      x y z
#    x 1.691420 0.000000 0.000000 
#    y 0.000000 1.687150 0.000000 
#    z 0.000000 0.000000 1.664210 
# 
# From -- ./inp_files/43888.got.cif
#   From: 2010.03.12/outbox.cif.g09.slc.cpg/sg67_22_cif.got.tgz:43888.got - 2010.04.10 22:41:39.
