data_PCOD8278919
_publ_section_title
;
Structure prediction by ZEFSAII (Michael W. Deem and Ramdas Pophale) SiO2 
 PCOD8278919
Probable space group: C M M A
;
_chemical_formula_sum "Si O2"
_cell_formula_units_Z 88
_cell_length_a 30.443402
_cell_length_b 8.881882
_cell_length_c 17.601894
_cell_angle_alpha 90.000000
_cell_angle_beta 90.000000
_cell_angle_gamma 90.000000
_cell_volume 4759.458922
_symmetry_space_group_name_H-M "C M M A"
_symmetry_group_IT_number 67
_symmetry_cell_setting 'orthorhombic'
loop_
_space_group_symop_operation_xyz
x,y,z
-x,1/2-y,z
x,-y,-z
-x,1/2+y,-z
-x,-y,-z
x,1/2+y,-z
-x,y,z
x,1/2-y,z
1/2+x,1/2+y,z
1/2-x,-y,z
1/2+x,1/2-y,-z
1/2-x,y,-z
1/2-x,1/2-y,-z
1/2+x,y,-z
1/2-x,1/2+y,z
1/2+x,-y,z
loop_
_atom_site_type_symbol
_atom_site_label
_atom_site_fract_x
_atom_site_fract_y
_atom_site_fract_z
Si Si1 0.205864 0.927763 0.234976
Si Si2 0.411664 0.921581 0.155405
Si Si3 0.000000 0.075200 0.079151
Si Si4 0.677019 0.422596 0.920836
Si Si5 0.384819 0.423949 0.302815
Si Si6 0.549624 0.926951 0.419147
O O1 0.210487 0.750000 0.225321
O O2 0.167036 0.966645 0.295562
O O3 0.250000 0.000000 0.269923
O O4 0.198959 0.997060 0.151293
O O5 0.413142 0.750000 0.187683
O O6 0.457669 0.976946 0.124326
O O7 0.375556 0.932941 0.088920
O O8 0.403509 0.042104 0.220322
O O9 0.000000 0.250000 0.064795
O O10 0.000000 0.000000 0.000000
O O11 0.693026 0.250000 0.922863
O O12 0.691016 0.500000 0.000000
O O13 0.391294 0.250000 0.323341
O O14 0.411722 0.520108 0.363620
O O15 0.500000 0.969804 0.390253
O O16 0.553685 0.750000 0.428337
O O17 0.558712 0.000000 0.500000
#
# Coordination Sequence:
#
# PCOD8278919 Si02
#       6
#    16  16   8  16  16  16
#     4  10  21  37  56  79 106 138 179 226 275 328
#     4   9  19  33  48  69  99 137 179 222 268 319
#     4  10  20  32  46  66  95 132 177 224 268 314
#     4  10  19  32  50  71  99 135 176 226 280 331
#     4  10  21  36  56  82 111 142 178 220 267 319
#     4  10  21  37  59  87 119 152 183 217 258 309
#
# _framework density 18.489497
#
# number of rings (size 3 to 8) (size 9 to 14) (size 15 to 20)
#    0.000    2.182    0.000    2.727    1.273    5.091 
#    0.000    1.818    0.000    0.545    0.000    3.818 
#    0.000    0.000    0.000    0.000    0.000    0.000 
#
# Total GULP energy -545431.018032 kJ/mol
# GULP energy per Si atom -12396.159501 kJ/mol
# Density = 1.844741 g / cm^3
# Si number density = 18.489497 Si / 1000 Ang^3
#
#
#
# Elastic Constant Matrix: (Units=GPa)
#
#
# Indices 1 2 3 4 5 6 
#
# 1 138.0883 55.2091 45.6444 0.0000 0.0000 0.0000
# 2 55.2091 89.2270 44.5291 0.0000 0.0000 0.0000
# 3 45.6444 44.5291 75.2088 0.0000 0.0000 0.0000
# 4 0.0000 0.0000 0.0000 35.5562 0.0000 0.0000
# 5 0.0000 0.0000 0.0000 0.0000 24.4054 0.0000
# 6 0.0000 0.0000 0.0000 0.0000 0.0000 28.9779
#
#
#
# Elastic Compliance Matrix: (Units=1/GPa)
#
#
# Indices 1 2 3 4 5 6 
#
# 1 0.010230 -0.004587 -0.003493 0.000000 0.000000 0.000000
# 2 -0.004587 0.017964 -0.007852 0.000000 0.000000 0.000000
# 3 -0.003493 -0.007852 0.020066 0.000000 0.000000 0.000000
# 4 0.000000 0.000000 0.000000 0.028125 0.000000 0.000000
# 5 0.000000 0.000000 0.000000 0.000000 0.040975 0.000000
# 6 0.000000 0.000000 0.000000 0.000000 0.000000 0.034509
#
#
# Mechanical properties :
#
#
# Convention : Reuss Voigt Hill
#
# Bulk Modulus (GPa) = 60.99249 65.92103 63.45676
# Shear Modulus (GPa) = 26.42743 28.26400 27.34572
#
# Velocity S-wave (km/s) = 3.78474 3.91404 3.84993
# Velocity P-wave (km/s) = 7.22207 7.49379 7.35918
#
# Compressibility (1/GPa) = 0.01639546
#
# Stress axis : x y z
#
# Youngs Moduli (GPa) = 97.75031 55.66641 49.83676
#
# Poissons Ratio (x) = 0.25532 0.17408
# Poissons Ratio (y) = 0.44835 0.39134
# Poissons Ratio (z) = 0.34145 0.43712
#
# Static dielectric constant tensor:
#      x y z
#    x 3.864860 0.000000 0.000000 
#    y 0.000000 3.439120 0.000000 
#    z 0.000000 0.000000 3.271000 
# 
# 
# High freq. dielectric constant tensor:
#      x y z
#    x 1.729450 0.000000 0.000000 
#    y 0.000000 1.728480 0.000000 
#    z 0.000000 0.000000 1.689030 
# 
# From -- ./inp_files/32379.got.cif
#   From: 2010.03.12/outbox.cif.g09.slc.cpg/sg67_17_cif.got.tgz:32379.got - 2010.04.10 22:41:39.
