data_PCOD8278011
_publ_section_title
;
Structure prediction by ZEFSAII (Michael W. Deem and Ramdas Pophale) SiO2 
 PCOD8278011
Probable space group: C M M A
;
_chemical_formula_sum "Si O2"
_cell_formula_units_Z 112
_cell_length_a 17.292056
_cell_length_b 18.052615
_cell_length_c 20.118924
_cell_angle_alpha 90.000000
_cell_angle_beta 90.000000
_cell_angle_gamma 90.000000
_cell_volume 6280.460719
_symmetry_space_group_name_H-M "C M M A"
_symmetry_group_IT_number 67
_symmetry_cell_setting 'orthorhombic'
loop_
_space_group_symop_operation_xyz
x,y,z
-x,1/2-y,z
x,-y,-z
-x,1/2+y,-z
-x,-y,-z
x,1/2+y,-z
-x,y,z
x,1/2-y,z
1/2+x,1/2+y,z
1/2-x,-y,z
1/2+x,1/2-y,-z
1/2-x,y,-z
1/2-x,1/2-y,-z
1/2+x,y,-z
1/2-x,1/2+y,z
1/2+x,-y,z
loop_
_atom_site_type_symbol
_atom_site_label
_atom_site_fract_x
_atom_site_fract_y
_atom_site_fract_z
Si Si1 0.766960 0.414030 0.928881
Si Si2 0.914161 0.832730 0.110660
Si Si3 0.778606 0.084250 0.211438
Si Si4 0.339356 0.980519 0.572996
Si Si5 0.380012 0.629412 0.745763
Si Si6 0.913028 0.533462 0.705563
Si Si7 0.912590 0.668727 0.396136
O O1 0.750000 0.500000 0.937307
O O2 0.856899 0.396642 0.914863
O O3 0.715882 0.385368 0.865354
O O4 0.750000 0.374517 0.000000
O O5 0.888203 0.750000 0.087816
O O6 0.917068 0.833283 0.190243
O O7 0.000000 0.850121 0.083046
O O8 0.713827 0.130737 0.250715
O O9 0.859038 0.089923 0.251906
O O10 0.750000 0.000000 0.207740
O O11 0.351502 0.892241 0.579437
O O12 0.370528 0.000000 0.500000
O O13 0.250000 0.000000 0.581789
O O14 0.385448 0.026032 0.629046
O O15 0.411444 0.545842 0.740478
O O16 0.407198 0.676455 0.683162
O O17 0.000000 0.565576 0.706119
O O18 0.893113 0.750000 0.426503
O O19 0.000000 0.645042 0.416008
#
# Coordination Sequence:
#
# PCOD8278011 Si02
#       7
#    16  16  16  16  16  16  16
#     4   9  18  33  49  67  95 132 170 202 238 289
#     4  10  19  30  47  73 102 127 155 198 251 300
#     4   8  15  27  43  64  93 125 158 198 238 284
#     4  10  20  34  50  69  96 132 169 203 242 292
#     4   9  15  26  44  66  96 125 150 184 237 300
#     4  10  17  26  45  71  97 125 160 203 246 288
#     4  10  19  30  47  73 102 125 149 191 246 296
#
# _framework density 17.833086999999999
#
# number of rings (size 3 to 8) (size 9 to 14) (size 15 to 20)
#    0.000    2.571    0.000    6.000    0.000    2.571 
#    0.000    3.571    0.000    0.000    0.000    0.000 
#    0.000   35.429    0.000    0.000    0.000    0.000 
#
# Total GULP energy -693840.622349 kJ/mol
# GULP energy per Si atom -12390.011113 kJ/mol
# Density = 1.779250 g / cm^3
# Si number density = 17.833087 Si / 1000 Ang^3
#
#
#
# Elastic Constant Matrix: (Units=GPa)
#
#
# Indices 1 2 3 4 5 6 
#
# 1 129.8834 41.2295 49.8996 0.0000 0.0000 0.0000
# 2 41.2295 62.3127 17.5140 0.0000 0.0000 0.0000
# 3 49.8996 17.5140 102.2304 0.0000 0.0000 0.0000
# 4 0.0000 0.0000 0.0000 4.3093 0.0000 0.0000
# 5 0.0000 0.0000 0.0000 0.0000 11.3712 0.0000
# 6 0.0000 0.0000 0.0000 0.0000 0.0000 24.0328
#
#
#
# Elastic Compliance Matrix: (Units=1/GPa)
#
#
# Indices 1 2 3 4 5 6 
#
# 1 0.011426 -0.006296 -0.004499 0.000000 0.000000 0.000000
# 2 -0.006296 0.020329 -0.000410 0.000000 0.000000 0.000000
# 3 -0.004499 -0.000410 0.012048 0.000000 0.000000 0.000000
# 4 0.000000 0.000000 0.000000 0.232055 0.000000 0.000000
# 5 0.000000 0.000000 0.000000 0.000000 0.087942 0.000000
# 6 0.000000 0.000000 0.000000 0.000000 0.000000 0.041610
#
#
# Mechanical properties :
#
#
# Convention : Reuss Voigt Hill
#
# Bulk Modulus (GPa) = 46.74056 56.85695 51.79876
# Shear Modulus (GPa) = 11.49560 20.32821 15.91190
#
# Velocity S-wave (km/s) = 2.54169 3.37993 2.99033
# Velocity P-wave (km/s) = 5.90597 6.86906 6.40564
#
# Compressibility (1/GPa) = 0.02139469
#
# Stress axis : x y z
#
# Youngs Moduli (GPa) = 87.51997 49.19123 83.00267
#
# Poissons Ratio (x) = 0.30969 0.37339
# Poissons Ratio (y) = 0.55100 0.03401
# Poissons Ratio (z) = 0.39371 0.02016
#
# Static dielectric constant tensor:
#      x y z
#    x 3.313740 0.000000 0.000000 
#    y 0.000000 2.970410 0.000000 
#    z 0.000000 0.000000 3.548850 
# 
# 
# High freq. dielectric constant tensor:
#      x y z
#    x 1.684200 0.000000 0.000000 
#    y 0.000000 1.651090 0.000000 
#    z 0.000000 0.000000 1.686920 
# 
# From -- ./inp_files/39055.got.cif
#   From: 2010.03.12/outbox.cif.g09.slc.cpg/sg67_20_cif.got.tgz:39055.got - 2010.04.10 22:41:39.
