data_PCOD8278373
_publ_section_title
;
Structure prediction by ZEFSAII (Michael W. Deem and Ramdas Pophale) SiO2 
 PCOD8278373
Probable space group: C M M A
;
_chemical_formula_sum "Si O2"
_cell_formula_units_Z 96
_cell_length_a 27.327944
_cell_length_b 17.307375
_cell_length_c 12.046841
_cell_angle_alpha 90.000000
_cell_angle_beta 90.000000
_cell_angle_gamma 90.000000
_cell_volume 5697.854318
_symmetry_space_group_name_H-M "C M M A"
_symmetry_group_IT_number 67
_symmetry_cell_setting 'orthorhombic'
loop_
_space_group_symop_operation_xyz
x,y,z
-x,1/2-y,z
x,-y,-z
-x,1/2+y,-z
-x,-y,-z
x,1/2+y,-z
-x,y,z
x,1/2-y,z
1/2+x,1/2+y,z
1/2-x,-y,z
1/2+x,1/2-y,-z
1/2-x,y,-z
1/2-x,1/2-y,-z
1/2+x,y,-z
1/2-x,1/2+y,z
1/2+x,-y,z
loop_
_atom_site_type_symbol
_atom_site_label
_atom_site_fract_x
_atom_site_fract_y
_atom_site_fract_z
Si Si1 0.303104 0.474951 0.625399
Si Si2 0.635191 0.659864 0.444095
Si Si3 0.057342 0.080262 0.310142
Si Si4 0.610157 0.069960 0.333504
Si Si5 0.555427 0.661195 0.850254
Si Si6 0.443119 0.925941 0.060920
O O1 0.308755 0.500000 0.500000
O O2 0.250000 0.500000 0.671803
O O3 0.319041 0.384057 0.618319
O O4 0.340995 0.522862 0.700508
O O5 0.648899 0.750000 0.452000
O O6 0.585629 0.648058 0.374264
O O7 0.622311 0.627407 0.566028
O O8 0.078171 0.085172 0.183807
O O9 0.000000 0.097077 0.320571
O O10 0.069758 0.995919 0.363270
O O11 0.593154 0.116639 0.226638
O O12 0.500000 0.632668 0.824191
O O13 0.561382 0.750000 0.823120
O O14 0.566912 0.647210 0.980640
O O15 0.500000 0.942136 0.079082
O O16 0.419177 0.000000 0.000000
#
# Coordination Sequence:
#
# PCOD8278373 Si02
#       6
#    16  16  16  16  16  16
#     4   8  16  33  53  70  90 120 159 199 235 287
#     4  10  21  33  46  71 104 130 154 195 244 287
#     4  10  19  31  49  68  93 134 175 202 229 275
#     4  10  18  31  49  69  96 127 162 196 232 290
#     4  10  19  29  44  69 100 129 158 200 245 277
#     4   9  16  29  47  65  88 123 170 209 235 270
#
# _framework density 16.848448000000001
#
# number of rings (size 3 to 8) (size 9 to 14) (size 15 to 20)
#    0.000    2.500    1.667    2.500    0.000    3.000 
#    0.000    9.167    0.000    0.000    0.000    9.333 
#    0.000    6.667    0.000    0.000    0.000    0.000 
#
# Total GULP energy -594629.487092 kJ/mol
# GULP energy per Si atom -12388.114314 kJ/mol
# Density = 1.681010 g / cm^3
# Si number density = 16.848448 Si / 1000 Ang^3
#
#
#
# Elastic Constant Matrix: (Units=GPa)
#
#
# Indices 1 2 3 4 5 6 
#
# 1 90.9513 45.4690 29.6686 0.0000 0.0000 0.0000
# 2 45.4690 104.8884 43.3847 0.0000 0.0000 0.0000
# 3 29.6686 43.3847 56.9424 0.0000 0.0000 0.0000
# 4 0.0000 0.0000 0.0000 24.7313 0.0000 0.0000
# 5 0.0000 0.0000 0.0000 0.0000 6.2567 0.0000
# 6 0.0000 0.0000 0.0000 0.0000 0.0000 15.5271
#
#
#
# Elastic Compliance Matrix: (Units=1/GPa)
#
#
# Indices 1 2 3 4 5 6 
#
# 1 0.014659 -0.004666 -0.004083 0.000000 0.000000 0.000000
# 2 -0.004666 0.015406 -0.009307 0.000000 0.000000 0.000000
# 3 -0.004083 -0.009307 0.026780 0.000000 0.000000 0.000000
# 4 0.000000 0.000000 0.000000 0.040435 0.000000 0.000000
# 5 0.000000 0.000000 0.000000 0.000000 0.159830 0.000000
# 6 0.000000 0.000000 0.000000 0.000000 0.000000 0.064403
#
#
# Mechanical properties :
#
#
# Convention : Reuss Voigt Hill
#
# Bulk Modulus (GPa) = 48.23036 54.42518 51.32777
# Shear Modulus (GPa) = 13.71603 18.25366 15.98485
#
# Velocity S-wave (km/s) = 2.85631 3.29508 3.08351
# Velocity P-wave (km/s) = 6.29016 6.84468 6.57327
#
# Compressibility (1/GPa) = 0.02073383
#
# Stress axis : x y z
#
# Youngs Moduli (GPa) = 68.21554 64.90842 37.34130
#
# Poissons Ratio (x) = 0.30287 0.15246
# Poissons Ratio (y) = 0.31830 0.34754
# Poissons Ratio (z) = 0.27852 0.60410
#
# Static dielectric constant tensor:
#      x y z
#    x 3.215130 0.000000 0.000000 
#    y 0.000000 3.156750 0.000000 
#    z 0.000000 0.000000 3.160460 
# 
# 
# High freq. dielectric constant tensor:
#      x y z
#    x 1.617820 0.000000 0.000000 
#    y 0.000000 1.648580 0.000000 
#    z 0.000000 0.000000 1.638910 
# 
# From -- ./inp_files/19800.got.cif
#   From: 2010.03.12/outbox.cif.g09.slc.cpg/sg67_10_cif.got.tgz:19800.got - 2010.04.10 22:41:39.
