data_PCOD8278312
_publ_section_title
;
Structure prediction by ZEFSAII (Michael W. Deem and Ramdas Pophale) SiO2 
 PCOD8278312
Probable space group: C M M A
;
_chemical_formula_sum "Si O2"
_cell_formula_units_Z 120
_cell_length_a 8.654780
_cell_length_b 27.082599
_cell_length_c 28.447951
_cell_angle_alpha 90.000000
_cell_angle_beta 90.000000
_cell_angle_gamma 90.000000
_cell_volume 6668.027211
_symmetry_space_group_name_H-M "C M M A"
_symmetry_group_IT_number 67
_symmetry_cell_setting 'orthorhombic'
loop_
_space_group_symop_operation_xyz
x,y,z
-x,1/2-y,z
x,-y,-z
-x,1/2+y,-z
-x,-y,-z
x,1/2+y,-z
-x,y,z
x,1/2-y,z
1/2+x,1/2+y,z
1/2-x,-y,z
1/2+x,1/2-y,-z
1/2-x,y,-z
1/2-x,1/2-y,-z
1/2+x,y,-z
1/2-x,1/2+y,z
1/2+x,-y,z
loop_
_atom_site_type_symbol
_atom_site_label
_atom_site_fract_x
_atom_site_fract_y
_atom_site_fract_z
Si Si1 0.183161 0.897261 0.307879
Si Si2 0.815845 0.148190 0.948046
Si Si3 0.818359 0.551083 0.216029
Si Si4 0.317094 0.552676 0.889392
Si Si5 0.317847 0.803233 0.640658
Si Si6 0.681788 0.640019 0.549359
Si Si7 0.684499 0.250000 0.947673
Si Si8 0.817696 0.051738 0.395390
O O1 0.231650 0.907394 0.253826
O O2 0.245388 0.842825 0.321579
O O3 0.258649 0.936393 0.342957
O O4 0.000000 0.901287 0.314994
O O5 0.759821 0.099495 0.919809
O O6 0.748018 0.198874 0.924241
O O7 0.000000 0.152355 0.949058
O O8 0.750000 0.141871 0.000000
O O9 0.750000 0.500000 0.234460
O O10 0.757109 0.563471 0.163707
O O11 0.000000 0.545554 0.214294
O O12 0.500000 0.548324 0.892066
O O13 0.250000 0.500000 0.907701
O O14 0.500000 0.799771 0.646103
O O15 0.241417 0.750000 0.651250
O O16 0.275393 0.818479 0.587633
O O17 0.500000 0.631703 0.545499
O O18 0.750000 0.657992 0.500000
O O19 0.759934 0.589462 0.565301
O O20 0.500000 0.250000 0.946876
O O21 0.750000 0.250000 0.000000
O O22 0.000000 0.050414 0.394866
O O23 0.750000 0.000000 0.411564
#
# Coordination Sequence:
#
# PCOD8278312 Si02
#       8
#    16  16  16  16  16  16   8  16
#     4   9  17  30  50  73  98 124 156 198 237 282
#     4  10  19  32  50  72 100 134 171 216 261 307
#     4   9  17  30  48  71  98 128 162 198 239 288
#     4   9  19  33  49  70 101 136 171 209 255 305
#     4   8  15  29  49  71  95 123 154 191 233 275
#     4  10  20  34  50  70  95 124 158 194 234 278
#     4  10  18  30  50  74  96 124 166 212 256 302
#     4  11  21  33  49  70  97 125 157 192 232 282
#
# _framework density 17.996327000000001
#
# number of rings (size 3 to 8) (size 9 to 14) (size 15 to 20)
#    0.000    2.533    0.000    4.600    0.000    3.467 
#    0.000    2.667    1.467    9.600    0.000    0.000 
#    0.000    0.000    0.000    0.000    0.000    0.000 
#
# Total GULP energy -743664.975321 kJ/mol
# GULP energy per Si atom -12394.416255 kJ/mol
# Density = 1.795537 g / cm^3
# Si number density = 17.996327 Si / 1000 Ang^3
#
#
#
# Elastic Constant Matrix: (Units=GPa)
#
#
# Indices 1 2 3 4 5 6 
#
# 1 62.5094 35.2817 24.8717 0.0000 0.0000 0.0000
# 2 35.2817 152.2905 62.8088 0.0000 0.0000 0.0000
# 3 24.8717 62.8088 90.9728 0.0000 0.0000 0.0000
# 4 0.0000 0.0000 0.0000 20.6721 0.0000 0.0000
# 5 0.0000 0.0000 0.0000 0.0000 22.1555 0.0000
# 6 0.0000 0.0000 0.0000 0.0000 0.0000 20.0295
#
#
#
# Elastic Compliance Matrix: (Units=1/GPa)
#
#
# Indices 1 2 3 4 5 6 
#
# 1 0.018976 -0.003155 -0.003010 0.000000 0.000000 0.000000
# 2 -0.003155 0.009705 -0.005838 0.000000 0.000000 0.000000
# 3 -0.003010 -0.005838 0.015846 0.000000 0.000000 0.000000
# 4 0.000000 0.000000 0.000000 0.048374 0.000000 0.000000
# 5 0.000000 0.000000 0.000000 0.000000 0.045135 0.000000
# 6 0.000000 0.000000 0.000000 0.000000 0.000000 0.049926
#
#
# Mechanical properties :
#
#
# Convention : Reuss Voigt Hill
#
# Bulk Modulus (GPa) = 48.72956 61.29967 55.01462
# Shear Modulus (GPa) = 22.85106 24.75881 23.80494
#
# Velocity S-wave (km/s) = 3.56724 3.71316 3.64093
# Velocity P-wave (km/s) = 6.64102 7.24705 6.95064
#
# Compressibility (1/GPa) = 0.02052143
#
# Stress axis : x y z
#
# Youngs Moduli (GPa) = 52.69863 103.03930 63.10844
#
# Poissons Ratio (x) = 0.32508 0.18994
# Poissons Ratio (y) = 0.16626 0.36842
# Poissons Ratio (z) = 0.15861 0.60154
#
# Static dielectric constant tensor:
#      x y z
#    x 3.213950 0.000000 0.000000 
#    y 0.000000 3.746390 0.000000 
#    z 0.000000 0.000000 3.377520 
# 
# 
# High freq. dielectric constant tensor:
#      x y z
#    x 1.688440 0.000000 0.000000 
#    y 0.000000 1.702230 0.000000 
#    z 0.000000 0.000000 1.678900 
# 
# From -- ./inp_files/43938.got.cif
#   From: 2010.03.12/outbox.cif.g09.slc.cpg/sg67_22_cif.got.tgz:43938.got - 2010.04.10 22:41:39.
