data_PCOD8278487
_publ_section_title
;
Structure prediction by ZEFSAII (Michael W. Deem and Ramdas Pophale) SiO2 
 PCOD8278487
Probable space group: C M M A
;
_chemical_formula_sum "Si O2"
_cell_formula_units_Z 72
_cell_length_a 8.672270
_cell_length_b 25.481413
_cell_length_c 17.041638
_cell_angle_alpha 90.000000
_cell_angle_beta 90.000000
_cell_angle_gamma 90.000000
_cell_volume 3765.890026
_symmetry_space_group_name_H-M "C M M A"
_symmetry_group_IT_number 67
_symmetry_cell_setting 'orthorhombic'
loop_
_space_group_symop_operation_xyz
x,y,z
-x,1/2-y,z
x,-y,-z
-x,1/2+y,-z
-x,-y,-z
x,1/2+y,-z
-x,y,z
x,1/2-y,z
1/2+x,1/2+y,z
1/2-x,-y,z
1/2+x,1/2-y,-z
1/2-x,y,-z
1/2-x,1/2-y,-z
1/2+x,y,-z
1/2-x,1/2+y,z
1/2+x,-y,z
loop_
_atom_site_type_symbol
_atom_site_label
_atom_site_fract_x
_atom_site_fract_y
_atom_site_fract_z
Si Si1 0.320459 0.662824 0.201554
Si Si2 0.315396 0.750000 0.086338
Si Si3 0.817102 0.553700 0.741971
Si Si4 0.177697 0.191652 0.375608
Si Si5 0.319798 0.412121 0.419902
O O1 0.500000 0.658593 0.186114
O O2 0.250236 0.698010 0.131196
O O3 0.254456 0.603025 0.206133
O O4 0.286278 0.691858 0.283087
O O5 0.500000 0.750000 0.085615
O O6 0.250000 0.750000 0.000000
O O7 0.750000 0.500000 0.778249
O O8 0.762739 0.559638 0.652452
O O9 0.000000 0.551803 0.742485
O O10 0.211064 0.250000 0.408229
O O11 0.287833 0.150546 0.419153
O O12 0.000000 0.174974 0.389913
O O13 0.500000 0.423393 0.415672
O O14 0.250000 0.435925 0.500000
#
# Coordination Sequence:
#
# PCOD8278487 Si02
#       5
#    16   8  16  16  16
#     4   8  15  30  54  77 104 139 175 207 252 311
#     4  10  18  32  54  84 115 144 171 204 251 306
#     4  10  20  36  57  80 101 133 177 222 266 316
#     4   9  16  30  52  73  95 133 179 220 265 319
#     4  11  22  35  49  70 101 136 175 223 271 318
#
# _framework density 19.118986
#
# number of rings (size 3 to 8) (size 9 to 14) (size 15 to 20)
#    0.000    2.444    1.111    4.000    0.000    1.333 
#    0.000    7.778    0.000    0.667    0.000    4.667 
#    0.000    0.000    0.000    0.000    0.000    0.000 
#
# Total GULP energy -446198.397727 kJ/mol
# GULP energy per Si atom -12394.399937 kJ/mol
# Density = 1.907547 g / cm^3
# Si number density = 19.118986 Si / 1000 Ang^3
#
#
#
# Elastic Constant Matrix: (Units=GPa)
#
#
# Indices 1 2 3 4 5 6 
#
# 1 64.2418 27.8802 16.2844 0.0000 0.0000 0.0000
# 2 27.8802 137.3147 41.4434 0.0000 0.0000 0.0000
# 3 16.2844 41.4434 91.2799 0.0000 0.0000 0.0000
# 4 0.0000 0.0000 0.0000 30.0900 0.0000 0.0000
# 5 0.0000 0.0000 0.0000 0.0000 23.7030 0.0000
# 6 0.0000 0.0000 0.0000 0.0000 0.0000 29.0929
#
#
#
# Elastic Compliance Matrix: (Units=1/GPa)
#
#
# Indices 1 2 3 4 5 6 
#
# 1 0.017303 -0.002991 -0.001729 0.000000 0.000000 0.000000
# 2 -0.002991 0.008956 -0.003533 0.000000 0.000000 0.000000
# 3 -0.001729 -0.003533 0.012868 0.000000 0.000000 0.000000
# 4 0.000000 0.000000 0.000000 0.033234 0.000000 0.000000
# 5 0.000000 0.000000 0.000000 0.000000 0.042189 0.000000
# 6 0.000000 0.000000 0.000000 0.000000 0.000000 0.034373
#
#
# Mechanical properties :
#
#
# Convention : Reuss Voigt Hill
#
# Bulk Modulus (GPa) = 44.20667 51.56138 47.88403
# Shear Modulus (GPa) = 28.90725 30.39240 29.64982
#
# Velocity S-wave (km/s) = 3.89262 3.99136 3.94230
# Velocity P-wave (km/s) = 6.58600 6.94755 6.76919
#
# Compressibility (1/GPa) = 0.02262102
#
# Stress axis : x y z
#
# Youngs Moduli (GPa) = 57.79475 111.65570 77.71447
#
# Poissons Ratio (x) = 0.33400 0.13434
# Poissons Ratio (y) = 0.17289 0.27454
# Poissons Ratio (z) = 0.09991 0.39444
#
# Static dielectric constant tensor:
#      x y z
#    x 3.221430 0.000000 0.000000 
#    y 0.000000 4.122110 0.000000 
#    z 0.000000 0.000000 3.331970 
# 
# 
# High freq. dielectric constant tensor:
#      x y z
#    x 1.718870 0.000000 0.000000 
#    y 0.000000 1.758110 0.000000 
#    z 0.000000 0.000000 1.705330 
# 
# From -- ./inp_files/25078.got.cif
#   From: 2010.03.12/outbox.cif.g09.slc.cpg/sg67_13_cif.got.tgz:25078.got - 2010.04.10 22:41:39.
