data_PCOD8278628
_publ_section_title
;
Structure prediction by ZEFSAII (Michael W. Deem and Ramdas Pophale) SiO2 
 PCOD8278628
Probable space group: C M M A
;
_chemical_formula_sum "Si O2"
_cell_formula_units_Z 112
_cell_length_a 24.905035
_cell_length_b 17.635673
_cell_length_c 15.754384
_cell_angle_alpha 90.000000
_cell_angle_beta 90.000000
_cell_angle_gamma 90.000000
_cell_volume 6919.594117
_symmetry_space_group_name_H-M "C M M A"
_symmetry_group_IT_number 67
_symmetry_cell_setting 'orthorhombic'
loop_
_space_group_symop_operation_xyz
x,y,z
-x,1/2-y,z
x,-y,-z
-x,1/2+y,-z
-x,-y,-z
x,1/2+y,-z
-x,y,z
x,1/2-y,z
1/2+x,1/2+y,z
1/2-x,-y,z
1/2+x,1/2-y,-z
1/2-x,y,-z
1/2-x,1/2-y,-z
1/2+x,y,-z
1/2-x,1/2+y,z
1/2+x,-y,z
loop_
_atom_site_type_symbol
_atom_site_label
_atom_site_fract_x
_atom_site_fract_y
_atom_site_fract_z
Si Si1 0.746626 0.088934 0.636779
Si Si2 0.353319 0.837617 0.884021
Si Si3 0.663782 0.911772 0.507306
Si Si4 0.693618 0.586880 0.029247
Si Si5 0.235599 0.661363 0.816020
Si Si6 0.440388 0.339893 0.243080
Si Si7 0.059907 0.660338 0.433328
O O1 0.698623 0.111576 0.573763
O O2 0.803327 0.110983 0.592628
O O3 0.733102 0.138476 0.718413
O O4 0.750000 0.000000 0.658952
O O5 0.365666 0.750000 0.894055
O O6 0.296285 0.855620 0.842849
O O7 0.398319 0.875882 0.823644
O O8 0.355168 0.873076 0.978820
O O9 0.605827 0.871718 0.505106
O O10 0.653025 0.000000 0.500000
O O11 0.693447 0.607947 0.129944
O O12 0.692246 0.500000 0.000000
O O13 0.750000 0.624254 0.000000
O O14 0.220508 0.750000 0.827618
O O15 0.500000 0.362906 0.212893
O O16 0.433771 0.250000 0.245448
O O17 0.429774 0.371011 0.337905
O O18 0.063464 0.750000 0.434213
O O19 0.000000 0.635001 0.463571
#
# Coordination Sequence:
#
# PCOD8278628 Si02
#       7
#    16  16  16  16  16  16  16
#     4   9  19  31  47  64  95 126 155 190 235 281
#     4   9  16  26  42  63  88 114 142 182 223 264
#     4   9  18  33  45  67  93 125 157 192 234 284
#     4   9  18  29  42  62  88 117 149 177 220 267
#     4  10  19  29  44  67  92 120 153 187 221 266
#     4   8  14  25  42  66  90 110 139 180 228 275
#     4   9  17  29  46  68  93 119 150 193 237 277
#
# _framework density 16.185919999999999
#
# number of rings (size 3 to 8) (size 9 to 14) (size 15 to 20)
#    0.000    3.000    0.000    3.000    4.000    4.286 
#    0.000    1.429    0.000    0.429    0.000    1.000 
#    0.000    3.429    0.000    0.000    0.000    0.000 
#
# Total GULP energy -693797.074925 kJ/mol
# GULP energy per Si atom -12389.233481 kJ/mol
# Density = 1.614908 g / cm^3
# Si number density = 16.185920 Si / 1000 Ang^3
#
#
#
# Elastic Constant Matrix: (Units=GPa)
#
#
# Indices 1 2 3 4 5 6 
#
# 1 96.9522 32.9726 42.2834 0.0000 0.0000 0.0000
# 2 32.9726 44.8806 36.9521 0.0000 0.0000 0.0000
# 3 42.2834 36.9521 90.2495 0.0000 0.0000 0.0000
# 4 0.0000 0.0000 0.0000 24.2334 0.0000 0.0000
# 5 0.0000 0.0000 0.0000 0.0000 25.0150 0.0000
# 6 0.0000 0.0000 0.0000 0.0000 0.0000 18.4522
#
#
#
# Elastic Compliance Matrix: (Units=1/GPa)
#
#
# Indices 1 2 3 4 5 6 
#
# 1 0.014514 -0.007640 -0.003672 0.000000 0.000000 0.000000
# 2 -0.007640 0.037634 -0.011830 0.000000 0.000000 0.000000
# 3 -0.003672 -0.011830 0.017644 0.000000 0.000000 0.000000
# 4 0.000000 0.000000 0.000000 0.041265 0.000000 0.000000
# 5 0.000000 0.000000 0.000000 0.000000 0.039976 0.000000
# 6 0.000000 0.000000 0.000000 0.000000 0.000000 0.054194
#
#
# Mechanical properties :
#
#
# Convention : Reuss Voigt Hill
#
# Bulk Modulus (GPa) = 42.53596 50.72207 46.62902
# Shear Modulus (GPa) = 19.27917 21.53172 20.40545
#
# Velocity S-wave (km/s) = 3.45499 3.65125 3.55447
# Velocity P-wave (km/s) = 6.50020 7.01289 6.76141
#
# Compressibility (1/GPa) = 0.02350952
#
# Stress axis : x y z
#
# Youngs Moduli (GPa) = 68.89885 26.57175 56.67531
#
# Poissons Ratio (x) = 0.20300 0.20811
# Poissons Ratio (y) = 0.52637 0.67045
# Poissons Ratio (z) = 0.25300 0.31433
#
# Static dielectric constant tensor:
#      x y z
#    x 3.147600 0.000000 0.000000 
#    y 0.000000 2.783740 0.000000 
#    z 0.000000 0.000000 3.186850 
# 
# 
# High freq. dielectric constant tensor:
#      x y z
#    x 1.601030 0.000000 0.000000 
#    y 0.000000 1.600200 0.000000 
#    z 0.000000 0.000000 1.618550 
# 
# From -- ./inp_files/30830.got.cif
#   From: 2010.03.12/outbox.cif.g09.slc.cpg/sg67_16_cif.got.tgz:30830.got - 2010.04.10 22:41:39.
