data_PCOD8278697
_publ_section_title
;
Structure prediction by ZEFSAII (Michael W. Deem and Ramdas Pophale) SiO2 
 PCOD8278697
Probable space group: C M M A
;
_chemical_formula_sum "Si O2"
_cell_formula_units_Z 96
_cell_length_a 16.339829
_cell_length_b 30.825906
_cell_length_c 9.338382
_cell_angle_alpha 90.000000
_cell_angle_beta 90.000000
_cell_angle_gamma 90.000000
_cell_volume 4703.649936
_symmetry_space_group_name_H-M "C M M A"
_symmetry_group_IT_number 67
_symmetry_cell_setting 'orthorhombic'
loop_
_space_group_symop_operation_xyz
x,y,z
-x,1/2-y,z
x,-y,-z
-x,1/2+y,-z
-x,-y,-z
x,1/2+y,-z
-x,y,z
x,1/2-y,z
1/2+x,1/2+y,z
1/2-x,-y,z
1/2+x,1/2-y,-z
1/2-x,y,-z
1/2-x,1/2-y,-z
1/2+x,y,-z
1/2-x,1/2+y,z
1/2+x,-y,z
loop_
_atom_site_type_symbol
_atom_site_label
_atom_site_fract_x
_atom_site_fract_y
_atom_site_fract_z
Si Si1 0.668453 0.200471 0.085052
Si Si2 0.597306 0.455465 0.815803
Si Si3 0.902618 0.365727 0.699405
Si Si4 0.597639 0.122796 0.626204
Si Si5 0.403094 0.549956 0.863708
Si Si6 0.406921 0.702871 0.200805
O O1 0.676554 0.250000 0.137350
O O2 0.647649 0.172853 0.225981
O O3 0.750000 0.185539 0.000000
O O4 0.595980 0.194058 0.969556
O O5 0.500000 0.453244 0.809355
O O6 0.632806 0.421754 0.697388
O O7 0.628207 0.504990 0.790252
O O8 0.629139 0.442834 0.974543
O O9 0.874008 0.370844 0.536094
O O10 0.872773 0.410154 0.770602
O O11 0.000000 0.357638 0.713017
O O12 0.500000 0.121995 0.637820
O O13 0.635542 0.163844 0.712365
O O14 0.500000 0.547498 0.869235
O O15 0.500000 0.705421 0.249927
O O16 0.364527 0.750000 0.233807
#
# Coordination Sequence:
#
# PCOD8278697 Si02
#       6
#    16  16  16  16  16  16
#     4  10  21  36  52  70  93 123 162 208 254 300
#     4   8  13  23  39  63  98 133 161 192 233 280
#     4  10  19  30  47  73 101 127 159 202 251 299
#     4   9  17  27  43  71 104 133 159 195 245 297
#     4   8  14  24  41  66  96 130 163 195 231 274
#     4   9  17  31  51  72  94 123 158 194 236 290
#
# _framework density 20.409682
#
# number of rings (size 3 to 8) (size 9 to 14) (size 15 to 20)
#    0.000    3.000    0.000    2.500    0.000    5.000 
#    0.000    5.833    0.000    3.000    0.000    9.333 
#    0.000    8.000    0.000    0.500    0.000    0.000 
#
# Total GULP energy -594698.898946 kJ/mol
# GULP energy per Si atom -12389.560395 kJ/mol
# Density = 2.036323 g / cm^3
# Si number density = 20.409682 Si / 1000 Ang^3
#
#
#
# Elastic Constant Matrix: (Units=GPa)
#
#
# Indices 1 2 3 4 5 6 
#
# 1 21.7702 23.3738 17.0074 0.0000 0.0000 0.0000
# 2 23.3738 175.4059 107.5210 0.0000 0.0000 0.0000
# 3 17.0074 107.5210 151.2467 0.0000 0.0000 0.0000
# 4 0.0000 0.0000 0.0000 21.8268 0.0000 0.0000
# 5 0.0000 0.0000 0.0000 0.0000 12.5269 0.0000
# 6 0.0000 0.0000 0.0000 0.0000 0.0000 7.8511
#
#
#
# Elastic Compliance Matrix: (Units=1/GPa)
#
#
# Indices 1 2 3 4 5 6 
#
# 1 0.053846 -0.006139 -0.001691 0.000000 0.000000 0.000000
# 2 -0.006139 0.010804 -0.006990 0.000000 0.000000 0.000000
# 3 -0.001691 -0.006990 0.011771 0.000000 0.000000 0.000000
# 4 0.000000 0.000000 0.000000 0.045815 0.000000 0.000000
# 5 0.000000 0.000000 0.000000 0.000000 0.079828 0.000000
# 6 0.000000 0.000000 0.000000 0.000000 0.000000 0.127370
#
#
# Mechanical properties :
#
#
# Convention : Reuss Voigt Hill
#
# Bulk Modulus (GPa) = 21.37592 71.58080 46.47836
# Shear Modulus (GPa) = 13.34513 21.80901 17.57707
#
# Velocity S-wave (km/s) = 2.55985 3.27243 2.93783
# Velocity P-wave (km/s) = 4.38557 7.03040 5.85917
#
# Compressibility (1/GPa) = 0.04678161
#
# Stress axis : x y z
#
# Youngs Moduli (GPa) = 18.57139 92.55822 84.95318
#
# Poissons Ratio (x) = 0.56821 0.14364
# Poissons Ratio (y) = 0.11401 0.59384
# Poissons Ratio (z) = 0.03140 0.64700
#
# Static dielectric constant tensor:
#      x y z
#    x 3.076430 0.000000 0.000000 
#    y 0.000000 4.228300 0.000000 
#    z 0.000000 0.000000 3.712360 
# 
# 
# High freq. dielectric constant tensor:
#      x y z
#    x 1.740060 0.000000 0.000000 
#    y 0.000000 1.814790 0.000000 
#    z 0.000000 0.000000 1.785210 
# 
# From -- ./inp_files/11446.got.cif
#   From: 2010.03.12/outbox.cif.g09.slc.cpg/sg67_6_cif.got.tgz:11446.got - 2010.04.10 22:41:39.
