data_PCOD8278962
_publ_section_title
;
Structure prediction by ZEFSAII (Michael W. Deem and Ramdas Pophale) SiO2 
 PCOD8278962
Probable space group: C M M A
;
_chemical_formula_sum "Si O2"
_cell_formula_units_Z 80
_cell_length_a 25.997406
_cell_length_b 15.811617
_cell_length_c 9.555217
_cell_angle_alpha 90.000000
_cell_angle_beta 90.000000
_cell_angle_gamma 90.000000
_cell_volume 3927.777310
_symmetry_space_group_name_H-M "C M M A"
_symmetry_group_IT_number 67
_symmetry_cell_setting 'orthorhombic'
loop_
_space_group_symop_operation_xyz
x,y,z
-x,1/2-y,z
x,-y,-z
-x,1/2+y,-z
-x,-y,-z
x,1/2+y,-z
-x,y,z
x,1/2-y,z
1/2+x,1/2+y,z
1/2-x,-y,z
1/2+x,1/2-y,-z
1/2-x,y,-z
1/2-x,1/2-y,-z
1/2+x,y,-z
1/2-x,1/2+y,z
1/2+x,-y,z
loop_
_atom_site_type_symbol
_atom_site_label
_atom_site_fract_x
_atom_site_fract_y
_atom_site_fract_z
Si Si1 0.000000 0.351445 0.622881
Si Si2 0.795790 0.150046 0.410486
Si Si3 0.090000 0.649520 0.579788
Si Si4 0.093028 0.151855 0.110094
Si Si5 0.294949 0.150058 0.906299
Si Si6 0.000000 0.092832 0.936894
O O1 0.049650 0.383539 0.535417
O O2 0.000000 0.401473 0.769469
O O3 0.000000 0.250000 0.648386
O O4 0.795389 0.250000 0.429832
O O5 0.750000 0.107634 0.500000
O O6 0.852335 0.117840 0.459171
O O7 0.783611 0.124780 0.252421
O O8 0.086404 0.750000 0.579976
O O9 0.076520 0.615007 0.737013
O O10 0.102527 0.250000 0.135747
O O11 0.147848 0.114382 0.056047
O O12 0.050753 0.138655 0.992177
O O13 0.293739 0.250000 0.929726
O O14 0.250000 0.107446 0.000000
O O15 0.000000 0.000000 0.000000
#
# Coordination Sequence:
#
# PCOD8278962 Si02
#       6
#     8  16  16  16  16   8
#     4  10  19  32  51  74  95 118 159 208 250 290
#     4   8  13  21  35  61  98 127 143 176 234 283
#     4   8  15  28  48  72  94 121 159 197 234 287
#     4   9  17  33  54  71  95 133 167 196 242 298
#     4   8  14  24  42  71  99 123 156 193 230 282
#     4  12  25  36  46  68 100 128 163 210 252 294
#
# _framework density 20.367754000000001
#
# number of rings (size 3 to 8) (size 9 to 14) (size 15 to 20)
#    0.000    3.200    0.000    3.900    0.000    3.200 
#    0.000    8.000    0.000    0.600    0.000    0.000 
#    0.000    1.600    0.000    0.000    0.000    0.000 
#
# Total GULP energy -495553.268178 kJ/mol
# GULP energy per Si atom -12388.831704 kJ/mol
# Density = 2.032140 g / cm^3
# Si number density = 20.367754 Si / 1000 Ang^3
#
#
#
# Elastic Constant Matrix: (Units=GPa)
#
#
# Indices 1 2 3 4 5 6 
#
# 1 198.3563 3.8168 118.0630 0.0000 0.0000 0.0000
# 2 3.8168 11.5354 8.5838 0.0000 0.0000 0.0000
# 3 118.0630 8.5838 149.9029 0.0000 0.0000 0.0000
# 4 0.0000 0.0000 0.0000 7.3477 0.0000 0.0000
# 5 0.0000 0.0000 0.0000 0.0000 44.6961 0.0000
# 6 0.0000 0.0000 0.0000 0.0000 0.0000 -4.4083
#
#
#
# Elastic Compliance Matrix: (Units=1/GPa)
#
#
# Indices 1 2 3 4 5 6 
#
# 1 0.009562 0.002549 -0.007677 0.000000 0.000000 0.000000
# 2 0.002549 0.091227 -0.007231 0.000000 0.000000 0.000000
# 3 -0.007677 -0.007231 0.013131 0.000000 0.000000 0.000000
# 4 0.000000 0.000000 0.000000 0.136097 0.000000 0.000000
# 5 0.000000 0.000000 0.000000 0.000000 0.022373 0.000000
# 6 0.000000 0.000000 0.000000 0.000000 0.000000 -0.226845
#
#
# Mechanical properties :
#
#
# Convention : Reuss Voigt Hill
#
# Bulk Modulus (GPa) = 11.21056 68.96908 40.08982
# Shear Modulus (GPa) = 50.00132 24.81583 37.40858
#
# Velocity S-wave (km/s) = 4.96010 3.49433 4.29027
# Velocity P-wave (km/s) = 6.19027 7.08631 6.65339
#
# Compressibility (1/GPa) = 0.08920163
#
# Stress axis : x y z
#
# Youngs Moduli (GPa) = 104.58560 10.96164 76.15502
#
# Poissons Ratio (x) = -0.02794 0.58461
# Poissons Ratio (y) = -0.26655 0.55069
# Poissons Ratio (z) = 0.80286 0.07927
#
# Static dielectric constant tensor:
#      x y z
#    x 4.272660 0.000000 0.000000 
#    y 0.000000 2.931540 0.000000 
#    z 0.000000 0.000000 3.816380 
# 
# 
# High freq. dielectric constant tensor:
#      x y z
#    x 1.817860 0.000000 0.000000 
#    y 0.000000 1.725120 0.000000 
#    z 0.000000 0.000000 1.791210 
# 
# From -- ./inp_files/10045.got.cif
#   From: 2010.03.12/outbox.cif.g09.slc.cpg/sg67_6_cif.got.tgz:10045.got - 2010.04.10 22:41:39.
