data_PCOD8278055
_publ_section_title
;
Structure prediction by ZEFSAII (Michael W. Deem and Ramdas Pophale) SiO2 
 PCOD8278055
Probable space group: C M M A
;
_chemical_formula_sum "Si O2"
_cell_formula_units_Z 80
_cell_length_a 8.688270
_cell_length_b 18.777019
_cell_length_c 26.428097
_cell_angle_alpha 90.000000
_cell_angle_beta 90.000000
_cell_angle_gamma 90.000000
_cell_volume 4311.474746
_symmetry_space_group_name_H-M "C M M A"
_symmetry_group_IT_number 67
_symmetry_cell_setting 'orthorhombic'
loop_
_space_group_symop_operation_xyz
x,y,z
-x,1/2-y,z
x,-y,-z
-x,1/2+y,-z
-x,-y,-z
x,1/2+y,-z
-x,y,z
x,1/2-y,z
1/2+x,1/2+y,z
1/2-x,-y,z
1/2+x,1/2-y,-z
1/2-x,y,-z
1/2-x,1/2-y,-z
1/2+x,y,-z
1/2-x,1/2+y,z
1/2+x,-y,z
loop_
_atom_site_type_symbol
_atom_site_label
_atom_site_fract_x
_atom_site_fract_y
_atom_site_fract_z
Si Si1 0.316784 0.920795 0.949585
Si Si2 0.182968 0.578243 0.847154
Si Si3 0.817110 0.829698 0.751750
Si Si4 0.819020 0.422289 0.340368
Si Si5 0.320363 0.577947 0.451204
O O1 0.500000 0.920789 0.950849
O O2 0.253818 0.885327 0.897941
O O3 0.250000 0.000000 0.949121
O O4 0.250000 0.881572 0.000000
O O5 0.250000 0.500000 0.837459
O O6 0.237178 0.627831 0.801208
O O7 0.000000 0.573237 0.852274
O O8 0.748459 0.750000 0.753588
O O9 0.751527 0.868988 0.701810
O O10 0.000000 0.826788 0.749531
O O11 0.750000 0.500000 0.332405
O O12 0.780526 0.388740 0.396055
O O13 0.000000 0.431179 0.333725
O O14 0.500000 0.573158 0.459670
O O15 0.250000 0.500000 0.450824
O O16 0.250000 0.620515 0.500000
#
# Coordination Sequence:
#
# PCOD8278055 Si02
#       5
#    16  16  16  16  16
#     4  10  17  27  44  68  98 125 152 187 227 271
#     4  10  18  29  48  72  96 122 153 189 229 272
#     4   9  18  32  49  68  91 121 157 194 230 272
#     4   9  17  29  47  70  93 119 153 191 230 272
#     4   9  15  23  38  62  90 117 145 181 225 270
#
# _framework density 18.555136000000001
#
# number of rings (size 3 to 8) (size 9 to 14) (size 15 to 20)
#    0.000    2.600    0.000    6.000    0.000    0.800 
#    0.000    1.000    0.000    6.600    0.000    0.000 
#    0.000    0.000    0.000    0.000    0.000    5.400 
#
# Total GULP energy -495598.439190 kJ/mol
# GULP energy per Si atom -12389.960980 kJ/mol
# Density = 1.851290 g / cm^3
# Si number density = 18.555136 Si / 1000 Ang^3
#
#
#
# Elastic Constant Matrix: (Units=GPa)
#
#
# Indices 1 2 3 4 5 6 
#
# 1 86.3486 21.5453 59.7918 0.0000 0.0000 0.0000
# 2 21.5453 75.4397 71.9896 0.0000 0.0000 0.0000
# 3 59.7918 71.9896 232.3669 0.0000 0.0000 0.0000
# 4 0.0000 0.0000 0.0000 3.5863 0.0000 0.0000
# 5 0.0000 0.0000 0.0000 0.0000 96.1299 0.0000
# 6 0.0000 0.0000 0.0000 0.0000 0.0000 10.6793
#
#
#
# Elastic Compliance Matrix: (Units=1/GPa)
#
#
# Indices 1 2 3 4 5 6 
#
# 1 0.014126 -0.000803 -0.003386 0.000000 0.000000 0.000000
# 2 -0.000803 0.018865 -0.005638 0.000000 0.000000 0.000000
# 3 -0.003386 -0.005638 0.006922 0.000000 0.000000 0.000000
# 4 0.000000 0.000000 0.000000 0.278836 0.000000 0.000000
# 5 0.000000 0.000000 0.000000 0.000000 0.010403 0.000000
# 6 0.000000 0.000000 0.000000 0.000000 0.000000 0.093639
#
#
# Mechanical properties :
#
#
# Convention : Reuss Voigt Hill
#
# Bulk Modulus (GPa) = 49.36231 77.86762 63.61496
# Shear Modulus (GPa) = 11.13098 38.13434 24.63266
#
# Velocity S-wave (km/s) = 2.45192 4.53834 3.64749
# Velocity P-wave (km/s) = 5.88869 8.33779 7.21787
#
# Compressibility (1/GPa) = 0.02025837
#
# Stress axis : x y z
#
# Youngs Moduli (GPa) = 70.79142 53.00795 144.47722
#
# Poissons Ratio (x) = 0.04257 0.48920
# Poissons Ratio (y) = 0.05686 0.81455
# Poissons Ratio (z) = 0.23970 0.29886
#
# Static dielectric constant tensor:
#      x y z
#    x 3.303380 0.000000 0.000000 
#    y 0.000000 2.960780 0.000000 
#    z 0.000000 0.000000 4.956310 
# 
# 
# High freq. dielectric constant tensor:
#      x y z
#    x 1.711260 0.000000 0.000000 
#    y 0.000000 1.651970 0.000000 
#    z 0.000000 0.000000 1.758340 
# 
# From -- ./inp_files/43317.got.cif
#   From: 2010.03.12/outbox.cif.g09.slc.cpg/sg67_22_cif.got.tgz:43317.got - 2010.04.10 22:41:39.
