data_PCOD8278241
_publ_section_title
;
Structure prediction by ZEFSAII (Michael W. Deem and Ramdas Pophale) SiO2 
 PCOD8278241
Probable space group: C M M A
;
_chemical_formula_sum "Si O2"
_cell_formula_units_Z 104
_cell_length_a 8.989816
_cell_length_b 26.796966
_cell_length_c 24.366864
_cell_angle_alpha 90.000000
_cell_angle_beta 90.000000
_cell_angle_gamma 90.000000
_cell_volume 5869.972511
_symmetry_space_group_name_H-M "C M M A"
_symmetry_group_IT_number 67
_symmetry_cell_setting 'orthorhombic'
loop_
_space_group_symop_operation_xyz
x,y,z
-x,1/2-y,z
x,-y,-z
-x,1/2+y,-z
-x,-y,-z
x,1/2+y,-z
-x,y,z
x,1/2-y,z
1/2+x,1/2+y,z
1/2-x,-y,z
1/2+x,1/2-y,-z
1/2-x,y,-z
1/2-x,1/2-y,-z
1/2+x,y,-z
1/2-x,1/2+y,z
1/2+x,-y,z
loop_
_atom_site_type_symbol
_atom_site_label
_atom_site_fract_x
_atom_site_fract_y
_atom_site_fract_z
Si Si1 0.174038 0.550365 0.226409
Si Si2 0.675453 0.193265 0.944334
Si Si3 0.175939 0.250000 0.441317
Si Si4 0.324010 0.552315 0.647282
Si Si5 0.675737 0.649885 0.376350
Si Si6 0.173471 0.364215 0.162976
Si Si7 0.173658 0.696485 0.732634
O O1 0.250000 0.500000 0.207407
O O2 0.219198 0.563168 0.289113
O O3 0.228686 0.589545 0.181437
O O4 0.000000 0.544296 0.221203
O O5 0.500000 0.191233 0.951435
O O6 0.727011 0.250000 0.931492
O O7 0.726890 0.156547 0.895682
O O8 0.750000 0.173506 0.000000
O O9 0.250000 0.250000 0.500000
O O10 0.226503 0.198653 0.411094
O O11 0.000000 0.250000 0.447062
O O12 0.500000 0.548363 0.638474
O O13 0.250000 0.500000 0.628506
O O14 0.259616 0.597748 0.609265
O O15 0.500000 0.640897 0.382534
O O16 0.731344 0.659223 0.314002
O O17 0.207063 0.320949 0.206344
O O18 0.000000 0.379054 0.162835
O O19 0.252365 0.750000 0.725250
O O20 0.000000 0.702743 0.721988
#
# Coordination Sequence:
#
# PCOD8278241 Si02
#       7
#    16  16   8  16  16  16  16
#     4  10  20  32  47  70 102 135 168 204 252 311
#     4   9  18  32  49  71  97 130 171 209 248 299
#     4  10  22  38  58  84 112 150 191 222 260 311
#     4  10  20  33  51  77 109 144 179 217 266 321
#     4  10  18  32  54  79 107 141 181 219 259 310
#     4  10  18  29  49  73  98 130 169 209 254 305
#     4   9  15  25  45  73 102 131 164 207 253 300
#
# _framework density 17.717289000000001
#
# number of rings (size 3 to 8) (size 9 to 14) (size 15 to 20)
#    0.000    2.308    2.308    1.385    0.000    4.308 
#    0.000    0.000    0.000    3.231    0.000    6.462 
#    0.000    0.000    0.000    0.000    0.000    0.000 
#
# Total GULP energy -644440.076572 kJ/mol
# GULP energy per Si atom -12393.078396 kJ/mol
# Density = 1.767696 g / cm^3
# Si number density = 17.717289 Si / 1000 Ang^3
#
#
#
# Elastic Constant Matrix: (Units=GPa)
#
#
# Indices 1 2 3 4 5 6 
#
# 1 47.7626 50.4751 28.0038 0.0000 0.0000 0.0000
# 2 50.4751 141.8284 34.4710 0.0000 0.0000 0.0000
# 3 28.0038 34.4710 63.0994 0.0000 0.0000 0.0000
# 4 0.0000 0.0000 0.0000 16.7034 0.0000 0.0000
# 5 0.0000 0.0000 0.0000 0.0000 24.8226 0.0000
# 6 0.0000 0.0000 0.0000 0.0000 0.0000 29.5447
#
#
#
# Elastic Compliance Matrix: (Units=1/GPa)
#
#
# Indices 1 2 3 4 5 6 
#
# 1 0.039566 -0.011316 -0.011378 0.000000 0.000000 0.000000
# 2 -0.011316 0.011367 -0.001187 0.000000 0.000000 0.000000
# 3 -0.011378 -0.001187 0.021546 0.000000 0.000000 0.000000
# 4 0.000000 0.000000 0.000000 0.059868 0.000000 0.000000
# 5 0.000000 0.000000 0.000000 0.000000 0.040286 0.000000
# 6 0.000000 0.000000 0.000000 0.000000 0.000000 0.033847
#
#
# Mechanical properties :
#
#
# Convention : Reuss Voigt Hill
#
# Bulk Modulus (GPa) = 40.45841 53.17668 46.81754
# Shear Modulus (GPa) = 19.04894 23.53017 21.28956
#
# Velocity S-wave (km/s) = 3.28252 3.64825 3.47021
# Velocity P-wave (km/s) = 6.10342 6.91560 6.52216
#
# Compressibility (1/GPa) = 0.02471674
#
# Stress axis : x y z
#
# Youngs Moduli (GPa) = 25.27395 87.97723 46.41172
#
# Poissons Ratio (x) = 0.99554 0.52807
# Poissons Ratio (y) = 0.28600 0.05511
# Poissons Ratio (z) = 0.28756 0.10447
#
# Static dielectric constant tensor:
#      x y z
#    x 3.087680 0.000000 0.000000 
#    y 0.000000 3.365370 0.000000 
#    z 0.000000 0.000000 2.348040 
# 
# 
# High freq. dielectric constant tensor:
#      x y z
#    x 1.666900 0.000000 0.000000 
#    y 0.000000 1.694310 0.000000 
#    z 0.000000 0.000000 1.658930 
# 
# From -- ./inp_files/40995.got.cif
#   From: 2010.03.12/outbox.cif.g09.slc.cpg/sg67_21_cif.got.tgz:40995.got - 2010.04.10 22:41:39.
