data_PCOD8278788
_publ_section_title
;
Structure prediction by ZEFSAII (Michael W. Deem and Ramdas Pophale) SiO2 
 PCOD8278788
Probable space group: C M M A
;
_chemical_formula_sum "Si O2"
_cell_formula_units_Z 104
_cell_length_a 9.329904
_cell_length_b 30.922971
_cell_length_c 19.806222
_cell_angle_alpha 90.000000
_cell_angle_beta 90.000000
_cell_angle_gamma 90.000000
_cell_volume 5714.260445
_symmetry_space_group_name_H-M "C M M A"
_symmetry_group_IT_number 67
_symmetry_cell_setting 'orthorhombic'
loop_
_space_group_symop_operation_xyz
x,y,z
-x,1/2-y,z
x,-y,-z
-x,1/2+y,-z
-x,-y,-z
x,1/2+y,-z
-x,y,z
x,1/2-y,z
1/2+x,1/2+y,z
1/2-x,-y,z
1/2+x,1/2-y,-z
1/2-x,y,-z
1/2-x,1/2-y,-z
1/2+x,y,-z
1/2-x,1/2+y,z
1/2+x,-y,z
loop_
_atom_site_type_symbol
_atom_site_label
_atom_site_fract_x
_atom_site_fract_y
_atom_site_fract_z
Si Si1 0.340273 0.632529 0.883050
Si Si2 0.846285 0.081335 0.746009
Si Si3 0.335609 0.148439 0.680893
Si Si4 0.167914 0.299711 0.569079
Si Si5 0.750000 0.500000 0.821539
Si Si6 0.336984 0.299165 0.818067
Si Si7 0.161044 0.942930 0.939902
O O1 0.500000 0.638150 0.914273
O O2 0.351961 0.611722 0.810245
O O3 0.263645 0.678865 0.874512
O O4 0.241923 0.602410 0.929355
O O5 0.721613 0.099660 0.697060
O O6 0.830279 0.032064 0.770831
O O7 0.000000 0.083995 0.708186
O O8 0.500000 0.144726 0.656459
O O9 0.236474 0.168951 0.623995
O O10 0.322170 0.178552 0.745769
O O11 0.190221 0.250000 0.591507
O O12 0.250000 0.308990 0.500000
O O13 0.000000 0.310350 0.560283
O O14 0.849753 0.528160 0.871862
O O15 0.500000 0.302670 0.843730
O O16 0.286634 0.250000 0.810016
O O17 0.000000 0.934153 0.964720
O O18 0.250000 0.966589 0.000000
#
# Coordination Sequence:
#
# PCOD8278788 Si02
#       7
#    16  16  16  16   8  16  16
#     4   9  18  32  48  68  95 126 162 202 244 291
#     4   9  18  32  49  70  98 130 163 202 247 293
#     4  10  19  31  48  72 102 135 170 205 245 294
#     4  10  20  33  50  73 103 139 176 213 251 290
#     4  10  21  34  54  78 101 128 162 202 244 292
#     4   9  17  29  47  71  98 129 164 203 247 293
#     4  11  22  35  52  73  99 130 162 197 241 295
#
# _framework density 18.20008
#
# number of rings (size 3 to 8) (size 9 to 14) (size 15 to 20)
#    0.000    2.308    0.000    3.000    0.000    9.231 
#    0.000    0.000    0.000    0.462    0.000    0.538 
#    0.000    3.692    0.000    0.000    0.000    0.000 
#
# Total GULP energy -644430.243788 kJ/mol
# GULP energy per Si atom -12392.889304 kJ/mol
# Density = 1.815866 g / cm^3
# Si number density = 18.200080 Si / 1000 Ang^3
#
#
#
# Elastic Constant Matrix: (Units=GPa)
#
#
# Indices 1 2 3 4 5 6 
#
# 1 160.6654 57.1972 46.1339 0.0000 0.0000 0.0000
# 2 57.1972 108.0560 35.8652 0.0000 0.0000 0.0000
# 3 46.1339 35.8652 53.8005 0.0000 0.0000 0.0000
# 4 0.0000 0.0000 0.0000 17.8144 0.0000 0.0000
# 5 0.0000 0.0000 0.0000 0.0000 28.7256 0.0000
# 6 0.0000 0.0000 0.0000 0.0000 0.0000 -7.0242
#
#
#
# Elastic Compliance Matrix: (Units=1/GPa)
#
#
# Indices 1 2 3 4 5 6 
#
# 1 0.008866 -0.002786 -0.005745 0.000000 0.000000 0.000000
# 2 -0.002786 0.012759 -0.006117 0.000000 0.000000 0.000000
# 3 -0.005745 -0.006117 0.027591 0.000000 0.000000 0.000000
# 4 0.000000 0.000000 0.000000 0.056135 0.000000 0.000000
# 5 0.000000 0.000000 0.000000 0.000000 0.034812 0.000000
# 6 0.000000 0.000000 0.000000 0.000000 0.000000 -0.142365
#
#
# Mechanical properties :
#
#
# Convention : Reuss Voigt Hill
#
# Bulk Modulus (GPa) = 50.19949 66.76827 58.48388
# Shear Modulus (GPa) = 148.21826 20.12485 84.17155
#
# Velocity S-wave (km/s) = 9.03410 3.32890 6.80796
# Velocity P-wave (km/s) = 11.68169 7.17919 9.69543
#
# Compressibility (1/GPa) = 0.01992052
#
# Stress axis : x y z
#
# Youngs Moduli (GPa) = 112.79607 78.37333 36.24333
#
# Poissons Ratio (x) = 0.21834 0.20822
# Poissons Ratio (y) = 0.31425 0.22170
# Poissons Ratio (z) = 0.64801 0.47940
#
# Static dielectric constant tensor:
#      x y z
#    x 3.710160 0.000000 0.000000 
#    y 0.000000 3.411060 0.000000 
#    z 0.000000 0.000000 3.099370 
# 
# 
# High freq. dielectric constant tensor:
#      x y z
#    x 1.720330 0.000000 0.000000 
#    y 0.000000 1.697020 0.000000 
#    z 0.000000 0.000000 1.665840 
# 
# From -- ./inp_files/37542.got.cif
#   From: 2010.03.12/outbox.cif.g09.slc.cpg/sg67_19_cif.got.tgz:37542.got - 2010.04.10 22:41:39.
