data_PCOD8278101
_publ_section_title
;
Structure prediction by ZEFSAII (Michael W. Deem and Ramdas Pophale) SiO2 
 PCOD8278101
Probable space group: C M M A
;
_chemical_formula_sum "Si O2"
_cell_formula_units_Z 96
_cell_length_a 22.640162
_cell_length_b 25.538201
_cell_length_c 10.033328
_cell_angle_alpha 90.000000
_cell_angle_beta 90.000000
_cell_angle_gamma 90.000000
_cell_volume 5801.159962
_symmetry_space_group_name_H-M "C M M A"
_symmetry_group_IT_number 67
_symmetry_cell_setting 'orthorhombic'
loop_
_space_group_symop_operation_xyz
x,y,z
-x,1/2-y,z
x,-y,-z
-x,1/2+y,-z
-x,-y,-z
x,1/2+y,-z
-x,y,z
x,1/2-y,z
1/2+x,1/2+y,z
1/2-x,-y,z
1/2+x,1/2-y,-z
1/2-x,y,-z
1/2-x,1/2-y,-z
1/2+x,y,-z
1/2-x,1/2+y,z
1/2+x,-y,z
loop_
_atom_site_type_symbol
_atom_site_label
_atom_site_fract_x
_atom_site_fract_y
_atom_site_fract_z
Si Si1 0.000000 0.962047 0.713209
Si Si2 0.621750 0.113752 0.454859
Si Si3 0.787431 0.189999 0.632827
Si Si4 0.304966 0.970416 0.685756
Si Si5 0.000000 0.570646 0.404849
Si Si6 0.376208 0.571233 0.259955
Si Si7 0.239424 0.111980 0.150214
O O1 0.000000 0.949145 0.556298
O O2 0.056481 0.937396 0.790754
O O3 0.000000 0.025436 0.708536
O O4 0.646834 0.168718 0.400361
O O5 0.669372 0.069321 0.420574
O O6 0.558692 0.105490 0.383561
O O7 0.618674 0.109927 0.613683
O O8 0.792998 0.250000 0.676309
O O9 0.750000 0.182299 0.500000
O O10 0.755934 0.159550 0.752911
O O11 0.279490 0.938975 0.815041
O O12 0.250000 0.000000 0.617889
O O13 0.355886 0.011730 0.716470
O O14 0.330704 0.598733 0.159253
O O15 0.250000 0.130014 0.000000
#
# Coordination Sequence:
#
# PCOD8278101 Si02
#       7
#     8  16  16  16   8  16  16
#     4   9  16  26  42  74 104 142 173 204 237 289
#     4  10  17  29  46  76 102 133 167 209 263 301
#     4  10  20  36  56  77  98 123 165 223 274 310
#     4   9  18  25  43  68 101 134 169 205 237 296
#     4   9  16  26  45  71 111 137 165 209 247 301
#     4  10  17  28  46  71 105 139 171 201 244 295
#     4  10  21  34  49  73 103 138 171 206 260 306
#
# _framework density 16.548414999999999
#
# number of rings (size 3 to 8) (size 9 to 14) (size 15 to 20)
#    0.000    2.333    3.333    0.500    0.000    5.333 
#    0.000    0.417    0.000    6.000    0.000    0.583 
#    0.000    0.000    0.000    0.000    0.000    0.000 
#
# Total GULP energy -594773.544851 kJ/mol
# GULP energy per Si atom -12391.115518 kJ/mol
# Density = 1.651075 g / cm^3
# Si number density = 16.548415 Si / 1000 Ang^3
#
#
#
# Elastic Constant Matrix: (Units=GPa)
#
#
# Indices 1 2 3 4 5 6 
#
# 1 136.0660 42.7012 26.8398 0.0000 0.0000 0.0000
# 2 42.7012 89.4441 27.4377 0.0000 0.0000 0.0000
# 3 26.8398 27.4377 65.8121 0.0000 0.0000 0.0000
# 4 0.0000 0.0000 0.0000 8.9174 0.0000 0.0000
# 5 0.0000 0.0000 0.0000 0.0000 13.0007 0.0000
# 6 0.0000 0.0000 0.0000 0.0000 0.0000 18.6110
#
#
#
# Elastic Compliance Matrix: (Units=1/GPa)
#
#
# Indices 1 2 3 4 5 6 
#
# 1 0.008898 -0.003594 -0.002130 0.000000 0.000000 0.000000
# 2 -0.003594 0.014272 -0.004484 0.000000 0.000000 0.000000
# 3 -0.002130 -0.004484 0.017933 0.000000 0.000000 0.000000
# 4 0.000000 0.000000 0.000000 0.112140 0.000000 0.000000
# 5 0.000000 0.000000 0.000000 0.000000 0.076919 0.000000
# 6 0.000000 0.000000 0.000000 0.000000 0.000000 0.053732
#
#
# Mechanical properties :
#
#
# Convention : Reuss Voigt Hill
#
# Bulk Modulus (GPa) = 48.34418 53.91995 51.13207
# Shear Modulus (GPa) = 16.06659 21.06206 18.56432
#
# Velocity S-wave (km/s) = 3.11928 3.57144 3.35299
# Velocity P-wave (km/s) = 6.50003 7.04704 6.77906
#
# Compressibility (1/GPa) = 0.02068501
#
# Stress axis : x y z
#
# Youngs Moduli (GPa) = 112.39047 70.06889 55.76315
#
# Poissons Ratio (x) = 0.25185 0.11878
# Poissons Ratio (y) = 0.40397 0.25005
# Poissons Ratio (z) = 0.23941 0.31420
#
# Static dielectric constant tensor:
#      x y z
#    x 3.438950 0.000000 0.000000 
#    y 0.000000 3.032180 0.000000 
#    z 0.000000 0.000000 2.688100 
# 
# 
# High freq. dielectric constant tensor:
#      x y z
#    x 1.648990 0.000000 0.000000 
#    y 0.000000 1.614260 0.000000 
#    z 0.000000 0.000000 1.595140 
# 
# From -- ./inp_files/12805.got.cif
#   From: 2010.03.12/outbox.cif.g09.slc.cpg/sg67_7_cif.got.tgz:12805.got - 2010.04.10 22:41:39.
