data_PCOD8278730
_publ_section_title
;
Structure prediction by ZEFSAII (Michael W. Deem and Ramdas Pophale) SiO2 
 PCOD8278730
Probable space group: C M M A
;
_chemical_formula_sum "Si O2"
_cell_formula_units_Z 112
_cell_length_a 25.460926
_cell_length_b 14.639521
_cell_length_c 17.323376
_cell_angle_alpha 90.000000
_cell_angle_beta 90.000000
_cell_angle_gamma 90.000000
_cell_volume 6457.041734
_symmetry_space_group_name_H-M "C M M A"
_symmetry_group_IT_number 67
_symmetry_cell_setting 'orthorhombic'
loop_
_space_group_symop_operation_xyz
x,y,z
-x,1/2-y,z
x,-y,-z
-x,1/2+y,-z
-x,-y,-z
x,1/2+y,-z
-x,y,z
x,1/2-y,z
1/2+x,1/2+y,z
1/2-x,-y,z
1/2+x,1/2-y,-z
1/2-x,y,-z
1/2-x,1/2-y,-z
1/2+x,y,-z
1/2-x,1/2+y,z
1/2+x,-y,z
loop_
_atom_site_type_symbol
_atom_site_label
_atom_site_fract_x
_atom_site_fract_y
_atom_site_fract_z
Si Si1 0.704375 0.856147 0.162975
Si Si2 0.160152 0.851452 0.992510
Si Si3 0.824279 0.643981 0.160946
Si Si4 0.383282 0.982170 0.218099
Si Si5 0.062272 0.147139 0.514194
Si Si6 0.937822 0.985055 0.620362
Si Si7 0.441463 0.925052 0.066335
O O1 0.687803 0.750000 0.167270
O O2 0.696821 0.893260 0.074842
O O3 0.764373 0.870396 0.187781
O O4 0.666164 0.913188 0.218043
O O5 0.180032 0.750000 0.009056
O O6 0.099955 0.849496 0.962351
O O7 0.167461 0.900581 0.075051
O O8 0.841191 0.750000 0.165816
O O9 0.861912 0.586106 0.216383
O O10 0.423912 0.965876 0.148485
O O11 0.412758 0.966905 0.297428
O O12 0.086441 0.250000 0.520409
O O13 0.080797 0.083000 0.585454
O O14 0.000000 0.153593 0.514976
O O15 0.080407 0.097988 0.435102
O O16 0.000000 0.985033 0.629315
O O17 0.500000 0.882941 0.075224
O O18 0.441477 0.000000 0.000000
#
# Coordination Sequence:
#
# PCOD8278730 Si02
#       7
#    16  16  16  16  16  16  16
#     4   9  19  32  48  68  92 121 161 215 262 292
#     4   9  17  31  48  65  85 117 168 218 255 292
#     4  10  19  32  47  67  92 122 164 214 260 294
#     4  11  20  31  48  72  99 132 164 199 241 290
#     4   8  15  31  54  76  99 127 156 190 236 286
#     4   9  18  31  49  76 106 131 157 191 232 283
#     4  10  19  31  44  61  93 135 173 202 232 274
#
# _framework density 17.345405
#
# number of rings (size 3 to 8) (size 9 to 14) (size 15 to 20)
#    0.000    2.571    1.429    2.143    0.000    3.143 
#    0.000    1.429    0.000    3.857    0.000    8.000 
#    0.000   13.714    0.000    0.000    0.000    0.000 
#
# Total GULP energy -693977.052302 kJ/mol
# GULP energy per Si atom -12392.447363 kJ/mol
# Density = 1.730593 g / cm^3
# Si number density = 17.345405 Si / 1000 Ang^3
#
#
#
# Elastic Constant Matrix: (Units=GPa)
#
#
# Indices 1 2 3 4 5 6 
#
# 1 55.3882 12.1337 21.3571 0.0000 0.0000 0.0000
# 2 12.1337 82.3984 29.2430 0.0000 0.0000 0.0000
# 3 21.3571 29.2430 98.0791 0.0000 0.0000 0.0000
# 4 0.0000 0.0000 0.0000 16.8057 0.0000 0.0000
# 5 0.0000 0.0000 0.0000 0.0000 9.6511 0.0000
# 6 0.0000 0.0000 0.0000 0.0000 0.0000 19.2284
#
#
#
# Elastic Compliance Matrix: (Units=1/GPa)
#
#
# Indices 1 2 3 4 5 6 
#
# 1 0.019886 -0.001556 -0.003866 0.000000 0.000000 0.000000
# 2 -0.001556 0.013694 -0.003744 0.000000 0.000000 0.000000
# 3 -0.003866 -0.003744 0.012154 0.000000 0.000000 0.000000
# 4 0.000000 0.000000 0.000000 0.059503 0.000000 0.000000
# 5 0.000000 0.000000 0.000000 0.000000 0.103615 0.000000
# 6 0.000000 0.000000 0.000000 0.000000 0.000000 0.052006
#
#
# Mechanical properties :
#
#
# Convention : Reuss Voigt Hill
#
# Bulk Modulus (GPa) = 36.49498 40.14815 38.32156
# Shear Modulus (GPa) = 17.34148 20.67918 19.01033
#
# Velocity S-wave (km/s) = 3.16535 3.45657 3.31416
# Velocity P-wave (km/s) = 5.86899 6.25516 6.06515
#
# Compressibility (1/GPa) = 0.02740103
#
# Stress axis : x y z
#
# Youngs Moduli (GPa) = 50.28637 73.02413 82.27684
#
# Poissons Ratio (x) = 0.11364 0.31811
# Poissons Ratio (y) = 0.07826 0.30805
# Poissons Ratio (z) = 0.19442 0.27341
#
# Static dielectric constant tensor:
#      x y z
#    x 3.169650 0.000000 0.000000 
#    y 0.000000 3.358050 0.000000 
#    z 0.000000 0.000000 3.052720 
# 
# 
# High freq. dielectric constant tensor:
#      x y z
#    x 1.651000 0.000000 0.000000 
#    y 0.000000 1.672740 0.000000 
#    z 0.000000 0.000000 1.645300 
# 
# From -- ./inp_files/27868.got.cif
#   From: 2010.03.12/outbox.cif.g09.slc.cpg/sg67_14_cif.got.tgz:27868.got - 2010.04.10 22:41:39.
