data_PCOD8278491
_publ_section_title
;
Structure prediction by ZEFSAII (Michael W. Deem and Ramdas Pophale) SiO2 
 PCOD8278491
Probable space group: C M M A
;
_chemical_formula_sum "Si O2"
_cell_formula_units_Z 80
_cell_length_a 14.518967
_cell_length_b 23.968508
_cell_length_c 11.182738
_cell_angle_alpha 90.000000
_cell_angle_beta 90.000000
_cell_angle_gamma 90.000000
_cell_volume 3891.570198
_symmetry_space_group_name_H-M "C M M A"
_symmetry_group_IT_number 67
_symmetry_cell_setting 'orthorhombic'
loop_
_space_group_symop_operation_xyz
x,y,z
-x,1/2-y,z
x,-y,-z
-x,1/2+y,-z
-x,-y,-z
x,1/2+y,-z
-x,y,z
x,1/2-y,z
1/2+x,1/2+y,z
1/2-x,-y,z
1/2+x,1/2-y,-z
1/2-x,y,-z
1/2-x,1/2-y,-z
1/2+x,y,-z
1/2-x,1/2+y,z
1/2+x,-y,z
loop_
_atom_site_type_symbol
_atom_site_label
_atom_site_fract_x
_atom_site_fract_y
_atom_site_fract_z
Si Si1 0.141678 0.250000 0.501365
Si Si2 0.500000 0.579579 0.924220
Si Si3 0.897664 0.628325 0.502682
Si Si4 0.157903 0.631104 0.227116
Si Si5 0.105248 0.250000 0.771042
Si Si6 0.309343 0.443771 0.691836
Si Si7 0.500000 0.541775 0.173943
O O1 0.250000 0.250000 0.500000
O O2 0.111167 0.191308 0.441432
O O3 0.094201 0.250000 0.629395
O O4 0.408843 0.605725 0.870313
O O5 0.500000 0.515629 0.893400
O O6 0.500000 0.588359 0.068514
O O7 0.881317 0.625857 0.361229
O O8 0.824907 0.586969 0.564951
O O9 0.000000 0.606566 0.530139
O O10 0.165022 0.696187 0.190315
O O11 0.254878 0.598737 0.220279
O O12 0.000000 0.250000 0.823510
O O13 0.250000 0.500000 0.672833
O O14 0.408806 0.455287 0.746457
#
# Coordination Sequence:
#
# PCOD8278491 Si02
#       7
#     8   8  16  16   8  16   8
#     4  10  18  32  54  92 125 171 216 244 296 388
#     4  11  22  44  71  90 117 159 219 271 311 364
#     4  11  21  37  62  92 136 168 203 256 319 387
#     4  11  21  39  66 100 124 166 210 259 317 377
#     4  10  18  34  62  92 129 160 207 256 305 374
#     4  12  25  42  63  91 131 170 211 258 323 384
#     4  11  26  47  63  88 119 166 215 265 314 374
#
# _framework density 20.557255999999999
#
# number of rings (size 3 to 8) (size 9 to 14) (size 15 to 20)
#    0.000    1.000    5.000    5.100    0.000    2.400 
#    0.000    2.000    0.000    6.000    0.000    0.000 
#    0.000    0.000    0.000    0.000    0.000    0.000 
#
# Total GULP energy -495701.099959 kJ/mol
# GULP energy per Si atom -12392.527499 kJ/mol
# Density = 2.051047 g / cm^3
# Si number density = 20.557256 Si / 1000 Ang^3
#
#
#
# Elastic Constant Matrix: (Units=GPa)
#
#
# Indices 1 2 3 4 5 6 
#
# 1 128.5212 50.0987 19.1348 0.0000 0.0000 0.0000
# 2 50.0987 146.1628 37.1553 0.0000 0.0000 0.0000
# 3 19.1348 37.1553 69.3330 0.0000 0.0000 0.0000
# 4 0.0000 0.0000 0.0000 10.4928 0.0000 0.0000
# 5 0.0000 0.0000 0.0000 0.0000 9.8551 0.0000
# 6 0.0000 0.0000 0.0000 0.0000 0.0000 33.2190
#
#
#
# Elastic Compliance Matrix: (Units=1/GPa)
#
#
# Indices 1 2 3 4 5 6 
#
# 1 0.009036 -0.002852 -0.000966 0.000000 0.000000 0.000000
# 2 -0.002852 0.008821 -0.003940 0.000000 0.000000 0.000000
# 3 -0.000966 -0.003940 0.016801 0.000000 0.000000 0.000000
# 4 0.000000 0.000000 0.000000 0.095303 0.000000 0.000000
# 5 0.000000 0.000000 0.000000 0.000000 0.101471 0.000000
# 6 0.000000 0.000000 0.000000 0.000000 0.000000 0.030103
#
#
# Mechanical properties :
#
#
# Convention : Reuss Voigt Hill
#
# Bulk Modulus (GPa) = 52.23749 61.86606 57.05178
# Shear Modulus (GPa) = 17.64099 26.55526 22.09812
#
# Velocity S-wave (km/s) = 2.93258 3.59802 3.28221
# Velocity P-wave (km/s) = 6.07722 6.88628 6.49436
#
# Compressibility (1/GPa) = 0.01914334
#
# Stress axis : x y z
#
# Youngs Moduli (GPa) = 110.66559 113.36941 59.52013
#
# Poissons Ratio (x) = 0.32331 0.05747
# Poissons Ratio (y) = 0.31560 0.23451
# Poissons Ratio (z) = 0.10686 0.44667
#
# Static dielectric constant tensor:
#      x y z
#    x 3.613260 0.000000 0.000000 
#    y 0.000000 4.460950 0.000000 
#    z 0.000000 0.000000 3.501450 
# 
# 
# High freq. dielectric constant tensor:
#      x y z
#    x 1.816340 0.000000 0.000000 
#    y 0.000000 1.820470 0.000000 
#    z 0.000000 0.000000 1.758240 
# 
# From -- ./inp_files/18062.got.cif
#   From: 2010.03.12/outbox.cif.g09.slc.cpg/sg67_10_cif.got.tgz:18062.got - 2010.04.10 22:41:39.
