data_PCOD8278896
_publ_section_title
;
Structure prediction by ZEFSAII (Michael W. Deem and Ramdas Pophale) SiO2 
 PCOD8278896
Probable space group: C M M A
;
_chemical_formula_sum "Si O2"
_cell_formula_units_Z 104
_cell_length_a 27.029247
_cell_length_b 9.144351
_cell_length_c 23.698314
_cell_angle_alpha 90.000000
_cell_angle_beta 90.000000
_cell_angle_gamma 90.000000
_cell_volume 5857.391927
_symmetry_space_group_name_H-M "C M M A"
_symmetry_group_IT_number 67
_symmetry_cell_setting 'orthorhombic'
loop_
_space_group_symop_operation_xyz
x,y,z
-x,1/2-y,z
x,-y,-z
-x,1/2+y,-z
-x,-y,-z
x,1/2+y,-z
-x,y,z
x,1/2-y,z
1/2+x,1/2+y,z
1/2-x,-y,z
1/2+x,1/2-y,-z
1/2-x,y,-z
1/2-x,1/2-y,-z
1/2+x,y,-z
1/2-x,1/2+y,z
1/2+x,-y,z
loop_
_atom_site_type_symbol
_atom_site_label
_atom_site_fract_x
_atom_site_fract_y
_atom_site_fract_z
Si Si1 0.500000 0.414786 0.056539
Si Si2 0.886557 0.083609 0.666384
Si Si3 0.698784 0.078109 0.728654
Si Si4 0.108211 0.420455 0.940061
Si Si5 0.056916 0.914606 0.222708
Si Si6 0.360407 0.580270 0.162463
Si Si7 0.556411 0.577669 0.556313
O O1 0.500000 0.250000 0.036155
O O2 0.447412 0.445999 0.087557
O O3 0.500000 0.500000 0.000000
O O4 0.867009 0.250000 0.661426
O O5 0.931270 0.075647 0.711024
O O6 0.908512 0.026236 0.607410
O O7 0.841297 0.981190 0.684494
O O8 0.704325 0.250000 0.719246
O O9 0.683026 0.042459 0.793250
O O10 0.750000 0.000000 0.715901
O O11 0.120163 0.250000 0.948421
O O12 0.147026 0.489780 0.895673
O O13 0.113524 0.500000 0.000000
O O14 0.069496 0.750000 0.200472
O O15 0.000000 0.950888 0.212305
O O16 0.087834 0.035723 0.190072
O O17 0.361653 0.750000 0.147187
O O18 0.576263 0.500000 0.500000
O O19 0.500000 0.529378 0.569043
O O20 0.559736 0.750000 0.547697
#
# Coordination Sequence:
#
# PCOD8278896 Si02
#       7
#     8  16  16  16  16  16  16
#     4   8  16  28  42  62  88 122 164 198 225 264
#     4   9  17  31  51  74 101 134 172 211 252 297
#     4  10  21  37  57  78 100 125 161 208 260 313
#     4  10  19  32  49  69  96 131 168 204 241 288
#     4   9  17  29  46  68  96 131 168 204 242 288
#     4  10  21  34  48  72 100 127 160 200 247 300
#     4   9  17  29  47  74 109 148 185 215 245 286
#
# _framework density 17.755343
#
# number of rings (size 3 to 8) (size 9 to 14) (size 15 to 20)
#    0.000    2.615    0.000    1.846    1.077    5.231 
#    0.000    0.000    0.000    3.692    0.000    6.462 
#    0.000    0.000    0.000    0.000    0.000    0.000 
#
# Total GULP energy -644544.548870 kJ/mol
# GULP energy per Si atom -12395.087478 kJ/mol
# Density = 1.771493 g / cm^3
# Si number density = 17.755343 Si / 1000 Ang^3
#
#
#
# Elastic Constant Matrix: (Units=GPa)
#
#
# Indices 1 2 3 4 5 6 
#
# 1 67.1005 34.9222 28.6887 0.0000 0.0000 0.0000
# 2 34.9222 79.4519 47.0778 0.0000 0.0000 0.0000
# 3 28.6887 47.0778 99.4187 0.0000 0.0000 0.0000
# 4 0.0000 0.0000 0.0000 32.6348 0.0000 0.0000
# 5 0.0000 0.0000 0.0000 0.0000 18.3725 0.0000
# 6 0.0000 0.0000 0.0000 0.0000 0.0000 22.5199
#
#
#
# Elastic Compliance Matrix: (Units=1/GPa)
#
#
# Indices 1 2 3 4 5 6 
#
# 1 0.019663 -0.007340 -0.002198 0.000000 0.000000 0.000000
# 2 -0.007340 0.020235 -0.007464 0.000000 0.000000 0.000000
# 3 -0.002198 -0.007464 0.014227 0.000000 0.000000 0.000000
# 4 0.000000 0.000000 0.000000 0.030642 0.000000 0.000000
# 5 0.000000 0.000000 0.000000 0.000000 0.054429 0.000000
# 6 0.000000 0.000000 0.000000 0.000000 0.000000 0.044405
#
#
# Mechanical properties :
#
#
# Convention : Reuss Voigt Hill
#
# Bulk Modulus (GPa) = 49.69978 51.92761 50.81369
# Shear Modulus (GPa) = 22.29026 23.72426 23.00726
#
# Velocity S-wave (km/s) = 3.54702 3.65934 3.60362
# Velocity P-wave (km/s) = 6.69532 6.86761 6.78201
#
# Compressibility (1/GPa) = 0.02012082
#
# Stress axis : x y z
#
# Youngs Moduli (GPa) = 50.85688 49.41919 70.28805
#
# Poissons Ratio (x) = 0.36274 0.15451
# Poissons Ratio (y) = 0.37329 0.52462
# Poissons Ratio (z) = 0.11180 0.36886
#
# Static dielectric constant tensor:
#      x y z
#    x 4.209520 0.000000 0.000000 
#    y 0.000000 3.276560 0.000000 
#    z 0.000000 0.000000 3.281480 
# 
# 
# High freq. dielectric constant tensor:
#      x y z
#    x 1.656900 0.000000 0.000000 
#    y 0.000000 1.690680 0.000000 
#    z 0.000000 0.000000 1.685520 
# 
# From -- ./inp_files/42738.got.cif
#   From: 2010.03.12/outbox.cif.g09.slc.cpg/sg67_22_cif.got.tgz:42738.got - 2010.04.10 22:41:39.
