data_PCOD8278088
_publ_section_title
;
Structure prediction by ZEFSAII (Michael W. Deem and Ramdas Pophale) SiO2 
 PCOD8278088
Probable space group: C M M A
;
_chemical_formula_sum "Si O2"
_cell_formula_units_Z 112
_cell_length_a 17.901519
_cell_length_b 27.884054
_cell_length_c 13.798322
_cell_angle_alpha 90.000000
_cell_angle_beta 90.000000
_cell_angle_gamma 90.000000
_cell_volume 6887.665928
_symmetry_space_group_name_H-M "C M M A"
_symmetry_group_IT_number 67
_symmetry_cell_setting 'orthorhombic'
loop_
_space_group_symop_operation_xyz
x,y,z
-x,1/2-y,z
x,-y,-z
-x,1/2+y,-z
-x,-y,-z
x,1/2+y,-z
-x,y,z
x,1/2-y,z
1/2+x,1/2+y,z
1/2-x,-y,z
1/2+x,1/2-y,-z
1/2-x,y,-z
1/2-x,1/2-y,-z
1/2+x,y,-z
1/2-x,1/2+y,z
1/2+x,-y,z
loop_
_atom_site_type_symbol
_atom_site_label
_atom_site_fract_x
_atom_site_fract_y
_atom_site_fract_z
Si Si1 0.162973 0.489192 0.608085
Si Si2 0.416150 0.101001 0.308014
Si Si3 0.083489 0.446762 0.894120
Si Si4 0.412802 0.804422 0.782750
Si Si5 0.412586 0.111230 0.928930
Si Si6 0.336989 0.696053 0.985560
Si Si7 0.587536 0.535087 0.218162
O O1 0.134963 0.500000 0.500000
O O2 0.250000 0.500000 0.618159
O O3 0.141362 0.433873 0.634835
O O4 0.123480 0.527904 0.677145
O O5 0.500000 0.093619 0.351275
O O6 0.416045 0.089815 0.194505
O O7 0.393513 0.157883 0.305437
O O8 0.121658 0.496438 0.858625
O O9 0.000000 0.459379 0.928247
O O10 0.123752 0.422398 0.986449
O O11 0.500000 0.809806 0.811545
O O12 0.395914 0.750000 0.746628
O O13 0.362810 0.816770 0.876756
O O14 0.500000 0.116821 0.947093
O O15 0.395820 0.087969 0.823592
O O16 0.376544 0.163367 0.933654
O O17 0.360754 0.750000 0.010507
O O18 0.250000 0.687894 0.000000
O O19 0.500000 0.524695 0.230572
#
# Coordination Sequence:
#
# PCOD8278088 Si02
#       7
#    16  16  16  16  16  16  16
#     4  10  21  35  49  67  92 122 154 191 237 284
#     4   9  16  28  49  73  94 121 153 191 237 278
#     4   8  13  24  42  64  90 117 144 174 215 263
#     4   9  16  28  47  70  95 123 156 192 232 277
#     4  10  17  28  46  65  88 122 158 188 223 264
#     4  10  20  30  40  60  93 130 164 194 225 260
#     4   9  18  30  46  67  90 117 151 188 224 271
#
# _framework density 16.260952
#
# number of rings (size 3 to 8) (size 9 to 14) (size 15 to 20)
#    0.000    2.714    1.429    2.143    0.000    4.857 
#    0.000    0.000    0.000    0.000    0.000    3.000 
#    0.000    2.286    0.000    0.000    0.000    0.000 
#
# Total GULP energy -693810.984954 kJ/mol
# GULP energy per Si atom -12389.481874 kJ/mol
# Density = 1.622394 g / cm^3
# Si number density = 16.260952 Si / 1000 Ang^3
#
#
#
# Elastic Constant Matrix: (Units=GPa)
#
#
# Indices 1 2 3 4 5 6 
#
# 1 52.9279 46.0247 36.9245 0.0000 0.0000 0.0000
# 2 46.0247 123.3627 53.4940 0.0000 0.0000 0.0000
# 3 36.9245 53.4940 83.6556 0.0000 0.0000 0.0000
# 4 0.0000 0.0000 0.0000 17.9178 0.0000 0.0000
# 5 0.0000 0.0000 0.0000 0.0000 17.0552 0.0000
# 6 0.0000 0.0000 0.0000 0.0000 0.0000 19.2642
#
#
#
# Elastic Compliance Matrix: (Units=1/GPa)
#
#
# Indices 1 2 3 4 5 6 
#
# 1 0.032263 -0.008111 -0.009054 0.000000 0.000000 0.000000
# 2 -0.008111 0.013255 -0.004896 0.000000 0.000000 0.000000
# 3 -0.009054 -0.004896 0.019081 0.000000 0.000000 0.000000
# 4 0.000000 0.000000 0.000000 0.055810 0.000000 0.000000
# 5 0.000000 0.000000 0.000000 0.000000 0.058633 0.000000
# 6 0.000000 0.000000 0.000000 0.000000 0.000000 0.051910
#
#
# Mechanical properties :
#
#
# Convention : Reuss Voigt Hill
#
# Bulk Modulus (GPa) = 48.83435 59.20362 54.01898
# Shear Modulus (GPa) = 17.73679 19.08098 18.40888
#
# Velocity S-wave (km/s) = 3.30625 3.42924 3.36831
# Velocity P-wave (km/s) = 6.68370 7.22268 6.95841
#
# Compressibility (1/GPa) = 0.02047739
#
# Stress axis : x y z
#
# Youngs Moduli (GPa) = 30.99538 75.44149 52.40816
#
# Poissons Ratio (x) = 0.61188 0.47450
# Poissons Ratio (y) = 0.25139 0.25660
# Poissons Ratio (z) = 0.28063 0.36938
#
# Static dielectric constant tensor:
#      x y z
#    x 2.884640 0.000000 0.000000 
#    y 0.000000 3.334230 0.000000 
#    z 0.000000 0.000000 2.842380 
# 
# 
# High freq. dielectric constant tensor:
#      x y z
#    x 1.601650 0.000000 0.000000 
#    y 0.000000 1.633530 0.000000 
#    z 0.000000 0.000000 1.587170 
# 
# From -- ./inp_files/27873.got.cif
#   From: 2010.03.12/outbox.cif.g09.slc.cpg/sg67_14_cif.got.tgz:27873.got - 2010.04.10 22:41:39.
