data_PCOD8278981
_publ_section_title
;
Structure prediction by ZEFSAII (Michael W. Deem and Ramdas Pophale) SiO2 
 PCOD8278981
Probable space group: C M M A
;
_chemical_formula_sum "Si O2"
_cell_formula_units_Z 80
_cell_length_a 23.974528
_cell_length_b 8.712978
_cell_length_c 20.605216
_cell_angle_alpha 90.000000
_cell_angle_beta 90.000000
_cell_angle_gamma 90.000000
_cell_volume 4304.213989
_symmetry_space_group_name_H-M "C M M A"
_symmetry_group_IT_number 67
_symmetry_cell_setting 'orthorhombic'
loop_
_space_group_symop_operation_xyz
x,y,z
-x,1/2-y,z
x,-y,-z
-x,1/2+y,-z
-x,-y,-z
x,1/2+y,-z
-x,y,z
x,1/2-y,z
1/2+x,1/2+y,z
1/2-x,-y,z
1/2+x,1/2-y,-z
1/2-x,y,-z
1/2-x,1/2-y,-z
1/2+x,y,-z
1/2-x,1/2+y,z
1/2+x,-y,z
loop_
_atom_site_type_symbol
_atom_site_label
_atom_site_fract_x
_atom_site_fract_y
_atom_site_fract_z
Si Si1 0.383655 0.568271 0.431993
Si Si2 0.689073 0.932021 0.311388
Si Si3 0.000000 0.432669 0.377499
Si Si4 0.000000 0.567039 0.769177
Si Si5 0.381192 0.067829 0.810501
Si Si6 0.810079 0.567329 0.931778
O O1 0.363406 0.500000 0.500000
O O2 0.383972 0.750000 0.436469
O O3 0.340919 0.511528 0.376987
O O4 0.445412 0.505891 0.414739
O O5 0.692561 0.750000 0.309060
O O6 0.654184 0.995957 0.250194
O O7 0.750000 0.000000 0.308428
O O8 0.000000 0.250000 0.374788
O O9 0.000000 0.496760 0.304204
O O10 0.944750 0.505901 0.806105
O O11 0.000000 0.750000 0.767529
O O12 0.381110 0.250000 0.807275
O O13 0.353899 0.011414 0.877594
O O14 0.805579 0.750000 0.936164
O O15 0.750000 0.500000 0.913149
O O16 0.831224 0.500000 0.000000
#
# Coordination Sequence:
#
# PCOD8278981 Si02
#       6
#    16  16   8   8  16  16
#     4  10  20  33  51  74  99 127 162 204 251 297
#     4  10  20  34  51  73  98 128 166 206 247 292
#     4   9  15  29  52  75  97 124 159 206 251 290
#     4   9  14  27  52  77  99 124 161 208 248 288
#     4   9  17  30  51  77 101 127 165 207 246 290
#     4  10  19  32  51  77 105 135 168 202 242 288
#
# _framework density 18.586437
#
# number of rings (size 3 to 8) (size 9 to 14) (size 15 to 20)
#    0.000    2.400    2.000    2.100    0.000    1.200 
#    0.000    3.500    0.000    0.000    0.000    5.600 
#    0.000    0.000    0.000    0.000    0.000    0.000 
#
# Total GULP energy -495957.865013 kJ/mol
# GULP energy per Si atom -12398.946625 kJ/mol
# Density = 1.854413 g / cm^3
# Si number density = 18.586437 Si / 1000 Ang^3
#
#
#
# Elastic Constant Matrix: (Units=GPa)
#
#
# Indices 1 2 3 4 5 6 
#
# 1 169.7303 20.0281 100.1913 0.0000 0.0000 0.0000
# 2 20.0281 25.7527 26.2202 0.0000 0.0000 0.0000
# 3 100.1913 26.2202 177.7019 0.0000 0.0000 0.0000
# 4 0.0000 0.0000 0.0000 20.8626 0.0000 0.0000
# 5 0.0000 0.0000 0.0000 0.0000 36.0115 0.0000
# 6 0.0000 0.0000 0.0000 0.0000 0.0000 21.2252
#
#
#
# Elastic Compliance Matrix: (Units=1/GPa)
#
#
# Indices 1 2 3 4 5 6 
#
# 1 0.008930 -0.002140 -0.004719 0.000000 0.000000 0.000000
# 2 -0.002140 0.046209 -0.005611 0.000000 0.000000 0.000000
# 3 -0.004719 -0.005611 0.009116 0.000000 0.000000 0.000000
# 4 0.000000 0.000000 0.000000 0.047933 0.000000 0.000000
# 5 0.000000 0.000000 0.000000 0.000000 0.027769 0.000000
# 6 0.000000 0.000000 0.000000 0.000000 0.000000 0.047114
#
#
# Mechanical properties :
#
#
# Convention : Reuss Voigt Hill
#
# Bulk Modulus (GPa) = 25.43672 74.00711 49.72192
# Shear Modulus (GPa) = 22.21079 30.73620 26.47350
#
# Velocity S-wave (km/s) = 3.46063 4.07097 3.77814
# Velocity P-wave (km/s) = 5.44824 7.87409 6.77069
#
# Compressibility (1/GPa) = 0.03931324
#
# Stress axis : x y z
#
# Youngs Moduli (GPa) = 111.98377 21.64095 109.69665
#
# Poissons Ratio (x) = 0.04632 0.51766
# Poissons Ratio (y) = 0.23966 0.61556
# Poissons Ratio (z) = 0.52845 0.12144
#
# Static dielectric constant tensor:
#      x y z
#    x 3.673920 0.000000 0.000000 
#    y 0.000000 2.956370 0.000000 
#    z 0.000000 0.000000 3.646160 
# 
# 
# High freq. dielectric constant tensor:
#      x y z
#    x 1.727880 0.000000 0.000000 
#    y 0.000000 1.677580 0.000000 
#    z 0.000000 0.000000 1.730060 
# 
# From -- ./inp_files/39511.got.cif
#   From: 2010.03.12/outbox.cif.g09.slc.cpg/sg67_20_cif.got.tgz:39511.got - 2010.04.10 22:41:39.
