data_PCOD8278221
_publ_section_title
;
Structure prediction by ZEFSAII (Michael W. Deem and Ramdas Pophale) SiO2 
 PCOD8278221
Probable space group: C M M A
;
_chemical_formula_sum "Si O2"
_cell_formula_units_Z 80
_cell_length_a 9.922727
_cell_length_b 28.230713
_cell_length_c 19.647667
_cell_angle_alpha 90.000000
_cell_angle_beta 90.000000
_cell_angle_gamma 90.000000
_cell_volume 5503.815649
_symmetry_space_group_name_H-M "C M M A"
_symmetry_group_IT_number 67
_symmetry_cell_setting 'orthorhombic'
loop_
_space_group_symop_operation_xyz
x,y,z
-x,1/2-y,z
x,-y,-z
-x,1/2+y,-z
-x,-y,-z
x,1/2+y,-z
-x,y,z
x,1/2-y,z
1/2+x,1/2+y,z
1/2-x,-y,z
1/2+x,1/2-y,-z
1/2-x,y,-z
1/2-x,1/2-y,-z
1/2+x,y,-z
1/2-x,1/2+y,z
1/2+x,-y,z
loop_
_atom_site_type_symbol
_atom_site_label
_atom_site_fract_x
_atom_site_fract_y
_atom_site_fract_z
Si Si1 0.000000 0.554023 0.418847
Si Si2 0.343021 0.196082 0.667992
Si Si3 0.350207 0.306264 0.821631
Si Si4 0.748095 0.386563 0.580536
Si Si5 0.154984 0.806380 0.061526
Si Si6 0.000000 0.551643 0.580209
O O1 0.874589 0.584071 0.393285
O O2 0.000000 0.548187 0.499399
O O3 0.000000 0.501066 0.387376
O O4 0.500000 0.192355 0.649082
O O5 0.292733 0.250000 0.659424
O O6 0.317582 0.177790 0.744755
O O7 0.256239 0.164280 0.616686
O O8 0.500000 0.325070 0.843444
O O9 0.355426 0.250000 0.824913
O O10 0.230913 0.325256 0.870513
O O11 0.750000 0.377564 0.500000
O O12 0.626883 0.419156 0.605955
O O13 0.147983 0.750000 0.060776
O O14 0.000000 0.826110 0.057437
O O15 0.250000 0.824477 0.000000
#
# Coordination Sequence:
#
# PCOD8278221 Si02
#       6
#     8  16  16  16  16   8
#     4   9  18  28  43  67  85  97 123 170 220 262
#     4   9  17  30  45  57  76 112 151 178 203 244
#     4   8  14  25  39  52  68  97 137 172 199 232
#     4  10  18  29  45  63  82 105 137 175 213 255
#     4   9  15  22  34  53  75  97 125 164 204 238
#     4   9  16  30  47  61  81 105 127 160 214 272
#
# _framework density 14.53537
#
# number of rings (size 3 to 8) (size 9 to 14) (size 15 to 20)
#    0.000    3.000    1.000    2.400    0.000    5.200 
#    1.800    0.500    0.000    0.000    0.000    0.000 
#    0.000    0.000    0.000    0.000    0.000    6.000 
#
# Total GULP energy -495678.776385 kJ/mol
# GULP energy per Si atom -12391.969410 kJ/mol
# Density = 1.450229 g / cm^3
# Si number density = 14.535370 Si / 1000 Ang^3
#
#
#
# Elastic Constant Matrix: (Units=GPa)
#
#
# Indices 1 2 3 4 5 6 
#
# 1 120.2744 38.6998 43.3956 0.0000 0.0000 0.0000
# 2 38.6998 65.3000 31.9407 0.0000 0.0000 0.0000
# 3 43.3956 31.9407 62.6118 0.0000 0.0000 0.0000
# 4 0.0000 0.0000 0.0000 0.9606 0.0000 0.0000
# 5 0.0000 0.0000 0.0000 0.0000 28.7046 0.0000
# 6 0.0000 0.0000 0.0000 0.0000 0.0000 8.9059
#
#
#
# Elastic Compliance Matrix: (Units=1/GPa)
#
#
# Indices 1 2 3 4 5 6 
#
# 1 0.011820 -0.003995 -0.006155 0.000000 0.000000 0.000000
# 2 -0.003995 0.021756 -0.008330 0.000000 0.000000 0.000000
# 3 -0.006155 -0.008330 0.024487 0.000000 0.000000 0.000000
# 4 0.000000 0.000000 0.000000 1.041007 0.000000 0.000000
# 5 0.000000 0.000000 0.000000 0.000000 0.034838 0.000000
# 6 0.000000 0.000000 0.000000 0.000000 0.000000 0.112286
#
#
# Mechanical properties :
#
#
# Convention : Reuss Voigt Hill
#
# Bulk Modulus (GPa) = 47.38378 52.91760 50.15069
# Shear Modulus (GPa) = 3.87541 16.65754 10.26648
#
# Velocity S-wave (km/s) = 1.63462 3.38894 2.66053
# Velocity P-wave (km/s) = 6.01933 7.19710 6.63441
#
# Compressibility (1/GPa) = 0.02110427
#
# Stress axis : x y z
#
# Youngs Moduli (GPa) = 84.60005 45.96464 40.83882
#
# Poissons Ratio (x) = 0.18362 0.25135
# Poissons Ratio (y) = 0.33796 0.34018
# Poissons Ratio (z) = 0.52068 0.38287
#
# Static dielectric constant tensor:
#      x y z
#    x 3.053410 0.000000 0.000000 
#    y 0.000000 2.521420 0.000000 
#    z 0.000000 0.000000 2.752370 
# 
# 
# High freq. dielectric constant tensor:
#      x y z
#    x 1.565610 0.000000 0.000000 
#    y 0.000000 1.506500 0.000000 
#    z 0.000000 0.000000 1.532850 
# 
# From -- ./inp_files/37087.got.cif
#   From: 2010.03.12/outbox.cif.g09.slc.cpg/sg67_19_cif.got.tgz:37087.got - 2010.04.10 22:41:39.
