data_PCOD8278034
_publ_section_title
;
Structure prediction by ZEFSAII (Michael W. Deem and Ramdas Pophale) SiO2 
 PCOD8278034
Probable space group: C M M A
;
_chemical_formula_sum "Si O2"
_cell_formula_units_Z 72
_cell_length_a 8.595709
_cell_length_b 16.122074
_cell_length_c 25.188455
_cell_angle_alpha 90.000000
_cell_angle_beta 90.000000
_cell_angle_gamma 90.000000
_cell_volume 3490.632632
_symmetry_space_group_name_H-M "C M M A"
_symmetry_group_IT_number 67
_symmetry_cell_setting 'orthorhombic'
loop_
_space_group_symop_operation_xyz
x,y,z
-x,1/2-y,z
x,-y,-z
-x,1/2+y,-z
-x,-y,-z
x,1/2+y,-z
-x,y,z
x,1/2-y,z
1/2+x,1/2+y,z
1/2-x,-y,z
1/2+x,1/2-y,-z
1/2-x,y,-z
1/2-x,1/2-y,-z
1/2+x,y,-z
1/2-x,1/2+y,z
1/2+x,-y,z
loop_
_atom_site_type_symbol
_atom_site_label
_atom_site_fract_x
_atom_site_fract_y
_atom_site_fract_z
Si Si1 0.184902 0.250000 0.441397
Si Si2 0.315384 0.658268 0.270727
Si Si3 0.814927 0.091486 0.159750
Si Si4 0.815504 0.907169 0.053259
Si Si5 0.684165 0.587140 0.379106
O O1 0.250000 0.250000 0.500000
O O2 0.246207 0.166172 0.412575
O O3 0.000000 0.250000 0.441572
O O4 0.500000 0.656451 0.268182
O O5 0.255688 0.750000 0.284731
O O6 0.249032 0.633758 0.213138
O O7 0.258159 0.597998 0.317990
O O8 0.747055 0.137535 0.107061
O O9 0.000000 0.092520 0.157171
O O10 0.750000 0.000000 0.160774
O O11 0.000000 0.906973 0.052351
O O12 0.750000 0.000000 0.053721
O O13 0.750000 0.862036 0.000000
O O14 0.500000 0.583772 0.382750
O O15 0.750000 0.500000 0.401444
#
# Coordination Sequence:
#
# PCOD8278034 Si02
#       5
#     8  16  16  16  16
#     4  10  22  40  62  86 120 160 197 238 283 336
#     4   9  17  32  54  77 104 140 181 222 271 332
#     4  10  18  28  46  72 100 129 166 213 265 325
#     4  10  17  27  43  64  94 128 167 214 265 322
#     4  10  20  37  61  87 116 153 195 238 286 338
#
# _framework density 20.626633999999999
#
# number of rings (size 3 to 8) (size 9 to 14) (size 15 to 20)
#    0.000    2.222    1.111    5.333    0.000    1.333 
#    0.000    3.333    0.000    6.000    0.000    0.000 
#    0.000    0.000    0.000    0.000    0.000    0.000 
#
# Total GULP energy -446113.514855 kJ/mol
# GULP energy per Si atom -12392.042079 kJ/mol
# Density = 2.057969 g / cm^3
# Si number density = 20.626634 Si / 1000 Ang^3
#
#
#
# Elastic Constant Matrix: (Units=GPa)
#
#
# Indices 1 2 3 4 5 6 
#
# 1 75.4970 16.7910 38.0543 0.0000 0.0000 0.0000
# 2 16.7910 112.9244 62.4676 0.0000 0.0000 0.0000
# 3 38.0543 62.4676 179.8608 0.0000 0.0000 0.0000
# 4 0.0000 0.0000 0.0000 26.1883 0.0000 0.0000
# 5 0.0000 0.0000 0.0000 0.0000 42.3974 0.0000
# 6 0.0000 0.0000 0.0000 0.0000 0.0000 17.7864
#
#
#
# Elastic Compliance Matrix: (Units=1/GPa)
#
#
# Indices 1 2 3 4 5 6 
#
# 1 0.014858 -0.000582 -0.002941 0.000000 0.000000 0.000000
# 2 -0.000582 0.010984 -0.003692 0.000000 0.000000 0.000000
# 3 -0.002941 -0.003692 0.007464 0.000000 0.000000 0.000000
# 4 0.000000 0.000000 0.000000 0.038185 0.000000 0.000000
# 5 0.000000 0.000000 0.000000 0.000000 0.023586 0.000000
# 6 0.000000 0.000000 0.000000 0.000000 0.000000 0.056223
#
#
# Mechanical properties :
#
#
# Convention : Reuss Voigt Hill
#
# Bulk Modulus (GPa) = 52.97806 66.98980 59.98393
# Shear Modulus (GPa) = 29.06591 34.00569 31.53580
#
# Velocity S-wave (km/s) = 3.75793 4.06474 3.91434
# Velocity P-wave (km/s) = 6.67604 7.38764 7.04084
#
# Compressibility (1/GPa) = 0.01887574
#
# Stress axis : x y z
#
# Youngs Moduli (GPa) = 67.30553 91.03931 133.96968
#
# Poissons Ratio (x) = 0.05300 0.39405
# Poissons Ratio (y) = 0.03918 0.49459
# Poissons Ratio (z) = 0.19797 0.33610
#
# Static dielectric constant tensor:
#      x y z
#    x 3.395320 0.000000 0.000000 
#    y 0.000000 3.649920 0.000000 
#    z 0.000000 0.000000 13.302690 
# 
# 
# High freq. dielectric constant tensor:
#      x y z
#    x 1.779870 0.000000 0.000000 
#    y 0.000000 1.779790 0.000000 
#    z 0.000000 0.000000 1.830370 
# 
# From -- ./inp_files/43110.got.cif
#   From: 2010.03.12/outbox.cif.g09.slc.cpg/sg67_22_cif.got.tgz:43110.got - 2010.04.10 22:41:39.
