data_PCOD8278671
_publ_section_title
;
Structure prediction by ZEFSAII (Michael W. Deem and Ramdas Pophale) SiO2 
 PCOD8278671
Probable space group: C M M A
;
_chemical_formula_sum "Si O2"
_cell_formula_units_Z 128
_cell_length_a 27.175942
_cell_length_b 10.094665
_cell_length_c 28.395044
_cell_angle_alpha 90.000000
_cell_angle_beta 90.000000
_cell_angle_gamma 90.000000
_cell_volume 7789.670078
_symmetry_space_group_name_H-M "C M M A"
_symmetry_group_IT_number 67
_symmetry_cell_setting 'orthorhombic'
loop_
_space_group_symop_operation_xyz
x,y,z
-x,1/2-y,z
x,-y,-z
-x,1/2+y,-z
-x,-y,-z
x,1/2+y,-z
-x,y,z
x,1/2-y,z
1/2+x,1/2+y,z
1/2-x,-y,z
1/2+x,1/2-y,-z
1/2-x,y,-z
1/2-x,1/2-y,-z
1/2+x,y,-z
1/2-x,1/2+y,z
1/2+x,-y,z
loop_
_atom_site_type_symbol
_atom_site_label
_atom_site_fract_x
_atom_site_fract_y
_atom_site_fract_z
Si Si1 0.554360 0.592687 0.406604
Si Si2 0.892715 0.597429 0.039205
Si Si3 0.442384 0.903505 0.219342
Si Si4 0.850228 0.402492 0.459340
Si Si5 0.894311 0.405979 0.314802
Si Si6 0.720497 0.390083 0.049076
Si Si7 0.705161 0.597797 0.362053
Si Si8 0.942605 0.099462 0.863113
O O1 0.500000 0.536972 0.419414
O O2 0.553425 0.750000 0.402661
O O3 0.594007 0.553204 0.446336
O O4 0.571522 0.532960 0.356216
O O5 0.903951 0.750000 0.025671
O O6 0.835038 0.567127 0.040834
O O7 0.915093 0.560037 0.089319
O O8 0.916248 0.500000 0.000000
O O9 0.500000 0.920876 0.230147
O O10 0.430137 0.750000 0.207654
O O11 0.412054 0.958366 0.264200
O O12 0.425231 0.995950 0.176400
O O13 0.830827 0.500000 0.500000
O O14 0.848647 0.250000 0.476782
O O15 0.815092 0.421012 0.414665
O O16 0.901805 0.250000 0.316004
O O17 0.837300 0.440881 0.324564
O O18 0.722026 0.250000 0.076240
O O19 0.750000 0.500000 0.079887
O O20 0.750000 0.377373 0.000000
O O21 0.722059 0.750000 0.354771
O O22 0.750000 0.500000 0.352453
O O23 0.929518 0.250000 0.847591
O O24 0.000000 0.084932 0.873141
#
# Coordination Sequence:
#
# PCOD8278671 Si02
#       8
#    16  16  16  16  16  16  16  16
#     4   8  13  23  41  65  91 117 146 181 224 274
#     4  10  19  30  46  67  90 119 154 188 223 262
#     4   9  16  28  50  76  95 114 145 183 220 261
#     4   9  18  30  43  62  89 120 154 191 227 267
#     4   8  14  26  46  71  94 113 140 184 231 270
#     4   9  15  25  42  64  85 105 136 179 220 254
#     4   9  18  32  48  67  90 117 151 190 232 273
#     4   9  19  34  47  63  94 130 154 176 215 267
#
# _framework density 16.432017999999999
#
# number of rings (size 3 to 8) (size 9 to 14) (size 15 to 20)
#    0.000    3.125    1.250    1.875    0.000    3.250 
#    0.000    1.875    0.000    1.500    0.000    5.250 
#    0.000    0.000    0.000    0.000    0.000    0.000 
#
# Total GULP energy -793021.296817 kJ/mol
# GULP energy per Si atom -12390.957763 kJ/mol
# Density = 1.639462 g / cm^3
# Si number density = 16.432018 Si / 1000 Ang^3
#
#
#
# Elastic Constant Matrix: (Units=GPa)
#
#
# Indices 1 2 3 4 5 6 
#
# 1 62.6270 29.4023 34.7734 0.0000 0.0000 0.0000
# 2 29.4023 81.0276 52.6705 0.0000 0.0000 0.0000
# 3 34.7734 52.6705 98.9309 0.0000 0.0000 0.0000
# 4 0.0000 0.0000 0.0000 21.5928 0.0000 0.0000
# 5 0.0000 0.0000 0.0000 0.0000 16.6261 0.0000
# 6 0.0000 0.0000 0.0000 0.0000 0.0000 18.6284
#
#
#
# Elastic Compliance Matrix: (Units=1/GPa)
#
#
# Indices 1 2 3 4 5 6 
#
# 1 0.020761 -0.004267 -0.005026 0.000000 0.000000 0.000000
# 2 -0.004267 0.019750 -0.009015 0.000000 0.000000 0.000000
# 3 -0.005026 -0.009015 0.016674 0.000000 0.000000 0.000000
# 4 0.000000 0.000000 0.000000 0.046312 0.000000 0.000000
# 5 0.000000 0.000000 0.000000 0.000000 0.060146 0.000000
# 6 0.000000 0.000000 0.000000 0.000000 0.000000 0.053681
#
#
# Mechanical properties :
#
#
# Convention : Reuss Voigt Hill
#
# Bulk Modulus (GPa) = 48.61412 52.91978 50.76695
# Shear Modulus (GPa) = 19.17204 19.75208 19.46206
#
# Velocity S-wave (km/s) = 3.41948 3.47082 3.44524
# Velocity P-wave (km/s) = 6.72604 6.95250 6.84021
#
# Compressibility (1/GPa) = 0.02057015
#
# Stress axis : x y z
#
# Youngs Moduli (GPa) = 48.16661 50.63364 59.97294
#
# Poissons Ratio (x) = 0.21603 0.30142
# Poissons Ratio (y) = 0.20551 0.54066
# Poissons Ratio (z) = 0.24208 0.45646
#
# Static dielectric constant tensor:
#      x y z
#    x 3.186990 0.000000 0.000000 
#    y 0.000000 4.002660 0.000000 
#    z 0.000000 0.000000 2.995050 
# 
# 
# High freq. dielectric constant tensor:
#      x y z
#    x 1.630550 0.000000 0.000000 
#    y 0.000000 1.617240 0.000000 
#    z 0.000000 0.000000 1.607470 
# 
# From -- ./inp_files/42664.got.cif
#   From: 2010.03.12/outbox.cif.g09.slc.cpg/sg67_22_cif.got.tgz:42664.got - 2010.04.10 22:41:39.
