data_PCOD8278468
_publ_section_title
;
Structure prediction by ZEFSAII (Michael W. Deem and Ramdas Pophale) SiO2 
 PCOD8278468
Probable space group: C M M A
;
_chemical_formula_sum "Si O2"
_cell_formula_units_Z 128
_cell_length_a 18.428316
_cell_length_b 17.712955
_cell_length_c 22.872680
_cell_angle_alpha 90.000000
_cell_angle_beta 90.000000
_cell_angle_gamma 90.000000
_cell_volume 7466.098651
_symmetry_space_group_name_H-M "C M M A"
_symmetry_group_IT_number 67
_symmetry_cell_setting 'orthorhombic'
loop_
_space_group_symop_operation_xyz
x,y,z
-x,1/2-y,z
x,-y,-z
-x,1/2+y,-z
-x,-y,-z
x,1/2+y,-z
-x,y,z
x,1/2-y,z
1/2+x,1/2+y,z
1/2-x,-y,z
1/2+x,1/2-y,-z
1/2-x,y,-z
1/2-x,1/2-y,-z
1/2+x,y,-z
1/2-x,1/2+y,z
1/2+x,-y,z
loop_
_atom_site_type_symbol
_atom_site_label
_atom_site_fract_x
_atom_site_fract_y
_atom_site_fract_z
Si Si1 0.705085 0.165766 0.684412
Si Si2 0.169066 0.165594 0.977892
Si Si3 0.419386 0.440487 0.947779
Si Si4 0.368340 0.004841 0.437178
Si Si5 0.689951 0.061095 0.253718
Si Si6 0.246854 0.879324 0.436938
Si Si7 0.177037 0.957589 0.118914
Si Si8 0.917264 0.459575 0.316655
O O1 0.685456 0.250000 0.706341
O O2 0.776702 0.137935 0.719860
O O3 0.727816 0.172834 0.616432
O O4 0.634033 0.113356 0.694736
O O5 0.142477 0.250000 0.962510
O O6 0.161480 0.115578 0.920006
O O7 0.250000 0.165891 0.000000
O O8 0.121603 0.134609 0.031731
O O9 0.500000 0.416562 0.930724
O O10 0.384903 0.479145 0.890367
O O11 0.416176 0.500000 0.000000
O O12 0.301392 0.948570 0.441452
O O13 0.421577 0.980740 0.385113
O O14 0.409975 0.000000 0.500000
O O15 0.334278 0.087986 0.424714
O O16 0.678438 0.070887 0.184912
O O17 0.750000 0.000000 0.269895
O O18 0.614823 0.032778 0.282604
O O19 0.250000 0.835942 0.500000
O O20 0.250000 0.000000 0.099133
O O21 0.000000 0.443205 0.295599
#
# Coordination Sequence:
#
# PCOD8278468 Si02
#       8
#    16  16  16  16  16  16  16  16
#     4  10  19  32  50  73 103 133 166 212 261 310
#     4  10  19  31  51  79 110 138 167 201 245 300
#     4   9  18  31  50  75 102 133 166 203 250 297
#     4   8  13  24  45  71  96 123 164 216 262 301
#     4   9  19  34  52  73  97 131 179 217 247 295
#     4   8  13  24  45  71  97 125 163 210 256 305
#     4  10  18  32  54  76  98 132 171 217 249 283
#     4  10  19  32  50  72 101 134 170 213 260 310
#
# _framework density 17.144161
#
# number of rings (size 3 to 8) (size 9 to 14) (size 15 to 20)
#    0.000    2.750    2.500    0.750    0.000    2.000 
#    0.000    0.000    0.000    0.375    0.000    3.500 
#    0.000    0.000    0.000    0.000    0.000    0.000 
#
# Total GULP energy -793042.331169 kJ/mol
# GULP energy per Si atom -12391.286425 kJ/mol
# Density = 1.710514 g / cm^3
# Si number density = 17.144161 Si / 1000 Ang^3
#
#
#
# Elastic Constant Matrix: (Units=GPa)
#
#
# Indices 1 2 3 4 5 6 
#
# 1 101.1268 43.5090 30.7552 0.0000 0.0000 0.0000
# 2 43.5090 99.5734 36.1332 0.0000 0.0000 0.0000
# 3 30.7552 36.1332 78.1861 0.0000 0.0000 0.0000
# 4 0.0000 0.0000 0.0000 37.0363 0.0000 0.0000
# 5 0.0000 0.0000 0.0000 0.0000 11.9099 0.0000
# 6 0.0000 0.0000 0.0000 0.0000 0.0000 179.9697
#
#
#
# Elastic Compliance Matrix: (Units=1/GPa)
#
#
# Indices 1 2 3 4 5 6 
#
# 1 0.012711 -0.004493 -0.002923 0.000000 0.000000 0.000000
# 2 -0.004493 0.013655 -0.004543 0.000000 0.000000 0.000000
# 3 -0.002923 -0.004543 0.016039 0.000000 0.000000 0.000000
# 4 0.000000 0.000000 0.000000 0.027001 0.000000 0.000000
# 5 0.000000 0.000000 0.000000 0.000000 0.083963 0.000000
# 6 0.000000 0.000000 0.000000 0.000000 0.000000 0.005556
#
#
# Mechanical properties :
#
#
# Convention : Reuss Voigt Hill
#
# Bulk Modulus (GPa) = 54.09561 55.52012 54.80787
# Shear Modulus (GPa) = 26.45410 57.01580 41.73495
#
# Velocity S-wave (km/s) = 3.93241 5.77312 4.93927
# Velocity P-wave (km/s) = 7.22775 8.76887 8.03534
#
# Compressibility (1/GPa) = 0.01848579
#
# Stress axis : x y z
#
# Youngs Moduli (GPa) = 78.67313 73.23475 62.34622
#
# Poissons Ratio (x) = 0.32906 0.18226
# Poissons Ratio (y) = 0.35349 0.28324
# Poissons Ratio (z) = 0.22999 0.33271
#
# Static dielectric constant tensor:
#      x y z
#    x 3.061040 0.000000 0.000000 
#    y 0.000000 3.060730 0.000000 
#    z 0.000000 0.000000 3.279100 
# 
# 
# High freq. dielectric constant tensor:
#      x y z
#    x 1.641120 0.000000 0.000000 
#    y 0.000000 1.635890 0.000000 
#    z 0.000000 0.000000 1.662120 
# 
# From -- ./inp_files/42258.got.cif
#   From: 2010.03.12/outbox.cif.g09.slc.cpg/sg67_22_cif.got.tgz:42258.got - 2010.04.10 22:41:39.
