data_PCOD8278733
_publ_section_title
;
Structure prediction by ZEFSAII (Michael W. Deem and Ramdas Pophale) SiO2 
 PCOD8278733
Probable space group: C M M A
;
_chemical_formula_sum "Si O2"
_cell_formula_units_Z 104
_cell_length_a 8.731844
_cell_length_b 25.142877
_cell_length_c 30.360844
_cell_angle_alpha 90.000000
_cell_angle_beta 90.000000
_cell_angle_gamma 90.000000
_cell_volume 6665.531410
_symmetry_space_group_name_H-M "C M M A"
_symmetry_group_IT_number 67
_symmetry_cell_setting 'orthorhombic'
loop_
_space_group_symop_operation_xyz
x,y,z
-x,1/2-y,z
x,-y,-z
-x,1/2+y,-z
-x,-y,-z
x,1/2+y,-z
-x,y,z
x,1/2-y,z
1/2+x,1/2+y,z
1/2-x,-y,z
1/2+x,1/2-y,-z
1/2-x,y,-z
1/2-x,1/2-y,-z
1/2+x,y,-z
1/2-x,1/2+y,z
1/2+x,-y,z
loop_
_atom_site_type_symbol
_atom_site_label
_atom_site_fract_x
_atom_site_fract_y
_atom_site_fract_z
Si Si1 0.327214 0.686962 0.457017
Si Si2 0.316507 0.557763 0.046494
Si Si3 0.329453 0.813243 0.725126
Si Si4 0.182616 0.250000 0.048366
Si Si5 0.672798 0.813328 0.361642
Si Si6 0.176198 0.812610 0.813933
Si Si7 0.318918 0.151028 0.099768
O O1 0.500000 0.667416 0.457612
O O2 0.315470 0.750000 0.460900
O O3 0.250000 0.660228 0.500000
O O4 0.256428 0.669240 0.409448
O O5 0.500000 0.556364 0.044675
O O6 0.250000 0.500000 0.057226
O O7 0.256527 0.596125 0.084566
O O8 0.250000 0.578545 0.000000
O O9 0.500000 0.834783 0.733377
O O10 0.327740 0.750000 0.722386
O O11 0.269974 0.837373 0.678785
O O12 0.222230 0.832315 0.765185
O O13 0.239926 0.198259 0.073327
O O14 0.000000 0.250000 0.046884
O O15 0.250000 0.250000 0.000000
O O16 0.500000 0.834668 0.357120
O O17 0.671801 0.750000 0.359080
O O18 0.205222 0.750000 0.819075
O O19 0.283425 0.842830 0.848615
O O20 0.000000 0.827125 0.822572
O O21 0.500000 0.151155 0.091433
#
# Coordination Sequence:
#
# PCOD8278733 Si02
#       7
#    16  16  16   8  16  16  16
#     4   8  13  19  26  36  51  72 100 138 185 236
#     4  11  22  39  59  79 100 123 153 185 219 258
#     4   9  16  24  35  51  70  93 124 160 198 241
#     4  12  24  38  52  72  98 126 154 182 217 260
#     4   8  13  21  30  40  56  80 111 146 188 237
#     4  10  19  31  46  63  86 114 143 173 211 258
#     4  12  23  36  53  74  98 124 151 184 221 261
#
# _framework density 15.602657000000001
#
# number of rings (size 3 to 8) (size 9 to 14) (size 15 to 20)
#    0.000    2.154    0.769    6.231    0.000    3.077 
#    0.000    3.077    0.000    0.000    0.000    0.000 
#    0.000    0.000    0.000    0.000    0.000    0.000 
#
# Total GULP energy -644520.181250 kJ/mol
# GULP energy per Si atom -12394.618870 kJ/mol
# Density = 1.556714 g / cm^3
# Si number density = 15.602657 Si / 1000 Ang^3
#
#
#
# Elastic Constant Matrix: (Units=GPa)
#
#
# Indices 1 2 3 4 5 6 
#
# 1 113.5802 23.8377 51.0425 0.0000 0.0000 0.0000
# 2 23.8377 32.6198 27.5583 0.0000 0.0000 0.0000
# 3 51.0425 27.5583 136.1067 0.0000 0.0000 0.0000
# 4 0.0000 0.0000 0.0000 5.4496 0.0000 0.0000
# 5 0.0000 0.0000 0.0000 0.0000 32.4754 0.0000
# 6 0.0000 0.0000 0.0000 0.0000 0.0000 14.5701
#
#
#
# Elastic Compliance Matrix: (Units=1/GPa)
#
#
# Indices 1 2 3 4 5 6 
#
# 1 0.011403 -0.005694 -0.003123 0.000000 0.000000 0.000000
# 2 -0.005694 0.039826 -0.005928 0.000000 0.000000 0.000000
# 3 -0.003123 -0.005928 0.009719 0.000000 0.000000 0.000000
# 4 0.000000 0.000000 0.000000 0.183498 0.000000 0.000000
# 5 0.000000 0.000000 0.000000 0.000000 0.030793 0.000000
# 6 0.000000 0.000000 0.000000 0.000000 0.000000 0.068634
#
#
# Mechanical properties :
#
#
# Convention : Reuss Voigt Hill
#
# Bulk Modulus (GPa) = 31.79066 54.13151 42.96109
# Shear Modulus (GPa) = 13.02594 22.49024 17.75809
#
# Velocity S-wave (km/s) = 2.89252 3.80074 3.37730
# Velocity P-wave (km/s) = 5.61916 7.35051 6.54236
#
# Compressibility (1/GPa) = 0.03145578
#
# Stress axis : x y z
#
# Youngs Moduli (GPa) = 87.69548 25.10930 102.89278
#
# Poissons Ratio (x) = 0.14298 0.32138
# Poissons Ratio (y) = 0.49936 0.60998
# Poissons Ratio (z) = 0.27391 0.14886
#
# Static dielectric constant tensor:
#      x y z
#    x 3.166800 0.000000 0.000000 
#    y 0.000000 2.414840 0.000000 
#    z 0.000000 0.000000 3.408240 
# 
# 
# High freq. dielectric constant tensor:
#      x y z
#    x 1.613050 0.000000 0.000000 
#    y 0.000000 1.514070 0.000000 
#    z 0.000000 0.000000 1.618660 
# 
# From -- ./inp_files/43726.got.cif
#   From: 2010.03.12/outbox.cif.g09.slc.cpg/sg67_22_cif.got.tgz:43726.got - 2010.04.10 22:41:39.
