data_PCOD8278232
_publ_section_title
;
Structure prediction by ZEFSAII (Michael W. Deem and Ramdas Pophale) SiO2 
 PCOD8278232
Probable space group: C M M A
;
_chemical_formula_sum "Si O2"
_cell_formula_units_Z 96
_cell_length_a 8.916944
_cell_length_b 19.361407
_cell_length_c 31.284800
_cell_angle_alpha 90.000000
_cell_angle_beta 90.000000
_cell_angle_gamma 90.000000
_cell_volume 5401.151218
_symmetry_space_group_name_H-M "C M M A"
_symmetry_group_IT_number 67
_symmetry_cell_setting 'orthorhombic'
loop_
_space_group_symop_operation_xyz
x,y,z
-x,1/2-y,z
x,-y,-z
-x,1/2+y,-z
-x,-y,-z
x,1/2+y,-z
-x,y,z
x,1/2-y,z
1/2+x,1/2+y,z
1/2-x,-y,z
1/2+x,1/2-y,-z
1/2-x,y,-z
1/2-x,1/2-y,-z
1/2+x,y,-z
1/2-x,1/2+y,z
1/2+x,-y,z
loop_
_atom_site_type_symbol
_atom_site_label
_atom_site_fract_x
_atom_site_fract_y
_atom_site_fract_z
Si Si1 0.673795 0.573475 0.208034
Si Si2 0.678953 0.672999 0.633649
Si Si3 0.165167 0.667829 0.459324
Si Si4 0.178640 0.424577 0.709283
Si Si5 0.324909 0.669641 0.956058
Si Si6 0.825486 0.574548 0.886657
O O1 0.500000 0.565827 0.220343
O O2 0.750000 0.500000 0.204317
O O3 0.759965 0.612146 0.246965
O O4 0.693445 0.607201 0.161141
O O5 0.500000 0.674267 0.631707
O O6 0.738203 0.750000 0.644534
O O7 0.739672 0.648936 0.586763
O O8 0.737197 0.620810 0.669678
O O9 0.158880 0.750000 0.463070
O O10 0.250000 0.635345 0.500000
O O11 0.000000 0.635812 0.461354
O O12 0.250000 0.500000 0.704404
O O13 0.000000 0.429115 0.710764
O O14 0.500000 0.653325 0.958539
O O15 0.292287 0.750000 0.948093
O O16 0.252330 0.628468 0.917499
O O17 0.250000 0.644562 0.000000
O O18 0.750000 0.500000 0.891465
O O19 0.000000 0.566334 0.898195
#
# Coordination Sequence:
#
# PCOD8278232 Si02
#       6
#    16  16  16  16  16  16
#     4   9  17  30  48  70  96 125 157 194 235 278
#     4   8  15  28  45  65  89 118 151 187 227 271
#     4   8  13  23  40  61  84 109 141 181 224 270
#     4  10  18  29  48  69  91 121 156 191 227 275
#     4  10  21  37  56  77 103 135 169 203 241 289
#     4  10  20  34  54  78 103 130 163 205 248 289
#
# _framework density 17.773989
#
# number of rings (size 3 to 8) (size 9 to 14) (size 15 to 20)
#    0.000    2.833    0.000    4.000    0.000    3.333 
#    0.000    4.167    0.000    7.500    0.000    3.500 
#    0.000    0.000    0.000    0.000    0.000    0.000 
#
# Total GULP energy -594746.632467 kJ/mol
# GULP energy per Si atom -12390.554843 kJ/mol
# Density = 1.773353 g / cm^3
# Si number density = 17.773989 Si / 1000 Ang^3
#
#
#
# Elastic Constant Matrix: (Units=GPa)
#
#
# Indices 1 2 3 4 5 6 
#
# 1 95.3584 33.4917 67.7360 0.0000 0.0000 0.0000
# 2 33.4917 49.9645 61.7406 0.0000 0.0000 0.0000
# 3 67.7360 61.7406 185.9507 0.0000 0.0000 0.0000
# 4 0.0000 0.0000 0.0000 31.3633 0.0000 0.0000
# 5 0.0000 0.0000 0.0000 0.0000 32.4117 0.0000
# 6 0.0000 0.0000 0.0000 0.0000 0.0000 19.4005
#
#
#
# Elastic Compliance Matrix: (Units=1/GPa)
#
#
# Indices 1 2 3 4 5 6 
#
# 1 0.015020 -0.005608 -0.003609 0.000000 0.000000 0.000000
# 2 -0.005608 0.036033 -0.009921 0.000000 0.000000 0.000000
# 3 -0.003609 -0.009921 0.009987 0.000000 0.000000 0.000000
# 4 0.000000 0.000000 0.000000 0.031884 0.000000 0.000000
# 5 0.000000 0.000000 0.000000 0.000000 0.030853 0.000000
# 6 0.000000 0.000000 0.000000 0.000000 0.000000 0.051545
#
#
# Mechanical properties :
#
#
# Convention : Reuss Voigt Hill
#
# Bulk Modulus (GPa) = 43.93184 73.02337 58.47761
# Shear Modulus (GPa) = 22.60537 27.85546 25.23042
#
# Velocity S-wave (km/s) = 3.57013 3.96309 3.77173
# Velocity P-wave (km/s) = 6.46259 7.88131 7.20694
#
# Compressibility (1/GPa) = 0.02276253
#
# Stress axis : x y z
#
# Youngs Moduli (GPa) = 66.57654 27.75263 100.13475
#
# Poissons Ratio (x) = 0.15564 0.36142
# Poissons Ratio (y) = 0.37338 0.99343
# Poissons Ratio (z) = 0.24030 0.27533
#
# Static dielectric constant tensor:
#      x y z
#    x 3.334350 0.000000 0.000000 
#    y 0.000000 2.923400 0.000000 
#    z 0.000000 0.000000 4.067120 
# 
# 
# High freq. dielectric constant tensor:
#      x y z
#    x 1.684520 0.000000 0.000000 
#    y 0.000000 1.637610 0.000000 
#    z 0.000000 0.000000 1.713260 
# 
# From -- ./inp_files/43653.got.cif
#   From: 2010.03.12/outbox.cif.g09.slc.cpg/sg67_22_cif.got.tgz:43653.got - 2010.04.10 22:41:39.
