data_PCOD8278980
_publ_section_title
;
Structure prediction by ZEFSAII (Michael W. Deem and Ramdas Pophale) SiO2 
 PCOD8278980
Probable space group: C M M A
;
_chemical_formula_sum "Si O2"
_cell_formula_units_Z 88
_cell_length_a 24.723368
_cell_length_b 8.883396
_cell_length_c 21.924706
_cell_angle_alpha 90.000000
_cell_angle_beta 90.000000
_cell_angle_gamma 90.000000
_cell_volume 4815.267674
_symmetry_space_group_name_H-M "C M M A"
_symmetry_group_IT_number 67
_symmetry_cell_setting 'orthorhombic'
loop_
_space_group_symop_operation_xyz
x,y,z
-x,1/2-y,z
x,-y,-z
-x,1/2+y,-z
-x,-y,-z
x,1/2+y,-z
-x,y,z
x,1/2-y,z
1/2+x,1/2+y,z
1/2-x,-y,z
1/2+x,1/2-y,-z
1/2-x,y,-z
1/2-x,1/2-y,-z
1/2+x,y,-z
1/2-x,1/2+y,z
1/2+x,-y,z
loop_
_atom_site_type_symbol
_atom_site_label
_atom_site_fract_x
_atom_site_fract_y
_atom_site_fract_z
Si Si1 0.804685 0.073761 0.160547
Si Si2 0.000000 0.426166 0.565289
Si Si3 0.912220 0.927747 0.337847
Si Si4 0.194211 0.072382 0.299454
Si Si5 0.000000 0.070068 0.894277
Si Si6 0.500000 0.928397 0.756267
Si Si7 0.108762 0.429081 0.061615
O O1 0.796061 0.250000 0.157326
O O2 0.816613 0.021247 0.229650
O O3 0.853744 0.021454 0.117972
O O4 0.750000 0.000000 0.135494
O O5 0.000000 0.500000 0.500000
O O6 0.053804 0.473856 0.602235
O O7 0.000000 0.250000 0.556054
O O8 0.902014 0.750000 0.335159
O O9 0.946124 0.984079 0.278722
O O10 0.855010 0.012169 0.340390
O O11 0.198567 0.250000 0.306329
O O12 0.250000 0.000000 0.323349
O O13 0.000000 0.008934 0.824765
O O14 0.000000 0.250000 0.897329
O O15 0.948963 0.004415 0.928954
O O16 0.500000 0.750000 0.754816
O O17 0.103583 0.250000 0.055983
O O18 0.133822 0.500000 0.000000
#
# Coordination Sequence:
#
# PCOD8278980 Si02
#       7
#    16   8  16  16   8   8  16
#     4   9  20  36  54  75 100 128 162 204 253 303
#     4   9  19  34  54  79 110 145 179 211 248 287
#     4   9  17  32  52  77 107 138 170 207 247 293
#     4  10  19  32  51  77 105 135 167 204 251 303
#     4  11  21  34  53  75  96 125 162 202 250 305
#     4   8  16  30  51  76 101 128 160 199 251 306
#     4  11  23  38  52  69  94 126 163 206 252 303
#
# _framework density 18.275203999999999
#
# number of rings (size 3 to 8) (size 9 to 14) (size 15 to 20)
#    0.000    2.364    0.000    3.818    0.000    3.273 
#    0.000    4.091    0.000    0.545    0.000    3.818 
#    0.000    0.000    0.000    0.000    0.000    0.000 
#
# Total GULP energy -545649.681042 kJ/mol
# GULP energy per Si atom -12401.129115 kJ/mol
# Density = 1.823361 g / cm^3
# Si number density = 18.275204 Si / 1000 Ang^3
#
#
#
# Elastic Constant Matrix: (Units=GPa)
#
#
# Indices 1 2 3 4 5 6 
#
# 1 148.1746 48.5780 47.6372 0.0000 0.0000 0.0000
# 2 48.5780 58.7694 33.4438 0.0000 0.0000 0.0000
# 3 47.6372 33.4438 92.1627 0.0000 0.0000 0.0000
# 4 0.0000 0.0000 0.0000 27.1781 0.0000 0.0000
# 5 0.0000 0.0000 0.0000 0.0000 12.5439 0.0000
# 6 0.0000 0.0000 0.0000 0.0000 0.0000 32.2055
#
#
#
# Elastic Compliance Matrix: (Units=1/GPa)
#
#
# Indices 1 2 3 4 5 6 
#
# 1 0.009751 -0.006543 -0.002666 0.000000 0.000000 0.000000
# 2 -0.006543 0.025834 -0.005993 0.000000 0.000000 0.000000
# 3 -0.002666 -0.005993 0.014403 0.000000 0.000000 0.000000
# 4 0.000000 0.000000 0.000000 0.036794 0.000000 0.000000
# 5 0.000000 0.000000 0.000000 0.000000 0.079720 0.000000
# 6 0.000000 0.000000 0.000000 0.000000 0.000000 0.031051
#
#
# Mechanical properties :
#
#
# Convention : Reuss Voigt Hill
#
# Bulk Modulus (GPa) = 51.05918 62.04720 56.55319
# Shear Modulus (GPa) = 21.32338 25.68200 23.50269
#
# Velocity S-wave (km/s) = 3.41954 3.75279 3.59003
# Velocity P-wave (km/s) = 6.60233 7.26658 6.94240
#
# Compressibility (1/GPa) = 0.01958512
#
# Stress axis : x y z
#
# Youngs Moduli (GPa) = 102.55492 38.70828 69.43048
#
# Poissons Ratio (x) = 0.25327 0.18508
# Poissons Ratio (y) = 0.67101 0.41608
# Poissons Ratio (z) = 0.27339 0.23197
#
# Static dielectric constant tensor:
#      x y z
#    x 3.414350 0.000000 0.000000 
#    y 0.000000 3.201970 0.000000 
#    z 0.000000 0.000000 3.158790 
# 
# 
# High freq. dielectric constant tensor:
#      x y z
#    x 1.714490 0.000000 0.000000 
#    y 0.000000 1.702510 0.000000 
#    z 0.000000 0.000000 1.690860 
# 
# From -- ./inp_files/36972.got.cif
#   From: 2010.03.12/outbox.cif.g09.slc.cpg/sg67_19_cif.got.tgz:36972.got - 2010.04.10 22:41:39.
