data_PCOD8278954
_publ_section_title
;
Structure prediction by ZEFSAII (Michael W. Deem and Ramdas Pophale) SiO2 
 PCOD8278954
Probable space group: C M M A
;
_chemical_formula_sum "Si O2"
_cell_formula_units_Z 96
_cell_length_a 8.656263
_cell_length_b 19.877990
_cell_length_c 30.341354
_cell_angle_alpha 90.000000
_cell_angle_beta 90.000000
_cell_angle_gamma 90.000000
_cell_volume 5220.809759
_symmetry_space_group_name_H-M "C M M A"
_symmetry_group_IT_number 67
_symmetry_cell_setting 'orthorhombic'
loop_
_space_group_symop_operation_xyz
x,y,z
-x,1/2-y,z
x,-y,-z
-x,1/2+y,-z
-x,-y,-z
x,1/2+y,-z
-x,y,z
x,1/2-y,z
1/2+x,1/2+y,z
1/2-x,-y,z
1/2+x,1/2-y,-z
1/2-x,y,-z
1/2-x,1/2-y,-z
1/2+x,y,-z
1/2-x,1/2+y,z
1/2+x,-y,z
loop_
_atom_site_type_symbol
_atom_site_label
_atom_site_fract_x
_atom_site_fract_y
_atom_site_fract_z
Si Si1 0.683308 0.675794 0.287037
Si Si2 0.321653 0.828545 0.386021
Si Si3 0.682390 0.825967 0.954045
Si Si4 0.816236 0.427643 0.879095
Si Si5 0.819162 0.929368 0.453030
Si Si6 0.315908 0.427685 0.785490
O O1 0.500000 0.678545 0.284922
O O2 0.749927 0.750000 0.276077
O O3 0.732559 0.654170 0.336267
O O4 0.747950 0.623503 0.251328
O O5 0.500000 0.848373 0.393130
O O6 0.296426 0.750000 0.395880
O O7 0.215700 0.871048 0.418410
O O8 0.500000 0.828292 0.957430
O O9 0.740936 0.750000 0.944581
O O10 0.741309 0.873914 0.915038
O O11 0.750000 0.852973 0.000000
O O12 0.750000 0.500000 0.892719
O O13 0.748392 0.403604 0.832486
O O14 0.000000 0.432007 0.875872
O O15 0.750000 0.908299 0.500000
O O16 0.000000 0.938256 0.458477
O O17 0.750000 0.000000 0.436213
O O18 0.500000 0.430579 0.787311
O O19 0.250000 0.500000 0.772659
#
# Coordination Sequence:
#
# PCOD8278954 Si02
#       6
#    16  16  16  16  16  16
#     4   8  16  32  53  76 102 133 169 208 249 295
#     4   9  18  35  57  79 106 139 173 211 257 306
#     4   9  19  35  53  73  98 128 162 201 245 293
#     4  10  20  34  51  72 100 131 164 203 247 294
#     4  11  22  37  56  78 106 137 174 216 259 308
#     4  10  19  32  51  74 101 132 168 207 247 294
#
# _framework density 18.387951999999999
#
# number of rings (size 3 to 8) (size 9 to 14) (size 15 to 20)
#    0.000    2.500    0.000    5.000    0.000    3.667 
#    0.000    5.000    0.000    3.500    0.000    0.000 
#    0.000    0.000    0.000    0.000    0.000    0.000 
#
# Total GULP energy -595205.013715 kJ/mol
# GULP energy per Si atom -12400.104452 kJ/mol
# Density = 1.834610 g / cm^3
# Si number density = 18.387952 Si / 1000 Ang^3
#
#
#
# Elastic Constant Matrix: (Units=GPa)
#
#
# Indices 1 2 3 4 5 6 
#
# 1 78.0417 38.4611 43.5901 0.0000 0.0000 0.0000
# 2 38.4611 110.6785 102.1989 0.0000 0.0000 0.0000
# 3 43.5901 102.1989 150.6154 0.0000 0.0000 0.0000
# 4 0.0000 0.0000 0.0000 42.6856 0.0000 0.0000
# 5 0.0000 0.0000 0.0000 0.0000 25.4164 0.0000
# 6 0.0000 0.0000 0.0000 0.0000 0.0000 23.8944
#
#
#
# Elastic Compliance Matrix: (Units=1/GPa)
#
#
# Indices 1 2 3 4 5 6 
#
# 1 0.015744 -0.003384 -0.002260 0.000000 0.000000 0.000000
# 2 -0.003384 0.024921 -0.015931 0.000000 0.000000 0.000000
# 3 -0.002260 -0.015931 0.018103 0.000000 0.000000 0.000000
# 4 0.000000 0.000000 0.000000 0.023427 0.000000 0.000000
# 5 0.000000 0.000000 0.000000 0.000000 0.039345 0.000000
# 6 0.000000 0.000000 0.000000 0.000000 0.000000 0.041851
#
#
# Mechanical properties :
#
#
# Convention : Reuss Voigt Hill
#
# Bulk Modulus (GPa) = 64.02695 78.64843 71.33769
# Shear Modulus (GPa) = 23.61300 28.73832 26.17566
#
# Velocity S-wave (km/s) = 3.58740 3.95763 3.77705
# Velocity P-wave (km/s) = 7.21491 7.98425 7.60931
#
# Compressibility (1/GPa) = 0.01561842
#
# Stress axis : x y z
#
# Youngs Moduli (GPa) = 63.51689 40.12604 55.23805
#
# Poissons Ratio (x) = 0.13578 0.12486
# Poissons Ratio (y) = 0.21493 0.88000
# Poissons Ratio (z) = 0.14358 0.63925
#
# Static dielectric constant tensor:
#      x y z
#    x 3.217410 0.000000 0.000000 
#    y 0.000000 3.564820 0.000000 
#    z 0.000000 0.000000 3.535270 
# 
# 
# High freq. dielectric constant tensor:
#      x y z
#    x 1.702940 0.000000 0.000000 
#    y 0.000000 1.714610 0.000000 
#    z 0.000000 0.000000 1.719270 
# 
# From -- ./inp_files/43447.got.cif
#   From: 2010.03.12/outbox.cif.g09.slc.cpg/sg67_22_cif.got.tgz:43447.got - 2010.04.10 22:41:39.
