data_PCOD8278497
_publ_section_title
;
Structure prediction by ZEFSAII (Michael W. Deem and Ramdas Pophale) SiO2 
 PCOD8278497
Probable space group: C M M A
;
_chemical_formula_sum "Si O2"
_cell_formula_units_Z 96
_cell_length_a 17.101656
_cell_length_b 17.342914
_cell_length_c 16.908676
_cell_angle_alpha 90.000000
_cell_angle_beta 90.000000
_cell_angle_gamma 90.000000
_cell_volume 5014.987320
_symmetry_space_group_name_H-M "C M M A"
_symmetry_group_IT_number 67
_symmetry_cell_setting 'orthorhombic'
loop_
_space_group_symop_operation_xyz
x,y,z
-x,1/2-y,z
x,-y,-z
-x,1/2+y,-z
-x,-y,-z
x,1/2+y,-z
-x,y,z
x,1/2-y,z
1/2+x,1/2+y,z
1/2-x,-y,z
1/2+x,1/2-y,-z
1/2-x,y,-z
1/2-x,1/2-y,-z
1/2+x,y,-z
1/2-x,1/2+y,z
1/2+x,-y,z
loop_
_atom_site_type_symbol
_atom_site_label
_atom_site_fract_x
_atom_site_fract_y
_atom_site_fract_z
Si Si1 0.674904 0.662142 0.342342
Si Si2 0.639846 0.162368 0.336514
Si Si3 0.268368 0.161352 0.090881
Si Si4 0.410512 0.090519 0.174191
Si Si5 0.912319 0.659034 0.503860
Si Si6 0.177949 0.446496 0.205903
O O1 0.644672 0.750000 0.328588
O O2 0.767398 0.659033 0.335450
O O3 0.646191 0.630717 0.427451
O O4 0.641076 0.604010 0.276729
O O5 0.610015 0.250000 0.328403
O O6 0.603905 0.115452 0.264405
O O7 0.610710 0.123736 0.418613
O O8 0.255909 0.250000 0.114458
O O9 0.357186 0.138302 0.112828
O O10 0.206757 0.111112 0.138586
O O11 0.250000 0.146008 0.000000
O O12 0.500000 0.103993 0.149523
O O13 0.389881 0.999814 0.169169
O O14 0.903666 0.750000 0.495348
O O15 0.000000 0.633908 0.526552
O O16 0.250000 0.500000 0.235952
#
# Coordination Sequence:
#
# PCOD8278497 Si02
#       6
#    16  16  16  16  16  16
#     4  10  18  32  56  80 107 149 200 242 281 339
#     4  10  18  32  55  83 111 146 195 248 291 335
#     4  10  21  40  66  91 114 145 187 233 280 335
#     4  11  23  37  59  90 122 152 185 232 291 342
#     4   9  18  30  47  76 112 149 192 244 295 335
#     4  10  20  36  56  81 116 154 187 224 275 348
#
# _framework density 19.142620999999998
#
# number of rings (size 3 to 8) (size 9 to 14) (size 15 to 20)
#    0.000    2.000    3.333    2.000    0.000    7.667 
#    0.000    2.500    0.000    4.500    0.000    0.000 
#    0.000    0.000    0.000    0.000    0.000    0.000 
#
# Total GULP energy -595160.209264 kJ/mol
# GULP energy per Si atom -12399.171026 kJ/mol
# Density = 1.909905 g / cm^3
# Si number density = 19.142621 Si / 1000 Ang^3
#
#
#
# Elastic Constant Matrix: (Units=GPa)
#
#
# Indices 1 2 3 4 5 6 
#
# 1 74.1638 29.4334 41.9960 0.0000 0.0000 0.0000
# 2 29.4334 96.9391 64.2371 0.0000 0.0000 0.0000
# 3 41.9960 64.2371 122.8086 0.0000 0.0000 0.0000
# 4 0.0000 0.0000 0.0000 2.8438 0.0000 0.0000
# 5 0.0000 0.0000 0.0000 0.0000 12.0042 0.0000
# 6 0.0000 0.0000 0.0000 0.0000 0.0000 16.0286
#
#
#
# Elastic Compliance Matrix: (Units=1/GPa)
#
#
# Indices 1 2 3 4 5 6 
#
# 1 0.016971 -0.002001 -0.004757 0.000000 0.000000 0.000000
# 2 -0.002001 0.016024 -0.007697 0.000000 0.000000 0.000000
# 3 -0.004757 -0.007697 0.013796 0.000000 0.000000 0.000000
# 4 0.000000 0.000000 0.000000 0.351642 0.000000 0.000000
# 5 0.000000 0.000000 0.000000 0.000000 0.083304 0.000000
# 6 0.000000 0.000000 0.000000 0.000000 0.000000 0.062388
#
#
# Mechanical properties :
#
#
# Convention : Reuss Voigt Hill
#
# Bulk Modulus (GPa) = 55.92619 62.80493 59.36556
# Shear Modulus (GPa) = 8.63563 16.72499 12.68031
#
# Velocity S-wave (km/s) = 2.12626 2.95906 2.57653
# Velocity P-wave (km/s) = 5.94197 6.67494 6.31909
#
# Compressibility (1/GPa) = 0.01788071
#
# Stress axis : x y z
#
# Youngs Moduli (GPa) = 58.92255 62.40657 72.48596
#
# Poissons Ratio (x) = 0.12486 0.34482
# Poissons Ratio (y) = 0.11789 0.55796
# Poissons Ratio (z) = 0.28030 0.48037
#
# Static dielectric constant tensor:
#      x y z
#    x 3.415730 0.000000 0.000000 
#    y 0.000000 3.652130 0.000000 
#    z 0.000000 0.000000 3.590730 
# 
# 
# High freq. dielectric constant tensor:
#      x y z
#    x 1.727200 0.000000 0.000000 
#    y 0.000000 1.735510 0.000000 
#    z 0.000000 0.000000 1.745000 
# 
# From -- ./inp_files/34211.got.cif
#   From: 2010.03.12/outbox.cif.g09.slc.cpg/sg67_18_cif.got.tgz:34211.got - 2010.04.10 22:41:39.
