data_PCOD8278170
_publ_section_title
;
Structure prediction by ZEFSAII (Michael W. Deem and Ramdas Pophale) SiO2 
 PCOD8278170
Probable space group: C M M A
;
_chemical_formula_sum "Si O2"
_cell_formula_units_Z 104
_cell_length_a 27.618871
_cell_length_b 8.678451
_cell_length_c 24.212040
_cell_angle_alpha 90.000000
_cell_angle_beta 90.000000
_cell_angle_gamma 90.000000
_cell_volume 5803.360107
_symmetry_space_group_name_H-M "C M M A"
_symmetry_group_IT_number 67
_symmetry_cell_setting 'orthorhombic'
loop_
_space_group_symop_operation_xyz
x,y,z
-x,1/2-y,z
x,-y,-z
-x,1/2+y,-z
-x,-y,-z
x,1/2+y,-z
-x,y,z
x,1/2-y,z
1/2+x,1/2+y,z
1/2-x,-y,z
1/2+x,1/2-y,-z
1/2-x,y,-z
1/2-x,1/2-y,-z
1/2+x,y,-z
1/2-x,1/2+y,z
1/2+x,-y,z
loop_
_atom_site_type_symbol
_atom_site_label
_atom_site_fract_x
_atom_site_fract_y
_atom_site_fract_z
Si Si1 0.198219 0.932756 0.727850
Si Si2 0.642337 0.926919 0.168821
Si Si3 0.445752 0.926100 0.243227
Si Si4 0.888108 0.429639 0.663818
Si Si5 0.099602 0.933777 0.939850
Si Si6 0.000000 0.933661 0.060768
Si Si7 0.554755 0.432369 0.442369
O O1 0.200799 0.750000 0.729796
O O2 0.180436 0.002824 0.787769
O O3 0.250000 0.000000 0.712626
O O4 0.160583 0.979387 0.680058
O O5 0.656519 0.750000 0.167621
O O6 0.588103 0.953503 0.190718
O O7 0.641340 0.985264 0.104822
O O8 0.500000 0.966845 0.224523
O O9 0.441023 0.750000 0.264220
O O10 0.430613 0.038745 0.292495
O O11 0.875790 0.250000 0.662702
O O12 0.908086 0.488560 0.604862
O O13 0.095287 0.750000 0.944030
O O14 0.049718 0.000796 0.913859
O O15 0.113153 0.000000 0.000000
O O16 0.000000 0.750000 0.062314
O O17 0.000000 0.000000 0.000000
O O18 0.573871 0.500000 0.500000
O O19 0.500000 0.492099 0.429991
O O20 0.554695 0.250000 0.445716
#
# Coordination Sequence:
#
# PCOD8278170 Si02
#       7
#    16  16  16  16  16   8  16
#     4  10  20  37  58  79  98 122 160 204 255 310
#     4   8  17  31  49  70  93 124 160 196 241 297
#     4   9  17  29  46  68  95 130 170 206 244 293
#     4  10  19  32  50  74 104 135 167 206 253 297
#     4  10  18  30  47  65  90 126 162 199 239 284
#     4  10  18  28  40  60  88 122 162 198 229 272
#     4   9  18  31  48  73 107 146 182 211 240 279
#
# _framework density 17.920652
#
# number of rings (size 3 to 8) (size 9 to 14) (size 15 to 20)
#    0.000    2.615    0.000    4.385    1.077    2.154 
#    0.000    9.231    0.000    0.923    0.000    6.462 
#    0.000    0.000    0.000    0.000    0.000    0.000 
#
# Total GULP energy -644258.550583 kJ/mol
# GULP energy per Si atom -12389.587511 kJ/mol
# Density = 1.787986 g / cm^3
# Si number density = 17.920652 Si / 1000 Ang^3
#
#
#
# Elastic Constant Matrix: (Units=GPa)
#
#
# Indices 1 2 3 4 5 6 
#
# 1 95.6590 22.3071 47.5586 0.0000 0.0000 0.0000
# 2 22.3071 59.0927 30.4613 0.0000 0.0000 0.0000
# 3 47.5586 30.4613 117.5608 0.0000 0.0000 0.0000
# 4 0.0000 0.0000 0.0000 24.3895 0.0000 0.0000
# 5 0.0000 0.0000 0.0000 0.0000 19.4191 0.0000
# 6 0.0000 0.0000 0.0000 0.0000 0.0000 20.9945
#
#
#
# Elastic Compliance Matrix: (Units=1/GPa)
#
#
# Indices 1 2 3 4 5 6 
#
# 1 0.013428 -0.002618 -0.004754 0.000000 0.000000 0.000000
# 2 -0.002618 0.020042 -0.004134 0.000000 0.000000 0.000000
# 3 -0.004754 -0.004134 0.011500 0.000000 0.000000 0.000000
# 4 0.000000 0.000000 0.000000 0.041001 0.000000 0.000000
# 5 0.000000 0.000000 0.000000 0.000000 0.051496 0.000000
# 6 0.000000 0.000000 0.000000 0.000000 0.000000 0.047632
#
#
# Mechanical properties :
#
#
# Convention : Reuss Voigt Hill
#
# Bulk Modulus (GPa) = 45.54092 52.55182 49.04637
# Shear Modulus (GPa) = 23.20940 24.42631 23.81785
#
# Velocity S-wave (km/s) = 3.60268 3.69592 3.64960
# Velocity P-wave (km/s) = 6.54014 6.89939 6.72216
#
# Compressibility (1/GPa) = 0.02195828
#
# Stress axis : x y z
#
# Youngs Moduli (GPa) = 74.47252 49.89537 86.95338
#
# Poissons Ratio (x) = 0.13065 0.41335
# Poissons Ratio (y) = 0.19500 0.35945
# Poissons Ratio (z) = 0.35402 0.20626
#
# Static dielectric constant tensor:
#      x y z
#    x 4.534940 0.000000 0.000000 
#    y 0.000000 3.198700 0.000000 
#    z 0.000000 0.000000 3.491890 
# 
# 
# High freq. dielectric constant tensor:
#      x y z
#    x 1.667290 0.000000 0.000000 
#    y 0.000000 1.684180 0.000000 
#    z 0.000000 0.000000 1.691600 
# 
# From -- ./inp_files/42927.got.cif
#   From: 2010.03.12/outbox.cif.g09.slc.cpg/sg67_22_cif.got.tgz:42927.got - 2010.04.10 22:41:39.
