data_PCOD8278467
_publ_section_title
;
Structure prediction by ZEFSAII (Michael W. Deem and Ramdas Pophale) SiO2 
 PCOD8278467
Probable space group: C M M A
;
_chemical_formula_sum "Si O2"
_cell_formula_units_Z 80
_cell_length_a 16.323725
_cell_length_b 21.575049
_cell_length_c 11.679030
_cell_angle_alpha 90.000000
_cell_angle_beta 90.000000
_cell_angle_gamma 90.000000
_cell_volume 4113.181128
_symmetry_space_group_name_H-M "C M M A"
_symmetry_group_IT_number 67
_symmetry_cell_setting 'orthorhombic'
loop_
_space_group_symop_operation_xyz
x,y,z
-x,1/2-y,z
x,-y,-z
-x,1/2+y,-z
-x,-y,-z
x,1/2+y,-z
-x,y,z
x,1/2-y,z
1/2+x,1/2+y,z
1/2-x,-y,z
1/2+x,1/2-y,-z
1/2-x,y,-z
1/2-x,1/2-y,-z
1/2+x,y,-z
1/2-x,1/2+y,z
1/2+x,-y,z
loop_
_atom_site_type_symbol
_atom_site_label
_atom_site_fract_x
_atom_site_fract_y
_atom_site_fract_z
Si Si1 0.905507 0.819743 0.781836
Si Si2 0.902497 0.818945 0.528020
Si Si3 0.840477 0.474206 0.836534
Si Si4 0.906452 0.413321 0.039498
Si Si5 0.096832 0.445376 0.588361
O O1 0.894982 0.750000 0.823261
O O2 0.866299 0.829442 0.655869
O O3 0.863825 0.861739 0.879098
O O4 0.000000 0.839685 0.773326
O O5 0.873852 0.750000 0.482721
O O6 0.872215 0.877227 0.452727
O O7 0.000000 0.818730 0.534365
O O8 0.750000 0.500000 0.850830
O O9 0.905043 0.524005 0.885031
O O10 0.857367 0.457450 0.706238
O O11 0.853716 0.415674 0.921766
O O12 0.000000 0.396893 0.007724
O O13 0.121579 0.500000 0.500000
O O14 0.000000 0.445505 0.608149
#
# Coordination Sequence:
#
# PCOD8278467 Si02
#       5
#    16  16  16  16  16
#     4   8  14  26  48  78 104 126 159 204 251 298
#     4   8  14  26  46  74 107 136 163 205 258 303
#     4  11  22  34  48  69 102 135 164 204 257 307
#     4  10  18  32  54  75  96 126 167 211 252 296
#     4  10  19  32  52  77 101 130 174 218 252 296
#
# _framework density 19.449667000000002
#
# number of rings (size 3 to 8) (size 9 to 14) (size 15 to 20)
#    0.000    2.600    0.000    6.000    0.000    3.600 
#    0.000    1.000    0.000    8.400    0.000    4.200 
#    0.000    0.000    0.000    0.000    0.000    0.000 
#
# Total GULP energy -495632.104251 kJ/mol
# GULP energy per Si atom -12390.802606 kJ/mol
# Density = 1.940540 g / cm^3
# Si number density = 19.449667 Si / 1000 Ang^3
#
#
#
# Elastic Constant Matrix: (Units=GPa)
#
#
# Indices 1 2 3 4 5 6 
#
# 1 42.3684 18.8897 34.0692 0.0000 0.0000 0.0000
# 2 18.8897 104.2030 66.4757 0.0000 0.0000 0.0000
# 3 34.0692 66.4757 150.3092 0.0000 0.0000 0.0000
# 4 0.0000 0.0000 0.0000 43.6464 0.0000 0.0000
# 5 0.0000 0.0000 0.0000 0.0000 7.3033 0.0000
# 6 0.0000 0.0000 0.0000 0.0000 0.0000 6.2173
#
#
#
# Elastic Compliance Matrix: (Units=1/GPa)
#
#
# Indices 1 2 3 4 5 6 
#
# 1 0.029027 -0.001483 -0.005923 0.000000 0.000000 0.000000
# 2 -0.001483 0.013444 -0.005610 0.000000 0.000000 0.000000
# 3 -0.005923 -0.005610 0.010476 0.000000 0.000000 0.000000
# 4 0.000000 0.000000 0.000000 0.022911 0.000000 0.000000
# 5 0.000000 0.000000 0.000000 0.000000 0.136924 0.000000
# 6 0.000000 0.000000 0.000000 0.000000 0.000000 0.160842
#
#
# Mechanical properties :
#
#
# Convention : Reuss Voigt Hill
#
# Bulk Modulus (GPa) = 37.15376 59.52776 48.34076
# Shear Modulus (GPa) = 12.23605 23.26314 17.74959
#
# Velocity S-wave (km/s) = 2.51093 3.46217 3.02419
# Velocity P-wave (km/s) = 5.24885 6.83042 6.09119
#
# Compressibility (1/GPa) = 0.02691517
#
# Stress axis : x y z
#
# Youngs Moduli (GPa) = 34.45095 74.38176 95.45227
#
# Poissons Ratio (x) = 0.11032 0.56539
# Poissons Ratio (y) = 0.05110 0.53545
# Poissons Ratio (z) = 0.20406 0.41725
#
# Static dielectric constant tensor:
#      x y z
#    x 3.022640 0.000000 0.000000 
#    y 0.000000 3.828570 0.000000 
#    z 0.000000 0.000000 3.716810 
# 
# 
# High freq. dielectric constant tensor:
#      x y z
#    x 1.711470 0.000000 0.000000 
#    y 0.000000 1.755180 0.000000 
#    z 0.000000 0.000000 1.760050 
# 
# From -- ./inp_files/17959.got.cif
#   From: 2010.03.12/outbox.cif.g09.slc.cpg/sg67_9_cif.got.tgz:17959.got - 2010.04.10 22:41:39.
