data_PCOD8278547
_publ_section_title
;
Structure prediction by ZEFSAII (Michael W. Deem and Ramdas Pophale) SiO2 
 PCOD8278547
Probable space group: C M M A
;
_chemical_formula_sum "Si O2"
_cell_formula_units_Z 80
_cell_length_a 16.140906
_cell_length_b 23.142232
_cell_length_c 10.187246
_cell_angle_alpha 90.000000
_cell_angle_beta 90.000000
_cell_angle_gamma 90.000000
_cell_volume 3805.309146
_symmetry_space_group_name_H-M "C M M A"
_symmetry_group_IT_number 67
_symmetry_cell_setting 'orthorhombic'
loop_
_space_group_symop_operation_xyz
x,y,z
-x,1/2-y,z
x,-y,-z
-x,1/2+y,-z
-x,-y,-z
x,1/2+y,-z
-x,y,z
x,1/2-y,z
1/2+x,1/2+y,z
1/2-x,-y,z
1/2+x,1/2-y,-z
1/2-x,y,-z
1/2-x,1/2-y,-z
1/2+x,y,-z
1/2-x,1/2+y,z
1/2+x,-y,z
loop_
_atom_site_type_symbol
_atom_site_label
_atom_site_fract_x
_atom_site_fract_y
_atom_site_fract_z
Si Si1 0.152426 0.871706 0.012733
Si Si2 0.598306 0.424470 0.273543
Si Si3 0.160591 0.750000 0.929727
Si Si4 0.902374 0.750000 0.645600
Si Si5 0.902413 0.372803 0.456826
Si Si6 0.597472 0.448136 0.780049
O O1 0.126717 0.880847 0.161734
O O2 0.250000 0.870462 0.000000
O O3 0.114251 0.809182 0.972470
O O4 0.117778 0.923438 0.923333
O O5 0.500000 0.426648 0.280033
O O6 0.635508 0.399794 0.410002
O O7 0.635291 0.487945 0.241503
O O8 0.158555 0.750000 0.771225
O O9 0.250000 0.750000 0.000000
O O10 0.880757 0.694757 0.555935
O O11 0.000000 0.750000 0.688535
O O12 0.864421 0.406416 0.331564
O O13 0.000000 0.382238 0.459050
O O14 0.500000 0.452059 0.765247
#
# Coordination Sequence:
#
# PCOD8278547 Si02
#       6
#    16  16   8   8  16  16
#     4  11  23  38  57  80 114 150 193 237 281 330
#     4  10  21  36  56  86 117 145 183 233 289 342
#     4  10  22  39  58  78 112 153 192 230 278 341
#     4  10  18  33  62  91 113 147 198 242 284 342
#     4   9  18  33  56  85 114 144 183 234 284 334
#     4  10  19  35  59  83 112 152 190 226 280 349
#
# _framework density 21.023258999999999
#
# number of rings (size 3 to 8) (size 9 to 14) (size 15 to 20)
#    0.000    2.000    2.000    1.800    0.000    7.200 
#    0.000    2.000    0.000    4.800    0.000    0.000 
#    0.000    0.000    0.000    0.000    0.000    0.000 
#
# Total GULP energy -495900.168249 kJ/mol
# GULP energy per Si atom -12397.504206 kJ/mol
# Density = 2.097541 g / cm^3
# Si number density = 21.023259 Si / 1000 Ang^3
#
#
#
# Elastic Constant Matrix: (Units=GPa)
#
#
# Indices 1 2 3 4 5 6 
#
# 1 15.7631 14.7277 11.5564 0.0000 0.0000 0.0000
# 2 14.7277 156.0659 48.0776 0.0000 0.0000 0.0000
# 3 11.5564 48.0776 134.2501 0.0000 0.0000 0.0000
# 4 0.0000 0.0000 0.0000 44.7367 0.0000 0.0000
# 5 0.0000 0.0000 0.0000 0.0000 15.5867 0.0000
# 6 0.0000 0.0000 0.0000 0.0000 0.0000 17.7838
#
#
#
# Elastic Compliance Matrix: (Units=1/GPa)
#
#
# Indices 1 2 3 4 5 6 
#
# 1 0.071629 -0.005463 -0.004210 0.000000 0.000000 0.000000
# 2 -0.005463 0.007619 -0.002258 0.000000 0.000000 0.000000
# 3 -0.004210 -0.002258 0.008620 0.000000 0.000000 0.000000
# 4 0.000000 0.000000 0.000000 0.022353 0.000000 0.000000
# 5 0.000000 0.000000 0.000000 0.000000 0.064157 0.000000
# 6 0.000000 0.000000 0.000000 0.000000 0.000000 0.056231
#
#
# Mechanical properties :
#
#
# Convention : Reuss Voigt Hill
#
# Bulk Modulus (GPa) = 15.62333 50.53362 33.07848
# Shear Modulus (GPa) = 18.12868 31.06925 24.59896
#
# Velocity S-wave (km/s) = 2.93971 3.84845 3.42436
# Velocity P-wave (km/s) = 4.35547 6.62093 5.60387
#
# Compressibility (1/GPa) = 0.06400686
#
# Stress axis : x y z
#
# Youngs Moduli (GPa) = 13.96075 131.25578 116.01128
#
# Poissons Ratio (x) = 0.71702 0.48836
# Poissons Ratio (y) = 0.07626 0.26197
# Poissons Ratio (z) = 0.05877 0.29640
#
# Static dielectric constant tensor:
#      x y z
#    x 3.349190 0.000000 0.000000 
#    y 0.000000 4.446550 0.000000 
#    z 0.000000 0.000000 3.707940 
# 
# 
# High freq. dielectric constant tensor:
#      x y z
#    x 1.777540 0.000000 0.000000 
#    y 0.000000 1.845500 0.000000 
#    z 0.000000 0.000000 1.830940 
# 
# From -- ./inp_files/11122.got.cif
#   From: 2010.03.12/outbox.cif.g09.slc.cpg/sg67_6_cif.got.tgz:11122.got - 2010.04.10 22:41:39.
