data_PCOD8278419
_publ_section_title
;
Structure prediction by ZEFSAII (Michael W. Deem and Ramdas Pophale) SiO2 
 PCOD8278419
Probable space group: C M M A
;
_chemical_formula_sum "Si O2"
_cell_formula_units_Z 112
_cell_length_a 29.847399
_cell_length_b 14.298357
_cell_length_c 11.815348
_cell_angle_alpha 90.000000
_cell_angle_beta 90.000000
_cell_angle_gamma 90.000000
_cell_volume 5042.421491
_symmetry_space_group_name_H-M "C M M A"
_symmetry_group_IT_number 67
_symmetry_cell_setting 'orthorhombic'
loop_
_space_group_symop_operation_xyz
x,y,z
-x,1/2-y,z
x,-y,-z
-x,1/2+y,-z
-x,-y,-z
x,1/2+y,-z
-x,y,z
x,1/2-y,z
1/2+x,1/2+y,z
1/2-x,-y,z
1/2+x,1/2-y,-z
1/2-x,y,-z
1/2-x,1/2-y,-z
1/2+x,y,-z
1/2-x,1/2+y,z
1/2+x,-y,z
loop_
_atom_site_type_symbol
_atom_site_label
_atom_site_fract_x
_atom_site_fract_y
_atom_site_fract_z
Si Si1 0.049895 0.034395 0.284242
Si Si2 0.418757 0.357716 0.925548
Si Si3 0.644016 0.516769 0.369880
Si Si4 0.717134 0.358822 0.751178
Si Si5 0.179303 0.142993 0.023630
Si Si6 0.317333 0.859969 0.771863
Si Si7 0.949464 0.851771 0.164387
O O1 0.051865 0.084268 0.162641
O O2 0.093536 0.062134 0.358743
O O3 0.000000 0.057478 0.337351
O O4 0.054038 0.922826 0.268397
O O5 0.433572 0.250000 0.914623
O O6 0.366180 0.372220 0.904069
O O7 0.424565 0.392863 0.054439
O O8 0.653822 0.500000 0.500000
O O9 0.682641 0.585914 0.326973
O O10 0.646801 0.418738 0.301070
O O11 0.704313 0.250000 0.740411
O O12 0.715992 0.390118 0.884468
O O13 0.768502 0.377188 0.715650
O O14 0.187533 0.250000 0.992173
O O15 0.180749 0.095270 0.899700
O O16 0.330195 0.750000 0.767820
O O17 0.929200 0.750000 0.199895
O O18 0.000000 0.838605 0.125381
#
# Coordination Sequence:
#
# PCOD8278419 Si02
#       7
#    16  16  16  16  16  16  16
#     4  11  23  39  60  83 113 158 209 259 309 357
#     4  10  18  31  55  88 126 161 192 233 292 367
#     4  12  27  44  62  86 119 162 216 267 307 357
#     4  10  21  41  66  94 128 162 197 244 307 370
#     4   9  17  33  60  94 130 160 188 232 296 366
#     4  10  22  40  66  97 127 160 199 246 302 371
#     4   9  18  32  52  82 117 151 190 239 296 360
#
# _framework density 22.211549999999999
#
# number of rings (size 3 to 8) (size 9 to 14) (size 15 to 20)
#    0.000    1.857    1.429    2.571    0.000    8.000 
#    0.000    2.857    0.000    0.000    0.000    4.000 
#    0.000    0.000    0.000    0.000    0.000    0.000 
#
# Total GULP energy -693901.245330 kJ/mol
# GULP energy per Si atom -12391.093667 kJ/mol
# Density = 2.216100 g / cm^3
# Si number density = 22.211550 Si / 1000 Ang^3
#
#
#
# Elastic Constant Matrix: (Units=GPa)
#
#
# Indices 1 2 3 4 5 6 
#
# 1 123.7519 20.1153 29.8318 0.0000 0.0000 0.0000
# 2 20.1153 50.7302 19.1289 0.0000 0.0000 0.0000
# 3 29.8318 19.1289 85.3157 0.0000 0.0000 0.0000
# 4 0.0000 0.0000 0.0000 24.4591 0.0000 0.0000
# 5 0.0000 0.0000 0.0000 0.0000 17.2741 0.0000
# 6 0.0000 0.0000 0.0000 0.0000 0.0000 25.9951
#
#
#
# Elastic Compliance Matrix: (Units=1/GPa)
#
#
# Indices 1 2 3 4 5 6 
#
# 1 0.009138 -0.002642 -0.002603 0.000000 0.000000 0.000000
# 2 -0.002642 0.022296 -0.004075 0.000000 0.000000 0.000000
# 3 -0.002603 -0.004075 0.013545 0.000000 0.000000 0.000000
# 4 0.000000 0.000000 0.000000 0.040885 0.000000 0.000000
# 5 0.000000 0.000000 0.000000 0.000000 0.057890 0.000000
# 6 0.000000 0.000000 0.000000 0.000000 0.000000 0.038469
#
#
# Mechanical properties :
#
#
# Convention : Reuss Voigt Hill
#
# Bulk Modulus (GPa) = 37.96639 44.21663 41.09151
# Shear Modulus (GPa) = 23.85019 26.26043 25.05531
#
# Velocity S-wave (km/s) = 3.28040 3.44217 3.36226
# Velocity P-wave (km/s) = 5.61055 5.97899 5.79770
#
# Compressibility (1/GPa) = 0.02633909
#
# Stress axis : x y z
#
# Youngs Moduli (GPa) = 109.43899 44.85042 73.82786
#
# Poissons Ratio (x) = 0.11848 0.19216
# Poissons Ratio (y) = 0.28911 0.30088
# Poissons Ratio (z) = 0.28484 0.18278
#
# Static dielectric constant tensor:
#      x y z
#    x 4.229620 0.000000 0.000000 
#    y 0.000000 3.953050 0.000000 
#    z 0.000000 0.000000 3.505370 
# 
# 
# High freq. dielectric constant tensor:
#      x y z
#    x 1.894540 0.000000 0.000000 
#    y 0.000000 1.868980 0.000000 
#    z 0.000000 0.000000 1.822740 
# 
# From -- ./inp_files/23833.got.cif
#   From: 2010.03.12/outbox.cif.g09.slc.cpg/sg67_12_cif.got.tgz:23833.got - 2010.04.10 22:41:39.
