data_PCOD8278942
_publ_section_title
;
Structure prediction by ZEFSAII (Michael W. Deem and Ramdas Pophale) SiO2 
 PCOD8278942
Probable space group: C M M A
;
_chemical_formula_sum "Si O2"
_cell_formula_units_Z 96
_cell_length_a 14.413149
_cell_length_b 22.000950
_cell_length_c 14.499898
_cell_angle_alpha 90.000000
_cell_angle_beta 90.000000
_cell_angle_gamma 90.000000
_cell_volume 4597.960728
_symmetry_space_group_name_H-M "C M M A"
_symmetry_group_IT_number 67
_symmetry_cell_setting 'orthorhombic'
loop_
_space_group_symop_operation_xyz
x,y,z
-x,1/2-y,z
x,-y,-z
-x,1/2+y,-z
-x,-y,-z
x,1/2+y,-z
-x,y,z
x,1/2-y,z
1/2+x,1/2+y,z
1/2-x,-y,z
1/2+x,1/2-y,-z
1/2-x,y,-z
1/2-x,1/2-y,-z
1/2+x,y,-z
1/2-x,1/2+y,z
1/2+x,-y,z
loop_
_atom_site_type_symbol
_atom_site_label
_atom_site_fract_x
_atom_site_fract_y
_atom_site_fract_z
Si Si1 0.890305 0.919125 0.405501
Si Si2 0.607448 0.182685 0.264047
Si Si3 0.393880 0.091205 0.798891
Si Si4 0.101848 0.529538 0.098707
Si Si5 0.608555 0.445375 0.603982
Si Si6 0.770314 0.144043 0.897711
O O1 0.850193 0.867819 0.335141
O O2 0.854949 0.910960 0.511839
O O3 0.000000 0.912587 0.399221
O O4 0.852044 0.986169 0.378967
O O5 0.500000 0.168764 0.241451
O O6 0.617505 0.250000 0.308356
O O7 0.663937 0.184416 0.167246
O O8 0.500000 0.109070 0.819953
O O9 0.368954 0.097103 0.690764
O O10 0.331172 0.138673 0.853184
O O11 0.374810 0.021471 0.826231
O O12 0.182732 0.578250 0.097284
O O13 0.000000 0.558365 0.121633
O O14 0.097509 0.500000 0.000000
O O15 0.500000 0.456097 0.591192
O O16 0.750000 0.171380 0.000000
#
# Coordination Sequence:
#
# PCOD8278942 Si02
#       6
#    16  16  16  16  16  16
#     4   8  14  29  54  81 109 141 178 225 282 345
#     4  10  22  40  61  84 108 141 191 247 296 340
#     4  10  20  32  49  77 114 150 183 225 277 350
#     4  10  19  32  50  77 115 153 190 229 284 350
#     4   8  14  27  51  82 113 145 176 213 278 352
#     4  12  23  34  54  77 110 150 193 238 286 337
#
# _framework density 20.878820999999999
#
# number of rings (size 3 to 8) (size 9 to 14) (size 15 to 20)
#    0.000    2.333    1.667    3.000    0.000    3.667 
#    0.000    0.833    0.000    4.500    0.000    2.333 
#    0.000    0.000    0.000    0.000    0.000    0.000 
#
# Total GULP energy -594706.940766 kJ/mol
# GULP energy per Si atom -12389.727933 kJ/mol
# Density = 2.083130 g / cm^3
# Si number density = 20.878821 Si / 1000 Ang^3
#
#
#
# Elastic Constant Matrix: (Units=GPa)
#
#
# Indices 1 2 3 4 5 6 
#
# 1 71.2241 25.7675 32.2823 0.0000 0.0000 0.0000
# 2 25.7675 67.6075 41.3010 0.0000 0.0000 0.0000
# 3 32.2823 41.3010 150.5326 0.0000 0.0000 0.0000
# 4 0.0000 0.0000 0.0000 17.3130 0.0000 0.0000
# 5 0.0000 0.0000 0.0000 0.0000 29.2025 0.0000
# 6 0.0000 0.0000 0.0000 0.0000 0.0000 13.2910
#
#
#
# Elastic Compliance Matrix: (Units=1/GPa)
#
#
# Indices 1 2 3 4 5 6 
#
# 1 0.016886 -0.005074 -0.002229 0.000000 0.000000 0.000000
# 2 -0.005074 0.019294 -0.004206 0.000000 0.000000 0.000000
# 3 -0.002229 -0.004206 0.008275 0.000000 0.000000 0.000000
# 4 0.000000 0.000000 0.000000 0.057760 0.000000 0.000000
# 5 0.000000 0.000000 0.000000 0.000000 0.034244 0.000000
# 6 0.000000 0.000000 0.000000 0.000000 0.000000 0.075239
#
#
# Mechanical properties :
#
#
# Convention : Reuss Voigt Hill
#
# Bulk Modulus (GPa) = 46.64637 54.22955 50.43796
# Shear Modulus (GPa) = 20.67293 24.62885 22.65089
#
# Velocity S-wave (km/s) = 3.15006 3.43827 3.29732
# Velocity P-wave (km/s) = 5.96829 6.46468 6.22144
#
# Compressibility (1/GPa) = 0.02143790
#
# Stress axis : x y z
#
# Youngs Moduli (GPa) = 59.21964 51.82871 120.84618
#
# Poissons Ratio (x) = 0.26299 0.26938
# Poissons Ratio (y) = 0.30049 0.50822
# Poissons Ratio (z) = 0.13201 0.21797
#
# Static dielectric constant tensor:
#      x y z
#    x 3.771350 0.000000 0.000000 
#    y 0.000000 1.856790 0.000000 
#    z 0.000000 0.000000 4.195750 
# 
# 
# High freq. dielectric constant tensor:
#      x y z
#    x 1.813910 0.000000 0.000000 
#    y 0.000000 1.757770 0.000000 
#    z 0.000000 0.000000 1.833230 
# 
# From -- ./inp_files/27185.got.cif
#   From: 2010.03.12/outbox.cif.g09.slc.cpg/sg67_14_cif.got.tgz:27185.got - 2010.04.10 22:41:39.
