data_PCOD8278631
_publ_section_title
;
Structure prediction by ZEFSAII (Michael W. Deem and Ramdas Pophale) SiO2 
 PCOD8278631
Probable space group: C M M A
;
_chemical_formula_sum "Si O2"
_cell_formula_units_Z 64
_cell_length_a 19.692840
_cell_length_b 13.725101
_cell_length_c 12.636679
_cell_angle_alpha 90.000000
_cell_angle_beta 90.000000
_cell_angle_gamma 90.000000
_cell_volume 3415.520175
_symmetry_space_group_name_H-M "C M M A"
_symmetry_group_IT_number 67
_symmetry_cell_setting 'orthorhombic'
loop_
_space_group_symop_operation_xyz
x,y,z
-x,1/2-y,z
x,-y,-z
-x,1/2+y,-z
-x,-y,-z
x,1/2+y,-z
-x,y,z
x,1/2-y,z
1/2+x,1/2+y,z
1/2-x,-y,z
1/2+x,1/2-y,-z
1/2-x,y,-z
1/2-x,1/2-y,-z
1/2+x,y,-z
1/2-x,1/2+y,z
1/2+x,-y,z
loop_
_atom_site_type_symbol
_atom_site_label
_atom_site_fract_x
_atom_site_fract_y
_atom_site_fract_z
Si Si1 0.358950 0.975621 0.615340
Si Si2 0.732579 0.139490 0.677208
Si Si3 0.706787 0.139552 0.093435
Si Si4 0.423876 0.635886 0.796436
O O1 0.293456 0.904328 0.605795
O O2 0.415922 0.924513 0.687527
O O3 0.389433 0.000000 0.500000
O O4 0.336343 0.078804 0.664854
O O5 0.719531 0.250000 0.642260
O O6 0.750989 0.130200 0.799861
O O7 0.695944 0.250000 0.056773
O O8 0.630781 0.096969 0.116334
O O9 0.750000 0.085642 0.000000
O O10 0.500000 0.620549 0.840216
O O11 0.409260 0.750000 0.771200
#
# Coordination Sequence:
#
# PCOD8278631 Si02
#       4
#    16  16  16  16
#     4  10  19  29  45  69  96 127 164 206 246 288
#     4   9  17  29  45  68  97 125 158 205 255 296
#     4   8  14  27  49  73  94 120 157 200 246 295
#     4   9  18  33  51  71  97 128 164 207 250 295
#
# _framework density 18.737994
#
# number of rings (size 3 to 8) (size 9 to 14) (size 15 to 20)
#    0.000    3.000    0.000    3.750    0.000    3.500 
#    0.000   10.000    0.000    3.750    0.000    3.500 
#    0.000    0.000    0.000    0.000    0.000    0.000 
#
# Total GULP energy -396514.422419 kJ/mol
# GULP energy per Si atom -12391.075701 kJ/mol
# Density = 1.869535 g / cm^3
# Si number density = 18.737994 Si / 1000 Ang^3
#
#
#
# Elastic Constant Matrix: (Units=GPa)
#
#
# Indices 1 2 3 4 5 6 
#
# 1 111.7786 30.2759 58.4239 0.0000 0.0000 0.0000
# 2 30.2759 93.1988 15.2796 0.0000 0.0000 0.0000
# 3 58.4239 15.2796 95.3228 0.0000 0.0000 0.0000
# 4 0.0000 0.0000 0.0000 12.2663 0.0000 0.0000
# 5 0.0000 0.0000 0.0000 0.0000 20.1157 0.0000
# 6 0.0000 0.0000 0.0000 0.0000 0.0000 15.4791
#
#
#
# Elastic Compliance Matrix: (Units=1/GPa)
#
#
# Indices 1 2 3 4 5 6 
#
# 1 0.014054 -0.003238 -0.008095 0.000000 0.000000 0.000000
# 2 -0.003238 0.011766 0.000099 0.000000 0.000000 0.000000
# 3 -0.008095 0.000099 0.015436 0.000000 0.000000 0.000000
# 4 0.000000 0.000000 0.000000 0.081524 0.000000 0.000000
# 5 0.000000 0.000000 0.000000 0.000000 0.049712 0.000000
# 6 0.000000 0.000000 0.000000 0.000000 0.000000 0.064603
#
#
# Mechanical properties :
#
#
# Convention : Reuss Voigt Hill
#
# Bulk Modulus (GPa) = 53.22749 56.47322 54.85035
# Shear Modulus (GPa) = 18.80920 22.66028 20.73474
#
# Velocity S-wave (km/s) = 3.17172 3.48130 3.33011
# Velocity P-wave (km/s) = 6.47155 6.80904 6.64244
#
# Compressibility (1/GPa) = 0.01878729
#
# Stress axis : x y z
#
# Youngs Moduli (GPa) = 71.15185 84.99383 64.78258
#
# Poissons Ratio (x) = 0.27525 0.52441
# Poissons Ratio (y) = 0.23042 -0.00641
# Poissons Ratio (z) = 0.57597 -0.00841
#
# Static dielectric constant tensor:
#      x y z
#    x 3.251390 0.000000 0.000000 
#    y 0.000000 3.548310 0.000000 
#    z 0.000000 0.000000 3.392220 
# 
# 
# High freq. dielectric constant tensor:
#      x y z
#    x 1.694020 0.000000 0.000000 
#    y 0.000000 1.725710 0.000000 
#    z 0.000000 0.000000 1.715790 
# 
# From -- ./inp_files/17639.got.cif
#   From: 2010.03.12/outbox.cif.g09.slc.cpg/sg67_9_cif.got.tgz:17639.got - 2010.04.10 22:41:39.
