data_PCOD8278191
_publ_section_title
;
Structure prediction by ZEFSAII (Michael W. Deem and Ramdas Pophale) SiO2 
 PCOD8278191
Probable space group: C M M A
;
_chemical_formula_sum "Si O2"
_cell_formula_units_Z 112
_cell_length_a 22.747084
_cell_length_b 25.406911
_cell_length_c 11.514862
_cell_angle_alpha 90.000000
_cell_angle_beta 90.000000
_cell_angle_gamma 90.000000
_cell_volume 6654.820337
_symmetry_space_group_name_H-M "C M M A"
_symmetry_group_IT_number 67
_symmetry_cell_setting 'orthorhombic'
loop_
_space_group_symop_operation_xyz
x,y,z
-x,1/2-y,z
x,-y,-z
-x,1/2+y,-z
-x,-y,-z
x,1/2+y,-z
-x,y,z
x,1/2-y,z
1/2+x,1/2+y,z
1/2-x,-y,z
1/2+x,1/2-y,-z
1/2-x,y,-z
1/2-x,1/2-y,-z
1/2+x,y,-z
1/2-x,1/2+y,z
1/2+x,-y,z
loop_
_atom_site_type_symbol
_atom_site_label
_atom_site_fract_x
_atom_site_fract_y
_atom_site_fract_z
Si Si1 0.136830 0.123347 0.812890
Si Si2 0.314453 0.310439 0.999797
Si Si3 0.633130 0.879297 0.185739
Si Si4 0.750708 0.561216 0.859974
Si Si5 0.432299 0.190023 0.364126
Si Si6 0.932284 0.690086 0.636365
Si Si7 0.568683 0.441463 0.000618
O O1 0.195083 0.088134 0.795972
O O2 0.107594 0.144770 0.695124
O O3 0.153121 0.176487 0.881023
O O4 0.091651 0.089337 0.887714
O O5 0.305912 0.250000 0.984151
O O6 0.352836 0.329313 0.892876
O O7 0.250000 0.338140 0.000000
O O8 0.691632 0.914191 0.200974
O O9 0.607795 0.854848 0.304184
O O10 0.584373 0.914350 0.121207
O O11 0.750000 0.500000 0.829244
O O12 0.750000 0.569665 0.000000
O O13 0.500000 0.181259 0.327389
O O14 0.413618 0.250000 0.330680
O O15 0.424253 0.181554 0.500241
O O16 0.913355 0.750000 0.669759
O O17 0.000000 0.681518 0.673093
O O18 0.500000 0.444742 0.013798
O O19 0.596776 0.500000 0.000000
#
# Coordination Sequence:
#
# PCOD8278191 Si02
#       7
#    16  16  16  16  16  16  16
#     4  11  18  32  51  76 100 138 171 213 250 312
#     4  10  18  28  43  71 106 133 158 195 249 304
#     4  11  18  32  51  76 100 138 171 213 250 312
#     4  11  20  34  53  76 103 139 178 210 256 312
#     4   9  19  36  56  77 103 137 175 213 255 307
#     4   9  19  36  56  77 103 137 175 213 255 307
#     4  10  20  31  48  76 105 131 167 216 262 305
#
# _framework density 16.829906000000001
#
# number of rings (size 3 to 8) (size 9 to 14) (size 15 to 20)
#    0.000    1.857    4.286    3.429    0.000    0.000 
#    0.000    0.714    0.000   12.857    0.000   10.000 
#    0.000    0.000    0.000    0.000    0.000    0.000 
#
# Total GULP energy -694058.280693 kJ/mol
# GULP energy per Si atom -12393.897870 kJ/mol
# Density = 1.679160 g / cm^3
# Si number density = 16.829906 Si / 1000 Ang^3
#
#
#
# Elastic Constant Matrix: (Units=GPa)
#
#
# Indices 1 2 3 4 5 6 
#
# 1 84.3413 48.6483 38.1622 0.0000 0.0000 0.0000
# 2 48.6483 112.5756 45.9771 0.0000 0.0000 0.0000
# 3 38.1622 45.9771 68.4271 0.0000 0.0000 0.0000
# 4 0.0000 0.0000 0.0000 36.4773 0.0000 0.0000
# 5 0.0000 0.0000 0.0000 0.0000 -25.5630 0.0000
# 6 0.0000 0.0000 0.0000 0.0000 0.0000 22.8315
#
#
#
# Elastic Compliance Matrix: (Units=1/GPa)
#
#
# Indices 1 2 3 4 5 6 
#
# 1 0.017675 -0.004978 -0.006512 0.000000 0.000000 0.000000
# 2 -0.004978 0.013645 -0.006392 0.000000 0.000000 0.000000
# 3 -0.006512 -0.006392 0.022541 0.000000 0.000000 0.000000
# 4 0.000000 0.000000 0.000000 0.027414 0.000000 0.000000
# 5 0.000000 0.000000 0.000000 0.000000 -0.039119 0.000000
# 6 0.000000 0.000000 0.000000 0.000000 0.000000 0.043799
#
#
# Mechanical properties :
#
#
# Convention : Reuss Voigt Hill
#
# Bulk Modulus (GPa) = 55.26198 58.99100 57.12649
# Shear Modulus (GPa) = 39.13875 15.58626 27.36251
#
# Velocity S-wave (km/s) = 4.82763 3.04650 4.03653
# Velocity P-wave (km/s) = 7.99884 6.89219 7.46605
#
# Compressibility (1/GPa) = 0.01809562
#
# Stress axis : x y z
#
# Youngs Moduli (GPa) = 56.57813 73.28906 44.36428
#
# Poissons Ratio (x) = 0.36485 0.28892
# Poissons Ratio (y) = 0.28166 0.28356
# Poissons Ratio (z) = 0.36846 0.46844
#
# Static dielectric constant tensor:
#      x y z
#    x 3.266320 0.000000 0.000000 
#    y 0.000000 3.319230 0.000000 
#    z 0.000000 0.000000 2.809660 
# 
# 
# High freq. dielectric constant tensor:
#      x y z
#    x 1.657090 0.000000 0.000000 
#    y 0.000000 1.663920 0.000000 
#    z 0.000000 0.000000 1.612770 
# 
# From -- ./inp_files/21253.got.cif
#   From: 2010.03.12/outbox.cif.g09.slc.cpg/sg67_11_cif.got.tgz:21253.got - 2010.04.10 22:41:39.
