data_PCOD8278344
_publ_section_title
;
Structure prediction by ZEFSAII (Michael W. Deem and Ramdas Pophale) SiO2 
 PCOD8278344
Probable space group: C M M A
;
_chemical_formula_sum "Si O2"
_cell_formula_units_Z 56
_cell_length_a 8.834744
_cell_length_b 20.677225
_cell_length_c 14.439613
_cell_angle_alpha 90.000000
_cell_angle_beta 90.000000
_cell_angle_gamma 90.000000
_cell_volume 2637.799472
_symmetry_space_group_name_H-M "C M M A"
_symmetry_group_IT_number 67
_symmetry_cell_setting 'orthorhombic'
loop_
_space_group_symop_operation_xyz
x,y,z
-x,1/2-y,z
x,-y,-z
-x,1/2+y,-z
-x,-y,-z
x,1/2+y,-z
-x,y,z
x,1/2-y,z
1/2+x,1/2+y,z
1/2-x,-y,z
1/2+x,1/2-y,-z
1/2-x,y,-z
1/2-x,1/2-y,-z
1/2+x,y,-z
1/2-x,1/2+y,z
1/2+x,-y,z
loop_
_atom_site_type_symbol
_atom_site_label
_atom_site_fract_x
_atom_site_fract_y
_atom_site_fract_z
Si Si1 0.677455 0.176214 0.598629
Si Si2 0.679778 0.250000 0.898468
Si Si3 0.327144 0.065563 0.285601
Si Si4 0.172972 0.122851 0.903789
O O1 0.500000 0.164384 0.590858
O O2 0.712929 0.250000 0.629845
O O3 0.750000 0.160932 0.500000
O O4 0.745322 0.127962 0.673550
O O5 0.500000 0.250000 0.894271
O O6 0.743607 0.315925 0.854587
O O7 0.750000 0.250000 0.000000
O O8 0.500000 0.065716 0.319118
O O9 0.317147 0.066983 0.173317
O O10 0.250000 0.000000 0.321586
O O11 0.000000 0.141253 0.926916
O O12 0.250000 0.100203 0.000000
#
# Coordination Sequence:
#
# PCOD8278344 Si02
#       4
#    16   8  16  16
#     4  10  22  42  69  99 128 160 201 250 308 370
#     4  10  18  30  52  80 111 148 195 250 302 356
#     4  11  25  42  62  90 126 166 210 258 309 368
#     4  10  21  37  57  84 119 162 207 256 308 362
#
# _framework density 21.229816
#
# number of rings (size 3 to 8) (size 9 to 14) (size 15 to 20)
#    0.000    1.714    0.000    5.571    2.000    7.429 
#    0.000    5.714    0.000    0.000    0.000    0.000 
#    0.000    0.000    0.000    0.000    0.000    0.000 
#
# Total GULP energy -347136.548624 kJ/mol
# GULP energy per Si atom -12397.733879 kJ/mol
# Density = 2.118150 g / cm^3
# Si number density = 21.229816 Si / 1000 Ang^3
#
#
#
# Elastic Constant Matrix: (Units=GPa)
#
#
# Indices 1 2 3 4 5 6 
#
# 1 171.9703 56.4474 54.0454 0.0000 0.0000 0.0000
# 2 56.4474 102.2374 49.8495 0.0000 0.0000 0.0000
# 3 54.0454 49.8495 82.8229 0.0000 0.0000 0.0000
# 4 0.0000 0.0000 0.0000 24.5429 0.0000 0.0000
# 5 0.0000 0.0000 0.0000 0.0000 33.3551 0.0000
# 6 0.0000 0.0000 0.0000 0.0000 0.0000 31.3040
#
#
#
# Elastic Compliance Matrix: (Units=1/GPa)
#
#
# Indices 1 2 3 4 5 6 
#
# 1 0.007765 -0.002571 -0.003519 0.000000 0.000000 0.000000
# 2 -0.002571 0.014695 -0.007167 0.000000 0.000000 0.000000
# 3 -0.003519 -0.007167 0.018684 0.000000 0.000000 0.000000
# 4 0.000000 0.000000 0.000000 0.040745 0.000000 0.000000
# 5 0.000000 0.000000 0.000000 0.000000 0.029980 0.000000
# 6 0.000000 0.000000 0.000000 0.000000 0.000000 0.031945
#
#
# Mechanical properties :
#
#
# Convention : Reuss Voigt Hill
#
# Bulk Modulus (GPa) = 68.35619 75.30166 71.82893
# Shear Modulus (GPa) = 28.53779 30.95296 29.74537
#
# Velocity S-wave (km/s) = 3.67035 3.82251 3.74721
# Velocity P-wave (km/s) = 7.08732 7.41815 7.25462
#
# Compressibility (1/GPa) = 0.01462925
#
# Stress axis : x y z
#
# Youngs Moduli (GPa) = 128.78340 68.04900 53.52113
#
# Poissons Ratio (x) = 0.17497 0.18836
# Poissons Ratio (y) = 0.33113 0.38359
# Poissons Ratio (z) = 0.45324 0.48771
#
# Static dielectric constant tensor:
#      x y z
#    x 3.976720 0.000000 0.000000 
#    y 0.000000 4.278180 0.000000 
#    z 0.000000 0.000000 3.630110 
# 
# 
# High freq. dielectric constant tensor:
#      x y z
#    x 1.849780 0.000000 0.000000 
#    y 0.000000 1.828360 0.000000 
#    z 0.000000 0.000000 1.822810 
# 
# From -- ./inp_files/24617.got.cif
#   From: 2010.03.12/outbox.cif.g09.slc.cpg/sg67_13_cif.got.tgz:24617.got - 2010.04.10 22:41:39.
