data_PCOD8278005
_publ_section_title
;
Structure prediction by ZEFSAII (Michael W. Deem and Ramdas Pophale) SiO2 
 PCOD8278005
Probable space group: C M M A
;
_chemical_formula_sum "Si O2"
_cell_formula_units_Z 80
_cell_length_a 18.872654
_cell_length_b 7.852094
_cell_length_c 29.715063
_cell_angle_alpha 90.000000
_cell_angle_beta 90.000000
_cell_angle_gamma 90.000000
_cell_volume 4403.470825
_symmetry_space_group_name_H-M "C M M A"
_symmetry_group_IT_number 67
_symmetry_cell_setting 'orthorhombic'
loop_
_space_group_symop_operation_xyz
x,y,z
-x,1/2-y,z
x,-y,-z
-x,1/2+y,-z
-x,-y,-z
x,1/2+y,-z
-x,y,z
x,1/2-y,z
1/2+x,1/2+y,z
1/2-x,-y,z
1/2+x,1/2-y,-z
1/2-x,y,-z
1/2-x,1/2-y,-z
1/2+x,y,-z
1/2-x,1/2+y,z
1/2+x,-y,z
loop_
_atom_site_type_symbol
_atom_site_label
_atom_site_fract_x
_atom_site_fract_y
_atom_site_fract_z
Si Si1 0.083761 0.250000 0.789603
Si Si2 0.084331 0.558352 0.951317
Si Si3 0.331028 0.446861 0.453020
Si Si4 0.084610 0.750000 0.109661
Si Si5 0.669066 0.943455 0.358309
Si Si6 0.083136 0.947926 0.725539
O O1 0.115793 0.250000 0.839824
O O2 0.108405 0.425114 0.765235
O O3 0.000000 0.250000 0.792396
O O4 0.111952 0.750000 0.940016
O O5 0.112629 0.421551 0.914886
O O6 0.000000 0.558466 0.951709
O O7 0.112892 0.500000 0.000000
O O8 0.369631 0.500000 0.500000
O O9 0.337785 0.250000 0.445762
O O10 0.250000 0.500000 0.456650
O O11 0.364887 0.528368 0.408086
O O12 0.000000 0.750000 0.109398
O O13 0.666620 0.750000 0.346052
O O14 0.621651 0.025168 0.319010
O O15 0.750000 0.000000 0.357096
O O16 0.102429 0.750000 0.737389
O O17 0.000000 0.964178 0.716433
#
# Coordination Sequence:
#
# PCOD8278005 Si02
#       6
#     8  16  16   8  16  16
#     4   9  18  30  46  62  84 117 157 197 228 273
#     4   9  14  20  31  47  72 104 139 181 223 262
#     4  10  17  26  41  62  92 120 145 178 224 277
#     4   9  16  24  34  54  76 104 146 187 224 260
#     4  10  19  30  48  72  95 117 151 194 230 277
#     4   9  19  34  50  67  90 122 158 197 237 277
#
# _framework density 18.167487000000001
#
# number of rings (size 3 to 8) (size 9 to 14) (size 15 to 20)
#    0.000    2.600    1.000    4.200    2.800    0.800 
#    0.000    4.000    0.000    0.600    0.000    0.000 
#    0.000    0.000    0.000    0.000    0.000    3.000 
#
# Total GULP energy -495528.171406 kJ/mol
# GULP energy per Si atom -12388.204285 kJ/mol
# Density = 1.812614 g / cm^3
# Si number density = 18.167487 Si / 1000 Ang^3
#
#
#
# Elastic Constant Matrix: (Units=GPa)
#
#
# Indices 1 2 3 4 5 6 
#
# 1 14.4238 14.3474 24.4517 0.0000 0.0000 0.0000
# 2 14.3474 123.4449 74.3991 0.0000 0.0000 0.0000
# 3 24.4517 74.3991 189.9385 0.0000 0.0000 0.0000
# 4 0.0000 0.0000 0.0000 35.0504 0.0000 0.0000
# 5 0.0000 0.0000 0.0000 0.0000 4.3214 0.0000
# 6 0.0000 0.0000 0.0000 0.0000 0.0000 7.5350
#
#
#
# Elastic Compliance Matrix: (Units=1/GPa)
#
#
# Indices 1 2 3 4 5 6 
#
# 1 0.090623 -0.004584 -0.009871 0.000000 0.000000 0.000000
# 2 -0.004584 0.010836 -0.003654 0.000000 0.000000 0.000000
# 3 -0.009871 -0.003654 0.007967 0.000000 0.000000 0.000000
# 4 0.000000 0.000000 0.000000 0.028530 0.000000 0.000000
# 5 0.000000 0.000000 0.000000 0.000000 0.231406 0.000000
# 6 0.000000 0.000000 0.000000 0.000000 0.000000 0.132714
#
#
# Mechanical properties :
#
#
# Convention : Reuss Voigt Hill
#
# Bulk Modulus (GPa) = 13.65969 61.57819 37.61894
# Shear Modulus (GPa) = 8.88579 23.68864 16.28722
#
# Velocity S-wave (km/s) = 2.21397 3.61488 2.99742
# Velocity P-wave (km/s) = 3.75108 7.16878 5.72110
#
# Compressibility (1/GPa) = 0.07320809
#
# Stress axis : x y z
#
# Youngs Moduli (GPa) = 11.03475 92.28519 125.51736
#
# Poissons Ratio (x) = 0.42299 1.23897
# Poissons Ratio (y) = 0.05058 0.45869
# Poissons Ratio (z) = 0.10892 0.33725
#
# Static dielectric constant tensor:
#      x y z
#    x 2.545790 0.000000 0.000000 
#    y 0.000000 3.633310 0.000000 
#    z 0.000000 0.000000 3.812620 
# 
# 
# High freq. dielectric constant tensor:
#      x y z
#    x 1.615890 0.000000 0.000000 
#    y 0.000000 1.723860 0.000000 
#    z 0.000000 0.000000 1.716560 
# 
# From -- ./inp_files/44461.got.cif
#   From: 2010.03.12/outbox.cif.g09.slc.cpg/sg67_23_cif.got.tgz:44461.got - 2010.04.10 22:41:39.
