data_PCOD8278289
_publ_section_title
;
Structure prediction by ZEFSAII (Michael W. Deem and Ramdas Pophale) SiO2 
 PCOD8278289
Probable space group: C M M A
;
_chemical_formula_sum "Si O2"
_cell_formula_units_Z 72
_cell_length_a 8.804641
_cell_length_b 30.578778
_cell_length_c 14.515740
_cell_angle_alpha 90.000000
_cell_angle_beta 90.000000
_cell_angle_gamma 90.000000
_cell_volume 3908.147618
_symmetry_space_group_name_H-M "C M M A"
_symmetry_group_IT_number 67
_symmetry_cell_setting 'orthorhombic'
loop_
_space_group_symop_operation_xyz
x,y,z
-x,1/2-y,z
x,-y,-z
-x,1/2+y,-z
-x,-y,-z
x,1/2+y,-z
-x,y,z
x,1/2-y,z
1/2+x,1/2+y,z
1/2-x,-y,z
1/2+x,1/2-y,-z
1/2-x,y,-z
1/2-x,1/2-y,-z
1/2+x,y,-z
1/2-x,1/2+y,z
1/2+x,-y,z
loop_
_atom_site_type_symbol
_atom_site_label
_atom_site_fract_x
_atom_site_fract_y
_atom_site_fract_z
Si Si1 0.673892 0.128030 0.714219
Si Si2 0.820116 0.545631 0.597783
Si Si3 0.178268 0.799466 0.403911
Si Si4 0.174873 0.163053 0.096475
Si Si5 0.819272 0.750000 0.101031
O O1 0.500000 0.137262 0.687023
O O2 0.727400 0.081889 0.672618
O O3 0.772126 0.167749 0.675613
O O4 0.692281 0.125563 0.825672
O O5 0.750000 0.500000 0.632102
O O6 0.750000 0.559562 0.500000
O O7 0.000000 0.540684 0.587381
O O8 0.229909 0.750000 0.378071
O O9 0.250000 0.814717 0.500000
O O10 0.000000 0.801866 0.415447
O O11 0.254842 0.205353 0.144291
O O12 0.000000 0.174027 0.075240
O O13 0.250000 0.148098 0.000000
O O14 0.000000 0.750000 0.105389
O O15 0.750000 0.750000 0.000000
#
# Coordination Sequence:
#
# PCOD8278289 Si02
#       5
#    16  16  16  16   8
#     4  10  22  36  54  78 106 139 177 219 265 316
#     4  10  20  36  57  83 109 136 169 212 263 318
#     4  10  21  35  51  74 105 141 179 216 256 309
#     4  10  20  35  52  74 103 139 178 223 269 311
#     4  10  18  30  48  70  97 132 175 220 262 308
#
# _framework density 18.42305
#
# number of rings (size 3 to 8) (size 9 to 14) (size 15 to 20)
#    0.000    2.000    0.000    5.667    1.556    6.667 
#    0.000    0.000    0.000    0.667    0.000    4.667 
#    0.000    0.000    0.000    0.000    0.000    0.000 
#
# Total GULP energy -446298.213415 kJ/mol
# GULP energy per Si atom -12397.172595 kJ/mol
# Density = 1.838112 g / cm^3
# Si number density = 18.423050 Si / 1000 Ang^3
#
#
#
# Elastic Constant Matrix: (Units=GPa)
#
#
# Indices 1 2 3 4 5 6 
#
# 1 105.3551 43.9662 44.6217 0.0000 0.0000 0.0000
# 2 43.9662 105.6975 72.0498 0.0000 0.0000 0.0000
# 3 44.6217 72.0498 110.7442 0.0000 0.0000 0.0000
# 4 0.0000 0.0000 0.0000 28.5738 0.0000 0.0000
# 5 0.0000 0.0000 0.0000 0.0000 24.8459 0.0000
# 6 0.0000 0.0000 0.0000 0.0000 0.0000 21.4989
#
#
#
# Elastic Compliance Matrix: (Units=1/GPa)
#
#
# Indices 1 2 3 4 5 6 
#
# 1 0.011964 -0.003038 -0.002844 0.000000 0.000000 0.000000
# 2 -0.003038 0.017772 -0.010338 0.000000 0.000000 0.000000
# 3 -0.002844 -0.010338 0.016902 0.000000 0.000000 0.000000
# 4 0.000000 0.000000 0.000000 0.034997 0.000000 0.000000
# 5 0.000000 0.000000 0.000000 0.000000 0.040248 0.000000
# 6 0.000000 0.000000 0.000000 0.000000 0.000000 0.046514
#
#
# Mechanical properties :
#
#
# Convention : Reuss Voigt Hill
#
# Bulk Modulus (GPa) = 70.43683 71.45246 70.94465
# Shear Modulus (GPa) = 24.32265 25.72766 25.02515
#
# Velocity S-wave (km/s) = 3.63744 3.74102 3.68959
# Velocity P-wave (km/s) = 7.48046 7.58477 7.53280
#
# Compressibility (1/GPa) = 0.01419712
#
# Stress axis : x y z
#
# Youngs Moduli (GPa) = 83.58358 56.26924 59.16517
#
# Poissons Ratio (x) = 0.17093 0.16828
# Poissons Ratio (y) = 0.25391 0.61166
# Poissons Ratio (z) = 0.23773 0.58172
#
# Static dielectric constant tensor:
#      x y z
#    x 3.479440 0.000000 0.000000 
#    y 0.000000 3.710580 0.000000 
#    z 0.000000 0.000000 3.341400 
# 
# 
# High freq. dielectric constant tensor:
#      x y z
#    x 1.728330 0.000000 0.000000 
#    y 0.000000 1.693760 0.000000 
#    z 0.000000 0.000000 1.709470 
# 
# From -- ./inp_files/25299.got.cif
#   From: 2010.03.12/outbox.cif.g09.slc.cpg/sg67_13_cif.got.tgz:25299.got - 2010.04.10 22:41:39.
