data_PCOD8278868
_publ_section_title
;
Structure prediction by ZEFSAII (Michael W. Deem and Ramdas Pophale) SiO2 
 PCOD8278868
Probable space group: C M M A
;
_chemical_formula_sum "Si O2"
_cell_formula_units_Z 112
_cell_length_a 18.715345
_cell_length_b 24.950741
_cell_length_c 12.537451
_cell_angle_alpha 90.000000
_cell_angle_beta 90.000000
_cell_angle_gamma 90.000000
_cell_volume 5854.509756
_symmetry_space_group_name_H-M "C M M A"
_symmetry_group_IT_number 67
_symmetry_cell_setting 'orthorhombic'
loop_
_space_group_symop_operation_xyz
x,y,z
-x,1/2-y,z
x,-y,-z
-x,1/2+y,-z
-x,-y,-z
x,1/2+y,-z
-x,y,z
x,1/2-y,z
1/2+x,1/2+y,z
1/2-x,-y,z
1/2+x,1/2-y,-z
1/2-x,y,-z
1/2-x,1/2-y,-z
1/2+x,y,-z
1/2-x,1/2+y,z
1/2+x,-y,z
loop_
_atom_site_type_symbol
_atom_site_label
_atom_site_fract_x
_atom_site_fract_y
_atom_site_fract_z
Si Si1 0.324778 0.688833 0.741574
Si Si2 0.915421 0.606394 0.862713
Si Si3 0.579037 0.549958 0.575073
Si Si4 0.082539 0.008200 0.794201
Si Si5 0.917276 0.617119 0.099631
Si Si6 0.160505 0.310783 0.283329
Si Si7 0.168168 0.648033 0.488346
O O1 0.339722 0.750000 0.774672
O O2 0.369325 0.650797 0.819228
O O3 0.241181 0.674633 0.751008
O O4 0.348599 0.681157 0.618973
O O5 0.882168 0.547941 0.832386
O O6 0.892722 0.649934 0.776813
O O7 0.000000 0.601318 0.865316
O O8 0.889795 0.626550 0.979166
O O9 0.571645 0.500000 0.500000
O O10 0.500000 0.573866 0.599832
O O11 0.617474 0.531410 0.685126
O O12 0.624269 0.593535 0.512366
O O13 0.000000 0.996676 0.768405
O O14 0.092086 0.053359 0.883987
O O15 0.000000 0.634130 0.116016
O O16 0.142492 0.250000 0.250935
O O17 0.147087 0.316245 0.409861
O O18 0.250000 0.631260 0.500000
#
# Coordination Sequence:
#
# PCOD8278868 Si02
#       7
#    16  16  16  16  16  16  16
#     4  10  21  38  59  82 110 144 185 234 282 328
#     4  10  21  37  58  83 112 147 188 229 272 327
#     4  10  19  31  52  82 115 146 178 220 271 329
#     4   9  17  33  56  82 111 143 178 220 275 330
#     4  10  20  36  59  85 112 144 184 231 279 328
#     4  10  22  39  57  79 110 150 189 227 278 335
#     4  10  20  36  57  81 108 143 185 230 276 330
#
# _framework density 19.130552000000002
#
# number of rings (size 3 to 8) (size 9 to 14) (size 15 to 20)
#    0.000    2.143    1.429    1.714    0.000    7.143 
#    0.000    3.571    0.000    4.286    0.000    0.000 
#    0.000    0.000    0.000    0.000    0.000    0.000 
#
# Total GULP energy -694319.342333 kJ/mol
# GULP energy per Si atom -12398.559685 kJ/mol
# Density = 1.908701 g / cm^3
# Si number density = 19.130552 Si / 1000 Ang^3
#
#
#
# Elastic Constant Matrix: (Units=GPa)
#
#
# Indices 1 2 3 4 5 6 
#
# 1 29.9808 29.4193 29.7780 0.0000 0.0000 0.0000
# 2 29.4193 105.2811 37.4191 0.0000 0.0000 0.0000
# 3 29.7780 37.4191 103.3785 0.0000 0.0000 0.0000
# 4 0.0000 0.0000 0.0000 22.7632 0.0000 0.0000
# 5 0.0000 0.0000 0.0000 0.0000 27.2715 0.0000
# 6 0.0000 0.0000 0.0000 0.0000 0.0000 -8.7456
#
#
#
# Elastic Compliance Matrix: (Units=1/GPa)
#
#
# Indices 1 2 3 4 5 6 
#
# 1 0.056768 -0.011535 -0.012177 0.000000 0.000000 0.000000
# 2 -0.011535 0.013245 -0.001471 0.000000 0.000000 0.000000
# 3 -0.012177 -0.001471 0.013713 0.000000 0.000000 0.000000
# 4 0.000000 0.000000 0.000000 0.043931 0.000000 0.000000
# 5 0.000000 0.000000 0.000000 0.000000 0.036668 0.000000
# 6 0.000000 0.000000 0.000000 0.000000 0.000000 -0.114343
#
#
# Mechanical properties :
#
#
# Convention : Reuss Voigt Hill
#
# Bulk Modulus (GPa) = 29.97636 47.98592 38.98114
# Shear Modulus (GPa) = 44.85577 17.72608 31.29092
#
# Velocity S-wave (km/s) = 4.84748 3.04729 4.04871
# Velocity P-wave (km/s) = 6.85815 6.12529 6.50205
#
# Compressibility (1/GPa) = 0.03335962
#
# Stress axis : x y z
#
# Youngs Moduli (GPa) = 17.61547 75.50185 72.92222
#
# Poissons Ratio (x) = 0.87093 0.88795
# Poissons Ratio (y) = 0.20320 0.10730
# Poissons Ratio (z) = 0.21450 0.11109
#
# Static dielectric constant tensor:
#      x y z
#    x 3.304920 0.000000 0.000000 
#    y 0.000000 3.462680 0.000000 
#    z 0.000000 0.000000 3.688370 
# 
# 
# High freq. dielectric constant tensor:
#      x y z
#    x 1.712820 0.000000 0.000000 
#    y 0.000000 1.746930 0.000000 
#    z 0.000000 0.000000 1.757570 
# 
# From -- ./inp_files/21115.got.cif
#   From: 2010.03.12/outbox.cif.g09.slc.cpg/sg67_11_cif.got.tgz:21115.got - 2010.04.10 22:41:39.
