data_PCOD8278862
_publ_section_title
;
Structure prediction by ZEFSAII (Michael W. Deem and Ramdas Pophale) SiO2 
 PCOD8278862
Probable space group: C M M A
;
_chemical_formula_sum "Si O2"
_cell_formula_units_Z 88
_cell_length_a 9.079033
_cell_length_b 26.610917
_cell_length_c 19.232621
_cell_angle_alpha 90.000000
_cell_angle_beta 90.000000
_cell_angle_gamma 90.000000
_cell_volume 4646.628036
_symmetry_space_group_name_H-M "C M M A"
_symmetry_group_IT_number 67
_symmetry_cell_setting 'orthorhombic'
loop_
_space_group_symop_operation_xyz
x,y,z
-x,1/2-y,z
x,-y,-z
-x,1/2+y,-z
-x,-y,-z
x,1/2+y,-z
-x,y,z
x,1/2-y,z
1/2+x,1/2+y,z
1/2-x,-y,z
1/2+x,1/2-y,-z
1/2-x,y,-z
1/2-x,1/2-y,-z
1/2+x,y,-z
1/2-x,1/2+y,z
1/2+x,-y,z
loop_
_atom_site_type_symbol
_atom_site_label
_atom_site_fract_x
_atom_site_fract_y
_atom_site_fract_z
Si Si1 0.162170 0.692185 0.564339
Si Si2 0.326765 0.852215 0.685185
Si Si3 0.166184 0.049281 0.147102
Si Si4 0.672696 0.849759 0.845312
Si Si5 0.166150 0.548110 0.687499
Si Si6 0.174095 0.250000 0.926243
O O1 0.140299 0.750000 0.546497
O O2 0.250000 0.666350 0.500000
O O3 0.253327 0.689166 0.636067
O O4 0.000000 0.666966 0.571846
O O5 0.500000 0.853192 0.673407
O O6 0.286552 0.840354 0.764911
O O7 0.257855 0.904680 0.660668
O O8 0.245487 0.101101 0.123889
O O9 0.165310 0.046307 0.229633
O O10 0.000000 0.049418 0.117506
O O11 0.250000 0.000000 0.116963
O O12 0.500000 0.859805 0.854027
O O13 0.725344 0.799978 0.885561
O O14 0.250000 0.500000 0.656967
O O15 0.000000 0.549882 0.658575
O O16 0.000000 0.250000 0.935634
O O17 0.250000 0.250000 0.000000
#
# Coordination Sequence:
#
# PCOD8278862 Si02
#       6
#    16  16  16  16  16   8
#     4  10  21  36  52  72 100 135 173 214 261 312
#     4  10  19  31  52  78 104 135 172 215 261 307
#     4   9  16  27  47  75 107 138 172 215 266 315
#     4   9  19  34  53  78 108 141 180 220 265 316
#     4   9  16  27  44  69 103 136 170 210 256 307
#     4  10  22  40  58  78 107 146 183 218 261 316
#
# _framework density 18.938462999999999
#
# number of rings (size 3 to 8) (size 9 to 14) (size 15 to 20)
#    0.000    2.545    0.000    2.182    1.273    6.909 
#    0.000    0.000    0.000    1.091    0.000    7.636 
#    0.000    0.000    0.000    0.000    0.000    0.000 
#
# Total GULP energy -545506.275132 kJ/mol
# GULP energy per Si atom -12397.869889 kJ/mol
# Density = 1.889536 g / cm^3
# Si number density = 18.938463 Si / 1000 Ang^3
#
#
#
# Elastic Constant Matrix: (Units=GPa)
#
#
# Indices 1 2 3 4 5 6 
#
# 1 129.2101 59.0337 45.9148 0.0000 0.0000 0.0000
# 2 59.0337 122.0443 43.7456 0.0000 0.0000 0.0000
# 3 45.9148 43.7456 69.5676 0.0000 0.0000 0.0000
# 4 0.0000 0.0000 0.0000 5.0056 0.0000 0.0000
# 5 0.0000 0.0000 0.0000 0.0000 23.5016 0.0000
# 6 0.0000 0.0000 0.0000 0.0000 0.0000 35.0141
#
#
#
# Elastic Compliance Matrix: (Units=1/GPa)
#
#
# Indices 1 2 3 4 5 6 
#
# 1 0.011200 -0.003573 -0.005145 0.000000 0.000000 0.000000
# 2 -0.003573 0.011718 -0.005010 0.000000 0.000000 0.000000
# 3 -0.005145 -0.005010 0.020921 0.000000 0.000000 0.000000
# 4 0.000000 0.000000 0.000000 0.199777 0.000000 0.000000
# 5 0.000000 0.000000 0.000000 0.000000 0.042550 0.000000
# 6 0.000000 0.000000 0.000000 0.000000 0.000000 0.028560
#
#
# Mechanical properties :
#
#
# Convention : Reuss Voigt Hill
#
# Bulk Modulus (GPa) = 61.04352 68.69003 64.86678
# Shear Modulus (GPa) = 14.38250 24.17945 19.28098
#
# Velocity S-wave (km/s) = 2.75877 3.57702 3.19421
# Velocity P-wave (km/s) = 6.51539 7.30815 6.92312
#
# Compressibility (1/GPa) = 0.01638175
#
# Stress axis : x y z
#
# Youngs Moduli (GPa) = 89.28321 85.33834 47.79928
#
# Poissons Ratio (x) = 0.30495 0.24594
# Poissons Ratio (y) = 0.31905 0.23948
# Poissons Ratio (z) = 0.45938 0.42755
#
# Static dielectric constant tensor:
#      x y z
#    x 3.718260 0.000000 0.000000 
#    y 0.000000 3.543350 0.000000 
#    z 0.000000 0.000000 3.039120 
# 
# 
# High freq. dielectric constant tensor:
#      x y z
#    x 1.749840 0.000000 0.000000 
#    y 0.000000 1.735520 0.000000 
#    z 0.000000 0.000000 1.691230 
# 
# From -- ./inp_files/36200.got.cif
#   From: 2010.03.12/outbox.cif.g09.slc.cpg/sg67_19_cif.got.tgz:36200.got - 2010.04.10 22:41:39.
