data_PCOD8278839
_publ_section_title
;
Structure prediction by ZEFSAII (Michael W. Deem and Ramdas Pophale) SiO2 
 PCOD8278839
Probable space group: C M M A
;
_chemical_formula_sum "Si O2"
_cell_formula_units_Z 104
_cell_length_a 30.154404
_cell_length_b 9.239468
_cell_length_c 21.194803
_cell_angle_alpha 90.000000
_cell_angle_beta 90.000000
_cell_angle_gamma 90.000000
_cell_volume 5905.097858
_symmetry_space_group_name_H-M "C M M A"
_symmetry_group_IT_number 67
_symmetry_cell_setting 'orthorhombic'
loop_
_space_group_symop_operation_xyz
x,y,z
-x,1/2-y,z
x,-y,-z
-x,1/2+y,-z
-x,-y,-z
x,1/2+y,-z
-x,y,z
x,1/2-y,z
1/2+x,1/2+y,z
1/2-x,-y,z
1/2+x,1/2-y,-z
1/2-x,y,-z
1/2-x,1/2-y,-z
1/2+x,y,-z
1/2-x,1/2+y,z
1/2+x,-y,z
loop_
_atom_site_type_symbol
_atom_site_label
_atom_site_fract_x
_atom_site_fract_y
_atom_site_fract_z
Si Si1 0.448058 0.250000 0.595403
Si Si2 0.914613 0.423693 0.115559
Si Si3 0.000000 0.925448 0.067038
Si Si4 0.887101 0.910449 0.231571
Si Si5 0.667980 0.577397 0.938947
Si Si6 0.707894 0.413278 0.195660
Si Si7 0.947876 0.458204 0.651687
Si Si8 0.448519 0.250000 0.457173
O O1 0.500000 0.250000 0.582856
O O2 0.434242 0.121460 0.640900
O O3 0.424509 0.250000 0.525989
O O4 0.919080 0.250000 0.105533
O O5 0.958722 0.513156 0.104492
O O6 0.904286 0.459167 0.188383
O O7 0.878479 0.492572 0.068911
O O8 0.000000 0.750000 0.063032
O O9 0.000000 0.000000 0.000000
O O10 0.890175 0.750000 0.198437
O O11 0.834497 0.940927 0.241571
O O12 0.915707 0.898027 0.294821
O O13 0.661340 0.750000 0.949355
O O14 0.696740 0.544441 0.876826
O O15 0.690699 0.500000 0.000000
O O16 0.723629 0.250000 0.198348
O O17 0.750000 0.500000 0.221142
O O18 0.935956 0.388445 0.584374
O O19 0.000000 0.432094 0.669440
O O20 0.500000 0.250000 0.471562
#
# Coordination Sequence:
#
# PCOD8278839 Si02
#       8
#     8  16   8  16  16  16  16   8
#     4   9  18  30  46  74 113 145 183 222 258 286
#     4  11  23  37  53  75 100 136 175 224 268 310
#     4  12  24  40  56  72  98 134 179 224 267 316
#     4  10  21  37  53  75 108 139 179 217 263 317
#     4  10  20  36  56  79 105 132 165 207 264 328
#     4   9  20  37  55  75 102 133 169 219 269 321
#     4  10  19  31  50  76 110 149 183 217 255 308
#     4   9  16  30  50  74 103 151 187 214 252 308
#
# _framework density 17.611901
#
# number of rings (size 3 to 8) (size 9 to 14) (size 15 to 20)
#    0.000    2.000    0.769    4.385    2.154    5.231 
#    0.000    1.538    0.000    0.000    0.000    0.000 
#    0.000    3.692    0.000    0.000    0.000    0.000 
#
# Total GULP energy -644216.011025 kJ/mol
# GULP energy per Si atom -12388.769443 kJ/mol
# Density = 1.757182 g / cm^3
# Si number density = 17.611901 Si / 1000 Ang^3
#
#
#
# Elastic Constant Matrix: (Units=GPa)
#
#
# Indices 1 2 3 4 5 6 
#
# 1 95.1300 39.5456 29.0441 0.0000 0.0000 0.0000
# 2 39.5456 129.5051 19.1719 0.0000 0.0000 0.0000
# 3 29.0441 19.1719 60.4992 0.0000 0.0000 0.0000
# 4 0.0000 0.0000 0.0000 34.0543 0.0000 0.0000
# 5 0.0000 0.0000 0.0000 0.0000 11.5491 0.0000
# 6 0.0000 0.0000 0.0000 0.0000 0.0000 24.2210
#
#
#
# Elastic Compliance Matrix: (Units=1/GPa)
#
#
# Indices 1 2 3 4 5 6 
#
# 1 0.013563 -0.003334 -0.005455 0.000000 0.000000 0.000000
# 2 -0.003334 0.008921 -0.001227 0.000000 0.000000 0.000000
# 3 -0.005455 -0.001227 0.019537 0.000000 0.000000 0.000000
# 4 0.000000 0.000000 0.000000 0.029365 0.000000 0.000000
# 5 0.000000 0.000000 0.000000 0.000000 0.086587 0.000000
# 6 0.000000 0.000000 0.000000 0.000000 0.000000 0.041286
#
#
# Mechanical properties :
#
#
# Convention : Reuss Voigt Hill
#
# Bulk Modulus (GPa) = 45.47461 51.18416 48.32939
# Shear Modulus (GPa) = 22.06328 27.12305 24.59316
#
# Velocity S-wave (km/s) = 3.54326 3.92859 3.74089
# Velocity P-wave (km/s) = 6.52809 7.05009 6.79411
#
# Compressibility (1/GPa) = 0.02199029
#
# Stress axis : x y z
#
# Youngs Moduli (GPa) = 73.72807 112.09018 51.18615
#
# Poissons Ratio (x) = 0.37373 0.27921
# Poissons Ratio (y) = 0.24582 0.06278
# Poissons Ratio (z) = 0.40217 0.13748
#
# Static dielectric constant tensor:
#      x y z
#    x 3.113000 0.000000 0.000000 
#    y 0.000000 3.334040 0.000000 
#    z 0.000000 0.000000 3.159070 
# 
# 
# High freq. dielectric constant tensor:
#      x y z
#    x 1.651000 0.000000 0.000000 
#    y 0.000000 1.701290 0.000000 
#    z 0.000000 0.000000 1.663880 
# 
# From -- ./inp_files/42798.got.cif
#   From: 2010.03.12/outbox.cif.g09.slc.cpg/sg67_22_cif.got.tgz:42798.got - 2010.04.10 22:41:39.
