data_PCOD8278939
_publ_section_title
;
Structure prediction by ZEFSAII (Michael W. Deem and Ramdas Pophale) SiO2 
 PCOD8278939
Probable space group: C M M A
;
_chemical_formula_sum "Si O2"
_cell_formula_units_Z 104
_cell_length_a 26.567466
_cell_length_b 8.873836
_cell_length_c 24.165142
_cell_angle_alpha 90.000000
_cell_angle_beta 90.000000
_cell_angle_gamma 90.000000
_cell_volume 5697.061177
_symmetry_space_group_name_H-M "C M M A"
_symmetry_group_IT_number 67
_symmetry_cell_setting 'orthorhombic'
loop_
_space_group_symop_operation_xyz
x,y,z
-x,1/2-y,z
x,-y,-z
-x,1/2+y,-z
-x,-y,-z
x,1/2+y,-z
-x,y,z
x,1/2-y,z
1/2+x,1/2+y,z
1/2-x,-y,z
1/2+x,1/2-y,-z
1/2-x,y,-z
1/2-x,1/2-y,-z
1/2+x,y,-z
1/2-x,1/2+y,z
1/2+x,-y,z
loop_
_atom_site_type_symbol
_atom_site_label
_atom_site_fract_x
_atom_site_fract_y
_atom_site_fract_z
Si Si1 0.800086 0.426985 0.730010
Si Si2 0.943062 0.417092 0.242398
Si Si3 0.301161 0.427581 0.848721
Si Si4 0.442549 0.073048 0.557103
Si Si5 0.603080 0.076314 0.339447
Si Si6 0.500000 0.428141 0.059821
Si Si7 0.091039 0.424726 0.123958
O O1 0.793737 0.250000 0.739839
O O2 0.750000 0.500000 0.704483
O O3 0.812246 0.503239 0.788575
O O4 0.842476 0.463232 0.684927
O O5 0.926896 0.250000 0.262925
O O6 0.936994 0.533676 0.292253
O O7 0.911792 0.465487 0.188783
O O8 0.000000 0.417529 0.222142
O O9 0.292959 0.250000 0.841782
O O10 0.250000 0.500000 0.874383
O O11 0.349647 0.458723 0.889125
O O12 0.500000 0.024410 0.570650
O O13 0.437831 0.250000 0.550939
O O14 0.424243 0.000000 0.500000
O O15 0.405858 0.018516 0.605416
O O16 0.596608 0.250000 0.354544
O O17 0.500000 0.250000 0.054853
O O18 0.448217 0.475631 0.089823
O O19 0.500000 0.500000 0.000000
O O20 0.077483 0.250000 0.113143
#
# Coordination Sequence:
#
# PCOD8278939 Si02
#       7
#    16  16  16  16  16   8  16
#     4  10  20  32  48  73 107 143 181 223 268 324
#     4  10  19  32  50  74 108 147 180 216 267 326
#     4  10  19  32  54  81 114 153 189 231 280 334
#     4  10  21  37  56  76 100 135 177 219 266 322
#     4  11  22  33  49  76 108 139 176 223 270 325
#     4  12  26  42  64  88 116 154 195 238 281 332
#     4  10  20  37  58  82 115 153 190 231 279 332
#
# _framework density 18.255026999999998
#
# number of rings (size 3 to 8) (size 9 to 14) (size 15 to 20)
#    0.000    1.692    2.308    3.923    0.000    6.769 
#    0.000    0.000    0.000    0.923    0.000    6.462 
#    0.000    0.000    0.000    0.000    0.000    0.000 
#
# Total GULP energy -644656.025906 kJ/mol
# GULP energy per Si atom -12397.231267 kJ/mol
# Density = 1.821348 g / cm^3
# Si number density = 18.255027 Si / 1000 Ang^3
#
#
#
# Elastic Constant Matrix: (Units=GPa)
#
#
# Indices 1 2 3 4 5 6 
#
# 1 127.0052 57.7189 49.2942 0.0000 0.0000 0.0000
# 2 57.7189 99.1146 40.3201 0.0000 0.0000 0.0000
# 3 49.2942 40.3201 61.3716 0.0000 0.0000 0.0000
# 4 0.0000 0.0000 0.0000 30.3240 0.0000 0.0000
# 5 0.0000 0.0000 0.0000 0.0000 10.9681 0.0000
# 6 0.0000 0.0000 0.0000 0.0000 0.0000 30.5866
#
#
#
# Elastic Compliance Matrix: (Units=1/GPa)
#
#
# Indices 1 2 3 4 5 6 
#
# 1 0.012727 -0.004439 -0.007306 0.000000 0.000000 0.000000
# 2 -0.004439 0.015318 -0.006498 0.000000 0.000000 0.000000
# 3 -0.007306 -0.006498 0.026431 0.000000 0.000000 0.000000
# 4 0.000000 0.000000 0.000000 0.032977 0.000000 0.000000
# 5 0.000000 0.000000 0.000000 0.000000 0.091173 0.000000
# 6 0.000000 0.000000 0.000000 0.000000 0.000000 0.032694
#
#
# Mechanical properties :
#
#
# Convention : Reuss Voigt Hill
#
# Bulk Modulus (GPa) = 55.58638 64.68421 60.13529
# Shear Modulus (GPa) = 19.70036 23.71963 21.70999
#
# Velocity S-wave (km/s) = 3.28864 3.60856 3.45231
# Velocity P-wave (km/s) = 6.70345 7.27137 6.99318
#
# Compressibility (1/GPa) = 0.01799002
#
# Stress axis : x y z
#
# Youngs Moduli (GPa) = 78.57478 65.28290 37.83425
#
# Poissons Ratio (x) = 0.28982 0.27640
# Poissons Ratio (y) = 0.34883 0.24584
# Poissons Ratio (z) = 0.57404 0.42420
#
# Static dielectric constant tensor:
#      x y z
#    x 4.685910 0.000000 0.000000 
#    y 0.000000 3.455560 0.000000 
#    z 0.000000 0.000000 3.113820 
# 
# 
# High freq. dielectric constant tensor:
#      x y z
#    x 1.716230 0.000000 0.000000 
#    y 0.000000 1.717240 0.000000 
#    z 0.000000 0.000000 1.674450 
# 
# From -- ./inp_files/42765.got.cif
#   From: 2010.03.12/outbox.cif.g09.slc.cpg/sg67_22_cif.got.tgz:42765.got - 2010.04.10 22:41:39.
