data_PCOD8278256
_publ_section_title
;
Structure prediction by ZEFSAII (Michael W. Deem and Ramdas Pophale) SiO2 
 PCOD8278256
Probable space group: C M M A
;
_chemical_formula_sum "Si O2"
_cell_formula_units_Z 88
_cell_length_a 25.381882
_cell_length_b 9.271943
_cell_length_c 25.240136
_cell_angle_alpha 90.000000
_cell_angle_beta 90.000000
_cell_angle_gamma 90.000000
_cell_volume 5939.997532
_symmetry_space_group_name_H-M "C M M A"
_symmetry_group_IT_number 67
_symmetry_cell_setting 'orthorhombic'
loop_
_space_group_symop_operation_xyz
x,y,z
-x,1/2-y,z
x,-y,-z
-x,1/2+y,-z
-x,-y,-z
x,1/2+y,-z
-x,y,z
x,1/2-y,z
1/2+x,1/2+y,z
1/2-x,-y,z
1/2+x,1/2-y,-z
1/2-x,y,-z
1/2-x,1/2-y,-z
1/2+x,y,-z
1/2-x,1/2+y,z
1/2+x,-y,z
loop_
_atom_site_type_symbol
_atom_site_label
_atom_site_fract_x
_atom_site_fract_y
_atom_site_fract_z
Si Si1 0.437324 0.588018 0.048796
Si Si2 0.303704 0.076774 0.445673
Si Si3 0.500000 0.077943 0.444635
Si Si4 0.062599 0.087667 0.164548
Si Si5 0.402553 0.080633 0.376228
Si Si6 0.438169 0.582782 0.735292
O O1 0.500000 0.584038 0.045066
O O2 0.416535 0.750000 0.043165
O O3 0.419688 0.526598 0.106634
O O4 0.411959 0.500000 0.000000
O O5 0.296856 0.250000 0.453859
O O6 0.346065 0.040568 0.400481
O O7 0.322248 0.000000 0.500000
O O8 0.250000 0.000000 0.426920
O O9 0.500000 0.250000 0.452667
O O10 0.448759 0.020611 0.413487
O O11 0.500000 0.000000 0.500000
O O12 0.083511 0.250000 0.171347
O O13 0.000000 0.084733 0.167353
O O14 0.085699 0.993341 0.212518
O O15 0.411022 0.250000 0.372545
O O16 0.408183 0.019201 0.316478
O O17 0.500000 0.552504 0.727595
O O18 0.426689 0.750000 0.743164
#
# Coordination Sequence:
#
# PCOD8278256 Si02
#       6
#    16  16   8  16  16  16
#     4   8  13  20  29  41  60  86 118 156 194 225
#     4  10  19  32  48  64  81 102 128 160 196 235
#     4  10  18  30  44  60  82 104 125 154 193 236
#     4   8  14  23  32  45  68  95 120 154 197 229
#     4   9  17  29  45  61  80 104 128 158 196 233
#     4   9  15  25  40  55  71  96 129 157 184 227
#
# _framework density 14.814821
#
# number of rings (size 3 to 8) (size 9 to 14) (size 15 to 20)
#    0.000    3.091    0.909    2.727    0.000    0.727 
#    0.000    7.273    0.000    0.000    0.000    0.000 
#    0.000    0.000    0.000    0.000    0.000    0.909 
#
# Total GULP energy -545166.743160 kJ/mol
# GULP energy per Si atom -12390.153254 kJ/mol
# Density = 1.478110 g / cm^3
# Si number density = 14.814821 Si / 1000 Ang^3
#
#
#
# Elastic Constant Matrix: (Units=GPa)
#
#
# Indices 1 2 3 4 5 6 
#
# 1 43.3672 23.9162 45.4736 0.0000 0.0000 0.0000
# 2 23.9162 55.3207 58.7889 0.0000 0.0000 0.0000
# 3 45.4736 58.7889 177.2464 0.0000 0.0000 0.0000
# 4 0.0000 0.0000 0.0000 28.0615 0.0000 0.0000
# 5 0.0000 0.0000 0.0000 0.0000 11.2564 0.0000
# 6 0.0000 0.0000 0.0000 0.0000 0.0000 10.4493
#
#
#
# Elastic Compliance Matrix: (Units=1/GPa)
#
#
# Indices 1 2 3 4 5 6 
#
# 1 0.033873 -0.008353 -0.005920 0.000000 0.000000 0.000000
# 2 -0.008353 0.029976 -0.007799 0.000000 0.000000 0.000000
# 3 -0.005920 -0.007799 0.009747 0.000000 0.000000 0.000000
# 4 0.000000 0.000000 0.000000 0.035636 0.000000 0.000000
# 5 0.000000 0.000000 0.000000 0.000000 0.088839 0.000000
# 6 0.000000 0.000000 0.000000 0.000000 0.000000 0.095700
#
#
# Mechanical properties :
#
#
# Convention : Reuss Voigt Hill
#
# Bulk Modulus (GPa) = 33.95364 59.14352 46.54858
# Shear Modulus (GPa) = 14.37889 19.80382 17.09135
#
# Velocity S-wave (km/s) = 3.11878 3.66014 3.40025
# Velocity P-wave (km/s) = 5.99479 7.60728 6.84866
#
# Compressibility (1/GPa) = 0.02945193
#
# Stress axis : x y z
#
# Youngs Moduli (GPa) = 29.52237 33.36012 102.59052
#
# Poissons Ratio (x) = 0.27866 0.60731
# Poissons Ratio (y) = 0.24660 0.80014
# Poissons Ratio (z) = 0.17476 0.26019
#
# Static dielectric constant tensor:
#      x y z
#    x 2.457790 0.000000 0.000000 
#    y 0.000000 2.847120 0.000000 
#    z 0.000000 0.000000 3.292940 
# 
# 
# High freq. dielectric constant tensor:
#      x y z
#    x 1.502730 0.000000 0.000000 
#    y 0.000000 1.555560 0.000000 
#    z 0.000000 0.000000 1.582960 
# 
# From -- ./inp_files/42901.got.cif
#   From: 2010.03.12/outbox.cif.g09.slc.cpg/sg67_22_cif.got.tgz:42901.got - 2010.04.10 22:41:39.
