data_PCOD8278877
_publ_section_title
;
Structure prediction by ZEFSAII (Michael W. Deem and Ramdas Pophale) SiO2 
 PCOD8278877
Probable space group: C M M A
;
_chemical_formula_sum "Si O2"
_cell_formula_units_Z 80
_cell_length_a 9.241834
_cell_length_b 26.018301
_cell_length_c 18.693322
_cell_angle_alpha 90.000000
_cell_angle_beta 90.000000
_cell_angle_gamma 90.000000
_cell_volume 4494.936741
_symmetry_space_group_name_H-M "C M M A"
_symmetry_group_IT_number 67
_symmetry_cell_setting 'orthorhombic'
loop_
_space_group_symop_operation_xyz
x,y,z
-x,1/2-y,z
x,-y,-z
-x,1/2+y,-z
-x,-y,-z
x,1/2+y,-z
-x,y,z
x,1/2-y,z
1/2+x,1/2+y,z
1/2-x,-y,z
1/2+x,1/2-y,-z
1/2-x,y,-z
1/2-x,1/2-y,-z
1/2+x,y,-z
1/2-x,1/2+y,z
1/2+x,-y,z
loop_
_atom_site_type_symbol
_atom_site_label
_atom_site_fract_x
_atom_site_fract_y
_atom_site_fract_z
Si Si1 0.672246 0.250000 0.575150
Si Si2 0.171658 0.158177 0.325432
Si Si3 0.172458 0.837735 0.836674
Si Si4 0.341321 0.453074 0.838435
Si Si5 0.659897 0.546800 0.331453
Si Si6 0.674680 0.750000 0.923808
O O1 0.500000 0.250000 0.565242
O O2 0.750000 0.250000 0.500000
O O3 0.726736 0.299593 0.618795
O O4 0.219034 0.173164 0.245319
O O5 0.232898 0.102201 0.349396
O O6 0.000000 0.153581 0.324975
O O7 0.216432 0.896142 0.858298
O O8 0.269992 0.800719 0.883941
O O9 0.000000 0.828106 0.847650
O O10 0.500000 0.459396 0.871423
O O11 0.250000 0.500000 0.872035
O O12 0.347863 0.458299 0.753498
O O13 0.500000 0.543032 0.364760
O O14 0.750000 0.500000 0.365549
O O15 0.500000 0.750000 0.929449
O O16 0.750000 0.750000 0.000000
#
# Coordination Sequence:
#
# PCOD8278877 Si02
#       6
#     8  16  16  16  16   8
#     4  10  19  32  48  66  90 124 161 200 242 286
#     4   8  15  29  51  72  93 125 161 191 232 289
#     4   9  17  33  55  76  97 127 165 201 236 286
#     4   8  14  24  43  71 101 127 152 186 232 281
#     4   8  13  23  40  66  94 120 150 185 226 276
#     4  12  25  38  52  72  98 130 163 202 248 290
#
# _framework density 17.797803999999999
#
# number of rings (size 3 to 8) (size 9 to 14) (size 15 to 20)
#    0.000    3.200    0.000    3.900    0.000    2.400 
#    0.000    6.000    0.000    1.200    0.000    8.400 
#    0.000    0.000    0.000    0.000    0.000    0.000 
#
# Total GULP energy -495610.942370 kJ/mol
# GULP energy per Si atom -12390.273559 kJ/mol
# Density = 1.775730 g / cm^3
# Si number density = 17.797804 Si / 1000 Ang^3
#
#
#
# Elastic Constant Matrix: (Units=GPa)
#
#
# Indices 1 2 3 4 5 6 
#
# 1 74.0676 67.7148 37.3374 0.0000 0.0000 0.0000
# 2 67.7148 185.4238 68.3015 0.0000 0.0000 0.0000
# 3 37.3374 68.3015 77.6870 0.0000 0.0000 0.0000
# 4 0.0000 0.0000 0.0000 -0.2447 0.0000 0.0000
# 5 0.0000 0.0000 0.0000 0.0000 20.8024 0.0000
# 6 0.0000 0.0000 0.0000 0.0000 0.0000 33.2977
#
#
#
# Elastic Compliance Matrix: (Units=1/GPa)
#
#
# Indices 1 2 3 4 5 6 
#
# 1 0.021545 -0.005995 -0.005084 0.000000 0.000000 0.000000
# 2 -0.005995 0.009645 -0.005598 0.000000 0.000000 0.000000
# 3 -0.005084 -0.005598 0.020237 0.000000 0.000000 0.000000
# 4 0.000000 0.000000 0.000000 -4.087349 0.000000 0.000000
# 5 0.000000 0.000000 0.000000 0.000000 0.048071 0.000000
# 6 0.000000 0.000000 0.000000 0.000000 0.000000 0.030032
#
#
# Mechanical properties :
#
#
# Convention : Reuss Voigt Hill
#
# Bulk Modulus (GPa) = 55.33243 75.98734 65.65988
# Shear Modulus (GPa) = -1.27602 21.69273 10.20836
#
# Velocity S-wave (km/s) = -0.84765 3.49498 2.39754
# Velocity P-wave (km/s) = 5.49536 7.68596 6.68105
#
# Compressibility (1/GPa) = 0.01807259
#
# Stress axis : x y z
#
# Youngs Moduli (GPa) = 46.41433 103.68597 49.41428
#
# Poissons Ratio (x) = 0.62164 0.25121
# Poissons Ratio (y) = 0.27827 0.27661
# Poissons Ratio (z) = 0.23596 0.58042
#
# Static dielectric constant tensor:
#      x y z
#    x 3.243420 0.000000 0.000000 
#    y 0.000000 3.829430 0.000000 
#    z 0.000000 0.000000 2.895710 
# 
# 
# High freq. dielectric constant tensor:
#      x y z
#    x 1.660470 0.000000 0.000000 
#    y 0.000000 1.713990 0.000000 
#    z 0.000000 0.000000 1.638560 
# 
# From -- ./inp_files/37088.got.cif
#   From: 2010.03.12/outbox.cif.g09.slc.cpg/sg67_19_cif.got.tgz:37088.got - 2010.04.10 22:41:39.
