data_PCOD8278575
_publ_section_title
;
Structure prediction by ZEFSAII (Michael W. Deem and Ramdas Pophale) SiO2 
 PCOD8278575
Probable space group: C M M A
;
_chemical_formula_sum "Si O2"
_cell_formula_units_Z 96
_cell_length_a 21.860613
_cell_length_b 22.763082
_cell_length_c 10.202520
_cell_angle_alpha 90.000000
_cell_angle_beta 90.000000
_cell_angle_gamma 90.000000
_cell_volume 5076.926238
_symmetry_space_group_name_H-M "C M M A"
_symmetry_group_IT_number 67
_symmetry_cell_setting 'orthorhombic'
loop_
_space_group_symop_operation_xyz
x,y,z
-x,1/2-y,z
x,-y,-z
-x,1/2+y,-z
-x,-y,-z
x,1/2+y,-z
-x,y,z
x,1/2-y,z
1/2+x,1/2+y,z
1/2-x,-y,z
1/2+x,1/2-y,-z
1/2-x,y,-z
1/2-x,1/2-y,-z
1/2+x,y,-z
1/2-x,1/2+y,z
1/2+x,-y,z
loop_
_atom_site_type_symbol
_atom_site_label
_atom_site_fract_x
_atom_site_fract_y
_atom_site_fract_z
Si Si1 0.753105 0.373192 0.843424
Si Si2 0.066517 0.620093 0.997513
Si Si3 0.930042 0.750000 0.938040
Si Si4 0.931589 0.569425 0.514861
Si Si5 0.622640 0.923905 0.757497
Si Si6 0.790373 0.250000 0.133983
Si Si7 0.858877 0.938179 0.768932
O O1 0.821491 0.382403 0.795644
O O2 0.730381 0.309393 0.793669
O O3 0.712311 0.421509 0.768040
O O4 0.750000 0.380595 0.000000
O O5 0.069455 0.589400 0.138742
O O6 0.000000 0.606450 0.937480
O O7 0.075070 0.690090 0.021201
O O8 0.115225 0.592335 0.899291
O O9 0.865313 0.750000 0.859298
O O10 0.000000 0.750000 0.869188
O O11 0.934781 0.500000 0.500000
O O12 0.899060 0.595280 0.386406
O O13 0.893365 0.588081 0.642531
O O14 0.000000 0.595329 0.528470
O O15 0.638123 0.992126 0.770540
O O16 0.750000 0.250000 0.000000
#
# Coordination Sequence:
#
# PCOD8278575 Si02
#       7
#    16  16   8  16  16   8  16
#     4  11  21  35  57  85 115 149 192 238 290 338
#     4  11  21  34  57  85 112 148 194 243 289 340
#     4  10  20  36  56  84 115 150 200 248 291 342
#     4   9  20  38  56  78 115 158 194 229 281 351
#     4  11  22  35  55  85 118 153 184 235 288 350
#     4  10  18  36  58  79 114 156 195 237 295 354
#     4  11  21  35  57  84 117 149 188 233 292 341
#
# _framework density 18.909078999999998
#
# number of rings (size 3 to 8) (size 9 to 14) (size 15 to 20)
#    0.000    1.500    3.333    3.000    0.000    4.000 
#    0.000    2.500    0.000    5.000    0.000    8.167 
#    0.000    0.000    0.000    0.000    0.000    0.000 
#
# Total GULP energy -594772.994969 kJ/mol
# GULP energy per Si atom -12391.104062 kJ/mol
# Density = 1.886604 g / cm^3
# Si number density = 18.909079 Si / 1000 Ang^3
#
#
#
# Elastic Constant Matrix: (Units=GPa)
#
#
# Indices 1 2 3 4 5 6 
#
# 1 108.3541 21.9854 31.0637 0.0000 0.0000 0.0000
# 2 21.9854 82.1045 21.1633 0.0000 0.0000 0.0000
# 3 31.0637 21.1633 103.2423 0.0000 0.0000 0.0000
# 4 0.0000 0.0000 0.0000 5.2793 0.0000 0.0000
# 5 0.0000 0.0000 0.0000 0.0000 29.8627 0.0000
# 6 0.0000 0.0000 0.0000 0.0000 0.0000 26.1075
#
#
#
# Elastic Compliance Matrix: (Units=1/GPa)
#
#
# Indices 1 2 3 4 5 6 
#
# 1 0.010431 -0.002095 -0.002709 0.000000 0.000000 0.000000
# 2 -0.002095 0.013280 -0.002092 0.000000 0.000000 0.000000
# 3 -0.002709 -0.002092 0.010930 0.000000 0.000000 0.000000
# 4 0.000000 0.000000 0.000000 0.189420 0.000000 0.000000
# 5 0.000000 0.000000 0.000000 0.000000 0.033487 0.000000
# 6 0.000000 0.000000 0.000000 0.000000 0.000000 0.038303
#
#
# Mechanical properties :
#
#
# Convention : Reuss Voigt Hill
#
# Bulk Modulus (GPa) = 47.96411 49.12508 48.54460
# Shear Modulus (GPa) = 15.79324 26.88246 21.33785
#
# Velocity S-wave (km/s) = 2.89315 3.77459 3.36288
# Velocity P-wave (km/s) = 6.04824 6.71065 6.38803
#
# Compressibility (1/GPa) = 0.02084892
#
# Stress axis : x y z
#
# Youngs Moduli (GPa) = 95.87109 75.30273 91.49259
#
# Poissons Ratio (x) = 0.15774 0.24785
# Poissons Ratio (y) = 0.20083 0.19139
# Poissons Ratio (z) = 0.25971 0.15752
#
# Static dielectric constant tensor:
#      x y z
#    x 3.815690 0.000000 0.000000 
#    y 0.000000 3.529740 0.000000 
#    z 0.000000 0.000000 3.372110 
# 
# 
# High freq. dielectric constant tensor:
#      x y z
#    x 1.759670 0.000000 0.000000 
#    y 0.000000 1.729230 0.000000 
#    z 0.000000 0.000000 1.699280 
# 
# From -- ./inp_files/12699.got.cif
#   From: 2010.03.12/outbox.cif.g09.slc.cpg/sg67_7_cif.got.tgz:12699.got - 2010.04.10 22:41:39.
