data_PCOD8278810
_publ_section_title
;
Structure prediction by ZEFSAII (Michael W. Deem and Ramdas Pophale) SiO2 
 PCOD8278810
Probable space group: C M M A
;
_chemical_formula_sum "Si O2"
_cell_formula_units_Z 112
_cell_length_a 14.062133
_cell_length_b 18.106137
_cell_length_c 22.296973
_cell_angle_alpha 90.000000
_cell_angle_beta 90.000000
_cell_angle_gamma 90.000000
_cell_volume 5677.052510
_symmetry_space_group_name_H-M "C M M A"
_symmetry_group_IT_number 67
_symmetry_cell_setting 'orthorhombic'
loop_
_space_group_symop_operation_xyz
x,y,z
-x,1/2-y,z
x,-y,-z
-x,1/2+y,-z
-x,-y,-z
x,1/2+y,-z
-x,y,z
x,1/2-y,z
1/2+x,1/2+y,z
1/2-x,-y,z
1/2+x,1/2-y,-z
1/2-x,y,-z
1/2-x,1/2-y,-z
1/2+x,y,-z
1/2-x,1/2+y,z
1/2+x,-y,z
loop_
_atom_site_type_symbol
_atom_site_label
_atom_site_fract_x
_atom_site_fract_y
_atom_site_fract_z
Si Si1 0.897041 0.831885 0.258638
Si Si2 0.894509 0.662072 0.029462
Si Si3 0.740380 0.668272 0.570587
Si Si4 0.306390 0.334233 0.780482
Si Si5 0.612457 0.605011 0.341454
Si Si6 0.294495 0.337933 0.910510
Si Si7 0.106487 0.939243 0.368589
O O1 0.894078 0.750000 0.288348
O O2 0.808515 0.839723 0.214434
O O3 0.884661 0.893305 0.308379
O O4 0.000000 0.842671 0.225707
O O5 0.896386 0.750000 0.030798
O O6 0.813022 0.632633 0.075040
O O7 0.000000 0.630789 0.045538
O O8 0.866712 0.635733 0.962129
O O9 0.702959 0.750000 0.589354
O O10 0.750000 0.666247 0.500000
O O11 0.837533 0.655994 0.608488
O O12 0.667857 0.602117 0.582043
O O13 0.340250 0.250000 0.771155
O O14 0.350553 0.380193 0.725955
O O15 0.335449 0.366167 0.846013
O O16 0.500000 0.618694 0.344178
O O17 0.642933 0.521560 0.356298
O O18 0.288988 0.250000 0.907634
O O19 0.000000 0.942044 0.393601
#
# Coordination Sequence:
#
# PCOD8278810 Si02
#       7
#    16  16  16  16  16  16  16
#     4   9  17  30  51  78 105 135 175 223 275 329
#     4   8  13  23  39  59  91 135 179 226 276 322
#     4  11  24  41  62  87 113 144 184 228 275 329
#     4  10  19  31  49  74 108 148 187 230 281 335
#     4  11  24  39  56  81 114 150 185 224 274 334
#     4   8  15  25  38  63  96 134 183 227 268 327
#     4  10  21  38  60  83 108 142 183 227 275 324
#
# _framework density 19.728548
#
# number of rings (size 3 to 8) (size 9 to 14) (size 15 to 20)
#    0.000    2.429    1.429    2.143    0.000    4.857 
#    0.000    7.143    0.000    0.000    0.000    0.000 
#    0.000    9.143    0.000   26.000    0.000   26.000 
#
# Total GULP energy -693734.480872 kJ/mol
# GULP energy per Si atom -12388.115730 kJ/mol
# Density = 1.968364 g / cm^3
# Si number density = 19.728548 Si / 1000 Ang^3
#
#
#
# Elastic Constant Matrix: (Units=GPa)
#
#
# Indices 1 2 3 4 5 6 
#
# 1 78.9005 20.5866 37.0318 0.0000 0.0000 0.0000
# 2 20.5866 82.8295 36.6075 0.0000 0.0000 0.0000
# 3 37.0318 36.6075 117.9805 0.0000 0.0000 0.0000
# 4 0.0000 0.0000 0.0000 -10.6801 0.0000 0.0000
# 5 0.0000 0.0000 0.0000 0.0000 14.7011 0.0000
# 6 0.0000 0.0000 0.0000 0.0000 0.0000 18.3585
#
#
#
# Elastic Compliance Matrix: (Units=1/GPa)
#
#
# Indices 1 2 3 4 5 6 
#
# 1 0.015124 -0.001925 -0.004150 0.000000 0.000000 0.000000
# 2 -0.001925 0.014237 -0.003813 0.000000 0.000000 0.000000
# 3 -0.004150 -0.003813 0.010962 0.000000 0.000000 0.000000
# 4 0.000000 0.000000 0.000000 -0.093632 0.000000 0.000000
# 5 0.000000 0.000000 0.000000 0.000000 0.068022 0.000000
# 6 0.000000 0.000000 0.000000 0.000000 0.000000 0.054471
#
#
# Mechanical properties :
#
#
# Convention : Reuss Voigt Hill
#
# Bulk Modulus (GPa) = 48.67002 52.01804 50.34403
# Shear Modulus (GPa) = 52.18762 16.84155 34.51459
#
# Velocity S-wave (km/s) = 5.14881 2.92492 4.18721
# Velocity P-wave (km/s) = 7.75051 6.15069 6.99648
#
# Compressibility (1/GPa) = 0.02054653
#
# Stress axis : x y z
#
# Youngs Moduli (GPa) = 66.11927 70.24095 91.22636
#
# Poissons Ratio (x) = 0.13521 0.37858
# Poissons Ratio (y) = 0.12727 0.34787
# Poissons Ratio (z) = 0.27439 0.26785
#
# Static dielectric constant tensor:
#      x y z
#    x 3.957540 0.000000 0.000000 
#    y 0.000000 3.511220 0.000000 
#    z 0.000000 0.000000 3.590730 
# 
# 
# High freq. dielectric constant tensor:
#      x y z
#    x 1.776350 0.000000 0.000000 
#    y 0.000000 1.734020 0.000000 
#    z 0.000000 0.000000 1.760120 
# 
# From -- ./inp_files/41916.got.cif
#   From: 2010.03.12/outbox.cif.g09.slc.cpg/sg67_21_cif.got.tgz:41916.got - 2010.04.10 22:41:39.
