data_PCOD8278662
_publ_section_title
;
Structure prediction by ZEFSAII (Michael W. Deem and Ramdas Pophale) SiO2 
 PCOD8278662
Probable space group: C M M A
;
_chemical_formula_sum "Si O2"
_cell_formula_units_Z 120
_cell_length_a 27.317447
_cell_length_b 8.881934
_cell_length_c 28.963441
_cell_angle_alpha 90.000000
_cell_angle_beta 90.000000
_cell_angle_gamma 90.000000
_cell_volume 7027.450703
_symmetry_space_group_name_H-M "C M M A"
_symmetry_group_IT_number 67
_symmetry_cell_setting 'orthorhombic'
loop_
_space_group_symop_operation_xyz
x,y,z
-x,1/2-y,z
x,-y,-z
-x,1/2+y,-z
-x,-y,-z
x,1/2+y,-z
-x,y,z
x,1/2-y,z
1/2+x,1/2+y,z
1/2-x,-y,z
1/2+x,1/2-y,-z
1/2-x,y,-z
1/2-x,1/2-y,-z
1/2+x,y,-z
1/2-x,1/2+y,z
1/2+x,-y,z
loop_
_atom_site_type_symbol
_atom_site_label
_atom_site_fract_x
_atom_site_fract_y
_atom_site_fract_z
Si Si1 0.106704 0.426140 0.950229
Si Si2 0.556838 0.072998 0.639921
Si Si3 0.054725 0.920673 0.802461
Si Si4 0.143899 0.078430 0.134099
Si Si5 0.801905 0.570809 0.775286
Si Si6 0.890644 0.072791 0.724279
Si Si7 0.500000 0.424310 0.048368
Si Si8 0.557957 0.580978 0.545312
O O1 0.113755 0.250000 0.956768
O O2 0.146879 0.483386 0.913176
O O3 0.052419 0.467857 0.928742
O O4 0.115853 0.500000 0.000000
O O5 0.500000 0.033654 0.649859
O O6 0.566109 0.250000 0.643846
O O7 0.591612 0.985443 0.675017
O O8 0.572915 0.017497 0.589461
O O9 0.059920 0.750000 0.783101
O O10 0.089656 0.943526 0.845795
O O11 0.000000 0.954828 0.819807
O O12 0.067526 0.034585 0.761468
O O13 0.154718 0.250000 0.121047
O O14 0.182467 0.021618 0.172692
O O15 0.800447 0.750000 0.771278
O O16 0.750000 0.500000 0.763401
O O17 0.840272 0.508818 0.738103
O O18 0.881729 0.250000 0.722423
O O19 0.500000 0.250000 0.038642
O O20 0.500000 0.500000 0.000000
O O21 0.580129 0.500000 0.500000
O O22 0.500000 0.589727 0.540807
O O23 0.579551 0.750000 0.549500
#
# Coordination Sequence:
#
# PCOD8278662 Si02
#       8
#    16  16  16  16  16  16   8  16
#     4  10  19  31  47  67  95 127 160 195 230 270
#     4  10  19  30  45  66  97 138 177 214 255 295
#     4   9  18  32  47  65  94 131 164 196 236 282
#     4   9  19  33  50  73  97 123 155 190 232 283
#     4  10  21  39  60  78  98 122 153 194 243 296
#     4  11  21  32  48  72  99 127 162 201 244 294
#     4   8  16  28  40  60  88 122 158 190 220 254
#     4   9  16  26  40  60  89 128 175 220 257 295
#
# _framework density 17.075894000000002
#
# number of rings (size 3 to 8) (size 9 to 14) (size 15 to 20)
#    0.000    2.400    0.000    4.000    0.933    7.467 
#    0.000    0.000    0.000    0.400    0.000    2.800 
#    0.000    0.533    0.000    5.333    0.000    3.467 
#
# Total GULP energy -743682.240538 kJ/mol
# GULP energy per Si atom -12394.704009 kJ/mol
# Density = 1.703703 g / cm^3
# Si number density = 17.075894 Si / 1000 Ang^3
#
#
#
# Elastic Constant Matrix: (Units=GPa)
#
#
# Indices 1 2 3 4 5 6 
#
# 1 68.5374 28.7899 31.7320 0.0000 0.0000 0.0000
# 2 28.7899 88.5376 47.3842 0.0000 0.0000 0.0000
# 3 31.7320 47.3842 99.4495 0.0000 0.0000 0.0000
# 4 0.0000 0.0000 0.0000 32.2811 0.0000 0.0000
# 5 0.0000 0.0000 0.0000 0.0000 11.4676 0.0000
# 6 0.0000 0.0000 0.0000 0.0000 0.0000 20.7491
#
#
#
# Elastic Compliance Matrix: (Units=1/GPa)
#
#
# Indices 1 2 3 4 5 6 
#
# 1 0.017992 -0.003729 -0.003964 0.000000 0.000000 0.000000
# 2 -0.003729 0.015933 -0.006402 0.000000 0.000000 0.000000
# 3 -0.003964 -0.006402 0.014371 0.000000 0.000000 0.000000
# 4 0.000000 0.000000 0.000000 0.030978 0.000000 0.000000
# 5 0.000000 0.000000 0.000000 0.000000 0.087202 0.000000
# 6 0.000000 0.000000 0.000000 0.000000 0.000000 0.048195
#
#
# Mechanical properties :
#
#
# Convention : Reuss Voigt Hill
#
# Bulk Modulus (GPa) = 49.73611 52.48186 51.10898
# Shear Modulus (GPa) = 20.03498 22.80744 21.42121
#
# Velocity S-wave (km/s) = 3.42905 3.65862 3.54569
# Velocity P-wave (km/s) = 6.69833 6.97485 6.83799
#
# Compressibility (1/GPa) = 0.02010612
#
# Stress axis : x y z
#
# Youngs Moduli (GPa) = 55.57910 62.76127 69.58694
#
# Poissons Ratio (x) = 0.23404 0.27586
# Poissons Ratio (y) = 0.20725 0.44549
# Poissons Ratio (z) = 0.22033 0.40179
#
# Static dielectric constant tensor:
#      x y z
#    x 2.998160 0.000000 0.000000 
#    y 0.000000 3.241790 0.000000 
#    z 0.000000 0.000000 3.121830 
# 
# 
# High freq. dielectric constant tensor:
#      x y z
#    x 1.616070 0.000000 0.000000 
#    y 0.000000 1.671080 0.000000 
#    z 0.000000 0.000000 1.653380 
# 
# From -- ./inp_files/45035.got.cif
#   From: 2010.03.12/outbox.cif.g09.slc.cpg/sg67_23_cif.got.tgz:45035.got - 2010.04.10 22:41:39.
