data_PCOD8278999
_publ_section_title
;
Structure prediction by ZEFSAII (Michael W. Deem and Ramdas Pophale) SiO2 
 PCOD8278999
Probable space group: C M M A
;
_chemical_formula_sum "Si O2"
_cell_formula_units_Z 96
_cell_length_a 8.711537
_cell_length_b 18.631977
_cell_length_c 30.812496
_cell_angle_alpha 90.000000
_cell_angle_beta 90.000000
_cell_angle_gamma 90.000000
_cell_volume 5001.273501
_symmetry_space_group_name_H-M "C M M A"
_symmetry_group_IT_number 67
_symmetry_cell_setting 'orthorhombic'
loop_
_space_group_symop_operation_xyz
x,y,z
-x,1/2-y,z
x,-y,-z
-x,1/2+y,-z
-x,-y,-z
x,1/2+y,-z
-x,y,z
x,1/2-y,z
1/2+x,1/2+y,z
1/2-x,-y,z
1/2+x,1/2-y,-z
1/2-x,y,-z
1/2-x,1/2-y,-z
1/2+x,y,-z
1/2-x,1/2+y,z
1/2+x,-y,z
loop_
_atom_site_type_symbol
_atom_site_label
_atom_site_fract_x
_atom_site_fract_y
_atom_site_fract_z
Si Si1 0.817801 0.422858 0.045482
Si Si2 0.681977 0.578743 0.208028
Si Si3 0.179292 0.332659 0.291375
Si Si4 0.325497 0.834608 0.619196
Si Si5 0.180214 0.576509 0.545144
Si Si6 0.317728 0.669496 0.126854
O O1 0.750000 0.500000 0.057922
O O2 0.764870 0.366843 0.082031
O O3 0.000000 0.429297 0.041976
O O4 0.750000 0.395068 0.000000
O O5 0.500000 0.573604 0.205944
O O6 0.750000 0.500000 0.207231
O O7 0.736194 0.619428 0.251342
O O8 0.746768 0.623258 0.167043
O O9 0.217194 0.250000 0.280462
O O10 0.270647 0.360024 0.333459
O O11 0.000000 0.342882 0.300585
O O12 0.500000 0.860043 0.612161
O O13 0.308126 0.750000 0.615235
O O14 0.217210 0.867906 0.582871
O O15 0.250000 0.500000 0.557855
O O16 0.250000 0.605234 0.500000
O O17 0.000000 0.568609 0.539404
O O18 0.500000 0.672501 0.129597
O O19 0.249561 0.750000 0.128944
#
# Coordination Sequence:
#
# PCOD8278999 Si02
#       6
#    16  16  16  16  16  16
#     4  10  19  32  52  75 102 135 170 211 257 307
#     4  10  20  34  54  78 104 134 170 214 260 311
#     4   9  18  34  55  77 102 136 177 217 259 309
#     4  10  21  37  57  82 112 145 181 222 268 318
#     4  11  22  38  59  82 111 145 183 226 272 322
#     4   9  18  33  53  76 101 133 173 214 257 306
#
# _framework density 19.195111000000001
#
# number of rings (size 3 to 8) (size 9 to 14) (size 15 to 20)
#    0.000    2.167    0.000    4.500    0.000    5.000 
#    0.000    2.500    0.000    5.000    0.000    0.000 
#    0.000    0.000    0.000    0.000    0.000    0.000 
#
# Total GULP energy -595330.852096 kJ/mol
# GULP energy per Si atom -12402.726085 kJ/mol
# Density = 1.915142 g / cm^3
# Si number density = 19.195111 Si / 1000 Ang^3
#
#
#
# Elastic Constant Matrix: (Units=GPa)
#
#
# Indices 1 2 3 4 5 6 
#
# 1 82.5498 33.6066 49.5922 0.0000 0.0000 0.0000
# 2 33.6066 115.5898 91.4317 0.0000 0.0000 0.0000
# 3 49.5922 91.4317 167.3673 0.0000 0.0000 0.0000
# 4 0.0000 0.0000 0.0000 40.9905 0.0000 0.0000
# 5 0.0000 0.0000 0.0000 0.0000 25.0708 0.0000
# 6 0.0000 0.0000 0.0000 0.0000 0.0000 27.5509
#
#
#
# Elastic Compliance Matrix: (Units=1/GPa)
#
#
# Indices 1 2 3 4 5 6 
#
# 1 0.014879 -0.001477 -0.003602 0.000000 0.000000 0.000000
# 2 -0.001477 0.015381 -0.007965 0.000000 0.000000 0.000000
# 3 -0.003602 -0.007965 0.011393 0.000000 0.000000 0.000000
# 4 0.000000 0.000000 0.000000 0.024396 0.000000 0.000000
# 5 0.000000 0.000000 0.000000 0.000000 0.039887 0.000000
# 6 0.000000 0.000000 0.000000 0.000000 0.000000 0.036296
#
#
# Mechanical properties :
#
#
# Convention : Reuss Voigt Hill
#
# Bulk Modulus (GPa) = 64.24282 79.41865 71.83073
# Shear Modulus (GPa) = 28.81700 31.44753 30.13227
#
# Velocity S-wave (km/s) = 3.87882 4.05199 3.96635
# Velocity P-wave (km/s) = 7.32129 7.95963 7.64713
#
# Compressibility (1/GPa) = 0.01556594
#
# Stress axis : x y z
#
# Youngs Moduli (GPa) = 67.20874 65.01579 87.77017
#
# Poissons Ratio (x) = 0.09601 0.31615
# Poissons Ratio (y) = 0.09925 0.69908
# Poissons Ratio (z) = 0.24209 0.51785
#
# Static dielectric constant tensor:
#      x y z
#    x 3.390220 0.000000 0.000000 
#    y 0.000000 3.494470 0.000000 
#    z 0.000000 0.000000 3.708260 
# 
# 
# High freq. dielectric constant tensor:
#      x y z
#    x 1.734080 0.000000 0.000000 
#    y 0.000000 1.744700 0.000000 
#    z 0.000000 0.000000 1.762410 
# 
# From -- ./inp_files/43440.got.cif
#   From: 2010.03.12/outbox.cif.g09.slc.cpg/sg67_22_cif.got.tgz:43440.got - 2010.04.10 22:41:39.
