data_PCOD8278271
_publ_section_title
;
Structure prediction by ZEFSAII (Michael W. Deem and Ramdas Pophale) SiO2 
 PCOD8278271
Probable space group: C M M A
;
_chemical_formula_sum "Si O2"
_cell_formula_units_Z 104
_cell_length_a 27.173993
_cell_length_b 8.667690
_cell_length_c 24.003283
_cell_angle_alpha 90.000000
_cell_angle_beta 90.000000
_cell_angle_gamma 90.000000
_cell_volume 5653.631201
_symmetry_space_group_name_H-M "C M M A"
_symmetry_group_IT_number 67
_symmetry_cell_setting 'orthorhombic'
loop_
_space_group_symop_operation_xyz
x,y,z
-x,1/2-y,z
x,-y,-z
-x,1/2+y,-z
-x,-y,-z
x,1/2+y,-z
-x,y,z
x,1/2-y,z
1/2+x,1/2+y,z
1/2-x,-y,z
1/2+x,1/2-y,-z
1/2-x,y,-z
1/2-x,1/2-y,-z
1/2+x,y,-z
1/2-x,1/2+y,z
1/2+x,-y,z
loop_
_atom_site_type_symbol
_atom_site_label
_atom_site_fract_x
_atom_site_fract_y
_atom_site_fract_z
Si Si1 0.054533 0.926564 0.734448
Si Si2 0.646322 0.568850 0.338067
Si Si3 0.101032 0.932937 0.438857
Si Si4 0.698421 0.066508 0.236445
Si Si5 0.605428 0.069132 0.168173
Si Si6 0.943891 0.932954 0.057801
Si Si7 0.000000 0.065577 0.438317
O O1 0.062122 0.750000 0.752213
O O2 0.093593 0.973655 0.688102
O O3 0.000000 0.955549 0.709825
O O4 0.061548 0.027915 0.789680
O O5 0.655555 0.750000 0.345260
O O6 0.645797 0.486587 0.398578
O O7 0.688373 0.498287 0.298538
O O8 0.097732 0.750000 0.442657
O O9 0.111363 0.000000 0.500000
O O10 0.050478 0.001419 0.411711
O O11 0.699621 0.250000 0.238917
O O12 0.657127 0.004430 0.192757
O O13 0.750000 0.000000 0.214894
O O14 0.609604 0.250000 0.163311
O O15 0.591184 0.002200 0.107345
O O16 0.941981 0.750000 0.055314
O O17 0.000000 0.989588 0.067849
O O18 0.923184 0.000000 0.000000
O O19 0.000000 0.250000 0.435669
O O20 0.000000 0.000000 0.500000
#
# Coordination Sequence:
#
# PCOD8278271 Si02
#       7
#    16  16  16  16  16  16   8
#     4   9  18  30  45  69 100 133 165 202 248 297
#     4  10  20  34  52  75 102 133 167 207 255 306
#     4  11  21  34  50  72 100 135 175 213 254 303
#     4  10  20  36  57  79 101 127 164 212 264 317
#     4   9  18  32  50  72  99 132 170 211 253 302
#     4   9  17  29  46  71 104 141 177 210 247 290
#     4  10  18  30  46  66  94 132 174 212 247 290
#
# _framework density 18.395257999999998
#
# number of rings (size 3 to 8) (size 9 to 14) (size 15 to 20)
#    0.000    2.308    0.000    4.385    1.077    2.769 
#    0.000    1.538    0.000    0.923    0.000    6.462 
#    0.000    0.000    0.000    0.000    0.000    0.000 
#
# Total GULP energy -644612.632880 kJ/mol
# GULP energy per Si atom -12396.396786 kJ/mol
# Density = 1.835339 g / cm^3
# Si number density = 18.395258 Si / 1000 Ang^3
#
#
#
# Elastic Constant Matrix: (Units=GPa)
#
#
# Indices 1 2 3 4 5 6 
#
# 1 71.9641 21.0098 32.3063 0.0000 0.0000 0.0000
# 2 21.0098 77.7536 30.8975 0.0000 0.0000 0.0000
# 3 32.3063 30.8975 106.5720 0.0000 0.0000 0.0000
# 4 0.0000 0.0000 0.0000 28.1435 0.0000 0.0000
# 5 0.0000 0.0000 0.0000 0.0000 20.8662 0.0000
# 6 0.0000 0.0000 0.0000 0.0000 0.0000 25.3518
#
#
#
# Elastic Compliance Matrix: (Units=1/GPa)
#
#
# Indices 1 2 3 4 5 6 
#
# 1 0.016611 -0.002811 -0.004220 0.000000 0.000000 0.000000
# 2 -0.002811 0.015012 -0.003500 0.000000 0.000000 0.000000
# 3 -0.004220 -0.003500 0.011677 0.000000 0.000000 0.000000
# 4 0.000000 0.000000 0.000000 0.035532 0.000000 0.000000
# 5 0.000000 0.000000 0.000000 0.000000 0.047924 0.000000
# 6 0.000000 0.000000 0.000000 0.000000 0.000000 0.039445
#
#
# Mechanical properties :
#
#
# Convention : Reuss Voigt Hill
#
# Bulk Modulus (GPa) = 44.97073 47.19076 46.08075
# Shear Modulus (GPa) = 25.68347 26.34403 26.01375
#
# Velocity S-wave (km/s) = 3.74063 3.78843 3.76461
# Velocity P-wave (km/s) = 6.56935 6.69669 6.63333
#
# Compressibility (1/GPa) = 0.02223669
#
# Stress axis : x y z
#
# Youngs Moduli (GPa) = 60.20009 66.61508 85.63529
#
# Poissons Ratio (x) = 0.18728 0.36142
# Poissons Ratio (y) = 0.16925 0.29972
# Poissons Ratio (z) = 0.25407 0.23315
#
# Static dielectric constant tensor:
#      x y z
#    x 3.468300 0.000000 0.000000 
#    y 0.000000 3.306550 0.000000 
#    z 0.000000 0.000000 3.570690 
# 
# 
# High freq. dielectric constant tensor:
#      x y z
#    x 1.685820 0.000000 0.000000 
#    y 0.000000 1.714860 0.000000 
#    z 0.000000 0.000000 1.709280 
# 
# From -- ./inp_files/42932.got.cif
#   From: 2010.03.12/outbox.cif.g09.slc.cpg/sg67_22_cif.got.tgz:42932.got - 2010.04.10 22:41:39.
