data_PCOD8278412
_publ_section_title
;
Structure prediction by ZEFSAII (Michael W. Deem and Ramdas Pophale) SiO2 
 PCOD8278412
Probable space group: C M M A
;
_chemical_formula_sum "Si O2"
_cell_formula_units_Z 96
_cell_length_a 13.918273
_cell_length_b 17.184905
_cell_length_c 20.770106
_cell_angle_alpha 90.000000
_cell_angle_beta 90.000000
_cell_angle_gamma 90.000000
_cell_volume 4967.881172
_symmetry_space_group_name_H-M "C M M A"
_symmetry_group_IT_number 67
_symmetry_cell_setting 'orthorhombic'
loop_
_space_group_symop_operation_xyz
x,y,z
-x,1/2-y,z
x,-y,-z
-x,1/2+y,-z
-x,-y,-z
x,1/2+y,-z
-x,y,z
x,1/2-y,z
1/2+x,1/2+y,z
1/2-x,-y,z
1/2+x,1/2-y,-z
1/2-x,y,-z
1/2-x,1/2-y,-z
1/2+x,y,-z
1/2-x,1/2+y,z
1/2+x,-y,z
loop_
_atom_site_type_symbol
_atom_site_label
_atom_site_fract_x
_atom_site_fract_y
_atom_site_fract_z
Si Si1 0.000000 0.562700 0.201048
Si Si2 0.500000 0.065297 0.446025
Si Si3 0.812960 0.337752 0.563245
Si Si4 0.000000 0.960856 0.676458
Si Si5 0.194017 0.659077 0.197508
Si Si6 0.710586 0.413999 0.683407
Si Si7 0.500000 0.053898 0.061372
Si Si8 0.211858 0.088895 0.934124
O O1 0.906369 0.615831 0.208915
O O2 0.000000 0.496342 0.253125
O O3 0.000000 0.515385 0.132944
O O4 0.409400 0.119489 0.455952
O O5 0.500000 0.000000 0.500000
O O6 0.500000 0.029685 0.375123
O O7 0.834968 0.250000 0.586011
O O8 0.750000 0.338441 0.500000
O O9 0.761312 0.382683 0.620226
O O10 0.903610 0.909891 0.669502
O O11 0.173320 0.750000 0.196123
O O12 0.266893 0.639253 0.255069
O O13 0.244913 0.633222 0.130378
O O14 0.750000 0.500000 0.698171
O O15 0.402451 0.102608 0.059096
O O16 0.500000 0.000000 0.000000
O O17 0.250000 0.000000 0.929680
O O18 0.250000 0.127791 0.000000
#
# Coordination Sequence:
#
# PCOD8278412 Si02
#       8
#     8   8  16   8  16  16   8  16
#     4  10  21  36  62  85 120 151 200 256 304 355
#     4  12  23  39  68  96 125 163 210 262 301 357
#     4  11  25  43  64  94 131 168 204 252 313 369
#     4  12  24  38  61  99 116 153 205 258 300 354
#     4  11  23  39  59  87 123 159 198 249 309 368
#     4  12  23  41  65  90 122 158 206 254 304 362
#     4  10  18  31  53  86 112 144 188 248 301 338
#     4  10  20  34  58  85 114 152 199 247 295 355
#
# _framework density 19.324134000000001
#
# number of rings (size 3 to 8) (size 9 to 14) (size 15 to 20)
#    0.000    1.000    5.000    2.500    2.333    0.333 
#    0.000    5.000    0.000    0.000    0.000    0.000 
#    0.000    0.000    0.000    0.000    0.000    0.000 
#
# Total GULP energy -595058.872701 kJ/mol
# GULP energy per Si atom -12397.059848 kJ/mol
# Density = 1.928015 g / cm^3
# Si number density = 19.324134 Si / 1000 Ang^3
#
#
#
# Elastic Constant Matrix: (Units=GPa)
#
#
# Indices 1 2 3 4 5 6 
#
# 1 134.8697 30.8796 22.6271 0.0000 0.0000 0.0000
# 2 30.8796 76.2502 27.6125 0.0000 0.0000 0.0000
# 3 22.6271 27.6125 110.7154 0.0000 0.0000 0.0000
# 4 0.0000 0.0000 0.0000 21.1446 0.0000 0.0000
# 5 0.0000 0.0000 0.0000 0.0000 -31.9961 0.0000
# 6 0.0000 0.0000 0.0000 0.0000 0.0000 -77.2943
#
#
#
# Elastic Compliance Matrix: (Units=1/GPa)
#
#
# Indices 1 2 3 4 5 6 
#
# 1 0.008260 -0.003005 -0.000939 0.000000 0.000000 0.000000
# 2 -0.003005 0.015510 -0.003254 0.000000 0.000000 0.000000
# 3 -0.000939 -0.003254 0.010036 0.000000 0.000000 0.000000
# 4 0.000000 0.000000 0.000000 0.047294 0.000000 0.000000
# 5 0.000000 0.000000 0.000000 0.000000 -0.031254 0.000000
# 6 0.000000 0.000000 0.000000 0.000000 0.000000 -0.012938
#
#
# Mechanical properties :
#
#
# Convention : Reuss Voigt Hill
#
# Bulk Modulus (GPa) = 51.51992 53.78599 52.65295
# Shear Modulus (GPa) = 86.54440 -1.58143 42.48149
#
# Velocity S-wave (km/s) = 6.69947 -0.90562 4.69376
# Velocity P-wave (km/s) = 9.30390 5.17692 7.52872
#
# Compressibility (1/GPa) = 0.01940997
#
# Stress axis : x y z
#
# Youngs Moduli (GPa) = 121.06365 64.47379 99.64568
#
# Poissons Ratio (x) = 0.19376 0.09353
# Poissons Ratio (y) = 0.36383 0.32425
# Poissons Ratio (z) = 0.11363 0.20980
#
# Static dielectric constant tensor:
#      x y z
#    x 3.825060 0.000000 0.000000 
#    y 0.000000 3.453310 0.000000 
#    z 0.000000 0.000000 4.024190 
# 
# 
# High freq. dielectric constant tensor:
#      x y z
#    x 1.763240 0.000000 0.000000 
#    y 0.000000 1.722910 0.000000 
#    z 0.000000 0.000000 1.781930 
# 
# From -- ./inp_files/38598.got.cif
#   From: 2010.03.12/outbox.cif.g09.slc.cpg/sg67_20_cif.got.tgz:38598.got - 2010.04.10 22:41:39.
