data_PCOD8278740
_publ_section_title
;
Structure prediction by ZEFSAII (Michael W. Deem and Ramdas Pophale) SiO2 
 PCOD8278740
Probable space group: C M M A
;
_chemical_formula_sum "Si O2"
_cell_formula_units_Z 88
_cell_length_a 25.690817
_cell_length_b 8.652087
_cell_length_c 22.455827
_cell_angle_alpha 90.000000
_cell_angle_beta 90.000000
_cell_angle_gamma 90.000000
_cell_volume 4991.462897
_symmetry_space_group_name_H-M "C M M A"
_symmetry_group_IT_number 67
_symmetry_cell_setting 'orthorhombic'
loop_
_space_group_symop_operation_xyz
x,y,z
-x,1/2-y,z
x,-y,-z
-x,1/2+y,-z
-x,-y,-z
x,1/2+y,-z
-x,y,z
x,1/2-y,z
1/2+x,1/2+y,z
1/2-x,-y,z
1/2+x,1/2-y,-z
1/2-x,y,-z
1/2-x,1/2-y,-z
1/2+x,y,-z
1/2-x,1/2+y,z
1/2+x,-y,z
loop_
_atom_site_type_symbol
_atom_site_label
_atom_site_fract_x
_atom_site_fract_y
_atom_site_fract_z
Si Si1 0.806988 0.433991 0.058754
Si Si2 0.845158 0.928172 0.816438
Si Si3 0.590733 0.070999 0.356761
Si Si4 0.000000 0.566699 0.565489
Si Si5 0.694303 0.934491 0.309757
Si Si6 0.441837 0.076390 0.224718
O O1 0.808736 0.250000 0.057378
O O2 0.750000 0.500000 0.054696
O O3 0.828881 0.503555 0.120786
O O4 0.837417 0.500000 0.000000
O O5 0.831740 0.750000 0.819083
O O6 0.816189 0.997720 0.757919
O O7 0.906602 0.955019 0.810313
O O8 0.597350 0.250000 0.373967
O O9 0.561055 0.048261 0.294872
O O10 0.553687 0.989580 0.404486
O O11 0.648501 0.995223 0.353319
O O12 0.000000 0.500000 0.500000
O O13 0.000000 0.750000 0.564997
O O14 0.694575 0.750000 0.312038
O O15 0.750000 0.000000 0.331306
O O16 0.500000 0.047568 0.202495
O O17 0.423102 0.250000 0.209755
#
# Coordination Sequence:
#
# PCOD8278740 Si02
#       6
#    16  16  16   8  16  16
#     4  10  19  31  46  65  90 121 160 202 248 299
#     4   9  19  31  45  69  98 128 165 207 252 305
#     4  10  19  35  55  78 109 141 174 216 260 306
#     4  12  24  38  58  84 112 144 179 218 257 300
#     4  10  19  32  50  77 108 141 176 212 261 315
#     4   9  17  30  49  73 100 129 161 200 250 303
#
# _framework density 17.630102999999998
#
# number of rings (size 3 to 8) (size 9 to 14) (size 15 to 20)
#    0.000    2.182    0.909    3.545    0.000    3.273 
#    0.000    0.000    0.000    1.091    0.000    3.818 
#    0.000    0.000    0.000    0.000    0.000    0.000 
#
# Total GULP energy -545314.296202 kJ/mol
# GULP energy per Si atom -12393.506732 kJ/mol
# Density = 1.758998 g / cm^3
# Si number density = 17.630103 Si / 1000 Ang^3
#
#
#
# Elastic Constant Matrix: (Units=GPa)
#
#
# Indices 1 2 3 4 5 6 
#
# 1 118.4409 40.0072 56.8498 0.0000 0.0000 0.0000
# 2 40.0072 83.7974 39.8881 0.0000 0.0000 0.0000
# 3 56.8498 39.8881 104.3675 0.0000 0.0000 0.0000
# 4 0.0000 0.0000 0.0000 20.5259 0.0000 0.0000
# 5 0.0000 0.0000 0.0000 0.0000 21.2951 0.0000
# 6 0.0000 0.0000 0.0000 0.0000 0.0000 30.0637
#
#
#
# Elastic Compliance Matrix: (Units=1/GPa)
#
#
# Indices 1 2 3 4 5 6 
#
# 1 0.012107 -0.003228 -0.005361 0.000000 0.000000 0.000000
# 2 -0.003228 0.015448 -0.004146 0.000000 0.000000 0.000000
# 3 -0.005361 -0.004146 0.014086 0.000000 0.000000 0.000000
# 4 0.000000 0.000000 0.000000 0.048719 0.000000 0.000000
# 5 0.000000 0.000000 0.000000 0.000000 0.046959 0.000000
# 6 0.000000 0.000000 0.000000 0.000000 0.000000 0.033263
#
#
# Mechanical properties :
#
#
# Convention : Reuss Voigt Hill
#
# Bulk Modulus (GPa) = 61.83756 64.45512 63.14634
# Shear Modulus (GPa) = 24.82116 25.70100 25.26108
#
# Velocity S-wave (km/s) = 3.75625 3.82224 3.78939
# Velocity P-wave (km/s) = 7.34600 7.49123 7.41897
#
# Compressibility (1/GPa) = 0.01617140
#
# Stress axis : x y z
#
# Youngs Moduli (GPa) = 82.59992 64.73263 70.99260
#
# Poissons Ratio (x) = 0.20897 0.38057
# Poissons Ratio (y) = 0.26665 0.29431
# Poissons Ratio (z) = 0.44280 0.26836
#
# Static dielectric constant tensor:
#      x y z
#    x 3.264500 0.000000 0.000000 
#    y 0.000000 3.294880 0.000000 
#    z 0.000000 0.000000 3.588090 
# 
# 
# High freq. dielectric constant tensor:
#      x y z
#    x 1.674700 0.000000 0.000000 
#    y 0.000000 1.686160 0.000000 
#    z 0.000000 0.000000 1.662980 
# 
# From -- ./inp_files/39583.got.cif
#   From: 2010.03.12/outbox.cif.g09.slc.cpg/sg67_20_cif.got.tgz:39583.got - 2010.04.10 22:41:39.
