data_PCOD8278743
_publ_section_title
;
Structure prediction by ZEFSAII (Michael W. Deem and Ramdas Pophale) SiO2 
 PCOD8278743
Probable space group: C M M A
;
_chemical_formula_sum "Si O2"
_cell_formula_units_Z 80
_cell_length_a 27.961313
_cell_length_b 9.589445
_cell_length_c 19.793408
_cell_angle_alpha 90.000000
_cell_angle_beta 90.000000
_cell_angle_gamma 90.000000
_cell_volume 5307.275232
_symmetry_space_group_name_H-M "C M M A"
_symmetry_group_IT_number 67
_symmetry_cell_setting 'orthorhombic'
loop_
_space_group_symop_operation_xyz
x,y,z
-x,1/2-y,z
x,-y,-z
-x,1/2+y,-z
-x,-y,-z
x,1/2+y,-z
-x,y,z
x,1/2-y,z
1/2+x,1/2+y,z
1/2-x,-y,z
1/2+x,1/2-y,-z
1/2-x,y,-z
1/2-x,1/2-y,-z
1/2+x,y,-z
1/2-x,1/2+y,z
1/2+x,-y,z
loop_
_atom_site_type_symbol
_atom_site_label
_atom_site_fract_x
_atom_site_fract_y
_atom_site_fract_z
Si Si1 0.556933 0.410568 0.563954
Si Si2 0.691681 0.250000 0.082673
Si Si3 0.797617 0.250000 0.077089
Si Si4 0.443212 0.590403 0.690165
Si Si5 0.866621 0.489913 0.079508
Si Si6 0.444438 0.911251 0.182000
O O1 0.575174 0.500000 0.500000
O O2 0.500000 0.404196 0.564892
O O3 0.576538 0.250000 0.562632
O O4 0.576491 0.495825 0.628703
O O5 0.745406 0.250000 0.113049
O O6 0.658407 0.373568 0.107634
O O7 0.702913 0.250000 0.003592
O O8 0.826690 0.381537 0.101915
O O9 0.500000 0.595924 0.686238
O O10 0.423127 0.750000 0.687568
O O11 0.426673 0.512122 0.758130
O O12 0.916706 0.455459 0.114523
O O13 0.877285 0.500000 0.000000
O O14 0.500000 0.934941 0.166213
O O15 0.434670 0.750000 0.201578
#
# Coordination Sequence:
#
# PCOD8278743 Si02
#       6
#    16   8   8  16  16  16
#     4   9  15  23  37  57  80 105 136 176 217 254
#     4   9  18  28  49  69  87 103 129 172 226 274
#     4   9  16  32  47  67  87 107 129 168 222 280
#     4   9  17  28  41  57  77 105 144 184 218 253
#     4  10  19  31  47  66  86 109 142 181 221 268
#     4  10  20  33  45  57  81 118 154 185 217 256
#
# _framework density 15.073648
#
# number of rings (size 3 to 8) (size 9 to 14) (size 15 to 20)
#    0.000    2.600    1.000    1.800    1.400    7.600 
#    0.000    0.000    0.000    0.000    0.000    0.000 
#    0.000    0.000    0.000    0.000    0.000    6.000 
#
# Total GULP energy -495618.425591 kJ/mol
# GULP energy per Si atom -12390.460640 kJ/mol
# Density = 1.503934 g / cm^3
# Si number density = 15.073648 Si / 1000 Ang^3
#
#
#
# Elastic Constant Matrix: (Units=GPa)
#
#
# Indices 1 2 3 4 5 6 
#
# 1 52.4906 37.2063 32.8629 0.0000 0.0000 0.0000
# 2 37.2063 154.0653 51.6987 0.0000 0.0000 0.0000
# 3 32.8629 51.6987 77.0923 0.0000 0.0000 0.0000
# 4 0.0000 0.0000 0.0000 28.1329 0.0000 0.0000
# 5 0.0000 0.0000 0.0000 0.0000 1.7769 0.0000
# 6 0.0000 0.0000 0.0000 0.0000 0.0000 22.9040
#
#
#
# Elastic Compliance Matrix: (Units=1/GPa)
#
#
# Indices 1 2 3 4 5 6 
#
# 1 0.027356 -0.003475 -0.009331 0.000000 0.000000 0.000000
# 2 -0.003475 0.008817 -0.004431 0.000000 0.000000 0.000000
# 3 -0.009331 -0.004431 0.019921 0.000000 0.000000 0.000000
# 4 0.000000 0.000000 0.000000 0.035546 0.000000 0.000000
# 5 0.000000 0.000000 0.000000 0.000000 0.562784 0.000000
# 6 0.000000 0.000000 0.000000 0.000000 0.000000 0.043660
#
#
# Mechanical properties :
#
#
# Convention : Reuss Voigt Hill
#
# Bulk Modulus (GPa) = 46.25564 58.57601 52.41582
# Shear Modulus (GPa) = 6.75890 21.35478 14.05684
#
# Velocity S-wave (km/s) = 2.11982 3.76799 3.05707
# Velocity P-wave (km/s) = 6.06173 7.60753 6.87819
#
# Compressibility (1/GPa) = 0.02161898
#
# Stress axis : x y z
#
# Youngs Moduli (GPa) = 36.55478 113.41693 50.19916
#
# Poissons Ratio (x) = 0.39416 0.46840
# Poissons Ratio (y) = 0.12704 0.22245
# Poissons Ratio (z) = 0.34109 0.50258
#
# Static dielectric constant tensor:
#      x y z
#    x 2.552770 0.000000 0.000000 
#    y 0.000000 3.298860 0.000000 
#    z 0.000000 0.000000 2.783630 
# 
# 
# High freq. dielectric constant tensor:
#      x y z
#    x 1.523550 0.000000 0.000000 
#    y 0.000000 1.605520 0.000000 
#    z 0.000000 0.000000 1.554320 
# 
# From -- ./inp_files/32328.got.cif
#   From: 2010.03.12/outbox.cif.g09.slc.cpg/sg67_17_cif.got.tgz:32328.got - 2010.04.10 22:41:39.
