data_PCOD8278646
_publ_section_title
;
Structure prediction by ZEFSAII (Michael W. Deem and Ramdas Pophale) SiO2 
 PCOD8278646
Probable space group: C M M A
;
_chemical_formula_sum "Si O2"
_cell_formula_units_Z 80
_cell_length_a 30.564645
_cell_length_b 9.013074
_cell_length_c 15.625488
_cell_angle_alpha 90.000000
_cell_angle_beta 90.000000
_cell_angle_gamma 90.000000
_cell_volume 4304.531422
_symmetry_space_group_name_H-M "C M M A"
_symmetry_group_IT_number 67
_symmetry_cell_setting 'orthorhombic'
loop_
_space_group_symop_operation_xyz
x,y,z
-x,1/2-y,z
x,-y,-z
-x,1/2+y,-z
-x,-y,-z
x,1/2+y,-z
-x,y,z
x,1/2-y,z
1/2+x,1/2+y,z
1/2-x,-y,z
1/2+x,1/2-y,-z
1/2-x,y,-z
1/2-x,1/2-y,-z
1/2+x,y,-z
1/2-x,1/2+y,z
1/2+x,-y,z
loop_
_atom_site_type_symbol
_atom_site_label
_atom_site_fract_x
_atom_site_fract_y
_atom_site_fract_z
Si Si1 0.950032 0.075826 0.086336
Si Si2 0.800596 0.085326 0.580181
Si Si3 0.291844 0.423797 0.753455
Si Si4 0.390298 0.925563 0.242111
Si Si5 0.402565 0.914366 0.582560
O O1 0.945193 0.250000 0.073953
O O2 0.920879 0.019589 0.165119
O O3 0.000000 0.029151 0.104884
O O4 0.932602 0.000000 0.000000
O O5 0.780010 0.250000 0.593796
O O6 0.851697 0.105056 0.566483
O O7 0.779895 0.000000 0.500000
O O8 0.788706 0.974298 0.655963
O O9 0.285835 0.250000 0.763737
O O10 0.250000 0.500000 0.802705
O O11 0.340536 0.473794 0.784002
O O12 0.392145 0.750000 0.256864
O O13 0.409340 0.998579 0.328356
O O14 0.424147 0.750000 0.589087
O O15 0.423202 0.000000 0.500000
#
# Coordination Sequence:
#
# PCOD8278646 Si02
#       5
#    16  16  16  16  16
#     4   9  18  34  57  84 109 129 152 190 244 302
#     4   9  16  26  39  57  83 117 159 205 250 289
#     4  10  19  30  43  61  88 123 163 202 239 280
#     4   9  18  32  50  72 100 133 165 201 247 294
#     4   9  16  26  43  67  96 131 170 209 246 287
#
# _framework density 18.585066999999999
#
# number of rings (size 3 to 8) (size 9 to 14) (size 15 to 20)
#    0.000    2.800    0.000    1.800    0.000    6.800 
#    0.000    2.000    0.000    1.200    0.000    4.200 
#    0.000    0.000    0.000    0.000    0.000    0.000 
#
# Total GULP energy -495590.846888 kJ/mol
# GULP energy per Si atom -12389.771172 kJ/mol
# Density = 1.854277 g / cm^3
# Si number density = 18.585067 Si / 1000 Ang^3
#
#
#
# Elastic Constant Matrix: (Units=GPa)
#
#
# Indices 1 2 3 4 5 6 
#
# 1 74.4197 28.2829 62.7583 0.0000 0.0000 0.0000
# 2 28.2829 70.4499 47.1008 0.0000 0.0000 0.0000
# 3 62.7583 47.1008 126.8610 0.0000 0.0000 0.0000
# 4 0.0000 0.0000 0.0000 22.6763 0.0000 0.0000
# 5 0.0000 0.0000 0.0000 0.0000-2431.0288 0.0000
# 6 0.0000 0.0000 0.0000 0.0000 0.0000 18.0727
#
#
#
# Elastic Compliance Matrix: (Units=1/GPa)
#
#
# Indices 1 2 3 4 5 6 
#
# 1 0.023308 -0.002192 -0.010716 0.000000 0.000000 0.000000
# 2 -0.002192 0.019088 -0.006002 0.000000 0.000000 0.000000
# 3 -0.010716 -0.006002 0.015413 0.000000 0.000000 0.000000
# 4 0.000000 0.000000 0.000000 0.044099 0.000000 0.000000
# 5 0.000000 0.000000 0.000000 0.000000 -0.000411 0.000000
# 6 0.000000 0.000000 0.000000 0.000000 0.000000 0.055332
#
#
# Mechanical properties :
#
#
# Convention : Reuss Voigt Hill
#
# Bulk Modulus (GPa) = 50.03562 60.89051 55.46307
# Shear Modulus (GPa) = 24.83716 -469.15006 -222.15645
#
# Velocity S-wave (km/s) = 3.65965 -15.90540 -10.94506
# Velocity P-wave (km/s) = 6.69614 17.44921 11.39378
#
# Compressibility (1/GPa) = 0.01998576
#
# Stress axis : x y z
#
# Youngs Moduli (GPa) = 42.90440 52.39014 64.88238
#
# Poissons Ratio (x) = 0.11486 0.69530
# Poissons Ratio (y) = 0.09407 0.38944
# Poissons Ratio (z) = 0.45978 0.31446
#
# Static dielectric constant tensor:
#      x y z
#    x 3.682460 0.000000 0.000000 
#    y 0.000000 3.615750 0.000000 
#    z 0.000000 0.000000 3.193470 
# 
# 
# High freq. dielectric constant tensor:
#      x y z
#    x 1.709840 0.000000 0.000000 
#    y 0.000000 1.728960 0.000000 
#    z 0.000000 0.000000 1.685350 
# 
# From -- ./inp_files/32309.got.cif
#   From: 2010.03.12/outbox.cif.g09.slc.cpg/sg67_17_cif.got.tgz:32309.got - 2010.04.10 22:41:39.
