data_PCOD8278264
_publ_section_title
;
Structure prediction by ZEFSAII (Michael W. Deem and Ramdas Pophale) SiO2 
 PCOD8278264
Probable space group: C M M A
;
_chemical_formula_sum "Si O2"
_cell_formula_units_Z 88
_cell_length_a 33.234128
_cell_length_b 10.286568
_cell_length_c 17.657448
_cell_angle_alpha 90.000000
_cell_angle_beta 90.000000
_cell_angle_gamma 90.000000
_cell_volume 6036.465537
_symmetry_space_group_name_H-M "C M M A"
_symmetry_group_IT_number 67
_symmetry_cell_setting 'orthorhombic'
loop_
_space_group_symop_operation_xyz
x,y,z
-x,1/2-y,z
x,-y,-z
-x,1/2+y,-z
-x,-y,-z
x,1/2+y,-z
-x,y,z
x,1/2-y,z
1/2+x,1/2+y,z
1/2-x,-y,z
1/2+x,1/2-y,-z
1/2-x,y,-z
1/2-x,1/2-y,-z
1/2+x,y,-z
1/2-x,1/2+y,z
1/2+x,-y,z
loop_
_atom_site_type_symbol
_atom_site_label
_atom_site_fract_x
_atom_site_fract_y
_atom_site_fract_z
Si Si1 0.000000 0.398611 0.932543
Si Si2 0.793190 0.750000 0.089046
Si Si3 0.547529 0.750000 0.565700
Si Si4 0.547700 0.480087 0.325866
Si Si5 0.952379 0.750000 0.602959
Si Si6 0.703172 0.750000 0.090618
Si Si7 0.343572 0.503463 0.910082
Si Si8 0.078504 0.099381 0.834635
O O1 0.038508 0.426174 0.881716
O O2 0.000000 0.250000 0.963398
O O3 0.000000 0.500000 0.000000
O O4 0.748337 0.750000 0.124342
O O5 0.816258 0.622792 0.117454
O O6 0.792221 0.750000 0.999008
O O7 0.500000 0.750000 0.558557
O O8 0.561424 0.620910 0.609606
O O9 0.566636 0.750000 0.481514
O O10 0.500000 0.470685 0.310747
O O11 0.561675 0.622804 0.351685
O O12 0.571692 0.444956 0.250747
O O13 0.000000 0.750000 0.595369
O O14 0.678811 0.874966 0.119015
O O15 0.386762 0.511406 0.870688
O O16 0.350203 0.500000 0.000000
O O17 0.091093 0.250000 0.837747
#
# Coordination Sequence:
#
# PCOD8278264 Si02
#       8
#     8   8   8  16   8   8  16  16
#     4  10  22  38  50  62  79 115 164 208 239 265
#     4   9  16  31  48  67  89 112 138 182 230 287
#     4   9  16  27  48  64  84 113 147 182 226 279
#     4  10  18  30  46  64  87 117 154 186 230 271
#     4   9  18  29  42  68  90 105 139 198 234 265
#     4   9  18  29  48  69  87 110 142 182 236 277
#     4  10  19  31  47  67  90 114 151 192 227 270
#     4  11  20  33  49  62  87 122 158 194 234 272
#
# _framework density 14.578066
#
# number of rings (size 3 to 8) (size 9 to 14) (size 15 to 20)
#    0.000    2.182    2.727    1.636    0.000    5.091 
#    3.273    0.000    0.000    0.000    0.000    0.000 
#    0.000    0.000    0.000    0.000    0.000   63.636 
#
# Total GULP energy -545599.671672 kJ/mol
# GULP energy per Si atom -12399.992538 kJ/mol
# Density = 1.454489 g / cm^3
# Si number density = 14.578066 Si / 1000 Ang^3
#
#
#
# Elastic Constant Matrix: (Units=GPa)
#
#
# Indices 1 2 3 4 5 6 
#
# 1 90.9431 41.9784 27.2096 0.0000 0.0000 0.0000
# 2 41.9784 105.2090 24.2756 0.0000 0.0000 0.0000
# 3 27.2096 24.2756 60.5890 0.0000 0.0000 0.0000
# 4 0.0000 0.0000 0.0000 19.1187 0.0000 0.0000
# 5 0.0000 0.0000 0.0000 0.0000 -8.8403 0.0000
# 6 0.0000 0.0000 0.0000 0.0000 0.0000 20.5898
#
#
#
# Elastic Compliance Matrix: (Units=1/GPa)
#
#
# Indices 1 2 3 4 5 6 
#
# 1 0.014575 -0.004744 -0.004645 0.000000 0.000000 0.000000
# 2 -0.004744 0.012017 -0.002684 0.000000 0.000000 0.000000
# 3 -0.004645 -0.002684 0.019666 0.000000 0.000000 0.000000
# 4 0.000000 0.000000 0.000000 0.052305 0.000000 0.000000
# 5 0.000000 0.000000 0.000000 0.000000 -0.113118 0.000000
# 6 0.000000 0.000000 0.000000 0.000000 0.000000 0.048568
#
#
# Mechanical properties :
#
#
# Convention : Reuss Voigt Hill
#
# Bulk Modulus (GPa) = 45.22368 49.29649 47.26008
# Shear Modulus (GPa) = 76.30124 17.05881 46.68003
#
# Velocity S-wave (km/s) = 7.24247 3.42449 5.66482
# Velocity P-wave (km/s) = 10.05121 7.03740 8.67617
#
# Compressibility (1/GPa) = 0.02211231
#
# Stress axis : x y z
#
# Youngs Moduli (GPa) = 68.60922 83.21505 50.84885
#
# Poissons Ratio (x) = 0.39476 0.23619
# Poissons Ratio (y) = 0.32547 0.13650
# Poissons Ratio (z) = 0.31868 0.22338
#
# Static dielectric constant tensor:
#      x y z
#    x 2.657050 0.000000 0.000000 
#    y 0.000000 3.051100 0.000000 
#    z 0.000000 0.000000 2.681520 
# 
# 
# High freq. dielectric constant tensor:
#      x y z
#    x 1.527470 0.000000 0.000000 
#    y 0.000000 1.575450 0.000000 
#    z 0.000000 0.000000 1.531610 
# 
# From -- ./inp_files/36246.got.cif
#   From: 2010.03.12/outbox.cif.g09.slc.cpg/sg67_19_cif.got.tgz:36246.got - 2010.04.10 22:41:39.
