data_PCOD8278226
_publ_section_title
;
Structure prediction by ZEFSAII (Michael W. Deem and Ramdas Pophale) SiO2 
 PCOD8278226
Probable space group: C M M A
;
_chemical_formula_sum "Si O2"
_cell_formula_units_Z 112
_cell_length_a 25.857478
_cell_length_b 16.673552
_cell_length_c 16.366835
_cell_angle_alpha 90.000000
_cell_angle_beta 90.000000
_cell_angle_gamma 90.000000
_cell_volume 7056.331840
_symmetry_space_group_name_H-M "C M M A"
_symmetry_group_IT_number 67
_symmetry_cell_setting 'orthorhombic'
loop_
_space_group_symop_operation_xyz
x,y,z
-x,1/2-y,z
x,-y,-z
-x,1/2+y,-z
-x,-y,-z
x,1/2+y,-z
-x,y,z
x,1/2-y,z
1/2+x,1/2+y,z
1/2-x,-y,z
1/2+x,1/2-y,-z
1/2-x,y,-z
1/2-x,1/2-y,-z
1/2+x,y,-z
1/2-x,1/2+y,z
1/2+x,-y,z
loop_
_atom_site_type_symbol
_atom_site_label
_atom_site_fract_x
_atom_site_fract_y
_atom_site_fract_z
Si Si1 0.310362 0.338862 0.488091
Si Si2 0.796781 0.656488 0.199461
Si Si3 0.655582 0.067605 0.336300
Si Si4 0.189908 0.515681 0.088424
Si Si5 0.058902 0.010320 0.404575
Si Si6 0.185925 0.917045 0.759506
Si Si7 0.617170 0.159920 0.638417
O O1 0.327897 0.250000 0.457957
O O2 0.250000 0.339979 0.500000
O O3 0.323573 0.407031 0.423863
O O4 0.337953 0.359090 0.573172
O O5 0.794449 0.750000 0.177142
O O6 0.838032 0.640543 0.271975
O O7 0.816231 0.607677 0.119365
O O8 0.741218 0.625618 0.231658
O O9 0.595155 0.045892 0.348373
O O10 0.688616 0.991325 0.304353
O O11 0.250000 0.500000 0.080603
O O12 0.166386 0.452990 0.153796
O O13 0.163168 0.500000 0.000000
O O14 0.068648 0.102622 0.379188
O O15 0.000000 0.987049 0.385020
O O16 0.071388 0.000000 0.500000
O O17 0.143118 0.854383 0.727415
O O18 0.596068 0.250000 0.633561
#
# Coordination Sequence:
#
# PCOD8278226 Si02
#       7
#    16  16  16  16  16  16  16
#     4  10  19  28  41  64  92 120 150 186 223 263
#     4  10  18  29  46  68  96 124 153 187 229 269
#     4  10  18  31  46  64  86 120 154 192 229 268
#     4   8  15  29  44  62  92 128 163 188 209 255
#     4  10  20  35  49  63  82 113 159 200 233 275
#     4   9  18  29  44  67  92 125 152 183 225 270
#     4  10  19  31  46  66  91 117 150 193 233 268
#
# _framework density 15.87227
#
# number of rings (size 3 to 8) (size 9 to 14) (size 15 to 20)
#    0.000    2.429    1.429    3.000    0.000    2.571 
#    0.000    7.857    0.000    1.714    0.000    0.000 
#    0.000   46.286    0.000    5.143    0.000    2.571 
#
# Total GULP energy -694055.137712 kJ/mol
# GULP energy per Si atom -12393.841745 kJ/mol
# Density = 1.583614 g / cm^3
# Si number density = 15.872270 Si / 1000 Ang^3
#
#
#
# Elastic Constant Matrix: (Units=GPa)
#
#
# Indices 1 2 3 4 5 6 
#
# 1 55.9520 28.2246 30.9961 0.0000 0.0000 0.0000
# 2 28.2246 94.4327 51.3213 0.0000 0.0000 0.0000
# 3 30.9961 51.3213 102.2900 0.0000 0.0000 0.0000
# 4 0.0000 0.0000 0.0000 17.7714 0.0000 0.0000
# 5 0.0000 0.0000 0.0000 0.0000 7.3982 0.0000
# 6 0.0000 0.0000 0.0000 0.0000 0.0000 15.1259
#
#
#
# Elastic Compliance Matrix: (Units=1/GPa)
#
#
# Indices 1 2 3 4 5 6 
#
# 1 0.022614 -0.004173 -0.004759 0.000000 0.000000 0.000000
# 2 -0.004173 0.015329 -0.006427 0.000000 0.000000 0.000000
# 3 -0.004759 -0.006427 0.014443 0.000000 0.000000 0.000000
# 4 0.000000 0.000000 0.000000 0.056270 0.000000 0.000000
# 5 0.000000 0.000000 0.000000 0.000000 0.135167 0.000000
# 6 0.000000 0.000000 0.000000 0.000000 0.000000 0.066112
#
#
# Mechanical properties :
#
#
# Convention : Reuss Voigt Hill
#
# Bulk Modulus (GPa) = 46.14853 52.63987 49.39420
# Shear Modulus (GPa) = 14.37299 17.53461 15.95380
#
# Velocity S-wave (km/s) = 3.01249 3.32736 3.17383
# Velocity P-wave (km/s) = 6.42169 6.92809 6.67969
#
# Compressibility (1/GPa) = 0.02166916
#
# Stress axis : x y z
#
# Youngs Moduli (GPa) = 44.22114 65.23408 69.23945
#
# Poissons Ratio (x) = 0.27219 0.32951
# Poissons Ratio (y) = 0.18452 0.44498
# Poissons Ratio (z) = 0.21045 0.41924
#
# Static dielectric constant tensor:
#      x y z
#    x 2.667970 0.000000 0.000000 
#    y 0.000000 3.195750 0.000000 
#    z 0.000000 0.000000 3.378220 
# 
# 
# High freq. dielectric constant tensor:
#      x y z
#    x 1.564340 0.000000 0.000000 
#    y 0.000000 1.617600 0.000000 
#    z 0.000000 0.000000 1.600740 
# 
# From -- ./inp_files/35587.got.cif
#   From: 2010.03.12/outbox.cif.g09.slc.cpg/sg67_18_cif.got.tgz:35587.got - 2010.04.10 22:41:39.
