data_PCOD8278499
_publ_section_title
;
Structure prediction by ZEFSAII (Michael W. Deem and Ramdas Pophale) SiO2 
 PCOD8278499
Probable space group: C M M A
;
_chemical_formula_sum "Si O2"
_cell_formula_units_Z 88
_cell_length_a 19.026606
_cell_length_b 10.299225
_cell_length_c 23.385238
_cell_angle_alpha 90.000000
_cell_angle_beta 90.000000
_cell_angle_gamma 90.000000
_cell_volume 4582.554779
_symmetry_space_group_name_H-M "C M M A"
_symmetry_group_IT_number 67
_symmetry_cell_setting 'orthorhombic'
loop_
_space_group_symop_operation_xyz
x,y,z
-x,1/2-y,z
x,-y,-z
-x,1/2+y,-z
-x,-y,-z
x,1/2+y,-z
-x,y,z
x,1/2-y,z
1/2+x,1/2+y,z
1/2-x,-y,z
1/2+x,1/2-y,-z
1/2-x,y,-z
1/2-x,1/2-y,-z
1/2+x,y,-z
1/2-x,1/2+y,z
1/2+x,-y,z
loop_
_atom_site_type_symbol
_atom_site_label
_atom_site_fract_x
_atom_site_fract_y
_atom_site_fract_z
Si Si1 0.152664 0.896206 0.949227
Si Si2 0.195942 0.397201 0.174522
Si Si3 0.334055 0.750000 0.566280
Si Si4 0.666523 0.996550 0.366233
Si Si5 0.831991 0.250000 0.439009
Si Si6 0.080706 0.899943 0.737324
Si Si7 0.500000 0.609777 0.044780
O O1 0.166581 0.750000 0.973552
O O2 0.198676 0.923258 0.893605
O O3 0.073503 0.905060 0.921999
O O4 0.168258 0.000000 0.000000
O O5 0.221380 0.250000 0.187725
O O6 0.250000 0.500000 0.202469
O O7 0.118787 0.418793 0.201484
O O8 0.358947 0.624827 0.601209
O O9 0.251306 0.750000 0.557988
O O10 0.366464 0.750000 0.502323
O O11 0.643171 0.877586 0.406006
O O12 0.623087 0.987334 0.307764
O O13 0.750000 0.000000 0.353059
O O14 0.084044 0.750000 0.717972
O O15 0.000000 0.946906 0.742923
O O16 0.500000 0.750000 0.013526
O O17 0.500000 0.500000 0.000000
#
# Coordination Sequence:
#
# PCOD8278499 Si02
#       7
#    16  16   8  16   8  16   8
#     4   9  18  32  54  82 112 144 178 221 273 329
#     4  10  22  39  59  84 111 144 185 231 279 331
#     4   9  18  28  51  85 117 151 178 231 272 325
#     4  10  18  32  55  83 113 148 186 230 277 323
#     4   9  16  30  51  83 119 147 190 221 270 323
#     4  10  21  38  60  81 105 144 193 237 275 330
#     4   8  14  26  46  74 104 138 174 212 253 309
#
# _framework density 19.203261999999999
#
# number of rings (size 3 to 8) (size 9 to 14) (size 15 to 20)
#    0.000    2.545    0.909    1.091    1.273    3.273 
#    1.636    2.273    0.000    3.273    0.000    0.000 
#    0.000    0.000    0.000    0.000    0.000    0.000 
#
# Total GULP energy -545111.497550 kJ/mol
# GULP energy per Si atom -12388.897672 kJ/mol
# Density = 1.915955 g / cm^3
# Si number density = 19.203262 Si / 1000 Ang^3
#
#
#
# Elastic Constant Matrix: (Units=GPa)
#
#
# Indices 1 2 3 4 5 6 
#
# 1 83.3731 43.8842 31.0669 0.0000 0.0000 0.0000
# 2 43.8842 133.7051 57.4586 0.0000 0.0000 0.0000
# 3 31.0669 57.4586 104.1647 0.0000 0.0000 0.0000
# 4 0.0000 0.0000 0.0000 24.6550 0.0000 0.0000
# 5 0.0000 0.0000 0.0000 0.0000 17.7130 0.0000
# 6 0.0000 0.0000 0.0000 0.0000 0.0000 20.2097
#
#
#
# Elastic Compliance Matrix: (Units=1/GPa)
#
#
# Indices 1 2 3 4 5 6 
#
# 1 0.014904 -0.003908 -0.002290 0.000000 0.000000 0.000000
# 2 -0.003908 0.010828 -0.004807 0.000000 0.000000 0.000000
# 3 -0.002290 -0.004807 0.012935 0.000000 0.000000 0.000000
# 4 0.000000 0.000000 0.000000 0.040560 0.000000 0.000000
# 5 0.000000 0.000000 0.000000 0.000000 0.056456 0.000000
# 6 0.000000 0.000000 0.000000 0.000000 0.000000 0.049481
#
#
# Mechanical properties :
#
#
# Convention : Reuss Voigt Hill
#
# Bulk Modulus (GPa) = 60.03298 65.11804 62.57551
# Shear Modulus (GPa) = 23.50450 25.10440 24.30445
#
# Velocity S-wave (km/s) = 3.50234 3.61958 3.56145
# Velocity P-wave (km/s) = 6.90543 7.17300 7.04049
#
# Compressibility (1/GPa) = 0.01665751
#
# Stress axis : x y z
#
# Youngs Moduli (GPa) = 67.09422 92.35640 77.31149
#
# Poissons Ratio (x) = 0.36093 0.17701
# Poissons Ratio (y) = 0.26220 0.37164
# Poissons Ratio (z) = 0.15361 0.44397
#
# Static dielectric constant tensor:
#      x y z
#    x 2.999860 0.000000 0.000000 
#    y 0.000000 3.603170 0.000000 
#    z 0.000000 0.000000 2.833540 
# 
# 
# High freq. dielectric constant tensor:
#      x y z
#    x 1.725350 0.000000 0.000000 
#    y 0.000000 1.748980 0.000000 
#    z 0.000000 0.000000 1.738520 
# 
# From -- ./inp_files/42399.got.cif
#   From: 2010.03.12/outbox.cif.g09.slc.cpg/sg67_22_cif.got.tgz:42399.got - 2010.04.10 22:41:39.
