data_PCOD8278261
_publ_section_title
;
Structure prediction by ZEFSAII (Michael W. Deem and Ramdas Pophale) SiO2 
 PCOD8278261
Probable space group: C M M A
;
_chemical_formula_sum "Si O2"
_cell_formula_units_Z 72
_cell_length_a 8.979697
_cell_length_b 25.585688
_cell_length_c 19.793061
_cell_angle_alpha 90.000000
_cell_angle_beta 90.000000
_cell_angle_gamma 90.000000
_cell_volume 4547.489923
_symmetry_space_group_name_H-M "C M M A"
_symmetry_group_IT_number 67
_symmetry_cell_setting 'orthorhombic'
loop_
_space_group_symop_operation_xyz
x,y,z
-x,1/2-y,z
x,-y,-z
-x,1/2+y,-z
-x,-y,-z
x,1/2+y,-z
-x,y,z
x,1/2-y,z
1/2+x,1/2+y,z
1/2-x,-y,z
1/2+x,1/2-y,-z
1/2-x,y,-z
1/2-x,1/2-y,-z
1/2+x,y,-z
1/2-x,1/2+y,z
1/2+x,-y,z
loop_
_atom_site_type_symbol
_atom_site_label
_atom_site_fract_x
_atom_site_fract_y
_atom_site_fract_z
Si Si1 0.332315 0.187737 0.065946
Si Si2 0.177568 0.750000 0.572408
Si Si3 0.822142 0.054165 0.428892
Si Si4 0.326540 0.689019 0.199913
Si Si5 0.675755 0.652465 0.342231
O O1 0.500000 0.167108 0.064062
O O2 0.324047 0.250000 0.065225
O O3 0.256515 0.166599 0.134189
O O4 0.250000 0.164937 0.000000
O O5 0.250000 0.750000 0.500000
O O6 0.238481 0.800885 0.611592
O O7 0.000000 0.750000 0.565460
O O8 0.750000 0.071030 0.500000
O O9 0.776786 0.096962 0.373211
O O10 0.000000 0.048785 0.437193
O O11 0.750000 0.000000 0.404150
O O12 0.500000 0.679332 0.187849
O O13 0.293210 0.750000 0.211850
O O14 0.264925 0.657859 0.265435
O O15 0.500000 0.658802 0.340098
#
# Coordination Sequence:
#
# PCOD8278261 Si02
#       5
#    16   8  16  16  16
#     4   9  16  25  37  56  82 113 147 179 207 242
#     4  10  18  30  44  62  85 112 143 176 213 260
#     4  10  19  32  48  65  84 110 145 185 225 264
#     4   9  15  26  43  60  81 112 144 174 211 255
#     4   9  17  29  46  64  85 113 145 177 216 265
#
# _framework density 15.83291
#
# number of rings (size 3 to 8) (size 9 to 14) (size 15 to 20)
#    0.000    2.667    1.111    2.667    0.000    2.667 
#    0.000    4.444    0.000    0.000    0.000    0.000 
#    0.000    0.889    0.000   10.222    0.000    3.556 
#
# Total GULP energy -446294.382030 kJ/mol
# GULP energy per Si atom -12397.066168 kJ/mol
# Density = 1.579687 g / cm^3
# Si number density = 15.832910 Si / 1000 Ang^3
#
#
#
# Elastic Constant Matrix: (Units=GPa)
#
#
# Indices 1 2 3 4 5 6 
#
# 1 69.6499 33.6770 57.8687 0.0000 0.0000 0.0000
# 2 33.6770 71.6429 65.0106 0.0000 0.0000 0.0000
# 3 57.8687 65.0106 176.5772 0.0000 0.0000 0.0000
# 4 0.0000 0.0000 0.0000 17.9551 0.0000 0.0000
# 5 0.0000 0.0000 0.0000 0.0000 27.5938 0.0000
# 6 0.0000 0.0000 0.0000 0.0000 0.0000 13.0793
#
#
#
# Elastic Compliance Matrix: (Units=1/GPa)
#
#
# Indices 1 2 3 4 5 6 
#
# 1 0.021063 -0.005462 -0.004892 0.000000 0.000000 0.000000
# 2 -0.005462 0.022377 -0.006449 0.000000 0.000000 0.000000
# 3 -0.004892 -0.006449 0.009641 0.000000 0.000000 0.000000
# 4 0.000000 0.000000 0.000000 0.055694 0.000000 0.000000
# 5 0.000000 0.000000 0.000000 0.000000 0.036240 0.000000
# 6 0.000000 0.000000 0.000000 0.000000 0.000000 0.076457
#
#
# Mechanical properties :
#
#
# Convention : Reuss Voigt Hill
#
# Bulk Modulus (GPa) = 51.34570 70.10917 60.72743
# Shear Modulus (GPa) = 19.11543 22.47990 20.79767
#
# Velocity S-wave (km/s) = 3.47842 3.77214 3.62826
# Velocity P-wave (km/s) = 6.97372 7.95920 7.48270
#
# Compressibility (1/GPa) = 0.01947583
#
# Stress axis : x y z
#
# Youngs Moduli (GPa) = 47.47682 44.68818 103.72755
#
# Poissons Ratio (x) = 0.24409 0.50742
# Poissons Ratio (y) = 0.25932 0.66890
# Poissons Ratio (z) = 0.23225 0.28818
#
# Static dielectric constant tensor:
#      x y z
#    x 2.915620 0.000000 0.000000 
#    y 0.000000 2.768450 0.000000 
#    z 0.000000 0.000000 3.236270 
# 
# 
# High freq. dielectric constant tensor:
#      x y z
#    x 1.598500 0.000000 0.000000 
#    y 0.000000 1.560540 0.000000 
#    z 0.000000 0.000000 1.619170 
# 
# From -- ./inp_files/32051.got.cif
#   From: 2010.03.12/outbox.cif.g09.slc.cpg/sg67_17_cif.got.tgz:32051.got - 2010.04.10 22:41:39.
