data_PCOD8278618
_publ_section_title
;
Structure prediction by ZEFSAII (Michael W. Deem and Ramdas Pophale) SiO2 
 PCOD8278618
Probable space group: C M M A
;
_chemical_formula_sum "Si O2"
_cell_formula_units_Z 120
_cell_length_a 26.942708
_cell_length_b 8.959334
_cell_length_c 28.931180
_cell_angle_alpha 90.000000
_cell_angle_beta 90.000000
_cell_angle_gamma 90.000000
_cell_volume 6983.660504
_symmetry_space_group_name_H-M "C M M A"
_symmetry_group_IT_number 67
_symmetry_cell_setting 'orthorhombic'
loop_
_space_group_symop_operation_xyz
x,y,z
-x,1/2-y,z
x,-y,-z
-x,1/2+y,-z
-x,-y,-z
x,1/2+y,-z
-x,y,z
x,1/2-y,z
1/2+x,1/2+y,z
1/2-x,-y,z
1/2+x,1/2-y,-z
1/2-x,y,-z
1/2-x,1/2-y,-z
1/2+x,y,-z
1/2-x,1/2+y,z
1/2+x,-y,z
loop_
_atom_site_type_symbol
_atom_site_label
_atom_site_fract_x
_atom_site_fract_y
_atom_site_fract_z
Si Si1 0.108274 0.426007 0.949896
Si Si2 0.557032 0.074051 0.638650
Si Si3 0.054969 0.918593 0.804744
Si Si4 0.148273 0.076729 0.134808
Si Si5 0.800247 0.425735 0.781995
Si Si6 0.896652 0.076610 0.724363
Si Si7 0.500000 0.420929 0.047770
Si Si8 0.558961 0.582431 0.545060
O O1 0.118532 0.250000 0.953876
O O2 0.148545 0.499282 0.915455
O O3 0.052846 0.459519 0.928027
O O4 0.114668 0.500000 0.000000
O O5 0.500000 0.026777 0.649214
O O6 0.561854 0.250000 0.634905
O O7 0.593773 0.014856 0.677947
O O8 0.575988 0.004977 0.590662
O O9 0.060886 0.750000 0.785486
O O10 0.093303 0.948469 0.845419
O O11 0.000000 0.945675 0.825130
O O12 0.062840 0.031167 0.762437
O O13 0.162509 0.250000 0.130157
O O14 0.187560 0.997136 0.168216
O O15 0.793785 0.250000 0.788615
O O16 0.750000 0.500000 0.763066
O O17 0.842311 0.463262 0.744227
O O18 0.902377 0.250000 0.713215
O O19 0.500000 0.250000 0.034808
O O20 0.500000 0.500000 0.000000
O O21 0.581092 0.500000 0.500000
O O22 0.500000 0.585068 0.541926
O O23 0.580348 0.750000 0.546831
#
# Coordination Sequence:
#
# PCOD8278618 Si02
#       8
#    16  16  16  16  16  16   8  16
#     4  10  19  32  48  69  97 129 163 198 234 273
#     4  10  19  29  43  65  96 135 173 207 243 285
#     4   9  18  31  45  64  93 128 161 192 227 273
#     4  10  20  33  51  74  98 126 159 194 234 280
#     4  10  21  38  58  77  97 121 153 195 243 294
#     4  10  20  32  47  70  96 122 156 197 241 289
#     4   8  16  28  42  62  90 126 162 194 226 262
#     4   9  16  26  40  59  87 126 172 216 252 286
#
# _framework density 17.182966
#
# number of rings (size 3 to 8) (size 9 to 14) (size 15 to 20)
#    0.000    2.400    0.000    2.800    0.933    6.933 
#    0.000    0.000    0.000    0.400    0.000    2.800 
#    0.000    0.533    0.000    5.600    0.000    3.333 
#
# Total GULP energy -743793.032598 kJ/mol
# GULP energy per Si atom -12396.550543 kJ/mol
# Density = 1.714386 g / cm^3
# Si number density = 17.182966 Si / 1000 Ang^3
#
#
#
# Elastic Constant Matrix: (Units=GPa)
#
#
# Indices 1 2 3 4 5 6 
#
# 1 57.9874 29.1181 27.7742 0.0000 0.0000 0.0000
# 2 29.1181 99.4996 57.5579 0.0000 0.0000 0.0000
# 3 27.7742 57.5579 106.1664 0.0000 0.0000 0.0000
# 4 0.0000 0.0000 0.0000 34.5893 0.0000 0.0000
# 5 0.0000 0.0000 0.0000 0.0000 14.1013 0.0000
# 6 0.0000 0.0000 0.0000 0.0000 0.0000 22.4695
#
#
#
# Elastic Compliance Matrix: (Units=1/GPa)
#
#
# Indices 1 2 3 4 5 6 
#
# 1 0.020909 -0.004305 -0.003136 0.000000 0.000000 0.000000
# 2 -0.004305 0.015529 -0.007293 0.000000 0.000000 0.000000
# 3 -0.003136 -0.007293 0.014193 0.000000 0.000000 0.000000
# 4 0.000000 0.000000 0.000000 0.028911 0.000000 0.000000
# 5 0.000000 0.000000 0.000000 0.000000 0.070915 0.000000
# 6 0.000000 0.000000 0.000000 0.000000 0.000000 0.044505
#
#
# Mechanical properties :
#
#
# Convention : Reuss Voigt Hill
#
# Bulk Modulus (GPa) = 47.25059 54.72819 50.98939
# Shear Modulus (GPa) = 21.59980 24.17888 22.88934
#
# Velocity S-wave (km/s) = 3.54933 3.75526 3.65375
# Velocity P-wave (km/s) = 6.65997 7.12194 6.89483
#
# Compressibility (1/GPa) = 0.02116376
#
# Stress axis : x y z
#
# Youngs Moduli (GPa) = 47.82664 64.39703 70.45550
#
# Poissons Ratio (x) = 0.27721 0.22096
# Poissons Ratio (y) = 0.20588 0.51381
# Poissons Ratio (z) = 0.14999 0.46963
#
# Static dielectric constant tensor:
#      x y z
#    x 2.974700 0.000000 0.000000 
#    y 0.000000 3.323500 0.000000 
#    z 0.000000 0.000000 3.114050 
# 
# 
# High freq. dielectric constant tensor:
#      x y z
#    x 1.620640 0.000000 0.000000 
#    y 0.000000 1.681550 0.000000 
#    z 0.000000 0.000000 1.654860 
# 
# From -- ./inp_files/45036.got.cif
#   From: 2010.03.12/outbox.cif.g09.slc.cpg/sg67_23_cif.got.tgz:45036.got - 2010.04.10 22:41:39.
