data_PCOD8278610
_publ_section_title
;
Structure prediction by ZEFSAII (Michael W. Deem and Ramdas Pophale) SiO2 
 PCOD8278610
Probable space group: C M M A
;
_chemical_formula_sum "Si O2"
_cell_formula_units_Z 96
_cell_length_a 8.704040
_cell_length_b 27.597104
_cell_length_c 24.242169
_cell_angle_alpha 90.000000
_cell_angle_beta 90.000000
_cell_angle_gamma 90.000000
_cell_volume 5823.121649
_symmetry_space_group_name_H-M "C M M A"
_symmetry_group_IT_number 67
_symmetry_cell_setting 'orthorhombic'
loop_
_space_group_symop_operation_xyz
x,y,z
-x,1/2-y,z
x,-y,-z
-x,1/2+y,-z
-x,-y,-z
x,1/2+y,-z
-x,y,z
x,1/2-y,z
1/2+x,1/2+y,z
1/2-x,-y,z
1/2+x,1/2-y,-z
1/2-x,y,-z
1/2-x,1/2-y,-z
1/2+x,y,-z
1/2-x,1/2+y,z
1/2+x,-y,z
loop_
_atom_site_type_symbol
_atom_site_label
_atom_site_fract_x
_atom_site_fract_y
_atom_site_fract_z
Si Si1 0.817532 0.897379 0.776359
Si Si2 0.320011 0.553275 0.674517
Si Si3 0.177702 0.552652 0.447311
Si Si4 0.818351 0.139044 0.057778
Si Si5 0.317593 0.448577 0.120717
Si Si6 0.181000 0.303076 0.163939
O O1 0.761215 0.909023 0.715105
O O2 0.743531 0.935271 0.818585
O O3 0.761322 0.842856 0.791649
O O4 0.000000 0.902029 0.781067
O O5 0.500000 0.549616 0.687507
O O6 0.250000 0.500000 0.681777
O O7 0.290360 0.575470 0.613079
O O8 0.250000 0.500000 0.445951
O O9 0.250000 0.581917 0.500000
O O10 0.000000 0.547942 0.458910
O O11 0.740380 0.088713 0.074736
O O12 0.774034 0.179813 0.102536
O O13 0.000000 0.131293 0.054104
O O14 0.750000 0.156957 0.000000
O O15 0.500000 0.450110 0.121627
O O16 0.250000 0.500000 0.103267
O O17 0.255673 0.250000 0.175362
O O18 0.000000 0.298780 0.168730
#
# Coordination Sequence:
#
# PCOD8278610 Si02
#       6
#    16  16  16  16  16  16
#     4  10  19  31  48  69  92 118 150 186 224 267
#     4  10  19  29  42  63  92 125 159 191 224 261
#     4   9  16  25  38  56  82 118 156 192 224 257
#     4  10  20  34  51  72  95 118 147 180 217 262
#     4  11  21  34  50  67  91 121 152 185 222 262
#     4   8  16  32  52  71  91 115 143 179 223 269
#
# _framework density 16.486003
#
# number of rings (size 3 to 8) (size 9 to 14) (size 15 to 20)
#    0.000    2.333    0.000    5.500    0.000    2.667 
#    0.000    1.667    0.000   17.500    0.000    0.000 
#    0.000    0.667    0.000    1.500    0.000    2.667 
#
# Total GULP energy -594947.652179 kJ/mol
# GULP energy per Si atom -12394.742754 kJ/mol
# Density = 1.644848 g / cm^3
# Si number density = 16.486003 Si / 1000 Ang^3
#
#
#
# Elastic Constant Matrix: (Units=GPa)
#
#
# Indices 1 2 3 4 5 6 
#
# 1 98.5832 30.4046 43.4980 0.0000 0.0000 0.0000
# 2 30.4046 95.0322 43.1461 0.0000 0.0000 0.0000
# 3 43.4980 43.1461 123.9049 0.0000 0.0000 0.0000
# 4 0.0000 0.0000 0.0000 16.3913 0.0000 0.0000
# 5 0.0000 0.0000 0.0000 0.0000 37.6994 0.0000
# 6 0.0000 0.0000 0.0000 0.0000 0.0000 11.9956
#
#
#
# Elastic Compliance Matrix: (Units=1/GPa)
#
#
# Indices 1 2 3 4 5 6 
#
# 1 0.012437 -0.002372 -0.003540 0.000000 0.000000 0.000000
# 2 -0.002372 0.012951 -0.003677 0.000000 0.000000 0.000000
# 3 -0.003540 -0.003677 0.010594 0.000000 0.000000 0.000000
# 4 0.000000 0.000000 0.000000 0.061008 0.000000 0.000000
# 5 0.000000 0.000000 0.000000 0.000000 0.026526 0.000000
# 6 0.000000 0.000000 0.000000 0.000000 0.000000 0.083364
#
#
# Mechanical properties :
#
#
# Convention : Reuss Voigt Hill
#
# Bulk Modulus (GPa) = 59.51035 61.29084 60.40059
# Shear Modulus (GPa) = 21.58341 26.58205 24.08273
#
# Velocity S-wave (km/s) = 3.62221 4.01983 3.82619
# Velocity P-wave (km/s) = 7.32596 7.66835 7.49911
#
# Compressibility (1/GPa) = 0.01680380
#
# Stress axis : x y z
#
# Youngs Moduli (GPa) = 80.40306 77.21358 94.39274
#
# Poissons Ratio (x) = 0.18314 0.33418
# Poissons Ratio (y) = 0.19070 0.34710
# Poissons Ratio (z) = 0.28465 0.28393
#
# Static dielectric constant tensor:
#      x y z
#    x 3.136130 0.000000 0.000000 
#    y 0.000000 3.030980 0.000000 
#    z 0.000000 0.000000 3.777320 
# 
# 
# High freq. dielectric constant tensor:
#      x y z
#    x 1.642200 0.000000 0.000000 
#    y 0.000000 1.596430 0.000000 
#    z 0.000000 0.000000 1.639960 
# 
# From -- ./inp_files/40798.got.cif
#   From: 2010.03.12/outbox.cif.g09.slc.cpg/sg67_21_cif.got.tgz:40798.got - 2010.04.10 22:41:39.
