data_PCOD8278721
_publ_section_title
;
Structure prediction by ZEFSAII (Michael W. Deem and Ramdas Pophale) SiO2 
 PCOD8278721
Probable space group: C M M A
;
_chemical_formula_sum "Si O2"
_cell_formula_units_Z 96
_cell_length_a 24.488146
_cell_length_b 18.952076
_cell_length_c 12.077896
_cell_angle_alpha 90.000000
_cell_angle_beta 90.000000
_cell_angle_gamma 90.000000
_cell_volume 5605.366076
_symmetry_space_group_name_H-M "C M M A"
_symmetry_group_IT_number 67
_symmetry_cell_setting 'orthorhombic'
loop_
_space_group_symop_operation_xyz
x,y,z
-x,1/2-y,z
x,-y,-z
-x,1/2+y,-z
-x,-y,-z
x,1/2+y,-z
-x,y,z
x,1/2-y,z
1/2+x,1/2+y,z
1/2-x,-y,z
1/2+x,1/2-y,-z
1/2-x,y,-z
1/2-x,1/2-y,-z
1/2+x,y,-z
1/2-x,1/2+y,z
1/2+x,-y,z
loop_
_atom_site_type_symbol
_atom_site_label
_atom_site_fract_x
_atom_site_fract_y
_atom_site_fract_z
Si Si1 0.062920 0.090443 0.433607
Si Si2 0.852504 0.087924 0.109523
Si Si3 0.936522 0.827426 0.768977
Si Si4 0.150015 0.926590 0.144390
Si Si5 0.751199 0.830636 0.131648
Si Si6 0.064824 0.445088 0.668645
O O1 0.074231 0.160619 0.362478
O O2 0.083293 0.100577 0.560006
O O3 0.000000 0.071458 0.446100
O O4 0.085827 0.023644 0.363636
O O5 0.909885 0.109972 0.161574
O O6 0.807489 0.138612 0.166535
O O7 0.834256 0.008836 0.138997
O O8 0.863205 0.099461 0.979287
O O9 0.913669 0.750000 0.800113
O O10 0.000000 0.832533 0.795726
O O11 0.201222 0.879141 0.185297
O O12 0.098331 0.915701 0.225672
O O13 0.758434 0.750000 0.172297
O O14 0.750000 0.836578 0.000000
O O15 0.000000 0.439873 0.696854
#
# Coordination Sequence:
#
# PCOD8278721 Si02
#       6
#    16  16  16  16  16  16
#     4   8  15  29  48  70  97 130 168 202 239 290
#     4  10  19  31  48  74 103 130 163 204 249 294
#     4  10  19  31  49  74 103 133 167 203 242 296
#     4  10  19  30  50  76 100 127 165 207 245 299
#     4   9  18  33  50  67  93 131 170 204 243 294
#     4   9  16  29  50  74 101 129 159 204 253 295
#
# _framework density 17.126446000000001
#
# number of rings (size 3 to 8) (size 9 to 14) (size 15 to 20)
#    0.000    2.667    1.667    2.000    0.000    3.333 
#    0.000    2.500    0.000    2.500    0.000    2.333 
#    0.000    0.000    0.000    0.000    0.000    0.000 
#
# Total GULP energy -594626.566264 kJ/mol
# GULP energy per Si atom -12388.053464 kJ/mol
# Density = 1.708747 g / cm^3
# Si number density = 17.126446 Si / 1000 Ang^3
#
#
#
# Elastic Constant Matrix: (Units=GPa)
#
#
# Indices 1 2 3 4 5 6 
#
# 1 80.2808 44.5418 48.2975 0.0000 0.0000 0.0000
# 2 44.5418 94.3341 33.1810 0.0000 0.0000 0.0000
# 3 48.2975 33.1810 77.1994 0.0000 0.0000 0.0000
# 4 0.0000 0.0000 0.0000 18.7244 0.0000 0.0000
# 5 0.0000 0.0000 0.0000 0.0000 10.8055 0.0000
# 6 0.0000 0.0000 0.0000 0.0000 0.0000 25.6217
#
#
#
# Elastic Compliance Matrix: (Units=1/GPa)
#
#
# Indices 1 2 3 4 5 6 
#
# 1 0.023255 -0.006907 -0.011580 0.000000 0.000000 0.000000
# 2 -0.006907 0.014540 -0.001928 0.000000 0.000000 0.000000
# 3 -0.011580 -0.001928 0.021027 0.000000 0.000000 0.000000
# 4 0.000000 0.000000 0.000000 0.053406 0.000000 0.000000
# 5 0.000000 0.000000 0.000000 0.000000 0.092546 0.000000
# 6 0.000000 0.000000 0.000000 0.000000 0.000000 0.039029
#
#
# Mechanical properties :
#
#
# Convention : Reuss Voigt Hill
#
# Bulk Modulus (GPa) = 55.58250 55.98387 55.78318
# Shear Modulus (GPa) = 17.20385 19.41658 18.31022
#
# Velocity S-wave (km/s) = 3.17285 3.37073 3.27329
# Velocity P-wave (km/s) = 6.77845 6.92160 6.85040
#
# Compressibility (1/GPa) = 0.01799128
#
# Stress axis : x y z
#
# Youngs Moduli (GPa) = 43.00084 68.77462 47.55779
#
# Poissons Ratio (x) = 0.47505 0.55073
# Poissons Ratio (y) = 0.29702 0.09170
# Poissons Ratio (z) = 0.49796 0.13261
#
# Static dielectric constant tensor:
#      x y z
#    x 3.050300 0.000000 0.000000 
#    y 0.000000 3.204440 0.000000 
#    z 0.000000 0.000000 3.143300 
# 
# 
# High freq. dielectric constant tensor:
#      x y z
#    x 1.641900 0.000000 0.000000 
#    y 0.000000 1.655340 0.000000 
#    z 0.000000 0.000000 1.642890 
# 
# From -- ./inp_files/19821.got.cif
#   From: 2010.03.12/outbox.cif.g09.slc.cpg/sg67_10_cif.got.tgz:19821.got - 2010.04.10 22:41:39.
