data_PCOD8278652
_publ_section_title
;
Structure prediction by ZEFSAII (Michael W. Deem and Ramdas Pophale) SiO2 
 PCOD8278652
Probable space group: C M M A
;
_chemical_formula_sum "Si O2"
_cell_formula_units_Z 128
_cell_length_a 16.818823
_cell_length_b 25.125706
_cell_length_c 19.378421
_cell_angle_alpha 90.000000
_cell_angle_beta 90.000000
_cell_angle_gamma 90.000000
_cell_volume 8189.026201
_symmetry_space_group_name_H-M "C M M A"
_symmetry_group_IT_number 67
_symmetry_cell_setting 'orthorhombic'
loop_
_space_group_symop_operation_xyz
x,y,z
-x,1/2-y,z
x,-y,-z
-x,1/2+y,-z
-x,-y,-z
x,1/2+y,-z
-x,y,z
x,1/2-y,z
1/2+x,1/2+y,z
1/2-x,-y,z
1/2+x,1/2-y,-z
1/2-x,y,-z
1/2-x,1/2-y,-z
1/2+x,y,-z
1/2-x,1/2+y,z
1/2+x,-y,z
loop_
_atom_site_type_symbol
_atom_site_label
_atom_site_fract_x
_atom_site_fract_y
_atom_site_fract_z
Si Si1 0.190663 0.809286 0.563111
Si Si2 0.671623 0.969345 0.374016
Si Si3 0.409385 0.098390 0.514503
Si Si4 0.258750 0.186115 0.170239
Si Si5 0.245856 0.373725 0.689397
Si Si6 0.090860 0.074039 0.644779
Si Si7 0.588177 0.186486 0.088401
Si Si8 0.169535 0.307632 0.041486
O O1 0.161402 0.750000 0.581702
O O2 0.250000 0.808678 0.500000
O O3 0.113906 0.842867 0.540312
O O4 0.237495 0.833138 0.627811
O O5 0.641326 0.944767 0.444928
O O6 0.694417 0.924270 0.317425
O O7 0.750000 0.000000 0.396509
O O8 0.607224 0.010989 0.343647
O O9 0.500000 0.088760 0.533845
O O10 0.393398 0.090287 0.434094
O O11 0.254447 0.250000 0.179511
O O12 0.236494 0.156329 0.239924
O O13 0.347432 0.168612 0.145538
O O14 0.192996 0.164832 0.114328
O O15 0.153218 0.391636 0.689355
O O16 0.000000 0.086781 0.667102
O O17 0.500000 0.166814 0.110252
O O18 0.591682 0.250000 0.081795
O O19 0.609286 0.162291 0.011549
O O20 0.132856 0.250000 0.060121
O O21 0.250000 0.298730 0.000000
#
# Coordination Sequence:
#
# PCOD8278652 Si02
#       8
#    16  16  16  16  16  16  16  16
#     4  10  19  32  47  61  85 122 159 189 215 250
#     4   9  19  30  47  65  84 108 140 186 236 283
#     4  10  19  31  48  69  85 104 141 190 239 279
#     4   9  16  26  41  61  90 123 152 175 202 243
#     4  10  19  30  44  65  87 117 153 185 216 263
#     4  10  19  31  45  64  86 105 133 184 247 291
#     4   8  13  22  39  63  89 117 146 173 205 246
#     4   7  11  21  37  57  81 112 145 174 201 235
#
# _framework density 15.630675
#
# number of rings (size 3 to 8) (size 9 to 14) (size 15 to 20)
#    0.000    2.875    1.250    2.625    0.000    3.250 
#    0.000    0.000    0.000    4.875    0.000    3.500 
#    0.000   40.500    0.000   20.250    0.000    1.125 
#
# Total GULP energy -792887.815250 kJ/mol
# GULP energy per Si atom -12388.872113 kJ/mol
# Density = 1.559510 g / cm^3
# Si number density = 15.630675 Si / 1000 Ang^3
#
#
#
# Elastic Constant Matrix: (Units=GPa)
#
#
# Indices 1 2 3 4 5 6 
#
# 1 44.2005 14.6866 20.3187 0.0000 0.0000 0.0000
# 2 14.6866 70.0443 31.3787 0.0000 0.0000 0.0000
# 3 20.3187 31.3787 83.0186 0.0000 0.0000 0.0000
# 4 0.0000 0.0000 0.0000 -52.6994 0.0000 0.0000
# 5 0.0000 0.0000 0.0000 0.0000 16.1533 0.0000
# 6 0.0000 0.0000 0.0000 0.0000 0.0000 11.7150
#
#
#
# Elastic Compliance Matrix: (Units=1/GPa)
#
#
# Indices 1 2 3 4 5 6 
#
# 1 0.026053 -0.003137 -0.005191 0.000000 0.000000 0.000000
# 2 -0.003137 0.017565 -0.005871 0.000000 0.000000 0.000000
# 3 -0.005191 -0.005871 0.015535 0.000000 0.000000 0.000000
# 4 0.000000 0.000000 0.000000 -0.018976 0.000000 0.000000
# 5 0.000000 0.000000 0.000000 0.000000 0.061907 0.000000
# 6 0.000000 0.000000 0.000000 0.000000 0.000000 0.085361
#
#
# Mechanical properties :
#
#
# Convention : Reuss Voigt Hill
#
# Bulk Modulus (GPa) = 32.51571 36.67016 34.59293
# Shear Modulus (GPa) = 22.11470 3.75906 12.93688
#
# Velocity S-wave (km/s) = 3.76550 1.55246 2.88003
# Velocity P-wave (km/s) = 6.30500 5.16961 5.76532
#
# Compressibility (1/GPa) = 0.03075437
#
# Stress axis : x y z
#
# Youngs Moduli (GPa) = 38.38376 56.93245 64.37082
#
# Poissons Ratio (x) = 0.17862 0.33412
# Poissons Ratio (y) = 0.12042 0.37793
# Poissons Ratio (z) = 0.19923 0.33426
#
# Static dielectric constant tensor:
#      x y z
#    x 3.125660 0.000000 0.000000 
#    y 0.000000 2.950910 0.000000 
#    z 0.000000 0.000000 2.884540 
# 
# 
# High freq. dielectric constant tensor:
#      x y z
#    x 1.597300 0.000000 0.000000 
#    y 0.000000 1.570050 0.000000 
#    z 0.000000 0.000000 1.582110 
# 
# From -- ./inp_files/34555.got.cif
#   From: 2010.03.12/outbox.cif.g09.slc.cpg/sg67_18_cif.got.tgz:34555.got - 2010.04.10 22:41:39.
