data_PCOD8278409
_publ_section_title
;
Structure prediction by ZEFSAII (Michael W. Deem and Ramdas Pophale) SiO2 
 PCOD8278409
Probable space group: C M M A
;
_chemical_formula_sum "Si O2"
_cell_formula_units_Z 96
_cell_length_a 23.660882
_cell_length_b 8.893504
_cell_length_c 25.508251
_cell_angle_alpha 90.000000
_cell_angle_beta 90.000000
_cell_angle_gamma 90.000000
_cell_volume 5367.654035
_symmetry_space_group_name_H-M "C M M A"
_symmetry_group_IT_number 67
_symmetry_cell_setting 'orthorhombic'
loop_
_space_group_symop_operation_xyz
x,y,z
-x,1/2-y,z
x,-y,-z
-x,1/2+y,-z
-x,-y,-z
x,1/2+y,-z
-x,y,z
x,1/2-y,z
1/2+x,1/2+y,z
1/2-x,-y,z
1/2+x,1/2-y,-z
1/2-x,y,-z
1/2-x,1/2-y,-z
1/2+x,y,-z
1/2-x,1/2+y,z
1/2+x,-y,z
loop_
_atom_site_type_symbol
_atom_site_label
_atom_site_fract_x
_atom_site_fract_y
_atom_site_fract_z
Si Si1 0.932809 0.081371 0.051369
Si Si2 0.435363 0.926784 0.842430
Si Si3 0.887230 0.579619 0.746074
Si Si4 0.811321 0.070656 0.350081
Si Si5 0.000000 0.075602 0.577833
Si Si6 0.377134 0.930173 0.552797
Si Si7 0.000000 0.084227 0.317924
O O1 0.908852 0.250000 0.053090
O O2 0.000000 0.081153 0.048309
O O3 0.912752 0.995927 0.103441
O O4 0.907541 0.000000 0.000000
O O5 0.500000 0.980898 0.830532
O O6 0.433517 0.750000 0.847997
O O7 0.391253 0.976530 0.797485
O O8 0.876150 0.750000 0.764254
O O9 0.838429 0.526356 0.706022
O O10 0.946098 0.563087 0.717380
O O11 0.809766 0.250000 0.357596
O O12 0.750000 0.000000 0.351898
O O13 0.847120 0.998448 0.396707
O O14 0.057680 0.011255 0.552990
O O15 0.000000 0.250000 0.568568
O O16 0.000000 0.044716 0.639336
O O17 0.371065 0.750000 0.553451
O O18 0.349484 0.000000 0.500000
O O19 0.000000 0.250000 0.344663
#
# Coordination Sequence:
#
# PCOD8278409 Si02
#       7
#    16  16  16  16   8  16   8
#     4   9  16  26  40  59  91 135 179 218 255 300
#     4  10  19  28  43  70 102 136 174 214 256 304
#     4  10  20  34  53  76 103 134 169 210 259 311
#     4  11  24  42  61  80 103 135 174 217 264 314
#     4  10  21  35  55  84 114 139 167 205 252 305
#     4  11  23  39  59  84 111 139 171 209 254 307
#     4  10  18  31  53  78 104 135 168 207 256 315
#
# _framework density 17.884909
#
# number of rings (size 3 to 8) (size 9 to 14) (size 15 to 20)
#    0.000    1.833    2.500    2.250    0.000    5.667 
#    0.000    1.667    0.000    0.000    0.000    0.000 
#    0.000    0.667    0.000    7.000    0.000    4.167 
#
# Total GULP energy -595071.435602 kJ/mol
# GULP energy per Si atom -12397.321575 kJ/mol
# Density = 1.784420 g / cm^3
# Si number density = 17.884909 Si / 1000 Ang^3
#
#
#
# Elastic Constant Matrix: (Units=GPa)
#
#
# Indices 1 2 3 4 5 6 
#
# 1 77.4647 36.6308 39.4806 0.0000 0.0000 0.0000
# 2 36.6308 92.8699 69.6710 0.0000 0.0000 0.0000
# 3 39.4806 69.6710 151.3593 0.0000 0.0000 0.0000
# 4 0.0000 0.0000 0.0000 39.1003 0.0000 0.0000
# 5 0.0000 0.0000 0.0000 0.0000 -396.1895 0.0000
# 6 0.0000 0.0000 0.0000 0.0000 0.0000 17.6720
#
#
#
# Elastic Compliance Matrix: (Units=1/GPa)
#
#
# Indices 1 2 3 4 5 6 
#
# 1 0.016243 -0.004931 -0.001967 0.000000 0.000000 0.000000
# 2 -0.004931 0.017944 -0.006974 0.000000 0.000000 0.000000
# 3 -0.001967 -0.006974 0.010330 0.000000 0.000000 0.000000
# 4 0.000000 0.000000 0.000000 0.025575 0.000000 0.000000
# 5 0.000000 0.000000 0.000000 0.000000 -0.002524 0.000000
# 6 0.000000 0.000000 0.000000 0.000000 0.000000 0.056587
#
#
# Mechanical properties :
#
#
# Convention : Reuss Voigt Hill
#
# Bulk Modulus (GPa) = 59.61642 68.13986 63.87814
# Shear Modulus (GPa) = 31.74792 -56.15601 -12.20404
#
# Velocity S-wave (km/s) = 4.21779 -5.60952 -2.61505
# Velocity P-wave (km/s) = 7.55814 1.94263 5.16486
#
# Compressibility (1/GPa) = 0.01677390
#
# Stress axis : x y z
#
# Youngs Moduli (GPa) = 61.56309 55.72786 96.80693
#
# Poissons Ratio (x) = 0.27481 0.19043
# Poissons Ratio (y) = 0.30358 0.67509
# Poissons Ratio (z) = 0.12110 0.38862
#
# Static dielectric constant tensor:
#      x y z
#    x 2.770760 0.000000 0.000000 
#    y 0.000000 3.414790 0.000000 
#    z 0.000000 0.000000 3.424770 
# 
# 
# High freq. dielectric constant tensor:
#      x y z
#    x 1.645470 0.000000 0.000000 
#    y 0.000000 1.701500 0.000000 
#    z 0.000000 0.000000 1.702340 
# 
# From -- ./inp_files/42601.got.cif
#   From: 2010.03.12/outbox.cif.g09.slc.cpg/sg67_22_cif.got.tgz:42601.got - 2010.04.10 22:41:39.
