data_PCOD8278321
_publ_section_title
;
Structure prediction by ZEFSAII (Michael W. Deem and Ramdas Pophale) SiO2 
 PCOD8278321
Probable space group: C M M A
;
_chemical_formula_sum "Si O2"
_cell_formula_units_Z 64
_cell_length_a 19.037789
_cell_length_b 13.977486
_cell_length_c 12.539349
_cell_angle_alpha 90.000000
_cell_angle_beta 90.000000
_cell_angle_gamma 90.000000
_cell_volume 3336.726151
_symmetry_space_group_name_H-M "C M M A"
_symmetry_group_IT_number 67
_symmetry_cell_setting 'orthorhombic'
loop_
_space_group_symop_operation_xyz
x,y,z
-x,1/2-y,z
x,-y,-z
-x,1/2+y,-z
-x,-y,-z
x,1/2+y,-z
-x,y,z
x,1/2-y,z
1/2+x,1/2+y,z
1/2-x,-y,z
1/2+x,1/2-y,-z
1/2-x,y,-z
1/2-x,1/2-y,-z
1/2+x,y,-z
1/2-x,1/2+y,z
1/2+x,-y,z
loop_
_atom_site_type_symbol
_atom_site_label
_atom_site_fract_x
_atom_site_fract_y
_atom_site_fract_z
Si Si1 0.730987 0.355216 0.834161
Si Si2 0.578147 0.139338 0.299929
Si Si3 0.139388 0.024162 0.884998
Si Si4 0.279586 0.105954 0.391828
O O1 0.714224 0.250000 0.882082
O O2 0.793519 0.405476 0.901276
O O3 0.662898 0.422957 0.834009
O O4 0.754693 0.338032 0.712227
O O5 0.500000 0.123369 0.347105
O O6 0.589719 0.250000 0.268271
O O7 0.584370 0.075293 0.192834
O O8 0.634982 0.107225 0.389471
O O9 0.105396 0.000000 0.000000
O O10 0.250000 0.155021 0.500000
O O11 0.250000 0.000000 0.384829
#
# Coordination Sequence:
#
# PCOD8278321 Si02
#       4
#    16  16  16  16
#     4  10  18  30  50  78 110 141 179 229 275 316
#     4  10  21  38  58  81 111 145 183 226 272 327
#     4  10  19  32  50  76 109 143 182 226 271 318
#     4  10  18  33  57  83 106 139 181 223 273 326
#
# _framework density 19.180477
#
# number of rings (size 3 to 8) (size 9 to 14) (size 15 to 20)
#    0.000    2.000    5.000    4.500    0.000    5.500 
#    0.000    2.500    0.000    0.750    0.000    0.000 
#    0.000    0.000    0.000    0.000    0.000    0.000 
#
# Total GULP energy -396543.810671 kJ/mol
# GULP energy per Si atom -12391.994083 kJ/mol
# Density = 1.913682 g / cm^3
# Si number density = 19.180477 Si / 1000 Ang^3
#
#
#
# Elastic Constant Matrix: (Units=GPa)
#
#
# Indices 1 2 3 4 5 6 
#
# 1 122.8050 42.5761 40.6303 0.0000 0.0000 0.0000
# 2 42.5761 136.2107 -0.7626 0.0000 0.0000 0.0000
# 3 40.6303 -0.7626 93.8095 0.0000 0.0000 0.0000
# 4 0.0000 0.0000 0.0000 1.0384 0.0000 0.0000
# 5 0.0000 0.0000 0.0000 0.0000 19.4253 0.0000
# 6 0.0000 0.0000 0.0000 0.0000 0.0000 23.0759
#
#
#
# Elastic Compliance Matrix: (Units=1/GPa)
#
#
# Indices 1 2 3 4 5 6 
#
# 1 0.010906 -0.003436 -0.004752 0.000000 0.000000 0.000000
# 2 -0.003436 0.008424 0.001556 0.000000 0.000000 0.000000
# 3 -0.004752 0.001556 0.012731 0.000000 0.000000 0.000000
# 4 0.000000 0.000000 0.000000 0.963050 0.000000 0.000000
# 5 0.000000 0.000000 0.000000 0.000000 0.051479 0.000000
# 6 0.000000 0.000000 0.000000 0.000000 0.000000 0.043335
#
#
# Mechanical properties :
#
#
# Convention : Reuss Voigt Hill
#
# Bulk Modulus (GPa) = 53.19282 57.52365 55.35823
# Shear Modulus (GPa) = 4.50672 26.73335 15.62004
#
# Velocity S-wave (km/s) = 1.53452 3.73739 2.85682
# Velocity P-wave (km/s) = 5.56171 6.97710 6.30922
#
# Compressibility (1/GPa) = 0.01879953
#
# Stress axis : x y z
#
# Youngs Moduli (GPa) = 91.69130 118.70617 78.55140
#
# Poissons Ratio (x) = 0.40783 0.37324
# Poissons Ratio (y) = 0.31501 -0.12226
# Poissons Ratio (z) = 0.43568 -0.18476
#
# Static dielectric constant tensor:
#      x y z
#    x 3.311880 0.000000 0.000000 
#    y 0.000000 3.511080 0.000000 
#    z 0.000000 0.000000 3.893430 
# 
# 
# High freq. dielectric constant tensor:
#      x y z
#    x 1.706200 0.000000 0.000000 
#    y 0.000000 1.759590 0.000000 
#    z 0.000000 0.000000 1.735180 
# 
# From -- ./inp_files/28227.got.cif
#   From: 2010.03.12/outbox.cif.g09.slc.cpg/sg67_15_cif.got.tgz:28227.got - 2010.04.10 22:41:39.
