data_PCOD8278019
_publ_section_title
;
Structure prediction by ZEFSAII (Michael W. Deem and Ramdas Pophale) SiO2 
 PCOD8278019
Probable space group: C M M A
;
_chemical_formula_sum "Si O2"
_cell_formula_units_Z 96
_cell_length_a 8.702923
_cell_length_b 27.338625
_cell_length_c 23.883394
_cell_angle_alpha 90.000000
_cell_angle_beta 90.000000
_cell_angle_gamma 90.000000
_cell_volume 5682.479166
_symmetry_space_group_name_H-M "C M M A"
_symmetry_group_IT_number 67
_symmetry_cell_setting 'orthorhombic'
loop_
_space_group_symop_operation_xyz
x,y,z
-x,1/2-y,z
x,-y,-z
-x,1/2+y,-z
-x,-y,-z
x,1/2+y,-z
-x,y,z
x,1/2-y,z
1/2+x,1/2+y,z
1/2-x,-y,z
1/2+x,1/2-y,-z
1/2-x,y,-z
1/2-x,1/2-y,-z
1/2+x,y,-z
1/2-x,1/2+y,z
1/2+x,-y,z
loop_
_atom_site_type_symbol
_atom_site_label
_atom_site_fract_x
_atom_site_fract_y
_atom_site_fract_z
Si Si1 0.822946 0.805232 0.339925
Si Si2 0.320954 0.552190 0.613535
Si Si3 0.319800 0.355658 0.558096
Si Si4 0.180356 0.946754 0.831666
Si Si5 0.676796 0.602830 0.729031
Si Si6 0.182605 0.445675 0.944349
O O1 0.791766 0.750000 0.319572
O O2 0.721675 0.816481 0.394181
O O3 0.781846 0.841676 0.288990
O O4 0.000000 0.813875 0.357144
O O5 0.500000 0.551029 0.600721
O O6 0.250000 0.500000 0.600399
O O7 0.245712 0.591016 0.572047
O O8 0.287809 0.566643 0.677661
O O9 0.500000 0.359421 0.552250
O O10 0.250000 0.336577 0.500000
O O11 0.212995 0.911128 0.779943
O O12 0.256944 0.921511 0.886758
O O13 0.000000 0.952401 0.841332
O O14 0.250000 0.000000 0.818796
O O15 0.500000 0.598161 0.748112
O O16 0.250000 0.500000 0.943385
O O17 0.000000 0.445777 0.946555
O O18 0.250000 0.418731 0.000000
#
# Coordination Sequence:
#
# PCOD8278019 Si02
#       6
#    16  16  16  16  16  16
#     4   9  19  37  58  76  95 120 150 188 237 288
#     4  10  20  34  51  71  96 126 159 193 232 277
#     4  11  22  36  53  73  97 123 154 191 230 276
#     4  11  20  29  43  65  94 129 166 199 232 270
#     4   9  18  32  49  70  95 121 152 191 232 276
#     4  10  17  27  41  59  87 123 163 201 236 272
#
# _framework density 16.894034999999999
#
# number of rings (size 3 to 8) (size 9 to 14) (size 15 to 20)
#    0.000    2.000    0.000    8.000    0.000    5.667 
#    0.000    1.667    0.000    0.000    0.000    0.000 
#    0.000    0.667    0.000    1.833    0.000    3.000 
#
# Total GULP energy -595217.151907 kJ/mol
# GULP energy per Si atom -12400.357331 kJ/mol
# Density = 1.685558 g / cm^3
# Si number density = 16.894035 Si / 1000 Ang^3
#
#
#
# Elastic Constant Matrix: (Units=GPa)
#
#
# Indices 1 2 3 4 5 6 
#
# 1 132.0152 26.6745 51.7075 0.0000 0.0000 0.0000
# 2 26.6745 79.3080 27.2294 0.0000 0.0000 0.0000
# 3 51.7075 27.2294 106.7486 0.0000 0.0000 0.0000
# 4 0.0000 0.0000 0.0000 10.9817 0.0000 0.0000
# 5 0.0000 0.0000 0.0000 0.0000 30.7896 0.0000
# 6 0.0000 0.0000 0.0000 0.0000 0.0000 19.8599
#
#
#
# Elastic Compliance Matrix: (Units=1/GPa)
#
#
# Indices 1 2 3 4 5 6 
#
# 1 0.009573 -0.001784 -0.004182 0.000000 0.000000 0.000000
# 2 -0.001784 0.014152 -0.002746 0.000000 0.000000 0.000000
# 3 -0.004182 -0.002746 0.012094 0.000000 0.000000 0.000000
# 4 0.000000 0.000000 0.000000 0.091060 0.000000 0.000000
# 5 0.000000 0.000000 0.000000 0.000000 0.032479 0.000000
# 6 0.000000 0.000000 0.000000 0.000000 0.000000 0.050353
#
#
# Mechanical properties :
#
#
# Convention : Reuss Voigt Hill
#
# Bulk Modulus (GPa) = 54.36134 58.81053 56.58593
# Shear Modulus (GPa) = 21.43474 26.49029 23.96251
#
# Velocity S-wave (km/s) = 3.56585 3.96413 3.77025
# Velocity P-wave (km/s) = 7.01437 7.47258 7.24710
#
# Compressibility (1/GPa) = 0.01839543
#
# Stress axis : x y z
#
# Youngs Moduli (GPa) = 104.45586 70.66240 82.68602
#
# Poissons Ratio (x) = 0.12606 0.34581
# Poissons Ratio (y) = 0.18635 0.22703
# Poissons Ratio (z) = 0.43685 0.19402
#
# Static dielectric constant tensor:
#      x y z
#    x 3.220780 0.000000 0.000000 
#    y 0.000000 2.911790 0.000000 
#    z 0.000000 0.000000 3.603260 
# 
# 
# High freq. dielectric constant tensor:
#      x y z
#    x 1.665760 0.000000 0.000000 
#    y 0.000000 1.611100 0.000000 
#    z 0.000000 0.000000 1.653480 
# 
# From -- ./inp_files/40932.got.cif
#   From: 2010.03.12/outbox.cif.g09.slc.cpg/sg67_21_cif.got.tgz:40932.got - 2010.04.10 22:41:39.
