data_PCOD8278614
_publ_section_title
;
Structure prediction by ZEFSAII (Michael W. Deem and Ramdas Pophale) SiO2 
 PCOD8278614
Probable space group: C M M A
;
_chemical_formula_sum "Si O2"
_cell_formula_units_Z 96
_cell_length_a 28.676056
_cell_length_b 14.864010
_cell_length_c 14.734105
_cell_angle_alpha 90.000000
_cell_angle_beta 90.000000
_cell_angle_gamma 90.000000
_cell_volume 6280.282348
_symmetry_space_group_name_H-M "C M M A"
_symmetry_group_IT_number 67
_symmetry_cell_setting 'orthorhombic'
loop_
_space_group_symop_operation_xyz
x,y,z
-x,1/2-y,z
x,-y,-z
-x,1/2+y,-z
-x,-y,-z
x,1/2+y,-z
-x,y,z
x,1/2-y,z
1/2+x,1/2+y,z
1/2-x,-y,z
1/2+x,1/2-y,-z
1/2-x,y,-z
1/2-x,1/2-y,-z
1/2+x,y,-z
1/2-x,1/2+y,z
1/2+x,-y,z
loop_
_atom_site_type_symbol
_atom_site_label
_atom_site_fract_x
_atom_site_fract_y
_atom_site_fract_z
Si Si1 0.555142 0.557574 0.755040
Si Si2 0.944423 0.750000 0.524873
Si Si3 0.871117 0.995729 0.107689
Si Si4 0.798567 0.350158 0.892070
Si Si5 0.804488 0.349907 0.107551
Si Si6 0.444826 0.250000 0.319632
Si Si7 0.555375 0.442638 0.583773
O O1 0.500000 0.553069 0.770590
O O2 0.578986 0.520710 0.846478
O O3 0.571322 0.659799 0.732988
O O4 0.572002 0.490363 0.675748
O O5 0.924548 0.750000 0.421975
O O6 0.926389 0.660556 0.577270
O O7 0.000000 0.750000 0.521552
O O8 0.837584 0.916997 0.144553
O O9 0.846041 0.086635 0.142399
O O10 0.878925 0.000000 0.000000
O O11 0.809606 0.250000 0.856355
O O12 0.746958 0.379814 0.857471
O O13 0.801082 0.352847 0.999897
O O14 0.816448 0.250000 0.142193
O O15 0.500000 0.250000 0.327158
O O16 0.575816 0.500000 0.500000
O O17 0.500000 0.443861 0.578713
#
# Coordination Sequence:
#
# PCOD8278614 Si02
#       7
#    16   8  16  16  16   8  16
#     4  10  20  31  43  62  90 122 155 186 215 252
#     4   9  14  24  46  67  81 102 135 181 241 289
#     4  10  19  29  43  62  87 125 157 183 207 249
#     4   8  14  25  45  67  83 102 137 185 235 274
#     4   8  14  27  44  63  85 107 136 182 234 275
#     4   9  16  28  46  65  83 107 143 190 235 266
#     4   9  15  26  44  64  84 107 138 181 233 276
#
# _framework density 15.285937000000001
#
# number of rings (size 3 to 8) (size 9 to 14) (size 15 to 20)
#    0.000    3.000    1.667    1.500    1.167    2.333 
#    1.500    0.000    0.000    0.000    0.000    0.000 
#    0.000    2.667    0.000    9.667    0.000    1.000 
#
# Total GULP energy -594749.236676 kJ/mol
# GULP energy per Si atom -12390.609097 kJ/mol
# Density = 1.525115 g / cm^3
# Si number density = 15.285937 Si / 1000 Ang^3
#
#
#
# Elastic Constant Matrix: (Units=GPa)
#
#
# Indices 1 2 3 4 5 6 
#
# 1 53.4188 40.9268 32.3247 0.0000 0.0000 0.0000
# 2 40.9268 125.9863 42.4932 0.0000 0.0000 0.0000
# 3 32.3247 42.4932 54.9908 0.0000 0.0000 0.0000
# 4 0.0000 0.0000 0.0000 18.4124 0.0000 0.0000
# 5 0.0000 0.0000 0.0000 0.0000 2.5021 0.0000
# 6 0.0000 0.0000 0.0000 0.0000 0.0000 14.3157
#
#
#
# Elastic Compliance Matrix: (Units=1/GPa)
#
#
# Indices 1 2 3 4 5 6 
#
# 1 0.031559 -0.005403 -0.014376 0.000000 0.000000 0.000000
# 2 -0.005403 0.011660 -0.005834 0.000000 0.000000 0.000000
# 3 -0.014376 -0.005834 0.031144 0.000000 0.000000 0.000000
# 4 0.000000 0.000000 0.000000 0.054311 0.000000 0.000000
# 5 0.000000 0.000000 0.000000 0.000000 0.399671 0.000000
# 6 0.000000 0.000000 0.000000 0.000000 0.000000 0.069853
#
#
# Mechanical properties :
#
#
# Convention : Reuss Voigt Hill
#
# Bulk Modulus (GPa) = 43.22196 51.76504 47.49350
# Shear Modulus (GPa) = 7.60878 14.95612 11.28245
#
# Velocity S-wave (km/s) = 2.23348 3.13137 2.71973
# Velocity P-wave (km/s) = 5.91509 6.85653 6.40313
#
# Compressibility (1/GPa) = 0.02313638
#
# Stress axis : x y z
#
# Youngs Moduli (GPa) = 31.68710 85.76024 32.10942
#
# Poissons Ratio (x) = 0.46338 0.46159
# Poissons Ratio (y) = 0.17121 0.18734
# Poissons Ratio (z) = 0.45552 0.50035
#
# Static dielectric constant tensor:
#      x y z
#    x 2.651270 0.000000 0.000000 
#    y 0.000000 3.417330 0.000000 
#    z 0.000000 0.000000 2.582790 
# 
# 
# High freq. dielectric constant tensor:
#      x y z
#    x 1.546030 0.000000 0.000000 
#    y 0.000000 1.608130 0.000000 
#    z 0.000000 0.000000 1.541200 
# 
# From -- ./inp_files/27430.got.cif
#   From: 2010.03.12/outbox.cif.g09.slc.cpg/sg67_14_cif.got.tgz:27430.got - 2010.04.10 22:41:39.
