data_PCOD8278641
_publ_section_title
;
Structure prediction by ZEFSAII (Michael W. Deem and Ramdas Pophale) SiO2 
 PCOD8278641
Probable space group: C M M A
;
_chemical_formula_sum "Si O2"
_cell_formula_units_Z 104
_cell_length_a 8.739469
_cell_length_b 27.157287
_cell_length_c 21.285890
_cell_angle_alpha 90.000000
_cell_angle_beta 90.000000
_cell_angle_gamma 90.000000
_cell_volume 5051.998834
_symmetry_space_group_name_H-M "C M M A"
_symmetry_group_IT_number 67
_symmetry_cell_setting 'orthorhombic'
loop_
_space_group_symop_operation_xyz
x,y,z
-x,1/2-y,z
x,-y,-z
-x,1/2+y,-z
-x,-y,-z
x,1/2+y,-z
-x,y,z
x,1/2-y,z
1/2+x,1/2+y,z
1/2-x,-y,z
1/2+x,1/2-y,-z
1/2-x,y,-z
1/2-x,1/2-y,-z
1/2+x,y,-z
1/2-x,1/2+y,z
1/2+x,-y,z
loop_
_atom_site_type_symbol
_atom_site_label
_atom_site_fract_x
_atom_site_fract_y
_atom_site_fract_z
Si Si1 0.682267 0.947581 0.816592
Si Si2 0.316234 0.750000 0.931054
Si Si3 0.329129 0.696309 0.609402
Si Si4 0.181406 0.551316 0.681016
Si Si5 0.673166 0.404081 0.437718
Si Si6 0.177055 0.843770 0.145551
Si Si7 0.170026 0.692861 0.736328
O O1 0.500000 0.953026 0.810910
O O2 0.749007 0.933700 0.748210
O O3 0.726273 0.901848 0.864144
O O4 0.750000 0.000000 0.841022
O O5 0.500000 0.750000 0.931271
O O6 0.249608 0.800524 0.898204
O O7 0.250000 0.750000 0.000000
O O8 0.500000 0.697855 0.638429
O O9 0.285896 0.750000 0.581009
O O10 0.322594 0.655332 0.554946
O O11 0.214498 0.682080 0.665132
O O12 0.250000 0.500000 0.658850
O O13 0.231480 0.587328 0.625492
O O14 0.000000 0.549269 0.687153
O O15 0.500000 0.424394 0.432107
O O16 0.750000 0.427523 0.500000
O O17 0.211837 0.833424 0.217899
O O18 0.000000 0.839839 0.132881
O O19 0.174231 0.750000 0.751918
O O20 0.000000 0.671069 0.747129
#
# Coordination Sequence:
#
# PCOD8278641 Si02
#       7
#    16   8  16  16  16  16  16
#     4  10  20  35  57  87 117 149 186 230 283 341
#     4  10  22  40  60  86 120 160 201 240 277 322
#     4   9  19  35  53  72 100 139 177 217 271 334
#     4  11  22  38  59  82 109 140 175 221 278 335
#     4  11  23  38  54  74 100 134 180 228 276 334
#     4  10  20  35  57  81 114 156 194 229 277 336
#     4  10  19  29  47  79 111 137 175 226 279 331
#
# _framework density 20.585910999999999
#
# number of rings (size 3 to 8) (size 9 to 14) (size 15 to 20)
#    0.000    1.846    0.769    4.615    0.000    8.000 
#    0.000    1.538    0.000    0.462    0.000    3.231 
#    0.000    0.000    0.000    0.000    0.000    0.000 
#
# Total GULP energy -644187.354753 kJ/mol
# GULP energy per Si atom -12388.218361 kJ/mol
# Density = 2.053906 g / cm^3
# Si number density = 20.585911 Si / 1000 Ang^3
#
#
#
# Elastic Constant Matrix: (Units=GPa)
#
#
# Indices 1 2 3 4 5 6 
#
# 1 70.2432 43.2598 30.8003 0.0000 0.0000 0.0000
# 2 43.2598 135.0703 54.6882 0.0000 0.0000 0.0000
# 3 30.8003 54.6882 38.2799 0.0000 0.0000 0.0000
# 4 0.0000 0.0000 0.0000 20.6210 0.0000 0.0000
# 5 0.0000 0.0000 0.0000 0.0000 23.9883 0.0000
# 6 0.0000 0.0000 0.0000 0.0000 0.0000 24.7075
#
#
#
# Elastic Compliance Matrix: (Units=1/GPa)
#
#
# Indices 1 2 3 4 5 6 
#
# 1 0.022002 0.000287 -0.018113 0.000000 0.000000 0.000000
# 2 0.000287 0.017566 -0.025326 0.000000 0.000000 0.000000
# 3 -0.018113 -0.025326 0.076879 0.000000 0.000000 0.000000
# 4 0.000000 0.000000 0.000000 0.048494 0.000000 0.000000
# 5 0.000000 0.000000 0.000000 0.000000 0.041687 0.000000
# 6 0.000000 0.000000 0.000000 0.000000 0.000000 0.040474
#
#
# Mechanical properties :
#
#
# Convention : Reuss Voigt Hill
#
# Bulk Modulus (GPa) = 33.17546 55.67666 44.42606
# Shear Modulus (GPa) = 14.55801 21.51969 18.03885
#
# Velocity S-wave (km/s) = 2.66218 3.23671 2.96340
# Velocity P-wave (km/s) = 5.05966 6.40883 5.77379
#
# Compressibility (1/GPa) = 0.03014276
#
# Stress axis : x y z
#
# Youngs Moduli (GPa) = 45.45139 56.92819 13.00738
#
# Poissons Ratio (x) = -0.01634 0.23560
# Poissons Ratio (y) = -0.01305 0.32943
# Poissons Ratio (z) = 0.82325 1.44179
#
# Static dielectric constant tensor:
#      x y z
#    x 3.799490 0.000000 0.000000 
#    y 0.000000 4.265210 0.000000 
#    z 0.000000 0.000000 3.239370 
# 
# 
# High freq. dielectric constant tensor:
#      x y z
#    x 1.804530 0.000000 0.000000 
#    y 0.000000 1.828520 0.000000 
#    z 0.000000 0.000000 1.753620 
# 
# From -- ./inp_files/37315.got.cif
#   From: 2010.03.12/outbox.cif.g09.slc.cpg/sg67_19_cif.got.tgz:37315.got - 2010.04.10 22:41:39.
