data_PCOD8278557
_publ_section_title
;
Structure prediction by ZEFSAII (Michael W. Deem and Ramdas Pophale) SiO2 
 PCOD8278557
Probable space group: C M M A
;
_chemical_formula_sum "Si O2"
_cell_formula_units_Z 96
_cell_length_a 23.679998
_cell_length_b 8.577969
_cell_length_c 25.423858
_cell_angle_alpha 90.000000
_cell_angle_beta 90.000000
_cell_angle_gamma 90.000000
_cell_volume 5164.253922
_symmetry_space_group_name_H-M "C M M A"
_symmetry_group_IT_number 67
_symmetry_cell_setting 'orthorhombic'
loop_
_space_group_symop_operation_xyz
x,y,z
-x,1/2-y,z
x,-y,-z
-x,1/2+y,-z
-x,-y,-z
x,1/2+y,-z
-x,y,z
x,1/2-y,z
1/2+x,1/2+y,z
1/2-x,-y,z
1/2+x,1/2-y,-z
1/2-x,y,-z
1/2-x,1/2-y,-z
1/2+x,y,-z
1/2-x,1/2+y,z
1/2+x,-y,z
loop_
_atom_site_type_symbol
_atom_site_label
_atom_site_fract_x
_atom_site_fract_y
_atom_site_fract_z
Si Si1 0.064145 0.933576 0.555786
Si Si2 0.889225 0.934946 0.343555
Si Si3 0.688141 0.066058 0.250815
Si Si4 0.383868 0.565006 0.849709
Si Si5 0.500000 0.066554 0.288146
Si Si6 0.000000 0.932613 0.825539
Si Si7 0.687474 0.436329 0.945081
O O1 0.066020 0.750000 0.553111
O O2 0.000000 0.992043 0.568936
O O3 0.083862 0.000000 0.500000
O O4 0.110255 0.992807 0.598169
O O5 0.890497 0.750000 0.348228
O O6 0.836034 0.988895 0.307801
O O7 0.944691 0.003724 0.315272
O O8 0.692235 0.250000 0.248887
O O9 0.646423 0.009341 0.204368
O O10 0.750000 0.000000 0.241651
O O11 0.391266 0.750000 0.850449
O O12 0.444263 0.482768 0.856957
O O13 0.348076 0.507571 0.898381
O O14 0.500000 0.250000 0.294410
O O15 0.500000 0.027620 0.227762
O O16 0.000000 0.750000 0.814888
O O17 0.686855 0.250000 0.944024
O O18 0.750000 0.500000 0.937669
O O19 0.662152 0.500000 0.000000
#
# Coordination Sequence:
#
# PCOD8278557 Si02
#       7
#    16  16  16  16   8   8  16
#     4  10  20  32  49  77 109 142 178 222 272 327
#     4  10  19  34  55  78 107 146 183 224 275 331
#     4  10  22  37  56  81 111 147 186 227 278 330
#     4  11  22  40  61  84 116 155 192 234 286 341
#     4  10  18  34  55  76 109 150 187 223 276 339
#     4  12  24  36  55  86 119 152 190 233 280 343
#     4  11  22  39  62  90 118 153 196 242 289 336
#
# _framework density 18.589326
#
# number of rings (size 3 to 8) (size 9 to 14) (size 15 to 20)
#    0.000    1.500    2.500    4.250    0.000    4.667 
#    0.000    0.417    0.000    0.500    0.000    3.500 
#    0.000    0.000    0.000    0.000    0.000    0.000 
#
# Total GULP energy -595187.610591 kJ/mol
# GULP energy per Si atom -12399.741887 kJ/mol
# Density = 1.854702 g / cm^3
# Si number density = 18.589326 Si / 1000 Ang^3
#
#
#
# Elastic Constant Matrix: (Units=GPa)
#
#
# Indices 1 2 3 4 5 6 
#
# 1 87.2375 21.1539 43.0855 0.0000 0.0000 0.0000
# 2 21.1539 -2.8389 0.6444 0.0000 0.0000 0.0000
# 3 43.0855 0.6444 122.7097 0.0000 0.0000 0.0000
# 4 0.0000 0.0000 0.0000 28.8041 0.0000 0.0000
# 5 0.0000 0.0000 0.0000 0.0000 18.7686 0.0000
# 6 0.0000 0.0000 0.0000 0.0000 0.0000 27.9445
#
#
#
# Elastic Compliance Matrix: (Units=1/GPa)
#
#
# Indices 1 2 3 4 5 6 
#
# 1 0.004421 0.032551 -0.001723 0.000000 0.000000 0.000000
# 2 0.032551 -0.112159 -0.010840 0.000000 0.000000 0.000000
# 3 -0.001723 -0.010840 0.008811 0.000000 0.000000 0.000000
# 4 0.000000 0.000000 0.000000 0.034717 0.000000 0.000000
# 5 0.000000 0.000000 0.000000 0.000000 0.053281 0.000000
# 6 0.000000 0.000000 0.000000 0.000000 0.000000 0.035785
#
#
# Mechanical properties :
#
#
# Convention : Reuss Voigt Hill
#
# Bulk Modulus (GPa) = -16.96300 37.43064 10.23382
# Shear Modulus (GPa) = -143.80511 24.58505 -59.61003
#
# Velocity S-wave (km/s) = -8.80494 3.64061 -5.66890
# Velocity P-wave (km/s) = 10.60727 6.15235 6.10994
#
# Compressibility (1/GPa) = -0.05895185
#
# Stress axis : x y z
#
# Youngs Moduli (GPa) = 226.19980 -8.91592 113.49094
#
# Poissons Ratio (x) = 0.29022 0.19556
# Poissons Ratio (y) = -7.36300 1.23027
# Poissons Ratio (z) = 0.38978 -0.09665
#
# Static dielectric constant tensor:
#      x y z
#    x 3.701710 0.000000 0.000000 
#    y 0.000000 3.388920 0.000000 
#    z 0.000000 0.000000 2.053930 
# 
# 
# High freq. dielectric constant tensor:
#      x y z
#    x 1.705200 0.000000 0.000000 
#    y 0.000000 1.723500 0.000000 
#    z 0.000000 0.000000 1.728560 
# 
# From -- ./inp_files/42577.got.cif
#   From: 2010.03.12/outbox.cif.g09.slc.cpg/sg67_22_cif.got.tgz:42577.got - 2010.04.10 22:41:39.
