data_PCOD8278426
_publ_section_title
;
Structure prediction by ZEFSAII (Michael W. Deem and Ramdas Pophale) SiO2 
 PCOD8278426
Probable space group: C M M A
;
_chemical_formula_sum "Si O2"
_cell_formula_units_Z 112
_cell_length_a 20.773626
_cell_length_b 17.592269
_cell_length_c 17.761181
_cell_angle_alpha 90.000000
_cell_angle_beta 90.000000
_cell_angle_gamma 90.000000
_cell_volume 6490.916251
_symmetry_space_group_name_H-M "C M M A"
_symmetry_group_IT_number 67
_symmetry_cell_setting 'orthorhombic'
loop_
_space_group_symop_operation_xyz
x,y,z
-x,1/2-y,z
x,-y,-z
-x,1/2+y,-z
-x,-y,-z
x,1/2+y,-z
-x,y,z
x,1/2-y,z
1/2+x,1/2+y,z
1/2-x,-y,z
1/2+x,1/2-y,-z
1/2-x,y,-z
1/2-x,1/2-y,-z
1/2+x,y,-z
1/2-x,1/2+y,z
1/2+x,-y,z
loop_
_atom_site_type_symbol
_atom_site_label
_atom_site_fract_x
_atom_site_fract_y
_atom_site_fract_z
Si Si1 0.428825 0.659664 0.559878
Si Si2 0.302296 0.836391 0.159585
Si Si3 0.814542 0.661304 0.547202
Si Si4 0.770614 0.587657 0.691748
Si Si5 0.849031 0.666039 0.132176
Si Si6 0.674485 0.413838 0.989037
Si Si7 0.363424 0.659843 0.707040
O O1 0.500000 0.630257 0.537000
O O2 0.426610 0.750000 0.562741
O O3 0.375786 0.631561 0.500606
O O4 0.413023 0.628994 0.644359
O O5 0.328382 0.750000 0.170393
O O6 0.311194 0.887059 0.234646
O O7 0.227618 0.833390 0.139764
O O8 0.342382 0.878146 0.092597
O O9 0.821743 0.750000 0.570079
O O10 0.750000 0.648465 0.500000
O O11 0.814801 0.606461 0.619741
O O12 0.750000 0.500000 0.697406
O O13 0.707850 0.638834 0.680830
O O14 0.877396 0.750000 0.125203
O O15 0.878023 0.626757 0.208614
O O16 0.867516 0.625353 0.054730
O O17 0.654024 0.500000 0.000000
O O18 0.750000 0.402336 0.000000
O O19 0.365068 0.750000 0.713054
#
# Coordination Sequence:
#
# PCOD8278426 Si02
#       7
#    16  16  16  16  16  16  16
#     4   9  17  30  51  75  95 120 158 200 241 289
#     4   9  17  27  39  56  84 123 159 193 235 283
#     4  10  18  32  51  69  93 125 158 196 243 298
#     4  11  21  28  44  66  93 121 163 205 239 281
#     4   8  14  23  37  54  80 118 154 183 221 282
#     4   9  16  22  35  54  86 118 154 190 231 275
#     4   9  16  29  46  65  91 122 154 191 237 287
#
# _framework density 17.254883
#
# number of rings (size 3 to 8) (size 9 to 14) (size 15 to 20)
#    0.000    2.714    1.429    2.571    6.000    2.000 
#    0.000    0.000    0.000    1.714    0.000    0.000 
#    0.000    1.714    0.000    8.857    0.000    1.714 
#
# Total GULP energy -693813.401346 kJ/mol
# GULP energy per Si atom -12389.525024 kJ/mol
# Density = 1.721561 g / cm^3
# Si number density = 17.254883 Si / 1000 Ang^3
#
#
#
# Elastic Constant Matrix: (Units=GPa)
#
#
# Indices 1 2 3 4 5 6 
#
# 1 59.1945 9.3642 45.9461 0.0000 0.0000 0.0000
# 2 9.3642 75.2200 69.5896 0.0000 0.0000 0.0000
# 3 45.9461 69.5896 177.1369 0.0000 0.0000 0.0000
# 4 0.0000 0.0000 0.0000 20.7561 0.0000 0.0000
# 5 0.0000 0.0000 0.0000 0.0000 13.5614 0.0000
# 6 0.0000 0.0000 0.0000 0.0000 0.0000 3.8852
#
#
#
# Elastic Compliance Matrix: (Units=1/GPa)
#
#
# Indices 1 2 3 4 5 6 
#
# 1 0.021881 0.003969 -0.007235 0.000000 0.000000 0.000000
# 2 0.003969 0.021605 -0.009517 0.000000 0.000000 0.000000
# 3 -0.007235 -0.009517 0.011261 0.000000 0.000000 0.000000
# 4 0.000000 0.000000 0.000000 0.048179 0.000000 0.000000
# 5 0.000000 0.000000 0.000000 0.000000 0.073739 0.000000
# 6 0.000000 0.000000 0.000000 0.000000 0.000000 0.257387
#
#
# Mechanical properties :
#
#
# Convention : Reuss Voigt Hill
#
# Bulk Modulus (GPa) = 34.26830 62.37238 48.32034
# Shear Modulus (GPa) = 10.65314 20.08396 15.36855
#
# Velocity S-wave (km/s) = 2.48745 3.41538 2.98766
# Velocity P-wave (km/s) = 5.30594 7.19578 6.32188
#
# Compressibility (1/GPa) = 0.02918148
#
# Stress axis : x y z
#
# Youngs Moduli (GPa) = 45.70120 46.28530 88.80243
#
# Poissons Ratio (x) = -0.18373 0.64249
# Poissons Ratio (y) = -0.18141 0.84516
# Poissons Ratio (z) = 0.33065 0.44051
#
# Static dielectric constant tensor:
#      x y z
#    x 2.769360 0.000000 0.000000 
#    y 0.000000 3.066100 0.000000 
#    z 0.000000 0.000000 3.692840 
# 
# 
# High freq. dielectric constant tensor:
#      x y z
#    x 1.588480 0.000000 0.000000 
#    y 0.000000 1.647420 0.000000 
#    z 0.000000 0.000000 1.689350 
# 
# From -- ./inp_files/35207.got.cif
#   From: 2010.03.12/outbox.cif.g09.slc.cpg/sg67_18_cif.got.tgz:35207.got - 2010.04.10 22:41:39.
