data_PCOD8278481
_publ_section_title
;
Structure prediction by ZEFSAII (Michael W. Deem and Ramdas Pophale) SiO2 
 PCOD8278481
Probable space group: C M M A
;
_chemical_formula_sum "Si O2"
_cell_formula_units_Z 112
_cell_length_a 27.266691
_cell_length_b 14.942926
_cell_length_c 12.745976
_cell_angle_alpha 90.000000
_cell_angle_beta 90.000000
_cell_angle_gamma 90.000000
_cell_volume 5193.273305
_symmetry_space_group_name_H-M "C M M A"
_symmetry_group_IT_number 67
_symmetry_cell_setting 'orthorhombic'
loop_
_space_group_symop_operation_xyz
x,y,z
-x,1/2-y,z
x,-y,-z
-x,1/2+y,-z
-x,-y,-z
x,1/2+y,-z
-x,y,z
x,1/2-y,z
1/2+x,1/2+y,z
1/2-x,-y,z
1/2+x,1/2-y,-z
1/2-x,y,-z
1/2-x,1/2-y,-z
1/2+x,y,-z
1/2-x,1/2+y,z
1/2+x,-y,z
loop_
_atom_site_type_symbol
_atom_site_label
_atom_site_fract_x
_atom_site_fract_y
_atom_site_fract_z
Si Si1 0.055880 0.395014 0.514505
Si Si2 0.697616 0.512914 0.293173
Si Si3 0.118917 0.148133 0.324486
Si Si4 0.702008 0.085854 0.938352
Si Si5 0.376405 0.353830 0.289720
Si Si6 0.601803 0.348726 0.901676
Si Si7 0.945790 0.643097 0.104724
O O1 0.058578 0.500000 0.500000
O O2 0.075278 0.350979 0.407625
O O3 0.090553 0.361983 0.607047
O O4 0.000000 0.362938 0.534893
O O5 0.750000 0.500000 0.351771
O O6 0.664072 0.583799 0.358433
O O7 0.712067 0.555685 0.180749
O O8 0.671442 0.416059 0.291221
O O9 0.137965 0.250000 0.307826
O O10 0.098864 0.105947 0.213675
O O11 0.658451 0.157746 0.940371
O O12 0.750000 0.123719 0.000000
O O13 0.682255 0.000000 0.000000
O O14 0.360185 0.250000 0.276932
O O15 0.408684 0.390318 0.193193
O O16 0.580326 0.250000 0.888572
O O17 0.569654 0.397983 0.991013
O O18 0.943773 0.750000 0.100063
O O19 0.000000 0.608539 0.132871
#
# Coordination Sequence:
#
# PCOD8278481 Si02
#       7
#    16  16  16  16  16  16  16
#     4  11  23  43  71  98 126 165 215 268 320 380
#     4  11  22  39  62  89 128 166 206 266 319 369
#     4  10  22  41  64  93 129 167 210 262 321 381
#     4  10  18  32  54  81 114 163 209 252 309 364
#     4  11  23  40  65  95 127 167 214 264 320 380
#     4   9  19  34  55  86 123 161 203 256 312 378
#     4   9  18  33  55  86 126 166 202 250 315 382
#
# _framework density 21.566358999999999
#
# number of rings (size 3 to 8) (size 9 to 14) (size 15 to 20)
#    0.000    1.857    2.857    1.714    0.000    3.143 
#    0.000    2.857    0.000    6.000    0.000    0.000 
#    0.000    0.000    0.000    0.000    0.000    0.000 
#
# Total GULP energy -693966.026313 kJ/mol
# GULP energy per Si atom -12392.250470 kJ/mol
# Density = 2.151727 g / cm^3
# Si number density = 21.566359 Si / 1000 Ang^3
#
#
#
# Elastic Constant Matrix: (Units=GPa)
#
#
# Indices 1 2 3 4 5 6 
#
# 1 141.0881 36.6263 45.7426 0.0000 0.0000 0.0000
# 2 36.6263 77.7879 4.3520 0.0000 0.0000 0.0000
# 3 45.7426 4.3520 104.6536 0.0000 0.0000 0.0000
# 4 0.0000 0.0000 0.0000 14.8879 0.0000 0.0000
# 5 0.0000 0.0000 0.0000 0.0000 23.0421 0.0000
# 6 0.0000 0.0000 0.0000 0.0000 0.0000 34.2954
#
#
#
# Elastic Compliance Matrix: (Units=1/GPa)
#
#
# Indices 1 2 3 4 5 6 
#
# 1 0.009473 -0.004239 -0.003964 0.000000 0.000000 0.000000
# 2 -0.004239 0.014782 0.001238 0.000000 0.000000 0.000000
# 3 -0.003964 0.001238 0.011237 0.000000 0.000000 0.000000
# 4 0.000000 0.000000 0.000000 0.067169 0.000000 0.000000
# 5 0.000000 0.000000 0.000000 0.000000 0.043399 0.000000
# 6 0.000000 0.000000 0.000000 0.000000 0.000000 0.029158
#
#
# Mechanical properties :
#
#
# Convention : Reuss Voigt Hill
#
# Bulk Modulus (GPa) = 46.37852 55.21905 50.79879
# Shear Modulus (GPa) = 25.46658 30.23233 27.84945
#
# Velocity S-wave (km/s) = 3.44007 3.74816 3.59742
# Velocity P-wave (km/s) = 6.10987 6.66269 6.39226
#
# Compressibility (1/GPa) = 0.02156170
#
# Stress axis : x y z
#
# Youngs Moduli (GPa) = 105.55783 67.64970 88.99445
#
# Poissons Ratio (x) = 0.28675 0.35281
# Poissons Ratio (y) = 0.44744 -0.11017
# Poissons Ratio (z) = 0.41848 -0.08375
#
# Static dielectric constant tensor:
#      x y z
#    x 3.989420 0.000000 0.000000 
#    y 0.000000 3.753180 0.000000 
#    z 0.000000 0.000000 3.986970 
# 
# 
# High freq. dielectric constant tensor:
#      x y z
#    x 1.839330 0.000000 0.000000 
#    y 0.000000 1.835390 0.000000 
#    z 0.000000 0.000000 1.844920 
# 
# From -- ./inp_files/23789.got.cif
#   From: 2010.03.12/outbox.cif.g09.slc.cpg/sg67_12_cif.got.tgz:23789.got - 2010.04.10 22:41:39.
