data_PCOD8278398
_publ_section_title
;
Structure prediction by ZEFSAII (Michael W. Deem and Ramdas Pophale) SiO2 
 PCOD8278398
Probable space group: C M M A
;
_chemical_formula_sum "Si O2"
_cell_formula_units_Z 128
_cell_length_a 22.775187
_cell_length_b 18.085084
_cell_length_c 17.568312
_cell_angle_alpha 90.000000
_cell_angle_beta 90.000000
_cell_angle_gamma 90.000000
_cell_volume 7236.232585
_symmetry_space_group_name_H-M "C M M A"
_symmetry_group_IT_number 67
_symmetry_cell_setting 'orthorhombic'
loop_
_space_group_symop_operation_xyz
x,y,z
-x,1/2-y,z
x,-y,-z
-x,1/2+y,-z
-x,-y,-z
x,1/2+y,-z
-x,y,z
x,1/2-y,z
1/2+x,1/2+y,z
1/2-x,-y,z
1/2+x,1/2-y,-z
1/2-x,y,-z
1/2-x,1/2-y,-z
1/2+x,y,-z
1/2-x,1/2+y,z
1/2+x,-y,z
loop_
_atom_site_type_symbol
_atom_site_label
_atom_site_fract_x
_atom_site_fract_y
_atom_site_fract_z
Si Si1 0.336059 0.163934 0.821310
Si Si2 0.800373 0.663925 0.655339
Si Si3 0.833650 0.337423 0.642043
Si Si4 0.935502 0.336215 0.750853
Si Si5 0.761340 0.913426 0.084774
Si Si6 0.619750 0.663801 0.908835
Si Si7 0.935331 0.662411 0.931813
Si Si8 0.819371 0.416830 0.492319
O O1 0.328510 0.250000 0.838366
O O2 0.337719 0.148139 0.731380
O O3 0.280103 0.124748 0.855156
O O4 0.394819 0.133507 0.862364
O O5 0.801645 0.750000 0.632486
O O6 0.732350 0.638534 0.667147
O O7 0.834006 0.617677 0.590112
O O8 0.837753 0.250000 0.638792
O O9 0.882114 0.370659 0.700804
O O10 0.849012 0.368750 0.558700
O O11 0.936740 0.250000 0.732879
O O12 0.925603 0.349176 0.840501
O O13 0.000000 0.370064 0.730128
O O14 0.826505 0.890547 0.108314
O O15 0.750000 0.000000 0.089131
O O16 0.750000 0.882840 0.000000
O O17 0.639769 0.750000 0.912800
O O18 0.590419 0.637052 0.987256
O O19 0.939754 0.750000 0.930379
O O20 0.000000 0.627497 0.921042
O O21 0.843580 0.500000 0.500000
O O22 0.750000 0.413940 0.500000
#
# Coordination Sequence:
#
# PCOD8278398 Si02
#       8
#    16  16  16  16  16  16  16  16
#     4  10  19  33  52  74  99 132 170 209 251 294
#     4   9  17  30  49  75 103 129 163 204 251 303
#     4   9  16  28  47  70  98 128 157 196 250 303
#     4   9  17  29  48  76 103 125 159 208 252 296
#     4  11  22  34  47  71 105 136 167 208 259 305
#     4  10  18  31  52  74 100 132 168 207 251 303
#     4   9  17  29  49  75  98 127 171 216 250 283
#     4   9  17  30  47  72  99 128 161 196 242 302
#
# _framework density 17.688762000000001
#
# number of rings (size 3 to 8) (size 9 to 14) (size 15 to 20)
#    0.000    2.500    1.250    1.875    0.000    5.500 
#    6.750    0.000    0.000    3.375    0.000    3.500 
#    0.000    0.000    0.000    0.000    0.000    0.000 
#
# Total GULP energy -793364.737328 kJ/mol
# GULP energy per Si atom -12396.324021 kJ/mol
# Density = 1.764850 g / cm^3
# Si number density = 17.688762 Si / 1000 Ang^3
#
#
#
# Elastic Constant Matrix: (Units=GPa)
#
#
# Indices 1 2 3 4 5 6 
#
# 1 110.7214 25.6735 56.4546 0.0000 0.0000 0.0000
# 2 25.6735 32.7852 36.4467 0.0000 0.0000 0.0000
# 3 56.4546 36.4467 133.4114 0.0000 0.0000 0.0000
# 4 0.0000 0.0000 0.0000 25.0743 0.0000 0.0000
# 5 0.0000 0.0000 0.0000 0.0000 17.8883 0.0000
# 6 0.0000 0.0000 0.0000 0.0000 0.0000 4.0396
#
#
#
# Elastic Compliance Matrix: (Units=1/GPa)
#
#
# Indices 1 2 3 4 5 6 
#
# 1 0.012161 -0.005461 -0.003654 0.000000 0.000000 0.000000
# 2 -0.005461 0.046257 -0.010326 0.000000 0.000000 0.000000
# 3 -0.003654 -0.010326 0.011863 0.000000 0.000000 0.000000
# 4 0.000000 0.000000 0.000000 0.039881 0.000000 0.000000
# 5 0.000000 0.000000 0.000000 0.000000 0.055902 0.000000
# 6 0.000000 0.000000 0.000000 0.000000 0.000000 0.247547
#
#
# Mechanical properties :
#
#
# Convention : Reuss Voigt Hill
#
# Bulk Modulus (GPa) = 31.84833 57.11862 44.48348
# Shear Modulus (GPa) = 10.80004 19.95667 15.37836
#
# Velocity S-wave (km/s) = 2.47363 3.36253 2.95173
# Velocity P-wave (km/s) = 5.11883 6.88742 6.06790
#
# Compressibility (1/GPa) = 0.03139882
#
# Stress axis : x y z
#
# Youngs Moduli (GPa) = 82.22918 21.61819 84.29563
#
# Poissons Ratio (x) = 0.11805 0.30804
# Poissons Ratio (y) = 0.44903 0.87046
# Poissons Ratio (z) = 0.30049 0.22324
#
# Static dielectric constant tensor:
#      x y z
#    x 3.386880 0.000000 0.000000 
#    y 0.000000 2.981000 0.000000 
#    z 0.000000 0.000000 3.437890 
# 
# 
# High freq. dielectric constant tensor:
#      x y z
#    x 1.663250 0.000000 0.000000 
#    y 0.000000 1.649700 0.000000 
#    z 0.000000 0.000000 1.691960 
# 
# From -- ./inp_files/35648.got.cif
#   From: 2010.03.12/outbox.cif.g09.slc.cpg/sg67_18_cif.got.tgz:35648.got - 2010.04.10 22:41:39.
