data_PCOD8278831
_publ_section_title
;
Structure prediction by ZEFSAII (Michael W. Deem and Ramdas Pophale) SiO2 
 PCOD8278831
Probable space group: C M M A
;
_chemical_formula_sum "Si O2"
_cell_formula_units_Z 72
_cell_length_a 14.698610
_cell_length_b 26.333297
_cell_length_c 10.914945
_cell_angle_alpha 90.000000
_cell_angle_beta 90.000000
_cell_angle_gamma 90.000000
_cell_volume 4224.769857
_symmetry_space_group_name_H-M "C M M A"
_symmetry_group_IT_number 67
_symmetry_cell_setting 'orthorhombic'
loop_
_space_group_symop_operation_xyz
x,y,z
-x,1/2-y,z
x,-y,-z
-x,1/2+y,-z
-x,-y,-z
x,1/2+y,-z
-x,y,z
x,1/2-y,z
1/2+x,1/2+y,z
1/2-x,-y,z
1/2+x,1/2-y,-z
1/2-x,y,-z
1/2-x,1/2-y,-z
1/2+x,y,-z
1/2-x,1/2+y,z
1/2+x,-y,z
loop_
_atom_site_type_symbol
_atom_site_label
_atom_site_fract_x
_atom_site_fract_y
_atom_site_fract_z
Si Si1 0.762528 0.443987 0.203797
Si Si2 0.250000 0.133258 0.000000
Si Si3 0.604647 0.691881 0.844511
Si Si4 0.895321 0.551389 0.570000
Si Si5 0.602857 0.106168 0.333994
O O1 0.750000 0.500000 0.146927
O O2 0.793664 0.403265 0.102803
O O3 0.835962 0.441027 0.310704
O O4 0.663092 0.431314 0.254013
O O5 0.331050 0.168108 0.051410
O O6 0.500000 0.686778 0.888803
O O7 0.632480 0.750000 0.823492
O O8 0.618349 0.663875 0.713001
O O9 0.866371 0.500000 0.500000
O O10 0.876113 0.599239 0.478726
O O11 0.000000 0.549024 0.610791
O O12 0.500000 0.088157 0.309213
#
# Coordination Sequence:
#
# PCOD8278831 Si02
#       5
#    16   8  16  16  16
#     4  11  20  31  49  70 104 143 170 198 251 302
#     4  10  22  34  48  76 104 132 176 220 246 294
#     4   9  18  35  57  74  95 133 174 215 263 307
#     4  10  19  31  50  74 101 135 169 205 249 303
#     4   9  18  31  49  76 100 124 168 211 250 304
#
# _framework density 17.042348
#
# number of rings (size 3 to 8) (size 9 to 14) (size 15 to 20)
#    0.000    2.222    2.222    1.333    0.000    0.889 
#    0.000    0.000    0.000   18.667    0.000    3.111 
#    0.000    0.000    0.000    0.000    0.000    0.000 
#
# Total GULP energy -446249.706747 kJ/mol
# GULP energy per Si atom -12395.825187 kJ/mol
# Density = 1.700356 g / cm^3
# Si number density = 17.042348 Si / 1000 Ang^3
#
#
#
# Elastic Constant Matrix: (Units=GPa)
#
#
# Indices 1 2 3 4 5 6 
#
# 1 71.8475 55.3890 50.3354 0.0000 0.0000 0.0000
# 2 55.3890 135.6028 65.1174 0.0000 0.0000 0.0000
# 3 50.3354 65.1174 104.2810 0.0000 0.0000 0.0000
# 4 0.0000 0.0000 0.0000 24.5878 0.0000 0.0000
# 5 0.0000 0.0000 0.0000 0.0000 23.7696 0.0000
# 6 0.0000 0.0000 0.0000 0.0000 0.0000 23.2043
#
#
#
# Elastic Compliance Matrix: (Units=1/GPa)
#
#
# Indices 1 2 3 4 5 6 
#
# 1 0.024093 -0.006080 -0.007833 0.000000 0.000000 0.000000
# 2 -0.006080 0.012067 -0.004601 0.000000 0.000000 0.000000
# 3 -0.007833 -0.004601 0.016243 0.000000 0.000000 0.000000
# 4 0.000000 0.000000 0.000000 0.040671 0.000000 0.000000
# 5 0.000000 0.000000 0.000000 0.000000 0.042071 0.000000
# 6 0.000000 0.000000 0.000000 0.000000 0.000000 0.043096
#
#
# Mechanical properties :
#
#
# Convention : Reuss Voigt Hill
#
# Bulk Modulus (GPa) = 65.03352 72.60165 68.81758
# Shear Modulus (GPa) = 22.68680 23.70495 23.19588
#
# Velocity S-wave (km/s) = 3.65252 3.73358 3.69327
# Velocity P-wave (km/s) = 7.48536 7.82812 7.65866
#
# Compressibility (1/GPa) = 0.01537668
#
# Stress axis : x y z
#
# Youngs Moduli (GPa) = 41.50560 82.87038 61.56410
#
# Poissons Ratio (x) = 0.50383 0.48224
# Poissons Ratio (y) = 0.25234 0.28323
# Poissons Ratio (z) = 0.32512 0.38125
#
# Static dielectric constant tensor:
#      x y z
#    x 3.244960 0.000000 0.000000 
#    y 0.000000 3.350850 0.000000 
#    z 0.000000 0.000000 3.253390 
# 
# 
# High freq. dielectric constant tensor:
#      x y z
#    x 1.665370 0.000000 0.000000 
#    y 0.000000 1.651670 0.000000 
#    z 0.000000 0.000000 1.645680 
# 
# From -- ./inp_files/8263.got.cif
#   From: 2010.03.12/outbox.cif.g09.slc.cpg/sg67_5_cif.got.tgz:8263.got - 2010.04.10 22:41:39.
