data_PCOD8278577
_publ_section_title
;
Structure prediction by ZEFSAII (Michael W. Deem and Ramdas Pophale) SiO2 
 PCOD8278577
Probable space group: C M M A
;
_chemical_formula_sum "Si O2"
_cell_formula_units_Z 80
_cell_length_a 10.585463
_cell_length_b 32.164370
_cell_length_c 12.265893
_cell_angle_alpha 90.000000
_cell_angle_beta 90.000000
_cell_angle_gamma 90.000000
_cell_volume 4176.226835
_symmetry_space_group_name_H-M "C M M A"
_symmetry_group_IT_number 67
_symmetry_cell_setting 'orthorhombic'
loop_
_space_group_symop_operation_xyz
x,y,z
-x,1/2-y,z
x,-y,-z
-x,1/2+y,-z
-x,-y,-z
x,1/2+y,-z
-x,y,z
x,1/2-y,z
1/2+x,1/2+y,z
1/2-x,-y,z
1/2+x,1/2-y,-z
1/2-x,y,-z
1/2-x,1/2-y,-z
1/2+x,y,-z
1/2-x,1/2+y,z
1/2+x,-y,z
loop_
_atom_site_type_symbol
_atom_site_label
_atom_site_fract_x
_atom_site_fract_y
_atom_site_fract_z
Si Si1 0.000000 0.796691 0.719564
Si Si2 0.747889 0.405175 0.209021
Si Si3 0.500000 0.297602 0.977557
Si Si4 0.692028 0.352550 0.601052
Si Si5 0.500000 0.954076 0.273046
Si Si6 0.000000 0.449411 0.739610
Si Si7 0.750000 0.848372 0.000000
Si Si8 0.500000 0.083819 0.506507
O O1 0.120303 0.820240 0.675401
O O2 0.000000 0.750000 0.675578
O O3 0.000000 0.798562 0.848162
O O4 0.717485 0.376233 0.314016
O O5 0.875795 0.431409 0.226021
O O6 0.624269 0.433611 0.196887
O O7 0.770767 0.377484 0.103425
O O8 0.500000 0.250000 0.020275
O O9 0.373626 0.320007 0.021200
O O10 0.750000 0.326311 0.500000
O O11 0.619083 0.387292 0.530756
O O12 0.500000 0.953148 0.404528
O O13 0.500000 0.001680 0.240212
O O14 0.000000 0.436684 0.612587
#
# Coordination Sequence:
#
# PCOD8278577 Si02
#       8
#     8  16   8  16   8   8   8   8
#     4  10  21  37  59  89 124 165 201 243 310 372
#     4  11  23  39  60  88 114 163 202 244 302 367
#     4  11  23  41  67  96 122 156 207 264 309 349
#     4  10  18  36  60  84 120 158 201 240 295 376
#     4  10  23  39  57  83 124 161 198 243 309 375
#     4  12  21  37  58  93 119 145 202 269 303 337
#     4  12  23  44  65  88 122 164 206 252 301 374
#     4   9  19  32  56  85 115 155 195 246 300 357
#
# _framework density 19.156047000000001
#
# number of rings (size 3 to 8) (size 9 to 14) (size 15 to 20)
#    0.000    1.400    4.000    3.000    0.000    0.400 
#    0.000    5.000    0.000    1.200    0.000    0.000 
#    0.000    0.000    0.000    0.000    0.000    0.000 
#
# Total GULP energy -495659.196222 kJ/mol
# GULP energy per Si atom -12391.479906 kJ/mol
# Density = 1.911245 g / cm^3
# Si number density = 19.156047 Si / 1000 Ang^3
#
#
#
# Elastic Constant Matrix: (Units=GPa)
#
#
# Indices 1 2 3 4 5 6 
#
# 1 122.0693 41.7939 16.1103 0.0000 0.0000 0.0000
# 2 41.7939 115.0069 30.6695 0.0000 0.0000 0.0000
# 3 16.1103 30.6695 75.8005 0.0000 0.0000 0.0000
# 4 0.0000 0.0000 0.0000 26.3354 0.0000 0.0000
# 5 0.0000 0.0000 0.0000 0.0000 38.5820 0.0000
# 6 0.0000 0.0000 0.0000 0.0000 0.0000 22.0355
#
#
#
# Elastic Compliance Matrix: (Units=1/GPa)
#
#
# Indices 1 2 3 4 5 6 
#
# 1 0.009388 -0.003228 -0.000689 0.000000 0.000000 0.000000
# 2 -0.003228 0.010857 -0.003707 0.000000 0.000000 0.000000
# 3 -0.000689 -0.003707 0.014839 0.000000 0.000000 0.000000
# 4 0.000000 0.000000 0.000000 0.037972 0.000000 0.000000
# 5 0.000000 0.000000 0.000000 0.000000 0.025919 0.000000
# 6 0.000000 0.000000 0.000000 0.000000 0.000000 0.045381
#
#
# Mechanical properties :
#
#
# Convention : Reuss Voigt Hill
#
# Bulk Modulus (GPa) = 50.41357 54.44715 52.43036
# Shear Modulus (GPa) = 30.08150 32.34410 31.21280
#
# Velocity S-wave (km/s) = 3.96705 4.11354 4.04096
# Velocity P-wave (km/s) = 6.88170 7.14467 7.01441
#
# Compressibility (1/GPa) = 0.01983593
#
# Stress axis : x y z
#
# Youngs Moduli (GPa) = 106.51670 92.10967 67.39108
#
# Poissons Ratio (x) = 0.29732 0.04645
# Poissons Ratio (y) = 0.34382 0.24979
# Poissons Ratio (z) = 0.07342 0.34142
#
# Static dielectric constant tensor:
#      x y z
#    x 3.498290 0.000000 0.000000 
#    y 0.000000 3.519070 0.000000 
#    z 0.000000 0.000000 3.559580 
# 
# 
# High freq. dielectric constant tensor:
#      x y z
#    x 1.751020 0.000000 0.000000 
#    y 0.000000 1.740570 0.000000 
#    z 0.000000 0.000000 1.748740 
# 
# From -- ./inp_files/16858.got.cif
#   From: 2010.03.12/outbox.cif.g09.slc.cpg/sg67_9_cif.got.tgz:16858.got - 2010.04.10 22:41:39.
