data_PCOD8278664
_publ_section_title
;
Structure prediction by ZEFSAII (Michael W. Deem and Ramdas Pophale) SiO2 
 PCOD8278664
Probable space group: C M M A
;
_chemical_formula_sum "Si O2"
_cell_formula_units_Z 72
_cell_length_a 8.803459
_cell_length_b 25.293392
_cell_length_c 19.554699
_cell_angle_alpha 90.000000
_cell_angle_beta 90.000000
_cell_angle_gamma 90.000000
_cell_volume 4354.231909
_symmetry_space_group_name_H-M "C M M A"
_symmetry_group_IT_number 67
_symmetry_cell_setting 'orthorhombic'
loop_
_space_group_symop_operation_xyz
x,y,z
-x,1/2-y,z
x,-y,-z
-x,1/2+y,-z
-x,-y,-z
x,1/2+y,-z
-x,y,z
x,1/2-y,z
1/2+x,1/2+y,z
1/2-x,-y,z
1/2+x,1/2-y,-z
1/2-x,y,-z
1/2-x,1/2-y,-z
1/2+x,y,-z
1/2-x,1/2+y,z
1/2+x,-y,z
loop_
_atom_site_type_symbol
_atom_site_label
_atom_site_fract_x
_atom_site_fract_y
_atom_site_fract_z
Si Si1 0.677200 0.445320 0.571430
Si Si2 0.676569 0.343553 0.657513
Si Si3 0.820994 0.250000 0.574293
Si Si4 0.829084 0.312889 0.068012
Si Si5 0.676312 0.187867 0.207197
O O1 0.500000 0.453998 0.559111
O O2 0.750000 0.500000 0.597310
O O3 0.750000 0.426710 0.500000
O O4 0.709749 0.401589 0.628539
O O5 0.500000 0.328419 0.652391
O O6 0.772445 0.301841 0.614719
O O7 0.729543 0.343523 0.735863
O O8 0.750000 0.250000 0.500000
O O9 0.000000 0.250000 0.566712
O O10 0.830515 0.250000 0.064618
O O11 0.734558 0.331995 0.133695
O O12 0.000000 0.335073 0.072657
O O13 0.750000 0.336044 0.000000
O O14 0.500000 0.174041 0.214002
O O15 0.706215 0.250000 0.216995
#
# Coordination Sequence:
#
# PCOD8278664 Si02
#       5
#    16  16   8  16  16
#     4  10  21  36  55  75  94 122 158 202 250 295
#     4  11  22  35  51  72  98 128 162 200 244 292
#     4  12  24  36  50  70  95 128 163 198 240 288
#     4   9  16  26  41  61  88 124 163 202 238 278
#     4  10  19  30  45  67  95 129 165 198 240 288
#
# _framework density 16.535637999999999
#
# number of rings (size 3 to 8) (size 9 to 14) (size 15 to 20)
#    0.000    1.778    1.111    5.000    0.000    8.889 
#    0.000    0.000    0.000    0.000    0.000    0.000 
#    0.000    0.889    0.000    9.333    0.000    5.556 
#
# Total GULP energy -446514.670040 kJ/mol
# GULP energy per Si atom -12403.185279 kJ/mol
# Density = 1.649800 g / cm^3
# Si number density = 16.535638 Si / 1000 Ang^3
#
#
#
# Elastic Constant Matrix: (Units=GPa)
#
#
# Indices 1 2 3 4 5 6 
#
# 1 126.9601 44.7980 57.6624 0.0000 0.0000 0.0000
# 2 44.7980 61.1086 46.6145 0.0000 0.0000 0.0000
# 3 57.6624 46.6145 138.7687 0.0000 0.0000 0.0000
# 4 0.0000 0.0000 0.0000 12.0763 0.0000 0.0000
# 5 0.0000 0.0000 0.0000 0.0000 35.2937 0.0000
# 6 0.0000 0.0000 0.0000 0.0000 0.0000 19.0752
#
#
#
# Elastic Compliance Matrix: (Units=1/GPa)
#
#
# Indices 1 2 3 4 5 6 
#
# 1 0.011265 -0.006302 -0.002564 0.000000 0.000000 0.000000
# 2 -0.006302 0.025528 -0.005957 0.000000 0.000000 0.000000
# 3 -0.002564 -0.005957 0.010272 0.000000 0.000000 0.000000
# 4 0.000000 0.000000 0.000000 0.082807 0.000000 0.000000
# 5 0.000000 0.000000 0.000000 0.000000 0.028334 0.000000
# 6 0.000000 0.000000 0.000000 0.000000 0.000000 0.052424
#
#
# Mechanical properties :
#
#
# Convention : Reuss Voigt Hill
#
# Bulk Modulus (GPa) = 57.40491 69.44302 63.42396
# Shear Modulus (GPa) = 20.31847 25.13987 22.72917
#
# Velocity S-wave (km/s) = 3.50918 3.90339 3.71152
# Velocity P-wave (km/s) = 7.15614 7.89952 7.53700
#
# Compressibility (1/GPa) = 0.01742011
#
# Stress axis : x y z
#
# Youngs Moduli (GPa) = 88.77305 39.17234 97.34803
#
# Poissons Ratio (x) = 0.24688 0.24957
# Poissons Ratio (y) = 0.55948 0.57985
# Poissons Ratio (z) = 0.22759 0.23333
#
# Static dielectric constant tensor:
#      x y z
#    x 3.341230 0.000000 0.000000 
#    y 0.000000 2.741300 0.000000 
#    z 0.000000 0.000000 3.871520 
# 
# 
# High freq. dielectric constant tensor:
#      x y z
#    x 1.661030 0.000000 0.000000 
#    y 0.000000 1.583950 0.000000 
#    z 0.000000 0.000000 1.645780 
# 
# From -- ./inp_files/31961.got.cif
#   From: 2010.03.12/outbox.cif.g09.slc.cpg/sg67_16_cif.got.tgz:31961.got - 2010.04.10 22:41:39.
