data_PCOD8278670
_publ_section_title
;
Structure prediction by ZEFSAII (Michael W. Deem and Ramdas Pophale) SiO2 
 PCOD8278670
Probable space group: C M M A
;
_chemical_formula_sum "Si O2"
_cell_formula_units_Z 80
_cell_length_a 10.073518
_cell_length_b 19.243303
_cell_length_c 24.539273
_cell_angle_alpha 90.000000
_cell_angle_beta 90.000000
_cell_angle_gamma 90.000000
_cell_volume 4756.883082
_symmetry_space_group_name_H-M "C M M A"
_symmetry_group_IT_number 67
_symmetry_cell_setting 'orthorhombic'
loop_
_space_group_symop_operation_xyz
x,y,z
-x,1/2-y,z
x,-y,-z
-x,1/2+y,-z
-x,-y,-z
x,1/2+y,-z
-x,y,z
x,1/2-y,z
1/2+x,1/2+y,z
1/2-x,-y,z
1/2+x,1/2-y,-z
1/2-x,y,-z
1/2-x,1/2-y,-z
1/2+x,y,-z
1/2-x,1/2+y,z
1/2+x,-y,z
loop_
_atom_site_type_symbol
_atom_site_label
_atom_site_fract_x
_atom_site_fract_y
_atom_site_fract_z
Si Si1 0.648220 0.667290 0.455697
Si Si2 0.343032 0.826700 0.335244
Si Si3 0.762397 0.582387 0.875091
Si Si4 0.841360 0.567236 0.757368
Si Si5 0.000000 0.582447 0.946498
Si Si6 0.500000 0.916910 0.930607
O O1 0.500000 0.637569 0.466846
O O2 0.643730 0.750000 0.459693
O O3 0.750000 0.635600 0.500000
O O4 0.699656 0.646214 0.395296
O O5 0.500000 0.820112 0.334254
O O6 0.281718 0.750000 0.323557
O O7 0.295351 0.880618 0.289894
O O8 0.750000 0.500000 0.876797
O O9 0.804002 0.604907 0.814214
O O10 0.622812 0.612532 0.895684
O O11 0.870177 0.612083 0.917032
O O12 0.750000 0.500000 0.749382
O O13 0.000000 0.549336 0.755959
O O14 0.000000 0.499555 0.938909
O O15 0.000000 0.611800 0.007830
#
# Coordination Sequence:
#
# PCOD8278670 Si02
#       6
#    16  16  16  16   8   8
#     4   8  13  23  42  66  90 113 139 177 223 264
#     4   8  15  29  48  69  91 117 152 189 220 256
#     4   9  16  24  36  55  80 112 142 177 216 265
#     4  10  19  30  46  65  89 121 153 185 220 265
#     4   9  14  24  34  54  79 107 142 175 220 262
#     4   9  16  22  36  52  79 111 142 173 220 264
#
# _framework density 16.817736
#
# number of rings (size 3 to 8) (size 9 to 14) (size 15 to 20)
#    0.000    3.200    1.000    1.800    4.200    2.400 
#    0.000    1.000    0.000    2.400    0.000    4.200 
#    0.000    4.800    0.000    0.000    0.000    0.000 
#
# Total GULP energy -495588.226246 kJ/mol
# GULP energy per Si atom -12389.705656 kJ/mol
# Density = 1.677946 g / cm^3
# Si number density = 16.817736 Si / 1000 Ang^3
#
#
#
# Elastic Constant Matrix: (Units=GPa)
#
#
# Indices 1 2 3 4 5 6 
#
# 1 115.6944 22.5092 75.4251 0.0000 0.0000 0.0000
# 2 22.5092 28.0852 40.3614 0.0000 0.0000 0.0000
# 3 75.4251 40.3614 169.5544 0.0000 0.0000 0.0000
# 4 0.0000 0.0000 0.0000 4.0400 0.0000 0.0000
# 5 0.0000 0.0000 0.0000 0.0000 30.9515 0.0000
# 6 0.0000 0.0000 0.0000 0.0000 0.0000 8.3454
#
#
#
# Elastic Compliance Matrix: (Units=1/GPa)
#
#
# Indices 1 2 3 4 5 6 
#
# 1 0.012343 -0.003043 -0.004766 0.000000 0.000000 0.000000
# 2 -0.003043 0.054870 -0.011708 0.000000 0.000000 0.000000
# 3 -0.004766 -0.011708 0.010805 0.000000 0.000000 0.000000
# 4 0.000000 0.000000 0.000000 0.247522 0.000000 0.000000
# 5 0.000000 0.000000 0.000000 0.000000 0.032309 0.000000
# 6 0.000000 0.000000 0.000000 0.000000 0.000000 0.119826
#
#
# Mechanical properties :
#
#
# Convention : Reuss Voigt Hill
#
# Bulk Modulus (GPa) = 25.65146 65.54729 45.59938
# Shear Modulus (GPa) = 9.43925 20.33662 14.88793
#
# Velocity S-wave (km/s) = 2.37168 3.48118 2.97855
# Velocity P-wave (km/s) = 4.77342 7.43087 6.24513
#
# Compressibility (1/GPa) = 0.03898413
#
# Stress axis : x y z
#
# Youngs Moduli (GPa) = 81.01935 18.22486 92.54879
#
# Poissons Ratio (x) = 0.05545 0.44112
# Poissons Ratio (y) = 0.24650 1.08357
# Poissons Ratio (z) = 0.38616 0.21338
#
# Static dielectric constant tensor:
#      x y z
#    x 3.304730 0.000000 0.000000 
#    y 0.000000 2.667780 0.000000 
#    z 0.000000 0.000000 3.596730 
# 
# 
# High freq. dielectric constant tensor:
#      x y z
#    x 1.644390 0.000000 0.000000 
#    y 0.000000 1.569030 0.000000 
#    z 0.000000 0.000000 1.667480 
# 
# From -- ./inp_files/40755.got.cif
#   From: 2010.03.12/outbox.cif.g09.slc.cpg/sg67_21_cif.got.tgz:40755.got - 2010.04.10 22:41:39.
