data_PCOD8278770
_publ_section_title
;
Structure prediction by ZEFSAII (Michael W. Deem and Ramdas Pophale) SiO2 
 PCOD8278770
Probable space group: C M M A
;
_chemical_formula_sum "Si O2"
_cell_formula_units_Z 104
_cell_length_a 25.655049
_cell_length_b 9.128492
_cell_length_c 19.456969
_cell_angle_alpha 90.000000
_cell_angle_beta 90.000000
_cell_angle_gamma 90.000000
_cell_volume 4556.664724
_symmetry_space_group_name_H-M "C M M A"
_symmetry_group_IT_number 67
_symmetry_cell_setting 'orthorhombic'
loop_
_space_group_symop_operation_xyz
x,y,z
-x,1/2-y,z
x,-y,-z
-x,1/2+y,-z
-x,-y,-z
x,1/2+y,-z
-x,y,z
x,1/2-y,z
1/2+x,1/2+y,z
1/2-x,-y,z
1/2+x,1/2-y,-z
1/2-x,y,-z
1/2-x,1/2-y,-z
1/2+x,y,-z
1/2-x,1/2+y,z
1/2+x,-y,z
loop_
_atom_site_type_symbol
_atom_site_label
_atom_site_fract_x
_atom_site_fract_y
_atom_site_fract_z
Si Si1 0.750000 0.000000 0.151633
Si Si2 0.297911 0.085913 0.582608
Si Si3 0.180602 0.595730 0.733312
Si Si4 0.405523 0.922604 0.564919
Si Si5 0.417706 0.919911 0.718995
Si Si6 0.942909 0.420060 0.152005
Si Si7 0.649111 0.417657 0.071460
O O1 0.719409 0.890941 0.202156
O O2 0.793634 0.920353 0.105591
O O3 0.303537 0.250000 0.551923
O O4 0.286485 0.092624 0.663745
O O5 0.250000 0.000000 0.547882
O O6 0.348396 0.991196 0.565730
O O7 0.148071 0.750000 0.734551
O O8 0.142798 0.455756 0.735424
O O9 0.402882 0.750000 0.551996
O O10 0.432398 0.954714 0.639127
O O11 0.435519 0.000000 0.500000
O O12 0.427604 0.750000 0.735330
O O13 0.450990 0.020295 0.770169
O O14 0.927257 0.250000 0.152254
O O15 0.896683 0.508962 0.115963
O O16 0.000000 0.440946 0.116091
O O17 0.633100 0.250000 0.058829
O O18 0.652774 0.500000 0.000000
#
# Coordination Sequence:
#
# PCOD8278770 Si02
#       7
#     8  16  16  16  16  16  16
#     4  12  23  38  66 100 137 178 226 268 325 390
#     4  10  19  31  47  72 107 152 205 263 320 379
#     4  10  20  33  55  86 124 167 211 263 322 384
#     4  10  21  36  54  80 116 160 208 259 318 387
#     4  10  21  38  63  95 129 165 213 270 328 392
#     4  11  25  46  74 105 135 170 218 277 337 397
#     4  12  28  47  70 100 138 183 227 275 333 397
#
# _framework density 22.823712
#
# number of rings (size 3 to 8) (size 9 to 14) (size 15 to 20)
#    0.000    1.385    2.308    3.000    0.000    7.385 
#    0.000    1.538    0.000    0.462    0.000    0.000 
#    0.000    0.000    0.000    0.000    0.000    0.000 
#
# Total GULP energy -644192.577648 kJ/mol
# GULP energy per Si atom -12388.318801 kJ/mol
# Density = 2.277176 g / cm^3
# Si number density = 22.823712 Si / 1000 Ang^3
#
#
#
# Elastic Constant Matrix: (Units=GPa)
#
#
# Indices 1 2 3 4 5 6 
#
# 1 90.1349 32.9336 32.1451 0.0000 0.0000 0.0000
# 2 32.9336 159.8646 60.4757 0.0000 0.0000 0.0000
# 3 32.1451 60.4757 154.8149 0.0000 0.0000 0.0000
# 4 0.0000 0.0000 0.0000 32.7926 0.0000 0.0000
# 5 0.0000 0.0000 0.0000 0.0000 11.1715 0.0000
# 6 0.0000 0.0000 0.0000 0.0000 0.0000 15.9510
#
#
#
# Elastic Compliance Matrix: (Units=1/GPa)
#
#
# Indices 1 2 3 4 5 6 
#
# 1 0.012436 -0.001860 -0.001856 0.000000 0.000000 0.000000
# 2 -0.001860 0.007618 -0.002590 0.000000 0.000000 0.000000
# 3 -0.001856 -0.002590 0.007856 0.000000 0.000000 0.000000
# 4 0.000000 0.000000 0.000000 0.030495 0.000000 0.000000
# 5 0.000000 0.000000 0.000000 0.000000 0.089513 0.000000
# 6 0.000000 0.000000 0.000000 0.000000 0.000000 0.062692
#
#
# Mechanical properties :
#
#
# Convention : Reuss Voigt Hill
#
# Bulk Modulus (GPa) = 65.36047 72.88034 69.12040
# Shear Modulus (GPa) = 21.89906 30.60037 26.24971
#
# Velocity S-wave (km/s) = 3.10092 3.66557 3.39500
# Velocity P-wave (km/s) = 6.44362 7.06515 6.76153
#
# Compressibility (1/GPa) = 0.01529977
#
# Stress axis : x y z
#
# Youngs Moduli (GPa) = 80.41279 131.26597 127.28761
#
# Poissons Ratio (x) = 0.24415 0.23619
# Poissons Ratio (y) = 0.14956 0.32964
# Poissons Ratio (z) = 0.14921 0.33994
#
# Static dielectric constant tensor:
#      x y z
#    x 3.804450 0.000000 0.000000 
#    y 0.000000 4.148400 0.000000 
#    z 0.000000 0.000000 4.652710 
# 
# 
# High freq. dielectric constant tensor:
#      x y z
#    x 1.875680 0.000000 0.000000 
#    y 0.000000 1.908920 0.000000 
#    z 0.000000 0.000000 1.917070 
# 
# From -- ./inp_files/39969.got.cif
#   From: 2010.03.12/outbox.cif.g09.slc.cpg/sg67_20_cif.got.tgz:39969.got - 2010.04.10 22:41:39.
