data_PCOD8278304
_publ_section_title
;
Structure prediction by ZEFSAII (Michael W. Deem and Ramdas Pophale) SiO2 
 PCOD8278304
Probable space group: C M M A
;
_chemical_formula_sum "Si O2"
_cell_formula_units_Z 80
_cell_length_a 9.917423
_cell_length_b 18.807526
_cell_length_c 24.318949
_cell_angle_alpha 90.000000
_cell_angle_beta 90.000000
_cell_angle_gamma 90.000000
_cell_volume 4536.023648
_symmetry_space_group_name_H-M "C M M A"
_symmetry_group_IT_number 67
_symmetry_cell_setting 'orthorhombic'
loop_
_space_group_symop_operation_xyz
x,y,z
-x,1/2-y,z
x,-y,-z
-x,1/2+y,-z
-x,-y,-z
x,1/2+y,-z
-x,y,z
x,1/2-y,z
1/2+x,1/2+y,z
1/2-x,-y,z
1/2+x,1/2-y,-z
1/2-x,y,-z
1/2-x,1/2-y,-z
1/2+x,y,-z
1/2-x,1/2+y,z
1/2+x,-y,z
loop_
_atom_site_type_symbol
_atom_site_label
_atom_site_fract_x
_atom_site_fract_y
_atom_site_fract_z
Si Si1 0.844821 0.834638 0.450225
Si Si2 0.000000 0.915202 0.062592
Si Si3 0.349472 0.334492 0.644696
Si Si4 0.751582 0.084175 0.131488
Si Si5 0.000000 0.416015 0.060210
Si Si6 0.343188 0.168202 0.768405
O O1 0.851693 0.750000 0.450791
O O2 0.750000 0.861862 0.500000
O O3 0.768531 0.863068 0.395453
O O4 0.000000 0.864173 0.453473
O O5 0.125364 0.888072 0.097384
O O6 0.000000 0.999484 0.056453
O O7 0.000000 0.882589 0.001082
O O8 0.500000 0.362798 0.628054
O O9 0.355168 0.250000 0.641955
O O10 0.313106 0.358554 0.706503
O O11 0.873077 0.111226 0.093999
O O12 0.753909 0.120790 0.190941
O O13 0.750000 0.000000 0.141049
O O14 0.500000 0.157633 0.782178
O O15 0.300712 0.250000 0.775345
#
# Coordination Sequence:
#
# PCOD8278304 Si02
#       6
#    16   8  16  16   8  16
#     4   9  15  22  34  54  81 112 146 185 227 266
#     4   9  18  28  45  73  95 117 146 191 240 274
#     4   8  14  25  40  57  78 110 152 188 219 262
#     4  10  18  30  49  72  94 118 153 194 233 276
#     4   9  16  30  49  67  93 121 152 187 228 284
#     4   9  17  31  50  67  89 127 165 190 222 278
#
# _framework density 17.636592
#
# number of rings (size 3 to 8) (size 9 to 14) (size 15 to 20)
#    0.000    3.000    1.000    2.400    0.000    4.800 
#    1.800    0.500    0.000    3.600    0.000    0.000 
#    0.000    0.800    0.000    6.400    0.000    7.400 
#
# Total GULP energy -495695.526068 kJ/mol
# GULP energy per Si atom -12392.388152 kJ/mol
# Density = 1.759645 g / cm^3
# Si number density = 17.636592 Si / 1000 Ang^3
#
#
#
# Elastic Constant Matrix: (Units=GPa)
#
#
# Indices 1 2 3 4 5 6 
#
# 1 153.2522 17.0347 90.4050 0.0000 0.0000 0.0000
# 2 17.0347 17.6814 24.7641 0.0000 0.0000 0.0000
# 3 90.4050 24.7641 162.4937 0.0000 0.0000 0.0000
# 4 0.0000 0.0000 0.0000 5.2649 0.0000 0.0000
# 5 0.0000 0.0000 0.0000 0.0000 31.8276 0.0000
# 6 0.0000 0.0000 0.0000 0.0000 0.0000 34.9732
#
#
#
# Elastic Compliance Matrix: (Units=1/GPa)
#
#
# Indices 1 2 3 4 5 6 
#
# 1 0.009786 -0.002292 -0.005095 0.000000 0.000000 0.000000
# 2 -0.002292 0.072441 -0.009765 0.000000 0.000000 0.000000
# 3 -0.005095 -0.009765 0.010477 0.000000 0.000000 0.000000
# 4 0.000000 0.000000 0.000000 0.189937 0.000000 0.000000
# 5 0.000000 0.000000 0.000000 0.000000 0.031419 0.000000
# 6 0.000000 0.000000 0.000000 0.000000 0.000000 0.028593
#
#
# Mechanical properties :
#
#
# Convention : Reuss Voigt Hill
#
# Bulk Modulus (GPa) = 17.12323 66.42609 41.77466
# Shear Modulus (GPa) = 12.61278 27.82805 20.22041
#
# Velocity S-wave (km/s) = 2.67713 3.97654 3.38968
# Velocity P-wave (km/s) = 4.39158 7.67003 6.24961
#
# Compressibility (1/GPa) = 0.05840021
#
# Stress axis : x y z
#
# Youngs Moduli (GPa) = 102.19175 13.80428 95.44755
#
# Poissons Ratio (x) = 0.03163 0.48631
# Poissons Ratio (y) = 0.23419 0.93206
# Poissons Ratio (z) = 0.52067 0.13480
#
# Static dielectric constant tensor:
#      x y z
#    x 3.455110 0.000000 0.000000 
#    y 0.000000 2.569260 0.000000 
#    z 0.000000 0.000000 3.525550 
# 
# 
# High freq. dielectric constant tensor:
#      x y z
#    x 1.686560 0.000000 0.000000 
#    y 0.000000 1.602440 0.000000 
#    z 0.000000 0.000000 1.699270 
# 
# From -- ./inp_files/43404.got.cif
#   From: 2010.03.12/outbox.cif.g09.slc.cpg/sg67_22_cif.got.tgz:43404.got - 2010.04.10 22:41:39.
