data_PCOD8278023
_publ_section_title
;
Structure prediction by ZEFSAII (Michael W. Deem and Ramdas Pophale) SiO2 
 PCOD8278023
Probable space group: C M M A
;
_chemical_formula_sum "Si O2"
_cell_formula_units_Z 96
_cell_length_a 26.978499
_cell_length_b 8.637363
_cell_length_c 24.083533
_cell_angle_alpha 90.000000
_cell_angle_beta 90.000000
_cell_angle_gamma 90.000000
_cell_volume 5612.019255
_symmetry_space_group_name_H-M "C M M A"
_symmetry_group_IT_number 67
_symmetry_cell_setting 'orthorhombic'
loop_
_space_group_symop_operation_xyz
x,y,z
-x,1/2-y,z
x,-y,-z
-x,1/2+y,-z
-x,-y,-z
x,1/2+y,-z
-x,y,z
x,1/2-y,z
1/2+x,1/2+y,z
1/2-x,-y,z
1/2+x,1/2-y,-z
1/2-x,y,-z
1/2-x,1/2-y,-z
1/2+x,y,-z
1/2-x,1/2+y,z
1/2+x,-y,z
loop_
_atom_site_type_symbol
_atom_site_label
_atom_site_fract_x
_atom_site_fract_y
_atom_site_fract_z
Si Si1 0.197921 0.930998 0.383551
Si Si2 0.556628 0.571456 0.333459
Si Si3 0.354567 0.932013 0.727590
Si Si4 0.694833 0.066402 0.055397
Si Si5 0.695670 0.567803 0.167966
Si Si6 0.098963 0.933583 0.440689
O O1 0.203579 0.750000 0.385223
O O2 0.182866 0.983311 0.321486
O O3 0.155330 0.984741 0.426314
O O4 0.250000 0.000000 0.402372
O O5 0.500000 0.552170 0.314539
O O6 0.573273 0.750000 0.332673
O O7 0.589690 0.474532 0.290223
O O8 0.562124 0.505489 0.395529
O O9 0.351133 0.750000 0.739827
O O10 0.340649 0.028052 0.781830
O O11 0.694751 0.250000 0.053668
O O12 0.750000 0.000000 0.055986
O O13 0.670438 0.005307 0.112478
O O14 0.667482 0.000000 0.000000
O O15 0.700586 0.750000 0.160269
O O16 0.750000 0.500000 0.180143
O O17 0.093037 0.750000 0.439582
O O18 0.083673 0.000000 0.500000
#
# Coordination Sequence:
#
# PCOD8278023 Si02
#       6
#    16  16  16  16  16  16
#     4   9  19  32  47  67  92 123 156 189 227 272
#     4  10  21  37  56  76  96 120 150 188 239 293
#     4  10  20  34  50  71  97 125 159 197 238 284
#     4  10  17  27  41  60  89 127 169 208 244 281
#     4  11  20  30  45  68  98 133 170 205 241 281
#     4  10  21  36  52  72  96 122 155 192 231 279
#
# _framework density 17.106141999999998
#
# number of rings (size 3 to 8) (size 9 to 14) (size 15 to 20)
#    0.000    2.000    0.000    7.500    0.000    7.333 
#    0.000    1.667    0.000    0.000    0.000    0.000 
#    0.000    0.667    0.000    2.500    0.000    4.167 
#
# Total GULP energy -595182.255831 kJ/mol
# GULP energy per Si atom -12399.630330 kJ/mol
# Density = 1.706721 g / cm^3
# Si number density = 17.106142 Si / 1000 Ang^3
#
#
#
# Elastic Constant Matrix: (Units=GPa)
#
#
# Indices 1 2 3 4 5 6 
#
# 1 54.2793 15.4027 15.2105 0.0000 0.0000 0.0000
# 2 15.4027 99.0545 31.3904 0.0000 0.0000 0.0000
# 3 15.2105 31.3904 110.6161 0.0000 0.0000 0.0000
# 4 0.0000 0.0000 0.0000 31.3114 0.0000 0.0000
# 5 0.0000 0.0000 0.0000 0.0000 17.2867 0.0000
# 6 0.0000 0.0000 0.0000 0.0000 0.0000 23.9385
#
#
#
# Elastic Compliance Matrix: (Units=1/GPa)
#
#
# Indices 1 2 3 4 5 6 
#
# 1 0.019676 -0.002420 -0.002019 0.000000 0.000000 0.000000
# 2 -0.002420 0.011391 -0.002900 0.000000 0.000000 0.000000
# 3 -0.002019 -0.002900 0.010141 0.000000 0.000000 0.000000
# 4 0.000000 0.000000 0.000000 0.031937 0.000000 0.000000
# 5 0.000000 0.000000 0.000000 0.000000 0.057848 0.000000
# 6 0.000000 0.000000 0.000000 0.000000 0.000000 0.041774
#
#
# Mechanical properties :
#
#
# Convention : Reuss Voigt Hill
#
# Bulk Modulus (GPa) = 37.69255 43.10633 40.39944
# Shear Modulus (GPa) = 25.47304 27.97041 26.72173
#
# Velocity S-wave (km/s) = 3.86309 4.04803 3.95665
# Velocity P-wave (km/s) = 6.47922 6.86315 6.67395
#
# Compressibility (1/GPa) = 0.02653044
#
# Stress axis : x y z
#
# Youngs Moduli (GPa) = 50.82440 87.79158 98.61206
#
# Poissons Ratio (x) = 0.21243 0.19908
# Poissons Ratio (y) = 0.12298 0.28594
# Poissons Ratio (z) = 0.10261 0.25457
#
# Static dielectric constant tensor:
#      x y z
#    x 3.752970 0.000000 0.000000 
#    y 0.000000 3.289300 0.000000 
#    z 0.000000 0.000000 3.695570 
# 
# 
# High freq. dielectric constant tensor:
#      x y z
#    x 1.617920 0.000000 0.000000 
#    y 0.000000 1.678830 0.000000 
#    z 0.000000 0.000000 1.663520 
# 
# From -- ./inp_files/40896.got.cif
#   From: 2010.03.12/outbox.cif.g09.slc.cpg/sg67_21_cif.got.tgz:40896.got - 2010.04.10 22:41:39.
