data_PCOD8278184
_publ_section_title
;
Structure prediction by ZEFSAII (Michael W. Deem and Ramdas Pophale) SiO2 
 PCOD8278184
Probable space group: C M M A
;
_chemical_formula_sum "Si O2"
_cell_formula_units_Z 88
_cell_length_a 30.677938
_cell_length_b 8.619298
_cell_length_c 17.874209
_cell_angle_alpha 90.000000
_cell_angle_beta 90.000000
_cell_angle_gamma 90.000000
_cell_volume 4726.339269
_symmetry_space_group_name_H-M "C M M A"
_symmetry_group_IT_number 67
_symmetry_cell_setting 'orthorhombic'
loop_
_space_group_symop_operation_xyz
x,y,z
-x,1/2-y,z
x,-y,-z
-x,1/2+y,-z
-x,-y,-z
x,1/2+y,-z
-x,y,z
x,1/2-y,z
1/2+x,1/2+y,z
1/2-x,-y,z
1/2+x,1/2-y,-z
1/2-x,y,-z
1/2-x,1/2-y,-z
1/2+x,y,-z
1/2-x,1/2+y,z
1/2+x,-y,z
loop_
_atom_site_type_symbol
_atom_site_label
_atom_site_fract_x
_atom_site_fract_y
_atom_site_fract_z
Si Si1 0.677270 0.068626 0.421223
Si Si2 0.087876 0.068900 0.643546
Si Si3 0.500000 0.435165 0.419296
Si Si4 0.620216 0.434986 0.200229
Si Si5 0.795586 0.566286 0.737400
Si Si6 0.049192 0.933747 0.080881
O O1 0.688296 0.250000 0.418554
O O2 0.625412 0.035715 0.417406
O O3 0.695041 0.000000 0.500000
O O4 0.698520 0.991738 0.348184
O O5 0.080921 0.250000 0.654068
O O6 0.042536 0.992620 0.619639
O O7 0.099870 0.998749 0.723449
O O8 0.500000 0.250000 0.419553
O O9 0.500000 0.500000 0.500000
O O10 0.624569 0.250000 0.198194
O O11 0.668796 0.506731 0.201536
O O12 0.587611 0.495835 0.135369
O O13 0.795399 0.750000 0.736945
O O14 0.750000 0.500000 0.767392
O O15 0.050918 0.750000 0.077858
O O16 0.000000 0.985849 0.106348
O O17 0.060177 0.000000 0.000000
#
# Coordination Sequence:
#
# PCOD8278184 Si02
#       6
#    16  16   8  16  16  16
#     4  10  19  33  50  72 100 134 174 222 272 322
#     4   8  16  28  45  67  93 128 171 215 256 302
#     4  10  18  28  42  62  89 126 168 212 255 298
#     4   9  18  34  54  78 106 139 178 218 260 311
#     4  11  22  37  56  78 103 135 174 221 273 325
#     4   9  18  32  54  84 117 151 182 215 256 306
#
# _framework density 18.619062
#
# number of rings (size 3 to 8) (size 9 to 14) (size 15 to 20)
#    0.000    2.545    0.000    3.818    1.273    1.091 
#    0.000    5.455    0.000    0.545    0.000    3.818 
#    0.000    0.000    0.000    0.000    0.000    0.000 
#
# Total GULP energy -545212.916733 kJ/mol
# GULP energy per Si atom -12391.202653 kJ/mol
# Density = 1.857668 g / cm^3
# Si number density = 18.619062 Si / 1000 Ang^3
#
#
#
# Elastic Constant Matrix: (Units=GPa)
#
#
# Indices 1 2 3 4 5 6 
#
# 1 153.1358 39.9320 58.2130 0.0000 0.0000 0.0000
# 2 39.9320 66.1870 29.3844 0.0000 0.0000 0.0000
# 3 58.2130 29.3844 95.2846 0.0000 0.0000 0.0000
# 4 0.0000 0.0000 0.0000 26.7098 0.0000 0.0000
# 5 0.0000 0.0000 0.0000 0.0000 23.0715 0.0000
# 6 0.0000 0.0000 0.0000 0.0000 0.0000 22.8724
#
#
#
# Elastic Compliance Matrix: (Units=1/GPa)
#
#
# Indices 1 2 3 4 5 6 
#
# 1 0.009165 -0.003526 -0.004512 0.000000 0.000000 0.000000
# 2 -0.003526 0.018862 -0.003662 0.000000 0.000000 0.000000
# 3 -0.004512 -0.003662 0.014381 0.000000 0.000000 0.000000
# 4 0.000000 0.000000 0.000000 0.037439 0.000000 0.000000
# 5 0.000000 0.000000 0.000000 0.000000 0.043344 0.000000
# 6 0.000000 0.000000 0.000000 0.000000 0.000000 0.043721
#
#
# Mechanical properties :
#
#
# Convention : Reuss Voigt Hill
#
# Bulk Modulus (GPa) = 52.61280 63.29623 57.95452
# Shear Modulus (GPa) = 25.42618 27.00261 26.21440
#
# Velocity S-wave (km/s) = 3.69941 3.81237 3.75631
# Velocity P-wave (km/s) = 6.82395 7.31082 7.07158
#
# Compressibility (1/GPa) = 0.01900678
#
# Stress axis : x y z
#
# Youngs Moduli (GPa) = 109.11410 53.01611 69.53792
#
# Poissons Ratio (x) = 0.18695 0.31373
# Poissons Ratio (y) = 0.38477 0.25468
# Poissons Ratio (z) = 0.49228 0.19417
#
# Static dielectric constant tensor:
#      x y z
#    x 3.731230 0.000000 0.000000 
#    y 0.000000 3.043750 0.000000 
#    z 0.000000 0.000000 3.318660 
# 
# 
# High freq. dielectric constant tensor:
#      x y z
#    x 1.736070 0.000000 0.000000 
#    y 0.000000 1.704250 0.000000 
#    z 0.000000 0.000000 1.698740 
# 
# From -- ./inp_files/36146.got.cif
#   From: 2010.03.12/outbox.cif.g09.slc.cpg/sg67_19_cif.got.tgz:36146.got - 2010.04.10 22:41:39.
