data_PCOD8278041
_publ_section_title
;
Structure prediction by ZEFSAII (Michael W. Deem and Ramdas Pophale) SiO2 
 PCOD8278041
Probable space group: C M M A
;
_chemical_formula_sum "Si O2"
_cell_formula_units_Z 64
_cell_length_a 19.158248
_cell_length_b 8.756010
_cell_length_c 21.029466
_cell_angle_alpha 90.000000
_cell_angle_beta 90.000000
_cell_angle_gamma 90.000000
_cell_volume 3527.688948
_symmetry_space_group_name_H-M "C M M A"
_symmetry_group_IT_number 67
_symmetry_cell_setting 'orthorhombic'
loop_
_space_group_symop_operation_xyz
x,y,z
-x,1/2-y,z
x,-y,-z
-x,1/2+y,-z
-x,-y,-z
x,1/2+y,-z
-x,y,z
x,1/2-y,z
1/2+x,1/2+y,z
1/2-x,-y,z
1/2+x,1/2-y,-z
1/2-x,y,-z
1/2-x,1/2-y,-z
1/2+x,y,-z
1/2-x,1/2+y,z
1/2+x,-y,z
loop_
_atom_site_type_symbol
_atom_site_label
_atom_site_fract_x
_atom_site_fract_y
_atom_site_fract_z
Si Si1 0.921188 0.929858 0.191747
Si Si2 0.416904 0.421882 0.936801
Si Si3 0.327469 0.432369 0.563134
Si Si4 0.826275 0.568208 0.308808
O O1 0.920654 0.750000 0.184736
O O2 0.874284 0.983833 0.250439
O O3 0.000000 0.990058 0.203110
O O4 0.888889 0.996941 0.126822
O O5 0.500000 0.432717 0.938339
O O6 0.389738 0.250000 0.935900
O O7 0.385555 0.500000 0.000000
O O8 0.365898 0.500000 0.500000
O O9 0.327236 0.250000 0.561340
O O10 0.250000 0.500000 0.563878
O O11 0.362326 0.495263 0.627967
O O12 0.821595 0.750000 0.316367
O O13 0.750000 0.500000 0.296766
#
# Coordination Sequence:
#
# PCOD8278041 Si02
#       4
#    16  16  16  16
#     4   9  18  32  49  69  94 124 156 190 229 273
#     4   9  16  26  43  67  93 120 152 191 231 271
#     4  10  17  27  44  66  92 119 152 192 231 271
#     4  10  19  31  48  70  96 124 154 189 230 275
#
# _framework density 18.142189999999999
#
# number of rings (size 3 to 8) (size 9 to 14) (size 15 to 20)
#    0.000    2.500    0.000    6.000    0.000    5.000 
#    0.000    0.000    0.000    1.500    0.000    5.250 
#    0.000    0.000    0.000    0.000    0.000    0.000 
#
# Total GULP energy -396643.697921 kJ/mol
# GULP energy per Si atom -12395.115560 kJ/mol
# Density = 1.810090 g / cm^3
# Si number density = 18.142190 Si / 1000 Ang^3
#
#
#
# Elastic Constant Matrix: (Units=GPa)
#
#
# Indices 1 2 3 4 5 6 
#
# 1 35.1452 22.6991 50.2760 0.0000 0.0000 0.0000
# 2 22.6991 97.5579 74.3384 0.0000 0.0000 0.0000
# 3 50.2760 74.3384 223.5881 0.0000 0.0000 0.0000
# 4 0.0000 0.0000 0.0000 38.5109 0.0000 0.0000
# 5 0.0000 0.0000 0.0000 0.0000 24.6170 0.0000
# 6 0.0000 0.0000 0.0000 0.0000 0.0000 12.7706
#
#
#
# Elastic Compliance Matrix: (Units=1/GPa)
#
#
# Indices 1 2 3 4 5 6 
#
# 1 0.042829 -0.003518 -0.008461 0.000000 0.000000 0.000000
# 2 -0.003518 0.014017 -0.003869 0.000000 0.000000 0.000000
# 3 -0.008461 -0.003869 0.007662 0.000000 0.000000 0.000000
# 4 0.000000 0.000000 0.000000 0.025967 0.000000 0.000000
# 5 0.000000 0.000000 0.000000 0.000000 0.040622 0.000000
# 6 0.000000 0.000000 0.000000 0.000000 0.000000 0.078305
#
#
# Mechanical properties :
#
#
# Convention : Reuss Voigt Hill
#
# Bulk Modulus (GPa) = 30.47738 72.32424 51.40081
# Shear Modulus (GPa) = 19.83848 29.11155 24.47501
#
# Velocity S-wave (km/s) = 3.31040 4.01013 3.67695
# Velocity P-wave (km/s) = 5.60779 7.83539 6.81324
#
# Compressibility (1/GPa) = 0.03281122
#
# Stress axis : x y z
#
# Youngs Moduli (GPa) = 23.34867 71.34021 130.52258
#
# Poissons Ratio (x) = 0.25098 1.10433
# Poissons Ratio (y) = 0.08214 0.50504
# Poissons Ratio (z) = 0.19755 0.27604
#
# Static dielectric constant tensor:
#      x y z
#    x 2.835450 0.000000 0.000000 
#    y 0.000000 3.392670 0.000000 
#    z 0.000000 0.000000 4.255550 
# 
# 
# High freq. dielectric constant tensor:
#      x y z
#    x 1.627620 0.000000 0.000000 
#    y 0.000000 1.715000 0.000000 
#    z 0.000000 0.000000 1.733400 
# 
# From -- ./inp_files/31735.got.cif
#   From: 2010.03.12/outbox.cif.g09.slc.cpg/sg67_16_cif.got.tgz:31735.got - 2010.04.10 22:41:39.
