data_PCOD8278448
_publ_section_title
;
Structure prediction by ZEFSAII (Michael W. Deem and Ramdas Pophale) SiO2 
 PCOD8278448
Probable space group: C M M A
;
_chemical_formula_sum "Si O2"
_cell_formula_units_Z 112
_cell_length_a 21.578848
_cell_length_b 18.366771
_cell_length_c 16.497357
_cell_angle_alpha 90.000000
_cell_angle_beta 90.000000
_cell_angle_gamma 90.000000
_cell_volume 6538.459524
_symmetry_space_group_name_H-M "C M M A"
_symmetry_group_IT_number 67
_symmetry_cell_setting 'orthorhombic'
loop_
_space_group_symop_operation_xyz
x,y,z
-x,1/2-y,z
x,-y,-z
-x,1/2+y,-z
-x,-y,-z
x,1/2+y,-z
-x,y,z
x,1/2-y,z
1/2+x,1/2+y,z
1/2-x,-y,z
1/2+x,1/2-y,-z
1/2-x,y,-z
1/2-x,1/2-y,-z
1/2+x,y,-z
1/2-x,1/2+y,z
1/2+x,-y,z
loop_
_atom_site_type_symbol
_atom_site_label
_atom_site_fract_x
_atom_site_fract_y
_atom_site_fract_z
Si Si1 0.571724 0.166430 0.374231
Si Si2 0.747107 0.086416 0.806151
Si Si3 0.567779 0.334903 0.041549
Si Si4 0.871677 0.665197 0.205200
Si Si5 0.348418 0.085499 0.488124
Si Si6 0.311009 0.663995 0.051914
Si Si7 0.238666 0.585471 0.623812
O O1 0.500000 0.155431 0.357529
O O2 0.588741 0.250000 0.389434
O O3 0.605788 0.137106 0.292977
O O4 0.588431 0.121914 0.456300
O O5 0.813541 0.119707 0.826774
O O6 0.694667 0.120525 0.863752
O O7 0.730127 0.111666 0.715202
O O8 0.750000 0.000000 0.816296
O O9 0.500000 0.368262 0.016551
O O10 0.566718 0.250000 0.023155
O O11 0.575699 0.348305 0.137772
O O12 0.626273 0.366561 0.990902
O O13 0.853137 0.750000 0.208355
O O14 0.299968 0.115076 0.420263
O O15 0.322813 0.112212 0.575417
O O16 0.358385 0.000000 0.500000
O O17 0.314577 0.750000 0.068361
O O18 0.250000 0.644869 0.000000
O O19 0.250000 0.500000 0.618022
#
# Coordination Sequence:
#
# PCOD8278448 Si02
#       7
#    16  16  16  16  16  16  16
#     4  10  20  32  48  74 105 131 162 210 258 294
#     4  11  20  31  51  77 105 132 163 203 257 302
#     4   9  17  31  53  75  98 133 173 208 248 302
#     4  10  18  32  52  76 103 131 165 206 256 304
#     4   9  16  31  52  70  97 127 167 196 239 297
#     4  10  19  33  51  75 102 130 168 213 253 298
#     4   8  16  30  49  72  94 128 157 199 241 289
#
# _framework density 17.129418000000001
#
# number of rings (size 3 to 8) (size 9 to 14) (size 15 to 20)
#    0.000    2.429    2.857    1.714    0.000    2.286 
#    0.000    2.857    0.000    3.429    0.000    2.000 
#    0.000    0.000    0.000    0.000    0.000    0.000 
#
# Total GULP energy -693839.794787 kJ/mol
# GULP energy per Si atom -12389.996335 kJ/mol
# Density = 1.709043 g / cm^3
# Si number density = 17.129418 Si / 1000 Ang^3
#
#
#
# Elastic Constant Matrix: (Units=GPa)
#
#
# Indices 1 2 3 4 5 6 
#
# 1 103.3401 28.1563 50.8284 0.0000 0.0000 0.0000
# 2 28.1563 37.0396 29.9029 0.0000 0.0000 0.0000
# 3 50.8284 29.9029 115.9897 0.0000 0.0000 0.0000
# 4 0.0000 0.0000 0.0000 22.9207 0.0000 0.0000
# 5 0.0000 0.0000 0.0000 0.0000 25.4505 0.0000
# 6 0.0000 0.0000 0.0000 0.0000 0.0000 17.3658
#
#
#
# Elastic Compliance Matrix: (Units=1/GPa)
#
#
# Indices 1 2 3 4 5 6 
#
# 1 0.013635 -0.006997 -0.004171 0.000000 0.000000 0.000000
# 2 -0.006997 0.037685 -0.006649 0.000000 0.000000 0.000000
# 3 -0.004171 -0.006649 0.012163 0.000000 0.000000 0.000000
# 4 0.000000 0.000000 0.000000 0.043629 0.000000 0.000000
# 5 0.000000 0.000000 0.000000 0.000000 0.039292 0.000000
# 6 0.000000 0.000000 0.000000 0.000000 0.000000 0.057584
#
#
# Mechanical properties :
#
#
# Convention : Reuss Voigt Hill
#
# Bulk Modulus (GPa) = 35.90858 52.68272 44.29565
# Shear Modulus (GPa) = 20.08786 22.97954 21.53370
#
# Velocity S-wave (km/s) = 3.42820 3.66666 3.54943
# Velocity P-wave (km/s) = 6.05629 6.98200 6.53556
#
# Compressibility (1/GPa) = 0.02784850
#
# Stress axis : x y z
#
# Youngs Moduli (GPa) = 73.34154 26.53549 82.21348
#
# Poissons Ratio (x) = 0.18568 0.34291
# Poissons Ratio (y) = 0.51320 0.54665
# Poissons Ratio (z) = 0.30591 0.17644
#
# Static dielectric constant tensor:
#      x y z
#    x 3.265680 0.000000 0.000000 
#    y 0.000000 2.878580 0.000000 
#    z 0.000000 0.000000 3.369570 
# 
# 
# High freq. dielectric constant tensor:
#      x y z
#    x 1.651430 0.000000 0.000000 
#    y 0.000000 1.625840 0.000000 
#    z 0.000000 0.000000 1.665510 
# 
# From -- ./inp_files/35137.got.cif
#   From: 2010.03.12/outbox.cif.g09.slc.cpg/sg67_18_cif.got.tgz:35137.got - 2010.04.10 22:41:39.
