data_PCOD8278606
_publ_section_title
;
Structure prediction by ZEFSAII (Michael W. Deem and Ramdas Pophale) SiO2 
 PCOD8278606
Probable space group: C M M A
;
_chemical_formula_sum "Si O2"
_cell_formula_units_Z 88
_cell_length_a 8.994694
_cell_length_b 25.388905
_cell_length_c 24.784738
_cell_angle_alpha 90.000000
_cell_angle_beta 90.000000
_cell_angle_gamma 90.000000
_cell_volume 5659.977387
_symmetry_space_group_name_H-M "C M M A"
_symmetry_group_IT_number 67
_symmetry_cell_setting 'orthorhombic'
loop_
_space_group_symop_operation_xyz
x,y,z
-x,1/2-y,z
x,-y,-z
-x,1/2+y,-z
-x,-y,-z
x,1/2+y,-z
-x,y,z
x,1/2-y,z
1/2+x,1/2+y,z
1/2-x,-y,z
1/2+x,1/2-y,-z
1/2-x,y,-z
1/2-x,1/2-y,-z
1/2+x,y,-z
1/2-x,1/2+y,z
1/2+x,-y,z
loop_
_atom_site_type_symbol
_atom_site_label
_atom_site_fract_x
_atom_site_fract_y
_atom_site_fract_z
Si Si1 0.325085 0.945816 0.444399
Si Si2 0.667763 0.187176 0.053153
Si Si3 0.325226 0.250000 0.557400
Si Si4 0.172845 0.347550 0.370756
Si Si5 0.825279 0.689221 0.266943
Si Si6 0.167524 0.312672 0.158877
O O1 0.500000 0.953980 0.454268
O O2 0.250000 0.926585 0.500000
O O3 0.294136 0.903136 0.398493
O O4 0.250000 0.000000 0.424911
O O5 0.500000 0.165718 0.053061
O O6 0.669421 0.250000 0.053502
O O7 0.750445 0.164764 0.106002
O O8 0.750000 0.165552 0.000000
O O9 0.500000 0.250000 0.548086
O O10 0.250000 0.250000 0.500000
O O11 0.272174 0.301399 0.589716
O O12 0.265489 0.345918 0.315823
O O13 0.000000 0.340014 0.356795
O O14 0.780585 0.750000 0.277147
O O15 0.752184 0.667544 0.212127
O O16 0.000000 0.682301 0.261459
O O17 0.168939 0.250000 0.156890
O O18 0.000000 0.334550 0.159807
#
# Coordination Sequence:
#
# PCOD8278606 Si02
#       6
#    16  16   8  16  16  16
#     4  10  20  34  52  71  89 112 141 175 215 259
#     4   9  15  22  32  47  68  94 130 175 217 255
#     4  10  20  32  46  64  88 112 137 170 209 254
#     4  10  20  33  48  65  87 115 143 173 213 259
#     4  10  19  29  42  61  83 109 141 176 213 255
#     4   9  16  25  37  51  71 102 136 172 213 254
#
# _framework density 15.547765
#
# number of rings (size 3 to 8) (size 9 to 14) (size 15 to 20)
#    0.000    2.364    0.909    3.273    0.000    7.273 
#    0.000    0.000    0.000    0.000    0.000    0.000 
#    0.000    0.000    0.000    0.000    0.000    0.909 
#
# Total GULP energy -545653.710535 kJ/mol
# GULP energy per Si atom -12401.220694 kJ/mol
# Density = 1.551238 g / cm^3
# Si number density = 15.547765 Si / 1000 Ang^3
#
#
#
# Elastic Constant Matrix: (Units=GPa)
#
#
# Indices 1 2 3 4 5 6 
#
# 1 114.5445 31.3971 76.7253 0.0000 0.0000 0.0000
# 2 31.3971 44.7056 38.6762 0.0000 0.0000 0.0000
# 3 76.7253 38.6762 155.5211 0.0000 0.0000 0.0000
# 4 0.0000 0.0000 0.0000 10.5986 0.0000 0.0000
# 5 0.0000 0.0000 0.0000 0.0000 36.6935 0.0000
# 6 0.0000 0.0000 0.0000 0.0000 0.0000 14.9584
#
#
#
# Elastic Compliance Matrix: (Units=1/GPa)
#
#
# Indices 1 2 3 4 5 6 
#
# 1 0.013818 -0.004850 -0.005611 0.000000 0.000000 0.000000
# 2 -0.004850 0.030203 -0.005118 0.000000 0.000000 0.000000
# 3 -0.005611 -0.005118 0.010471 0.000000 0.000000 0.000000
# 4 0.000000 0.000000 0.000000 0.094352 0.000000 0.000000
# 5 0.000000 0.000000 0.000000 0.000000 0.027253 0.000000
# 6 0.000000 0.000000 0.000000 0.000000 0.000000 0.066852
#
#
# Mechanical properties :
#
#
# Convention : Reuss Voigt Hill
#
# Bulk Modulus (GPa) = 42.85768 67.59648 55.22708
# Shear Modulus (GPa) = 17.73770 23.64828 20.69299
#
# Velocity S-wave (km/s) = 3.38131 3.90424 3.65215
# Velocity P-wave (km/s) = 6.54747 7.99345 7.30632
#
# Compressibility (1/GPa) = 0.02333304
#
# Stress axis : x y z
#
# Youngs Moduli (GPa) = 72.36919 33.10931 95.50315
#
# Poissons Ratio (x) = 0.16060 0.53585
# Poissons Ratio (y) = 0.35102 0.48880
# Poissons Ratio (z) = 0.40605 0.16946
#
# Static dielectric constant tensor:
#      x y z
#    x 3.110740 0.000000 0.000000 
#    y 0.000000 2.514890 0.000000 
#    z 0.000000 0.000000 3.070940 
# 
# 
# High freq. dielectric constant tensor:
#      x y z
#    x 1.613650 0.000000 0.000000 
#    y 0.000000 1.527110 0.000000 
#    z 0.000000 0.000000 1.607130 
# 
# From -- ./inp_files/41111.got.cif
#   From: 2010.03.12/outbox.cif.g09.slc.cpg/sg67_21_cif.got.tgz:41111.got - 2010.04.10 22:41:39.
