data_PCOD8278319
_publ_section_title
;
Structure prediction by ZEFSAII (Michael W. Deem and Ramdas Pophale) SiO2 
 PCOD8278319
Probable space group: C M M A
;
_chemical_formula_sum "Si O2"
_cell_formula_units_Z 96
_cell_length_a 25.974754
_cell_length_b 14.398191
_cell_length_c 14.870024
_cell_angle_alpha 90.000000
_cell_angle_beta 90.000000
_cell_angle_gamma 90.000000
_cell_volume 5561.232384
_symmetry_space_group_name_H-M "C M M A"
_symmetry_group_IT_number 67
_symmetry_cell_setting 'orthorhombic'
loop_
_space_group_symop_operation_xyz
x,y,z
-x,1/2-y,z
x,-y,-z
-x,1/2+y,-z
-x,-y,-z
x,1/2+y,-z
-x,y,z
x,1/2-y,z
1/2+x,1/2+y,z
1/2-x,-y,z
1/2+x,1/2-y,-z
1/2-x,y,-z
1/2-x,1/2-y,-z
1/2+x,y,-z
1/2-x,1/2+y,z
1/2+x,-y,z
loop_
_atom_site_type_symbol
_atom_site_label
_atom_site_fract_x
_atom_site_fract_y
_atom_site_fract_z
Si Si1 0.557000 0.355248 0.918964
Si Si2 0.192063 0.015104 0.142245
Si Si3 0.438604 0.446773 0.412126
Si Si4 0.557548 0.250000 0.453191
Si Si5 0.900422 0.567009 0.746291
Si Si6 0.840737 0.858422 0.016241
Si Si7 0.440964 0.250000 0.665412
O O1 0.500000 0.372191 0.958984
O O2 0.562426 0.250000 0.879930
O O3 0.566914 0.427909 0.838634
O O4 0.598179 0.369623 0.998102
O O5 0.159037 0.048372 0.228062
O O6 0.191071 0.095510 0.065918
O O7 0.250000 0.000000 0.175567
O O8 0.170620 0.916267 0.106164
O O9 0.416877 0.500000 0.500000
O O10 0.500000 0.448800 0.416181
O O11 0.415162 0.342821 0.416758
O O12 0.420366 0.485845 0.317202
O O13 0.500000 0.250000 0.414492
O O14 0.555275 0.250000 0.559659
O O15 0.907406 0.662420 0.693884
O O16 0.825011 0.750000 0.026850
O O17 0.500000 0.250000 0.704920
#
# Coordination Sequence:
#
# PCOD8278319 Si02
#       7
#    16  16  16   8  16  16   8
#     4   9  16  27  47  76 108 134 161 202 248 306
#     4  10  22  37  52  76 102 128 177 230 267 303
#     4  10  18  30  50  76 106 139 171 202 251 312
#     4   9  18  30  48  75 106 139 170 205 246 305
#     4  11  20  31  50  78 105 138 170 211 264 309
#     4   9  18  35  57  77  99 135 177 214 263 316
#     4  11  18  30  54  85 111 131 171 219 256 311
#
# _framework density 17.262360999999999
#
# number of rings (size 3 to 8) (size 9 to 14) (size 15 to 20)
#    0.000    2.167    2.500    2.500    1.167    1.333 
#    1.500    8.333    0.000    0.500    0.000    1.167 
#    0.000    0.000    0.000    0.000    0.000    0.000 
#
# Total GULP energy -594974.451540 kJ/mol
# GULP energy per Si atom -12395.301074 kJ/mol
# Density = 1.722307 g / cm^3
# Si number density = 17.262361 Si / 1000 Ang^3
#
#
#
# Elastic Constant Matrix: (Units=GPa)
#
#
# Indices 1 2 3 4 5 6 
#
# 1 100.8907 43.8086 27.0228 0.0000 0.0000 0.0000
# 2 43.8086 146.1092 48.0004 0.0000 0.0000 0.0000
# 3 27.0228 48.0004 56.0503 0.0000 0.0000 0.0000
# 4 0.0000 0.0000 0.0000 25.6559 0.0000 0.0000
# 5 0.0000 0.0000 0.0000 0.0000 18.9603 0.0000
# 6 0.0000 0.0000 0.0000 0.0000 0.0000 12.3749
#
#
#
# Elastic Compliance Matrix: (Units=1/GPa)
#
#
# Indices 1 2 3 4 5 6 
#
# 1 0.011934 -0.002349 -0.003742 0.000000 0.000000 0.000000
# 2 -0.002349 0.009986 -0.007419 0.000000 0.000000 0.000000
# 3 -0.003742 -0.007419 0.025999 0.000000 0.000000 0.000000
# 4 0.000000 0.000000 0.000000 0.038977 0.000000 0.000000
# 5 0.000000 0.000000 0.000000 0.000000 0.052742 0.000000
# 6 0.000000 0.000000 0.000000 0.000000 0.000000 0.080809
#
#
# Mechanical properties :
#
#
# Convention : Reuss Voigt Hill
#
# Bulk Modulus (GPa) = 47.85056 60.07931 53.96493
# Shear Modulus (GPa) = 19.65150 23.67943 21.66547
#
# Velocity S-wave (km/s) = 3.37768 3.70772 3.54654
# Velocity P-wave (km/s) = 6.55678 7.29443 6.93542
#
# Compressibility (1/GPa) = 0.02089840
#
# Stress axis : x y z
#
# Youngs Moduli (GPa) = 83.79491 100.14148 38.46315
#
# Poissons Ratio (x) = 0.23522 0.14393
# Poissons Ratio (y) = 0.19682 0.28537
# Poissons Ratio (z) = 0.31356 0.74298
#
# Static dielectric constant tensor:
#      x y z
#    x 3.052920 0.000000 0.000000 
#    y 0.000000 3.519840 0.000000 
#    z 0.000000 0.000000 2.998740 
# 
# 
# High freq. dielectric constant tensor:
#      x y z
#    x 1.636480 0.000000 0.000000 
#    y 0.000000 1.680000 0.000000 
#    z 0.000000 0.000000 1.641010 
# 
# From -- ./inp_files/30751.got.cif
#   From: 2010.03.12/outbox.cif.g09.slc.cpg/sg67_16_cif.got.tgz:30751.got - 2010.04.10 22:41:39.
