data_PCOD8278035
_publ_section_title
;
Structure prediction by ZEFSAII (Michael W. Deem and Ramdas Pophale) SiO2 
 PCOD8278035
Probable space group: C M M A
;
_chemical_formula_sum "Si O2"
_cell_formula_units_Z 96
_cell_length_a 19.482793
_cell_length_b 8.589869
_cell_length_c 31.230797
_cell_angle_alpha 90.000000
_cell_angle_beta 90.000000
_cell_angle_gamma 90.000000
_cell_volume 5226.618777
_symmetry_space_group_name_H-M "C M M A"
_symmetry_group_IT_number 67
_symmetry_cell_setting 'orthorhombic'
loop_
_space_group_symop_operation_xyz
x,y,z
-x,1/2-y,z
x,-y,-z
-x,1/2+y,-z
-x,-y,-z
x,1/2+y,-z
-x,y,z
x,1/2-y,z
1/2+x,1/2+y,z
1/2-x,-y,z
1/2+x,1/2-y,-z
1/2-x,y,-z
1/2-x,1/2-y,-z
1/2+x,y,-z
1/2-x,1/2+y,z
1/2+x,-y,z
loop_
_atom_site_type_symbol
_atom_site_label
_atom_site_fract_x
_atom_site_fract_y
_atom_site_fract_z
Si Si1 0.173547 0.066197 0.042742
Si Si2 0.825866 0.564805 0.630181
Si Si3 0.824928 0.431632 0.870514
Si Si4 0.580184 0.570053 0.199418
Si Si5 0.326639 0.565280 0.542936
Si Si6 0.924275 0.934562 0.704403
O O1 0.173231 0.250000 0.040758
O O2 0.250000 0.000000 0.043393
O O3 0.139786 0.007894 0.087082
O O4 0.135577 0.000000 0.000000
O O5 0.823645 0.750000 0.627956
O O6 0.750000 0.500000 0.636790
O O7 0.861023 0.499075 0.586523
O O8 0.870746 0.500633 0.669704
O O9 0.816554 0.250000 0.878545
O O10 0.750000 0.500000 0.860349
O O11 0.875235 0.462126 0.831186
O O12 0.500000 0.542818 0.190274
O O13 0.599674 0.750000 0.191843
O O14 0.598580 0.517482 0.247793
O O15 0.364366 0.500000 0.500000
O O16 0.327015 0.750000 0.542467
O O17 0.250000 0.500000 0.543038
O O18 0.927807 0.750000 0.701818
O O19 0.000000 0.002880 0.694390
#
# Coordination Sequence:
#
# PCOD8278035 Si02
#       6
#    16  16  16  16  16  16
#     4  10  17  28  46  70 100 132 166 202 246 295
#     4  10  18  29  47  72 100 126 157 197 240 284
#     4  11  21  33  50  75 105 134 169 210 252 294
#     4   9  18  35  56  75  98 131 169 206 249 302
#     4  10  17  27  43  65  94 125 158 193 234 282
#     4   8  16  32  53  73  94 126 165 200 238 289
#
# _framework density 18.367515000000001
#
# number of rings (size 3 to 8) (size 9 to 14) (size 15 to 20)
#    0.000    2.333    0.000    9.000    0.000    1.000 
#    0.000    3.333    0.000    5.000    0.000    0.000 
#    0.000    0.000    0.000    0.000    0.000    0.000 
#
# Total GULP energy -594936.279150 kJ/mol
# GULP energy per Si atom -12394.505816 kJ/mol
# Density = 1.832571 g / cm^3
# Si number density = 18.367515 Si / 1000 Ang^3
#
#
#
# Elastic Constant Matrix: (Units=GPa)
#
#
# Indices 1 2 3 4 5 6 
#
# 1 50.4429 26.0777 61.4435 0.0000 0.0000 0.0000
# 2 26.0777 128.6620 55.4075 0.0000 0.0000 0.0000
# 3 61.4435 55.4075 182.9647 0.0000 0.0000 0.0000
# 4 0.0000 0.0000 0.0000 19.5346 0.0000 0.0000
# 5 0.0000 0.0000 0.0000 0.0000 2.3480 0.0000
# 6 0.0000 0.0000 0.0000 0.0000 0.0000 15.1949
#
#
#
# Elastic Compliance Matrix: (Units=1/GPa)
#
#
# Indices 1 2 3 4 5 6 
#
# 1 0.034118 -0.002278 -0.010768 0.000000 0.000000 0.000000
# 2 -0.002278 0.009090 -0.001988 0.000000 0.000000 0.000000
# 3 -0.010768 -0.001988 0.009683 0.000000 0.000000 0.000000
# 4 0.000000 0.000000 0.000000 0.051191 0.000000 0.000000
# 5 0.000000 0.000000 0.000000 0.000000 0.425897 0.000000
# 6 0.000000 0.000000 0.000000 0.000000 0.000000 0.065812
#
#
# Mechanical properties :
#
#
# Convention : Reuss Voigt Hill
#
# Bulk Modulus (GPa) = 43.81257 71.99190 57.90224
# Shear Modulus (GPa) = 7.89308 22.02488 14.95898
#
# Velocity S-wave (km/s) = 2.07524 3.46659 2.85691
# Velocity P-wave (km/s) = 5.44493 7.43662 6.51731
#
# Compressibility (1/GPa) = 0.02282450
#
# Stress axis : x y z
#
# Youngs Moduli (GPa) = 29.31005 110.01052 103.26859
#
# Poissons Ratio (x) = 0.25062 1.11196
# Poissons Ratio (y) = 0.06677 0.20527
# Poissons Ratio (z) = 0.31560 0.21867
#
# Static dielectric constant tensor:
#      x y z
#    x 3.066450 0.000000 0.000000 
#    y 0.000000 3.263860 0.000000 
#    z 0.000000 0.000000 4.491800 
# 
# 
# High freq. dielectric constant tensor:
#      x y z
#    x 1.656950 0.000000 0.000000 
#    y 0.000000 1.711030 0.000000 
#    z 0.000000 0.000000 1.740480 
# 
# From -- ./inp_files/44799.got.cif
#   From: 2010.03.12/outbox.cif.g09.slc.cpg/sg67_23_cif.got.tgz:44799.got - 2010.04.10 22:41:39.
