data_PCOD8278420
_publ_section_title
;
Structure prediction by ZEFSAII (Michael W. Deem and Ramdas Pophale) SiO2 
 PCOD8278420
Probable space group: C M M A
;
_chemical_formula_sum "Si O2"
_cell_formula_units_Z 88
_cell_length_a 14.431589
_cell_length_b 23.594658
_cell_length_c 15.167274
_cell_angle_alpha 90.000000
_cell_angle_beta 90.000000
_cell_angle_gamma 90.000000
_cell_volume 5164.584306
_symmetry_space_group_name_H-M "C M M A"
_symmetry_group_IT_number 67
_symmetry_cell_setting 'orthorhombic'
loop_
_space_group_symop_operation_xyz
x,y,z
-x,1/2-y,z
x,-y,-z
-x,1/2+y,-z
-x,-y,-z
x,1/2+y,-z
-x,y,z
x,1/2-y,z
1/2+x,1/2+y,z
1/2-x,-y,z
1/2+x,1/2-y,-z
1/2-x,y,-z
1/2-x,1/2-y,-z
1/2+x,y,-z
1/2-x,1/2+y,z
1/2+x,-y,z
loop_
_atom_site_type_symbol
_atom_site_label
_atom_site_fract_x
_atom_site_fract_y
_atom_site_fract_z
Si Si1 0.500000 0.534611 0.411527
Si Si2 0.824726 0.630081 0.066447
Si Si3 0.102122 0.750000 0.065783
Si Si4 0.500000 0.943426 0.736351
Si Si5 0.291154 0.562991 0.407249
Si Si6 0.603579 0.750000 0.725636
Si Si7 0.500000 0.052134 0.066102
Si Si8 0.319627 0.630681 0.730442
O O1 0.500000 0.500000 0.500000
O O2 0.500000 0.496173 0.326538
O O3 0.403148 0.568934 0.410199
O O4 0.844762 0.694048 0.034656
O O5 0.788807 0.628965 0.167233
O O6 0.912799 0.591552 0.051154
O O7 0.750000 0.604158 0.000000
O O8 0.091412 0.750000 0.170213
O O9 0.000000 0.750000 0.022956
O O10 0.500000 0.970263 0.833840
O O11 0.587789 0.904835 0.717463
O O12 0.250000 0.500000 0.389060
O O13 0.250000 0.584943 0.500000
O O14 0.261322 0.604330 0.328525
O O15 0.500000 0.750000 0.683384
O O16 0.660837 0.805524 0.696784
O O17 0.500000 0.000000 0.000000
#
# Coordination Sequence:
#
# PCOD8278420 Si02
#       8
#     8  16   8   8  16   8   8  16
#     4  12  20  34  55  82 108 136 175 221 265 304
#     4  10  20  34  53  76 103 139 177 221 267 316
#     4   9  15  31  57  77  99 127 178 234 271 299
#     4  10  18  31  56  75 102 136 178 223 259 314
#     4  11  21  35  56  82 109 138 176 220 262 314
#     4   9  16  29  56  83 104 133 172 226 274 315
#     4  10  22  35  45  70 108 145 178 213 256 315
#     4  10  19  34  53  82 107 134 177 223 271 315
#
# _framework density 17.039124999999999
#
# number of rings (size 3 to 8) (size 9 to 14) (size 15 to 20)
#    0.000    1.818    5.455    0.273    0.000    1.818 
#    0.000    0.455    0.000    0.545    0.000    0.000 
#    0.000    0.000    0.000    0.000    0.000    0.000 
#
# Total GULP energy -545441.934894 kJ/mol
# GULP energy per Si atom -12396.407611 kJ/mol
# Density = 1.700034 g / cm^3
# Si number density = 17.039125 Si / 1000 Ang^3
#
#
#
# Elastic Constant Matrix: (Units=GPa)
#
#
# Indices 1 2 3 4 5 6 
#
# 1 136.8002 42.1370 66.4775 0.0000 0.0000 0.0000
# 2 42.1370 86.7761 56.6344 0.0000 0.0000 0.0000
# 3 66.4775 56.6344 99.8429 0.0000 0.0000 0.0000
# 4 0.0000 0.0000 0.0000 23.1151 0.0000 0.0000
# 5 0.0000 0.0000 0.0000 0.0000 37.4404 0.0000
# 6 0.0000 0.0000 0.0000 0.0000 0.0000 12.3410
#
#
#
# Elastic Compliance Matrix: (Units=1/GPa)
#
#
# Indices 1 2 3 4 5 6 
#
# 1 0.010848 -0.000879 -0.006724 0.000000 0.000000 0.000000
# 2 -0.000879 0.018369 -0.009834 0.000000 0.000000 0.000000
# 3 -0.006724 -0.009834 0.020071 0.000000 0.000000 0.000000
# 4 0.000000 0.000000 0.000000 0.043262 0.000000 0.000000
# 5 0.000000 0.000000 0.000000 0.000000 0.026709 0.000000
# 6 0.000000 0.000000 0.000000 0.000000 0.000000 0.081031
#
#
# Mechanical properties :
#
#
# Convention : Reuss Voigt Hill
#
# Bulk Modulus (GPa) = 69.38065 72.65744 71.01905
# Shear Modulus (GPa) = 20.83588 25.12400 22.97994
#
# Velocity S-wave (km/s) = 3.50069 3.84407 3.67639
# Velocity P-wave (km/s) = 7.55953 7.90169 7.73250
#
# Compressibility (1/GPa) = 0.01441324
#
# Stress axis : x y z
#
# Youngs Moduli (GPa) = 92.17927 54.43909 49.82222
#
# Poissons Ratio (x) = 0.04786 0.33503
# Poissons Ratio (y) = 0.08104 0.48997
# Poissons Ratio (z) = 0.61985 0.53537
#
# Static dielectric constant tensor:
#      x y z
#    x 9.472690 0.000000 0.000000 
#    y 0.000000 3.235640 0.000000 
#    z 0.000000 0.000000 3.137240 
# 
# 
# High freq. dielectric constant tensor:
#      x y z
#    x 1.661020 0.000000 0.000000 
#    y 0.000000 1.643950 0.000000 
#    z 0.000000 0.000000 1.646560 
# 
# From -- ./inp_files/27122.got.cif
#   From: 2010.03.12/outbox.cif.g09.slc.cpg/sg67_14_cif.got.tgz:27122.got - 2010.04.10 22:41:39.
