data_PCOD8278215
_publ_section_title
;
Structure prediction by ZEFSAII (Michael W. Deem and Ramdas Pophale) SiO2 
 PCOD8278215
Probable space group: C M M A
;
_chemical_formula_sum "Si O2"
_cell_formula_units_Z 112
_cell_length_a 16.324227
_cell_length_b 27.547879
_cell_length_c 14.240079
_cell_angle_alpha 90.000000
_cell_angle_beta 90.000000
_cell_angle_gamma 90.000000
_cell_volume 6403.732628
_symmetry_space_group_name_H-M "C M M A"
_symmetry_group_IT_number 67
_symmetry_cell_setting 'orthorhombic'
loop_
_space_group_symop_operation_xyz
x,y,z
-x,1/2-y,z
x,-y,-z
-x,1/2+y,-z
-x,-y,-z
x,1/2+y,-z
-x,y,z
x,1/2-y,z
1/2+x,1/2+y,z
1/2-x,-y,z
1/2+x,1/2-y,-z
1/2-x,y,-z
1/2-x,1/2-y,-z
1/2+x,y,-z
1/2-x,1/2+y,z
1/2+x,-y,z
loop_
_atom_site_type_symbol
_atom_site_label
_atom_site_fract_x
_atom_site_fract_y
_atom_site_fract_z
Si Si1 0.694374 0.304182 0.591773
Si Si2 0.802593 0.045437 0.383870
Si Si3 0.593410 0.910570 0.846772
Si Si4 0.404527 0.479803 0.791009
Si Si5 0.595594 0.116991 0.499827
Si Si6 0.655614 0.947170 0.024562
Si Si7 0.310837 0.628447 0.684736
O O1 0.664531 0.250000 0.617836
O O2 0.750000 0.304426 0.500000
O O3 0.615980 0.338349 0.570708
O O4 0.750343 0.325139 0.676474
O O5 0.873982 0.029771 0.313267
O O6 0.846576 0.071201 0.472725
O O7 0.742289 0.080672 0.329008
O O8 0.750000 0.000000 0.420541
O O9 0.500000 0.897846 0.825583
O O10 0.648437 0.872504 0.788003
O O11 0.617488 0.964692 0.814257
O O12 0.610468 0.907007 0.959161
O O13 0.500000 0.469405 0.795487
O O14 0.361252 0.441777 0.864074
O O15 0.500000 0.103896 0.508510
O O16 0.616767 0.130904 0.392933
O O17 0.750000 0.944023 0.000000
O O18 0.618290 0.000000 0.000000
#
# Coordination Sequence:
#
# PCOD8278215 Si02
#       7
#    16  16  16  16  16  16  16
#     4   8  16  32  53  73  93 122 158 198 250 307
#     4  11  20  33  47  62  91 131 171 204 241 287
#     4  10  18  29  43  65  93 124 160 203 246 284
#     4  10  19  30  44  64  89 123 166 209 244 278
#     4  10  21  34  48  70  97 125 162 209 251 291
#     4   9  17  27  44  62  88 121 161 202 244 289
#     4  10  19  32  49  67  96 129 163 202 241 298
#
# _framework density 17.489799999999999
#
# number of rings (size 3 to 8) (size 9 to 14) (size 15 to 20)
#    0.000    2.286    1.429    3.429    2.000    3.143 
#    0.000    0.714    0.000    1.286    0.000    0.000 
#    0.000   14.286    0.000    6.286    0.000    0.571 
#
# Total GULP energy -694141.588740 kJ/mol
# GULP energy per Si atom -12395.385513 kJ/mol
# Density = 1.744999 g / cm^3
# Si number density = 17.489800 Si / 1000 Ang^3
#
#
#
# Elastic Constant Matrix: (Units=GPa)
#
#
# Indices 1 2 3 4 5 6 
#
# 1 81.2316 23.7885 17.0022 0.0000 0.0000 0.0000
# 2 23.7885 71.5042 8.2214 0.0000 0.0000 0.0000
# 3 17.0022 8.2214 71.0049 0.0000 0.0000 0.0000
# 4 0.0000 0.0000 0.0000 12.6768 0.0000 0.0000
# 5 0.0000 0.0000 0.0000 0.0000 26.0468 0.0000
# 6 0.0000 0.0000 0.0000 0.0000 0.0000 14.2757
#
#
#
# Elastic Compliance Matrix: (Units=1/GPa)
#
#
# Indices 1 2 3 4 5 6 
#
# 1 0.014202 -0.004392 -0.002892 0.000000 0.000000 0.000000
# 2 -0.004392 0.015532 -0.000747 0.000000 0.000000 0.000000
# 3 -0.002892 -0.000747 0.014863 0.000000 0.000000 0.000000
# 4 0.000000 0.000000 0.000000 0.078884 0.000000 0.000000
# 5 0.000000 0.000000 0.000000 0.000000 0.038392 0.000000
# 6 0.000000 0.000000 0.000000 0.000000 0.000000 0.070049
#
#
# Mechanical properties :
#
#
# Convention : Reuss Voigt Hill
#
# Bulk Modulus (GPa) = 35.04511 35.75165 35.39838
# Shear Modulus (GPa) = 19.41778 22.24846 20.83312
#
# Velocity S-wave (km/s) = 3.33563 3.57049 3.45506
# Velocity P-wave (km/s) = 5.90899 6.12239 6.01664
#
# Compressibility (1/GPa) = 0.02853465
#
# Stress axis : x y z
#
# Youngs Moduli (GPa) = 70.41212 64.38191 67.28340
#
# Poissons Ratio (x) = 0.28279 0.19459
# Poissons Ratio (y) = 0.30927 0.05024
# Poissons Ratio (z) = 0.20364 0.04807
#
# Static dielectric constant tensor:
#      x y z
#    x 3.178400 0.000000 0.000000 
#    y 0.000000 3.098460 0.000000 
#    z 0.000000 0.000000 3.296970 
# 
# 
# High freq. dielectric constant tensor:
#      x y z
#    x 1.682660 0.000000 0.000000 
#    y 0.000000 1.620030 0.000000 
#    z 0.000000 0.000000 1.668550 
# 
# From -- ./inp_files/27677.got.cif
#   From: 2010.03.12/outbox.cif.g09.slc.cpg/sg67_14_cif.got.tgz:27677.got - 2010.04.10 22:41:39.
