data_PCOD8278710
_publ_section_title
;
Structure prediction by ZEFSAII (Michael W. Deem and Ramdas Pophale) SiO2 
 PCOD8278710
Probable space group: C M M A
;
_chemical_formula_sum "Si O2"
_cell_formula_units_Z 96
_cell_length_a 15.125256
_cell_length_b 13.852993
_cell_length_c 21.919733
_cell_angle_alpha 90.000000
_cell_angle_beta 90.000000
_cell_angle_gamma 90.000000
_cell_volume 4592.843091
_symmetry_space_group_name_H-M "C M M A"
_symmetry_group_IT_number 67
_symmetry_cell_setting 'orthorhombic'
loop_
_space_group_symop_operation_xyz
x,y,z
-x,1/2-y,z
x,-y,-z
-x,1/2+y,-z
-x,-y,-z
x,1/2+y,-z
-x,y,z
x,1/2-y,z
1/2+x,1/2+y,z
1/2-x,-y,z
1/2+x,1/2-y,-z
1/2-x,y,-z
1/2-x,1/2-y,-z
1/2+x,y,-z
1/2-x,1/2+y,z
1/2+x,-y,z
loop_
_atom_site_type_symbol
_atom_site_label
_atom_site_fract_x
_atom_site_fract_y
_atom_site_fract_z
Si Si1 0.150826 0.855789 0.480183
Si Si2 0.098889 0.527274 0.593197
Si Si3 0.804819 0.364893 0.939916
Si Si4 0.000000 0.364976 0.964302
Si Si5 0.173797 0.364549 0.161851
Si Si6 0.500000 0.365234 0.900442
Si Si7 0.603886 0.637619 0.288619
O O1 0.112283 0.750000 0.462554
O O2 0.250000 0.844276 0.500000
O O3 0.095802 0.899355 0.536232
O O4 0.150811 0.928685 0.422610
O O5 0.138752 0.578319 0.652949
O O6 0.000000 0.495392 0.608014
O O7 0.803520 0.250000 0.943046
O O8 0.758020 0.402657 0.877174
O O9 0.907023 0.401454 0.934977
O O10 0.750000 0.402601 0.000000
O O11 0.000000 0.250000 0.965080
O O12 0.000000 0.407478 0.032023
O O13 0.171436 0.250000 0.157620
O O14 0.168464 0.395158 0.233017
O O15 0.086192 0.407784 0.131513
O O16 0.500000 0.250000 0.899658
O O17 0.500000 0.618472 0.273340
O O18 0.616895 0.750000 0.303498
#
# Coordination Sequence:
#
# PCOD8278710 Si02
#       7
#    16  16  16   8  16   8  16
#     4  10  20  34  52  74 106 145 180 217 260 313
#     4  10  19  30  48  75 107 141 177 221 272 323
#     4   9  14  18  26  41  65 102 153 218 287 341
#     4   9  14  18  24  40  66  98 147 221 292 339
#     4   9  14  20  30  46  72 111 161 215 275 338
#     4   9  12  16  28  42  64 103 150 212 280 331
#     4   9  16  25  38  59  90 128 172 223 275 331
#
# _framework density 20.902086000000001
#
# number of rings (size 3 to 8) (size 9 to 14) (size 15 to 20)
#    0.000    2.667    2.500    2.500    0.000    2.000 
#    0.000    0.000    0.000    0.000    0.000    0.000 
#   20.000    0.000   16.000    0.000    0.000    4.167 
#
# Total GULP energy -594671.989016 kJ/mol
# GULP energy per Si atom -12388.999771 kJ/mol
# Density = 2.085451 g / cm^3
# Si number density = 20.902086 Si / 1000 Ang^3
#
#
#
# Elastic Constant Matrix: (Units=GPa)
#
#
# Indices 1 2 3 4 5 6 
#
# 1 124.9282 23.4447 60.3165 0.0000 0.0000 0.0000
# 2 23.4447 88.6726 56.0023 0.0000 0.0000 0.0000
# 3 60.3165 56.0023 168.0404 0.0000 0.0000 0.0000
# 4 0.0000 0.0000 0.0000 -23.4397 0.0000 0.0000
# 5 0.0000 0.0000 0.0000 0.0000 30.3960 0.0000
# 6 0.0000 0.0000 0.0000 0.0000 0.0000 11.1579
#
#
#
# Elastic Compliance Matrix: (Units=1/GPa)
#
#
# Indices 1 2 3 4 5 6 
#
# 1 0.009698 -0.000463 -0.003327 0.000000 0.000000 0.000000
# 2 -0.000463 0.014306 -0.004601 0.000000 0.000000 0.000000
# 3 -0.003327 -0.004601 0.008678 0.000000 0.000000 0.000000
# 4 0.000000 0.000000 0.000000 -0.042663 0.000000 0.000000
# 5 0.000000 0.000000 0.000000 0.000000 0.032899 0.000000
# 6 0.000000 0.000000 0.000000 0.000000 0.000000 0.089622
#
#
# Mechanical properties :
#
#
# Convention : Reuss Voigt Hill
#
# Bulk Modulus (GPa) = 62.89363 73.46315 68.17839
# Shear Modulus (GPa) = 37.14072 19.74802 28.44437
#
# Velocity S-wave (km/s) = 4.21989 3.07707 3.69296
# Velocity P-wave (km/s) = 7.34154 6.91716 7.13251
#
# Compressibility (1/GPa) = 0.01589986
#
# Stress axis : x y z
#
# Youngs Moduli (GPa) = 103.11848 69.90071 115.22737
#
# Poissons Ratio (x) = 0.03237 0.38331
# Poissons Ratio (y) = 0.04775 0.53022
# Poissons Ratio (z) = 0.34303 0.32165
#
# Static dielectric constant tensor:
#      x y z
#    x 3.919200 0.000000 0.000000 
#    y 0.000000 3.641000 0.000000 
#    z 0.000000 0.000000 3.868320 
# 
# 
# High freq. dielectric constant tensor:
#      x y z
#    x 1.813510 0.000000 0.000000 
#    y 0.000000 1.800280 0.000000 
#    z 0.000000 0.000000 1.798630 
# 
# From -- ./inp_files/38527.got.cif
#   From: 2010.03.12/outbox.cif.g09.slc.cpg/sg67_20_cif.got.tgz:38527.got - 2010.04.10 22:41:39.
