data_PCOD8278116
_publ_section_title
;
Structure prediction by ZEFSAII (Michael W. Deem and Ramdas Pophale) SiO2 
 PCOD8278116
Probable space group: C M M A
;
_chemical_formula_sum "Si O2"
_cell_formula_units_Z 72
_cell_length_a 7.736637
_cell_length_b 25.942729
_cell_length_c 22.655214
_cell_angle_alpha 90.000000
_cell_angle_beta 90.000000
_cell_angle_gamma 90.000000
_cell_volume 4547.116155
_symmetry_space_group_name_H-M "C M M A"
_symmetry_group_IT_number 67
_symmetry_cell_setting 'orthorhombic'
loop_
_space_group_symop_operation_xyz
x,y,z
-x,1/2-y,z
x,-y,-z
-x,1/2+y,-z
-x,-y,-z
x,1/2+y,-z
-x,y,z
x,1/2-y,z
1/2+x,1/2+y,z
1/2-x,-y,z
1/2+x,1/2-y,-z
1/2-x,y,-z
1/2-x,1/2-y,-z
1/2+x,y,-z
1/2-x,1/2+y,z
1/2+x,-y,z
loop_
_atom_site_type_symbol
_atom_site_label
_atom_site_fract_x
_atom_site_fract_y
_atom_site_fract_z
Si Si1 0.500000 0.311131 0.148337
Si Si2 0.307051 0.688884 0.063375
Si Si3 0.310152 0.944786 0.662156
Si Si4 0.500000 0.632553 0.728231
Si Si5 0.306743 0.623278 0.436471
Si Si6 0.500000 0.309880 0.388723
O O1 0.500000 0.250000 0.161178
O O2 0.329327 0.328512 0.112836
O O3 0.500000 0.343579 0.207697
O O4 0.500000 0.668887 0.079582
O O5 0.306861 0.750000 0.058892
O O6 0.250000 0.665946 0.000000
O O7 0.500000 0.949995 0.632636
O O8 0.329251 0.903817 0.716817
O O9 0.187351 0.923499 0.610682
O O10 0.250000 0.000000 0.686876
O O11 0.500000 0.679009 0.681132
O O12 0.500000 0.646827 0.439706
O O13 0.250000 0.601181 0.500000
O O14 0.173350 0.667350 0.417326
O O15 0.500000 0.250000 0.401144
#
# Coordination Sequence:
#
# PCOD8278116 Si02
#       6
#     8  16  16   8  16   8
#     4  10  17  28  48  69 104 144 165 196 235 280
#     4   9  15  24  40  67  99 134 170 198 233 277
#     4   9  18  34  54  75  97 125 158 206 262 308
#     4   8  19  34  51  72 100 131 168 204 244 295
#     4  11  20  35  52  76 104 125 163 209 251 308
#     4  10  21  38  51  69 102 137 174 208 239 285
#
# _framework density 15.834212000000001
#
# number of rings (size 3 to 8) (size 9 to 14) (size 15 to 20)
#    0.667    1.778    3.333    1.000    0.000    1.333 
#    0.000    7.778    0.000    5.333    0.000    0.000 
#    0.000    2.667    0.000    0.000    0.000    0.000 
#
# Total GULP energy -446002.465889 kJ/mol
# GULP energy per Si atom -12388.957386 kJ/mol
# Density = 1.579817 g / cm^3
# Si number density = 15.834212 Si / 1000 Ang^3
#
#
#
# Elastic Constant Matrix: (Units=GPa)
#
#
# Indices 1 2 3 4 5 6 
#
# 1 132.2586 26.3915 52.3492 0.0000 0.0000 0.0000
# 2 26.3915 68.9921 40.2506 0.0000 0.0000 0.0000
# 3 52.3492 40.2506 131.2761 0.0000 0.0000 0.0000
# 4 0.0000 0.0000 0.0000 11.4970 0.0000 0.0000
# 5 0.0000 0.0000 0.0000 0.0000 19.1695 0.0000
# 6 0.0000 0.0000 0.0000 0.0000 0.0000 12.7150
#
#
#
# Elastic Compliance Matrix: (Units=1/GPa)
#
#
# Indices 1 2 3 4 5 6 
#
# 1 0.009133 -0.001667 -0.003131 0.000000 0.000000 0.000000
# 2 -0.001667 0.017956 -0.004841 0.000000 0.000000 0.000000
# 3 -0.003131 -0.004841 0.010350 0.000000 0.000000 0.000000
# 4 0.000000 0.000000 0.000000 0.086980 0.000000 0.000000
# 5 0.000000 0.000000 0.000000 0.000000 0.052166 0.000000
# 6 0.000000 0.000000 0.000000 0.000000 0.000000 0.078647
#
#
# Mechanical properties :
#
#
# Convention : Reuss Voigt Hill
#
# Bulk Modulus (GPa) = 55.05982 63.38992 59.22487
# Shear Modulus (GPa) = 17.82127 22.91199 20.36663
#
# Velocity S-wave (km/s) = 3.35847 3.80806 3.59031
# Velocity P-wave (km/s) = 7.06310 7.71074 7.39401
#
# Compressibility (1/GPa) = 0.01816206
#
# Stress axis : x y z
#
# Youngs Moduli (GPa) = 109.49571 55.69083 96.61620
#
# Poissons Ratio (x) = 0.09284 0.30248
# Poissons Ratio (y) = 0.18253 0.46770
# Poissons Ratio (z) = 0.34280 0.26959
#
# Static dielectric constant tensor:
#      x y z
#    x 3.209160 0.000000 0.000000 
#    y 0.000000 2.730770 0.000000 
#    z 0.000000 0.000000 2.845980 
# 
# 
# High freq. dielectric constant tensor:
#      x y z
#    x 1.619570 0.000000 0.000000 
#    y 0.000000 1.568250 0.000000 
#    z 0.000000 0.000000 1.591900 
# 
# From -- ./inp_files/37070.got.cif
#   From: 2010.03.12/outbox.cif.g09.slc.cpg/sg67_19_cif.got.tgz:37070.got - 2010.04.10 22:41:39.
