data_PCOD8278406
_publ_section_title
;
Structure prediction by ZEFSAII (Michael W. Deem and Ramdas Pophale) SiO2 
 PCOD8278406
Probable space group: C M M A
;
_chemical_formula_sum "Si O2"
_cell_formula_units_Z 88
_cell_length_a 23.917259
_cell_length_b 19.573548
_cell_length_c 9.510416
_cell_angle_alpha 90.000000
_cell_angle_beta 90.000000
_cell_angle_gamma 90.000000
_cell_volume 4452.259567
_symmetry_space_group_name_H-M "C M M A"
_symmetry_group_IT_number 67
_symmetry_cell_setting 'orthorhombic'
loop_
_space_group_symop_operation_xyz
x,y,z
-x,1/2-y,z
x,-y,-z
-x,1/2+y,-z
-x,-y,-z
x,1/2+y,-z
-x,y,z
x,1/2-y,z
1/2+x,1/2+y,z
1/2-x,-y,z
1/2+x,1/2-y,-z
1/2-x,y,-z
1/2-x,1/2-y,-z
1/2+x,y,-z
1/2-x,1/2+y,z
1/2+x,-y,z
loop_
_atom_site_type_symbol
_atom_site_label
_atom_site_fract_x
_atom_site_fract_y
_atom_site_fract_z
Si Si1 0.380620 0.880972 0.866931
Si Si2 0.611029 0.508804 0.647107
Si Si3 0.000000 0.826978 0.722703
Si Si4 0.000000 0.170537 0.813423
Si Si5 0.315143 0.750000 0.848899
Si Si6 0.500000 0.088607 0.442815
Si Si7 0.385818 0.372146 0.817834
Si Si8 0.190048 0.750000 0.816473
O O1 0.361828 0.942898 0.765647
O O2 0.446537 0.867937 0.875417
O O3 0.348978 0.816362 0.800132
O O4 0.364510 0.897042 0.028516
O O5 0.646051 0.500000 0.500000
O O6 0.552363 0.541442 0.597581
O O7 0.607064 0.434382 0.712658
O O8 0.000000 0.885405 0.602703
O O9 0.053827 0.835421 0.823731
O O10 0.000000 0.750000 0.659924
O O11 0.000000 0.250000 0.851810
O O12 0.000000 0.158898 0.645695
O O13 0.254991 0.750000 0.772374
O O14 0.312845 0.750000 0.016014
O O15 0.340484 0.317876 0.757599
#
# Coordination Sequence:
#
# PCOD8278406 Si02
#       8
#    16  16   8   8   8   8  16   8
#     4  10  21  34  59  88 114 149 181 240 288 338
#     4  11  21  37  56  79 117 156 193 225 274 345
#     4  12  21  33  56  89 122 157 184 239 284 343
#     4  10  18  31  52  86 115 142 182 228 270 347
#     4   9  18  39  62  83 116 143 190 234 301 344
#     4  10  21  35  50  80 119 163 193 208 280 338
#     4  11  21  35  56  87 117 144 192 235 288 336
#     4   9  20  37  60  87 110 149 186 246 287 348
#
# _framework density 19.765245
#
# number of rings (size 3 to 8) (size 9 to 14) (size 15 to 20)
#    0.000    1.636    3.636    2.182    0.000    0.727 
#    0.000    5.455    0.000    7.636    0.000    0.000 
#    0.000    0.000    0.000    0.000    0.000    0.000 
#
# Total GULP energy -545230.234491 kJ/mol
# GULP energy per Si atom -12391.596238 kJ/mol
# Density = 1.972026 g / cm^3
# Si number density = 19.765245 Si / 1000 Ang^3
#
#
#
# Elastic Constant Matrix: (Units=GPa)
#
#
# Indices 1 2 3 4 5 6 
#
# 1 92.6460 34.1071 8.3705 0.0000 0.0000 0.0000
# 2 34.1071 137.0232 50.3693 0.0000 0.0000 0.0000
# 3 8.3705 50.3693 98.1806 0.0000 0.0000 0.0000
# 4 0.0000 0.0000 0.0000 31.6379 0.0000 0.0000
# 5 0.0000 0.0000 0.0000 0.0000 9.7494 0.0000
# 6 0.0000 0.0000 0.0000 0.0000 0.0000 7.8222
#
#
#
# Elastic Compliance Matrix: (Units=1/GPa)
#
#
# Indices 1 2 3 4 5 6 
#
# 1 0.011914 -0.003195 0.000623 0.000000 0.000000 0.000000
# 2 -0.003195 0.009851 -0.004781 0.000000 0.000000 0.000000
# 3 0.000623 -0.004781 0.012585 0.000000 0.000000 0.000000
# 4 0.000000 0.000000 0.000000 0.031608 0.000000 0.000000
# 5 0.000000 0.000000 0.000000 0.000000 0.102570 0.000000
# 6 0.000000 0.000000 0.000000 0.000000 0.000000 0.127842
#
#
# Mechanical properties :
#
#
# Convention : Reuss Voigt Hill
#
# Bulk Modulus (GPa) = 50.90604 57.06039 53.98321
# Shear Modulus (GPa) = 15.74196 25.50876 20.62536
#
# Velocity S-wave (km/s) = 2.82520 3.59637 3.23386
# Velocity P-wave (km/s) = 6.03768 6.79536 6.42769
#
# Compressibility (1/GPa) = 0.01964404
#
# Stress axis : x y z
#
# Youngs Moduli (GPa) = 83.93825 101.51439 79.45863
#
# Poissons Ratio (x) = 0.32429 -0.04952
# Poissons Ratio (y) = 0.26814 0.37992
# Poissons Ratio (z) = -0.05231 0.48538
#
# Static dielectric constant tensor:
#      x y z
#    x 3.456430 0.000000 0.000000 
#    y 0.000000 3.746430 0.000000 
#    z 0.000000 0.000000 3.717410 
# 
# 
# High freq. dielectric constant tensor:
#      x y z
#    x 1.733180 0.000000 0.000000 
#    y 0.000000 1.784350 0.000000 
#    z 0.000000 0.000000 1.762790 
# 
# From -- ./inp_files/12522.got.cif
#   From: 2010.03.12/outbox.cif.g09.slc.cpg/sg67_7_cif.got.tgz:12522.got - 2010.04.10 22:41:39.
