data_PCOD8278647
_publ_section_title
;
Structure prediction by ZEFSAII (Michael W. Deem and Ramdas Pophale) SiO2 
 PCOD8278647
Probable space group: C M M A
;
_chemical_formula_sum "Si O2"
_cell_formula_units_Z 80
_cell_length_a 30.730188
_cell_length_b 9.008358
_cell_length_c 15.584598
_cell_angle_alpha 90.000000
_cell_angle_beta 90.000000
_cell_angle_gamma 90.000000
_cell_volume 4314.261432
_symmetry_space_group_name_H-M "C M M A"
_symmetry_group_IT_number 67
_symmetry_cell_setting 'orthorhombic'
loop_
_space_group_symop_operation_xyz
x,y,z
-x,1/2-y,z
x,-y,-z
-x,1/2+y,-z
-x,-y,-z
x,1/2+y,-z
-x,y,z
x,1/2-y,z
1/2+x,1/2+y,z
1/2-x,-y,z
1/2+x,1/2-y,-z
1/2-x,y,-z
1/2-x,1/2-y,-z
1/2+x,y,-z
1/2-x,1/2+y,z
1/2+x,-y,z
loop_
_atom_site_type_symbol
_atom_site_label
_atom_site_fract_x
_atom_site_fract_y
_atom_site_fract_z
Si Si1 0.790814 0.914811 0.400753
Si Si2 0.378978 0.576007 0.417795
Si Si3 0.619033 0.925311 0.225245
Si Si4 0.450674 0.924296 0.086772
Si Si5 0.791967 0.914387 0.200762
O O1 0.797817 0.750000 0.441078
O O2 0.783828 0.895041 0.300546
O O3 0.750000 0.000000 0.441361
O O4 0.829320 0.026213 0.423994
O O5 0.403926 0.500000 0.500000
O O6 0.384535 0.750000 0.428978
O O7 0.394488 0.524513 0.322404
O O8 0.627275 0.750000 0.224217
O O9 0.579189 0.975927 0.165663
O O10 0.662698 0.998928 0.187339
O O11 0.500000 0.974489 0.107447
O O12 0.447554 0.750000 0.072816
O O13 0.433613 0.000000 0.000000
O O14 0.795273 0.750000 0.158366
O O15 0.750000 0.000000 0.160262
#
# Coordination Sequence:
#
# PCOD8278647 Si02
#       5
#    16  16  16  16  16
#     4   9  16  26  39  57  83 117 159 206 251 291
#     4  10  19  30  43  61  88 124 165 205 242 282
#     4   9  18  32  50  72 100 134 168 203 247 297
#     4   9  18  34  57  84 109 130 155 193 245 303
#     4   9  16  26  43  67  96 131 170 209 247 289
#
# _framework density 18.543151000000002
#
# number of rings (size 3 to 8) (size 9 to 14) (size 15 to 20)
#    0.000    2.800    0.000    1.800    0.000    6.800 
#    0.000    2.000    0.000    1.200    0.000    4.200 
#    0.000    0.000    0.000    0.000    0.000    0.600 
#
# Total GULP energy -495579.379901 kJ/mol
# GULP energy per Si atom -12389.484498 kJ/mol
# Density = 1.850095 g / cm^3
# Si number density = 18.543151 Si / 1000 Ang^3
#
#
#
# Elastic Constant Matrix: (Units=GPa)
#
#
# Indices 1 2 3 4 5 6 
#
# 1 87.0436 35.7738 65.0604 0.0000 0.0000 0.0000
# 2 35.7738 67.5605 34.5701 0.0000 0.0000 0.0000
# 3 65.0604 34.5701 112.7659 0.0000 0.0000 0.0000
# 4 0.0000 0.0000 0.0000 24.0059 0.0000 0.0000
# 5 0.0000 0.0000 0.0000 0.0000 212.1463 0.0000
# 6 0.0000 0.0000 0.0000 0.0000 0.0000 14.2166
#
#
#
# Elastic Compliance Matrix: (Units=1/GPa)
#
#
# Indices 1 2 3 4 5 6 
#
# 1 0.022169 -0.006160 -0.010902 0.000000 0.000000 0.000000
# 2 -0.006160 0.019267 -0.002353 0.000000 0.000000 0.000000
# 3 -0.010902 -0.002353 0.015879 0.000000 0.000000 0.000000
# 4 0.000000 0.000000 0.000000 0.041656 0.000000 0.000000
# 5 0.000000 0.000000 0.000000 0.000000 0.004714 0.000000
# 6 0.000000 0.000000 0.000000 0.000000 0.000000 0.070340
#
#
# Mechanical properties :
#
#
# Convention : Reuss Voigt Hill
#
# Bulk Modulus (GPa) = 54.09534 59.79761 56.94648
# Shear Modulus (GPa) = 22.82938 58.87148 40.85043
#
# Velocity S-wave (km/s) = 3.51258 5.64068 4.69870
# Velocity P-wave (km/s) = 6.75921 8.64528 7.75976
#
# Compressibility (1/GPa) = 0.01848588
#
# Stress axis : x y z
#
# Youngs Moduli (GPa) = 45.10854 51.90175 62.97654
#
# Poissons Ratio (x) = 0.31972 0.68656
# Poissons Ratio (y) = 0.27788 0.14815
# Poissons Ratio (z) = 0.49176 0.12210
#
# Static dielectric constant tensor:
#      x y z
#    x 3.207260 0.000000 0.000000 
#    y 0.000000 3.558290 0.000000 
#    z 0.000000 0.000000 3.682560 
# 
# 
# High freq. dielectric constant tensor:
#      x y z
#    x 1.681270 0.000000 0.000000 
#    y 0.000000 1.727130 0.000000 
#    z 0.000000 0.000000 1.709280 
# 
# From -- ./inp_files/32142.got.cif
#   From: 2010.03.12/outbox.cif.g09.slc.cpg/sg67_17_cif.got.tgz:32142.got - 2010.04.10 22:41:39.
