data_PCOD8278526
_publ_section_title
;
Structure prediction by ZEFSAII (Michael W. Deem and Ramdas Pophale) SiO2 
 PCOD8278526
Probable space group: C M M A
;
_chemical_formula_sum "Si O2"
_cell_formula_units_Z 80
_cell_length_a 15.494527
_cell_length_b 23.025765
_cell_length_c 10.033648
_cell_angle_alpha 90.000000
_cell_angle_beta 90.000000
_cell_angle_gamma 90.000000
_cell_volume 3579.738084
_symmetry_space_group_name_H-M "C M M A"
_symmetry_group_IT_number 67
_symmetry_cell_setting 'orthorhombic'
loop_
_space_group_symop_operation_xyz
x,y,z
-x,1/2-y,z
x,-y,-z
-x,1/2+y,-z
-x,-y,-z
x,1/2+y,-z
-x,y,z
x,1/2-y,z
1/2+x,1/2+y,z
1/2-x,-y,z
1/2+x,1/2-y,-z
1/2-x,y,-z
1/2-x,1/2-y,-z
1/2+x,y,-z
1/2-x,1/2+y,z
1/2+x,-y,z
loop_
_atom_site_type_symbol
_atom_site_label
_atom_site_fract_x
_atom_site_fract_y
_atom_site_fract_z
Si Si1 0.397999 0.063464 0.542356
Si Si2 0.663664 0.750000 0.089870
Si Si3 0.896976 0.130240 0.715152
Si Si4 0.597933 0.941403 0.953003
Si Si5 0.901529 0.863606 0.792549
Si Si6 0.403570 0.750000 0.812356
O O1 0.500000 0.055816 0.553957
O O2 0.370305 0.110307 0.431438
O O3 0.363138 0.091585 0.680893
O O4 0.359145 0.000000 0.500000
O O5 0.655107 0.805287 0.188990
O O6 0.750000 0.750000 0.000000
O O7 0.591074 0.750000 0.974054
O O8 0.857161 0.084291 0.820832
O O9 0.856562 0.193201 0.750747
O O10 0.000000 0.132215 0.734367
O O11 0.500000 0.958447 0.914968
O O12 0.601304 0.893612 0.065713
O O13 0.646683 0.000000 0.000000
O O14 0.000000 0.846805 0.753409
O O15 0.500000 0.750000 0.757174
#
# Coordination Sequence:
#
# PCOD8278526 Si02
#       6
#    16   8  16  16  16   8
#     4   9  17  29  48  83 122 144 168 221 285 346
#     4  12  24  37  54  78 110 148 196 250 283 321
#     4   9  16  26  45  73 106 139 171 214 268 324
#     4   9  15  24  44  76 106 135 176 221 270 330
#     4  10  19  33  55  81 114 151 184 227 290 348
#     4  10  18  33  54  77 102 134 181 227 278 332
#
# _framework density 22.348005000000001
#
# number of rings (size 3 to 8) (size 9 to 14) (size 15 to 20)
#    0.000    2.400    2.000    2.100    0.000    5.600 
#    0.000    3.000    0.000    3.000    0.000    1.400 
#    0.000    0.000    0.000    0.000    0.000    0.400 
#
# Total GULP energy -495601.011918 kJ/mol
# GULP energy per Si atom -12390.025298 kJ/mol
# Density = 2.229714 g / cm^3
# Si number density = 22.348005 Si / 1000 Ang^3
#
#
#
# Elastic Constant Matrix: (Units=GPa)
#
#
# Indices 1 2 3 4 5 6 
#
# 1 27.3976 17.5233 8.3110 0.0000 0.0000 0.0000
# 2 17.5233 150.9802 28.2852 0.0000 0.0000 0.0000
# 3 8.3110 28.2852 102.1779 0.0000 0.0000 0.0000
# 4 0.0000 0.0000 0.0000 48.7540 0.0000 0.0000
# 5 0.0000 0.0000 0.0000 0.0000 10.8355 0.0000
# 6 0.0000 0.0000 0.0000 0.0000 0.0000 -2.9095
#
#
#
# Elastic Compliance Matrix: (Units=1/GPa)
#
#
# Indices 1 2 3 4 5 6 
#
# 1 0.039836 -0.004236 -0.002068 0.000000 0.000000 0.000000
# 2 -0.004236 0.007436 -0.001714 0.000000 0.000000 0.000000
# 3 -0.002068 -0.001714 0.010429 0.000000 0.000000 0.000000
# 4 0.000000 0.000000 0.000000 0.020511 0.000000 0.000000
# 5 0.000000 0.000000 0.000000 0.000000 0.092289 0.000000
# 6 0.000000 0.000000 0.000000 0.000000 0.000000 -0.343700
#
#
# Mechanical properties :
#
#
# Convention : Reuss Voigt Hill
#
# Bulk Modulus (GPa) = 24.00012 43.19939 33.59976
# Shear Modulus (GPa) = -34.89829 26.43174 -4.23327
#
# Velocity S-wave (km/s) = -3.95598 3.44282 -1.37781
# Velocity P-wave (km/s) = 3.17864 5.93096 3.54066
#
# Compressibility (1/GPa) = 0.04166647
#
# Stress axis : x y z
#
# Youngs Moduli (GPa) = 25.10284 134.47830 95.88210
#
# Poissons Ratio (x) = 0.56967 0.19824
# Poissons Ratio (y) = 0.10634 0.16434
# Poissons Ratio (z) = 0.05190 0.23049
#
# Static dielectric constant tensor:
#      x y z
#    x 3.369170 0.000000 0.000000 
#    y 0.000000 4.431290 0.000000 
#    z 0.000000 0.000000 4.061410 
# 
# 
# High freq. dielectric constant tensor:
#      x y z
#    x 1.809290 0.000000 0.000000 
#    y 0.000000 1.897890 0.000000 
#    z 0.000000 0.000000 1.877650 
# 
# From -- ./inp_files/11135.got.cif
#   From: 2010.03.12/outbox.cif.g09.slc.cpg/sg67_6_cif.got.tgz:11135.got - 2010.04.10 22:41:39.
