data_PCOD8278834
_publ_section_title
;
Structure prediction by ZEFSAII (Michael W. Deem and Ramdas Pophale) SiO2 
 PCOD8278834
Probable space group: C M M A
;
_chemical_formula_sum "Si O2"
_cell_formula_units_Z 72
_cell_length_a 25.168616
_cell_length_b 8.786367
_cell_length_c 17.031910
_cell_angle_alpha 90.000000
_cell_angle_beta 90.000000
_cell_angle_gamma 90.000000
_cell_volume 3766.448450
_symmetry_space_group_name_H-M "C M M A"
_symmetry_group_IT_number 67
_symmetry_cell_setting 'orthorhombic'
loop_
_space_group_symop_operation_xyz
x,y,z
-x,1/2-y,z
x,-y,-z
-x,1/2+y,-z
-x,-y,-z
x,1/2+y,-z
-x,y,z
x,1/2-y,z
1/2+x,1/2+y,z
1/2-x,-y,z
1/2+x,1/2-y,-z
1/2-x,y,-z
1/2-x,1/2-y,-z
1/2+x,y,-z
1/2-x,1/2+y,z
1/2+x,-y,z
loop_
_atom_site_type_symbol
_atom_site_label
_atom_site_fract_x
_atom_site_fract_y
_atom_site_fract_z
Si Si1 0.803446 0.572118 0.246547
Si Si2 0.941057 0.924520 0.861784
Si Si3 0.417134 0.069973 0.300663
Si Si4 0.000000 0.430920 0.414337
Si Si5 0.340955 0.930015 0.922215
O O1 0.795377 0.750000 0.244647
O O2 0.750000 0.500000 0.282314
O O3 0.854059 0.529205 0.300635
O O4 0.811921 0.512854 0.157036
O O5 0.923223 0.750000 0.848511
O O6 0.000000 0.932507 0.898414
O O7 0.942611 0.011660 0.779298
O O8 0.901189 0.007929 0.920950
O O9 0.426142 0.250000 0.307199
O O10 0.446233 0.987319 0.372259
O O11 0.000000 0.500000 0.500000
O O12 0.000000 0.250000 0.417470
O O13 0.341543 0.750000 0.928085
O O14 0.312817 0.000000 0.000000
#
# Coordination Sequence:
#
# PCOD8278834 Si02
#       5
#    16  16  16   8  16
#     4   9  20  36  56  81 107 143 188 232 280 328
#     4  10  19  31  50  75 102 138 184 226 274 333
#     4  10  20  36  57  83 116 149 183 226 271 322
#     4  12  24  38  60  92 123 154 183 216 268 322
#     4  10  21  35  49  70 101 139 184 234 290 339
#
# _framework density 19.116150999999999
#
# number of rings (size 3 to 8) (size 9 to 14) (size 15 to 20)
#    0.000    2.000    1.111    4.333    0.000    7.556 
#    0.000    2.222    0.000    0.667    0.000    4.667 
#    0.000    0.000    0.000    0.000    0.000    0.000 
#
# Total GULP energy -446317.655796 kJ/mol
# GULP energy per Si atom -12397.712661 kJ/mol
# Density = 1.907264 g / cm^3
# Si number density = 19.116151 Si / 1000 Ang^3
#
#
#
# Elastic Constant Matrix: (Units=GPa)
#
#
# Indices 1 2 3 4 5 6 
#
# 1 122.9591 41.2626 32.5893 0.0000 0.0000 0.0000
# 2 41.2626 100.5135 34.6900 0.0000 0.0000 0.0000
# 3 32.5893 34.6900 91.7401 0.0000 0.0000 0.0000
# 4 0.0000 0.0000 0.0000 30.7824 0.0000 0.0000
# 5 0.0000 0.0000 0.0000 0.0000 16.3774 0.0000
# 6 0.0000 0.0000 0.0000 0.0000 0.0000 31.3212
#
#
#
# Elastic Compliance Matrix: (Units=1/GPa)
#
#
# Indices 1 2 3 4 5 6 
#
# 1 0.009823 -0.003253 -0.002260 0.000000 0.000000 0.000000
# 2 -0.003253 0.012519 -0.003578 0.000000 0.000000 0.000000
# 3 -0.002260 -0.003578 0.013056 0.000000 0.000000 0.000000
# 4 0.000000 0.000000 0.000000 0.032486 0.000000 0.000000
# 5 0.000000 0.000000 0.000000 0.000000 0.061060 0.000000
# 6 0.000000 0.000000 0.000000 0.000000 0.000000 0.031927
#
#
# Mechanical properties :
#
#
# Convention : Reuss Voigt Hill
#
# Bulk Modulus (GPa) = 58.08192 59.14406 58.61299
# Shear Modulus (GPa) = 27.05739 29.47426 28.26583
#
# Velocity S-wave (km/s) = 3.76629 3.93090 3.84948
# Velocity P-wave (km/s) = 7.02587 7.18395 7.10535
#
# Compressibility (1/GPa) = 0.01721706
#
# Stress axis : x y z
#
# Youngs Moduli (GPa) = 101.79955 79.87691 76.59213
#
# Poissons Ratio (x) = 0.25982 0.17307
# Poissons Ratio (y) = 0.33113 0.27408
# Poissons Ratio (z) = 0.23002 0.28584
#
# Static dielectric constant tensor:
#      x y z
#    x 3.536300 0.000000 0.000000 
#    y 0.000000 3.545500 0.000000 
#    z 0.000000 0.000000 3.239420 
# 
# 
# High freq. dielectric constant tensor:
#      x y z
#    x 1.747710 0.000000 0.000000 
#    y 0.000000 1.754990 0.000000 
#    z 0.000000 0.000000 1.706370 
# 
# From -- ./inp_files/25082.got.cif
#   From: 2010.03.12/outbox.cif.g09.slc.cpg/sg67_13_cif.got.tgz:25082.got - 2010.04.10 22:41:39.
