data_PCOD8278094
_publ_section_title
;
Structure prediction by ZEFSAII (Michael W. Deem and Ramdas Pophale) SiO2 
 PCOD8278094
Probable space group: C M M A
;
_chemical_formula_sum "Si O2"
_cell_formula_units_Z 72
_cell_length_a 8.680594
_cell_length_b 15.890429
_cell_length_c 24.884116
_cell_angle_alpha 90.000000
_cell_angle_beta 90.000000
_cell_angle_gamma 90.000000
_cell_volume 3432.474217
_symmetry_space_group_name_H-M "C M M A"
_symmetry_group_IT_number 67
_symmetry_cell_setting 'orthorhombic'
loop_
_space_group_symop_operation_xyz
x,y,z
-x,1/2-y,z
x,-y,-z
-x,1/2+y,-z
-x,-y,-z
x,1/2+y,-z
-x,y,z
x,1/2-y,z
1/2+x,1/2+y,z
1/2-x,-y,z
1/2+x,1/2-y,-z
1/2-x,y,-z
1/2-x,1/2-y,-z
1/2+x,y,-z
1/2-x,1/2+y,z
1/2+x,-y,z
loop_
_atom_site_type_symbol
_atom_site_label
_atom_site_fract_x
_atom_site_fract_y
_atom_site_fract_z
Si Si1 0.826899 0.154252 0.763923
Si Si2 0.180177 0.091393 0.339221
Si Si3 0.682148 0.912212 0.876311
Si Si4 0.316614 0.750000 0.940969
Si Si5 0.182702 0.593689 0.446498
O O1 0.827303 0.250000 0.783936
O O2 0.713241 0.145832 0.713523
O O3 0.767265 0.099283 0.814092
O O4 0.000000 0.126736 0.746871
O O5 0.258766 0.136773 0.391264
O O6 0.000000 0.084594 0.350049
O O7 0.250000 0.000000 0.328905
O O8 0.500000 0.915419 0.880720
O O9 0.745579 0.833987 0.911184
O O10 0.750000 0.000000 0.898333
O O11 0.500000 0.750000 0.942284
O O12 0.250000 0.750000 0.000000
O O13 0.250000 0.500000 0.444903
O O14 0.250000 0.639608 0.500000
O O15 0.000000 0.593644 0.449155
#
# Coordination Sequence:
#
# PCOD8278094 Si02
#       5
#    16  16  16   8  16
#     4  10  20  37  59  81 111 151 190 236 297 359
#     4  11  21  33  50  77 110 143 185 236 288 350
#     4  10  21  39  63  90 122 161 203 249 300 358
#     4  10  22  42  64  90 126 166 205 248 299 352
#     4  10  17  28  46  70 101 138 181 231 289 350
#
# _framework density 20.976122
#
# number of rings (size 3 to 8) (size 9 to 14) (size 15 to 20)
#    0.000    1.778    1.111    6.667    0.000    4.444 
#    0.000    2.222    0.000    0.667    0.000    0.000 
#    0.000    0.000    0.000    0.000    0.000    0.000 
#
# Total GULP energy -446345.590319 kJ/mol
# GULP energy per Si atom -12398.488620 kJ/mol
# Density = 2.092838 g / cm^3
# Si number density = 20.976122 Si / 1000 Ang^3
#
#
#
# Elastic Constant Matrix: (Units=GPa)
#
#
# Indices 1 2 3 4 5 6 
#
# 1 122.5499 24.3762 50.4614 0.0000 0.0000 0.0000
# 2 24.3762 101.8800 54.8704 0.0000 0.0000 0.0000
# 3 50.4614 54.8704 156.1694 0.0000 0.0000 0.0000
# 4 0.0000 0.0000 0.0000 20.4678 0.0000 0.0000
# 5 0.0000 0.0000 0.0000 0.0000 36.6435 0.0000
# 6 0.0000 0.0000 0.0000 0.0000 0.0000 23.8229
#
#
#
# Elastic Compliance Matrix: (Units=1/GPa)
#
#
# Indices 1 2 3 4 5 6 
#
# 1 0.009460 -0.000761 -0.002789 0.000000 0.000000 0.000000
# 2 -0.000761 0.012168 -0.004029 0.000000 0.000000 0.000000
# 3 -0.002789 -0.004029 0.008720 0.000000 0.000000 0.000000
# 4 0.000000 0.000000 0.000000 0.048857 0.000000 0.000000
# 5 0.000000 0.000000 0.000000 0.000000 0.027290 0.000000
# 6 0.000000 0.000000 0.000000 0.000000 0.000000 0.041976
#
#
# Mechanical properties :
#
#
# Convention : Reuss Voigt Hill
#
# Bulk Modulus (GPa) = 65.83912 71.11280 68.47596
# Shear Modulus (GPa) = 29.63962 32.91294 31.27628
#
# Velocity S-wave (km/s) = 3.76309 3.96544 3.86559
# Velocity P-wave (km/s) = 7.09485 7.41227 7.25530
#
# Compressibility (1/GPa) = 0.01518854
#
# Stress axis : x y z
#
# Youngs Moduli (GPa) = 105.70998 82.18538 114.67621
#
# Poissons Ratio (x) = 0.06256 0.31986
# Poissons Ratio (y) = 0.08047 0.46205
# Poissons Ratio (z) = 0.29485 0.33114
#
# Static dielectric constant tensor:
#      x y z
#    x 3.654990 0.000000 0.000000 
#    y 0.000000 3.674570 0.000000 
#    z 0.000000 0.000000 4.313660 
# 
# 
# High freq. dielectric constant tensor:
#      x y z
#    x 1.814200 0.000000 0.000000 
#    y 0.000000 1.795020 0.000000 
#    z 0.000000 0.000000 1.836120 
# 
# From -- ./inp_files/40537.got.cif
#   From: 2010.03.12/outbox.cif.g09.slc.cpg/sg67_21_cif.got.tgz:40537.got - 2010.04.10 22:41:39.
