data_PCOD8278332
_publ_section_title
;
Structure prediction by ZEFSAII (Michael W. Deem and Ramdas Pophale) SiO2 
 PCOD8278332
Probable space group: C M M A
;
_chemical_formula_sum "Si O2"
_cell_formula_units_Z 96
_cell_length_a 9.097735
_cell_length_b 25.884216
_cell_length_c 23.329460
_cell_angle_alpha 90.000000
_cell_angle_beta 90.000000
_cell_angle_gamma 90.000000
_cell_volume 5493.801761
_symmetry_space_group_name_H-M "C M M A"
_symmetry_group_IT_number 67
_symmetry_cell_setting 'orthorhombic'
loop_
_space_group_symop_operation_xyz
x,y,z
-x,1/2-y,z
x,-y,-z
-x,1/2+y,-z
-x,-y,-z
x,1/2+y,-z
-x,y,z
x,1/2-y,z
1/2+x,1/2+y,z
1/2-x,-y,z
1/2+x,1/2-y,-z
1/2-x,y,-z
1/2-x,1/2-y,-z
1/2+x,y,-z
1/2-x,1/2+y,z
1/2+x,-y,z
loop_
_atom_site_type_symbol
_atom_site_label
_atom_site_fract_x
_atom_site_fract_y
_atom_site_fract_z
Si Si1 0.825330 0.750000 0.128824
Si Si2 0.174003 0.153245 0.668536
Si Si3 0.827473 0.051478 0.866470
Si Si4 0.327999 0.551309 0.735626
Si Si5 0.325681 0.250000 0.257238
Si Si6 0.825767 0.350253 0.939107
Si Si7 0.327918 0.190035 0.558423
O O1 0.759150 0.750000 0.193107
O O2 0.768846 0.699517 0.095613
O O3 0.000000 0.750000 0.132319
O O4 0.220791 0.099628 0.697461
O O5 0.229510 0.199213 0.709674
O O6 0.257978 0.156047 0.608580
O O7 0.000000 0.157147 0.657886
O O8 0.780189 0.062532 0.801011
O O9 0.774330 0.099435 0.904356
O O10 0.000000 0.043151 0.871665
O O11 0.750000 0.000000 0.890128
O O12 0.500000 0.541948 0.731444
O O13 0.250000 0.500000 0.711763
O O14 0.500000 0.250000 0.253497
O O15 0.000000 0.348726 0.947193
O O16 0.750000 0.350925 0.000000
O O17 0.500000 0.178546 0.553322
O O18 0.295783 0.250000 0.571330
O O19 0.250000 0.172764 0.500000
#
# Coordination Sequence:
#
# PCOD8278332 Si02
#       7
#     8  16  16  16   8  16  16
#     4   9  17  31  50  71  95 126 161 199 242 291
#     4  10  18  30  51  78 104 130 165 206 247 295
#     4   9  18  33  51  72  97 125 160 203 248 295
#     4   9  18  32  51  74 100 131 167 204 246 297
#     4   9  16  27  49  77 100 124 158 201 248 293
#     4  10  20  33  50  70  94 124 162 203 244 294
#     4  10  20  33  50  73 105 141 173 205 243 289
#
# _framework density 17.474238
#
# number of rings (size 3 to 8) (size 9 to 14) (size 15 to 20)
#    0.000    2.500    0.833    1.750    0.000    6.333 
#    0.000    1.667    0.000    4.500    0.000    3.500 
#    0.000    0.000    0.000    0.000    0.000    0.000 
#
# Total GULP energy -595301.529350 kJ/mol
# GULP energy per Si atom -12402.115195 kJ/mol
# Density = 1.743447 g / cm^3
# Si number density = 17.474238 Si / 1000 Ang^3
#
#
#
# Elastic Constant Matrix: (Units=GPa)
#
#
# Indices 1 2 3 4 5 6 
#
# 1 36.7830 41.5760 44.8147 0.0000 0.0000 0.0000
# 2 41.5760 159.9175 92.1293 0.0000 0.0000 0.0000
# 3 44.8147 92.1293 147.8303 0.0000 0.0000 0.0000
# 4 0.0000 0.0000 0.0000 20.2655 0.0000 0.0000
# 5 0.0000 0.0000 0.0000 0.0000 30.4387 0.0000
# 6 0.0000 0.0000 0.0000 0.0000 0.0000 25.4732
#
#
#
# Elastic Compliance Matrix: (Units=1/GPa)
#
#
# Indices 1 2 3 4 5 6 
#
# 1 0.046772 -0.006227 -0.010298 0.000000 0.000000 0.000000
# 2 -0.006227 0.010585 -0.004709 0.000000 0.000000 0.000000
# 3 -0.010298 -0.004709 0.012821 0.000000 0.000000 0.000000
# 4 0.000000 0.000000 0.000000 0.049345 0.000000 0.000000
# 5 0.000000 0.000000 0.000000 0.000000 0.032853 0.000000
# 6 0.000000 0.000000 0.000000 0.000000 0.000000 0.039257
#
#
# Mechanical properties :
#
#
# Convention : Reuss Voigt Hill
#
# Bulk Modulus (GPa) = 36.08862 77.95232 57.02047
# Shear Modulus (GPa) = 20.54762 26.30288 23.42525
#
# Velocity S-wave (km/s) = 3.43283 3.88395 3.66534
# Velocity P-wave (km/s) = 6.03405 8.05109 7.11442
#
# Compressibility (1/GPa) = 0.02770957
#
# Stress axis : x y z
#
# Youngs Moduli (GPa) = 21.38042 94.47299 77.99707
#
# Poissons Ratio (x) = 0.58830 0.80321
# Poissons Ratio (y) = 0.13314 0.36728
# Poissons Ratio (z) = 0.22018 0.44487
#
# Static dielectric constant tensor:
#      x y z
#    x 3.007700 0.000000 0.000000 
#    y 0.000000 3.377700 0.000000 
#    z 0.000000 0.000000 3.281000 
# 
# 
# High freq. dielectric constant tensor:
#      x y z
#    x 1.653390 0.000000 0.000000 
#    y 0.000000 1.675060 0.000000 
#    z 0.000000 0.000000 1.677880 
# 
# From -- ./inp_files/40803.got.cif
#   From: 2010.03.12/outbox.cif.g09.slc.cpg/sg67_21_cif.got.tgz:40803.got - 2010.04.10 22:41:39.
