data_PCOD8278835
_publ_section_title
;
Structure prediction by ZEFSAII (Michael W. Deem and Ramdas Pophale) SiO2 
 PCOD8278835
Probable space group: C M M A
;
_chemical_formula_sum "Si O2"
_cell_formula_units_Z 72
_cell_length_a 25.184995
_cell_length_b 8.456712
_cell_length_c 16.954111
_cell_angle_alpha 90.000000
_cell_angle_beta 90.000000
_cell_angle_gamma 90.000000
_cell_volume 3610.924698
_symmetry_space_group_name_H-M "C M M A"
_symmetry_group_IT_number 67
_symmetry_cell_setting 'orthorhombic'
loop_
_space_group_symop_operation_xyz
x,y,z
-x,1/2-y,z
x,-y,-z
-x,1/2+y,-z
-x,-y,-z
x,1/2+y,-z
-x,y,z
x,1/2-y,z
1/2+x,1/2+y,z
1/2-x,-y,z
1/2+x,1/2-y,-z
1/2-x,y,-z
1/2-x,1/2-y,-z
1/2+x,y,-z
1/2-x,1/2+y,z
1/2+x,-y,z
loop_
_atom_site_type_symbol
_atom_site_label
_atom_site_fract_x
_atom_site_fract_y
_atom_site_fract_z
Si Si1 0.440915 0.567463 0.375221
Si Si2 0.835282 0.067054 0.581153
Si Si3 0.000000 0.434970 0.912997
Si Si4 0.694149 0.435289 0.747332
Si Si5 0.414146 0.563874 0.789663
O O1 0.500000 0.531763 0.407402
O O2 0.425132 0.750000 0.388358
O O3 0.399090 0.457226 0.421060
O O4 0.439288 0.531377 0.282526
O O5 0.821074 0.250000 0.590825
O O6 0.810490 0.000000 0.500000
O O7 0.810886 0.972158 0.654292
O O8 0.053346 0.489568 0.867151
O O9 0.000000 0.250000 0.919689
O O10 0.000000 0.500000 0.000000
O O11 0.690496 0.250000 0.761126
O O12 0.750000 0.500000 0.779420
O O13 0.647936 0.519803 0.797969
O O14 0.420188 0.750000 0.773270
#
# Coordination Sequence:
#
# PCOD8278835 Si02
#       5
#    16  16   8  16  16
#     4  10  19  31  50  75 103 141 185 228 276 333
#     4  11  22  36  52  73 104 141 183 235 287 337
#     4  10  22  36  58  90 125 156 185 218 268 326
#     4  11  22  38  59  84 109 144 189 234 280 332
#     4  10  19  35  56  83 115 149 185 228 273 324
#
# _framework density 19.939491
#
# number of rings (size 3 to 8) (size 9 to 14) (size 15 to 20)
#    0.000    1.556    1.111    8.000    0.000    4.000 
#    0.000    2.222    0.000    0.667    0.000    4.667 
#    0.000    0.000    0.000    0.000    0.000    0.000 
#
# Total GULP energy -446420.391229 kJ/mol
# GULP energy per Si atom -12400.566423 kJ/mol
# Density = 1.989411 g / cm^3
# Si number density = 19.939491 Si / 1000 Ang^3
#
#
#
# Elastic Constant Matrix: (Units=GPa)
#
#
# Indices 1 2 3 4 5 6 
#
# 1 120.5818 13.8644 25.4790 0.0000 0.0000 0.0000
# 2 13.8644 70.6199 5.9402 0.0000 0.0000 0.0000
# 3 25.4790 5.9402 91.2103 0.0000 0.0000 0.0000
# 4 0.0000 0.0000 0.0000 27.6320 0.0000 0.0000
# 5 0.0000 0.0000 0.0000 0.0000 8.8699 0.0000
# 6 0.0000 0.0000 0.0000 0.0000 0.0000 30.0862
#
#
#
# Elastic Compliance Matrix: (Units=1/GPa)
#
#
# Indices 1 2 3 4 5 6 
#
# 1 0.008981 -0.001561 -0.002407 0.000000 0.000000 0.000000
# 2 -0.001561 0.014510 -0.000509 0.000000 0.000000 0.000000
# 3 -0.002407 -0.000509 0.011669 0.000000 0.000000 0.000000
# 4 0.000000 0.000000 0.000000 0.036190 0.000000 0.000000
# 5 0.000000 0.000000 0.000000 0.000000 0.112740 0.000000
# 6 0.000000 0.000000 0.000000 0.000000 0.000000 0.033238
#
#
# Mechanical properties :
#
#
# Convention : Reuss Voigt Hill
#
# Bulk Modulus (GPa) = 38.15897 41.44216 39.80056
# Shear Modulus (GPa) = 21.27504 29.12620 25.20062
#
# Velocity S-wave (km/s) = 3.27001 3.82610 3.55893
# Velocity P-wave (km/s) = 5.78241 6.35199 6.07388
#
# Compressibility (1/GPa) = 0.02620616
#
# Stress axis : x y z
#
# Youngs Moduli (GPa) = 111.34346 68.92021 85.69528
#
# Poissons Ratio (x) = 0.10757 0.20629
# Poissons Ratio (y) = 0.17378 0.04362
# Poissons Ratio (z) = 0.26803 0.03508
#
# Static dielectric constant tensor:
#      x y z
#    x 3.968490 0.000000 0.000000 
#    y 0.000000 3.646840 0.000000 
#    z 0.000000 0.000000 3.050530 
# 
# 
# High freq. dielectric constant tensor:
#      x y z
#    x 1.790170 0.000000 0.000000 
#    y 0.000000 1.788310 0.000000 
#    z 0.000000 0.000000 1.732970 
# 
# From -- ./inp_files/25295.got.cif
#   From: 2010.03.12/outbox.cif.g09.slc.cpg/sg67_13_cif.got.tgz:25295.got - 2010.04.10 22:41:39.
