data_PCOD8278180
_publ_section_title
;
Structure prediction by ZEFSAII (Michael W. Deem and Ramdas Pophale) SiO2 
 PCOD8278180
Probable space group: C M M A
;
_chemical_formula_sum "Si O2"
_cell_formula_units_Z 88
_cell_length_a 9.018902
_cell_length_b 30.635162
_cell_length_c 17.741792
_cell_angle_alpha 90.000000
_cell_angle_beta 90.000000
_cell_angle_gamma 90.000000
_cell_volume 4901.977714
_symmetry_space_group_name_H-M "C M M A"
_symmetry_group_IT_number 67
_symmetry_cell_setting 'orthorhombic'
loop_
_space_group_symop_operation_xyz
x,y,z
-x,1/2-y,z
x,-y,-z
-x,1/2+y,-z
-x,-y,-z
x,1/2+y,-z
-x,y,z
x,1/2-y,z
1/2+x,1/2+y,z
1/2-x,-y,z
1/2+x,1/2-y,-z
1/2-x,y,-z
1/2-x,1/2-y,-z
1/2+x,y,-z
1/2-x,1/2+y,z
1/2+x,-y,z
loop_
_atom_site_type_symbol
_atom_site_label
_atom_site_fract_x
_atom_site_fract_y
_atom_site_fract_z
Si Si1 0.174545 0.926230 0.423807
Si Si2 0.176297 0.250000 0.578657
Si Si3 0.674461 0.200671 0.919770
Si Si4 0.674193 0.543512 0.740912
Si Si5 0.174943 0.134978 0.805941
Si Si6 0.675635 0.661538 0.644562
O O1 0.250000 0.945415 0.500000
O O2 0.227836 0.949144 0.345976
O O3 0.225359 0.875726 0.414392
O O4 0.000000 0.931584 0.434328
O O5 0.250000 0.250000 0.500000
O O6 0.238935 0.207909 0.620664
O O7 0.000000 0.250000 0.572198
O O8 0.500000 0.193678 0.928674
O O9 0.708007 0.250000 0.887983
O O10 0.737625 0.161273 0.869512
O O11 0.750000 0.195520 0.000000
O O12 0.500000 0.536930 0.739564
O O13 0.750000 0.500000 0.773198
O O14 0.713113 0.583177 0.798650
O O15 0.235692 0.154373 0.728003
O O16 0.000000 0.142025 0.818763
O O17 0.500000 0.660181 0.648662
#
# Coordination Sequence:
#
# PCOD8278180 Si02
#       6
#    16   8  16  16  16  16
#     4   9  17  30  45  64  92 125 165 214 262 310
#     4  10  18  28  42  62  87 122 165 206 249 296
#     4  10  21  36  55  83 115 143 170 202 242 294
#     4   9  19  34  51  73 101 132 172 217 263 315
#     4   9  18  34  55  77 101 134 173 212 253 303
#     4   8  16  29  45  65  90 124 167 207 249 303
#
# _framework density 17.951938999999999
#
# number of rings (size 3 to 8) (size 9 to 14) (size 15 to 20)
#    0.000    2.909    0.000    3.273    1.273    2.909 
#    0.000    5.455    0.000    0.545    0.000    3.818 
#    0.000    0.000    0.000    0.000    0.000    0.000 
#
# Total GULP energy -545111.076563 kJ/mol
# GULP energy per Si atom -12388.888104 kJ/mol
# Density = 1.791108 g / cm^3
# Si number density = 17.951939 Si / 1000 Ang^3
#
#
#
# Elastic Constant Matrix: (Units=GPa)
#
#
# Indices 1 2 3 4 5 6 
#
# 1 51.4408 46.7000 36.5026 0.0000 0.0000 0.0000
# 2 46.7000 145.0159 52.3141 0.0000 0.0000 0.0000
# 3 36.5026 52.3141 83.3524 0.0000 0.0000 0.0000
# 4 0.0000 0.0000 0.0000 19.4121 0.0000 0.0000
# 5 0.0000 0.0000 0.0000 0.0000 30.0341 0.0000
# 6 0.0000 0.0000 0.0000 0.0000 0.0000 26.9559
#
#
#
# Elastic Compliance Matrix: (Units=1/GPa)
#
#
# Indices 1 2 3 4 5 6 
#
# 1 0.032884 -0.006974 -0.010024 0.000000 0.000000 0.000000
# 2 -0.006974 0.010393 -0.003469 0.000000 0.000000 0.000000
# 3 -0.010024 -0.003469 0.018564 0.000000 0.000000 0.000000
# 4 0.000000 0.000000 0.000000 0.051514 0.000000 0.000000
# 5 0.000000 0.000000 0.000000 0.000000 0.033296 0.000000
# 6 0.000000 0.000000 0.000000 0.000000 0.000000 0.037098
#
#
# Mechanical properties :
#
#
# Convention : Reuss Voigt Hill
#
# Bulk Modulus (GPa) = 47.82873 61.20474 54.51673
# Shear Modulus (GPa) = 21.58420 24.89989 23.24205
#
# Velocity S-wave (km/s) = 3.47123 3.72833 3.60207
# Velocity P-wave (km/s) = 6.53960 7.25958 6.90898
#
# Compressibility (1/GPa) = 0.02090794
#
# Stress axis : x y z
#
# Youngs Moduli (GPa) = 30.41010 96.21940 53.86675
#
# Poissons Ratio (x) = 0.67099 0.53997
# Poissons Ratio (y) = 0.21207 0.18686
# Poissons Ratio (z) = 0.30483 0.33378
#
# Static dielectric constant tensor:
#      x y z
#    x 3.013740 0.000000 0.000000 
#    y 0.000000 3.632620 0.000000 
#    z 0.000000 0.000000 3.167850 
# 
# 
# High freq. dielectric constant tensor:
#      x y z
#    x 1.672770 0.000000 0.000000 
#    y 0.000000 1.705020 0.000000 
#    z 0.000000 0.000000 1.676200 
# 
# From -- ./inp_files/32428.got.cif
#   From: 2010.03.12/outbox.cif.g09.slc.cpg/sg67_17_cif.got.tgz:32428.got - 2010.04.10 22:41:39.
