data_PCOD8278044
_publ_section_title
;
Structure prediction by ZEFSAII (Michael W. Deem and Ramdas Pophale) SiO2 
 PCOD8278044
Probable space group: C M M A
;
_chemical_formula_sum "Si O2"
_cell_formula_units_Z 88
_cell_length_a 15.876906
_cell_length_b 8.676371
_cell_length_c 30.533385
_cell_angle_alpha 90.000000
_cell_angle_beta 90.000000
_cell_angle_gamma 90.000000
_cell_volume 4206.093682
_symmetry_space_group_name_H-M "C M M A"
_symmetry_group_IT_number 67
_symmetry_cell_setting 'orthorhombic'
loop_
_space_group_symop_operation_xyz
x,y,z
-x,1/2-y,z
x,-y,-z
-x,1/2+y,-z
-x,-y,-z
x,1/2+y,-z
-x,y,z
x,1/2-y,z
1/2+x,1/2+y,z
1/2-x,-y,z
1/2+x,1/2-y,-z
1/2-x,y,-z
1/2-x,1/2-y,-z
1/2+x,y,-z
1/2-x,1/2+y,z
1/2+x,-y,z
loop_
_atom_site_type_symbol
_atom_site_label
_atom_site_fract_x
_atom_site_fract_y
_atom_site_fract_z
Si Si1 0.660858 0.067008 0.902203
Si Si2 0.598511 0.920223 0.723182
Si Si3 0.094568 0.069380 0.190109
Si Si4 0.655987 0.566707 0.456286
Si Si5 0.842492 0.066076 0.630892
Si Si6 0.500000 0.433631 0.048249
O O1 0.658665 0.250000 0.909073
O O2 0.650719 0.019361 0.851247
O O3 0.750000 0.000000 0.919115
O O4 0.584251 0.992990 0.928512
O O5 0.500000 0.915348 0.730116
O O6 0.638466 0.750000 0.723487
O O7 0.616418 0.996456 0.675924
O O8 0.637498 0.009863 0.764760
O O9 0.089138 0.250000 0.193775
O O10 0.000000 0.002198 0.183495
O O11 0.610126 0.500000 0.500000
O O12 0.656349 0.750000 0.457444
O O13 0.750000 0.500000 0.455744
O O14 0.610139 0.505428 0.411868
O O15 0.845476 0.250000 0.627542
O O16 0.750000 0.000000 0.631072
O O17 0.500000 0.250000 0.047672
O O18 0.500000 0.500000 0.000000
#
# Coordination Sequence:
#
# PCOD8278044 Si02
#       6
#    16  16  16  16  16   8
#     4  11  23  42  66  98 135 171 217 268 319 377
#     4   9  19  34  52  75 104 142 186 228 273 333
#     4   9  18  35  58  82 114 155 196 244 297 351
#     4  10  17  27  44  66  92 122 161 207 261 322
#     4  10  19  31  47  69  99 130 166 215 269 322
#     4  12  26  46  72 100 132 176 218 266 325 378
#
# _framework density 20.922025000000001
#
# number of rings (size 3 to 8) (size 9 to 14) (size 15 to 20)
#    0.000    2.000    0.909    5.182    0.000    4.000 
#    0.000    5.455    0.000    0.545    0.000    0.000 
#    0.000    0.000    0.000    0.000    0.000    0.000 
#
# Total GULP energy -545269.447068 kJ/mol
# GULP energy per Si atom -12392.487433 kJ/mol
# Density = 2.087441 g / cm^3
# Si number density = 20.922025 Si / 1000 Ang^3
#
#
#
# Elastic Constant Matrix: (Units=GPa)
#
#
# Indices 1 2 3 4 5 6 
#
# 1 80.2322 38.2071 52.7454 0.0000 0.0000 0.0000
# 2 38.2071 121.1329 77.0780 0.0000 0.0000 0.0000
# 3 52.7454 77.0780 198.4346 0.0000 0.0000 0.0000
# 4 0.0000 0.0000 0.0000 40.5847 0.0000 0.0000
# 5 0.0000 0.0000 0.0000 0.0000 51.9032 0.0000
# 6 0.0000 0.0000 0.0000 0.0000 0.0000 20.6032
#
#
#
# Elastic Compliance Matrix: (Units=1/GPa)
#
#
# Indices 1 2 3 4 5 6 
#
# 1 0.015931 -0.003096 -0.003032 0.000000 0.000000 0.000000
# 2 -0.003096 0.011567 -0.003670 0.000000 0.000000 0.000000
# 3 -0.003032 -0.003670 0.007271 0.000000 0.000000 0.000000
# 4 0.000000 0.000000 0.000000 0.024640 0.000000 0.000000
# 5 0.000000 0.000000 0.000000 0.000000 0.019267 0.000000
# 6 0.000000 0.000000 0.000000 0.000000 0.000000 0.048536
#
#
# Mechanical properties :
#
#
# Convention : Reuss Voigt Hill
#
# Bulk Modulus (GPa) = 65.90411 81.76232 73.83321
# Shear Modulus (GPa) = 32.92374 38.06951 35.49662
#
# Velocity S-wave (km/s) = 3.97122 4.27029 4.12347
# Velocity P-wave (km/s) = 7.25229 7.96732 7.61820
#
# Compressibility (1/GPa) = 0.01517356
#
# Stress axis : x y z
#
# Youngs Moduli (GPa) = 62.76922 86.45157 137.53120
#
# Poissons Ratio (x) = 0.26761 0.41703
# Poissons Ratio (y) = 0.19430 0.50477
# Poissons Ratio (z) = 0.19033 0.31730
#
# Static dielectric constant tensor:
#      x y z
#    x 3.490730 0.000000 0.000000 
#    y 0.000000 3.858650 0.000000 
#    z 0.000000 0.000000 4.697270 
# 
# 
# High freq. dielectric constant tensor:
#      x y z
#    x 1.782620 0.000000 0.000000 
#    y 0.000000 1.818160 0.000000 
#    z 0.000000 0.000000 1.846270 
# 
# From -- ./inp_files/45760.got.cif
#   From: 2010.03.12/outbox.cif.g09.slc.cpg/sg67_23_cif.got.tgz:45760.got - 2010.04.10 22:41:39.
