data_PCOD8278821
_publ_section_title
;
Structure prediction by ZEFSAII (Michael W. Deem and Ramdas Pophale) SiO2 
 PCOD8278821
Probable space group: C M M A
;
_chemical_formula_sum "Si O2"
_cell_formula_units_Z 80
_cell_length_a 20.840072
_cell_length_b 17.025288
_cell_length_c 12.111219
_cell_angle_alpha 90.000000
_cell_angle_beta 90.000000
_cell_angle_gamma 90.000000
_cell_volume 4297.160149
_symmetry_space_group_name_H-M "C M M A"
_symmetry_group_IT_number 67
_symmetry_cell_setting 'orthorhombic'
loop_
_space_group_symop_operation_xyz
x,y,z
-x,1/2-y,z
x,-y,-z
-x,1/2+y,-z
-x,-y,-z
x,1/2+y,-z
-x,y,z
x,1/2-y,z
1/2+x,1/2+y,z
1/2-x,-y,z
1/2+x,1/2-y,-z
1/2-x,y,-z
1/2-x,1/2-y,-z
1/2+x,y,-z
1/2-x,1/2+y,z
1/2+x,-y,z
loop_
_atom_site_type_symbol
_atom_site_label
_atom_site_fract_x
_atom_site_fract_y
_atom_site_fract_z
Si Si1 0.841669 0.577402 0.443253
Si Si2 0.234483 0.839161 0.254903
Si Si3 0.927560 0.995670 0.723785
Si Si4 0.813543 0.034496 0.877755
Si Si5 0.373023 0.338280 0.659346
O O1 0.811410 0.500000 0.500000
O O2 0.790906 0.610905 0.357796
O O3 0.906506 0.548806 0.380398
O O4 0.855481 0.645333 0.531833
O O5 0.211216 0.750000 0.265094
O O6 0.202075 0.872504 0.140582
O O7 0.311572 0.845194 0.259253
O O8 0.924874 0.902672 0.696946
O O9 0.000000 0.017852 0.756461
O O10 0.881370 0.012268 0.826521
O O11 0.750000 0.000000 0.814885
O O12 0.814145 0.000000 0.000000
O O13 0.401555 0.250000 0.667264
#
# Coordination Sequence:
#
# PCOD8278821 Si02
#       5
#    16  16  16  16  16
#     4   9  19  30  51  77 110 148 187 219 261 317
#     4  10  19  33  54  84 115 142 178 232 286 327
#     4  10  21  36  53  77 110 145 182 223 269 325
#     4  10  20  38  61  82 103 135 184 235 282 336
#     4  10  19  31  49  78 112 146 181 218 267 320
#
# _framework density 18.616947
#
# number of rings (size 3 to 8) (size 9 to 14) (size 15 to 20)
#    0.000    2.200    2.000    1.200    0.000    8.400 
#    0.000    3.000    0.000   14.400    0.000    0.000 
#    0.000    0.000    0.000    0.000    0.000    0.000 
#
# Total GULP energy -495548.328192 kJ/mol
# GULP energy per Si atom -12388.708205 kJ/mol
# Density = 1.857457 g / cm^3
# Si number density = 18.616947 Si / 1000 Ang^3
#
#
#
# Elastic Constant Matrix: (Units=GPa)
#
#
# Indices 1 2 3 4 5 6 
#
# 1 113.2307 32.3728 29.2715 0.0000 0.0000 0.0000
# 2 32.3728 100.2591 31.7711 0.0000 0.0000 0.0000
# 3 29.2715 31.7711 90.4638 0.0000 0.0000 0.0000
# 4 0.0000 0.0000 0.0000 24.6301 0.0000 0.0000
# 5 0.0000 0.0000 0.0000 0.0000 16.5128 0.0000
# 6 0.0000 0.0000 0.0000 0.0000 0.0000 17.2454
#
#
#
# Elastic Compliance Matrix: (Units=1/GPa)
#
#
# Indices 1 2 3 4 5 6 
#
# 1 0.010175 -0.002523 -0.002406 0.000000 0.000000 0.000000
# 2 -0.002523 0.011849 -0.003345 0.000000 0.000000 0.000000
# 3 -0.002406 -0.003345 0.013008 0.000000 0.000000 0.000000
# 4 0.000000 0.000000 0.000000 0.040601 0.000000 0.000000
# 5 0.000000 0.000000 0.000000 0.000000 0.060559 0.000000
# 6 0.000000 0.000000 0.000000 0.000000 0.000000 0.057987
#
#
# Mechanical properties :
#
#
# Convention : Reuss Voigt Hill
#
# Bulk Modulus (GPa) = 54.10399 54.53158 54.31779
# Shear Modulus (GPa) = 23.05349 25.71352 24.38351
#
# Velocity S-wave (km/s) = 3.52278 3.72047 3.62297
# Velocity P-wave (km/s) = 6.75806 6.91453 6.83674
#
# Compressibility (1/GPa) = 0.01848293
#
# Stress axis : x y z
#
# Youngs Moduli (GPa) = 98.28138 84.39707 76.87862
#
# Poissons Ratio (x) = 0.21292 0.18499
# Poissons Ratio (y) = 0.24795 0.25716
# Poissons Ratio (z) = 0.23649 0.28231
#
# Static dielectric constant tensor:
#      x y z
#    x 3.166620 0.000000 0.000000 
#    y 0.000000 3.685800 0.000000 
#    z 0.000000 0.000000 3.283390 
# 
# 
# High freq. dielectric constant tensor:
#      x y z
#    x 1.700540 0.000000 0.000000 
#    y 0.000000 1.728690 0.000000 
#    z 0.000000 0.000000 1.703730 
# 
# From -- ./inp_files/21637.got.cif
#   From: 2010.03.12/outbox.cif.g09.slc.cpg/sg67_11_cif.got.tgz:21637.got - 2010.04.10 22:41:39.
