data_PCOD8278317
_publ_section_title
;
Structure prediction by ZEFSAII (Michael W. Deem and Ramdas Pophale) SiO2 
 PCOD8278317
Probable space group: C M M A
;
_chemical_formula_sum "Si O2"
_cell_formula_units_Z 72
_cell_length_a 21.019213
_cell_length_b 9.034020
_cell_length_c 20.032098
_cell_angle_alpha 90.000000
_cell_angle_beta 90.000000
_cell_angle_gamma 90.000000
_cell_volume 3803.854837
_symmetry_space_group_name_H-M "C M M A"
_symmetry_group_IT_number 67
_symmetry_cell_setting 'orthorhombic'
loop_
_space_group_symop_operation_xyz
x,y,z
-x,1/2-y,z
x,-y,-z
-x,1/2+y,-z
-x,-y,-z
x,1/2+y,-z
-x,y,z
x,1/2-y,z
1/2+x,1/2+y,z
1/2-x,-y,z
1/2+x,1/2-y,-z
1/2-x,y,-z
1/2-x,1/2-y,-z
1/2+x,y,-z
1/2-x,1/2+y,z
1/2+x,-y,z
loop_
_atom_site_type_symbol
_atom_site_label
_atom_site_fract_x
_atom_site_fract_y
_atom_site_fract_z
Si Si1 0.623735 0.578185 0.930892
Si Si2 0.186463 0.419569 0.796746
Si Si3 0.500000 0.072306 0.927057
Si Si4 0.429185 0.927060 0.708864
Si Si5 0.424917 0.087945 0.437992
O O1 0.606750 0.750000 0.945424
O O2 0.679854 0.564371 0.876969
O O3 0.564132 0.494373 0.895135
O O4 0.644639 0.500000 0.000000
O O5 0.193590 0.250000 0.775952
O O6 0.250000 0.500000 0.772632
O O7 0.124320 0.487136 0.759828
O O8 0.500000 0.250000 0.926662
O O9 0.500000 0.000000 0.000000
O O10 0.500000 0.985530 0.729786
O O11 0.431405 0.750000 0.708090
O O12 0.411275 0.985811 0.634459
O O13 0.500000 0.100139 0.448029
O O14 0.393688 0.250000 0.440018
O O15 0.393976 0.000000 0.500000
#
# Coordination Sequence:
#
# PCOD8278317 Si02
#       5
#    16  16   8  16  16
#     4  10  20  34  53  76 100 132 170 212 259 309
#     4  10  22  37  55  75 100 136 173 215 259 307
#     4  10  18  30  50  76 104 130 157 202 255 304
#     4   8  15  30  53  77  99 131 174 210 244 298
#     4   8  13  23  43  72 102 128 158 200 247 293
#
# _framework density 18.928166000000001
#
# number of rings (size 3 to 8) (size 9 to 14) (size 15 to 20)
#    0.000    2.889    0.000    4.333    1.556    2.222 
#    0.000    3.333    0.000    2.000    0.000    4.667 
#    0.000    0.000    0.000    0.000    0.000    0.000 
#
# Total GULP energy -446002.329448 kJ/mol
# GULP energy per Si atom -12388.953596 kJ/mol
# Density = 1.888508 g / cm^3
# Si number density = 18.928166 Si / 1000 Ang^3
#
#
#
# Elastic Constant Matrix: (Units=GPa)
#
#
# Indices 1 2 3 4 5 6 
#
# 1 104.6505 34.0440 54.7650 0.0000 0.0000 0.0000
# 2 34.0440 81.9780 32.8416 0.0000 0.0000 0.0000
# 3 54.7650 32.8416 107.3052 0.0000 0.0000 0.0000
# 4 0.0000 0.0000 0.0000 22.7549 0.0000 0.0000
# 5 0.0000 0.0000 0.0000 0.0000 12.3666 0.0000
# 6 0.0000 0.0000 0.0000 0.0000 0.0000 25.2700
#
#
#
# Elastic Compliance Matrix: (Units=1/GPa)
#
#
# Indices 1 2 3 4 5 6 
#
# 1 0.013784 -0.003312 -0.006021 0.000000 0.000000 0.000000
# 2 -0.003312 0.014699 -0.002808 0.000000 0.000000 0.000000
# 3 -0.006021 -0.002808 0.013252 0.000000 0.000000 0.000000
# 4 0.000000 0.000000 0.000000 0.043946 0.000000 0.000000
# 5 0.000000 0.000000 0.000000 0.000000 0.080863 0.000000
# 6 0.000000 0.000000 0.000000 0.000000 0.000000 0.039573
#
#
# Mechanical properties :
#
#
# Convention : Reuss Voigt Hill
#
# Bulk Modulus (GPa) = 57.30194 59.69278 58.49736
# Shear Modulus (GPa) = 21.16694 23.56384 22.36539
#
# Velocity S-wave (km/s) = 3.34769 3.53215 3.44116
# Velocity P-wave (km/s) = 6.72918 6.94549 6.83819
#
# Compressibility (1/GPa) = 0.01745142
#
# Stress axis : x y z
#
# Youngs Moduli (GPa) = 72.54753 68.03228 75.46162
#
# Poissons Ratio (x) = 0.22533 0.45437
# Poissons Ratio (y) = 0.24028 0.21192
# Poissons Ratio (z) = 0.43683 0.19106
#
# Static dielectric constant tensor:
#      x y z
#    x 3.537800 0.000000 0.000000 
#    y 0.000000 3.372600 0.000000 
#    z 0.000000 0.000000 3.557580 
# 
# 
# High freq. dielectric constant tensor:
#      x y z
#    x 1.701710 0.000000 0.000000 
#    y 0.000000 1.709070 0.000000 
#    z 0.000000 0.000000 1.735600 
# 
# From -- ./inp_files/39223.got.cif
#   From: 2010.03.12/outbox.cif.g09.slc.cpg/sg67_20_cif.got.tgz:39223.got - 2010.04.10 22:41:39.
