data_PCOD8278236
_publ_section_title
;
Structure prediction by ZEFSAII (Michael W. Deem and Ramdas Pophale) SiO2 
 PCOD8278236
Probable space group: C M M A
;
_chemical_formula_sum "Si O2"
_cell_formula_units_Z 112
_cell_length_a 24.899466
_cell_length_b 17.544363
_cell_length_c 13.494394
_cell_angle_alpha 90.000000
_cell_angle_beta 90.000000
_cell_angle_gamma 90.000000
_cell_volume 5894.962191
_symmetry_space_group_name_H-M "C M M A"
_symmetry_group_IT_number 67
_symmetry_cell_setting 'orthorhombic'
loop_
_space_group_symop_operation_xyz
x,y,z
-x,1/2-y,z
x,-y,-z
-x,1/2+y,-z
-x,-y,-z
x,1/2+y,-z
-x,y,z
x,1/2-y,z
1/2+x,1/2+y,z
1/2-x,-y,z
1/2+x,1/2-y,-z
1/2-x,y,-z
1/2-x,1/2-y,-z
1/2+x,y,-z
1/2-x,1/2+y,z
1/2+x,-y,z
loop_
_atom_site_type_symbol
_atom_site_label
_atom_site_fract_x
_atom_site_fract_y
_atom_site_fract_z
Si Si1 0.657571 0.416442 0.233659
Si Si2 0.316777 0.581288 0.549985
Si Si3 0.787171 0.335555 0.381733
Si Si4 0.059416 0.665551 0.147114
Si Si5 0.844555 0.448078 0.098022
Si Si6 0.235250 0.663591 0.832799
Si Si7 0.439541 0.335397 0.912774
O O1 0.646675 0.415681 0.351836
O O2 0.601163 0.394395 0.187381
O O3 0.670004 0.500864 0.193520
O O4 0.704311 0.360000 0.195737
O O5 0.318726 0.500000 0.500000
O O6 0.258103 0.601866 0.593299
O O7 0.333752 0.642116 0.462369
O O8 0.766443 0.250000 0.402158
O O9 0.802470 0.342565 0.266201
O O10 0.072792 0.750000 0.187743
O O11 0.000000 0.640730 0.182034
O O12 0.062304 0.665808 0.029988
O O13 0.793759 0.389874 0.085220
O O14 0.897998 0.399740 0.123276
O O15 0.850581 0.500000 0.000000
O O16 0.236842 0.750000 0.873539
O O17 0.500000 0.356191 0.876383
O O18 0.423911 0.250000 0.873947
#
# Coordination Sequence:
#
# PCOD8278236 Si02
#       7
#    16  16  16  16  16  16  16
#     4  11  22  35  52  79 111 145 181 220 267 327
#     4  10  18  29  48  73 103 134 168 213 269 317
#     4   9  17  31  52  75  96 131 180 228 266 307
#     4   9  18  35  57  79 102 130 173 228 279 322
#     4  12  23  36  51  77 112 148 183 219 261 320
#     4  10  22  38  54  74 109 150 187 223 265 318
#     4   9  19  38  61  80 100 133 182 236 278 310
#
# _framework density 18.999272999999999
#
# number of rings (size 3 to 8) (size 9 to 14) (size 15 to 20)
#    0.000    2.000    1.429    4.714    0.000    7.143 
#    0.000    0.714    0.000    0.429    0.000    1.000 
#    0.000   10.286    0.000    0.000    0.000    0.000 
#
# Total GULP energy -693743.817655 kJ/mol
# GULP energy per Si atom -12388.282458 kJ/mol
# Density = 1.895603 g / cm^3
# Si number density = 18.999273 Si / 1000 Ang^3
#
#
#
# Elastic Constant Matrix: (Units=GPa)
#
#
# Indices 1 2 3 4 5 6 
#
# 1 71.2413 39.8008 13.3395 0.0000 0.0000 0.0000
# 2 39.8008 105.2664 16.5416 0.0000 0.0000 0.0000
# 3 13.3395 16.5416 41.8156 0.0000 0.0000 0.0000
# 4 0.0000 0.0000 0.0000 27.0408 0.0000 0.0000
# 5 0.0000 0.0000 0.0000 0.0000 9.1269 0.0000
# 6 0.0000 0.0000 0.0000 0.0000 0.0000 27.7008
#
#
#
# Elastic Compliance Matrix: (Units=1/GPa)
#
#
# Indices 1 2 3 4 5 6 
#
# 1 0.018211 -0.006368 -0.003290 0.000000 0.000000 0.000000
# 2 -0.006368 0.012356 -0.002856 0.000000 0.000000 0.000000
# 3 -0.003290 -0.002856 0.026094 0.000000 0.000000 0.000000
# 4 0.000000 0.000000 0.000000 0.036981 0.000000 0.000000
# 5 0.000000 0.000000 0.000000 0.000000 0.109566 0.000000
# 6 0.000000 0.000000 0.000000 0.000000 0.000000 0.036100
#
#
# Mechanical properties :
#
#
# Convention : Reuss Voigt Hill
#
# Bulk Modulus (GPa) = 31.61423 39.74300 35.67862
# Shear Modulus (GPa) = 18.18958 22.68311 20.43634
#
# Velocity S-wave (km/s) = 3.09752 3.45903 3.28325
# Velocity P-wave (km/s) = 5.42850 6.07591 5.76131
#
# Compressibility (1/GPa) = 0.03163132
#
# Stress axis : x y z
#
# Youngs Moduli (GPa) = 54.91269 80.92950 38.32285
#
# Poissons Ratio (x) = 0.51539 0.12609
# Poissons Ratio (y) = 0.34971 0.10947
# Poissons Ratio (z) = 0.18067 0.23117
#
# Static dielectric constant tensor:
#      x y z
#    x 3.352670 0.000000 0.000000 
#    y 0.000000 3.842450 0.000000 
#    z 0.000000 0.000000 3.869120 
# 
# 
# High freq. dielectric constant tensor:
#      x y z
#    x 1.693440 0.000000 0.000000 
#    y 0.000000 1.758740 0.000000 
#    z 0.000000 0.000000 1.727970 
# 
# From -- ./inp_files/30124.got.cif
#   From: 2010.03.12/outbox.cif.g09.slc.cpg/sg67_16_cif.got.tgz:30124.got - 2010.04.10 22:41:39.
