data_PCOD8278853
_publ_section_title
;
Structure prediction by ZEFSAII (Michael W. Deem and Ramdas Pophale) SiO2 
 PCOD8278853
Probable space group: C M M A
;
_chemical_formula_sum "Si O2"
_cell_formula_units_Z 96
_cell_length_a 16.082217
_cell_length_b 19.526793
_cell_length_c 15.063954
_cell_angle_alpha 90.000000
_cell_angle_beta 90.000000
_cell_angle_gamma 90.000000
_cell_volume 4730.595573
_symmetry_space_group_name_H-M "C M M A"
_symmetry_group_IT_number 67
_symmetry_cell_setting 'orthorhombic'
loop_
_space_group_symop_operation_xyz
x,y,z
-x,1/2-y,z
x,-y,-z
-x,1/2+y,-z
-x,-y,-z
x,1/2+y,-z
-x,y,z
x,1/2-y,z
1/2+x,1/2+y,z
1/2-x,-y,z
1/2+x,1/2-y,-z
1/2-x,y,-z
1/2-x,1/2-y,-z
1/2+x,y,-z
1/2-x,1/2+y,z
1/2+x,-y,z
loop_
_atom_site_type_symbol
_atom_site_label
_atom_site_fract_x
_atom_site_fract_y
_atom_site_fract_z
Si Si1 0.155386 0.427107 0.030011
Si Si2 0.096283 0.174401 0.891610
Si Si3 0.099095 0.564339 0.774235
Si Si4 0.098904 0.826883 0.435012
Si Si5 0.098784 0.173395 0.367943
Si Si6 0.599017 0.412468 0.271368
O O1 0.146142 0.418741 0.134939
O O2 0.116209 0.500000 0.000000
O O3 0.250000 0.423034 0.000000
O O4 0.106874 0.364986 0.984239
O O5 0.138008 0.250000 0.896802
O O6 0.136260 0.130737 0.811150
O O7 0.000000 0.183699 0.871954
O O8 0.132703 0.619602 0.703594
O O9 0.128270 0.490627 0.738025
O O10 0.000000 0.567634 0.789029
O O11 0.128235 0.750000 0.409934
O O12 0.131836 0.846345 0.533479
O O13 0.134896 0.880239 0.362731
O O14 0.000000 0.829606 0.434543
O O15 0.128923 0.250000 0.342732
O O16 0.000000 0.170724 0.368711
O O17 0.500000 0.409156 0.271089
#
# Coordination Sequence:
#
# PCOD8278853 Si02
#       6
#    16  16  16  16  16  16
#     4  11  23  38  54  72 100 139 177 219 268 318
#     4  10  20  34  54  79 104 132 171 218 265 315
#     4  10  19  31  51  75 101 135 174 218 263 309
#     4   8  13  23  40  65 103 142 167 198 249 303
#     4   8  15  27  43  68 103 139 171 203 247 306
#     4   9  16  26  44  72 103 134 167 207 253 303
#
# _framework density 20.293427999999999
#
# number of rings (size 3 to 8) (size 9 to 14) (size 15 to 20)
#    0.000    2.667    1.667    2.000    0.000    4.333 
#    0.000    5.000    0.000    0.000    0.000    1.167 
#    0.000    4.000    0.000    0.000    0.000    0.000 
#
# Total GULP energy -595030.066080 kJ/mol
# GULP energy per Si atom -12396.459710 kJ/mol
# Density = 2.024724 g / cm^3
# Si number density = 20.293428 Si / 1000 Ang^3
#
#
#
# Elastic Constant Matrix: (Units=GPa)
#
#
# Indices 1 2 3 4 5 6 
#
# 1 16.4039 12.7837 14.7812 0.0000 0.0000 0.0000
# 2 12.7837 189.8710 121.6975 0.0000 0.0000 0.0000
# 3 14.7812 121.6975 204.2924 0.0000 0.0000 0.0000
# 4 0.0000 0.0000 0.0000 42.4499 0.0000 0.0000
# 5 0.0000 0.0000 0.0000 0.0000 11.9017 0.0000
# 6 0.0000 0.0000 0.0000 0.0000 0.0000 7.2971
#
#
#
# Elastic Compliance Matrix: (Units=1/GPa)
#
#
# Indices 1 2 3 4 5 6 
#
# 1 0.065791 -0.002230 -0.003432 0.000000 0.000000 0.000000
# 2 -0.002230 0.008595 -0.004959 0.000000 0.000000 0.000000
# 3 -0.003432 -0.004959 0.008097 0.000000 0.000000 0.000000
# 4 0.000000 0.000000 0.000000 0.023557 0.000000 0.000000
# 5 0.000000 0.000000 0.000000 0.000000 0.084022 0.000000
# 6 0.000000 0.000000 0.000000 0.000000 0.000000 0.137041
#
#
# Mechanical properties :
#
#
# Convention : Reuss Voigt Hill
#
# Bulk Modulus (GPa) = 16.32854 78.78801 47.55827
# Shear Modulus (GPa) = 13.55900 29.75007 21.65454
#
# Velocity S-wave (km/s) = 2.58766 3.83299 3.27015
# Velocity P-wave (km/s) = 4.12209 7.64838 6.14367
#
# Compressibility (1/GPa) = 0.06124248
#
# Stress axis : x y z
#
# Youngs Moduli (GPa) = 15.19958 116.34334 123.49875
#
# Poissons Ratio (x) = 0.25945 0.42382
# Poissons Ratio (y) = 0.03390 0.61241
# Poissons Ratio (z) = 0.05216 0.57693
#
# Static dielectric constant tensor:
#      x y z
#    x 2.992220 0.000000 0.000000 
#    y 0.000000 4.023480 0.000000 
#    z 0.000000 0.000000 3.925960 
# 
# 
# High freq. dielectric constant tensor:
#      x y z
#    x 1.733250 0.000000 0.000000 
#    y 0.000000 1.799620 0.000000 
#    z 0.000000 0.000000 1.802000 
# 
# From -- ./inp_files/27214.got.cif
#   From: 2010.03.12/outbox.cif.g09.slc.cpg/sg67_14_cif.got.tgz:27214.got - 2010.04.10 22:41:39.
