data_PCOD8278524
_publ_section_title
;
Structure prediction by ZEFSAII (Michael W. Deem and Ramdas Pophale) SiO2 
 PCOD8278524
Probable space group: C M M A
;
_chemical_formula_sum "Si O2"
_cell_formula_units_Z 112
_cell_length_a 28.209238
_cell_length_b 18.203808
_cell_length_c 12.657811
_cell_angle_alpha 90.000000
_cell_angle_beta 90.000000
_cell_angle_gamma 90.000000
_cell_volume 6499.982808
_symmetry_space_group_name_H-M "C M M A"
_symmetry_group_IT_number 67
_symmetry_cell_setting 'orthorhombic'
loop_
_space_group_symop_operation_xyz
x,y,z
-x,1/2-y,z
x,-y,-z
-x,1/2+y,-z
-x,-y,-z
x,1/2+y,-z
-x,y,z
x,1/2-y,z
1/2+x,1/2+y,z
1/2-x,-y,z
1/2+x,1/2-y,-z
1/2-x,y,-z
1/2-x,1/2-y,-z
1/2+x,y,-z
1/2-x,1/2+y,z
1/2+x,-y,z
loop_
_atom_site_type_symbol
_atom_site_label
_atom_site_fract_x
_atom_site_fract_y
_atom_site_fract_z
Si Si1 0.797384 0.663608 0.881093
Si Si2 0.553467 0.069706 0.431879
Si Si3 0.946579 0.834263 0.627124
Si Si4 0.308693 0.836933 0.882315
Si Si5 0.359437 0.922924 0.706283
Si Si6 0.802811 0.912859 0.495408
Si Si7 0.857137 0.907112 0.702497
O O1 0.794932 0.750000 0.885528
O O2 0.744393 0.636787 0.849561
O O3 0.835062 0.637722 0.797266
O O4 0.814749 0.637063 0.996462
O O5 0.500000 0.052138 0.393614
O O6 0.555142 0.141626 0.504716
O O7 0.585575 0.083546 0.328820
O O8 0.573553 0.000000 0.500000
O O9 0.930012 0.750000 0.634085
O O10 0.912613 0.885901 0.697363
O O11 0.000000 0.844208 0.671008
O O12 0.316074 0.750000 0.867925
O O13 0.348374 0.878197 0.812517
O O14 0.327128 0.888362 0.613561
O O15 0.348038 0.007925 0.726473
O O16 0.750000 0.879437 0.500000
O O17 0.833040 0.881563 0.592913
O O18 0.801375 0.000000 0.500000
#
# Coordination Sequence:
#
# PCOD8278524 Si02
#       7
#    16  16  16  16  16  16  16
#     4   9  19  37  55  72  99 140 181 219 264 309
#     4  10  18  33  53  74 106 143 173 208 259 318
#     4  10  20  33  51  76 103 135 176 214 251 304
#     4   9  20  37  54  72 101 139 180 221 262 313
#     4  11  19  31  50  79 105 135 171 211 267 316
#     4   9  17  28  42  68 105 135 157 195 252 308
#     4  11  19  31  52  76 105 134 169 216 258 310
#
# _framework density 17.230815
#
# number of rings (size 3 to 8) (size 9 to 14) (size 15 to 20)
#    0.000    2.143    2.857    2.571    0.000    2.857 
#    0.000    1.429    0.000    3.857    0.000    4.000 
#    0.000    0.000    0.000    0.000    0.000    0.000 
#
# Total GULP energy -694309.732954 kJ/mol
# GULP energy per Si atom -12398.388088 kJ/mol
# Density = 1.719160 g / cm^3
# Si number density = 17.230815 Si / 1000 Ang^3
#
#
#
# Elastic Constant Matrix: (Units=GPa)
#
#
# Indices 1 2 3 4 5 6 
#
# 1 103.4453 18.5250 43.8524 0.0000 0.0000 0.0000
# 2 18.5250 40.8321 21.6787 0.0000 0.0000 0.0000
# 3 43.8524 21.6787 86.7263 0.0000 0.0000 0.0000
# 4 0.0000 0.0000 0.0000 29.0758 0.0000 0.0000
# 5 0.0000 0.0000 0.0000 0.0000 23.2386 0.0000
# 6 0.0000 0.0000 0.0000 0.0000 0.0000 23.3276
#
#
#
# Elastic Compliance Matrix: (Units=1/GPa)
#
#
# Indices 1 2 3 4 5 6 
#
# 1 0.012554 -0.002681 -0.005678 0.000000 0.000000 0.000000
# 2 -0.002681 0.028811 -0.005846 0.000000 0.000000 0.000000
# 3 -0.005678 -0.005846 0.015863 0.000000 0.000000 0.000000
# 4 0.000000 0.000000 0.000000 0.034393 0.000000 0.000000
# 5 0.000000 0.000000 0.000000 0.000000 0.043032 0.000000
# 6 0.000000 0.000000 0.000000 0.000000 0.000000 0.042868
#
#
# Mechanical properties :
#
#
# Convention : Reuss Voigt Hill
#
# Bulk Modulus (GPa) = 34.70080 44.34621 39.52351
# Shear Modulus (GPa) = 23.19807 24.92491 24.06149
#
# Velocity S-wave (km/s) = 3.67319 3.80746 3.74093
# Velocity P-wave (km/s) = 6.17838 6.71725 6.45344
#
# Compressibility (1/GPa) = 0.02881778
#
# Stress axis : x y z
#
# Youngs Moduli (GPa) = 79.65630 34.70926 63.04119
#
# Poissons Ratio (x) = 0.09306 0.35792
# Poissons Ratio (y) = 0.21358 0.36854
# Poissons Ratio (z) = 0.45226 0.20291
#
# Static dielectric constant tensor:
#      x y z
#    x 3.401530 0.000000 0.000000 
#    y 0.000000 3.048100 0.000000 
#    z 0.000000 0.000000 3.325560 
# 
# 
# High freq. dielectric constant tensor:
#      x y z
#    x 1.668640 0.000000 0.000000 
#    y 0.000000 1.652620 0.000000 
#    z 0.000000 0.000000 1.641960 
# 
# From -- ./inp_files/23113.got.cif
#   From: 2010.03.12/outbox.cif.g09.slc.cpg/sg67_12_cif.got.tgz:23113.got - 2010.04.10 22:41:39.
