data_PCOD8278824
_publ_section_title
;
Structure prediction by ZEFSAII (Michael W. Deem and Ramdas Pophale) SiO2 
 PCOD8278824
Probable space group: C M M A
;
_chemical_formula_sum "Si O2"
_cell_formula_units_Z 96
_cell_length_a 8.934040
_cell_length_b 19.054045
_cell_length_c 31.173808
_cell_angle_alpha 90.000000
_cell_angle_beta 90.000000
_cell_angle_gamma 90.000000
_cell_volume 5306.704872
_symmetry_space_group_name_H-M "C M M A"
_symmetry_group_IT_number 67
_symmetry_cell_setting 'orthorhombic'
loop_
_space_group_symop_operation_xyz
x,y,z
-x,1/2-y,z
x,-y,-z
-x,1/2+y,-z
-x,-y,-z
x,1/2+y,-z
-x,y,z
x,1/2-y,z
1/2+x,1/2+y,z
1/2-x,-y,z
1/2+x,1/2-y,-z
1/2-x,y,-z
1/2-x,1/2-y,-z
1/2+x,y,-z
1/2-x,1/2+y,z
1/2+x,-y,z
loop_
_atom_site_type_symbol
_atom_site_label
_atom_site_fract_x
_atom_site_fract_y
_atom_site_fract_z
Si Si1 0.668507 0.333600 0.042011
Si Si2 0.825770 0.075539 0.614820
Si Si3 0.322356 0.423613 0.792546
Si Si4 0.673617 0.925322 0.709776
Si Si5 0.824298 0.830030 0.872325
Si Si6 0.673561 0.832255 0.456313
O O1 0.500000 0.361734 0.041761
O O2 0.675510 0.250000 0.040985
O O3 0.747715 0.361236 0.085074
O O4 0.750000 0.364578 0.000000
O O5 0.805669 0.108895 0.662707
O O6 0.749935 0.130141 0.583383
O O7 0.000000 0.066748 0.603644
O O8 0.750000 0.000000 0.610030
O O9 0.500000 0.429898 0.789437
O O10 0.250000 0.500000 0.798445
O O11 0.258286 0.386027 0.749036
O O12 0.271245 0.375806 0.832105
O O13 0.500000 0.933095 0.721722
O O14 0.750000 0.000000 0.706516
O O15 0.774028 0.750000 0.863784
O O16 0.000000 0.834889 0.879671
O O17 0.500000 0.852165 0.458249
O O18 0.699596 0.750000 0.450063
O O19 0.750000 0.858867 0.500000
#
# Coordination Sequence:
#
# PCOD8278824 Si02
#       6
#    16  16  16  16  16  16
#     4   9  16  26  43  67  93 122 155 192 235 283
#     4  10  20  34  54  79 105 132 166 210 254 295
#     4  10  19  31  50  72  96 128 163 199 238 286
#     4   9  17  30  49  72  98 128 162 201 242 286
#     4   9  18  32  48  68  95 125 158 197 239 281
#     4  10  21  37  56  77 103 136 171 206 247 298
#
# _framework density 18.090322
#
# number of rings (size 3 to 8) (size 9 to 14) (size 15 to 20)
#    0.000    2.500    0.000    3.500    0.000    6.667 
#    0.000    2.500    0.000    3.500    0.000    3.500 
#    0.000    0.000    0.000    0.000    0.000    0.000 
#
# Total GULP energy -594996.154587 kJ/mol
# GULP energy per Si atom -12395.753221 kJ/mol
# Density = 1.804915 g / cm^3
# Si number density = 18.090322 Si / 1000 Ang^3
#
#
#
# Elastic Constant Matrix: (Units=GPa)
#
#
# Indices 1 2 3 4 5 6 
#
# 1 119.2418 36.1337 86.1518 0.0000 0.0000 0.0000
# 2 36.1337 38.0552 52.2010 0.0000 0.0000 0.0000
# 3 86.1518 52.2010 191.3858 0.0000 0.0000 0.0000
# 4 0.0000 0.0000 0.0000 32.6871 0.0000 0.0000
# 5 0.0000 0.0000 0.0000 0.0000 39.5174 0.0000
# 6 0.0000 0.0000 0.0000 0.0000 0.0000 21.7056
#
#
#
# Elastic Compliance Matrix: (Units=1/GPa)
#
#
# Indices 1 2 3 4 5 6 
#
# 1 0.013558 -0.007193 -0.004141 0.000000 0.000000 0.000000
# 2 -0.007193 0.045802 -0.009255 0.000000 0.000000 0.000000
# 3 -0.004141 -0.009255 0.009613 0.000000 0.000000 0.000000
# 4 0.000000 0.000000 0.000000 0.030593 0.000000 0.000000
# 5 0.000000 0.000000 0.000000 0.000000 0.025305 0.000000
# 6 0.000000 0.000000 0.000000 0.000000 0.000000 0.046071
#
#
# Mechanical properties :
#
#
# Convention : Reuss Voigt Hill
#
# Bulk Modulus (GPa) = 35.97648 77.51730 56.74689
# Shear Modulus (GPa) = 22.58495 30.39509 26.49002
#
# Velocity S-wave (km/s) = 3.53718 4.10345 3.83079
# Velocity P-wave (km/s) = 6.05083 8.08667 7.14167
#
# Compressibility (1/GPa) = 0.02779594
#
# Stress axis : x y z
#
# Youngs Moduli (GPa) = 73.75736 21.83299 104.02040
#
# Poissons Ratio (x) = 0.15704 0.43077
# Poissons Ratio (y) = 0.53052 0.96269
# Poissons Ratio (z) = 0.30545 0.20206
#
# Static dielectric constant tensor:
#      x y z
#    x 3.494720 0.000000 0.000000 
#    y 0.000000 2.916730 0.000000 
#    z 0.000000 0.000000 3.968030 
# 
# 
# High freq. dielectric constant tensor:
#      x y z
#    x 1.717250 0.000000 0.000000 
#    y 0.000000 1.648350 0.000000 
#    z 0.000000 0.000000 1.724340 
# 
# From -- ./inp_files/40774.got.cif
#   From: 2010.03.12/outbox.cif.g09.slc.cpg/sg67_21_cif.got.tgz:40774.got - 2010.04.10 22:41:39.
