data_PCOD8278489
_publ_section_title
;
Structure prediction by ZEFSAII (Michael W. Deem and Ramdas Pophale) SiO2 
 PCOD8278489
Probable space group: C M M A
;
_chemical_formula_sum "Si O2"
_cell_formula_units_Z 56
_cell_length_a 20.765152
_cell_length_b 8.569453
_cell_length_c 14.557646
_cell_angle_alpha 90.000000
_cell_angle_beta 90.000000
_cell_angle_gamma 90.000000
_cell_volume 2590.474789
_symmetry_space_group_name_H-M "C M M A"
_symmetry_group_IT_number 67
_symmetry_cell_setting 'orthorhombic'
loop_
_space_group_symop_operation_xyz
x,y,z
-x,1/2-y,z
x,-y,-z
-x,1/2+y,-z
-x,-y,-z
x,1/2+y,-z
-x,y,z
x,1/2-y,z
1/2+x,1/2+y,z
1/2-x,-y,z
1/2+x,1/2-y,-z
1/2-x,y,-z
1/2-x,1/2-y,-z
1/2+x,y,-z
1/2-x,1/2+y,z
1/2+x,-y,z
loop_
_atom_site_type_symbol
_atom_site_label
_atom_site_fract_x
_atom_site_fract_y
_atom_site_fract_z
Si Si1 0.500000 0.935534 0.397974
Si Si2 0.926459 0.566284 0.099804
Si Si3 0.684657 0.065761 0.775229
Si Si4 0.868317 0.565583 0.398639
O O1 0.500000 0.750000 0.395009
O O2 0.500000 0.000000 0.500000
O O3 0.435191 0.002970 0.353233
O O4 0.914885 0.750000 0.099688
O O5 0.878282 0.487043 0.170489
O O6 0.000000 0.524772 0.128010
O O7 0.910650 0.500000 0.000000
O O8 0.686993 0.250000 0.770950
O O9 0.750000 0.000000 0.822635
O O10 0.685115 0.994465 0.672086
O O11 0.854481 0.500000 0.500000
O O12 0.869607 0.750000 0.404849
#
# Coordination Sequence:
#
# PCOD8278489 Si02
#       4
#     8  16  16  16
#     4  10  18  32  54  84 117 156 205 260 316 370
#     4  10  22  43  71 102 134 168 211 262 322 385
#     4  12  26  44  65  94 131 172 220 268 325 387
#     4  11  22  39  61  89 126 169 217 268 323 381
#
# _framework density 21.617657999999999
#
# number of rings (size 3 to 8) (size 9 to 14) (size 15 to 20)
#    0.000    1.143    0.000    9.000    2.000    2.857 
#    0.000    5.714    0.000    0.000    0.000    0.000 
#    0.000    0.000    0.000    0.000    0.000    0.000 
#
# Total GULP energy -347211.535921 kJ/mol
# GULP energy per Si atom -12400.411997 kJ/mol
# Density = 2.156845 g / cm^3
# Si number density = 21.617658 Si / 1000 Ang^3
#
#
#
# Elastic Constant Matrix: (Units=GPa)
#
#
# Indices 1 2 3 4 5 6 
#
# 1 117.6123 66.2934 61.2385 0.0000 0.0000 0.0000
# 2 66.2934 225.8702 60.0903 0.0000 0.0000 0.0000
# 3 61.2385 60.0903 101.0749 0.0000 0.0000 0.0000
# 4 0.0000 0.0000 0.0000 39.6643 0.0000 0.0000
# 5 0.0000 0.0000 0.0000 0.0000 38.7243 0.0000
# 6 0.0000 0.0000 0.0000 0.0000 0.0000 37.0176
#
#
#
# Elastic Compliance Matrix: (Units=1/GPa)
#
#
# Indices 1 2 3 4 5 6 
#
# 1 0.013191 -0.002073 -0.006759 0.000000 0.000000 0.000000
# 2 -0.002073 0.005585 -0.002064 0.000000 0.000000 0.000000
# 3 -0.006759 -0.002064 0.015216 0.000000 0.000000 0.000000
# 4 0.000000 0.000000 0.000000 0.025212 0.000000 0.000000
# 5 0.000000 0.000000 0.000000 0.000000 0.025824 0.000000
# 6 0.000000 0.000000 0.000000 0.000000 0.000000 0.027014
#
#
# Mechanical properties :
#
#
# Convention : Reuss Voigt Hill
#
# Bulk Modulus (GPa) = 81.97906 91.08911 86.53408
# Shear Modulus (GPa) = 36.25807 40.21025 38.23416
#
# Velocity S-wave (km/s) = 4.09986 4.31753 4.21010
# Velocity P-wave (km/s) = 7.77280 8.19040 7.98433
#
# Compressibility (1/GPa) = 0.01219824
#
# Stress axis : x y z
#
# Youngs Moduli (GPa) = 75.81208 179.05142 65.71992
#
# Poissons Ratio (x) = 0.37121 0.44421
# Poissons Ratio (y) = 0.15718 0.13566
# Poissons Ratio (z) = 0.51243 0.36960
#
# Static dielectric constant tensor:
#      x y z
#    x 4.451240 0.000000 0.000000 
#    y 0.000000 3.972230 0.000000 
#    z 0.000000 0.000000 3.845420 
# 
# 
# High freq. dielectric constant tensor:
#      x y z
#    x 1.861400 0.000000 0.000000 
#    y 0.000000 1.867750 0.000000 
#    z 0.000000 0.000000 1.839720 
# 
# From -- ./inp_files/24587.got.cif
#   From: 2010.03.12/outbox.cif.g09.slc.cpg/sg67_13_cif.got.tgz:24587.got - 2010.04.10 22:41:39.
