data_PCOD8278075
_publ_section_title
;
Structure prediction by ZEFSAII (Michael W. Deem and Ramdas Pophale) SiO2 
 PCOD8278075
Probable space group: C M M A
;
_chemical_formula_sum "Si O2"
_cell_formula_units_Z 80
_cell_length_a 17.700101
_cell_length_b 28.607366
_cell_length_c 8.824897
_cell_angle_alpha 90.000000
_cell_angle_beta 90.000000
_cell_angle_gamma 90.000000
_cell_volume 4468.515432
_symmetry_space_group_name_H-M "C M M A"
_symmetry_group_IT_number 67
_symmetry_cell_setting 'orthorhombic'
loop_
_space_group_symop_operation_xyz
x,y,z
-x,1/2-y,z
x,-y,-z
-x,1/2+y,-z
-x,-y,-z
x,1/2+y,-z
-x,y,z
x,1/2-y,z
1/2+x,1/2+y,z
1/2-x,-y,z
1/2+x,1/2-y,-z
1/2-x,y,-z
1/2-x,1/2-y,-z
1/2+x,y,-z
1/2-x,1/2+y,z
1/2+x,-y,z
loop_
_atom_site_type_symbol
_atom_site_label
_atom_site_fract_x
_atom_site_fract_y
_atom_site_fract_z
Si Si1 0.412900 0.642801 0.139204
Si Si2 0.230271 0.551479 0.177192
Si Si3 0.824077 0.697960 0.099830
Si Si4 0.583022 0.446703 0.048574
Si Si5 0.230407 0.642047 0.672786
O O1 0.500000 0.653591 0.187086
O O2 0.354625 0.657759 0.274592
O O3 0.392150 0.672756 0.989460
O O4 0.403820 0.587901 0.095047
O O5 0.250000 0.500000 0.234917
O O6 0.140652 0.562321 0.185986
O O7 0.270471 0.587171 0.288935
O O8 0.250000 0.559322 0.000000
O O9 0.850864 0.750000 0.147414
O O10 0.799310 0.668278 0.245072
O O11 0.750000 0.701093 0.000000
O O12 0.500000 0.439138 0.115951
O O13 0.597160 0.500000 0.000000
O O14 0.250000 0.651615 0.500000
#
# Coordination Sequence:
#
# PCOD8278075 Si02
#       5
#    16  16  16  16  16
#     4  10  19  34  55  79 105 136 181 234 274 312
#     4  11  17  31  52  74 103 141 189 235 264 313
#     4   9  18  35  58  78  99 132 179 227 265 312
#     4  10  17  27  49  78 101 129 172 227 277 308
#     4  11  21  34  51  78 115 149 180 215 271 341
#
# _framework density 17.903037000000001
#
# number of rings (size 3 to 8) (size 9 to 14) (size 15 to 20)
#    0.000    1.800    6.000    0.600    0.000    1.200 
#    0.000    2.000    0.000    0.000    0.000    7.000 
#    0.000    0.000    0.000    0.000    0.000    0.000 
#
# Total GULP energy -495570.068295 kJ/mol
# GULP energy per Si atom -12389.251707 kJ/mol
# Density = 1.786229 g / cm^3
# Si number density = 17.903037 Si / 1000 Ang^3
#
#
#
# Elastic Constant Matrix: (Units=GPa)
#
#
# Indices 1 2 3 4 5 6 
#
# 1 123.1055 18.1313 40.6237 0.0000 0.0000 0.0000
# 2 18.1313 100.6248 36.1296 0.0000 0.0000 0.0000
# 3 40.6237 36.1296 92.6820 0.0000 0.0000 0.0000
# 4 0.0000 0.0000 0.0000 8.6578 0.0000 0.0000
# 5 0.0000 0.0000 0.0000 0.0000 17.3793 0.0000
# 6 0.0000 0.0000 0.0000 0.0000 0.0000 16.3073
#
#
#
# Elastic Compliance Matrix: (Units=1/GPa)
#
#
# Indices 1 2 3 4 5 6 
#
# 1 0.009502 -0.000252 -0.004067 0.000000 0.000000 0.000000
# 2 -0.000252 0.011562 -0.004397 0.000000 0.000000 0.000000
# 3 -0.004067 -0.004397 0.014286 0.000000 0.000000 0.000000
# 4 0.000000 0.000000 0.000000 0.115502 0.000000 0.000000
# 5 0.000000 0.000000 0.000000 0.000000 0.057540 0.000000
# 6 0.000000 0.000000 0.000000 0.000000 0.000000 0.061322
#
#
# Mechanical properties :
#
#
# Convention : Reuss Voigt Hill
#
# Bulk Modulus (GPa) = 55.80544 56.24240 56.02392
# Shear Modulus (GPa) = 17.05796 23.23740 20.14768
#
# Velocity S-wave (km/s) = 3.09009 3.60663 3.35830
# Velocity P-wave (km/s) = 6.63100 6.98762 6.81165
#
# Compressibility (1/GPa) = 0.01791940
#
# Stress axis : x y z
#
# Youngs Moduli (GPa) = 105.23876 86.49062 69.99871
#
# Poissons Ratio (x) = 0.02180 0.28466
# Poissons Ratio (y) = 0.02652 0.30776
# Poissons Ratio (z) = 0.42797 0.38027
#
# Static dielectric constant tensor:
#      x y z
#    x 3.697180 0.000000 0.000000 
#    y 0.000000 3.591070 0.000000 
#    z 0.000000 0.000000 2.836020 
# 
# 
# High freq. dielectric constant tensor:
#      x y z
#    x 1.703270 0.000000 0.000000 
#    y 0.000000 1.702880 0.000000 
#    z 0.000000 0.000000 1.629320 
# 
# From -- ./inp_files/9916.got.cif
#   From: 2010.03.12/outbox.cif.g09.slc.cpg/sg67_5_cif.got.tgz:9916.got - 2010.04.10 22:41:39.
