data_PCOD8278950
_publ_section_title
;
Structure prediction by ZEFSAII (Michael W. Deem and Ramdas Pophale) SiO2 
 PCOD8278950
Probable space group: C M M A
;
_chemical_formula_sum "Si O2"
_cell_formula_units_Z 96
_cell_length_a 8.712133
_cell_length_b 18.767601
_cell_length_c 30.828396
_cell_angle_alpha 90.000000
_cell_angle_beta 90.000000
_cell_angle_gamma 90.000000
_cell_volume 5040.622661
_symmetry_space_group_name_H-M "C M M A"
_symmetry_group_IT_number 67
_symmetry_cell_setting 'orthorhombic'
loop_
_space_group_symop_operation_xyz
x,y,z
-x,1/2-y,z
x,-y,-z
-x,1/2+y,-z
-x,-y,-z
x,1/2+y,-z
-x,y,z
x,1/2-y,z
1/2+x,1/2+y,z
1/2-x,-y,z
1/2+x,1/2-y,-z
1/2-x,y,-z
1/2-x,1/2-y,-z
1/2+x,y,-z
1/2-x,1/2+y,z
1/2+x,-y,z
loop_
_atom_site_type_symbol
_atom_site_label
_atom_site_fract_x
_atom_site_fract_y
_atom_site_fract_z
Si Si1 0.182344 0.423489 0.954398
Si Si2 0.320631 0.075720 0.544892
Si Si3 0.817869 0.329943 0.873918
Si Si4 0.182572 0.578059 0.206963
Si Si5 0.673731 0.834078 0.617121
Si Si6 0.682253 0.829156 0.713716
O O1 0.250000 0.500000 0.941578
O O2 0.235979 0.367238 0.918276
O O3 0.000000 0.429793 0.957706
O O4 0.250000 0.396627 0.000000
O O5 0.500000 0.066833 0.538304
O O6 0.250000 0.104876 0.500000
O O7 0.287968 0.130827 0.583095
O O8 0.250000 0.000000 0.557672
O O9 0.749277 0.250000 0.872174
O O10 0.755941 0.375147 0.833237
O O11 0.000000 0.326612 0.871869
O O12 0.250000 0.500000 0.203143
O O13 0.245096 0.615103 0.250923
O O14 0.000000 0.573170 0.206759
O O15 0.500000 0.861361 0.609218
O O16 0.681201 0.750000 0.611120
O O17 0.730382 0.854843 0.665571
O O18 0.500000 0.824512 0.716189
O O19 0.748959 0.750000 0.723370
#
# Coordination Sequence:
#
# PCOD8278950 Si02
#       6
#    16  16  16  16  16  16
#     4  10  19  32  51  73  99 130 164 204 249 298
#     4  11  22  37  56  77 104 137 175 216 260 308
#     4   9  18  32  51  74  98 128 168 210 249 293
#     4  10  19  32  52  76 102 131 166 207 249 296
#     4   9  18  34  55  79 107 137 171 211 254 303
#     4   8  15  30  53  77 100 131 170 207 244 291
#
# _framework density 19.045266000000002
#
# number of rings (size 3 to 8) (size 9 to 14) (size 15 to 20)
#    0.000    2.500    0.000    5.000    0.000    3.667 
#    0.000    3.333    0.000    6.500    0.000    0.000 
#    0.000    0.000    0.000    0.000    0.000    0.000 
#
# Total GULP energy -595170.174042 kJ/mol
# GULP energy per Si atom -12399.378626 kJ/mol
# Density = 1.900192 g / cm^3
# Si number density = 19.045266 Si / 1000 Ang^3
#
#
#
# Elastic Constant Matrix: (Units=GPa)
#
#
# Indices 1 2 3 4 5 6 
#
# 1 67.4475 29.5346 39.2478 0.0000 0.0000 0.0000
# 2 29.5346 128.0421 98.3970 0.0000 0.0000 0.0000
# 3 39.2478 98.3970 170.9063 0.0000 0.0000 0.0000
# 4 0.0000 0.0000 0.0000 40.4571 0.0000 0.0000
# 5 0.0000 0.0000 0.0000 0.0000 21.0246 0.0000
# 6 0.0000 0.0000 0.0000 0.0000 0.0000 24.8846
#
#
#
# Elastic Compliance Matrix: (Units=1/GPa)
#
#
# Indices 1 2 3 4 5 6 
#
# 1 0.017313 -0.001683 -0.003007 0.000000 0.000000 0.000000
# 2 -0.001683 0.014171 -0.007772 0.000000 0.000000 0.000000
# 3 -0.003007 -0.007772 0.011016 0.000000 0.000000 0.000000
# 4 0.000000 0.000000 0.000000 0.024718 0.000000 0.000000
# 5 0.000000 0.000000 0.000000 0.000000 0.047563 0.000000
# 6 0.000000 0.000000 0.000000 0.000000 0.000000 0.040185
#
#
# Mechanical properties :
#
#
# Convention : Reuss Voigt Hill
#
# Bulk Modulus (GPa) = 56.89451 77.86164 67.37808
# Shear Modulus (GPa) = 26.91799 30.55436 28.73617
#
# Velocity S-wave (km/s) = 3.76356 4.00972 3.88859
# Velocity P-wave (km/s) = 6.98742 7.89989 7.45762
#
# Compressibility (1/GPa) = 0.01757639
#
# Stress axis : x y z
#
# Youngs Moduli (GPa) = 57.76008 70.56763 90.77298
#
# Poissons Ratio (x) = 0.11874 0.27297
# Poissons Ratio (y) = 0.09719 0.70551
# Poissons Ratio (z) = 0.17369 0.54847
#
# Static dielectric constant tensor:
#      x y z
#    x 3.167860 0.000000 0.000000 
#    y 0.000000 3.521460 0.000000 
#    z 0.000000 0.000000 3.783520 
# 
# 
# High freq. dielectric constant tensor:
#      x y z
#    x 1.706550 0.000000 0.000000 
#    y 0.000000 1.739490 0.000000 
#    z 0.000000 0.000000 1.756980 
# 
# From -- ./inp_files/43426.got.cif
#   From: 2010.03.12/outbox.cif.g09.slc.cpg/sg67_22_cif.got.tgz:43426.got - 2010.04.10 22:41:39.
