data_PCOD8278355
_publ_section_title
;
Structure prediction by ZEFSAII (Michael W. Deem and Ramdas Pophale) SiO2 
 PCOD8278355
Probable space group: C M M A
;
_chemical_formula_sum "Si O2"
_cell_formula_units_Z 80
_cell_length_a 16.501837
_cell_length_b 25.911989
_cell_length_c 9.560229
_cell_angle_alpha 90.000000
_cell_angle_beta 90.000000
_cell_angle_gamma 90.000000
_cell_volume 4087.910123
_symmetry_space_group_name_H-M "C M M A"
_symmetry_group_IT_number 67
_symmetry_cell_setting 'orthorhombic'
loop_
_space_group_symop_operation_xyz
x,y,z
-x,1/2-y,z
x,-y,-z
-x,1/2+y,-z
-x,-y,-z
x,1/2+y,-z
-x,y,z
x,1/2-y,z
1/2+x,1/2+y,z
1/2-x,-y,z
1/2+x,1/2-y,-z
1/2-x,y,-z
1/2-x,1/2-y,-z
1/2+x,y,-z
1/2-x,1/2+y,z
1/2+x,-y,z
loop_
_atom_site_type_symbol
_atom_site_label
_atom_site_fract_x
_atom_site_fract_y
_atom_site_fract_z
Si Si1 0.263592 0.557802 0.332986
Si Si2 0.405774 0.691784 0.968918
Si Si3 0.363108 0.691333 0.413520
Si Si4 0.689769 0.659998 0.701776
Si Si5 0.087999 0.615508 0.789984
O O1 0.250000 0.500000 0.278263
O O2 0.250000 0.561451 0.500000
O O3 0.200346 0.598593 0.266864
O O4 0.352705 0.572557 0.275431
O O5 0.500000 0.683522 0.929808
O O6 0.393118 0.750000 0.030579
O O7 0.349853 0.687651 0.833126
O O8 0.377279 0.646578 0.075070
O O9 0.389780 0.750000 0.418484
O O10 0.367284 0.668205 0.568791
O O11 0.276077 0.684906 0.337489
O O12 0.428164 0.659578 0.325461
O O13 0.000000 0.590014 0.822627
#
# Coordination Sequence:
#
# PCOD8278355 Si02
#       5
#    16  16  16  16  16
#     4  10  20  40  63  83 109 144 191 246 296 338
#     4  10  21  36  55  82 122 163 189 220 278 347
#     4  10  18  30  53  82 113 146 187 236 279 329
#     4  10  18  35  53  82 113 147 192 237 279 333
#     4  10  21  38  57  84 115 147 190 233 281 341
#
# _framework density 19.569901000000002
#
# number of rings (size 3 to 8) (size 9 to 14) (size 15 to 20)
#    0.000    2.000    4.000    3.000    0.000    5.200 
#    0.000   10.000    0.000    2.400    0.000    0.000 
#    0.000    0.000    0.000    0.000    0.000    0.000 
#
# Total GULP energy -495551.325045 kJ/mol
# GULP energy per Si atom -12388.783126 kJ/mol
# Density = 1.952536 g / cm^3
# Si number density = 19.569901 Si / 1000 Ang^3
#
#
#
# Elastic Constant Matrix: (Units=GPa)
#
#
# Indices 1 2 3 4 5 6 
#
# 1 60.6648 34.5296 41.0950 0.0000 0.0000 0.0000
# 2 34.5296 146.1336 20.2690 0.0000 0.0000 0.0000
# 3 41.0950 20.2690 91.8585 0.0000 0.0000 0.0000
# 4 0.0000 0.0000 0.0000 19.3979 0.0000 0.0000
# 5 0.0000 0.0000 0.0000 0.0000 0.3274 0.0000
# 6 0.0000 0.0000 0.0000 0.0000 0.0000 6.6224
#
#
#
# Elastic Compliance Matrix: (Units=1/GPa)
#
#
# Indices 1 2 3 4 5 6 
#
# 1 0.026523 -0.004767 -0.010814 0.000000 0.000000 0.000000
# 2 -0.004767 0.007916 0.000386 0.000000 0.000000 0.000000
# 3 -0.010814 0.000386 0.015639 0.000000 0.000000 0.000000
# 4 0.000000 0.000000 0.000000 0.051552 0.000000 0.000000
# 5 0.000000 0.000000 0.000000 0.000000 3.054387 0.000000
# 6 0.000000 0.000000 0.000000 0.000000 0.000000 0.151003
#
#
# Mechanical properties :
#
#
# Convention : Reuss Voigt Hill
#
# Bulk Modulus (GPa) = 50.79250 54.49379 52.64315
# Shear Modulus (GPa) = 1.49523 18.78708 10.14115
#
# Velocity S-wave (km/s) = 0.87504 3.10175 2.27887
# Velocity P-wave (km/s) = 5.19920 6.38231 5.82089
#
# Compressibility (1/GPa) = 0.01968795
#
# Stress axis : x y z
#
# Youngs Moduli (GPa) = 37.70354 126.32750 63.94320
#
# Poissons Ratio (x) = 0.60222 0.69146
# Poissons Ratio (y) = 0.17974 -0.02468
# Poissons Ratio (z) = 0.40771 -0.04876
#
# Static dielectric constant tensor:
#      x y z
#    x 3.435340 0.000000 0.000000 
#    y 0.000000 3.685860 0.000000 
#    z 0.000000 0.000000 3.577980 
# 
# 
# High freq. dielectric constant tensor:
#      x y z
#    x 1.748650 0.000000 0.000000 
#    y 0.000000 1.752540 0.000000 
#    z 0.000000 0.000000 1.759970 
# 
# From -- ./inp_files/9894.got.cif
#   From: 2010.03.12/outbox.cif.g09.slc.cpg/sg67_5_cif.got.tgz:9894.got - 2010.04.10 22:41:39.
