data_PCOD8278677
_publ_section_title
;
Structure prediction by ZEFSAII (Michael W. Deem and Ramdas Pophale) SiO2 
 PCOD8278677
Probable space group: C M M A
;
_chemical_formula_sum "Si O2"
_cell_formula_units_Z 104
_cell_length_a 9.124702
_cell_length_b 27.475941
_cell_length_c 23.798873
_cell_angle_alpha 90.000000
_cell_angle_beta 90.000000
_cell_angle_gamma 90.000000
_cell_volume 5966.610066
_symmetry_space_group_name_H-M "C M M A"
_symmetry_group_IT_number 67
_symmetry_cell_setting 'orthorhombic'
loop_
_space_group_symop_operation_xyz
x,y,z
-x,1/2-y,z
x,-y,-z
-x,1/2+y,-z
-x,-y,-z
x,1/2+y,-z
-x,y,z
x,1/2-y,z
1/2+x,1/2+y,z
1/2-x,-y,z
1/2+x,1/2-y,-z
1/2-x,y,-z
1/2-x,1/2-y,-z
1/2+x,y,-z
1/2-x,1/2+y,z
1/2+x,-y,z
loop_
_atom_site_type_symbol
_atom_site_label
_atom_site_fract_x
_atom_site_fract_y
_atom_site_fract_z
Si Si1 0.671842 0.694329 0.758611
Si Si2 0.172626 0.550083 0.057234
Si Si3 0.837981 0.454756 0.252871
Si Si4 0.171111 0.144499 0.560067
Si Si5 0.837250 0.250000 0.555317
Si Si6 0.168119 0.605383 0.166615
Si Si7 0.164359 0.865161 0.666296
O O1 0.500000 0.691668 0.745379
O O2 0.719215 0.750000 0.772263
O O3 0.712931 0.660061 0.812574
O O4 0.753538 0.676158 0.702540
O O5 0.250000 0.500000 0.078130
O O6 0.194902 0.595157 0.100629
O O7 0.000000 0.540001 0.047794
O O8 0.250000 0.567437 0.000000
O O9 0.750000 0.500000 0.278100
O O10 0.761984 0.435433 0.197052
O O11 0.842990 0.414197 0.299579
O O12 0.000000 0.471951 0.236079
O O13 0.250000 0.136925 0.500000
O O14 0.192992 0.199314 0.586624
O O15 0.252254 0.116198 0.609722
O O16 0.000000 0.130140 0.554033
O O17 0.750000 0.250000 0.500000
O O18 0.000000 0.250000 0.532370
O O19 0.000000 0.596612 0.182919
O O20 0.000000 0.846441 0.652026
#
# Coordination Sequence:
#
# PCOD8278677 Si02
#       7
#    16  16  16  16   8  16  16
#     4   9  18  33  52  72  96 128 165 203 241 283
#     4  10  19  30  46  70 100 131 163 199 243 291
#     4  10  20  33  51  73  98 126 159 199 243 290
#     4  10  19  32  49  69  95 127 161 197 238 287
#     4   8  16  28  42  62  86 114 150 184 219 264
#     4   9  18  32  50  73  99 129 165 201 241 288
#     4  10  21  34  48  72 100 127 159 196 241 291
#
# _framework density 17.430333000000001
#
# number of rings (size 3 to 8) (size 9 to 14) (size 15 to 20)
#    0.000    2.462    0.000    2.769    1.077    5.231 
#    0.000    0.000    0.000    0.923    0.000    3.231 
#    0.000    0.000    0.000    0.000    0.000    0.615 
#
# Total GULP energy -644211.665145 kJ/mol
# GULP energy per Si atom -12388.685868 kJ/mol
# Density = 1.739066 g / cm^3
# Si number density = 17.430333 Si / 1000 Ang^3
#
#
#
# Elastic Constant Matrix: (Units=GPa)
#
#
# Indices 1 2 3 4 5 6 
#
# 1 105.7831 35.0331 51.7335 0.0000 0.0000 0.0000
# 2 35.0331 70.7362 36.4295 0.0000 0.0000 0.0000
# 3 51.7335 36.4295 112.1415 0.0000 0.0000 0.0000
# 4 0.0000 0.0000 0.0000 7.7612 0.0000 0.0000
# 5 0.0000 0.0000 0.0000 0.0000 26.6904 0.0000
# 6 0.0000 0.0000 0.0000 0.0000 0.0000 20.6261
#
#
#
# Elastic Compliance Matrix: (Units=1/GPa)
#
#
# Indices 1 2 3 4 5 6 
#
# 1 0.013110 -0.004057 -0.004730 0.000000 0.000000 0.000000
# 2 -0.004057 0.018233 -0.004051 0.000000 0.000000 0.000000
# 3 -0.004730 -0.004051 0.012416 0.000000 0.000000 0.000000
# 4 0.000000 0.000000 0.000000 0.128845 0.000000 0.000000
# 5 0.000000 0.000000 0.000000 0.000000 0.037467 0.000000
# 6 0.000000 0.000000 0.000000 0.000000 0.000000 0.048482
#
#
# Mechanical properties :
#
#
# Convention : Reuss Voigt Hill
#
# Bulk Modulus (GPa) = 55.30504 59.45032 57.37768
# Shear Modulus (GPa) = 17.22612 22.04652 19.63632
#
# Velocity S-wave (km/s) = 3.14711 3.56031 3.36007
# Velocity P-wave (km/s) = 6.70849 7.14720 6.93132
#
# Compressibility (1/GPa) = 0.01808153
#
# Stress axis : x y z
#
# Youngs Moduli (GPa) = 76.27677 54.84621 80.54432
#
# Poissons Ratio (x) = 0.22251 0.38098
# Poissons Ratio (y) = 0.30945 0.32632
# Poissons Ratio (z) = 0.36080 0.22220
#
# Static dielectric constant tensor:
#      x y z
#    x 3.564360 0.000000 0.000000 
#    y 0.000000 3.282660 0.000000 
#    z 0.000000 0.000000 3.124890 
# 
# 
# High freq. dielectric constant tensor:
#      x y z
#    x 1.689320 0.000000 0.000000 
#    y 0.000000 1.651970 0.000000 
#    z 0.000000 0.000000 1.663580 
# 
# From -- ./inp_files/40981.got.cif
#   From: 2010.03.12/outbox.cif.g09.slc.cpg/sg67_21_cif.got.tgz:40981.got - 2010.04.10 22:41:39.
