data_PCOD8278907
_publ_section_title
;
Structure prediction by ZEFSAII (Michael W. Deem and Ramdas Pophale) SiO2 
 PCOD8278907
Probable space group: C M M A
;
_chemical_formula_sum "Si O2"
_cell_formula_units_Z 88
_cell_length_a 27.781224
_cell_length_b 8.967253
_cell_length_c 18.971011
_cell_angle_alpha 90.000000
_cell_angle_beta 90.000000
_cell_angle_gamma 90.000000
_cell_volume 4726.082245
_symmetry_space_group_name_H-M "C M M A"
_symmetry_group_IT_number 67
_symmetry_cell_setting 'orthorhombic'
loop_
_space_group_symop_operation_xyz
x,y,z
-x,1/2-y,z
x,-y,-z
-x,1/2+y,-z
-x,-y,-z
x,1/2+y,-z
-x,y,z
x,1/2-y,z
1/2+x,1/2+y,z
1/2-x,-y,z
1/2+x,1/2-y,-z
1/2-x,y,-z
1/2-x,1/2-y,-z
1/2+x,y,-z
1/2-x,1/2+y,z
1/2+x,-y,z
loop_
_atom_site_type_symbol
_atom_site_label
_atom_site_fract_x
_atom_site_fract_y
_atom_site_fract_z
Si Si1 0.500000 0.580054 0.072415
Si Si2 0.387103 0.576709 0.425186
Si Si3 0.445511 0.577103 0.689215
Si Si4 0.140102 0.074417 0.791197
Si Si5 0.604550 0.425859 0.923550
Si Si6 0.299343 0.924848 0.323853
O O1 0.500000 0.750000 0.051092
O O2 0.550817 0.541644 0.109827
O O3 0.500000 0.500000 0.000000
O O4 0.384687 0.500000 0.500000
O O5 0.395614 0.750000 0.436481
O O6 0.431826 0.514376 0.380500
O O7 0.337484 0.542123 0.385138
O O8 0.500000 0.536287 0.711783
O O9 0.440331 0.750000 0.669992
O O10 0.410318 0.534407 0.753270
O O11 0.148569 0.250000 0.797203
O O12 0.140955 0.002389 0.868944
O O13 0.183888 0.001372 0.748634
O O14 0.615107 0.250000 0.929522
O O15 0.611173 0.500000 0.000000
O O16 0.292348 0.750000 0.310755
O O17 0.250000 0.000000 0.348916
#
# Coordination Sequence:
#
# PCOD8278907 Si02
#       6
#     8  16  16  16  16  16
#     4   8  16  28  42  64  96 134 173 212 255 302
#     4  10  21  36  55  80 109 140 175 217 262 313
#     4   9  19  35  53  75 105 143 184 222 261 309
#     4  10  20  34  54  79 107 140 178 222 269 318
#     4  10  19  32  49  73 105 142 182 224 269 315
#     4  10  21  38  59  82 107 136 173 216 266 321
#
# _framework density 18.620073999999999
#
# number of rings (size 3 to 8) (size 9 to 14) (size 15 to 20)
#    0.000    2.364    0.000    2.182    1.273    4.727 
#    0.000    1.818    0.000    0.545    0.000    3.818 
#    0.000    0.000    0.000    0.000    0.000    0.000 
#
# Total GULP energy -545467.485237 kJ/mol
# GULP energy per Si atom -12396.988301 kJ/mol
# Density = 1.857769 g / cm^3
# Si number density = 18.620074 Si / 1000 Ang^3
#
#
#
# Elastic Constant Matrix: (Units=GPa)
#
#
# Indices 1 2 3 4 5 6 
#
# 1 58.6101 20.9130 9.6645 0.0000 0.0000 0.0000
# 2 20.9130 81.3858 42.6185 0.0000 0.0000 0.0000
# 3 9.6645 42.6185 96.4304 0.0000 0.0000 0.0000
# 4 0.0000 0.0000 0.0000 33.0263 0.0000 0.0000
# 5 0.0000 0.0000 0.0000 0.0000 15.3247 0.0000
# 6 0.0000 0.0000 0.0000 0.0000 0.0000 29.0362
#
#
#
# Elastic Compliance Matrix: (Units=1/GPa)
#
#
# Indices 1 2 3 4 5 6 
#
# 1 0.018792 -0.005000 0.000326 0.000000 0.000000 0.000000
# 2 -0.005000 0.017317 -0.007153 0.000000 0.000000 0.000000
# 3 0.000326 -0.007153 0.013499 0.000000 0.000000 0.000000
# 4 0.000000 0.000000 0.000000 0.030279 0.000000 0.000000
# 5 0.000000 0.000000 0.000000 0.000000 0.065254 0.000000
# 6 0.000000 0.000000 0.000000 0.000000 0.000000 0.034440
#
#
# Mechanical properties :
#
#
# Convention : Reuss Voigt Hill
#
# Bulk Modulus (GPa) = 38.52648 42.53537 40.53092
# Shear Modulus (GPa) = 23.59776 26.35948 24.97862
#
# Velocity S-wave (km/s) = 3.56382 3.76659 3.66661
# Velocity P-wave (km/s) = 6.13760 6.46604 6.30396
#
# Compressibility (1/GPa) = 0.02595617
#
# Stress axis : x y z
#
# Youngs Moduli (GPa) = 53.21398 57.74547 74.08173
#
# Poissons Ratio (x) = 0.28871 -0.02417
# Poissons Ratio (y) = 0.26605 0.52987
# Poissons Ratio (z) = -0.01736 0.41303
#
# Static dielectric constant tensor:
#      x y z
#    x 3.457170 0.000000 0.000000 
#    y 0.000000 3.488070 0.000000 
#    z 0.000000 0.000000 3.260940 
# 
# 
# High freq. dielectric constant tensor:
#      x y z
#    x 1.707480 0.000000 0.000000 
#    y 0.000000 1.736880 0.000000 
#    z 0.000000 0.000000 1.714560 
# 
# From -- ./inp_files/32464.got.cif
#   From: 2010.03.12/outbox.cif.g09.slc.cpg/sg67_17_cif.got.tgz:32464.got - 2010.04.10 22:41:39.
