data_PCOD8278335
_publ_section_title
;
Structure prediction by ZEFSAII (Michael W. Deem and Ramdas Pophale) SiO2 
 PCOD8278335
Probable space group: C M M A
;
_chemical_formula_sum "Si O2"
_cell_formula_units_Z 80
_cell_length_a 25.526835
_cell_length_b 8.679006
_cell_length_c 19.284214
_cell_angle_alpha 90.000000
_cell_angle_beta 90.000000
_cell_angle_gamma 90.000000
_cell_volume 4272.370445
_symmetry_space_group_name_H-M "C M M A"
_symmetry_group_IT_number 67
_symmetry_cell_setting 'orthorhombic'
loop_
_space_group_symop_operation_xyz
x,y,z
-x,1/2-y,z
x,-y,-z
-x,1/2+y,-z
-x,-y,-z
x,1/2+y,-z
-x,y,z
x,1/2-y,z
1/2+x,1/2+y,z
1/2-x,-y,z
1/2+x,1/2-y,-z
1/2-x,y,-z
1/2-x,1/2-y,-z
1/2+x,y,-z
1/2-x,1/2+y,z
1/2+x,-y,z
loop_
_atom_site_type_symbol
_atom_site_label
_atom_site_fract_x
_atom_site_fract_y
_atom_site_fract_z
Si Si1 0.000000 0.574508 0.814321
Si Si2 0.194131 0.568384 0.426803
Si Si3 0.304865 0.929353 0.926949
Si Si4 0.392139 0.571767 0.332322
Si Si5 0.613223 0.076883 0.831423
Si Si6 0.500000 0.929139 0.670991
O O1 0.946796 0.553146 0.859033
O O2 0.000000 0.750000 0.782023
O O3 0.000000 0.449332 0.753686
O O4 0.175104 0.500000 0.500000
O O5 0.199430 0.750000 0.433826
O O6 0.250000 0.500000 0.404774
O O7 0.153055 0.526402 0.367778
O O8 0.296824 0.750000 0.937176
O O9 0.250000 0.000000 0.901432
O O10 0.348981 0.958389 0.869547
O O11 0.322953 0.000000 0.000000
O O12 0.386588 0.750000 0.352549
O O13 0.386339 0.545243 0.250356
O O14 0.448069 0.509803 0.359860
O O15 0.632470 0.250000 0.847895
O O16 0.500000 0.750000 0.651343
#
# Coordination Sequence:
#
# PCOD8278335 Si02
#       6
#     8  16  16  16  16   8
#     4   8  16  32  53  76 107 144 174 210 261 314
#     4  11  22  38  58  80 108 143 181 221 268 321
#     4  11  22  37  56  76 103 138 176 217 265 317
#     4  10  20  36  57  81 110 144 180 221 266 314
#     4   9  18  34  56  81 108 138 175 216 260 309
#     4  10  18  30  51  80 111 142 177 218 265 318
#
# _framework density 18.724969000000002
#
# number of rings (size 3 to 8) (size 9 to 14) (size 15 to 20)
#    0.000    2.000    0.000    7.500    0.000    4.800 
#    0.000    1.000    0.000    0.000    0.000    0.000 
#    0.000    0.000    0.000    0.000    0.000    0.000 
#
# Total GULP energy -495993.635787 kJ/mol
# GULP energy per Si atom -12399.840895 kJ/mol
# Density = 1.868235 g / cm^3
# Si number density = 18.724969 Si / 1000 Ang^3
#
#
#
# Elastic Constant Matrix: (Units=GPa)
#
#
# Indices 1 2 3 4 5 6 
#
# 1 135.3619 54.9506 54.3203 0.0000 0.0000 0.0000
# 2 54.9506 144.0479 33.8115 0.0000 0.0000 0.0000
# 3 54.3203 33.8115 50.3975 0.0000 0.0000 0.0000
# 4 0.0000 0.0000 0.0000 26.9658 0.0000 0.0000
# 5 0.0000 0.0000 0.0000 0.0000 -2.7527 0.0000
# 6 0.0000 0.0000 0.0000 0.0000 0.0000 33.7787
#
#
#
# Elastic Compliance Matrix: (Units=1/GPa)
#
#
# Indices 1 2 3 4 5 6 
#
# 1 0.013515 -0.002061 -0.013184 0.000000 0.000000 0.000000
# 2 -0.002061 0.008554 -0.003517 0.000000 0.000000 0.000000
# 3 -0.013184 -0.003517 0.036413 0.000000 0.000000 0.000000
# 4 0.000000 0.000000 0.000000 0.037084 0.000000 0.000000
# 5 0.000000 0.000000 0.000000 0.000000 -0.363284 0.000000
# 6 0.000000 0.000000 0.000000 0.000000 0.000000 0.029604
#
#
# Mechanical properties :
#
#
# Convention : Reuss Voigt Hill
#
# Bulk Modulus (GPa) = 47.71860 68.44134 58.07997
# Shear Modulus (GPa) = -25.82601 24.04670 -0.88966
#
# Velocity S-wave (km/s) = -3.71783 3.58747 -0.69004
# Velocity P-wave (km/s) = 2.66639 7.33417 5.51814
#
# Compressibility (1/GPa) = 0.02095619
#
# Stress axis : x y z
#
# Youngs Moduli (GPa) = 73.99120 116.90480 27.46297
#
# Poissons Ratio (x) = 0.24094 0.36208
# Poissons Ratio (y) = 0.15249 0.09660
# Poissons Ratio (z) = 0.97553 0.41120
#
# Static dielectric constant tensor:
#      x y z
#    x 3.666730 0.000000 0.000000 
#    y 0.000000 3.468590 0.000000 
#    z 0.000000 0.000000 3.076360 
# 
# 
# High freq. dielectric constant tensor:
#      x y z
#    x 1.743510 0.000000 0.000000 
#    y 0.000000 1.738720 0.000000 
#    z 0.000000 0.000000 1.690690 
# 
# From -- ./inp_files/35780.got.cif
#   From: 2010.03.12/outbox.cif.g09.slc.cpg/sg67_18_cif.got.tgz:35780.got - 2010.04.10 22:41:39.
