data_PCOD8278440
_publ_section_title
;
Structure prediction by ZEFSAII (Michael W. Deem and Ramdas Pophale) SiO2 
 PCOD8278440
Probable space group: C M M A
;
_chemical_formula_sum "Si O2"
_cell_formula_units_Z 104
_cell_length_a 8.923226
_cell_length_b 28.608680
_cell_length_c 24.709911
_cell_angle_alpha 90.000000
_cell_angle_beta 90.000000
_cell_angle_gamma 90.000000
_cell_volume 6307.988512
_symmetry_space_group_name_H-M "C M M A"
_symmetry_group_IT_number 67
_symmetry_cell_setting 'orthorhombic'
loop_
_space_group_symop_operation_xyz
x,y,z
-x,1/2-y,z
x,-y,-z
-x,1/2+y,-z
-x,-y,-z
x,1/2+y,-z
-x,y,z
x,1/2-y,z
1/2+x,1/2+y,z
1/2-x,-y,z
1/2+x,1/2-y,-z
1/2-x,y,-z
1/2-x,1/2-y,-z
1/2+x,y,-z
1/2-x,1/2+y,z
1/2+x,-y,z
loop_
_atom_site_type_symbol
_atom_site_label
_atom_site_fract_x
_atom_site_fract_y
_atom_site_fract_z
Si Si1 0.826328 0.954344 0.281928
Si Si2 0.324407 0.144994 0.555582
Si Si3 0.676681 0.046893 0.603210
Si Si4 0.831363 0.801248 0.853790
Si Si5 0.672266 0.644784 0.762125
Si Si6 0.173225 0.804757 0.345937
Si Si7 0.322679 0.750000 0.941675
O O1 0.745257 0.943041 0.338128
O O2 0.806309 0.910866 0.241837
O O3 0.000000 0.964353 0.293941
O O4 0.750000 0.000000 0.254817
O O5 0.500000 0.152324 0.550771
O O6 0.250000 0.161620 0.500000
O O7 0.282549 0.090832 0.565756
O O8 0.266931 0.177848 0.603269
O O9 0.500000 0.039809 0.608690
O O10 0.750000 0.000000 0.577791
O O11 0.830968 0.750000 0.824795
O O12 0.763988 0.839587 0.814178
O O13 0.733890 0.796406 0.909117
O O14 0.000000 0.816369 0.869148
O O15 0.500000 0.659065 0.770687
O O16 0.733493 0.669588 0.707922
O O17 0.197745 0.750000 0.338259
O O18 0.000000 0.817737 0.355730
O O19 0.500000 0.750000 0.946543
O O20 0.250000 0.750000 0.000000
#
# Coordination Sequence:
#
# PCOD8278440 Si02
#       7
#    16  16  16  16  16  16   8
#     4  10  19  31  50  74 100 131 164 200 249 307
#     4  11  24  39  55  73  94 121 156 200 250 304
#     4  10  20  34  53  75  96 121 152 192 245 303
#     4   9  19  31  46  75 107 141 181 217 255 293
#     4  10  19  32  52  75 102 136 169 207 254 303
#     4  10  21  37  56  75  96 126 161 199 249 304
#     4  10  18  32  52  74 110 152 189 224 259 300
#
# _framework density 16.487030000000001
#
# number of rings (size 3 to 8) (size 9 to 14) (size 15 to 20)
#    0.462    1.538    1.538    3.692    0.000    5.231 
#    0.000    1.538    0.000    0.000    0.000    0.000 
#    0.000    0.615    0.000    6.462    0.000    3.538 
#
# Total GULP energy -644719.333031 kJ/mol
# GULP energy per Si atom -12398.448712 kJ/mol
# Density = 1.644951 g / cm^3
# Si number density = 16.487030 Si / 1000 Ang^3
#
#
#
# Elastic Constant Matrix: (Units=GPa)
#
#
# Indices 1 2 3 4 5 6 
#
# 1 102.0710 38.9721 47.9818 0.0000 0.0000 0.0000
# 2 38.9721 73.4628 37.6976 0.0000 0.0000 0.0000
# 3 47.9818 37.6976 100.2267 0.0000 0.0000 0.0000
# 4 0.0000 0.0000 0.0000 15.9864 0.0000 0.0000
# 5 0.0000 0.0000 0.0000 0.0000 27.7139 0.0000
# 6 0.0000 0.0000 0.0000 0.0000 0.0000 26.6042
#
#
#
# Elastic Compliance Matrix: (Units=1/GPa)
#
#
# Indices 1 2 3 4 5 6 
#
# 1 0.013944 -0.004922 -0.004824 0.000000 0.000000 0.000000
# 2 -0.004922 0.018605 -0.004642 0.000000 0.000000 0.000000
# 3 -0.004824 -0.004642 0.014033 0.000000 0.000000 0.000000
# 4 0.000000 0.000000 0.000000 0.062553 0.000000 0.000000
# 5 0.000000 0.000000 0.000000 0.000000 0.036083 0.000000
# 6 0.000000 0.000000 0.000000 0.000000 0.000000 0.037588
#
#
# Mechanical properties :
#
#
# Convention : Reuss Voigt Hill
#
# Bulk Modulus (GPa) = 56.15880 58.34039 57.24960
# Shear Modulus (GPa) = 22.98665 24.13482 23.56073
#
# Velocity S-wave (km/s) = 3.73799 3.83020 3.78437
# Velocity P-wave (km/s) = 7.26405 7.41775 7.34130
#
# Compressibility (1/GPa) = 0.01780665
#
# Stress axis : x y z
#
# Youngs Moduli (GPa) = 71.71475 53.74834 71.26172
#
# Poissons Ratio (x) = 0.26454 0.34379
# Poissons Ratio (y) = 0.35296 0.33077
# Poissons Ratio (z) = 0.34597 0.24948
#
# Static dielectric constant tensor:
#      x y z
#    x 3.212400 0.000000 0.000000 
#    y 0.000000 3.263730 0.000000 
#    z 0.000000 0.000000 2.790760 
# 
# 
# High freq. dielectric constant tensor:
#      x y z
#    x 1.649150 0.000000 0.000000 
#    y 0.000000 1.629410 0.000000 
#    z 0.000000 0.000000 1.601490 
# 
# From -- ./inp_files/41131.got.cif
#   From: 2010.03.12/outbox.cif.g09.slc.cpg/sg67_21_cif.got.tgz:41131.got - 2010.04.10 22:41:39.
