data_PCOD8278715
_publ_section_title
;
Structure prediction by ZEFSAII (Michael W. Deem and Ramdas Pophale) SiO2 
 PCOD8278715
Probable space group: C M M A
;
_chemical_formula_sum "Si O2"
_cell_formula_units_Z 104
_cell_length_a 28.690259
_cell_length_b 23.580074
_cell_length_c 8.760140
_cell_angle_alpha 90.000000
_cell_angle_beta 90.000000
_cell_angle_gamma 90.000000
_cell_volume 5926.396162
_symmetry_space_group_name_H-M "C M M A"
_symmetry_group_IT_number 67
_symmetry_cell_setting 'orthorhombic'
loop_
_space_group_symop_operation_xyz
x,y,z
-x,1/2-y,z
x,-y,-z
-x,1/2+y,-z
-x,-y,-z
x,1/2+y,-z
-x,y,z
x,1/2-y,z
1/2+x,1/2+y,z
1/2-x,-y,z
1/2+x,1/2-y,-z
1/2-x,y,-z
1/2-x,1/2-y,-z
1/2+x,y,-z
1/2-x,1/2+y,z
1/2+x,-y,z
loop_
_atom_site_type_symbol
_atom_site_label
_atom_site_fract_x
_atom_site_fract_y
_atom_site_fract_z
Si Si1 0.698766 0.157824 0.509084
Si Si2 0.619661 0.750000 0.000490
Si Si3 0.052237 0.936170 0.677540
Si Si4 0.554176 0.358908 0.955580
Si Si5 0.867258 0.441521 0.554058
Si Si6 0.408702 0.537010 0.860897
Si Si7 0.702559 0.750000 0.239263
Si Si8 0.192561 0.250000 0.741346
O O1 0.750000 0.130963 0.500000
O O2 0.662619 0.107866 0.516503
O O3 0.694060 0.194346 0.661137
O O4 0.689026 0.194462 0.360350
O O5 0.587377 0.694840 0.017380
O O6 0.645788 0.750000 0.839862
O O7 0.663481 0.750000 0.112320
O O8 0.082238 0.935692 0.524165
O O9 0.000000 0.930291 0.618917
O O10 0.056746 0.994804 0.771445
O O11 0.064958 0.883148 0.787075
O O12 0.500000 0.340669 0.970948
O O13 0.564002 0.408106 0.078972
O O14 0.843600 0.500000 0.500000
O O15 0.870160 0.441000 0.738986
O O16 0.385781 0.500000 0.000000
O O17 0.756278 0.750000 0.175151
#
# Coordination Sequence:
#
# PCOD8278715 Si02
#       8
#    16   8  16  16  16  16   8   8
#     4   9  18  35  53  71  95 124 158 197 240 289
#     4  12  20  30  50  74 100 124 154 200 248 290
#     4   9  18  32  49  69  94 126 166 205 234 269
#     4  10  20  32  46  68  99 133 163 192 237 291
#     4  10  19  30  49  76  99 123 159 198 241 288
#     4   9  18  32  49  69  97 130 164 199 232 272
#     4   9  19  34  54  72  92 121 161 205 242 279
#     4   9  19  34  52  72  92 121 161 201 238 285
#
# _framework density 17.548608000000002
#
# number of rings (size 3 to 8) (size 9 to 14) (size 15 to 20)
#    0.000    2.462    0.000    3.692    0.000    5.538 
#    0.000    0.000    0.000    0.000    0.000   15.077 
#    0.000    0.000    0.000    0.000    0.000    0.000 
#
# Total GULP energy -644405.401993 kJ/mol
# GULP energy per Si atom -12392.411577 kJ/mol
# Density = 1.750867 g / cm^3
# Si number density = 17.548608 Si / 1000 Ang^3
#
#
#
# Elastic Constant Matrix: (Units=GPa)
#
#
# Indices 1 2 3 4 5 6 
#
# 1 64.2585 53.2420 10.7813 0.0000 0.0000 0.0000
# 2 53.2420 102.9170 19.2488 0.0000 0.0000 0.0000
# 3 10.7813 19.2488 59.3449 0.0000 0.0000 0.0000
# 4 0.0000 0.0000 0.0000 42.1131 0.0000 0.0000
# 5 0.0000 0.0000 0.0000 0.0000 24.2021 0.0000
# 6 0.0000 0.0000 0.0000 0.0000 0.0000 71.0784
#
#
#
# Elastic Compliance Matrix: (Units=1/GPa)
#
#
# Indices 1 2 3 4 5 6 
#
# 1 0.027246 -0.014020 -0.000402 0.000000 0.000000 0.000000
# 2 -0.014020 0.017558 -0.003148 0.000000 0.000000 0.000000
# 3 -0.000402 -0.003148 0.017945 0.000000 0.000000 0.000000
# 4 0.000000 0.000000 0.000000 0.023746 0.000000 0.000000
# 5 0.000000 0.000000 0.000000 0.000000 0.041319 0.000000
# 6 0.000000 0.000000 0.000000 0.000000 0.000000 0.014069
#
#
# Mechanical properties :
#
#
# Convention : Reuss Voigt Hill
#
# Bulk Modulus (GPa) = 36.22098 43.67385 39.94741
# Shear Modulus (GPa) = 26.84909 37.02860 31.93885
#
# Velocity S-wave (km/s) = 3.91574 4.59852 4.27080
# Velocity P-wave (km/s) = 6.41321 7.28948 6.86534
#
# Compressibility (1/GPa) = 0.02760831
#
# Stress axis : x y z
#
# Youngs Moduli (GPa) = 36.70258 56.95313 55.72629
#
# Poissons Ratio (x) = 0.79848 0.02243
# Poissons Ratio (y) = 0.51457 0.17543
# Poissons Ratio (z) = 0.01477 0.17929
#
# Static dielectric constant tensor:
#      x y z
#    x 3.143140 0.000000 0.000000 
#    y 0.000000 3.282870 0.000000 
#    z 0.000000 0.000000 3.345750 
# 
# 
# High freq. dielectric constant tensor:
#      x y z
#    x 1.665100 0.000000 0.000000 
#    y 0.000000 1.680170 0.000000 
#    z 0.000000 0.000000 1.681910 
# 
# From -- ./inp_files/13853.got.cif
#   From: 2010.03.12/outbox.cif.g09.slc.cpg/sg67_7_cif.got.tgz:13853.got - 2010.04.10 22:41:39.
