data_PCOD8278901
_publ_section_title
;
Structure prediction by ZEFSAII (Michael W. Deem and Ramdas Pophale) SiO2 
 PCOD8278901
Probable space group: C M M A
;
_chemical_formula_sum "Si O2"
_cell_formula_units_Z 56
_cell_length_a 14.541587
_cell_length_b 8.835954
_cell_length_c 24.003805
_cell_angle_alpha 90.000000
_cell_angle_beta 90.000000
_cell_angle_gamma 90.000000
_cell_volume 3084.219952
_symmetry_space_group_name_H-M "C M M A"
_symmetry_group_IT_number 67
_symmetry_cell_setting 'orthorhombic'
loop_
_space_group_symop_operation_xyz
x,y,z
-x,1/2-y,z
x,-y,-z
-x,1/2+y,-z
-x,-y,-z
x,1/2+y,-z
-x,y,z
x,1/2-y,z
1/2+x,1/2+y,z
1/2-x,-y,z
1/2+x,1/2-y,-z
1/2-x,y,-z
1/2-x,1/2-y,-z
1/2+x,y,-z
1/2-x,1/2+y,z
1/2+x,-y,z
loop_
_atom_site_type_symbol
_atom_site_label
_atom_site_fract_x
_atom_site_fract_y
_atom_site_fract_z
Si Si1 0.500000 0.071781 0.060107
Si Si2 0.348117 0.069850 0.442869
Si Si3 0.649793 0.571322 0.852460
Si Si4 0.500000 0.428768 0.357577
Si Si5 0.500000 0.569767 0.766389
O O1 0.500000 0.250000 0.053706
O O2 0.408184 0.020498 0.093160
O O3 0.500000 0.000000 0.000000
O O4 0.342749 0.250000 0.449368
O O5 0.410811 0.018071 0.391462
O O6 0.388303 0.000000 0.500000
O O7 0.250000 0.000000 0.429695
O O8 0.661654 0.750000 0.851273
O O9 0.750000 0.500000 0.853206
O O10 0.592252 0.515396 0.798347
O O11 0.500000 0.250000 0.351998
O O12 0.500000 0.501014 0.295767
O O13 0.500000 0.750000 0.765253
#
# Coordination Sequence:
#
# PCOD8278901 Si02
#       5
#     8  16  16   8   8
#     4   9  19  34  50  73 102 132 162 196 236 281
#     4  10  19  32  49  70  95 124 157 194 237 287
#     4   9  18  33  53  73  97 129 163 196 237 283
#     4   9  18  31  50  72  94 124 160 195 238 286
#     4   8  16  33  51  69  96 128 159 195 238 287
#
# _framework density 18.156941
#
# number of rings (size 3 to 8) (size 9 to 14) (size 15 to 20)
#    0.000    2.857    0.000    3.857    0.000    2.857 
#    0.000    7.143    0.000    5.143    0.000    0.000 
#    0.000    0.000    0.000    0.000    0.000    0.000 
#
# Total GULP energy -347054.985097 kJ/mol
# GULP energy per Si atom -12394.820896 kJ/mol
# Density = 1.811562 g / cm^3
# Si number density = 18.156941 Si / 1000 Ang^3
#
#
#
# Elastic Constant Matrix: (Units=GPa)
#
#
# Indices 1 2 3 4 5 6 
#
# 1 166.0153 39.1278 103.8563 0.0000 0.0000 0.0000
# 2 39.1278 45.3767 37.9725 0.0000 0.0000 0.0000
# 3 103.8563 37.9725 200.3039 0.0000 0.0000 0.0000
# 4 0.0000 0.0000 0.0000 21.3824 0.0000 0.0000
# 5 0.0000 0.0000 0.0000 0.0000 17.9102 0.0000
# 6 0.0000 0.0000 0.0000 0.0000 0.0000 29.1022
#
#
#
# Elastic Compliance Matrix: (Units=1/GPa)
#
#
# Indices 1 2 3 4 5 6 
#
# 1 0.009778 -0.004979 -0.004126 0.000000 0.000000 0.000000
# 2 -0.004979 0.028728 -0.002865 0.000000 0.000000 0.000000
# 3 -0.004126 -0.002865 0.007675 0.000000 0.000000 0.000000
# 4 0.000000 0.000000 0.000000 0.046767 0.000000 0.000000
# 5 0.000000 0.000000 0.000000 0.000000 0.055834 0.000000
# 6 0.000000 0.000000 0.000000 0.000000 0.000000 0.034362
#
#
# Mechanical properties :
#
#
# Convention : Reuss Voigt Hill
#
# Bulk Modulus (GPa) = 44.95981 85.95657 65.45819
# Shear Modulus (GPa) = 23.31032 29.06159 26.18596
#
# Velocity S-wave (km/s) = 3.58694 4.00506 3.80175
# Velocity P-wave (km/s) = 6.47845 8.29645 7.44316
#
# Compressibility (1/GPa) = 0.02224209
#
# Stress axis : x y z
#
# Youngs Moduli (GPa) = 102.26848 34.80913 130.29619
#
# Poissons Ratio (x) = 0.17331 0.53761
# Poissons Ratio (y) = 0.50917 0.37325
# Poissons Ratio (z) = 0.42197 0.09972
#
# Static dielectric constant tensor:
#      x y z
#    x 3.573010 0.000000 0.000000 
#    y 0.000000 3.053960 0.000000 
#    z 0.000000 0.000000 -2.095740 
# 
# 
# High freq. dielectric constant tensor:
#      x y z
#    x 1.711810 0.000000 0.000000 
#    y 0.000000 1.676150 0.000000 
#    z 0.000000 0.000000 1.709940 
# 
# From -- ./inp_files/40401.got.cif
#   From: 2010.03.12/outbox.cif.g09.slc.cpg/sg67_21_cif.got.tgz:40401.got - 2010.04.10 22:41:39.
