data_PCOD8278081
_publ_section_title
;
Structure prediction by ZEFSAII (Michael W. Deem and Ramdas Pophale) SiO2 
 PCOD8278081
Probable space group: C M M A
;
_chemical_formula_sum "Si O2"
_cell_formula_units_Z 96
_cell_length_a 29.907904
_cell_length_b 8.852301
_cell_length_c 25.922970
_cell_angle_alpha 90.000000
_cell_angle_beta 90.000000
_cell_angle_gamma 90.000000
_cell_volume 6863.203998
_symmetry_space_group_name_H-M "C M M A"
_symmetry_group_IT_number 67
_symmetry_cell_setting 'orthorhombic'
loop_
_space_group_symop_operation_xyz
x,y,z
-x,1/2-y,z
x,-y,-z
-x,1/2+y,-z
-x,-y,-z
x,1/2+y,-z
-x,y,z
x,1/2-y,z
1/2+x,1/2+y,z
1/2-x,-y,z
1/2+x,1/2-y,-z
1/2-x,y,-z
1/2-x,1/2-y,-z
1/2+x,y,-z
1/2-x,1/2+y,z
1/2+x,-y,z
loop_
_atom_site_type_symbol
_atom_site_label
_atom_site_fract_x
_atom_site_fract_y
_atom_site_fract_z
Si Si1 0.053021 0.578965 0.348684
Si Si2 0.946873 0.580282 0.236004
Si Si3 0.883657 0.429433 0.944060
Si Si4 0.446710 0.580771 0.449220
Si Si5 0.447124 0.077518 0.866054
Si Si6 0.794180 0.931227 0.942927
O O1 0.068770 0.750000 0.355757
O O2 0.069633 0.519889 0.292314
O O3 0.073896 0.486286 0.396292
O O4 0.000000 0.566733 0.351122
O O5 0.928661 0.750000 0.226232
O O6 0.929699 0.470574 0.190781
O O7 0.000000 0.584700 0.236341
O O8 0.877466 0.250000 0.948989
O O9 0.925711 0.468292 0.908454
O O10 0.839743 0.505899 0.917263
O O11 0.892806 0.500000 0.000000
O O12 0.427307 0.500000 0.500000
O O13 0.500000 0.567262 0.448446
O O14 0.429841 0.750000 0.452571
O O15 0.500000 0.056457 0.870497
O O16 0.432772 0.250000 0.875892
O O17 0.792824 0.750000 0.943266
O O18 0.750000 0.000000 0.914612
O O19 0.794928 0.000000 0.000000
#
# Coordination Sequence:
#
# PCOD8278081 Si02
#       6
#    16  16  16  16  16  16
#     4   8  13  21  32  44  58  76 100 131 167 207
#     4   8  14  25  39  52  65  84 111 143 179 216
#     4  11  21  33  47  62  80 101 125 152 185 224
#     4   9  15  20  26  37  54  75  98 125 161 205
#     4  10  20  32  44  58  76  98 125 157 191 226
#     4  10  17  28  45  65  86 104 123 145 174 212
#
# _framework density 13.987636999999999
#
# number of rings (size 3 to 8) (size 9 to 14) (size 15 to 20)
#    0.000    2.667    0.000    6.500    0.000    4.000 
#    0.000    3.333    0.000    0.000    0.000    0.000 
#    0.000    0.000    0.000    0.000    0.000    0.000 
#
# Total GULP energy -594755.003532 kJ/mol
# GULP energy per Si atom -12390.729240 kJ/mol
# Density = 1.395580 g / cm^3
# Si number density = 13.987637 Si / 1000 Ang^3
#
#
#
# Elastic Constant Matrix: (Units=GPa)
#
#
# Indices 1 2 3 4 5 6 
#
# 1 28.1777 24.6237 24.4351 0.0000 0.0000 0.0000
# 2 24.6237 111.4282 48.8718 0.0000 0.0000 0.0000
# 3 24.4351 48.8718 97.4108 0.0000 0.0000 0.0000
# 4 0.0000 0.0000 0.0000 25.9974 0.0000 0.0000
# 5 0.0000 0.0000 0.0000 0.0000 0.2944 0.0000
# 6 0.0000 0.0000 0.0000 0.0000 0.0000 15.3823
#
#
#
# Elastic Compliance Matrix: (Units=1/GPa)
#
#
# Indices 1 2 3 4 5 6 
#
# 1 0.049287 -0.007012 -0.008846 0.000000 0.000000 0.000000
# 2 -0.007012 0.012504 -0.004514 0.000000 0.000000 0.000000
# 3 -0.008846 -0.004514 0.014750 0.000000 0.000000 0.000000
# 4 0.000000 0.000000 0.000000 0.038465 0.000000 0.000000
# 5 0.000000 0.000000 0.000000 0.000000 3.397049 0.000000
# 6 0.000000 0.000000 0.000000 0.000000 0.000000 0.065010
#
#
# Mechanical properties :
#
#
# Convention : Reuss Voigt Hill
#
# Bulk Modulus (GPa) = 27.93535 48.09752 38.01644
# Shear Modulus (GPa) = 1.37751 17.60722 9.49236
#
# Velocity S-wave (km/s) = 0.99345 3.55176 2.60787
# Velocity P-wave (km/s) = 4.61852 7.16103 6.02541
#
# Compressibility (1/GPa) = 0.03579694
#
# Stress axis : x y z
#
# Youngs Moduli (GPa) = 20.28919 79.97502 67.79864
#
# Poissons Ratio (x) = 0.56079 0.59971
# Poissons Ratio (y) = 0.14227 0.30607
# Poissons Ratio (z) = 0.17947 0.36104
#
# Static dielectric constant tensor:
#      x y z
#    x 2.638260 0.000000 0.000000 
#    y 0.000000 2.889070 0.000000 
#    z 0.000000 0.000000 2.991950 
# 
# 
# High freq. dielectric constant tensor:
#      x y z
#    x 1.464870 0.000000 0.000000 
#    y 0.000000 1.549090 0.000000 
#    z 0.000000 0.000000 1.526630 
# 
# From -- ./inp_files/43817.got.cif
#   From: 2010.03.12/outbox.cif.g09.slc.cpg/sg67_22_cif.got.tgz:43817.got - 2010.04.10 22:41:39.
