data_PCOD8278456
_publ_section_title
;
Structure prediction by ZEFSAII (Michael W. Deem and Ramdas Pophale) SiO2 
 PCOD8278456
Probable space group: C M M A
;
_chemical_formula_sum "Si O2"
_cell_formula_units_Z 56
_cell_length_a 36.627270
_cell_length_b 8.671920
_cell_length_c 9.603231
_cell_angle_alpha 90.000000
_cell_angle_beta 90.000000
_cell_angle_gamma 90.000000
_cell_volume 3050.262309
_symmetry_space_group_name_H-M "C M M A"
_symmetry_group_IT_number 67
_symmetry_cell_setting 'orthorhombic'
loop_
_space_group_symop_operation_xyz
x,y,z
-x,1/2-y,z
x,-y,-z
-x,1/2+y,-z
-x,-y,-z
x,1/2+y,-z
-x,y,z
x,1/2-y,z
1/2+x,1/2+y,z
1/2-x,-y,z
1/2+x,1/2-y,-z
1/2-x,y,-z
1/2-x,1/2-y,-z
1/2+x,y,-z
1/2-x,1/2+y,z
1/2+x,-y,z
loop_
_atom_site_type_symbol
_atom_site_label
_atom_site_fract_x
_atom_site_fract_y
_atom_site_fract_z
Si Si1 0.000000 0.433352 0.154478
Si Si2 0.284886 0.927647 0.348670
Si Si3 0.365557 0.430900 0.653561
Si Si4 0.073742 0.567758 0.153007
O O1 0.037033 0.497611 0.225217
O O2 0.000000 0.250000 0.156099
O O3 0.000000 0.500000 0.000000
O O4 0.276724 0.750000 0.363408
O O5 0.324812 0.957066 0.281753
O O6 0.286078 0.000000 0.500000
O O7 0.250000 0.000000 0.264518
O O8 0.368959 0.500000 0.500000
O O9 0.375327 0.250000 0.649106
O O10 0.392291 0.523038 0.752993
O O11 0.069830 0.750000 0.142101
O O12 0.079984 0.500000 0.000000
#
# Coordination Sequence:
#
# PCOD8278456 Si02
#       4
#     8  16  16  16
#     4  10  18  32  53  76 101 130 167 210 248 294
#     4   9  16  26  44  68  97 129 166 206 246 292
#     4  10  20  34  51  76 106 137 170 209 255 303
#     4  11  21  35  55  78 103 134 170 210 252 300
#
# _framework density 18.359076999999999
#
# number of rings (size 3 to 8) (size 9 to 14) (size 15 to 20)
#    0.000    2.000    0.000    8.143    0.000    3.429 
#    0.000    0.714    0.000    0.857    0.000    6.000 
#    0.000    0.000    0.000    0.000    0.000    0.000 
#
# Total GULP energy -346944.027281 kJ/mol
# GULP energy per Si atom -12390.858117 kJ/mol
# Density = 1.831729 g / cm^3
# Si number density = 18.359077 Si / 1000 Ang^3
#
#
#
# Elastic Constant Matrix: (Units=GPa)
#
#
# Indices 1 2 3 4 5 6 
#
# 1 172.5769 81.2034 44.4320 0.0000 0.0000 0.0000
# 2 81.2034 171.7035 30.5342 0.0000 0.0000 0.0000
# 3 44.4320 30.5342 43.6258 0.0000 0.0000 0.0000
# 4 0.0000 0.0000 0.0000 23.6552 0.0000 0.0000
# 5 0.0000 0.0000 0.0000 0.0000 35.9896 0.0000
# 6 0.0000 0.0000 0.0000 0.0000 0.0000 39.0782
#
#
#
# Elastic Compliance Matrix: (Units=1/GPa)
#
#
# Indices 1 2 3 4 5 6 
#
# 1 0.009040 -0.003013 -0.007098 0.000000 0.000000 0.000000
# 2 -0.003013 0.007656 -0.002290 0.000000 0.000000 0.000000
# 3 -0.007098 -0.002290 0.031754 0.000000 0.000000 0.000000
# 4 0.000000 0.000000 0.000000 0.042274 0.000000 0.000000
# 5 0.000000 0.000000 0.000000 0.000000 0.027786 0.000000
# 6 0.000000 0.000000 0.000000 0.000000 0.000000 0.025590
#
#
# Mechanical properties :
#
#
# Convention : Reuss Voigt Hill
#
# Bulk Modulus (GPa) = 42.28661 77.80505 60.04583
# Shear Modulus (GPa) = 28.28315 35.19371 31.73843
#
# Velocity S-wave (km/s) = 3.92925 4.38307 4.16235
# Velocity P-wave (km/s) = 6.60821 8.25146 7.47513
#
# Compressibility (1/GPa) = 0.02364815
#
# Stress axis : x y z
#
# Youngs Moduli (GPa) = 110.62418 130.61475 31.49198
#
# Poissons Ratio (x) = 0.39352 0.22353
# Poissons Ratio (y) = 0.33329 0.07212
# Poissons Ratio (z) = 0.78520 0.29912
#
# Static dielectric constant tensor:
#      x y z
#    x 4.843680 0.000000 0.000000 
#    y 0.000000 3.622150 0.000000 
#    z 0.000000 0.000000 2.824190 
# 
# 
# High freq. dielectric constant tensor:
#      x y z
#    x 1.746480 0.000000 0.000000 
#    y 0.000000 1.737640 0.000000 
#    z 0.000000 0.000000 1.642160 
# 
# From -- ./inp_files/15726.got.cif
#   From: 2010.03.12/outbox.cif.g09.slc.cpg/sg67_8_cif.got.tgz:15726.got - 2010.04.10 22:41:39.
