data_PCOD8278441
_publ_section_title
;
Structure prediction by ZEFSAII (Michael W. Deem and Ramdas Pophale) SiO2 
 PCOD8278441
Probable space group: C M M A
;
_chemical_formula_sum "Si O2"
_cell_formula_units_Z 80
_cell_length_a 14.416492
_cell_length_b 17.175145
_cell_length_c 17.449789
_cell_angle_alpha 90.000000
_cell_angle_beta 90.000000
_cell_angle_gamma 90.000000
_cell_volume 4320.660947
_symmetry_space_group_name_H-M "C M M A"
_symmetry_group_IT_number 67
_symmetry_cell_setting 'orthorhombic'
loop_
_space_group_symop_operation_xyz
x,y,z
-x,1/2-y,z
x,-y,-z
-x,1/2+y,-z
-x,-y,-z
x,1/2+y,-z
-x,y,z
x,1/2-y,z
1/2+x,1/2+y,z
1/2-x,-y,z
1/2+x,1/2-y,-z
1/2-x,y,-z
1/2-x,1/2-y,-z
1/2+x,y,-z
1/2-x,1/2+y,z
1/2+x,-y,z
loop_
_atom_site_type_symbol
_atom_site_label
_atom_site_fract_x
_atom_site_fract_y
_atom_site_fract_z
Si Si1 0.815342 0.841404 0.571072
Si Si2 0.500000 0.090337 0.516518
Si Si3 0.192768 0.842765 0.287428
Si Si4 0.000000 0.158050 0.650304
Si Si5 0.263784 0.157382 0.120012
Si Si6 0.603457 0.342680 0.987476
O O1 0.837261 0.750000 0.571858
O O2 0.750000 0.863169 0.500000
O O3 0.766115 0.869799 0.648865
O O4 0.910440 0.888441 0.566413
O O5 0.500000 0.139177 0.438935
O O6 0.500000 0.000000 0.500000
O O7 0.188341 0.750000 0.285489
O O8 0.091337 0.876586 0.308712
O O9 0.223522 0.877249 0.205163
O O10 0.000000 0.250000 0.657846
O O11 0.264589 0.250000 0.122915
O O12 0.348446 0.128540 0.066242
O O13 0.165686 0.128686 0.084540
O O14 0.500000 0.378478 0.981234
O O15 0.598579 0.250000 0.987533
#
# Coordination Sequence:
#
# PCOD8278441 Si02
#       6
#    16   8  16   8  16  16
#     4  10  19  35  55  73  97 128 166 209 252 290
#     4  12  24  36  52  74  99 132 168 200 249 312
#     4   9  17  28  46  68  91 124 166 210 244 285
#     4  10  18  32  52  74  97 124 167 212 247 288
#     4   8  14  23  34  56  84 117 163 198 231 283
#     4   8  13  21  33  50  83 124 155 188 232 288
#
# _framework density 18.515685999999999
#
# number of rings (size 3 to 8) (size 9 to 14) (size 15 to 20)
#    0.000    2.800    2.000    2.100    1.400    0.400 
#    1.800    0.000    0.000    0.000    0.000    0.000 
#    0.000    0.000    0.000   21.600    0.000   24.000 
#
# Total GULP energy -495848.671629 kJ/mol
# GULP energy per Si atom -12396.216791 kJ/mol
# Density = 1.847354 g / cm^3
# Si number density = 18.515686 Si / 1000 Ang^3
#
#
#
# Elastic Constant Matrix: (Units=GPa)
#
#
# Indices 1 2 3 4 5 6 
#
# 1 203.6648 26.3701 100.0823 0.0000 0.0000 0.0000
# 2 26.3701 16.8195 7.8030 0.0000 0.0000 0.0000
# 3 100.0823 7.8030 176.7019 0.0000 0.0000 0.0000
# 4 0.0000 0.0000 0.0000 3.2180 0.0000 0.0000
# 5 0.0000 0.0000 0.0000 0.0000 24.3073 0.0000
# 6 0.0000 0.0000 0.0000 0.0000 0.0000 -0.2934
#
#
#
# Elastic Compliance Matrix: (Units=1/GPa)
#
#
# Indices 1 2 3 4 5 6 
#
# 1 0.008494 -0.011317 -0.004311 0.000000 0.000000 0.000000
# 2 -0.011317 0.075777 0.003064 0.000000 0.000000 0.000000
# 3 -0.004311 0.003064 0.007966 0.000000 0.000000 0.000000
# 4 0.000000 0.000000 0.000000 0.310757 0.000000 0.000000
# 5 0.000000 0.000000 0.000000 0.000000 0.041140 0.000000
# 6 0.000000 0.000000 0.000000 0.000000 0.000000 -3.407932
#
#
# Mechanical properties :
#
#
# Convention : Reuss Voigt Hill
#
# Bulk Modulus (GPa) = 14.90149 73.96633 44.43391
# Shear Modulus (GPa) = -1.71450 22.97507 10.63028
#
# Velocity S-wave (km/s) = -0.96332 3.52638 2.39869
# Velocity P-wave (km/s) = 2.61308 7.52430 5.63220
#
# Compressibility (1/GPa) = 0.06710738
#
# Stress axis : x y z
#
# Youngs Moduli (GPa) = 117.73296 13.19667 125.53809
#
# Poissons Ratio (x) = 0.14934 0.54120
# Poissons Ratio (y) = 1.33237 -0.38459
# Poissons Ratio (z) = 0.50755 -0.04043
#
# Static dielectric constant tensor:
#      x y z
#    x 3.777220 0.000000 0.000000 
#    y 0.000000 2.679010 0.000000 
#    z 0.000000 0.000000 3.602240 
# 
# 
# High freq. dielectric constant tensor:
#      x y z
#    x 1.732160 0.000000 0.000000 
#    y 0.000000 1.644640 0.000000 
#    z 0.000000 0.000000 1.721750 
# 
# From -- ./inp_files/33571.got.cif
#   From: 2010.03.12/outbox.cif.g09.slc.cpg/sg67_17_cif.got.tgz:33571.got - 2010.04.10 22:41:39.
