data_PCOD8278700
_publ_section_title
;
Structure prediction by ZEFSAII (Michael W. Deem and Ramdas Pophale) SiO2 
 PCOD8278700
Probable space group: C M M A
;
_chemical_formula_sum "Si O2"
_cell_formula_units_Z 112
_cell_length_a 19.605603
_cell_length_b 17.630604
_cell_length_c 17.044138
_cell_angle_alpha 90.000000
_cell_angle_beta 90.000000
_cell_angle_gamma 90.000000
_cell_volume 5891.453266
_symmetry_space_group_name_H-M "C M M A"
_symmetry_group_IT_number 67
_symmetry_cell_setting 'orthorhombic'
loop_
_space_group_symop_operation_xyz
x,y,z
-x,1/2-y,z
x,-y,-z
-x,1/2+y,-z
-x,-y,-z
x,1/2+y,-z
-x,y,z
x,1/2-y,z
1/2+x,1/2+y,z
1/2-x,-y,z
1/2+x,1/2-y,-z
1/2-x,y,-z
1/2-x,1/2-y,-z
1/2+x,y,-z
1/2-x,1/2+y,z
1/2+x,-y,z
loop_
_atom_site_type_symbol
_atom_site_label
_atom_site_fract_x
_atom_site_fract_y
_atom_site_fract_z
Si Si1 0.148722 0.160250 0.944267
Si Si2 0.075662 0.946193 0.431301
Si Si3 0.703205 0.839180 0.103569
Si Si4 0.420975 0.589253 0.804826
Si Si5 0.074135 0.052287 0.284563
Si Si6 0.839241 0.838582 0.333188
Si Si7 0.689828 0.660942 0.279700
O O1 0.136862 0.250000 0.930482
O O2 0.222053 0.129632 0.915934
O O3 0.093661 0.112324 0.895053
O O4 0.146219 0.139278 0.037600
O O5 0.129166 0.879192 0.410387
O O6 0.000000 0.914511 0.455922
O O7 0.105454 0.000000 0.500000
O O8 0.066106 0.992902 0.353313
O O9 0.711873 0.750000 0.102686
O O10 0.683307 0.866731 0.189600
O O11 0.500000 0.603280 0.786611
O O12 0.402532 0.500110 0.789826
O O13 0.378507 0.643973 0.747278
O O14 0.126850 0.115188 0.316165
O O15 0.000000 0.090494 0.267667
O O16 0.843139 0.750000 0.350180
O O17 0.760453 0.863913 0.320256
O O18 0.677663 0.750000 0.289434
#
# Coordination Sequence:
#
# PCOD8278700 Si02
#       7
#    16  16  16  16  16  16  16
#     4   9  15  27  46  70 101 137 175 214 260 316
#     4   9  19  37  58  80 111 146 174 203 251 320
#     4   8  15  28  47  69  98 135 173 216 264 311
#     4  10  19  30  47  75 111 142 172 220 275 324
#     4   9  20  37  54  74 101 138 181 221 266 323
#     4  10  19  32  53  84 112 137 176 222 269 318
#     4  10  19  34  55  77 101 134 178 230 272 310
#
# _framework density 19.010590000000001
#
# number of rings (size 3 to 8) (size 9 to 14) (size 15 to 20)
#    0.000    2.714    1.429    2.571    0.000    4.571 
#    0.000    3.571    0.000   10.286    0.000    0.000 
#    0.000    0.000    0.000    0.000    0.000    0.000 
#
# Total GULP energy -693788.926333 kJ/mol
# GULP energy per Si atom -12389.087970 kJ/mol
# Density = 1.896732 g / cm^3
# Si number density = 19.010590 Si / 1000 Ang^3
#
#
#
# Elastic Constant Matrix: (Units=GPa)
#
#
# Indices 1 2 3 4 5 6 
#
# 1 117.1642 65.2099 27.3944 0.0000 0.0000 0.0000
# 2 65.2099 71.6190 29.9414 0.0000 0.0000 0.0000
# 3 27.3944 29.9414 55.2320 0.0000 0.0000 0.0000
# 4 0.0000 0.0000 0.0000 27.9922 0.0000 0.0000
# 5 0.0000 0.0000 0.0000 0.0000 25.1959 0.0000
# 6 0.0000 0.0000 0.0000 0.0000 0.0000 8.4144
#
#
#
# Elastic Compliance Matrix: (Units=1/GPa)
#
#
# Indices 1 2 3 4 5 6 
#
# 1 0.017304 -0.015733 -0.000054 0.000000 0.000000 0.000000
# 2 -0.015733 0.032359 -0.009739 0.000000 0.000000 0.000000
# 3 -0.000054 -0.009739 0.023411 0.000000 0.000000 0.000000
# 4 0.000000 0.000000 0.000000 0.035724 0.000000 0.000000
# 5 0.000000 0.000000 0.000000 0.000000 0.039689 0.000000
# 6 0.000000 0.000000 0.000000 0.000000 0.000000 0.118843
#
#
# Mechanical properties :
#
#
# Convention : Reuss Voigt Hill
#
# Bulk Modulus (GPa) = 45.40503 54.34517 49.87510
# Shear Modulus (GPa) = 15.35041 20.41847 17.88444
#
# Velocity S-wave (km/s) = 2.84468 3.28084 3.07051
# Velocity P-wave (km/s) = 5.89284 6.55749 6.23403
#
# Compressibility (1/GPa) = 0.02202399
#
# Stress axis : x y z
#
# Youngs Moduli (GPa) = 57.78948 30.90285 42.71419
#
# Poissons Ratio (x) = 0.48620 0.00229
# Poissons Ratio (y) = 0.90922 0.41598
# Poissons Ratio (z) = 0.00310 0.30095
#
# Static dielectric constant tensor:
#      x y z
#    x 3.592860 0.000000 0.000000 
#    y 0.000000 3.353890 0.000000 
#    z 0.000000 0.000000 7.216300 
# 
# 
# High freq. dielectric constant tensor:
#      x y z
#    x 1.730360 0.000000 0.000000 
#    y 0.000000 1.714940 0.000000 
#    z 0.000000 0.000000 1.727710 
# 
# From -- ./inp_files/34424.got.cif
#   From: 2010.03.12/outbox.cif.g09.slc.cpg/sg67_18_cif.got.tgz:34424.got - 2010.04.10 22:41:39.
