data_PCOD8278059
_publ_section_title
;
Structure prediction by ZEFSAII (Michael W. Deem and Ramdas Pophale) SiO2 
 PCOD8278059
Probable space group: C M M A
;
_chemical_formula_sum "Si O2"
_cell_formula_units_Z 80
_cell_length_a 8.600511
_cell_length_b 18.449316
_cell_length_c 26.047623
_cell_angle_alpha 90.000000
_cell_angle_beta 90.000000
_cell_angle_gamma 90.000000
_cell_volume 4133.068685
_symmetry_space_group_name_H-M "C M M A"
_symmetry_group_IT_number 67
_symmetry_cell_setting 'orthorhombic'
loop_
_space_group_symop_operation_xyz
x,y,z
-x,1/2-y,z
x,-y,-z
-x,1/2+y,-z
-x,-y,-z
x,1/2+y,-z
-x,y,z
x,1/2-y,z
1/2+x,1/2+y,z
1/2-x,-y,z
1/2+x,1/2-y,-z
1/2-x,y,-z
1/2-x,1/2-y,-z
1/2+x,y,-z
1/2-x,1/2+y,z
1/2+x,-y,z
loop_
_atom_site_type_symbol
_atom_site_label
_atom_site_fract_x
_atom_site_fract_y
_atom_site_fract_z
Si Si1 0.182678 0.333241 0.054820
Si Si2 0.315178 0.668723 0.754147
Si Si3 0.684366 0.080881 0.551414
Si Si4 0.815395 0.080082 0.655785
Si Si5 0.683950 0.079715 0.148500
O O1 0.225204 0.250000 0.067206
O O2 0.262108 0.384132 0.096138
O O3 0.000000 0.346468 0.054906
O O4 0.250000 0.356241 0.000000
O O5 0.500000 0.670628 0.755263
O O6 0.246803 0.750000 0.754997
O O7 0.256914 0.629026 0.702820
O O8 0.250988 0.626364 0.803757
O O9 0.500000 0.081126 0.550383
O O10 0.750000 0.120700 0.500000
O O11 0.747331 0.117303 0.603812
O O12 0.750000 0.000000 0.551815
O O13 0.000000 0.076251 0.651833
O O14 0.750000 0.000000 0.664488
O O15 0.500000 0.075990 0.149400
O O16 0.750000 0.000000 0.153475
#
# Coordination Sequence:
#
# PCOD8278059 Si02
#       5
#    16  16  16  16  16
#     4  10  21  38  60  86 115 147 184 224 268 320
#     4   9  19  35  55  78 104 138 178 218 264 319
#     4  10  17  27  44  69 101 133 169 210 256 308
#     4  10  18  30  50  75 104 135 170 213 259 309
#     4  11  22  37  58  83 113 146 183 226 272 321
#
# _framework density 19.356076999999999
#
# number of rings (size 3 to 8) (size 9 to 14) (size 15 to 20)
#    0.000    2.000    0.000    6.600    0.000    2.400 
#    0.000    5.000    0.000    7.800    0.000    0.000 
#    0.000    0.000    0.000    0.000    0.000    0.000 
#
# Total GULP energy -495985.684801 kJ/mol
# GULP energy per Si atom -12399.642120 kJ/mol
# Density = 1.931202 g / cm^3
# Si number density = 19.356077 Si / 1000 Ang^3
#
#
#
# Elastic Constant Matrix: (Units=GPa)
#
#
# Indices 1 2 3 4 5 6 
#
# 1 98.5301 36.4681 53.8489 0.0000 0.0000 0.0000
# 2 36.4681 120.0714 94.3335 0.0000 0.0000 0.0000
# 3 53.8489 94.3335 198.9393 0.0000 0.0000 0.0000
# 4 0.0000 0.0000 0.0000 13.8056 0.0000 0.0000
# 5 0.0000 0.0000 0.0000 0.0000 12.4404 0.0000
# 6 0.0000 0.0000 0.0000 0.0000 0.0000 12.4887
#
#
#
# Elastic Compliance Matrix: (Units=1/GPa)
#
#
# Indices 1 2 3 4 5 6 
#
# 1 0.012141 -0.001762 -0.002451 0.000000 0.000000 0.000000
# 2 -0.001762 0.013529 -0.005938 0.000000 0.000000 0.000000
# 3 -0.002451 -0.005938 0.008506 0.000000 0.000000 0.000000
# 4 0.000000 0.000000 0.000000 0.072434 0.000000 0.000000
# 5 0.000000 0.000000 0.000000 0.000000 0.080383 0.000000
# 6 0.000000 0.000000 0.000000 0.000000 0.000000 0.080072
#
#
# Mechanical properties :
#
#
# Convention : Reuss Voigt Hill
#
# Bulk Modulus (GPa) = 72.07971 87.42687 79.75329
# Shear Modulus (GPa) = 17.12380 23.27298 20.19839
#
# Velocity S-wave (km/s) = 2.97757 3.47127 3.23386
# Velocity P-wave (km/s) = 7.01006 7.83147 7.43212
#
# Compressibility (1/GPa) = 0.01387353
#
# Stress axis : x y z
#
# Youngs Moduli (GPa) = 82.36748 73.91615 117.56654
#
# Poissons Ratio (x) = 0.13024 0.28813
# Poissons Ratio (y) = 0.14513 0.69813
# Poissons Ratio (z) = 0.20186 0.43893
#
# Static dielectric constant tensor:
#      x y z
#    x 3.441560 0.000000 0.000000 
#    y 0.000000 3.381370 0.000000 
#    z 0.000000 0.000000 4.260450 
# 
# 
# High freq. dielectric constant tensor:
#      x y z
#    x 1.750500 0.000000 0.000000 
#    y 0.000000 1.724080 0.000000 
#    z 0.000000 0.000000 1.781290 
# 
# From -- ./inp_files/43334.got.cif
#   From: 2010.03.12/outbox.cif.g09.slc.cpg/sg67_22_cif.got.tgz:43334.got - 2010.04.10 22:41:39.
