data_PCOD8278183
_publ_section_title
;
Structure prediction by ZEFSAII (Michael W. Deem and Ramdas Pophale) SiO2 
 PCOD8278183
Probable space group: C M M A
;
_chemical_formula_sum "Si O2"
_cell_formula_units_Z 104
_cell_length_a 27.579939
_cell_length_b 8.737935
_cell_length_c 24.015927
_cell_angle_alpha 90.000000
_cell_angle_beta 90.000000
_cell_angle_gamma 90.000000
_cell_volume 5787.639418
_symmetry_space_group_name_H-M "C M M A"
_symmetry_group_IT_number 67
_symmetry_cell_setting 'orthorhombic'
loop_
_space_group_symop_operation_xyz
x,y,z
-x,1/2-y,z
x,-y,-z
-x,1/2+y,-z
-x,-y,-z
x,1/2+y,-z
-x,y,z
x,1/2-y,z
1/2+x,1/2+y,z
1/2-x,-y,z
1/2+x,1/2-y,-z
1/2-x,y,-z
1/2-x,1/2-y,-z
1/2+x,y,-z
1/2-x,1/2+y,z
1/2+x,-y,z
loop_
_atom_site_type_symbol
_atom_site_label
_atom_site_fract_x
_atom_site_fract_y
_atom_site_fract_z
Si Si1 0.901060 0.431118 0.060019
Si Si2 0.554760 0.575111 0.766564
Si Si3 0.861021 0.572104 0.828273
Si Si4 0.386560 0.573860 0.658054
Si Si5 0.802007 0.431901 0.273605
Si Si6 0.500000 0.567658 0.939008
Si Si7 0.444816 0.569509 0.440442
O O1 0.908144 0.250000 0.053018
O O2 0.858799 0.471375 0.105618
O O3 0.950126 0.503737 0.086879
O O4 0.886627 0.500000 0.000000
O O5 0.500000 0.517300 0.771928
O O6 0.560006 0.750000 0.786426
O O7 0.586093 0.470633 0.806671
O O8 0.570848 0.556934 0.702946
O O9 0.854829 0.750000 0.821987
O O10 0.819937 0.501195 0.787270
O O11 0.372837 0.750000 0.647635
O O12 0.338595 0.486001 0.678459
O O13 0.406101 0.499789 0.601895
O O14 0.799153 0.250000 0.274125
O O15 0.750000 0.500000 0.286929
O O16 0.500000 0.750000 0.937252
O O17 0.500000 0.500000 0.000000
O O18 0.432079 0.500000 0.500000
O O19 0.500000 0.525640 0.423340
O O20 0.438094 0.750000 0.442787
#
# Coordination Sequence:
#
# PCOD8278183 Si02
#       7
#    16  16  16  16  16   8  16
#     4  10  19  32  47  66  93 127 165 204 246 295
#     4   9  18  30  45  69 100 132 166 205 248 296
#     4   9  20  34  49  70  97 127 162 204 251 305
#     4  10  19  33  53  77 106 139 175 216 261 308
#     4  10  20  37  58  80 102 128 165 212 266 319
#     4  10  18  28  42  62  88 124 164 200 233 278
#     4  10  20  33  51  78 113 153 192 225 257 296
#
# _framework density 17.969328999999998
#
# number of rings (size 3 to 8) (size 9 to 14) (size 15 to 20)
#    0.000    2.308    0.000    3.923    1.077    4.308 
#    0.000    0.000    0.000    0.923    0.000    6.462 
#    0.000    0.000    0.000    0.000    0.000    0.000 
#
# Total GULP energy -644420.855013 kJ/mol
# GULP energy per Si atom -12392.708750 kJ/mol
# Density = 1.792843 g / cm^3
# Si number density = 17.969329 Si / 1000 Ang^3
#
#
#
# Elastic Constant Matrix: (Units=GPa)
#
#
# Indices 1 2 3 4 5 6 
#
# 1 85.7271 14.5659 49.1228 0.0000 0.0000 0.0000
# 2 14.5659 56.3064 41.4693 0.0000 0.0000 0.0000
# 3 49.1228 41.4693 113.0358 0.0000 0.0000 0.0000
# 4 0.0000 0.0000 0.0000 27.2772 0.0000 0.0000
# 5 0.0000 0.0000 0.0000 0.0000 17.4395 0.0000
# 6 0.0000 0.0000 0.0000 0.0000 0.0000 24.3369
#
#
#
# Elastic Compliance Matrix: (Units=1/GPa)
#
#
# Indices 1 2 3 4 5 6 
#
# 1 0.015603 0.001312 -0.007262 0.000000 0.000000 0.000000
# 2 0.001312 0.024446 -0.009539 0.000000 0.000000 0.000000
# 3 -0.007262 -0.009539 0.015502 0.000000 0.000000 0.000000
# 4 0.000000 0.000000 0.000000 0.036661 0.000000 0.000000
# 5 0.000000 0.000000 0.000000 0.000000 0.057341 0.000000
# 6 0.000000 0.000000 0.000000 0.000000 0.000000 0.041090
#
#
# Mechanical properties :
#
#
# Convention : Reuss Voigt Hill
#
# Bulk Modulus (GPa) = 40.69370 51.70947 46.20159
# Shear Modulus (GPa) = 21.75698 23.80481 22.78089
#
# Velocity S-wave (km/s) = 3.48341 3.64366 3.56443
# Velocity P-wave (km/s) = 6.23492 6.82207 6.53509
#
# Compressibility (1/GPa) = 0.02457383
#
# Stress axis : x y z
#
# Youngs Moduli (GPa) = 64.08886 40.90714 64.50711
#
# Poissons Ratio (x) = -0.05368 0.46847
# Poissons Ratio (y) = -0.08410 0.61531
# Poissons Ratio (z) = 0.46543 0.39020
#
# Static dielectric constant tensor:
#      x y z
#    x 3.619620 0.000000 0.000000 
#    y 0.000000 3.378520 0.000000 
#    z 0.000000 0.000000 3.430750 
# 
# 
# High freq. dielectric constant tensor:
#      x y z
#    x 1.666540 0.000000 0.000000 
#    y 0.000000 1.704460 0.000000 
#    z 0.000000 0.000000 1.697960 
# 
# From -- ./inp_files/42756.got.cif
#   From: 2010.03.12/outbox.cif.g09.slc.cpg/sg67_22_cif.got.tgz:42756.got - 2010.04.10 22:41:39.
