data_PCOD8278886
_publ_section_title
;
Structure prediction by ZEFSAII (Michael W. Deem and Ramdas Pophale) SiO2 
 PCOD8278886
Probable space group: C M M A
;
_chemical_formula_sum "Si O2"
_cell_formula_units_Z 104
_cell_length_a 30.496994
_cell_length_b 9.107269
_cell_length_c 23.286278
_cell_angle_alpha 90.000000
_cell_angle_beta 90.000000
_cell_angle_gamma 90.000000
_cell_volume 6467.631636
_symmetry_space_group_name_H-M "C M M A"
_symmetry_group_IT_number 67
_symmetry_cell_setting 'orthorhombic'
loop_
_space_group_symop_operation_xyz
x,y,z
-x,1/2-y,z
x,-y,-z
-x,1/2+y,-z
-x,-y,-z
x,1/2+y,-z
-x,y,z
x,1/2-y,z
1/2+x,1/2+y,z
1/2-x,-y,z
1/2+x,1/2-y,-z
1/2-x,y,-z
1/2-x,1/2-y,-z
1/2+x,y,-z
1/2-x,1/2+y,z
1/2+x,-y,z
loop_
_atom_site_type_symbol
_atom_site_label
_atom_site_fract_x
_atom_site_fract_y
_atom_site_fract_z
Si Si1 0.883878 0.078124 0.773844
Si Si2 0.051715 0.588969 0.447067
Si Si3 0.000000 0.080080 0.058389
Si Si4 0.293462 0.925193 0.824285
Si Si5 0.177207 0.920677 0.940664
Si Si6 0.950526 0.574313 0.320749
Si Si7 0.911743 0.416622 0.116572
O O1 0.888846 0.250000 0.769098
O O2 0.832249 0.034853 0.778552
O O3 0.912320 0.009899 0.721174
O O4 0.905113 0.028128 0.832429
O O5 0.073041 0.500000 0.500000
O O6 0.073213 0.750000 0.449154
O O7 0.061063 0.515247 0.384787
O O8 0.000000 0.601478 0.455884
O O9 0.957638 0.030939 0.092624
O O10 0.000000 0.250000 0.045009
O O11 0.000000 0.000000 0.000000
O O12 0.288618 0.750000 0.831298
O O13 0.250000 0.000000 0.797940
O O14 0.300685 0.996747 0.886978
O O15 0.192411 0.750000 0.942143
O O16 0.124849 0.932092 0.932910
O O17 0.190972 0.000000 0.000000
O O18 0.950496 0.750000 0.322178
O O19 0.000000 0.521765 0.302500
O O20 0.912486 0.250000 0.140132
#
# Coordination Sequence:
#
# PCOD8278886 Si02
#       7
#    16  16   8  16  16  16  16
#     4   9  18  31  48  68  87 111 147 183 212 254
#     4   8  13  22  37  57  85 120 153 182 210 242
#     4  10  20  32  44  60  82 110 145 180 213 254
#     4  10  20  34  50  68  88 110 139 175 218 267
#     4  10  19  32  49  67  87 110 136 171 216 265
#     4   8  14  25  42  65  92 121 151 182 214 247
#     4   9  19  32  44  60  86 115 140 175 221 258
#
# _framework density 16.080074
#
# number of rings (size 3 to 8) (size 9 to 14) (size 15 to 20)
#    0.000    2.923    0.000    2.308    1.077    2.154 
#    0.000    2.308    0.000    0.923    0.000    0.000 
#    0.000    0.615    0.000    7.692    0.000    0.308 
#
# Total GULP energy -644266.296344 kJ/mol
# GULP energy per Si atom -12389.736468 kJ/mol
# Density = 1.604348 g / cm^3
# Si number density = 16.080074 Si / 1000 Ang^3
#
#
#
# Elastic Constant Matrix: (Units=GPa)
#
#
# Indices 1 2 3 4 5 6 
#
# 1 105.3473 33.5562 48.3506 0.0000 0.0000 0.0000
# 2 33.5562 37.0570 28.7949 0.0000 0.0000 0.0000
# 3 48.3506 28.7949 95.1751 0.0000 0.0000 0.0000
# 4 0.0000 0.0000 0.0000 20.5529 0.0000 0.0000
# 5 0.0000 0.0000 0.0000 0.0000 14.1448 0.0000
# 6 0.0000 0.0000 0.0000 0.0000 0.0000 18.4495
#
#
#
# Elastic Compliance Matrix: (Units=1/GPa)
#
#
# Indices 1 2 3 4 5 6 
#
# 1 0.014675 -0.009799 -0.004490 0.000000 0.000000 0.000000
# 2 -0.009799 0.041823 -0.007675 0.000000 0.000000 0.000000
# 3 -0.004490 -0.007675 0.015110 0.000000 0.000000 0.000000
# 4 0.000000 0.000000 0.000000 0.048655 0.000000 0.000000
# 5 0.000000 0.000000 0.000000 0.000000 0.070698 0.000000
# 6 0.000000 0.000000 0.000000 0.000000 0.000000 0.054202
#
#
# Mechanical properties :
#
#
# Convention : Reuss Voigt Hill
#
# Bulk Modulus (GPa) = 36.12925 50.99810 43.56367
# Shear Modulus (GPa) = 16.76065 19.08793 17.92429
#
# Velocity S-wave (km/s) = 3.23201 3.44910 3.34232
# Velocity P-wave (km/s) = 6.03696 6.90259 6.48424
#
# Compressibility (1/GPa) = 0.02767841
#
# Stress axis : x y z
#
# Youngs Moduli (GPa) = 68.14497 23.91034 66.18049
#
# Poissons Ratio (x) = 0.23430 0.29717
# Poissons Ratio (y) = 0.66776 0.50795
# Poissons Ratio (z) = 0.30599 0.18352
#
# Static dielectric constant tensor:
#      x y z
#    x 3.222280 0.000000 0.000000 
#    y 0.000000 3.032120 0.000000 
#    z 0.000000 0.000000 3.099070 
# 
# 
# High freq. dielectric constant tensor:
#      x y z
#    x 1.603580 0.000000 0.000000 
#    y 0.000000 1.609130 0.000000 
#    z 0.000000 0.000000 1.599450 
# 
# From -- ./inp_files/42944.got.cif
#   From: 2010.03.12/outbox.cif.g09.slc.cpg/sg67_22_cif.got.tgz:42944.got - 2010.04.10 22:41:39.
