data_PCOD8278586
_publ_section_title
;
Structure prediction by ZEFSAII (Michael W. Deem and Ramdas Pophale) SiO2 
 PCOD8278586
Probable space group: C M M A
;
_chemical_formula_sum "Si O2"
_cell_formula_units_Z 64
_cell_length_a 12.935510
_cell_length_b 23.555846
_cell_length_c 9.055279
_cell_angle_alpha 90.000000
_cell_angle_beta 90.000000
_cell_angle_gamma 90.000000
_cell_volume 2759.205825
_symmetry_space_group_name_H-M "C M M A"
_symmetry_group_IT_number 67
_symmetry_cell_setting 'orthorhombic'
loop_
_space_group_symop_operation_xyz
x,y,z
-x,1/2-y,z
x,-y,-z
-x,1/2+y,-z
-x,-y,-z
x,1/2+y,-z
-x,y,z
x,1/2-y,z
1/2+x,1/2+y,z
1/2-x,-y,z
1/2+x,1/2-y,-z
1/2-x,y,-z
1/2-x,1/2-y,-z
1/2+x,y,-z
1/2-x,1/2+y,z
1/2+x,-y,z
loop_
_atom_site_type_symbol
_atom_site_label
_atom_site_fract_x
_atom_site_fract_y
_atom_site_fract_z
Si Si1 0.750000 0.650871 0.500000
Si Si2 0.823320 0.418713 0.252521
Si Si3 0.500000 0.654756 0.142067
Si Si4 0.653878 0.250000 0.354983
Si Si5 0.000000 0.750000 0.617396
Si Si6 0.616978 0.967801 0.846375
Si Si7 0.000000 0.750000 0.096492
O O1 0.830491 0.609829 0.584631
O O2 0.713843 0.690491 0.636977
O O3 0.897246 0.384248 0.138623
O O4 0.704408 0.420237 0.188785
O O5 0.869471 0.481883 0.273891
O O6 0.500000 0.693601 0.286463
O O7 0.500000 0.693069 0.997287
O O8 0.597191 0.250000 0.511850
O O9 0.598677 0.250000 0.200271
O O10 0.500000 0.941782 0.840801
O O11 0.640270 0.000000 0.000000
#
# Coordination Sequence:
#
# PCOD8278586 Si02
#       7
#     8  16   8   8   4  16   4
#     4  11  24  41  68  96 138 195 234 289 362 430
#     4  11  22  42  69 101 134 191 239 283 357 427
#     4  11  22  42  73 106 138 189 235 292 362 427
#     4  10  22  43  62 100 143 176 230 296 360 418
#     4  10  18  42  70  86 142 182 220 290 354 426
#     4  10  23  44  66  99 145 186 231 303 353 408
#     4  10  26  40  70 114 138 180 240 304 354 434
#
# _framework density 23.195080000000001
#
# number of rings (size 3 to 8) (size 9 to 14) (size 15 to 20)
#    0.000    1.500    3.750    1.500    0.000    6.000 
#    6.750    2.500    0.000    0.000    0.000    0.000 
#    0.000    0.000    0.000    0.000    0.000    0.000 
#
# Total GULP energy -396441.532060 kJ/mol
# GULP energy per Si atom -12388.797877 kJ/mol
# Density = 2.314229 g / cm^3
# Si number density = 23.195080 Si / 1000 Ang^3
#
#
#
# Elastic Constant Matrix: (Units=GPa)
#
#
# Indices 1 2 3 4 5 6 
#
# 1 166.8390 56.2488 39.4154 0.0000 0.0000 0.0000
# 2 56.2488 121.1412 48.9160 0.0000 0.0000 0.0000
# 3 39.4154 48.9160 101.6056 0.0000 0.0000 0.0000
# 4 0.0000 0.0000 0.0000 -7.2326 0.0000 0.0000
# 5 0.0000 0.0000 0.0000 0.0000 45.0698 0.0000
# 6 0.0000 0.0000 0.0000 0.0000 0.0000 54.4571
#
#
#
# Elastic Compliance Matrix: (Units=1/GPa)
#
#
# Indices 1 2 3 4 5 6 
#
# 1 0.007283 -0.002781 -0.001486 0.000000 0.000000 0.000000
# 2 -0.002781 0.011309 -0.004366 0.000000 0.000000 0.000000
# 3 -0.001486 -0.004366 0.012520 0.000000 0.000000 0.000000
# 4 0.000000 0.000000 0.000000 -0.138262 0.000000 0.000000
# 5 0.000000 0.000000 0.000000 0.000000 0.022188 0.000000
# 6 0.000000 0.000000 0.000000 0.000000 0.000000 0.018363
#
#
# Mechanical properties :
#
#
# Convention : Reuss Voigt Hill
#
# Bulk Modulus (GPa) = 72.22401 75.41624 73.82012
# Shear Modulus (GPa) = -111.81101 34.79257 -38.50922
#
# Velocity S-wave (km/s) = -6.95049 3.87718 -4.07902
# Velocity P-wave (km/s) = 5.76256 7.25451 3.11615
#
# Compressibility (1/GPa) = 0.01384581
#
# Stress axis : x y z
#
# Youngs Moduli (GPa) = 137.31305 88.42434 79.87115
#
# Poissons Ratio (x) = 0.24595 0.11869
# Poissons Ratio (y) = 0.38193 0.34868
# Poissons Ratio (z) = 0.20405 0.38602
#
# Static dielectric constant tensor:
#      x y z
#    x 4.270070 0.000000 0.000000 
#    y 0.000000 4.504800 0.000000 
#    z 0.000000 0.000000 3.923750 
# 
# 
# High freq. dielectric constant tensor:
#      x y z
#    x 1.914470 0.000000 0.000000 
#    y 0.000000 1.926890 0.000000 
#    z 0.000000 0.000000 1.900240 
# 
# From -- ./inp_files/8115.got.cif
#   From: 2010.03.12/outbox.cif.g09.slc.cpg/sg67_5_cif.got.tgz:8115.got - 2010.04.10 22:41:39.
