data_PCOD8278556
_publ_section_title
;
Structure prediction by ZEFSAII (Michael W. Deem and Ramdas Pophale) SiO2 
 PCOD8278556
Probable space group: C M M A
;
_chemical_formula_sum "Si O2"
_cell_formula_units_Z 96
_cell_length_a 23.859251
_cell_length_b 8.672529
_cell_length_c 25.409708
_cell_angle_alpha 90.000000
_cell_angle_beta 90.000000
_cell_angle_gamma 90.000000
_cell_volume 5257.777954
_symmetry_space_group_name_H-M "C M M A"
_symmetry_group_IT_number 67
_symmetry_cell_setting 'orthorhombic'
loop_
_space_group_symop_operation_xyz
x,y,z
-x,1/2-y,z
x,-y,-z
-x,1/2+y,-z
-x,-y,-z
x,1/2+y,-z
-x,y,z
x,1/2-y,z
1/2+x,1/2+y,z
1/2-x,-y,z
1/2+x,1/2-y,-z
1/2-x,y,-z
1/2-x,1/2-y,-z
1/2+x,y,-z
1/2-x,1/2+y,z
1/2+x,-y,z
loop_
_atom_site_type_symbol
_atom_site_label
_atom_site_fract_x
_atom_site_fract_y
_atom_site_fract_z
Si Si1 0.064031 0.932188 0.555820
Si Si2 0.886698 0.928321 0.344332
Si Si3 0.688473 0.932800 0.256619
Si Si4 0.379178 0.433708 0.845221
Si Si5 0.500000 0.076040 0.282978
Si Si6 0.000000 0.928607 0.824850
Si Si7 0.688752 0.433285 0.945908
O O1 0.069185 0.750000 0.554390
O O2 0.000000 0.983403 0.568820
O O3 0.082581 0.000000 0.500000
O O4 0.108064 0.998635 0.597944
O O5 0.870691 0.750000 0.349139
O O6 0.946018 0.955801 0.317457
O O7 0.838309 0.011842 0.311263
O O8 0.691774 0.750000 0.256322
O O9 0.651821 0.995363 0.207206
O O10 0.750000 0.000000 0.250301
O O11 0.380219 0.250000 0.843136
O O12 0.442640 0.501850 0.847954
O O13 0.348521 0.492864 0.897513
O O14 0.500000 0.250000 0.260028
O O15 0.500000 0.950433 0.237469
O O16 0.000000 0.750000 0.838297
O O17 0.691544 0.250000 0.949087
O O18 0.750000 0.500000 0.936742
O O19 0.662793 0.500000 0.000000
#
# Coordination Sequence:
#
# PCOD8278556 Si02
#       7
#    16  16  16  16   8   8  16
#     4  10  20  33  52  79 111 146 183 224 269 319
#     4  11  21  35  54  79 112 146 179 222 269 321
#     4  11  22  37  55  80 107 141 181 223 271 321
#     4   9  19  33  54  79 106 137 176 217 264 319
#     4  10  20  32  49  78 111 142 176 217 268 315
#     4  10  18  34  55  76 104 142 178 213 257 323
#     4  10  19  34  53  77 102 134 176 221 267 314
#
# _framework density 18.258665000000001
#
# number of rings (size 3 to 8) (size 9 to 14) (size 15 to 20)
#    0.000    1.833    2.500    3.000    0.000    1.333 
#    0.000    4.583    0.000    0.500    0.000    3.500 
#    0.000    0.000    0.000    0.000    0.000    0.000 
#
# Total GULP energy -595195.566520 kJ/mol
# GULP energy per Si atom -12399.907636 kJ/mol
# Density = 1.821711 g / cm^3
# Si number density = 18.258665 Si / 1000 Ang^3
#
#
#
# Elastic Constant Matrix: (Units=GPa)
#
#
# Indices 1 2 3 4 5 6 
#
# 1 123.1551 33.2390 71.8699 0.0000 0.0000 0.0000
# 2 33.2390 64.2750 38.3733 0.0000 0.0000 0.0000
# 3 71.8699 38.3733 155.3492 0.0000 0.0000 0.0000
# 4 0.0000 0.0000 0.0000 26.2132 0.0000 0.0000
# 5 0.0000 0.0000 0.0000 0.0000 56.2888 0.0000
# 6 0.0000 0.0000 0.0000 0.0000 0.0000 20.8172
#
#
#
# Elastic Compliance Matrix: (Units=1/GPa)
#
#
# Indices 1 2 3 4 5 6 
#
# 1 0.011692 -0.003304 -0.004593 0.000000 0.000000 0.000000
# 2 -0.003304 0.019183 -0.003210 0.000000 0.000000 0.000000
# 3 -0.004593 -0.003210 0.009355 0.000000 0.000000 0.000000
# 4 0.000000 0.000000 0.000000 0.038149 0.000000 0.000000
# 5 0.000000 0.000000 0.000000 0.000000 0.017766 0.000000
# 6 0.000000 0.000000 0.000000 0.000000 0.000000 0.048037
#
#
# Mechanical properties :
#
#
# Convention : Reuss Voigt Hill
#
# Bulk Modulus (GPa) = 55.50635 69.97151 62.73893
# Shear Modulus (GPa) = 29.00218 33.95031 31.47624
#
# Velocity S-wave (km/s) = 3.98981 4.31676 4.15650
# Velocity P-wave (km/s) = 7.18963 7.95308 7.58097
#
# Compressibility (1/GPa) = 0.01801596
#
# Stress axis : x y z
#
# Youngs Moduli (GPa) = 85.52905 52.12882 106.89697
#
# Poissons Ratio (x) = 0.17225 0.49097
# Poissons Ratio (y) = 0.28261 0.34312
# Poissons Ratio (z) = 0.39282 0.16732
#
# Static dielectric constant tensor:
#      x y z
#    x 3.440370 0.000000 0.000000 
#    y 0.000000 3.266490 0.000000 
#    z 0.000000 0.000000 3.501850 
# 
# 
# High freq. dielectric constant tensor:
#      x y z
#    x 1.696280 0.000000 0.000000 
#    y 0.000000 1.702490 0.000000 
#    z 0.000000 0.000000 1.710460 
# 
# From -- ./inp_files/42613.got.cif
#   From: 2010.03.12/outbox.cif.g09.slc.cpg/sg67_22_cif.got.tgz:42613.got - 2010.04.10 22:41:39.
