data_PCOD8278493
_publ_section_title
;
Structure prediction by ZEFSAII (Michael W. Deem and Ramdas Pophale) SiO2 
 PCOD8278493
Probable space group: C M M A
;
_chemical_formula_sum "Si O2"
_cell_formula_units_Z 128
_cell_length_a 18.244418
_cell_length_b 20.889764
_cell_length_c 19.128577
_cell_angle_alpha 90.000000
_cell_angle_beta 90.000000
_cell_angle_gamma 90.000000
_cell_volume 7290.313611
_symmetry_space_group_name_H-M "C M M A"
_symmetry_group_IT_number 67
_symmetry_cell_setting 'orthorhombic'
loop_
_space_group_symop_operation_xyz
x,y,z
-x,1/2-y,z
x,-y,-z
-x,1/2+y,-z
-x,-y,-z
x,1/2+y,-z
-x,y,z
x,1/2-y,z
1/2+x,1/2+y,z
1/2-x,-y,z
1/2+x,1/2-y,-z
1/2-x,y,-z
1/2-x,1/2-y,-z
1/2+x,y,-z
1/2-x,1/2+y,z
1/2+x,-y,z
loop_
_atom_site_type_symbol
_atom_site_label
_atom_site_fract_x
_atom_site_fract_y
_atom_site_fract_z
Si Si1 0.416558 0.412537 0.291062
Si Si2 0.779804 0.179663 0.196790
Si Si3 0.419430 0.004276 0.082551
Si Si4 0.305120 0.558984 0.831472
Si Si5 0.802309 0.678276 0.340738
Si Si6 0.273726 0.932879 0.420393
Si Si7 0.417505 0.396785 0.804206
Si Si8 0.581838 0.045217 0.652973
O O1 0.500000 0.400715 0.264519
O O2 0.363437 0.436794 0.230360
O O3 0.383939 0.346233 0.321139
O O4 0.416142 0.467754 0.350312
O O5 0.765356 0.250000 0.163864
O O6 0.738318 0.124395 0.154513
O O7 0.752447 0.178330 0.275895
O O8 0.866207 0.165448 0.193965
O O9 0.500000 0.029196 0.106286
O O10 0.402851 0.939588 0.126612
O O11 0.353410 0.052288 0.098867
O O12 0.418609 0.000000 0.000000
O O13 0.250000 0.500000 0.817115
O O14 0.809306 0.750000 0.372053
O O15 0.768627 0.629609 0.395777
O O16 0.250000 0.939220 0.500000
O O17 0.360556 0.925134 0.402898
O O18 0.250000 0.000000 0.382499
O O19 0.500000 0.371002 0.804045
O O20 0.399885 0.435725 0.733178
O O21 0.500000 0.069365 0.632130
#
# Coordination Sequence:
#
# PCOD8278493 Si02
#       8
#    16  16  16  16  16  16  16  16
#     4  10  19  31  53  80 107 140 178 221 272 317
#     4  10  20  33  51  81 111 138 180 230 273 320
#     4  10  20  33  52  83 116 141 179 230 278 333
#     4  11  19  31  54  80 108 144 180 228 273 324
#     4  10  21  35  54  77 109 144 178 221 272 324
#     4  11  22  36  56  82 109 141 182 228 278 333
#     4  10  18  32  55  81 107 144 182 223 280 325
#     4  10  18  32  57  84 108 137 181 230 275 325
#
# _framework density 17.557542999999999
#
# number of rings (size 3 to 8) (size 9 to 14) (size 15 to 20)
#    0.000    1.750    5.000    0.375    1.750    1.000 
#    0.000    1.875    0.000    3.000    0.000    1.750 
#    0.000    0.000    0.000    0.000    0.000    0.000 
#
# Total GULP energy -792940.271406 kJ/mol
# GULP energy per Si atom -12389.691741 kJ/mol
# Density = 1.751758 g / cm^3
# Si number density = 17.557543 Si / 1000 Ang^3
#
#
#
# Elastic Constant Matrix: (Units=GPa)
#
#
# Indices 1 2 3 4 5 6 
#
# 1 149.2194 67.2010 44.4098 0.0000 0.0000 0.0000
# 2 67.2010 133.4488 30.6883 0.0000 0.0000 0.0000
# 3 44.4098 30.6883 61.0395 0.0000 0.0000 0.0000
# 4 0.0000 0.0000 0.0000 7.1419 0.0000 0.0000
# 5 0.0000 0.0000 0.0000 0.0000 22.2697 0.0000
# 6 0.0000 0.0000 0.0000 0.0000 0.0000 15.3915
#
#
#
# Elastic Compliance Matrix: (Units=1/GPa)
#
#
# Indices 1 2 3 4 5 6 
#
# 1 0.010015 -0.003808 -0.005372 0.000000 0.000000 0.000000
# 2 -0.003808 0.009921 -0.002217 0.000000 0.000000 0.000000
# 3 -0.005372 -0.002217 0.021406 0.000000 0.000000 0.000000
# 4 0.000000 0.000000 0.000000 0.140019 0.000000 0.000000
# 5 0.000000 0.000000 0.000000 0.000000 0.044904 0.000000
# 6 0.000000 0.000000 0.000000 0.000000 0.000000 0.064971
#
#
# Mechanical properties :
#
#
# Convention : Reuss Voigt Hill
#
# Bulk Modulus (GPa) = 53.91584 69.81177 61.86381
# Shear Modulus (GPa) = 15.61455 22.38786 19.00120
#
# Velocity S-wave (km/s) = 2.98541 3.57475 3.29329
# Velocity P-wave (km/s) = 6.53133 7.54231 7.05495
#
# Compressibility (1/GPa) = 0.01854742
#
# Stress axis : x y z
#
# Youngs Moduli (GPa) = 99.84692 100.79603 46.71533
#
# Poissons Ratio (x) = 0.38383 0.25097
# Poissons Ratio (y) = 0.38022 0.10358
# Poissons Ratio (z) = 0.53640 0.22350
#
# Static dielectric constant tensor:
#      x y z
#    x 3.695060 0.000000 0.000000 
#    y 0.000000 3.380400 0.000000 
#    z 0.000000 0.000000 2.974200 
# 
# 
# High freq. dielectric constant tensor:
#      x y z
#    x 1.701030 0.000000 0.000000 
#    y 0.000000 1.659880 0.000000 
#    z 0.000000 0.000000 1.643450 
# 
# From -- ./inp_files/39125.got.cif
#   From: 2010.03.12/outbox.cif.g09.slc.cpg/sg67_20_cif.got.tgz:39125.got - 2010.04.10 22:41:39.
