data_PCOD8278778
_publ_section_title
;
Structure prediction by ZEFSAII (Michael W. Deem and Ramdas Pophale) SiO2 
 PCOD8278778
Probable space group: C M M A
;
_chemical_formula_sum "Si O2"
_cell_formula_units_Z 96
_cell_length_a 9.122571
_cell_length_b 27.186778
_cell_length_c 23.802364
_cell_angle_alpha 90.000000
_cell_angle_beta 90.000000
_cell_angle_gamma 90.000000
_cell_volume 5903.303143
_symmetry_space_group_name_H-M "C M M A"
_symmetry_group_IT_number 67
_symmetry_cell_setting 'orthorhombic'
loop_
_space_group_symop_operation_xyz
x,y,z
-x,1/2-y,z
x,-y,-z
-x,1/2+y,-z
-x,-y,-z
x,1/2+y,-z
-x,y,z
x,1/2-y,z
1/2+x,1/2+y,z
1/2-x,-y,z
1/2+x,1/2-y,-z
1/2-x,y,-z
1/2-x,1/2-y,-z
1/2+x,y,-z
1/2-x,1/2+y,z
1/2+x,-y,z
loop_
_atom_site_type_symbol
_atom_site_label
_atom_site_fract_x
_atom_site_fract_y
_atom_site_fract_z
Si Si1 0.331380 0.897751 0.055965
Si Si2 0.327780 0.357913 0.220717
Si Si3 0.830291 0.693887 0.336257
Si Si4 0.169513 0.305625 0.124604
Si Si5 0.834836 0.808596 0.554016
Si Si6 0.673204 0.949069 0.170596
O O1 0.500000 0.900843 0.040906
O O2 0.286720 0.842231 0.073963
O O3 0.290561 0.934669 0.106350
O O4 0.250000 0.914443 0.000000
O O5 0.500000 0.365907 0.210342
O O6 0.293668 0.339899 0.283251
O O7 0.269949 0.316129 0.178377
O O8 0.240808 0.408491 0.211962
O O9 0.784595 0.750000 0.322309
O O10 0.740652 0.672503 0.388942
O O11 0.000000 0.691429 0.352563
O O12 0.195610 0.250000 0.104027
O O13 0.000000 0.315199 0.141612
O O14 0.829975 0.750000 0.552595
O O15 0.750000 0.830131 0.500000
O O16 0.000000 0.828604 0.552332
O O17 0.500000 0.952587 0.181013
O O18 0.750000 0.000000 0.185244
#
# Coordination Sequence:
#
# PCOD8278778 Si02
#       6
#    16  16  16  16  16  16
#     4   9  19  33  48  68  92 117 147 183 222 268
#     4  10  19  31  48  70  94 119 151 190 230 273
#     4   9  17  28  42  63  93 126 158 191 224 261
#     4   9  18  32  47  64  91 125 156 187 224 265
#     4   9  16  25  38  57  84 121 162 198 230 263
#     4  10  21  37  54  71  91 115 144 181 229 280
#
# _framework density 16.262081999999999
#
# number of rings (size 3 to 8) (size 9 to 14) (size 15 to 20)
#    0.000    2.667    0.000    3.000    0.000    8.333 
#    0.000    3.333    0.000    0.000    0.000    0.000 
#    0.000    0.667    0.000    7.000    0.000    3.333 
#
# Total GULP energy -595200.953093 kJ/mol
# GULP energy per Si atom -12400.019856 kJ/mol
# Density = 1.622507 g / cm^3
# Si number density = 16.262082 Si / 1000 Ang^3
#
#
#
# Elastic Constant Matrix: (Units=GPa)
#
#
# Indices 1 2 3 4 5 6 
#
# 1 90.6375 34.0009 61.7853 0.0000 0.0000 0.0000
# 2 34.0009 72.6942 27.1930 0.0000 0.0000 0.0000
# 3 61.7853 27.1930 109.4407 0.0000 0.0000 0.0000
# 4 0.0000 0.0000 0.0000 11.7573 0.0000 0.0000
# 5 0.0000 0.0000 0.0000 0.0000 32.7212 0.0000
# 6 0.0000 0.0000 0.0000 0.0000 0.0000 20.8530
#
#
#
# Elastic Compliance Matrix: (Units=1/GPa)
#
#
# Indices 1 2 3 4 5 6 
#
# 1 0.019809 -0.005603 -0.009791 0.000000 0.000000 0.000000
# 2 -0.005603 0.016750 -0.000999 0.000000 0.000000 0.000000
# 3 -0.009791 -0.000999 0.014913 0.000000 0.000000 0.000000
# 4 0.000000 0.000000 0.000000 0.085054 0.000000 0.000000
# 5 0.000000 0.000000 0.000000 0.000000 0.030561 0.000000
# 6 0.000000 0.000000 0.000000 0.000000 0.000000 0.047955
#
#
# Mechanical properties :
#
#
# Convention : Reuss Voigt Hill
#
# Bulk Modulus (GPa) = 53.51288 57.63677 55.57482
# Shear Modulus (GPa) = 19.68061 23.05251 21.36656
#
# Velocity S-wave (km/s) = 3.48259 3.76914 3.62869
# Velocity P-wave (km/s) = 7.01065 7.37979 7.19758
#
# Compressibility (1/GPa) = 0.01868709
#
# Stress axis : x y z
#
# Youngs Moduli (GPa) = 50.48180 59.69995 67.05421
#
# Poissons Ratio (x) = 0.33447 0.65654
# Poissons Ratio (y) = 0.28283 0.06699
# Poissons Ratio (z) = 0.49428 0.05964
#
# Static dielectric constant tensor:
#      x y z
#    x 3.169190 0.000000 0.000000 
#    y 0.000000 2.852090 0.000000 
#    z 0.000000 0.000000 3.004650 
# 
# 
# High freq. dielectric constant tensor:
#      x y z
#    x 1.636960 0.000000 0.000000 
#    y 0.000000 1.593300 0.000000 
#    z 0.000000 0.000000 1.617800 
# 
# From -- ./inp_files/37168.got.cif
#   From: 2010.03.12/outbox.cif.g09.slc.cpg/sg67_19_cif.got.tgz:37168.got - 2010.04.10 22:41:39.
