data_PCOD8278086
_publ_section_title
;
Structure prediction by ZEFSAII (Michael W. Deem and Ramdas Pophale) SiO2 
 PCOD8278086
Probable space group: C M M A
;
_chemical_formula_sum "Si O2"
_cell_formula_units_Z 64
_cell_length_a 30.687710
_cell_length_b 8.537553
_cell_length_c 15.241899
_cell_angle_alpha 90.000000
_cell_angle_beta 90.000000
_cell_angle_gamma 90.000000
_cell_volume 3993.346301
_symmetry_space_group_name_H-M "C M M A"
_symmetry_group_IT_number 67
_symmetry_cell_setting 'orthorhombic'
loop_
_space_group_symop_operation_xyz
x,y,z
-x,1/2-y,z
x,-y,-z
-x,1/2+y,-z
-x,-y,-z
x,1/2+y,-z
-x,y,z
x,1/2-y,z
1/2+x,1/2+y,z
1/2-x,-y,z
1/2+x,1/2-y,-z
1/2-x,y,-z
1/2-x,1/2-y,-z
1/2+x,y,-z
1/2-x,1/2+y,z
1/2+x,-y,z
loop_
_atom_site_type_symbol
_atom_site_label
_atom_site_fract_x
_atom_site_fract_y
_atom_site_fract_z
Si Si1 0.952820 0.566925 0.903449
Si Si2 0.365238 0.565643 0.901803
Si Si3 0.798174 0.065454 0.233004
Si Si4 0.201309 0.935029 0.411915
O O1 0.941687 0.750000 0.907836
O O2 0.912176 0.478361 0.857343
O O3 0.000000 0.539006 0.855619
O O4 0.957204 0.500000 0.000000
O O5 0.357929 0.750000 0.900695
O O6 0.326993 0.482798 0.849182
O O7 0.363853 0.500000 0.000000
O O8 0.795461 0.250000 0.241801
O O9 0.750000 0.000000 0.217648
O O10 0.820520 0.996163 0.321880
O O11 0.201009 0.750000 0.413911
O O12 0.177340 0.000000 0.500000
O O13 0.250000 0.000000 0.411283
#
# Coordination Sequence:
#
# PCOD8278086 Si02
#       4
#    16  16  16  16
#     4   9  16  27  44  65  87 112 143 181 225 268
#     4  11  21  33  47  65  89 120 155 189 225 265
#     4  11  21  34  48  65  89 119 154 190 226 265
#     4  10  17  28  45  66  88 113 144 181 225 268
#
# _framework density 16.02666
#
# number of rings (size 3 to 8) (size 9 to 14) (size 15 to 20)
#    0.000    1.750    0.000   11.250    0.000    2.000 
#    0.000    2.500    0.000    0.000    0.000    0.000 
#    0.000    1.000    0.000    3.750    0.000    6.750 
#
# Total GULP energy -396530.602575 kJ/mol
# GULP energy per Si atom -12391.581330 kJ/mol
# Density = 1.599018 g / cm^3
# Si number density = 16.026660 Si / 1000 Ang^3
#
#
#
# Elastic Constant Matrix: (Units=GPa)
#
#
# Indices 1 2 3 4 5 6 
#
# 1 82.9541 32.0952 38.9627 0.0000 0.0000 0.0000
# 2 32.0952 144.7922 31.8757 0.0000 0.0000 0.0000
# 3 38.9627 31.8757 72.6261 0.0000 0.0000 0.0000
# 4 0.0000 0.0000 0.0000 26.4255 0.0000 0.0000
# 5 0.0000 0.0000 0.0000 0.0000 0.5683 0.0000
# 6 0.0000 0.0000 0.0000 0.0000 0.0000 23.9479
#
#
#
# Elastic Compliance Matrix: (Units=1/GPa)
#
#
# Indices 1 2 3 4 5 6 
#
# 1 0.016575 -0.001900 -0.008058 0.000000 0.000000 0.000000
# 2 -0.001900 0.007863 -0.002432 0.000000 0.000000 0.000000
# 3 -0.008058 -0.002432 0.019160 0.000000 0.000000 0.000000
# 4 0.000000 0.000000 0.000000 0.037842 0.000000 0.000000
# 5 0.000000 0.000000 0.000000 0.000000 1.759741 0.000000
# 6 0.000000 0.000000 0.000000 0.000000 0.000000 0.041757
#
#
# Mechanical properties :
#
#
# Convention : Reuss Voigt Hill
#
# Bulk Modulus (GPa) = 53.14231 56.24886 54.69558
# Shear Modulus (GPa) = 2.61234 23.35091 12.98162
#
# Velocity S-wave (km/s) = 1.27810 3.82121 2.84914
# Velocity P-wave (km/s) = 5.95052 7.39203 6.71010
#
# Compressibility (1/GPa) = 0.01881740
#
# Stress axis : x y z
#
# Youngs Moduli (GPa) = 60.33235 127.17856 52.19334
#
# Poissons Ratio (x) = 0.24165 0.42058
# Poissons Ratio (y) = 0.11463 0.12692
# Poissons Ratio (z) = 0.48617 0.30926
#
# Static dielectric constant tensor:
#      x y z
#    x 3.350900 0.000000 0.000000 
#    y 0.000000 3.292340 0.000000 
#    z 0.000000 0.000000 3.404670 
# 
# 
# High freq. dielectric constant tensor:
#      x y z
#    x 1.590390 0.000000 0.000000 
#    y 0.000000 1.644770 0.000000 
#    z 0.000000 0.000000 1.587900 
# 
# From -- ./inp_files/25205.got.cif
#   From: 2010.03.12/outbox.cif.g09.slc.cpg/sg67_13_cif.got.tgz:25205.got - 2010.04.10 22:41:39.
