data_PCOD8278627
_publ_section_title
;
Structure prediction by ZEFSAII (Michael W. Deem and Ramdas Pophale) SiO2 
 PCOD8278627
Probable space group: C M M A
;
_chemical_formula_sum "Si O2"
_cell_formula_units_Z 128
_cell_length_a 17.546356
_cell_length_b 24.983610
_cell_length_c 19.128931
_cell_angle_alpha 90.000000
_cell_angle_beta 90.000000
_cell_angle_gamma 90.000000
_cell_volume 8385.574641
_symmetry_space_group_name_H-M "C M M A"
_symmetry_group_IT_number 67
_symmetry_cell_setting 'orthorhombic'
loop_
_space_group_symop_operation_xyz
x,y,z
-x,1/2-y,z
x,-y,-z
-x,1/2+y,-z
-x,-y,-z
x,1/2+y,-z
-x,y,z
x,1/2-y,z
1/2+x,1/2+y,z
1/2-x,-y,z
1/2+x,1/2-y,-z
1/2-x,y,-z
1/2-x,1/2-y,-z
1/2+x,y,-z
1/2-x,1/2+y,z
1/2+x,-y,z
loop_
_atom_site_type_symbol
_atom_site_label
_atom_site_fract_x
_atom_site_fract_y
_atom_site_fract_z
Si Si1 0.177351 0.810903 0.451517
Si Si2 0.685095 0.958506 0.381969
Si Si3 0.414392 0.092224 0.498086
Si Si4 0.276520 0.186625 0.171268
Si Si5 0.210466 0.372386 0.685170
Si Si6 0.085736 0.048168 0.655057
Si Si7 0.583747 0.186404 0.074075
Si Si8 0.182364 0.313292 0.046278
O O1 0.148494 0.750000 0.451658
O O2 0.250000 0.819190 0.500000
O O3 0.108628 0.846909 0.480655
O O4 0.199657 0.827086 0.373114
O O5 0.645209 0.933116 0.448996
O O6 0.720817 0.911600 0.335529
O O7 0.750000 0.000000 0.407712
O O8 0.624069 0.990006 0.333435
O O9 0.500000 0.092159 0.529400
O O10 0.411523 0.057231 0.428176
O O11 0.278990 0.250000 0.185216
O O12 0.268475 0.155866 0.243232
O O13 0.353376 0.167739 0.130696
O O14 0.200272 0.169814 0.126495
O O15 0.132340 0.405742 0.694988
O O16 0.000000 0.048448 0.684445
O O17 0.500000 0.162523 0.092059
O O18 0.580743 0.250000 0.075912
O O19 0.605331 0.167686 0.993835
O O20 0.186428 0.250000 0.043770
O O21 0.250000 0.337479 0.000000
#
# Coordination Sequence:
#
# PCOD8278627 Si02
#       8
#    16  16  16  16  16  16  16  16
#     4  10  19  31  45  61  85 119 157 190 218 250
#     4  10  19  30  46  64  84 107 139 186 236 279
#     4  10  19  31  48  68  84 104 140 187 238 280
#     4   9  16  26  40  61  91 123 150 174 202 242
#     4  10  19  29  44  64  87 116 150 182 217 263
#     4   9  19  31  45  64  84 104 132 181 242 290
#     4   8  13  22  39  63  87 115 147 174 205 244
#     4   7  11  21  37  57  82 111 141 171 201 236
#
# _framework density 15.264309000000001
#
# number of rings (size 3 to 8) (size 9 to 14) (size 15 to 20)
#    0.000    2.875    1.250    2.625    0.000    4.250 
#    0.000    0.000    0.000    3.750    0.000    0.000 
#    0.000   40.500    0.000   20.250    0.000    1.125 
#
# Total GULP energy -792892.439445 kJ/mol
# GULP energy per Si atom -12388.944366 kJ/mol
# Density = 1.522957 g / cm^3
# Si number density = 15.264309 Si / 1000 Ang^3
#
#
#
# Elastic Constant Matrix: (Units=GPa)
#
#
# Indices 1 2 3 4 5 6 
#
# 1 71.7780 31.3499 26.6589 0.0000 0.0000 0.0000
# 2 31.3499 61.8064 32.3896 0.0000 0.0000 0.0000
# 3 26.6589 32.3896 81.9934 0.0000 0.0000 0.0000
# 4 0.0000 0.0000 0.0000 5.8300 0.0000 0.0000
# 5 0.0000 0.0000 0.0000 0.0000 15.0632 0.0000
# 6 0.0000 0.0000 0.0000 0.0000 0.0000 10.8183
#
#
#
# Elastic Compliance Matrix: (Units=1/GPa)
#
#
# Indices 1 2 3 4 5 6 
#
# 1 0.018427 -0.007827 -0.002899 0.000000 0.000000 0.000000
# 2 -0.007827 0.023728 -0.006828 0.000000 0.000000 0.000000
# 3 -0.002899 -0.006828 0.015836 0.000000 0.000000 0.000000
# 4 0.000000 0.000000 0.000000 0.171528 0.000000 0.000000
# 5 0.000000 0.000000 0.000000 0.000000 0.066387 0.000000
# 6 0.000000 0.000000 0.000000 0.000000 0.000000 0.092436
#
#
# Mechanical properties :
#
#
# Convention : Reuss Voigt Hill
#
# Bulk Modulus (GPa) = 43.70333 44.04163 43.87248
# Shear Modulus (GPa) = 11.59878 14.68760 13.14319
#
# Velocity S-wave (km/s) = 2.75955 3.10533 2.93753
# Velocity P-wave (km/s) = 6.23271 6.46318 6.34899
#
# Compressibility (1/GPa) = 0.02288155
#
# Stress axis : x y z
#
# Youngs Moduli (GPa) = 54.26697 42.14394 63.14675
#
# Poissons Ratio (x) = 0.32988 0.18308
# Poissons Ratio (y) = 0.42477 0.43118
# Poissons Ratio (z) = 0.15734 0.28777
#
# Static dielectric constant tensor:
#      x y z
#    x 3.264560 0.000000 0.000000 
#    y 0.000000 2.761480 0.000000 
#    z 0.000000 0.000000 2.761320 
# 
# 
# High freq. dielectric constant tensor:
#      x y z
#    x 1.587170 0.000000 0.000000 
#    y 0.000000 1.558120 0.000000 
#    z 0.000000 0.000000 1.560680 
# 
# From -- ./inp_files/34554.got.cif
#   From: 2010.03.12/outbox.cif.g09.slc.cpg/sg67_18_cif.got.tgz:34554.got - 2010.04.10 22:41:39.
