data_PCOD8278060
_publ_section_title
;
Structure prediction by ZEFSAII (Michael W. Deem and Ramdas Pophale) SiO2 
 PCOD8278060
Probable space group: C M M A
;
_chemical_formula_sum "Si O2"
_cell_formula_units_Z 88
_cell_length_a 27.184107
_cell_length_b 8.789380
_cell_length_c 19.481151
_cell_angle_alpha 90.000000
_cell_angle_beta 90.000000
_cell_angle_gamma 90.000000
_cell_volume 4654.659586
_symmetry_space_group_name_H-M "C M M A"
_symmetry_group_IT_number 67
_symmetry_cell_setting 'orthorhombic'
loop_
_space_group_symop_operation_xyz
x,y,z
-x,1/2-y,z
x,-y,-z
-x,1/2+y,-z
-x,-y,-z
x,1/2+y,-z
-x,y,z
x,1/2-y,z
1/2+x,1/2+y,z
1/2-x,-y,z
1/2+x,1/2-y,-z
1/2-x,y,-z
1/2-x,1/2-y,-z
1/2+x,y,-z
1/2-x,1/2+y,z
1/2+x,-y,z
loop_
_atom_site_type_symbol
_atom_site_label
_atom_site_fract_x
_atom_site_fract_y
_atom_site_fract_z
Si Si1 0.297955 0.569757 0.195533
Si Si2 0.396530 0.570139 0.812241
Si Si3 0.443026 0.417691 0.933937
Si Si4 0.406054 0.428888 0.342596
Si Si5 0.797917 0.929571 0.346116
Si Si6 0.500000 0.068152 0.425110
O O1 0.295762 0.750000 0.195687
O O2 0.250000 0.500000 0.157360
O O3 0.346903 0.508692 0.158929
O O4 0.298509 0.503962 0.271971
O O5 0.389938 0.750000 0.811634
O O6 0.438128 0.518817 0.865247
O O7 0.409329 0.509129 0.735608
O O8 0.500000 0.397835 0.948934
O O9 0.419062 0.250000 0.924462
O O10 0.418307 0.500000 0.000000
O O11 0.412933 0.250000 0.339467
O O12 0.352363 0.467730 0.377457
O O13 0.451129 0.496388 0.386828
O O14 0.790452 0.750000 0.340219
O O15 0.750000 0.000000 0.386783
O O16 0.500000 0.250000 0.428789
O O17 0.500000 0.000000 0.500000
#
# Coordination Sequence:
#
# PCOD8278060 Si02
#       6
#    16  16  16  16  16   8
#     4  10  17  27  44  69 102 136 167 207 255 305
#     4  10  19  32  52  78 102 132 172 215 259 307
#     4  10  21  36  52  73 102 137 173 213 259 309
#     4   8  17  31  51  75 102 133 172 210 256 311
#     4   9  15  26  44  71 100 131 165 208 257 309
#     4  10  20  38  56  74 101 138 173 210 253 308
#
# _framework density 18.905785999999999
#
# number of rings (size 3 to 8) (size 9 to 14) (size 15 to 20)
#    0.000    2.545    0.000    5.455    1.273    1.091 
#    0.000    5.455    0.000    1.091    0.000    7.636 
#    0.000    0.000    0.000    0.000    0.000    0.000 
#
# Total GULP energy -545094.127486 kJ/mol
# GULP energy per Si atom -12388.502897 kJ/mol
# Density = 1.886276 g / cm^3
# Si number density = 18.905786 Si / 1000 Ang^3
#
#
#
# Elastic Constant Matrix: (Units=GPa)
#
#
# Indices 1 2 3 4 5 6 
#
# 1 121.9720 43.9868 50.9002 0.0000 0.0000 0.0000
# 2 43.9868 105.7140 26.2886 0.0000 0.0000 0.0000
# 3 50.9002 26.2886 81.4606 0.0000 0.0000 0.0000
# 4 0.0000 0.0000 0.0000 21.7721 0.0000 0.0000
# 5 0.0000 0.0000 0.0000 0.0000 6.5034 0.0000
# 6 0.0000 0.0000 0.0000 0.0000 0.0000 28.0833
#
#
#
# Elastic Compliance Matrix: (Units=1/GPa)
#
#
# Indices 1 2 3 4 5 6 
#
# 1 0.012143 -0.003442 -0.006476 0.000000 0.000000 0.000000
# 2 -0.003442 0.011260 -0.001483 0.000000 0.000000 0.000000
# 3 -0.006476 -0.001483 0.016801 0.000000 0.000000 0.000000
# 4 0.000000 0.000000 0.000000 0.045930 0.000000 0.000000
# 5 0.000000 0.000000 0.000000 0.000000 0.153766 0.000000
# 6 0.000000 0.000000 0.000000 0.000000 0.000000 0.035608
#
#
# Mechanical properties :
#
#
# Convention : Reuss Voigt Hill
#
# Bulk Modulus (GPa) = 57.46764 61.27755 59.37259
# Shear Modulus (GPa) = 16.44126 23.80316 20.12221
#
# Velocity S-wave (km/s) = 2.95217 3.55215 3.26596
# Velocity P-wave (km/s) = 6.48716 7.02183 6.75978
#
# Compressibility (1/GPa) = 0.01740110
#
# Stress axis : x y z
#
# Youngs Moduli (GPa) = 82.35506 88.80616 59.51911
#
# Poissons Ratio (x) = 0.30566 0.38547
# Poissons Ratio (y) = 0.28346 0.08828
# Poissons Ratio (z) = 0.53337 0.13173
#
# Static dielectric constant tensor:
#      x y z
#    x 4.598120 0.000000 0.000000 
#    y 0.000000 3.501030 0.000000 
#    z 0.000000 0.000000 3.068410 
# 
# 
# High freq. dielectric constant tensor:
#      x y z
#    x 1.749960 0.000000 0.000000 
#    y 0.000000 1.731610 0.000000 
#    z 0.000000 0.000000 1.680430 
# 
# From -- ./inp_files/36199.got.cif
#   From: 2010.03.12/outbox.cif.g09.slc.cpg/sg67_19_cif.got.tgz:36199.got - 2010.04.10 22:41:39.
