data_PCOD8278017
_publ_section_title
;
Structure prediction by ZEFSAII (Michael W. Deem and Ramdas Pophale) SiO2 
 PCOD8278017
Probable space group: C M M A
;
_chemical_formula_sum "Si O2"
_cell_formula_units_Z 56
_cell_length_a 31.003442
_cell_length_b 8.592583
_cell_length_c 14.011802
_cell_angle_alpha 90.000000
_cell_angle_beta 90.000000
_cell_angle_gamma 90.000000
_cell_volume 3732.739130
_symmetry_space_group_name_H-M "C M M A"
_symmetry_group_IT_number 67
_symmetry_cell_setting 'orthorhombic'
loop_
_space_group_symop_operation_xyz
x,y,z
-x,1/2-y,z
x,-y,-z
-x,1/2+y,-z
-x,-y,-z
x,1/2+y,-z
-x,y,z
x,1/2-y,z
1/2+x,1/2+y,z
1/2-x,-y,z
1/2+x,1/2-y,-z
1/2-x,y,-z
1/2-x,1/2-y,-z
1/2+x,y,-z
1/2-x,1/2+y,z
1/2+x,-y,z
loop_
_atom_site_type_symbol
_atom_site_label
_atom_site_fract_x
_atom_site_fract_y
_atom_site_fract_z
Si Si1 0.047673 0.426322 0.267048
Si Si2 0.380516 0.567645 0.604495
Si Si3 0.706882 0.066020 0.606381
Si Si4 0.500000 0.565473 0.894646
O O1 0.065416 0.250000 0.259186
O O2 0.079220 0.531495 0.328726
O O3 0.042637 0.501423 0.161018
O O4 0.000000 0.427176 0.316028
O O5 0.389667 0.500000 0.500000
O O6 0.373780 0.750000 0.594680
O O7 0.337574 0.493804 0.653783
O O8 0.708485 0.250000 0.606544
O O9 0.706249 0.000000 0.500000
O O10 0.750000 0.000000 0.658948
O O11 0.500000 0.750000 0.896055
O O12 0.500000 0.500000 0.000000
#
# Coordination Sequence:
#
# PCOD8278017 Si02
#       4
#    16  16  16   8
#     4   9  19  33  47  65  89 116 148 185 220 261
#     4  11  20  30  44  62  88 121 154 186 222 262
#     4  10  17  27  41  58  81 110 148 187 223 259
#     4  10  18  32  51  70  89 114 142 178 222 264
#
# _framework density 15.002388
#
# number of rings (size 3 to 8) (size 9 to 14) (size 15 to 20)
#    0.857    1.143    0.000    9.429    0.000    0.571 
#    0.000    0.000    0.000    0.000    0.000    0.000 
#    0.000    1.143    0.000   11.429    0.000    6.857 
#
# Total GULP energy -346950.581833 kJ/mol
# GULP energy per Si atom -12391.092208 kJ/mol
# Density = 1.496824 g / cm^3
# Si number density = 15.002388 Si / 1000 Ang^3
#
#
#
# Elastic Constant Matrix: (Units=GPa)
#
#
# Indices 1 2 3 4 5 6 
#
# 1 96.3761 40.5798 39.8835 0.0000 0.0000 0.0000
# 2 40.5798 149.3074 29.6777 0.0000 0.0000 0.0000
# 3 39.8835 29.6777 64.1464 0.0000 0.0000 0.0000
# 4 0.0000 0.0000 0.0000 21.3257 0.0000 0.0000
# 5 0.0000 0.0000 0.0000 0.0000 -1.0047 0.0000
# 6 0.0000 0.0000 0.0000 0.0000 0.0000 29.4563
#
#
#
# Elastic Compliance Matrix: (Units=1/GPa)
#
#
# Indices 1 2 3 4 5 6 
#
# 1 0.014713 -0.002401 -0.008037 0.000000 0.000000 0.000000
# 2 -0.002401 0.007768 -0.002101 0.000000 0.000000 0.000000
# 3 -0.008037 -0.002101 0.021558 0.000000 0.000000 0.000000
# 4 0.000000 0.000000 0.000000 0.046892 0.000000 0.000000
# 5 0.000000 0.000000 0.000000 0.000000 -0.995339 0.000000
# 6 0.000000 0.000000 0.000000 0.000000 0.000000 0.033949
#
#
# Mechanical properties :
#
#
# Convention : Reuss Voigt Hill
#
# Bulk Modulus (GPa) = 52.73969 58.90133 55.82051
# Shear Modulus (GPa) = -5.95904 23.26805 8.65450
#
# Velocity S-wave (km/s) = -1.99517 3.94249 2.40443
# Velocity P-wave (km/s) = 5.47019 7.75054 6.70797
#
# Compressibility (1/GPa) = 0.01896105
#
# Stress axis : x y z
#
# Youngs Moduli (GPa) = 67.96676 128.73644 46.38573
#
# Poissons Ratio (x) = 0.30914 0.37280
# Poissons Ratio (y) = 0.16321 0.09745
# Poissons Ratio (z) = 0.54625 0.27045
#
# Static dielectric constant tensor:
#      x y z
#    x 3.485420 0.000000 0.000000 
#    y 0.000000 3.050310 0.000000 
#    z 0.000000 0.000000 2.609210 
# 
# 
# High freq. dielectric constant tensor:
#      x y z
#    x 1.579260 0.000000 0.000000 
#    y 0.000000 1.603130 0.000000 
#    z 0.000000 0.000000 1.511700 
# 
# From -- ./inp_files/30953.got.cif
#   From: 2010.03.12/outbox.cif.g09.slc.cpg/sg67_16_cif.got.tgz:30953.got - 2010.04.10 22:41:39.
