data_PCOD8278968
_publ_section_title
;
Structure prediction by ZEFSAII (Michael W. Deem and Ramdas Pophale) SiO2 
 PCOD8278968
Probable space group: C M M A
;
_chemical_formula_sum "Si O2"
_cell_formula_units_Z 96
_cell_length_a 22.306402
_cell_length_b 14.424803
_cell_length_c 16.777237
_cell_angle_alpha 90.000000
_cell_angle_beta 90.000000
_cell_angle_gamma 90.000000
_cell_volume 5398.335288
_symmetry_space_group_name_H-M "C M M A"
_symmetry_group_IT_number 67
_symmetry_cell_setting 'orthorhombic'
loop_
_space_group_symop_operation_xyz
x,y,z
-x,1/2-y,z
x,-y,-z
-x,1/2+y,-z
-x,-y,-z
x,1/2+y,-z
-x,y,z
x,1/2-y,z
1/2+x,1/2+y,z
1/2-x,-y,z
1/2+x,1/2-y,-z
1/2-x,y,-z
1/2-x,1/2-y,-z
1/2+x,y,-z
1/2-x,1/2+y,z
1/2+x,-y,z
loop_
_atom_site_type_symbol
_atom_site_label
_atom_site_fract_x
_atom_site_fract_y
_atom_site_fract_z
Si Si1 0.568090 0.646757 0.985021
Si Si2 0.320508 0.000618 0.412079
Si Si3 0.066676 0.950509 0.174631
Si Si4 0.662152 0.141732 0.289189
Si Si5 0.201254 0.354512 0.284044
Si Si6 0.894985 0.353163 0.155963
O O1 0.500000 0.632032 0.016508
O O2 0.575342 0.750000 0.948157
O O3 0.583271 0.571841 0.917272
O O4 0.612396 0.635353 0.060510
O O5 0.333454 0.915062 0.351433
O O6 0.350819 0.000000 0.500000
O O7 0.250000 0.000000 0.423941
O O8 0.347874 0.094449 0.374893
O O9 0.116133 0.900399 0.226914
O O10 0.000000 0.912289 0.194954
O O11 0.065155 0.061560 0.188221
O O12 0.650740 0.250000 0.296816
O O13 0.730426 0.114921 0.265453
O O14 0.200393 0.250000 0.317580
O O15 0.169251 0.362127 0.198519
O O16 0.922812 0.250000 0.174476
#
# Coordination Sequence:
#
# PCOD8278968 Si02
#       6
#    16  16  16  16  16  16
#     4   9  18  32  49  72 102 133 172 219 255 288
#     4   9  17  31  53  79 105 131 162 203 253 308
#     4  11  21  33  52  75 101 137 177 214 251 293
#     4  10  20  34  52  76 106 137 168 207 252 301
#     4   9  18  33  53  77 106 135 164 204 254 306
#     4  10  19  32  51  75 102 134 168 210 259 302
#
# _framework density 17.783259999999999
#
# number of rings (size 3 to 8) (size 9 to 14) (size 15 to 20)
#    0.000    2.333    1.667    1.500    0.000    4.000 
#    0.000    4.167    0.000    6.500    0.000    0.000 
#    0.000    0.000    0.000    0.000    0.000    0.000 
#
# Total GULP energy -594663.431866 kJ/mol
# GULP energy per Si atom -12388.821497 kJ/mol
# Density = 1.774278 g / cm^3
# Si number density = 17.783260 Si / 1000 Ang^3
#
#
#
# Elastic Constant Matrix: (Units=GPa)
#
#
# Indices 1 2 3 4 5 6 
#
# 1 61.2035 41.0701 60.3416 0.0000 0.0000 0.0000
# 2 41.0701 130.2373 58.5673 0.0000 0.0000 0.0000
# 3 60.3416 58.5673 133.8061 0.0000 0.0000 0.0000
# 4 0.0000 0.0000 0.0000 23.2928 0.0000 0.0000
# 5 0.0000 0.0000 0.0000 0.0000 5.7974 0.0000
# 6 0.0000 0.0000 0.0000 0.0000 0.0000 17.6905
#
#
#
# Elastic Compliance Matrix: (Units=1/GPa)
#
#
# Indices 1 2 3 4 5 6 
#
# 1 0.031311 -0.004388 -0.012200 0.000000 0.000000 0.000000
# 2 -0.004388 0.010175 -0.002475 0.000000 0.000000 0.000000
# 3 -0.012200 -0.002475 0.014058 0.000000 0.000000 0.000000
# 4 0.000000 0.000000 0.000000 0.042932 0.000000 0.000000
# 5 0.000000 0.000000 0.000000 0.000000 0.172492 0.000000
# 6 0.000000 0.000000 0.000000 0.000000 0.000000 0.056527
#
#
# Mechanical properties :
#
#
# Convention : Reuss Voigt Hill
#
# Bulk Modulus (GPa) = 57.40577 71.68943 64.54760
# Shear Modulus (GPa) = 13.46162 20.37400 16.91781
#
# Velocity S-wave (km/s) = 2.75432 3.38847 3.08772
# Velocity P-wave (km/s) = 6.51659 7.46387 7.00626
#
# Compressibility (1/GPa) = 0.01741985
#
# Stress axis : x y z
#
# Youngs Moduli (GPa) = 31.93753 98.28096 71.13225
#
# Poissons Ratio (x) = 0.43124 0.86779
# Poissons Ratio (y) = 0.14014 0.17604
# Poissons Ratio (z) = 0.38963 0.24323
#
# Static dielectric constant tensor:
#      x y z
#    x 3.050420 0.000000 0.000000 
#    y 0.000000 3.674410 0.000000 
#    z 0.000000 0.000000 3.392370 
# 
# 
# High freq. dielectric constant tensor:
#      x y z
#    x 1.646960 0.000000 0.000000 
#    y 0.000000 1.712880 0.000000 
#    z 0.000000 0.000000 1.674650 
# 
# From -- ./inp_files/29253.got.cif
#   From: 2010.03.12/outbox.cif.g09.slc.cpg/sg67_15_cif.got.tgz:29253.got - 2010.04.10 22:41:39.
