data_PCOD8278067
_publ_section_title
;
Structure prediction by ZEFSAII (Michael W. Deem and Ramdas Pophale) SiO2 
 PCOD8278067
Probable space group: C M M A
;
_chemical_formula_sum "Si O2"
_cell_formula_units_Z 64
_cell_length_a 18.673910
_cell_length_b 8.649056
_cell_length_c 20.634409
_cell_angle_alpha 90.000000
_cell_angle_beta 90.000000
_cell_angle_gamma 90.000000
_cell_volume 3332.698338
_symmetry_space_group_name_H-M "C M M A"
_symmetry_group_IT_number 67
_symmetry_cell_setting 'orthorhombic'
loop_
_space_group_symop_operation_xyz
x,y,z
-x,1/2-y,z
x,-y,-z
-x,1/2+y,-z
-x,-y,-z
x,1/2+y,-z
-x,y,z
x,1/2-y,z
1/2+x,1/2+y,z
1/2-x,-y,z
1/2+x,1/2-y,-z
1/2-x,y,-z
1/2-x,1/2-y,-z
1/2+x,y,-z
1/2-x,1/2+y,z
1/2+x,-y,z
loop_
_atom_site_type_symbol
_atom_site_label
_atom_site_fract_x
_atom_site_fract_y
_atom_site_fract_z
Si Si1 0.674500 0.431277 0.430979
Si Si2 0.416980 0.429099 0.678763
Si Si3 0.328234 0.932141 0.195457
Si Si4 0.670303 0.933240 0.935412
O O1 0.651549 0.500000 0.500000
O O2 0.683406 0.250000 0.438457
O O3 0.750000 0.500000 0.406833
O O4 0.613266 0.469540 0.379664
O O5 0.500000 0.467407 0.686779
O O6 0.403345 0.250000 0.662740
O O7 0.378659 0.477407 0.745079
O O8 0.321612 0.750000 0.185224
O O9 0.250000 0.000000 0.209487
O O10 0.365313 0.006680 0.131272
O O11 0.670431 0.750000 0.938035
O O12 0.750000 0.000000 0.934288
O O13 0.630859 0.000000 0.000000
#
# Coordination Sequence:
#
# PCOD8278067 Si02
#       4
#    16  16  16  16
#     4  11  22  38  61  86 112 142 178 221 267 318
#     4  10  22  39  57  79 110 146 182 222 268 318
#     4  10  19  32  52  77 105 138 176 218 265 316
#     4  10  17  27  45  71 103 134 169 215 265 316
#
# _framework density 19.203658999999998
#
# number of rings (size 3 to 8) (size 9 to 14) (size 15 to 20)
#    0.000    1.750    0.000    9.000    0.000    5.000 
#    0.000    0.000    0.000    0.750    0.000    0.000 
#    0.000    0.000    0.000    0.000    0.000    0.000 
#
# Total GULP energy -396815.253518 kJ/mol
# GULP energy per Si atom -12400.476672 kJ/mol
# Density = 1.915995 g / cm^3
# Si number density = 19.203659 Si / 1000 Ang^3
#
#
#
# Elastic Constant Matrix: (Units=GPa)
#
#
# Indices 1 2 3 4 5 6 
#
# 1 81.8584 42.6221 70.3591 0.0000 0.0000 0.0000
# 2 42.6221 152.0610 76.5223 0.0000 0.0000 0.0000
# 3 70.3591 76.5223 166.6603 0.0000 0.0000 0.0000
# 4 0.0000 0.0000 0.0000 28.6637 0.0000 0.0000
# 5 0.0000 0.0000 0.0000 0.0000 -0.2139 0.0000
# 6 0.0000 0.0000 0.0000 0.0000 0.0000 19.0347
#
#
#
# Elastic Compliance Matrix: (Units=1/GPa)
#
#
# Indices 1 2 3 4 5 6 
#
# 1 0.019514 -0.001722 -0.007448 0.000000 0.000000 0.000000
# 2 -0.001722 0.008704 -0.003270 0.000000 0.000000 0.000000
# 3 -0.007448 -0.003270 0.010646 0.000000 0.000000 0.000000
# 4 0.000000 0.000000 0.000000 0.034887 0.000000 0.000000
# 5 0.000000 0.000000 0.000000 0.000000 -4.674875 0.000000
# 6 0.000000 0.000000 0.000000 0.000000 0.000000 0.052536
#
#
# Mechanical properties :
#
#
# Convention : Reuss Voigt Hill
#
# Bulk Modulus (GPa) = 71.50121 86.62072 79.06097
# Shear Modulus (GPa) = -1.10643 23.56865 11.23111
#
# Velocity S-wave (km/s) = -0.75987 3.50708 2.42097
# Velocity P-wave (km/s) = 6.04517 7.84881 7.00528
#
# Compressibility (1/GPa) = 0.01398578
#
# Stress axis : x y z
#
# Youngs Moduli (GPa) = 51.24461 114.88503 93.93405
#
# Poissons Ratio (x) = 0.19781 0.69960
# Poissons Ratio (y) = 0.08823 0.30714
# Poissons Ratio (z) = 0.38166 0.37564
#
# Static dielectric constant tensor:
#      x y z
#    x 3.140120 0.000000 0.000000 
#    y 0.000000 3.594840 0.000000 
#    z 0.000000 0.000000 4.236250 
# 
# 
# High freq. dielectric constant tensor:
#      x y z
#    x 1.701180 0.000000 0.000000 
#    y 0.000000 1.760760 0.000000 
#    z 0.000000 0.000000 1.773660 
# 
# From -- ./inp_files/36564.got.cif
#   From: 2010.03.12/outbox.cif.g09.slc.cpg/sg67_19_cif.got.tgz:36564.got - 2010.04.10 22:41:39.
