data_PCOD8278122
_publ_section_title
;
Structure prediction by ZEFSAII (Michael W. Deem and Ramdas Pophale) SiO2 
 PCOD8278122
Probable space group: C M M A
;
_chemical_formula_sum "Si O2"
_cell_formula_units_Z 128
_cell_length_a 21.799585
_cell_length_b 28.390385
_cell_length_c 11.762241
_cell_angle_alpha 90.000000
_cell_angle_beta 90.000000
_cell_angle_gamma 90.000000
_cell_volume 7279.634617
_symmetry_space_group_name_H-M "C M M A"
_symmetry_group_IT_number 67
_symmetry_cell_setting 'orthorhombic'
loop_
_space_group_symop_operation_xyz
x,y,z
-x,1/2-y,z
x,-y,-z
-x,1/2+y,-z
-x,-y,-z
x,1/2+y,-z
-x,y,z
x,1/2-y,z
1/2+x,1/2+y,z
1/2-x,-y,z
1/2+x,1/2-y,-z
1/2-x,y,-z
1/2-x,1/2-y,-z
1/2+x,y,-z
1/2-x,1/2+y,z
1/2+x,-y,z
loop_
_atom_site_type_symbol
_atom_site_label
_atom_site_fract_x
_atom_site_fract_y
_atom_site_fract_z
Si Si1 0.068389 0.695346 0.866601
Si Si2 0.359015 0.145353 0.687724
Si Si3 0.845723 0.803644 0.452654
Si Si4 0.243499 0.804051 0.247504
Si Si5 0.429703 0.854673 0.710805
Si Si6 0.628629 0.304575 0.095803
Si Si7 0.570051 0.548835 0.631537
Si Si8 0.571541 0.554418 0.364573
O O1 0.069404 0.750000 0.843025
O O2 0.084538 0.671853 0.746744
O O3 0.000000 0.679224 0.904354
O O4 0.118908 0.682351 0.963704
O O5 0.345252 0.162464 0.560581
O O6 0.298231 0.157866 0.761580
O O7 0.379728 0.090775 0.690387
O O8 0.850664 0.750000 0.495211
O O9 0.786247 0.810248 0.372516
O O10 0.903814 0.816176 0.375898
O O11 0.267651 0.750000 0.234858
O O12 0.196765 0.815264 0.143842
O O13 0.500000 0.859846 0.679520
O O14 0.420070 0.836733 0.838034
O O15 0.398533 0.906755 0.696165
O O16 0.612424 0.250000 0.117672
O O17 0.500000 0.544728 0.668125
O O18 0.575668 0.559592 0.499073
O O19 0.597327 0.497833 0.667487
O O20 0.500000 0.562734 0.326507
#
# Coordination Sequence:
#
# PCOD8278122 Si02
#       8
#    16  16  16  16  16  16  16  16
#     4  10  21  34  48  71 104 136 163 201 256 307
#     4  12  20  30  49  71  98 134 167 200 245 299
#     4  10  20  31  44  69 104 135 161 198 246 296
#     4   9  19  34  50  69  94 132 177 210 240 280
#     4  10  17  28  50  75  94 123 165 210 255 294
#     4   9  19  35  51  68  95 133 173 211 245 284
#     4   8  15  29  48  70  96 128 164 199 245 301
#     4   9  17  30  47  70 101 131 159 198 250 307
#
# _framework density 17.583300999999999
#
# number of rings (size 3 to 8) (size 9 to 14) (size 15 to 20)
#    0.000    2.375    1.250    4.125    0.000    3.500 
#    0.000    1.875    0.000    3.750    0.000    3.500 
#    0.000    4.000    0.000    0.000    0.000    0.000 
#
# Total GULP energy -792954.544513 kJ/mol
# GULP energy per Si atom -12389.914758 kJ/mol
# Density = 1.754328 g / cm^3
# Si number density = 17.583301 Si / 1000 Ang^3
#
#
#
# Elastic Constant Matrix: (Units=GPa)
#
#
# Indices 1 2 3 4 5 6 
#
# 1 62.8390 39.3439 14.1187 0.0000 0.0000 0.0000
# 2 39.3439 65.2937 10.6399 0.0000 0.0000 0.0000
# 3 14.1187 10.6399 46.1725 0.0000 0.0000 0.0000
# 4 0.0000 0.0000 0.0000 14.1898 0.0000 0.0000
# 5 0.0000 0.0000 0.0000 0.0000 16.7629 0.0000
# 6 0.0000 0.0000 0.0000 0.0000 0.0000 24.5482
#
#
#
# Elastic Compliance Matrix: (Units=1/GPa)
#
#
# Indices 1 2 3 4 5 6 
#
# 1 0.026459 -0.015195 -0.004589 0.000000 0.000000 0.000000
# 2 -0.015195 0.024640 -0.001031 0.000000 0.000000 0.000000
# 3 -0.004589 -0.001031 0.023299 0.000000 0.000000 0.000000
# 4 0.000000 0.000000 0.000000 0.070473 0.000000 0.000000
# 5 0.000000 0.000000 0.000000 0.000000 0.059656 0.000000
# 6 0.000000 0.000000 0.000000 0.000000 0.000000 0.040736
#
#
# Mechanical properties :
#
#
# Convention : Reuss Voigt Hill
#
# Bulk Modulus (GPa) = 30.51980 33.61224 32.06602
# Shear Modulus (GPa) = 16.78891 18.44702 17.61797
#
# Velocity S-wave (km/s) = 3.09337 3.24253 3.16883
# Velocity P-wave (km/s) = 5.49122 5.75987 5.62715
#
# Compressibility (1/GPa) = 0.03276561
#
# Stress axis : x y z
#
# Youngs Moduli (GPa) = 37.79483 40.58486 42.92064
#
# Poissons Ratio (x) = 0.61670 0.19696
# Poissons Ratio (y) = 0.57431 0.04427
# Poissons Ratio (z) = 0.17344 0.04186
#
# Static dielectric constant tensor:
#      x y z
#    x 3.210420 0.000000 0.000000 
#    y 0.000000 3.461450 0.000000 
#    z 0.000000 0.000000 3.155550 
# 
# 
# High freq. dielectric constant tensor:
#      x y z
#    x 1.664640 0.000000 0.000000 
#    y 0.000000 1.667800 0.000000 
#    z 0.000000 0.000000 1.662540 
# 
# From -- ./inp_files/22436.got.cif
#   From: 2010.03.12/outbox.cif.g09.slc.cpg/sg67_12_cif.got.tgz:22436.got - 2010.04.10 22:41:39.
