data_PCOD8278509
_publ_section_title
;
Structure prediction by ZEFSAII (Michael W. Deem and Ramdas Pophale) SiO2 
 PCOD8278509
Probable space group: C M M A
;
_chemical_formula_sum "Si O2"
_cell_formula_units_Z 72
_cell_length_a 8.851551
_cell_length_b 18.942140
_cell_length_c 24.947666
_cell_angle_alpha 90.000000
_cell_angle_beta 90.000000
_cell_angle_gamma 90.000000
_cell_volume 4182.908255
_symmetry_space_group_name_H-M "C M M A"
_symmetry_group_IT_number 67
_symmetry_cell_setting 'orthorhombic'
loop_
_space_group_symop_operation_xyz
x,y,z
-x,1/2-y,z
x,-y,-z
-x,1/2+y,-z
-x,-y,-z
x,1/2+y,-z
-x,y,z
x,1/2-y,z
1/2+x,1/2+y,z
1/2-x,-y,z
1/2+x,1/2-y,-z
1/2-x,y,-z
1/2-x,1/2-y,-z
1/2+x,y,-z
1/2-x,1/2+y,z
1/2+x,-y,z
loop_
_atom_site_type_symbol
_atom_site_label
_atom_site_fract_x
_atom_site_fract_y
_atom_site_fract_z
Si Si1 0.819661 0.250000 0.558368
Si Si2 0.679661 0.076584 0.265540
Si Si3 0.827524 0.672240 0.647275
Si Si4 0.333630 0.834022 0.948620
Si Si5 0.680376 0.171194 0.167847
O O1 0.750000 0.250000 0.500000
O O2 0.757521 0.319722 0.589774
O O3 0.000000 0.250000 0.556249
O O4 0.500000 0.072187 0.267158
O O5 0.736697 0.116041 0.318209
O O6 0.739364 0.118064 0.213170
O O7 0.750000 0.000000 0.263537
O O8 0.825222 0.750000 0.675544
O O9 0.000000 0.646541 0.638641
O O10 0.500000 0.866609 0.950757
O O11 0.339315 0.750000 0.953169
O O12 0.258208 0.853574 0.890917
O O13 0.250000 0.867231 0.000000
O O14 0.500000 0.172554 0.165664
O O15 0.739984 0.250000 0.181232
#
# Coordination Sequence:
#
# PCOD8278509 Si02
#       5
#     8  16  16  16  16
#     4  10  18  32  56  86 114 142 173 208 249 290
#     4  11  21  33  50  71 100 137 175 213 260 311
#     4   9  19  34  53  79 108 135 170 214 252 294
#     4   8  13  23  40  63  89 114 147 194 248 305
#     4   8  15  28  47  69  92 123 164 206 251 310
#
# _framework density 17.212904999999999
#
# number of rings (size 3 to 8) (size 9 to 14) (size 15 to 20)
#    0.667    2.222    0.000    4.000    0.000    0.889 
#    0.000    2.222    0.000    6.667    0.000    9.333 
#    0.000    0.000    0.000    0.000    0.000    0.000 
#
# Total GULP energy -445999.184758 kJ/mol
# GULP energy per Si atom -12388.866243 kJ/mol
# Density = 1.717373 g / cm^3
# Si number density = 17.212905 Si / 1000 Ang^3
#
#
#
# Elastic Constant Matrix: (Units=GPa)
#
#
# Indices 1 2 3 4 5 6 
#
# 1 91.6002 33.8719 57.0947 0.0000 0.0000 0.0000
# 2 33.8719 83.5779 67.3253 0.0000 0.0000 0.0000
# 3 57.0947 67.3253 171.5426 0.0000 0.0000 0.0000
# 4 0.0000 0.0000 0.0000 -2.9995 0.0000 0.0000
# 5 0.0000 0.0000 0.0000 0.0000 28.1490 0.0000
# 6 0.0000 0.0000 0.0000 0.0000 0.0000 19.8261
#
#
#
# Elastic Compliance Matrix: (Units=1/GPa)
#
#
# Indices 1 2 3 4 5 6 
#
# 1 0.014225 -0.002853 -0.003615 0.000000 0.000000 0.000000
# 2 -0.002853 0.018069 -0.006142 0.000000 0.000000 0.000000
# 3 -0.003615 -0.006142 0.009443 0.000000 0.000000 0.000000
# 4 0.000000 0.000000 0.000000 -0.333392 0.000000 0.000000
# 5 0.000000 0.000000 0.000000 0.000000 0.035525 0.000000
# 6 0.000000 0.000000 0.000000 0.000000 0.000000 0.050439
#
#
# Mechanical properties :
#
#
# Convention : Reuss Voigt Hill
#
# Bulk Modulus (GPa) = 60.54255 73.70049 67.12152
# Shear Modulus (GPa) = -28.57691 21.55704 -3.50994
#
# Velocity S-wave (km/s) = -4.07898 3.54273 -1.42953
# Velocity P-wave (km/s) = 3.61456 7.72299 6.02949
#
# Compressibility (1/GPa) = 0.01651731
#
# Stress axis : x y z
#
# Youngs Moduli (GPa) = 70.29786 55.34444 105.89840
#
# Poissons Ratio (x) = 0.15791 0.38280
# Poissons Ratio (y) = 0.20058 0.65040
# Poissons Ratio (z) = 0.25411 0.33991
#
# Static dielectric constant tensor:
#      x y z
#    x 3.152030 0.000000 0.000000 
#    y 0.000000 2.905870 0.000000 
#    z 0.000000 0.000000 3.391500 
# 
# 
# High freq. dielectric constant tensor:
#      x y z
#    x 1.654840 0.000000 0.000000 
#    y 0.000000 1.620220 0.000000 
#    z 0.000000 0.000000 1.672040 
# 
# From -- ./inp_files/43192.got.cif
#   From: 2010.03.12/outbox.cif.g09.slc.cpg/sg67_22_cif.got.tgz:43192.got - 2010.04.10 22:41:39.
