data_PCOD8278046
_publ_section_title
;
Structure prediction by ZEFSAII (Michael W. Deem and Ramdas Pophale) SiO2 
 PCOD8278046
Probable space group: C M M A
;
_chemical_formula_sum "Si O2"
_cell_formula_units_Z 104
_cell_length_a 26.455218
_cell_length_b 8.691272
_cell_length_c 24.505687
_cell_angle_alpha 90.000000
_cell_angle_beta 90.000000
_cell_angle_gamma 90.000000
_cell_volume 5634.580248
_symmetry_space_group_name_H-M "C M M A"
_symmetry_group_IT_number 67
_symmetry_cell_setting 'orthorhombic'
loop_
_space_group_symop_operation_xyz
x,y,z
-x,1/2-y,z
x,-y,-z
-x,1/2+y,-z
-x,-y,-z
x,1/2+y,-z
-x,y,z
x,1/2-y,z
1/2+x,1/2+y,z
1/2-x,-y,z
1/2+x,1/2-y,-z
1/2-x,y,-z
1/2-x,1/2-y,-z
1/2+x,y,-z
1/2-x,1/2+y,z
1/2+x,-y,z
loop_
_atom_site_type_symbol
_atom_site_label
_atom_site_fract_x
_atom_site_fract_y
_atom_site_fract_z
Si Si1 0.303873 0.433347 0.559458
Si Si2 0.059448 0.426511 0.275864
Si Si3 0.500000 0.567884 0.559457
Si Si4 0.599579 0.069896 0.058290
Si Si5 0.057565 0.917133 0.169086
Si Si6 0.898825 0.930803 0.379725
Si Si7 0.701025 0.431952 0.939608
O O1 0.316618 0.500000 0.500000
O O2 0.300208 0.250000 0.556427
O O3 0.250000 0.500000 0.580430
O O4 0.348995 0.481522 0.599686
O O5 0.071715 0.250000 0.287756
O O6 0.079005 0.465059 0.214285
O O7 0.092387 0.531367 0.316295
O O8 0.000000 0.461147 0.283808
O O9 0.500000 0.750000 0.557343
O O10 0.500000 0.500000 0.500000
O O11 0.449076 0.509121 0.589087
O O12 0.607020 0.250000 0.048152
O O13 0.559875 0.028095 0.105812
O O14 0.649518 0.994934 0.085687
O O15 0.582969 0.000000 0.000000
O O16 0.085000 0.750000 0.174095
O O17 0.000000 0.895967 0.184425
O O18 0.890484 0.750000 0.387918
O O19 0.702784 0.250000 0.940051
O O20 0.750000 0.500000 0.907891
O O21 0.701158 0.500000 0.000000
#
# Coordination Sequence:
#
# PCOD8278046 Si02
#       7
#    16  16   8  16  16  16  16
#     4  11  22  38  58  83 113 151 194 237 279 328
#     4  10  20  34  54  80 106 136 177 224 270 321
#     4  10  22  34  50  78 114 150 179 214 267 322
#     4  10  19  31  48  72 101 132 168 209 258 313
#     4   9  19  35  53  72  99 137 176 215 260 315
#     4  11  21  36  56  81 111 149 187 227 276 328
#     4  10  17  27  44  66  93 123 156 194 239 294
#
# _framework density 18.457452
#
# number of rings (size 3 to 8) (size 9 to 14) (size 15 to 20)
#    0.000    1.846    0.769    6.462    0.000    4.615 
#    0.000    0.000    0.000    0.923    0.000    2.154 
#    0.000    0.000    0.000    0.000    0.000    0.000 
#
# Total GULP energy -644403.699123 kJ/mol
# GULP energy per Si atom -12392.378829 kJ/mol
# Density = 1.841544 g / cm^3
# Si number density = 18.457452 Si / 1000 Ang^3
#
#
#
# Elastic Constant Matrix: (Units=GPa)
#
#
# Indices 1 2 3 4 5 6 
#
# 1 77.0370 38.7286 38.1016 0.0000 0.0000 0.0000
# 2 38.7286 117.2143 39.8528 0.0000 0.0000 0.0000
# 3 38.1016 39.8528 109.3027 0.0000 0.0000 0.0000
# 4 0.0000 0.0000 0.0000 38.2145 0.0000 0.0000
# 5 0.0000 0.0000 0.0000 0.0000 18.9643 0.0000
# 6 0.0000 0.0000 0.0000 0.0000 0.0000 25.6608
#
#
#
# Elastic Compliance Matrix: (Units=1/GPa)
#
#
# Indices 1 2 3 4 5 6 
#
# 1 0.017317 -0.004188 -0.004509 0.000000 0.000000 0.000000
# 2 -0.004188 0.010752 -0.002460 0.000000 0.000000 0.000000
# 3 -0.004509 -0.002460 0.011618 0.000000 0.000000 0.000000
# 4 0.000000 0.000000 0.000000 0.026168 0.000000 0.000000
# 5 0.000000 0.000000 0.000000 0.000000 0.052731 0.000000
# 6 0.000000 0.000000 0.000000 0.000000 0.000000 0.038970
#
#
# Mechanical properties :
#
#
# Convention : Reuss Voigt Hill
#
# Bulk Modulus (GPa) = 57.56884 59.65779 58.61331
# Shear Modulus (GPa) = 26.93089 29.02599 27.97844
#
# Velocity S-wave (km/s) = 3.82393 3.96989 3.89760
# Velocity P-wave (km/s) = 7.12421 7.30790 7.21664
#
# Compressibility (1/GPa) = 0.01737051
#
# Stress axis : x y z
#
# Youngs Moduli (GPa) = 57.74796 93.00837 86.07510
#
# Poissons Ratio (x) = 0.38956 0.38813
# Poissons Ratio (y) = 0.24187 0.21176
# Poissons Ratio (z) = 0.26040 0.22881
#
# Static dielectric constant tensor:
#      x y z
#    x 6.638720 0.000000 0.000000 
#    y 0.000000 3.518390 0.000000 
#    z 0.000000 0.000000 3.244980 
# 
# 
# High freq. dielectric constant tensor:
#      x y z
#    x 1.704370 0.000000 0.000000 
#    y 0.000000 1.728630 0.000000 
#    z 0.000000 0.000000 1.697150 
# 
# From -- ./inp_files/42949.got.cif
#   From: 2010.03.12/outbox.cif.g09.slc.cpg/sg67_22_cif.got.tgz:42949.got - 2010.04.10 22:41:39.
