data_PCOD8278368
_publ_section_title
;
Structure prediction by ZEFSAII (Michael W. Deem and Ramdas Pophale) SiO2 
 PCOD8278368
Probable space group: C M M A
;
_chemical_formula_sum "Si O2"
_cell_formula_units_Z 128
_cell_length_a 16.947643
_cell_length_b 26.307009
_cell_length_c 17.860740
_cell_angle_alpha 90.000000
_cell_angle_beta 90.000000
_cell_angle_gamma 90.000000
_cell_volume 7963.064416
_symmetry_space_group_name_H-M "C M M A"
_symmetry_group_IT_number 67
_symmetry_cell_setting 'orthorhombic'
loop_
_space_group_symop_operation_xyz
x,y,z
-x,1/2-y,z
x,-y,-z
-x,1/2+y,-z
-x,-y,-z
x,1/2+y,-z
-x,y,z
x,1/2-y,z
1/2+x,1/2+y,z
1/2-x,-y,z
1/2+x,1/2-y,-z
1/2-x,y,-z
1/2-x,1/2-y,-z
1/2+x,y,-z
1/2-x,1/2+y,z
1/2+x,-y,z
loop_
_atom_site_type_symbol
_atom_site_label
_atom_site_fract_x
_atom_site_fract_y
_atom_site_fract_z
Si Si1 0.206199 0.886051 0.578222
Si Si2 0.805105 0.872503 0.933253
Si Si3 0.587623 0.809957 0.171436
Si Si4 0.809179 0.953493 0.326347
Si Si5 0.086049 0.556293 0.028519
Si Si6 0.796557 0.552320 0.156683
Si Si7 0.591637 0.809908 0.341250
Si Si8 0.413952 0.521294 0.418452
O O1 0.250000 0.873848 0.500000
O O2 0.275956 0.902350 0.634879
O O3 0.155127 0.837717 0.605354
O O4 0.146773 0.932930 0.575628
O O5 0.851626 0.828101 0.891553
O O6 0.757159 0.900864 0.868647
O O7 0.750000 0.849869 0.000000
O O8 0.863716 0.912598 0.969418
O O9 0.500000 0.830500 0.151774
O O10 0.587999 0.750000 0.169617
O O11 0.609351 0.827713 0.255808
O O12 0.824795 0.939255 0.240896
O O13 0.750000 0.000000 0.332874
O O14 0.888300 0.974438 0.365106
O O15 0.123874 0.553732 0.109855
O O16 0.000000 0.581810 0.035958
O O17 0.078118 0.500000 0.000000
O O18 0.750000 0.500000 0.144033
O O19 0.500000 0.822974 0.361763
O O20 0.605711 0.750000 0.350871
O O21 0.422822 0.500000 0.500000
O O22 0.500000 0.540438 0.389691
#
# Coordination Sequence:
#
# PCOD8278368 Si02
#       8
#    16  16  16  16  16  16  16  16
#     4  11  19  31  51  72  97 126 157 196 241 289
#     4  10  19  29  49  71  97 129 158 200 238 291
#     4   9  18  34  53  72  97 125 158 204 250 290
#     4   9  19  30  46  67  93 125 160 198 234 276
#     4  10  19  30  45  63  91 126 162 199 235 279
#     4  10  18  31  45  64  93 126 160 197 237 277
#     4   9  19  35  53  73  97 124 157 202 250 293
#     4  10  19  32  48  68  96 129 163 195 231 274
#
# _framework density 16.074214000000001
#
# number of rings (size 3 to 8) (size 9 to 14) (size 15 to 20)
#    0.000    2.250    2.500    2.250    0.000    1.000 
#    0.000    0.000    0.000    0.000    0.000    0.000 
#    0.000    0.000    0.000   19.750    0.000    0.000 
#
# Total GULP energy -793173.430279 kJ/mol
# GULP energy per Si atom -12393.334848 kJ/mol
# Density = 1.603763 g / cm^3
# Si number density = 16.074214 Si / 1000 Ang^3
#
#
#
# Elastic Constant Matrix: (Units=GPa)
#
#
# Indices 1 2 3 4 5 6 
#
# 1 103.8424 31.1315 59.9556 0.0000 0.0000 0.0000
# 2 31.1315 48.2515 35.0519 0.0000 0.0000 0.0000
# 3 59.9556 35.0519 121.7559 0.0000 0.0000 0.0000
# 4 0.0000 0.0000 0.0000 22.6046 0.0000 0.0000
# 5 0.0000 0.0000 0.0000 0.0000 67.4407 0.0000
# 6 0.0000 0.0000 0.0000 0.0000 0.0000 26.1104
#
#
#
# Elastic Compliance Matrix: (Units=1/GPa)
#
#
# Indices 1 2 3 4 5 6 
#
# 1 0.014435 -0.005247 -0.005598 0.000000 0.000000 0.000000
# 2 -0.005247 0.028112 -0.005509 0.000000 0.000000 0.000000
# 3 -0.005598 -0.005509 0.012556 0.000000 0.000000 0.000000
# 4 0.000000 0.000000 0.000000 0.044239 0.000000 0.000000
# 5 0.000000 0.000000 0.000000 0.000000 0.014828 0.000000
# 6 0.000000 0.000000 0.000000 0.000000 0.000000 0.038299
#
#
# Mechanical properties :
#
#
# Convention : Reuss Voigt Hill
#
# Bulk Modulus (GPa) = 44.65303 58.45866 51.55584
# Shear Modulus (GPa) = 25.95499 33.07854 29.51677
#
# Velocity S-wave (km/s) = 4.02269 4.54129 4.28983
# Velocity P-wave (km/s) = 7.02963 7.99654 7.52862
#
# Compressibility (1/GPa) = 0.02239490
#
# Stress axis : x y z
#
# Youngs Moduli (GPa) = 69.27671 35.57158 79.64561
#
# Poissons Ratio (x) = 0.18664 0.44582
# Poissons Ratio (y) = 0.36349 0.43880
# Poissons Ratio (z) = 0.38778 0.19598
#
# Static dielectric constant tensor:
#      x y z
#    x 3.699710 0.000000 0.000000 
#    y 0.000000 2.830180 0.000000 
#    z 0.000000 0.000000 3.148520 
# 
# 
# High freq. dielectric constant tensor:
#      x y z
#    x 1.621190 0.000000 0.000000 
#    y 0.000000 1.593620 0.000000 
#    z 0.000000 0.000000 1.623680 
# 
# From -- ./inp_files/34561.got.cif
#   From: 2010.03.12/outbox.cif.g09.slc.cpg/sg67_18_cif.got.tgz:34561.got - 2010.04.10 22:41:39.
