data_PCOD8278678
_publ_section_title
;
Structure prediction by ZEFSAII (Michael W. Deem and Ramdas Pophale) SiO2 
 PCOD8278678
Probable space group: C M M A
;
_chemical_formula_sum "Si O2"
_cell_formula_units_Z 80
_cell_length_a 27.704830
_cell_length_b 8.687381
_cell_length_c 18.863575
_cell_angle_alpha 90.000000
_cell_angle_beta 90.000000
_cell_angle_gamma 90.000000
_cell_volume 4540.130763
_symmetry_space_group_name_H-M "C M M A"
_symmetry_group_IT_number 67
_symmetry_cell_setting 'orthorhombic'
loop_
_space_group_symop_operation_xyz
x,y,z
-x,1/2-y,z
x,-y,-z
-x,1/2+y,-z
-x,-y,-z
x,1/2+y,-z
-x,y,z
x,1/2-y,z
1/2+x,1/2+y,z
1/2-x,-y,z
1/2+x,1/2-y,-z
1/2-x,y,-z
1/2-x,1/2-y,-z
1/2+x,y,-z
1/2-x,1/2+y,z
1/2+x,-y,z
loop_
_atom_site_type_symbol
_atom_site_label
_atom_site_fract_x
_atom_site_fract_y
_atom_site_fract_z
Si Si1 0.698366 0.432004 0.346422
Si Si2 0.852821 0.931164 0.784611
Si Si3 0.947138 0.431566 0.289409
Si Si4 0.198184 0.569272 0.926706
Si Si5 0.889472 0.432012 0.425714
O O1 0.699924 0.250000 0.350821
O O2 0.750000 0.500000 0.365721
O O3 0.683677 0.481920 0.267221
O O4 0.661796 0.496420 0.404937
O O5 0.847119 0.750000 0.769125
O O6 0.907918 0.985899 0.769294
O O7 0.839830 0.973054 0.865288
O O8 0.951992 0.250000 0.285873
O O9 0.929021 0.481167 0.367248
O O10 0.000000 0.506420 0.274676
O O11 0.204459 0.750000 0.935649
O O12 0.250000 0.500000 0.906992
O O13 0.177975 0.500000 0.000000
O O14 0.907400 0.500000 0.500000
O O15 0.883847 0.250000 0.430483
#
# Coordination Sequence:
#
# PCOD8278678 Si02
#       5
#    16  16  16  16  16
#     4  11  21  33  50  71  96 128 163 198 239 286
#     4   9  18  32  50  73  99 127 162 201 240 284
#     4   8  15  30  52  74  95 122 158 200 243 286
#     4  10  19  30  46  70 100 132 163 196 234 280
#     4  10  20  34  50  71  98 126 160 199 241 289
#
# _framework density 17.620638
#
# number of rings (size 3 to 8) (size 9 to 14) (size 15 to 20)
#    0.000    2.400    0.000    5.400    0.000    4.000 
#    0.000    2.000    0.000   15.000    0.000    0.000 
#    0.000    0.000    0.000    0.000    0.000    0.800 
#
# Total GULP energy -495937.387363 kJ/mol
# GULP energy per Si atom -12398.434684 kJ/mol
# Density = 1.758053 g / cm^3
# Si number density = 17.620638 Si / 1000 Ang^3
#
#
#
# Elastic Constant Matrix: (Units=GPa)
#
#
# Indices 1 2 3 4 5 6 
#
# 1 125.5144 29.0636 60.7374 0.0000 0.0000 0.0000
# 2 29.0636 78.7674 36.9082 0.0000 0.0000 0.0000
# 3 60.7374 36.9082 132.0166 0.0000 0.0000 0.0000
# 4 0.0000 0.0000 0.0000 26.9570 0.0000 0.0000
# 5 0.0000 0.0000 0.0000 0.0000 18.7211 0.0000
# 6 0.0000 0.0000 0.0000 0.0000 0.0000 14.4075
#
#
#
# Elastic Compliance Matrix: (Units=1/GPa)
#
#
# Indices 1 2 3 4 5 6 
#
# 1 0.010478 -0.001850 -0.004304 0.000000 0.000000 0.000000
# 2 -0.001850 0.014936 -0.003325 0.000000 0.000000 0.000000
# 3 -0.004304 -0.003325 0.010484 0.000000 0.000000 0.000000
# 4 0.000000 0.000000 0.000000 0.037096 0.000000 0.000000
# 5 0.000000 0.000000 0.000000 0.000000 0.053416 0.000000
# 6 0.000000 0.000000 0.000000 0.000000 0.000000 0.069408
#
#
# Mechanical properties :
#
#
# Convention : Reuss Voigt Hill
#
# Bulk Modulus (GPa) = 59.02345 65.52407 62.27376
# Shear Modulus (GPa) = 22.68380 25.98974 24.33677
#
# Velocity S-wave (km/s) = 3.59185 3.84469 3.72042
# Velocity P-wave (km/s) = 7.12540 7.54821 7.33985
#
# Compressibility (1/GPa) = 0.01694242
#
# Stress axis : x y z
#
# Youngs Moduli (GPa) = 95.43771 66.95251 95.38115
#
# Poissons Ratio (x) = 0.12384 0.41048
# Poissons Ratio (y) = 0.17653 0.31711
# Poissons Ratio (z) = 0.41072 0.22260
#
# Static dielectric constant tensor:
#      x y z
#    x 3.515550 0.000000 0.000000 
#    y 0.000000 3.187870 0.000000 
#    z 0.000000 0.000000 3.337990 
# 
# 
# High freq. dielectric constant tensor:
#      x y z
#    x 1.674310 0.000000 0.000000 
#    y 0.000000 1.674870 0.000000 
#    z 0.000000 0.000000 1.675940 
# 
# From -- ./inp_files/32124.got.cif
#   From: 2010.03.12/outbox.cif.g09.slc.cpg/sg67_17_cif.got.tgz:32124.got - 2010.04.10 22:41:39.
