data_PCOD8278784
_publ_section_title
;
Structure prediction by ZEFSAII (Michael W. Deem and Ramdas Pophale) SiO2 
 PCOD8278784
Probable space group: C M M A
;
_chemical_formula_sum "Si O2"
_cell_formula_units_Z 120
_cell_length_a 8.949443
_cell_length_b 27.014896
_cell_length_c 28.104304
_cell_angle_alpha 90.000000
_cell_angle_beta 90.000000
_cell_angle_gamma 90.000000
_cell_volume 6794.729011
_symmetry_space_group_name_H-M "C M M A"
_symmetry_group_IT_number 67
_symmetry_cell_setting 'orthorhombic'
loop_
_space_group_symop_operation_xyz
x,y,z
-x,1/2-y,z
x,-y,-z
-x,1/2+y,-z
-x,-y,-z
x,1/2+y,-z
-x,y,z
x,1/2-y,z
1/2+x,1/2+y,z
1/2-x,-y,z
1/2+x,1/2-y,-z
1/2-x,y,-z
1/2-x,1/2-y,-z
1/2+x,y,-z
1/2-x,1/2+y,z
1/2+x,-y,z
loop_
_atom_site_type_symbol
_atom_site_label
_atom_site_fract_x
_atom_site_fract_y
_atom_site_fract_z
Si Si1 0.323994 0.695259 0.139855
Si Si2 0.674302 0.449786 0.280804
Si Si3 0.677371 0.858560 0.448160
Si Si4 0.327572 0.250000 0.549779
Si Si5 0.176972 0.552309 0.390109
Si Si6 0.322847 0.365613 0.951332
Si Si7 0.826888 0.552038 0.104115
Si Si8 0.671384 0.883428 0.803411
O O1 0.500000 0.695472 0.143137
O O2 0.256477 0.750000 0.142318
O O3 0.272044 0.672053 0.089906
O O4 0.263820 0.665735 0.185378
O O5 0.500000 0.457845 0.273606
O O6 0.750000 0.500000 0.263699
O O7 0.715104 0.437403 0.335064
O O8 0.730744 0.405766 0.246492
O O9 0.500000 0.868063 0.451441
O O10 0.750000 0.861448 0.500000
O O11 0.711269 0.803240 0.424953
O O12 0.751749 0.901519 0.417232
O O13 0.500000 0.250000 0.537878
O O14 0.250000 0.250000 0.500000
O O15 0.250000 0.500000 0.406493
O O16 0.000000 0.549615 0.399762
O O17 0.500000 0.369061 0.956731
O O18 0.255566 0.418895 0.938220
O O19 0.250000 0.346163 0.000000
O O20 0.750000 0.500000 0.108217
O O21 0.802813 0.577272 0.154943
O O22 0.000000 0.547026 0.090725
O O23 0.500000 0.867864 0.799167
#
# Coordination Sequence:
#
# PCOD8278784 Si02
#       8
#    16  16  16   8  16  16  16  16
#     4   9  19  35  53  73  97 125 158 198 243 288
#     4   9  18  32  51  75 103 132 165 202 244 292
#     4  10  19  33  53  77 104 136 175 218 263 309
#     4   8  16  30  50  74  98 126 164 210 256 300
#     4  10  20  34  51  74 105 140 175 213 257 308
#     4  10  20  34  50  69  95 125 158 196 237 283
#     4  10  19  31  48  71  98 125 157 193 235 285
#     4   9  18  32  51  75  99 125 158 199 241 288
#
# _framework density 17.660748000000002
#
# number of rings (size 3 to 8) (size 9 to 14) (size 15 to 20)
#    0.000    2.533    0.000    2.000    0.000    3.733 
#    0.000    2.667    1.467    0.000    0.000    0.000 
#    0.000    0.000    0.000    0.000    0.000    0.000 
#
# Total GULP energy -743716.298145 kJ/mol
# GULP energy per Si atom -12395.271636 kJ/mol
# Density = 1.762055 g / cm^3
# Si number density = 17.660748 Si / 1000 Ang^3
#
#
#
# Elastic Constant Matrix: (Units=GPa)
#
#
# Indices 1 2 3 4 5 6 
#
# 1 67.2841 58.1593 36.4378 0.0000 0.0000 0.0000
# 2 58.1593 127.3251 43.3687 0.0000 0.0000 0.0000
# 3 36.4378 43.3687 71.3235 0.0000 0.0000 0.0000
# 4 0.0000 0.0000 0.0000 18.3712 0.0000 0.0000
# 5 0.0000 0.0000 0.0000 0.0000 25.1882 0.0000
# 6 0.0000 0.0000 0.0000 0.0000 0.0000 27.9941
#
#
#
# Elastic Compliance Matrix: (Units=1/GPa)
#
#
# Indices 1 2 3 4 5 6 
#
# 1 0.027910 -0.009954 -0.008206 0.000000 0.000000 0.000000
# 2 -0.009954 0.013455 -0.003096 0.000000 0.000000 0.000000
# 3 -0.008206 -0.003096 0.020096 0.000000 0.000000 0.000000
# 4 0.000000 0.000000 0.000000 0.054433 0.000000 0.000000
# 5 0.000000 0.000000 0.000000 0.000000 0.039701 0.000000
# 6 0.000000 0.000000 0.000000 0.000000 0.000000 0.035722
#
#
# Mechanical properties :
#
#
# Convention : Reuss Voigt Hill
#
# Bulk Modulus (GPa) = 52.77473 60.20714 56.49093
# Shear Modulus (GPa) = 20.82062 22.84183 21.83123
#
# Velocity S-wave (km/s) = 3.43727 3.60024 3.51970
# Velocity P-wave (km/s) = 6.76021 7.17268 6.96949
#
# Compressibility (1/GPa) = 0.01894846
#
# Stress axis : x y z
#
# Youngs Moduli (GPa) = 35.82906 74.32088 49.76130
#
# Poissons Ratio (x) = 0.73976 0.40837
# Poissons Ratio (y) = 0.35663 0.15408
# Poissons Ratio (z) = 0.29403 0.23013
#
# Static dielectric constant tensor:
#      x y z
#    x 2.952290 0.000000 0.000000 
#    y 0.000000 3.580620 0.000000 
#    z 0.000000 0.000000 3.253230 
# 
# 
# High freq. dielectric constant tensor:
#      x y z
#    x 1.690720 0.000000 0.000000 
#    y 0.000000 1.687480 0.000000 
#    z 0.000000 0.000000 1.664990 
# 
# From -- ./inp_files/43927.got.cif
#   From: 2010.03.12/outbox.cif.g09.slc.cpg/sg67_22_cif.got.tgz:43927.got - 2010.04.10 22:41:39.
