data_PCOD8278833
_publ_section_title
;
Structure prediction by ZEFSAII (Michael W. Deem and Ramdas Pophale) SiO2 
 PCOD8278833
Probable space group: C M M A
;
_chemical_formula_sum "Si O2"
_cell_formula_units_Z 96
_cell_length_a 30.966420
_cell_length_b 15.955049
_cell_length_c 9.189964
_cell_angle_alpha 90.000000
_cell_angle_beta 90.000000
_cell_angle_gamma 90.000000
_cell_volume 4540.492392
_symmetry_space_group_name_H-M "C M M A"
_symmetry_group_IT_number 67
_symmetry_cell_setting 'orthorhombic'
loop_
_space_group_symop_operation_xyz
x,y,z
-x,1/2-y,z
x,-y,-z
-x,1/2+y,-z
-x,-y,-z
x,1/2+y,-z
-x,y,z
x,1/2-y,z
1/2+x,1/2+y,z
1/2-x,-y,z
1/2+x,1/2-y,-z
1/2-x,y,-z
1/2-x,1/2-y,-z
1/2+x,y,-z
1/2-x,1/2+y,z
1/2+x,-y,z
loop_
_atom_site_type_symbol
_atom_site_label
_atom_site_fract_x
_atom_site_fract_y
_atom_site_fract_z
Si Si1 0.548682 0.152746 0.627995
Si Si2 0.951200 0.592821 0.944774
Si Si3 0.707567 0.650008 0.083179
Si Si4 0.791127 0.349941 0.411325
Si Si5 0.371423 0.154709 0.101903
Si Si6 0.124446 0.349856 0.576442
O O1 0.500000 0.140913 0.568975
O O2 0.557734 0.250000 0.667034
O O3 0.556342 0.098134 0.772294
O O4 0.581012 0.119015 0.504250
O O5 0.000000 0.621173 0.983778
O O6 0.941581 0.500000 0.000000
O O7 0.917979 0.653312 0.025798
O O8 0.705622 0.750000 0.088235
O O9 0.709136 0.614577 0.247189
O O10 0.750000 0.618135 0.000000
O O11 0.665501 0.612761 0.999573
O O12 0.790161 0.250000 0.410045
O O13 0.750000 0.384943 0.500000
O O14 0.834204 0.383412 0.489087
O O15 0.357341 0.250000 0.126295
O O16 0.373948 0.111448 0.260901
O O17 0.123904 0.250000 0.582897
#
# Coordination Sequence:
#
# PCOD8278833 Si02
#       6
#    16  16  16  16  16  16
#     4   9  17  31  51  72  95 126 163 202 246 296
#     4  10  21  36  52  71  97 129 165 205 249 298
#     4   9  16  26  43  70 102 132 163 200 242 287
#     4   9  15  23  37  60  95 133 161 190 235 288
#     4  10  19  31  50  75 101 129 164 206 248 292
#     4   9  17  28  44  70 100 127 159 199 243 290
#
# _framework density 21.143080999999999
#
# number of rings (size 3 to 8) (size 9 to 14) (size 15 to 20)
#    0.000    2.667    0.000    2.500    0.000    8.333 
#    0.000    2.500    0.000    3.500    0.000    0.000 
#    0.000    1.333    0.000    0.000    0.000    0.000 
#
# Total GULP energy -595141.226931 kJ/mol
# GULP energy per Si atom -12398.775561 kJ/mol
# Density = 2.109496 g / cm^3
# Si number density = 21.143081 Si / 1000 Ang^3
#
#
#
# Elastic Constant Matrix: (Units=GPa)
#
#
# Indices 1 2 3 4 5 6 
#
# 1 189.8913 9.4105 117.5749 0.0000 0.0000 0.0000
# 2 9.4105 12.5296 12.8902 0.0000 0.0000 0.0000
# 3 117.5749 12.8902 205.3337 0.0000 0.0000 0.0000
# 4 0.0000 0.0000 0.0000 8.0437 0.0000 0.0000
# 5 0.0000 0.0000 0.0000 0.0000 48.7697 0.0000
# 6 0.0000 0.0000 0.0000 0.0000 0.0000 4.3829
#
#
#
# Elastic Compliance Matrix: (Units=1/GPa)
#
#
# Indices 1 2 3 4 5 6 
#
# 1 0.008182 -0.001417 -0.004596 0.000000 0.000000 0.000000
# 2 -0.001417 0.085567 -0.004560 0.000000 0.000000 0.000000
# 3 -0.004596 -0.004560 0.007788 0.000000 0.000000 0.000000
# 4 0.000000 0.000000 0.000000 0.124321 0.000000 0.000000
# 5 0.000000 0.000000 0.000000 0.000000 0.020505 0.000000
# 6 0.000000 0.000000 0.000000 0.000000 0.000000 0.228161
#
#
# Mechanical properties :
#
#
# Convention : Reuss Voigt Hill
#
# Bulk Modulus (GPa) = 12.43927 76.38952 44.41439
# Shear Modulus (GPa) = 9.56996 30.09785 19.83390
#
# Velocity S-wave (km/s) = 2.12981 3.77707 3.06613
# Velocity P-wave (km/s) = 3.45605 7.43168 5.79544
#
# Compressibility (1/GPa) = 0.08039057
#
# Stress axis : x y z
#
# Youngs Moduli (GPa) = 122.21593 11.68676 128.39888
#
# Poissons Ratio (x) = 0.01656 0.59015
# Poissons Ratio (y) = 0.17316 0.58554
# Poissons Ratio (z) = 0.56173 0.05330
#
# Static dielectric constant tensor:
#      x y z
#    x 3.997070 0.000000 0.000000 
#    y 0.000000 3.053930 0.000000 
#    z 0.000000 0.000000 4.047790 
# 
# 
# High freq. dielectric constant tensor:
#      x y z
#    x 1.843930 0.000000 0.000000 
#    y 0.000000 1.761760 0.000000 
#    z 0.000000 0.000000 1.839700 
# 
# From -- ./inp_files/11453.got.cif
#   From: 2010.03.12/outbox.cif.g09.slc.cpg/sg67_6_cif.got.tgz:11453.got - 2010.04.10 22:41:39.
