data_PCOD8278727
_publ_section_title
;
Structure prediction by ZEFSAII (Michael W. Deem and Ramdas Pophale) SiO2 
 PCOD8278727
Probable space group: C M M A
;
_chemical_formula_sum "Si O2"
_cell_formula_units_Z 80
_cell_length_a 25.259845
_cell_length_b 18.489302
_cell_length_c 9.117766
_cell_angle_alpha 90.000000
_cell_angle_beta 90.000000
_cell_angle_gamma 90.000000
_cell_volume 4258.333192
_symmetry_space_group_name_H-M "C M M A"
_symmetry_group_IT_number 67
_symmetry_cell_setting 'orthorhombic'
loop_
_space_group_symop_operation_xyz
x,y,z
-x,1/2-y,z
x,-y,-z
-x,1/2+y,-z
-x,-y,-z
x,1/2+y,-z
-x,y,z
x,1/2-y,z
1/2+x,1/2+y,z
1/2-x,-y,z
1/2+x,1/2-y,-z
1/2-x,y,-z
1/2-x,1/2-y,-z
1/2+x,y,-z
1/2-x,1/2+y,z
1/2+x,-y,z
loop_
_atom_site_type_symbol
_atom_site_label
_atom_site_fract_x
_atom_site_fract_y
_atom_site_fract_z
Si Si1 0.650179 0.908668 0.151908
Si Si2 0.560010 0.667637 0.323994
Si Si3 0.439963 0.569368 0.590557
Si Si4 0.249582 0.413637 0.665707
Si Si5 0.853336 0.421591 0.825644
O O1 0.596223 0.882594 0.224527
O O2 0.701433 0.879791 0.241515
O O3 0.654989 0.994064 0.152172
O O4 0.647035 0.881704 0.983391
O O5 0.500000 0.660986 0.264792
O O6 0.580032 0.750000 0.319171
O O7 0.562816 0.640384 0.490687
O O8 0.416528 0.500000 0.500000
O O9 0.500000 0.550947 0.638441
O O10 0.407638 0.588639 0.736535
O O11 0.250000 0.500000 0.665103
O O12 0.250000 0.383574 0.500000
O O13 0.195050 0.386359 0.736712
#
# Coordination Sequence:
#
# PCOD8278727 Si02
#       5
#    16  16  16  16  16
#     4  10  19  32  50  79 112 141 177 224 276 328
#     4  10  21  37  56  77 107 148 185 220 271 331
#     4  10  19  33  54  79 105 137 183 231 270 315
#     4   9  17  28  49  77 107 141 177 219 271 325
#     4  10  19  30  52  81 111 138 174 230 282 319
#
# _framework density 18.786693
#
# number of rings (size 3 to 8) (size 9 to 14) (size 15 to 20)
#    0.000    2.200    2.000    1.800    2.800    3.200 
#    0.000    3.000    0.000   10.200    0.000    0.000 
#    0.000    0.000    0.000    0.000    0.000    0.000 
#
# Total GULP energy -495878.545276 kJ/mol
# GULP energy per Si atom -12396.963632 kJ/mol
# Density = 1.874393 g / cm^3
# Si number density = 18.786693 Si / 1000 Ang^3
#
#
#
# Elastic Constant Matrix: (Units=GPa)
#
#
# Indices 1 2 3 4 5 6 
#
# 1 122.2514 10.4601 81.3648 0.0000 0.0000 0.0000
# 2 10.4601 23.8377 9.8467 0.0000 0.0000 0.0000
# 3 81.3648 9.8467 163.6479 0.0000 0.0000 0.0000
# 4 0.0000 0.0000 0.0000 8.9077 0.0000 0.0000
# 5 0.0000 0.0000 0.0000 0.0000 24.4444 0.0000
# 6 0.0000 0.0000 0.0000 0.0000 0.0000 7.8593
#
#
#
# Elastic Compliance Matrix: (Units=1/GPa)
#
#
# Indices 1 2 3 4 5 6 
#
# 1 0.012428 -0.002975 -0.006000 0.000000 0.000000 0.000000
# 2 -0.002975 0.043732 -0.001152 0.000000 0.000000 0.000000
# 3 -0.006000 -0.001152 0.009163 0.000000 0.000000 0.000000
# 4 0.000000 0.000000 0.000000 0.112263 0.000000 0.000000
# 5 0.000000 0.000000 0.000000 0.000000 0.040909 0.000000
# 6 0.000000 0.000000 0.000000 0.000000 0.000000 0.127239
#
#
# Mechanical properties :
#
#
# Convention : Reuss Voigt Hill
#
# Bulk Modulus (GPa) = 22.18853 57.00891 39.59872
# Shear Modulus (GPa) = 13.12301 22.11329 17.61815
#
# Velocity S-wave (km/s) = 2.64583 3.43457 3.06567
# Velocity P-wave (km/s) = 4.60112 6.79261 5.80129
#
# Compressibility (1/GPa) = 0.04506834
#
# Stress axis : x y z
#
# Youngs Moduli (GPa) = 80.46528 22.86671 109.13248
#
# Poissons Ratio (x) = 0.06803 0.65479
# Poissons Ratio (y) = 0.23938 0.12575
# Poissons Ratio (z) = 0.48279 0.02635
#
# Static dielectric constant tensor:
#      x y z
#    x 3.558870 0.000000 0.000000 
#    y 0.000000 2.986400 0.000000 
#    z 0.000000 0.000000 3.684290 
# 
# 
# High freq. dielectric constant tensor:
#      x y z
#    x 1.741620 0.000000 0.000000 
#    y 0.000000 1.672570 0.000000 
#    z 0.000000 0.000000 1.733870 
# 
# From -- ./inp_files/9956.got.cif
#   From: 2010.03.12/outbox.cif.g09.slc.cpg/sg67_5_cif.got.tgz:9956.got - 2010.04.10 22:41:39.
