data_PCOD8278847
_publ_section_title
;
Structure prediction by ZEFSAII (Michael W. Deem and Ramdas Pophale) SiO2 
 PCOD8278847
Probable space group: C M M A
;
_chemical_formula_sum "Si O2"
_cell_formula_units_Z 72
_cell_length_a 24.045776
_cell_length_b 19.288149
_cell_length_c 7.581955
_cell_angle_alpha 90.000000
_cell_angle_beta 90.000000
_cell_angle_gamma 90.000000
_cell_volume 3516.499434
_symmetry_space_group_name_H-M "C M M A"
_symmetry_group_IT_number 67
_symmetry_cell_setting 'orthorhombic'
loop_
_space_group_symop_operation_xyz
x,y,z
-x,1/2-y,z
x,-y,-z
-x,1/2+y,-z
-x,-y,-z
x,1/2+y,-z
-x,y,z
x,1/2-y,z
1/2+x,1/2+y,z
1/2-x,-y,z
1/2+x,1/2-y,-z
1/2-x,y,-z
1/2-x,1/2-y,-z
1/2+x,y,-z
1/2-x,1/2+y,z
1/2+x,-y,z
loop_
_atom_site_type_symbol
_atom_site_label
_atom_site_fract_x
_atom_site_fract_y
_atom_site_fract_z
Si Si1 0.939090 0.671277 0.609770
Si Si2 0.063236 0.145890 0.996723
Si Si3 0.357875 0.172049 0.314124
Si Si4 0.107976 0.500000 0.000000
Si Si5 0.189768 0.027142 0.694144
O O1 0.945971 0.750000 0.549843
O O2 0.894776 0.639661 0.473740
O O3 0.000000 0.634207 0.595149
O O4 0.916763 0.668041 0.808987
O O5 0.104341 0.181519 0.858746
O O6 0.000000 0.170567 0.961208
O O7 0.066618 0.063723 0.980805
O O8 0.333075 0.250000 0.354256
O O9 0.311014 0.112181 0.290298
O O10 0.145745 0.493066 0.173723
O O11 0.175213 0.000000 0.500000
O O12 0.250000 0.000000 0.752245
#
# Coordination Sequence:
#
# PCOD8278847 Si02
#       5
#    16  16  16   8  16
#     4   9  17  29  47  74 108 141 169 201 247 303
#     4  10  19  31  50  78 111 144 176 209 251 307
#     4  10  20  34  54  80 107 137 176 220 263 311
#     4  10  20  34  54  76 104 140 178 218 258 308
#     4  10  21  38  58  77 101 137 179 223 274 322
#
# _framework density 20.474906000000001
#
# number of rings (size 3 to 8) (size 9 to 14) (size 15 to 20)
#    0.000    2.222    0.000    3.333    0.000    2.222 
#    0.000    2.222    0.000   22.667    0.000    0.000 
#    0.000    0.000    0.000    0.000    0.000    0.000 
#
# Total GULP energy -446193.381375 kJ/mol
# GULP energy per Si atom -12394.260594 kJ/mol
# Density = 2.042830 g / cm^3
# Si number density = 20.474906 Si / 1000 Ang^3
#
#
#
# Elastic Constant Matrix: (Units=GPa)
#
#
# Indices 1 2 3 4 5 6 
#
# 1 70.8985 32.2179 26.0417 0.0000 0.0000 0.0000
# 2 32.2179 109.2444 8.1063 0.0000 0.0000 0.0000
# 3 26.0417 8.1063 91.3689 0.0000 0.0000 0.0000
# 4 0.0000 0.0000 0.0000 23.2887 0.0000 0.0000
# 5 0.0000 0.0000 0.0000 0.0000 13.3856 0.0000
# 6 0.0000 0.0000 0.0000 0.0000 0.0000 -211.5529
#
#
#
# Elastic Compliance Matrix: (Units=1/GPa)
#
#
# Indices 1 2 3 4 5 6 
#
# 1 0.018105 -0.004989 -0.004718 0.000000 0.000000 0.000000
# 2 -0.004989 0.010589 0.000483 0.000000 0.000000 0.000000
# 3 -0.004718 0.000483 0.012246 0.000000 0.000000 0.000000
# 4 0.000000 0.000000 0.000000 0.042939 0.000000 0.000000
# 5 0.000000 0.000000 0.000000 0.000000 0.074707 0.000000
# 6 0.000000 0.000000 0.000000 0.000000 0.000000 -0.004727
#
#
# Mechanical properties :
#
#
# Convention : Reuss Voigt Hill
#
# Bulk Modulus (GPa) = 44.46029 44.91595 44.68812
# Shear Modulus (GPa) = 27.80777 -21.29934 3.25422
#
# Velocity S-wave (km/s) = 3.68929 -3.22881 1.26207
# Velocity P-wave (km/s) = 6.31740 2.84330 4.89867
#
# Compressibility (1/GPa) = 0.02249198
#
# Stress axis : x y z
#
# Youngs Moduli (GPa) = 55.23426 94.43398 81.65660
#
# Poissons Ratio (x) = 0.47116 0.38522
# Poissons Ratio (y) = 0.27558 -0.03940
# Poissons Ratio (z) = 0.26057 -0.04557
#
# Static dielectric constant tensor:
#      x y z
#    x 3.497290 0.000000 0.000000 
#    y 0.000000 3.478520 0.000000 
#    z 0.000000 0.000000 3.822870 
# 
# 
# High freq. dielectric constant tensor:
#      x y z
#    x 1.767480 0.000000 0.000000 
#    y 0.000000 1.799490 0.000000 
#    z 0.000000 0.000000 1.814960 
# 
# From -- ./inp_files/12228.got.cif
#   From: 2010.03.12/outbox.cif.g09.slc.cpg/sg67_7_cif.got.tgz:12228.got - 2010.04.10 22:41:39.
