data_PCOD8278785
_publ_section_title
;
Structure prediction by ZEFSAII (Michael W. Deem and Ramdas Pophale) SiO2 
 PCOD8278785
Probable space group: C M M A
;
_chemical_formula_sum "Si O2"
_cell_formula_units_Z 96
_cell_length_a 8.952937
_cell_length_b 27.080530
_cell_length_c 23.751517
_cell_angle_alpha 90.000000
_cell_angle_beta 90.000000
_cell_angle_gamma 90.000000
_cell_volume 5758.561924
_symmetry_space_group_name_H-M "C M M A"
_symmetry_group_IT_number 67
_symmetry_cell_setting 'orthorhombic'
loop_
_space_group_symop_operation_xyz
x,y,z
-x,1/2-y,z
x,-y,-z
-x,1/2+y,-z
-x,-y,-z
x,1/2+y,-z
-x,y,z
x,1/2-y,z
1/2+x,1/2+y,z
1/2-x,-y,z
1/2+x,1/2-y,-z
1/2-x,y,-z
1/2-x,1/2-y,-z
1/2+x,y,-z
1/2-x,1/2+y,z
1/2+x,-y,z
loop_
_atom_site_type_symbol
_atom_site_label
_atom_site_fract_x
_atom_site_fract_y
_atom_site_fract_z
Si Si1 0.672311 0.806610 0.270598
Si Si2 0.171328 0.949950 0.226172
Si Si3 0.174922 0.306931 0.058225
Si Si4 0.826137 0.351074 0.835635
Si Si5 0.676148 0.948165 0.557322
Si Si6 0.325055 0.889698 0.667867
O O1 0.500000 0.819930 0.260061
O O2 0.692882 0.750000 0.288220
O O3 0.761498 0.816631 0.213366
O O4 0.736504 0.838916 0.322156
O O5 0.199935 0.908496 0.178954
O O6 0.230563 0.930072 0.286491
O O7 0.000000 0.963395 0.232093
O O8 0.250000 0.000000 0.207499
O O9 0.211029 0.250000 0.072279
O O10 0.241787 0.341042 0.106588
O O11 0.000000 0.316490 0.053441
O O12 0.250000 0.322998 0.000000
O O13 0.000000 0.338512 0.842308
O O14 0.500000 0.955977 0.549013
O O15 0.750000 0.927846 0.500000
O O16 0.711287 0.908602 0.605579
O O17 0.750000 0.000000 0.574331
O O18 0.500000 0.879233 0.677083
#
# Coordination Sequence:
#
# PCOD8278785 Si02
#       6
#    16  16  16  16  16  16
#     4  10  20  32  48  72  98 124 157 196 237 282
#     4   9  18  31  47  69  95 123 156 192 232 278
#     4  10  20  33  50  73  99 127 160 196 236 282
#     4  10  20  33  49  71  99 129 160 194 234 281
#     4  10  19  31  48  71  98 127 160 196 237 285
#     4   9  19  33  48  69  96 126 159 194 235 284
#
# _framework density 16.670829000000001
#
# number of rings (size 3 to 8) (size 9 to 14) (size 15 to 20)
#    0.000    2.333    0.000    4.500    0.000    9.000 
#    0.000    0.000    0.000    1.000    0.000    3.500 
#    0.000    0.000    0.000    0.000    0.000    0.000 
#
# Total GULP energy -595287.937498 kJ/mol
# GULP energy per Si atom -12401.832031 kJ/mol
# Density = 1.663289 g / cm^3
# Si number density = 16.670829 Si / 1000 Ang^3
#
#
#
# Elastic Constant Matrix: (Units=GPa)
#
#
# Indices 1 2 3 4 5 6 
#
# 1 92.9194 53.6174 56.1471 0.0000 0.0000 0.0000
# 2 53.6174 95.9060 55.4688 0.0000 0.0000 0.0000
# 3 56.1471 55.4688 118.7539 0.0000 0.0000 0.0000
# 4 0.0000 0.0000 0.0000 20.9483 0.0000 0.0000
# 5 0.0000 0.0000 0.0000 0.0000 30.2787 0.0000
# 6 0.0000 0.0000 0.0000 0.0000 0.0000 30.2511
#
#
#
# Elastic Compliance Matrix: (Units=1/GPa)
#
#
# Indices 1 2 3 4 5 6 
#
# 1 0.017968 -0.007031 -0.005211 0.000000 0.000000 0.000000
# 2 -0.007031 0.017038 -0.004634 0.000000 0.000000 0.000000
# 3 -0.005211 -0.004634 0.013049 0.000000 0.000000 0.000000
# 4 0.000000 0.000000 0.000000 0.047737 0.000000 0.000000
# 5 0.000000 0.000000 0.000000 0.000000 0.033027 0.000000
# 6 0.000000 0.000000 0.000000 0.000000 0.000000 0.033057
#
#
# Mechanical properties :
#
#
# Convention : Reuss Voigt Hill
#
# Bulk Modulus (GPa) = 69.91778 70.89399 70.40588
# Shear Modulus (GPa) = 24.95071 25.78533 25.36802
#
# Velocity S-wave (km/s) = 3.87288 3.93712 3.90513
# Velocity P-wave (km/s) = 7.87592 7.95525 7.91568
#
# Compressibility (1/GPa) = 0.01430251
#
# Stress axis : x y z
#
# Youngs Moduli (GPa) = 55.65380 58.69272 76.63434
#
# Poissons Ratio (x) = 0.41269 0.39935
# Poissons Ratio (y) = 0.39133 0.35510
# Poissons Ratio (z) = 0.29002 0.27197
#
# Static dielectric constant tensor:
#      x y z
#    x 3.248850 0.000000 0.000000 
#    y 0.000000 3.024810 0.000000 
#    z 0.000000 0.000000 3.109100 
# 
# 
# High freq. dielectric constant tensor:
#      x y z
#    x 1.656910 0.000000 0.000000 
#    y 0.000000 1.628570 0.000000 
#    z 0.000000 0.000000 1.634330 
# 
# From -- ./inp_files/40783.got.cif
#   From: 2010.03.12/outbox.cif.g09.slc.cpg/sg67_21_cif.got.tgz:40783.got - 2010.04.10 22:41:39.
