data_PCOD8278279
_publ_section_title
;
Structure prediction by ZEFSAII (Michael W. Deem and Ramdas Pophale) SiO2 
 PCOD8278279
Probable space group: C M M A
;
_chemical_formula_sum "Si O2"
_cell_formula_units_Z 128
_cell_length_a 20.166054
_cell_length_b 19.802489
_cell_length_c 20.432424
_cell_angle_alpha 90.000000
_cell_angle_beta 90.000000
_cell_angle_gamma 90.000000
_cell_volume 8159.444613
_symmetry_space_group_name_H-M "C M M A"
_symmetry_group_IT_number 67
_symmetry_cell_setting 'orthorhombic'
loop_
_space_group_symop_operation_xyz
x,y,z
-x,1/2-y,z
x,-y,-z
-x,1/2+y,-z
-x,-y,-z
x,1/2+y,-z
-x,y,z
x,1/2-y,z
1/2+x,1/2+y,z
1/2-x,-y,z
1/2+x,1/2-y,-z
1/2-x,y,-z
1/2-x,1/2-y,-z
1/2+x,y,-z
1/2-x,1/2+y,z
1/2+x,-y,z
loop_
_atom_site_type_symbol
_atom_site_label
_atom_site_fract_x
_atom_site_fract_y
_atom_site_fract_z
Si Si1 0.423445 0.557275 0.189945
Si Si2 0.181721 0.675294 0.461870
Si Si3 0.821292 0.027251 0.573927
Si Si4 0.076832 0.948091 0.659061
Si Si5 0.075271 0.173626 0.090775
Si Si6 0.676926 0.110123 0.998525
Si Si7 0.425378 0.675217 0.428614
Si Si8 0.322539 0.990564 0.895042
O O1 0.500000 0.538055 0.180306
O O2 0.404087 0.560912 0.265557
O O3 0.406093 0.627490 0.153251
O O4 0.379376 0.498102 0.158987
O O5 0.174485 0.750000 0.426896
O O6 0.250000 0.674655 0.500000
O O7 0.180262 0.608909 0.416538
O O8 0.121178 0.663506 0.510242
O O9 0.835914 0.000000 0.500000
O O10 0.750000 0.000000 0.597067
O O11 0.878410 0.003551 0.623159
O O12 0.092938 0.875401 0.628991
O O13 0.000000 0.969071 0.650008
O O14 0.084338 0.250000 0.115029
O O15 0.121476 0.162117 0.026948
O O16 0.000000 0.159070 0.068118
O O17 0.674687 0.046829 0.950588
O O18 0.750000 0.144424 0.000000
O O19 0.663609 0.082560 0.071978
O O20 0.500000 0.663261 0.454051
O O21 0.416189 0.750000 0.399096
O O22 0.250000 0.000000 0.861760
#
# Coordination Sequence:
#
# PCOD8278279 Si02
#       8
#    16  16  16  16  16  16  16  16
#     4   9  18  30  42  61  87 116 151 182 216 266
#     4  10  18  30  47  66  90 117 141 172 220 273
#     4  11  19  32  48  71  94 115 147 189 231 277
#     4  10  20  31  45  65  89 119 152 187 228 271
#     4   9  17  28  42  62  90 121 150 180 217 265
#     4   8  14  25  42  64  87 111 142 179 219 261
#     4   9  17  28  42  62  86 111 141 175 214 266
#     4   8  14  26  43  62  85 111 141 180 222 260
#
# _framework density 15.687341999999999
#
# number of rings (size 3 to 8) (size 9 to 14) (size 15 to 20)
#    0.000    2.750    2.500    0.750    0.000    2.500 
#    0.000    5.000    0.000    0.000    0.000    0.875 
#    0.000    1.000    0.000    0.000    0.000    0.000 
#
# Total GULP energy -793017.752709 kJ/mol
# GULP energy per Si atom -12390.902386 kJ/mol
# Density = 1.565164 g / cm^3
# Si number density = 15.687342 Si / 1000 Ang^3
#
#
#
# Elastic Constant Matrix: (Units=GPa)
#
#
# Indices 1 2 3 4 5 6 
#
# 1 86.5390 48.6611 46.1663 0.0000 0.0000 0.0000
# 2 48.6611 100.6747 44.2078 0.0000 0.0000 0.0000
# 3 46.1663 44.2078 56.2354 0.0000 0.0000 0.0000
# 4 0.0000 0.0000 0.0000 13.3705 0.0000 0.0000
# 5 0.0000 0.0000 0.0000 0.0000 21.8078 0.0000
# 6 0.0000 0.0000 0.0000 0.0000 0.0000 22.2005
#
#
#
# Elastic Compliance Matrix: (Units=1/GPa)
#
#
# Indices 1 2 3 4 5 6 
#
# 1 0.021590 -0.004051 -0.014540 0.000000 0.000000 0.000000
# 2 -0.004051 0.015929 -0.009197 0.000000 0.000000 0.000000
# 3 -0.014540 -0.009197 0.036948 0.000000 0.000000 0.000000
# 4 0.000000 0.000000 0.000000 0.074792 0.000000 0.000000
# 5 0.000000 0.000000 0.000000 0.000000 0.045855 0.000000
# 6 0.000000 0.000000 0.000000 0.000000 0.000000 0.045044
#
#
# Mechanical properties :
#
#
# Convention : Reuss Voigt Hill
#
# Bulk Modulus (GPa) = 52.92971 57.94661 55.43816
# Shear Modulus (GPa) = 16.55459 18.43668 17.49564
#
# Velocity S-wave (km/s) = 3.25204 3.43192 3.34319
# Velocity P-wave (km/s) = 6.92204 7.26104 7.09357
#
# Compressibility (1/GPa) = 0.01889298
#
# Stress axis : x y z
#
# Youngs Moduli (GPa) = 46.31829 62.77669 27.06470
#
# Poissons Ratio (x) = 0.25430 0.39351
# Poissons Ratio (y) = 0.18763 0.24891
# Poissons Ratio (z) = 0.67345 0.57735
#
# Static dielectric constant tensor:
#      x y z
#    x 3.239280 0.000000 0.000000 
#    y 0.000000 3.185470 0.000000 
#    z 0.000000 0.000000 2.881030 
# 
# 
# High freq. dielectric constant tensor:
#      x y z
#    x 1.615980 0.000000 0.000000 
#    y 0.000000 1.594050 0.000000 
#    z 0.000000 0.000000 1.563320 
# 
# From -- ./inp_files/39404.got.cif
#   From: 2010.03.12/outbox.cif.g09.slc.cpg/sg67_20_cif.got.tgz:39404.got - 2010.04.10 22:41:39.
