data_PCOD8278227
_publ_section_title
;
Structure prediction by ZEFSAII (Michael W. Deem and Ramdas Pophale) SiO2 
 PCOD8278227
Probable space group: C M M A
;
_chemical_formula_sum "Si O2"
_cell_formula_units_Z 96
_cell_length_a 27.370255
_cell_length_b 9.130653
_cell_length_c 24.144017
_cell_angle_alpha 90.000000
_cell_angle_beta 90.000000
_cell_angle_gamma 90.000000
_cell_volume 6033.790266
_symmetry_space_group_name_H-M "C M M A"
_symmetry_group_IT_number 67
_symmetry_cell_setting 'orthorhombic'
loop_
_space_group_symop_operation_xyz
x,y,z
-x,1/2-y,z
x,-y,-z
-x,1/2+y,-z
-x,-y,-z
x,1/2+y,-z
-x,y,z
x,1/2-y,z
1/2+x,1/2+y,z
1/2-x,-y,z
1/2+x,1/2-y,-z
1/2-x,y,-z
1/2-x,1/2-y,-z
1/2+x,y,-z
1/2-x,1/2+y,z
1/2+x,-y,z
loop_
_atom_site_type_symbol
_atom_site_label
_atom_site_fract_x
_atom_site_fract_y
_atom_site_fract_z
Si Si1 0.145658 0.081815 0.555364
Si Si2 0.058178 0.411914 0.051588
Si Si3 0.609723 0.424046 0.719756
Si Si4 0.699088 0.576589 0.666971
Si Si5 0.555586 0.080710 0.374274
Si Si6 0.554222 0.924021 0.171988
O O1 0.149796 0.250000 0.540419
O O2 0.182861 0.039424 0.604369
O O3 0.090536 0.040471 0.574089
O O4 0.161110 0.000000 0.500000
O O5 0.080411 0.250000 0.047005
O O6 0.072190 0.482461 0.111568
O O7 0.000000 0.406921 0.047336
O O8 0.080963 0.500000 0.000000
O O9 0.616760 0.250000 0.713771
O O10 0.660206 0.507833 0.709266
O O11 0.568123 0.476788 0.677144
O O12 0.592260 0.471523 0.780887
O O13 0.702534 0.750000 0.676868
O O14 0.750000 0.500000 0.679506
O O15 0.500000 0.053567 0.392842
O O16 0.564955 0.250000 0.356889
O O17 0.500000 0.986248 0.185949
O O18 0.550632 0.750000 0.168357
#
# Coordination Sequence:
#
# PCOD8278227 Si02
#       6
#    16  16  16  16  16  16
#     4   9  19  33  48  67  90 114 142 176 213 257
#     4   8  13  22  35  52  79 116 154 188 217 244
#     4  10  18  29  47  69  90 114 148 185 220 263
#     4  10  21  37  53  69  89 112 138 173 221 269
#     4   9  18  32  46  62  90 124 151 180 219 255
#     4   8  14  24  39  61  90 122 153 184 216 250
#
# _framework density 15.910398000000001
#
# number of rings (size 3 to 8) (size 9 to 14) (size 15 to 20)
#    0.000    3.000    0.000    3.500    0.000    5.000 
#    0.000    3.333    0.000    4.000    0.000    0.000 
#    0.000    0.667    0.000    7.667    0.000    2.667 
#
# Total GULP energy -594940.687316 kJ/mol
# GULP energy per Si atom -12394.597652 kJ/mol
# Density = 1.587419 g / cm^3
# Si number density = 15.910398 Si / 1000 Ang^3
#
#
#
# Elastic Constant Matrix: (Units=GPa)
#
#
# Indices 1 2 3 4 5 6 
#
# 1 81.7648 32.7621 41.4912 0.0000 0.0000 0.0000
# 2 32.7621 61.1860 46.9115 0.0000 0.0000 0.0000
# 3 41.4912 46.9115 128.9991 0.0000 0.0000 0.0000
# 4 0.0000 0.0000 0.0000 25.0303 0.0000 0.0000
# 5 0.0000 0.0000 0.0000 0.0000 12.8959 0.0000
# 6 0.0000 0.0000 0.0000 0.0000 0.0000 20.1803
#
#
#
# Elastic Compliance Matrix: (Units=1/GPa)
#
#
# Indices 1 2 3 4 5 6 
#
# 1 0.016302 -0.006529 -0.002869 0.000000 0.000000 0.000000
# 2 -0.006529 0.025277 -0.007092 0.000000 0.000000 0.000000
# 3 -0.002869 -0.007092 0.011254 0.000000 0.000000 0.000000
# 4 0.000000 0.000000 0.000000 0.039952 0.000000 0.000000
# 5 0.000000 0.000000 0.000000 0.000000 0.077544 0.000000
# 6 0.000000 0.000000 0.000000 0.000000 0.000000 0.049553
#
#
# Mechanical properties :
#
#
# Convention : Reuss Voigt Hill
#
# Bulk Modulus (GPa) = 50.37176 57.14217 53.75697
# Shear Modulus (GPa) = 19.26922 21.67364 20.47143
#
# Velocity S-wave (km/s) = 3.48387 3.69485 3.59091
# Velocity P-wave (km/s) = 6.92182 7.36176 7.14517
#
# Compressibility (1/GPa) = 0.01985239
#
# Stress axis : x y z
#
# Youngs Moduli (GPa) = 61.34096 39.56099 88.85800
#
# Poissons Ratio (x) = 0.25831 0.25493
# Poissons Ratio (y) = 0.40052 0.63020
# Poissons Ratio (z) = 0.17599 0.28057
#
# Static dielectric constant tensor:
#      x y z
#    x 2.831640 0.000000 0.000000 
#    y 0.000000 2.994440 0.000000 
#    z 0.000000 0.000000 3.186180 
# 
# 
# High freq. dielectric constant tensor:
#      x y z
#    x 1.580920 0.000000 0.000000 
#    y 0.000000 1.604280 0.000000 
#    z 0.000000 0.000000 1.608020 
# 
# From -- ./inp_files/40943.got.cif
#   From: 2010.03.12/outbox.cif.g09.slc.cpg/sg67_21_cif.got.tgz:40943.got - 2010.04.10 22:41:39.
