data_PCOD8278655
_publ_section_title
;
Structure prediction by ZEFSAII (Michael W. Deem and Ramdas Pophale) SiO2 
 PCOD8278655
Probable space group: C M M A
;
_chemical_formula_sum "Si O2"
_cell_formula_units_Z 96
_cell_length_a 9.081219
_cell_length_b 27.197131
_cell_length_c 23.925568
_cell_angle_alpha 90.000000
_cell_angle_beta 90.000000
_cell_angle_gamma 90.000000
_cell_volume 5909.211020
_symmetry_space_group_name_H-M "C M M A"
_symmetry_group_IT_number 67
_symmetry_cell_setting 'orthorhombic'
loop_
_space_group_symop_operation_xyz
x,y,z
-x,1/2-y,z
x,-y,-z
-x,1/2+y,-z
-x,-y,-z
x,1/2+y,-z
-x,y,z
x,1/2-y,z
1/2+x,1/2+y,z
1/2-x,-y,z
1/2+x,1/2-y,-z
1/2-x,y,-z
1/2-x,1/2-y,-z
1/2+x,y,-z
1/2-x,1/2+y,z
1/2+x,-y,z
loop_
_atom_site_type_symbol
_atom_site_label
_atom_site_fract_x
_atom_site_fract_y
_atom_site_fract_z
Si Si1 0.326883 0.049354 0.229666
Si Si2 0.670738 0.304345 0.729939
Si Si3 0.173758 0.448333 0.444646
Si Si4 0.327643 0.648227 0.829932
Si Si5 0.829441 0.598698 0.670682
Si Si6 0.172557 0.193548 0.944318
O O1 0.500000 0.040778 0.234252
O O2 0.286210 0.092212 0.185625
O O3 0.266940 0.062705 0.291046
O O4 0.250000 0.000000 0.207463
O O5 0.500000 0.308000 0.744386
O O6 0.712606 0.250000 0.707341
O O7 0.754314 0.313926 0.787452
O O8 0.713554 0.344571 0.682990
O O9 0.250000 0.500000 0.430432
O O10 0.250000 0.425658 0.500000
O O11 0.205438 0.411102 0.394030
O O12 0.000000 0.456092 0.454542
O O13 0.500000 0.657487 0.824906
O O14 0.272608 0.660336 0.892419
O O15 0.000000 0.588040 0.684375
O O16 0.217639 0.250000 0.932729
O O17 0.000000 0.188274 0.953463
O O18 0.250000 0.173308 0.000000
#
# Coordination Sequence:
#
# PCOD8278655 Si02
#       6
#    16  16  16  16  16  16
#     4  10  19  30  46  67  90 117 147 180 219 262
#     4   9  17  29  46  68  92 117 146 180 217 258
#     4  10  19  30  45  64  87 114 144 179 218 260
#     4   9  18  31  46  65  90 119 148 179 218 262
#     4   9  18  31  46  66  91 118 147 179 217 260
#     4   9  17  29  45  65  89 115 143 177 216 258
#
# _framework density 16.245823999999999
#
# number of rings (size 3 to 8) (size 9 to 14) (size 15 to 20)
#    0.000    2.667    0.000    2.500    0.000    5.000 
#    0.000    1.667    0.000    1.000    0.000    3.500 
#    0.000    0.000    0.000    0.000    0.000    0.667 
#
# Total GULP energy -595149.988642 kJ/mol
# GULP energy per Si atom -12398.958097 kJ/mol
# Density = 1.620885 g / cm^3
# Si number density = 16.245824 Si / 1000 Ang^3
#
#
#
# Elastic Constant Matrix: (Units=GPa)
#
#
# Indices 1 2 3 4 5 6 
#
# 1 54.5453 38.2183 44.9904 0.0000 0.0000 0.0000
# 2 38.2183 102.4182 65.9152 0.0000 0.0000 0.0000
# 3 44.9904 65.9152 139.9427 0.0000 0.0000 0.0000
# 4 0.0000 0.0000 0.0000 23.4583 0.0000 0.0000
# 5 0.0000 0.0000 0.0000 0.0000 26.0243 0.0000
# 6 0.0000 0.0000 0.0000 0.0000 0.0000 19.9167
#
#
#
# Elastic Compliance Matrix: (Units=1/GPa)
#
#
# Indices 1 2 3 4 5 6 
#
# 1 0.027763 -0.006623 -0.005806 0.000000 0.000000 0.000000
# 2 -0.006623 0.015591 -0.005214 0.000000 0.000000 0.000000
# 3 -0.005806 -0.005214 0.011468 0.000000 0.000000 0.000000
# 4 0.000000 0.000000 0.000000 0.042629 0.000000 0.000000
# 5 0.000000 0.000000 0.000000 0.000000 0.038426 0.000000
# 6 0.000000 0.000000 0.000000 0.000000 0.000000 0.050209
#
#
# Mechanical properties :
#
#
# Convention : Reuss Voigt Hill
#
# Bulk Modulus (GPa) = 51.18903 66.12821 58.65862
# Shear Modulus (GPa) = 21.94084 23.73204 22.83644
#
# Velocity S-wave (km/s) = 3.67897 3.82620 3.75331
# Velocity P-wave (km/s) = 7.04442 7.76613 7.41407
#
# Compressibility (1/GPa) = 0.01953543
#
# Stress axis : x y z
#
# Youngs Moduli (GPa) = 36.01909 64.13778 87.19635
#
# Poissons Ratio (x) = 0.42482 0.50625
# Poissons Ratio (y) = 0.23857 0.45468
# Poissons Ratio (z) = 0.20912 0.33444
#
# Static dielectric constant tensor:
#      x y z
#    x 3.108360 0.000000 0.000000 
#    y 0.000000 3.172170 0.000000 
#    z 0.000000 0.000000 3.103380 
# 
# 
# High freq. dielectric constant tensor:
#      x y z
#    x 1.630300 0.000000 0.000000 
#    y 0.000000 1.614980 0.000000 
#    z 0.000000 0.000000 1.614320 
# 
# From -- ./inp_files/40895.got.cif
#   From: 2010.03.12/outbox.cif.g09.slc.cpg/sg67_21_cif.got.tgz:40895.got - 2010.04.10 22:41:39.
