data_PCOD8278536
_publ_section_title
;
Structure prediction by ZEFSAII (Michael W. Deem and Ramdas Pophale) SiO2 
 PCOD8278536
Probable space group: C M M A
;
_chemical_formula_sum "Si O2"
_cell_formula_units_Z 96
_cell_length_a 28.778980
_cell_length_b 8.748732
_cell_length_c 20.822212
_cell_angle_alpha 90.000000
_cell_angle_beta 90.000000
_cell_angle_gamma 90.000000
_cell_volume 5242.607860
_symmetry_space_group_name_H-M "C M M A"
_symmetry_group_IT_number 67
_symmetry_cell_setting 'orthorhombic'
loop_
_space_group_symop_operation_xyz
x,y,z
-x,1/2-y,z
x,-y,-z
-x,1/2+y,-z
-x,-y,-z
x,1/2+y,-z
-x,y,z
x,1/2-y,z
1/2+x,1/2+y,z
1/2-x,-y,z
1/2+x,1/2-y,-z
1/2-x,y,-z
1/2-x,1/2-y,-z
1/2+x,y,-z
1/2-x,1/2+y,z
1/2+x,-y,z
loop_
_atom_site_type_symbol
_atom_site_label
_atom_site_fract_x
_atom_site_fract_y
_atom_site_fract_z
Si Si1 0.297196 0.929912 0.627099
Si Si2 0.052349 0.067898 0.689527
Si Si3 0.389333 0.568366 0.811715
Si Si4 0.701672 0.568641 0.234077
Si Si5 0.392929 0.071443 0.433387
Si Si6 0.447354 0.430440 0.065955
O O1 0.291361 0.750000 0.638756
O O2 0.338814 0.967118 0.578451
O O3 0.250000 0.000000 0.597354
O O4 0.308666 0.007118 0.694794
O O5 0.052375 0.250000 0.689197
O O6 0.080989 0.009346 0.750897
O O7 0.076284 0.003859 0.624770
O O8 0.000000 0.003898 0.693515
O O9 0.382797 0.750000 0.809457
O O10 0.339319 0.487639 0.812370
O O11 0.415620 0.512954 0.875544
O O12 0.704770 0.750000 0.234917
O O13 0.750000 0.500000 0.207837
O O14 0.401262 0.250000 0.437956
O O15 0.409697 0.000000 0.500000
O O16 0.500000 0.487885 0.078196
O O17 0.445980 0.250000 0.060579
O O18 0.427499 0.500000 0.000000
#
# Coordination Sequence:
#
# PCOD8278536 Si02
#       6
#    16  16  16  16  16  16
#     4  10  19  34  53  75 101 132 169 214 264 318
#     4   9  17  32  54  76  99 132 176 220 259 306
#     4  10  18  33  56  81 108 139 180 220 258 307
#     4  11  21  33  53  80 108 138 171 214 266 315
#     4  10  21  35  51  72 100 134 173 217 265 314
#     4   9  18  32  53  82 115 151 184 217 259 308
#
# _framework density 18.311496999999999
#
# number of rings (size 3 to 8) (size 9 to 14) (size 15 to 20)
#    0.000    2.167    1.667    3.500    0.000    4.667 
#    0.000    1.667    0.000    3.000    0.000    3.500 
#    0.000    0.000    0.000    0.000    0.000    0.000 
#
# Total GULP energy -595242.457009 kJ/mol
# GULP energy per Si atom -12400.884521 kJ/mol
# Density = 1.826982 g / cm^3
# Si number density = 18.311497 Si / 1000 Ang^3
#
#
#
# Elastic Constant Matrix: (Units=GPa)
#
#
# Indices 1 2 3 4 5 6 
#
# 1 129.6290 38.8270 75.8105 0.0000 0.0000 0.0000
# 2 38.8270 58.5122 31.3540 0.0000 0.0000 0.0000
# 3 75.8105 31.3540 142.4607 0.0000 0.0000 0.0000
# 4 0.0000 0.0000 0.0000 27.8947 0.0000 0.0000
# 5 0.0000 0.0000 0.0000 0.0000 28.8728 0.0000
# 6 0.0000 0.0000 0.0000 0.0000 0.0000 23.4006
#
#
#
# Elastic Compliance Matrix: (Units=1/GPa)
#
#
# Indices 1 2 3 4 5 6 
#
# 1 0.012533 -0.005377 -0.005486 0.000000 0.000000 0.000000
# 2 -0.005377 0.021682 -0.001911 0.000000 0.000000 0.000000
# 3 -0.005486 -0.001911 0.010359 0.000000 0.000000 0.000000
# 4 0.000000 0.000000 0.000000 0.035849 0.000000 0.000000
# 5 0.000000 0.000000 0.000000 0.000000 0.034635 0.000000
# 6 0.000000 0.000000 0.000000 0.000000 0.000000 0.042734
#
#
# Mechanical properties :
#
#
# Convention : Reuss Voigt Hill
#
# Bulk Modulus (GPa) = 52.55575 69.17611 60.86593
# Shear Modulus (GPa) = 26.35975 28.34096 27.35035
#
# Velocity S-wave (km/s) = 3.79822 3.93837 3.86893
# Velocity P-wave (km/s) = 6.92810 7.65117 7.29859
#
# Compressibility (1/GPa) = 0.01902741
#
# Stress axis : x y z
#
# Youngs Moduli (GPa) = 79.78726 46.12062 96.52989
#
# Poissons Ratio (x) = 0.24799 0.52958
# Poissons Ratio (y) = 0.42901 0.18444
# Poissons Ratio (z) = 0.43773 0.08812
#
# Static dielectric constant tensor:
#      x y z
#    x 3.506610 0.000000 0.000000 
#    y 0.000000 3.133500 0.000000 
#    z 0.000000 0.000000 3.330870 
# 
# 
# High freq. dielectric constant tensor:
#      x y z
#    x 1.717380 0.000000 0.000000 
#    y 0.000000 1.690500 0.000000 
#    z 0.000000 0.000000 1.695210 
# 
# From -- ./inp_files/39866.got.cif
#   From: 2010.03.12/outbox.cif.g09.slc.cpg/sg67_20_cif.got.tgz:39866.got - 2010.04.10 22:41:39.
