data_PCOD8278302
_publ_section_title
;
Structure prediction by ZEFSAII (Michael W. Deem and Ramdas Pophale) SiO2 
 PCOD8278302
Probable space group: C M M A
;
_chemical_formula_sum "Si O2"
_cell_formula_units_Z 96
_cell_length_a 19.590385
_cell_length_b 19.486541
_cell_length_c 15.007511
_cell_angle_alpha 90.000000
_cell_angle_beta 90.000000
_cell_angle_gamma 90.000000
_cell_volume 5729.099923
_symmetry_space_group_name_H-M "C M M A"
_symmetry_group_IT_number 67
_symmetry_cell_setting 'orthorhombic'
loop_
_space_group_symop_operation_xyz
x,y,z
-x,1/2-y,z
x,-y,-z
-x,1/2+y,-z
-x,-y,-z
x,1/2+y,-z
-x,y,z
x,1/2-y,z
1/2+x,1/2+y,z
1/2-x,-y,z
1/2+x,1/2-y,-z
1/2-x,y,-z
1/2-x,1/2-y,-z
1/2+x,y,-z
1/2-x,1/2+y,z
1/2+x,-y,z
loop_
_atom_site_type_symbol
_atom_site_label
_atom_site_fract_x
_atom_site_fract_y
_atom_site_fract_z
Si Si1 0.690799 0.328710 0.564015
Si Si2 0.421767 0.063112 0.560262
Si Si3 0.575462 0.964045 0.905725
Si Si4 0.423849 0.578428 0.238621
Si Si5 0.199793 0.670919 0.767933
Si Si6 0.276904 0.077486 0.095835
O O1 0.672232 0.250000 0.545334
O O2 0.750000 0.355740 0.500000
O O3 0.622851 0.370167 0.539575
O O4 0.718311 0.338938 0.664304
O O5 0.500000 0.080891 0.536875
O O6 0.412257 0.044558 0.664285
O O7 0.395881 0.000000 0.500000
O O8 0.500000 0.929293 0.889014
O O9 0.640468 0.913669 0.903655
O O10 0.591676 0.019573 0.831093
O O11 0.573890 0.000000 0.000000
O O12 0.500000 0.607494 0.229225
O O13 0.376743 0.643567 0.217945
O O14 0.203079 0.750000 0.797490
O O15 0.252003 0.627304 0.826564
O O16 0.250000 0.000000 0.113373
O O17 0.250000 0.103037 0.000000
#
# Coordination Sequence:
#
# PCOD8278302 Si02
#       6
#    16  16  16  16  16  16
#     4   9  19  35  50  69  98 130 164 202 245 297
#     4   9  18  31  47  71 100 125 159 205 247 292
#     4  10  18  30  49  71  97 131 165 199 243 290
#     4   9  17  30  48  72 100 127 158 199 250 299
#     4  10  20  33  51  73  99 131 164 203 250 295
#     4  11  19  33  51  75 103 130 165 208 244 291
#
# _framework density 16.756558999999999
#
# number of rings (size 3 to 8) (size 9 to 14) (size 15 to 20)
#    0.000    2.333    3.333    0.000    0.000    2.667 
#    0.000    3.333    0.000    0.500    0.000    2.333 
#    0.000    0.000    0.000    0.333    0.000    0.167 
#
# Total GULP energy -594982.582921 kJ/mol
# GULP energy per Si atom -12395.470478 kJ/mol
# Density = 1.671842 g / cm^3
# Si number density = 16.756559 Si / 1000 Ang^3
#
#
#
# Elastic Constant Matrix: (Units=GPa)
#
#
# Indices 1 2 3 4 5 6 
#
# 1 125.6231 50.7451 54.5099 0.0000 0.0000 0.0000
# 2 50.7451 70.3153 47.6529 0.0000 0.0000 0.0000
# 3 54.5099 47.6529 87.7568 0.0000 0.0000 0.0000
# 4 0.0000 0.0000 0.0000 25.8522 0.0000 0.0000
# 5 0.0000 0.0000 0.0000 0.0000 31.1349 0.0000
# 6 0.0000 0.0000 0.0000 0.0000 0.0000 24.0792
#
#
#
# Elastic Compliance Matrix: (Units=1/GPa)
#
#
# Indices 1 2 3 4 5 6 
#
# 1 0.012240 -0.005824 -0.004440 0.000000 0.000000 0.000000
# 2 -0.005824 0.025274 -0.010106 0.000000 0.000000 0.000000
# 3 -0.004440 -0.010106 0.019641 0.000000 0.000000 0.000000
# 4 0.000000 0.000000 0.000000 0.038681 0.000000 0.000000
# 5 0.000000 0.000000 0.000000 0.000000 0.032118 0.000000
# 6 0.000000 0.000000 0.000000 0.000000 0.000000 0.041530
#
#
# Mechanical properties :
#
#
# Convention : Reuss Voigt Hill
#
# Bulk Modulus (GPa) = 60.92580 65.50122 63.21351
# Shear Modulus (GPa) = 23.18079 24.93240 24.05660
#
# Velocity S-wave (km/s) = 3.72342 3.86154 3.79311
# Velocity P-wave (km/s) = 7.41104 7.68484 7.54918
#
# Compressibility (1/GPa) = 0.01641341
#
# Stress axis : x y z
#
# Youngs Moduli (GPa) = 81.70255 39.56658 50.91394
#
# Poissons Ratio (x) = 0.23043 0.22606
# Poissons Ratio (y) = 0.47583 0.51456
# Poissons Ratio (z) = 0.36277 0.39988
#
# Static dielectric constant tensor:
#      x y z
#    x 3.494250 0.000000 0.000000 
#    y 0.000000 2.866240 0.000000 
#    z 0.000000 0.000000 3.318930 
# 
# 
# High freq. dielectric constant tensor:
#      x y z
#    x 1.657010 0.000000 0.000000 
#    y 0.000000 1.609470 0.000000 
#    z 0.000000 0.000000 1.658050 
# 
# From -- ./inp_files/20834.got.cif
#   From: 2010.03.12/outbox.cif.g09.slc.cpg/sg67_11_cif.got.tgz:20834.got - 2010.04.10 22:41:39.
