data_PCOD8278929
_publ_section_title
;
Structure prediction by ZEFSAII (Michael W. Deem and Ramdas Pophale) SiO2 
 PCOD8278929
Probable space group: C M M A
;
_chemical_formula_sum "Si O2"
_cell_formula_units_Z 96
_cell_length_a 27.771208
_cell_length_b 16.770859
_cell_length_c 11.536188
_cell_angle_alpha 90.000000
_cell_angle_beta 90.000000
_cell_angle_gamma 90.000000
_cell_volume 5372.945110
_symmetry_space_group_name_H-M "C M M A"
_symmetry_group_IT_number 67
_symmetry_cell_setting 'orthorhombic'
loop_
_space_group_symop_operation_xyz
x,y,z
-x,1/2-y,z
x,-y,-z
-x,1/2+y,-z
-x,-y,-z
x,1/2+y,-z
-x,y,z
x,1/2-y,z
1/2+x,1/2+y,z
1/2-x,-y,z
1/2+x,1/2-y,-z
1/2-x,y,-z
1/2-x,1/2-y,-z
1/2+x,y,-z
1/2-x,1/2+y,z
1/2+x,-y,z
loop_
_atom_site_type_symbol
_atom_site_label
_atom_site_fract_x
_atom_site_fract_y
_atom_site_fract_z
Si Si1 0.447876 0.407118 0.992455
Si Si2 0.150994 0.401359 0.755068
Si Si3 0.350231 0.841325 0.015553
Si Si4 0.743782 0.342473 0.367942
Si Si5 0.947968 0.656613 0.249256
Si Si6 0.795556 0.447628 0.187017
O O1 0.500000 0.395701 0.928032
O O2 0.403059 0.362927 0.930665
O O3 0.434721 0.500000 0.000000
O O4 0.452807 0.368817 0.117387
O O5 0.189555 0.361105 0.670871
O O6 0.097912 0.390392 0.696637
O O7 0.161032 0.495065 0.772241
O O8 0.151994 0.356878 0.878686
O O9 0.338190 0.750000 0.042079
O O10 0.310211 0.895278 0.076824
O O11 0.755433 0.250000 0.351651
O O12 0.750000 0.369714 0.500000
O O13 0.782483 0.391151 0.293990
O O14 0.936954 0.750000 0.257328
O O15 0.000000 0.636944 0.310168
O O16 0.750000 0.500000 0.147997
#
# Coordination Sequence:
#
# PCOD8278929 Si02
#       6
#    16  16  16  16  16  16
#     4   9  16  26  42  65  95 129 162 195 234 283
#     4  10  19  32  50  73 101 128 158 197 243 289
#     4  11  20  31  48  71 101 132 165 200 241 288
#     4  10  21  37  55  74  95 121 159 202 243 288
#     4   9  16  27  44  67  95 124 156 196 241 284
#     4  10  22  35  49  68  96 131 164 199 238 287
#
# _framework density 17.867294999999999
#
# number of rings (size 3 to 8) (size 9 to 14) (size 15 to 20)
#    0.000    2.167    0.000    6.000    0.000    8.667 
#    0.000    4.167    0.000    0.000    0.000    3.500 
#    0.000    2.667    0.000    0.000    0.000    0.000 
#
# Total GULP energy -594869.359951 kJ/mol
# GULP energy per Si atom -12393.111666 kJ/mol
# Density = 1.782663 g / cm^3
# Si number density = 17.867295 Si / 1000 Ang^3
#
#
#
# Elastic Constant Matrix: (Units=GPa)
#
#
# Indices 1 2 3 4 5 6 
#
# 1 139.6251 61.5462 44.5420 0.0000 0.0000 0.0000
# 2 61.5462 102.3676 26.8868 0.0000 0.0000 0.0000
# 3 44.5420 26.8868 58.6203 0.0000 0.0000 0.0000
# 4 0.0000 0.0000 0.0000 17.3807 0.0000 0.0000
# 5 0.0000 0.0000 0.0000 0.0000 7.5940 0.0000
# 6 0.0000 0.0000 0.0000 0.0000 0.0000 31.5752
#
#
#
# Elastic Compliance Matrix: (Units=1/GPa)
#
#
# Indices 1 2 3 4 5 6 
#
# 1 0.011494 -0.005249 -0.006326 0.000000 0.000000 0.000000
# 2 -0.005249 0.013504 -0.002205 0.000000 0.000000 0.000000
# 3 -0.006326 -0.002205 0.022877 0.000000 0.000000 0.000000
# 4 0.000000 0.000000 0.000000 0.057535 0.000000 0.000000
# 5 0.000000 0.000000 0.000000 0.000000 0.131683 0.000000
# 6 0.000000 0.000000 0.000000 0.000000 0.000000 0.031670
#
#
# Mechanical properties :
#
#
# Convention : Reuss Voigt Hill
#
# Bulk Modulus (GPa) = 49.22640 62.95146 56.08893
# Shear Modulus (GPa) = 16.49652 22.48586 19.49119
#
# Velocity S-wave (km/s) = 3.04185 3.55137 3.30644
# Velocity P-wave (km/s) = 6.32045 7.21981 6.78504
#
# Compressibility (1/GPa) = 0.02031430
#
# Stress axis : x y z
#
# Youngs Moduli (GPa) = 87.00370 74.05384 43.71177
#
# Poissons Ratio (x) = 0.38870 0.27652
# Poissons Ratio (y) = 0.45667 0.09640
# Poissons Ratio (z) = 0.55038 0.16331
#
# Static dielectric constant tensor:
#      x y z
#    x 4.245420 0.000000 0.000000 
#    y 0.000000 3.791140 0.000000 
#    z 0.000000 0.000000 2.832200 
# 
# 
# High freq. dielectric constant tensor:
#      x y z
#    x 1.713030 0.000000 0.000000 
#    y 0.000000 1.705920 0.000000 
#    z 0.000000 0.000000 1.626080 
# 
# From -- ./inp_files/22933.got.cif
#   From: 2010.03.12/outbox.cif.g09.slc.cpg/sg67_12_cif.got.tgz:22933.got - 2010.04.10 22:41:39.
