data_PCOD8278473
_publ_section_title
;
Structure prediction by ZEFSAII (Michael W. Deem and Ramdas Pophale) SiO2 
 PCOD8278473
Probable space group: C M M A
;
_chemical_formula_sum "Si O2"
_cell_formula_units_Z 120
_cell_length_a 8.689075
_cell_length_b 26.722195
_cell_length_c 28.431426
_cell_angle_alpha 90.000000
_cell_angle_beta 90.000000
_cell_angle_gamma 90.000000
_cell_volume 6601.525684
_symmetry_space_group_name_H-M "C M M A"
_symmetry_group_IT_number 67
_symmetry_cell_setting 'orthorhombic'
loop_
_space_group_symop_operation_xyz
x,y,z
-x,1/2-y,z
x,-y,-z
-x,1/2+y,-z
-x,-y,-z
x,1/2+y,-z
-x,y,z
x,1/2-y,z
1/2+x,1/2+y,z
1/2-x,-y,z
1/2+x,1/2-y,-z
1/2-x,y,-z
1/2-x,1/2-y,-z
1/2+x,y,-z
1/2-x,1/2+y,z
1/2+x,-y,z
loop_
_atom_site_type_symbol
_atom_site_label
_atom_site_fract_x
_atom_site_fract_y
_atom_site_fract_z
Si Si1 0.180750 0.899215 0.308535
Si Si2 0.684026 0.147043 0.947877
Si Si3 0.680181 0.448106 0.215474
Si Si4 0.183707 0.445649 0.890478
Si Si5 0.322865 0.805121 0.635501
Si Si6 0.819844 0.647566 0.550123
Si Si7 0.684502 0.250000 0.052323
Si Si8 0.818750 0.051292 0.395086
O O1 0.230705 0.906662 0.254077
O O2 0.232088 0.843597 0.324178
O O3 0.263276 0.939405 0.341855
O O4 0.000000 0.907690 0.314300
O O5 0.500000 0.149448 0.948712
O O6 0.739741 0.098113 0.920455
O O7 0.751021 0.198509 0.923997
O O8 0.750000 0.142080 0.000000
O O9 0.500000 0.455289 0.214424
O O10 0.750000 0.500000 0.232563
O O11 0.735615 0.433717 0.163158
O O12 0.250000 0.500000 0.905848
O O13 0.000000 0.445620 0.897409
O O14 0.500000 0.814601 0.622489
O O15 0.295272 0.750000 0.656323
O O16 0.227026 0.810185 0.587519
O O17 0.750000 0.660377 0.500000
O O18 0.757644 0.594650 0.570142
O O19 0.000000 0.646750 0.544248
O O20 0.500000 0.250000 0.053435
O O21 0.750000 0.250000 0.000000
O O22 0.000000 0.048468 0.395346
O O23 0.750000 0.000000 0.414769
#
# Coordination Sequence:
#
# PCOD8278473 Si02
#       8
#    16  16  16  16  16  16   8  16
#     4   9  17  31  51  74  99 127 161 203 245 291
#     4  11  21  35  55  80 108 143 183 227 273 320
#     4   9  18  31  50  74 103 134 168 207 249 298
#     4  10  20  35  52  75 108 144 182 223 268 322
#     4   9  18  33  53  74  96 125 160 200 244 289
#     4  10  21  35  50  69  94 124 159 197 237 287
#     4  10  18  32  54  80 106 136 176 222 268 312
#     4  10  20  32  47  70  97 125 157 194 238 288
#
# _framework density 18.177616
#
# number of rings (size 3 to 8) (size 9 to 14) (size 15 to 20)
#    0.000    2.267    0.000    4.200    0.000    4.800 
#    0.000    2.667    1.467    0.000    0.000    0.000 
#    0.000    0.000    0.000    0.000    0.000    0.000 
#
# Total GULP energy -743795.721495 kJ/mol
# GULP energy per Si atom -12396.595358 kJ/mol
# Density = 1.813624 g / cm^3
# Si number density = 18.177616 Si / 1000 Ang^3
#
#
#
# Elastic Constant Matrix: (Units=GPa)
#
#
# Indices 1 2 3 4 5 6 
#
# 1 76.8230 41.1339 30.7921 0.0000 0.0000 0.0000
# 2 41.1339 134.6616 58.3363 0.0000 0.0000 0.0000
# 3 30.7921 58.3363 91.1171 0.0000 0.0000 0.0000
# 4 0.0000 0.0000 0.0000 17.1562 0.0000 0.0000
# 5 0.0000 0.0000 0.0000 0.0000 20.8134 0.0000
# 6 0.0000 0.0000 0.0000 0.0000 0.0000 27.8381
#
#
#
# Elastic Compliance Matrix: (Units=1/GPa)
#
#
# Indices 1 2 3 4 5 6 
#
# 1 0.016207 -0.003567 -0.003193 0.000000 0.000000 0.000000
# 2 -0.003567 0.011061 -0.005876 0.000000 0.000000 0.000000
# 3 -0.003193 -0.005876 0.015816 0.000000 0.000000 0.000000
# 4 0.000000 0.000000 0.000000 0.058288 0.000000 0.000000
# 5 0.000000 0.000000 0.000000 0.000000 0.048046 0.000000
# 6 0.000000 0.000000 0.000000 0.000000 0.000000 0.035922
#
#
# Mechanical properties :
#
#
# Convention : Reuss Voigt Hill
#
# Bulk Modulus (GPa) = 56.14498 62.56960 59.35729
# Shear Modulus (GPa) = 23.08931 24.65084 23.87007
#
# Velocity S-wave (km/s) = 3.56786 3.68653 3.62768
# Velocity P-wave (km/s) = 6.92292 7.25374 7.09026
#
# Compressibility (1/GPa) = 0.01781103
#
# Stress axis : x y z
#
# Youngs Moduli (GPa) = 61.70233 90.40479 63.22650
#
# Poissons Ratio (x) = 0.32250 0.20188
# Poissons Ratio (y) = 0.22011 0.37154
# Poissons Ratio (z) = 0.19702 0.53125
#
# Static dielectric constant tensor:
#      x y z
#    x 3.400580 0.000000 0.000000 
#    y 0.000000 3.654690 0.000000 
#    z 0.000000 0.000000 3.397750 
# 
# 
# High freq. dielectric constant tensor:
#      x y z
#    x 1.711130 0.000000 0.000000 
#    y 0.000000 1.708460 0.000000 
#    z 0.000000 0.000000 1.684210 
# 
# From -- ./inp_files/43936.got.cif
#   From: 2010.03.12/outbox.cif.g09.slc.cpg/sg67_22_cif.got.tgz:43936.got - 2010.04.10 22:41:39.
