data_PCOD8278387
_publ_section_title
;
Structure prediction by ZEFSAII (Michael W. Deem and Ramdas Pophale) SiO2 
 PCOD8278387
Probable space group: C M M A
;
_chemical_formula_sum "Si O2"
_cell_formula_units_Z 64
_cell_length_a 25.209148
_cell_length_b 26.567029
_cell_length_c 5.266241
_cell_angle_alpha 90.000000
_cell_angle_beta 90.000000
_cell_angle_gamma 90.000000
_cell_volume 3526.970992
_symmetry_space_group_name_H-M "C M M A"
_symmetry_group_IT_number 67
_symmetry_cell_setting 'orthorhombic'
loop_
_space_group_symop_operation_xyz
x,y,z
-x,1/2-y,z
x,-y,-z
-x,1/2+y,-z
-x,-y,-z
x,1/2+y,-z
-x,y,z
x,1/2-y,z
1/2+x,1/2+y,z
1/2-x,-y,z
1/2+x,1/2-y,-z
1/2-x,y,-z
1/2-x,1/2-y,-z
1/2+x,y,-z
1/2-x,1/2+y,z
1/2+x,-y,z
loop_
_atom_site_type_symbol
_atom_site_label
_atom_site_fract_x
_atom_site_fract_y
_atom_site_fract_z
Si Si1 0.561812 0.469027 0.749670
Si Si2 0.098760 0.141410 0.233393
Si Si3 0.091199 0.693315 0.272103
Si Si4 0.808125 0.806880 0.554954
O O1 0.577999 0.500000 0.500000
O O2 0.500000 0.454832 0.745732
O O3 0.595854 0.418423 0.754191
O O4 0.576779 0.500000 0.000000
O O5 0.067722 0.166290 0.474115
O O6 0.160964 0.158210 0.240380
O O7 0.072934 0.161965 0.973634
O O8 0.068702 0.750000 0.251677
O O9 0.155673 0.693946 0.299059
O O10 0.802836 0.750000 0.664525
O O11 0.750000 0.829633 0.500000
#
# Coordination Sequence:
#
# PCOD8278387 Si02
#       4
#    16  16  16  16
#     4  10  21  37  57  78  95 121 171 225 263 299
#     4  10  18  31  51  74 100 134 163 207 257 296
#     4   9  17  29  48  74 104 135 164 196 238 296
#     4   8  16  29  48  76 105 134 169 201 234 290
#
# _framework density 18.145883999999999
#
# number of rings (size 3 to 8) (size 9 to 14) (size 15 to 20)
#    1.500    1.250    0.000    3.000    0.000    1.000 
#    0.000    3.750    0.000    9.000    0.000    0.000 
#    0.000    0.000    0.000    0.000    0.000    0.000 
#
# Total GULP energy -396433.335072 kJ/mol
# GULP energy per Si atom -12388.541721 kJ/mol
# Density = 1.810458 g / cm^3
# Si number density = 18.145884 Si / 1000 Ang^3
#
#
#
# Elastic Constant Matrix: (Units=GPa)
#
#
# Indices 1 2 3 4 5 6 
#
# 1 34.5238 28.1864 9.0318 0.0000 0.0000 0.0000
# 2 28.1864 147.9111 66.5450 0.0000 0.0000 0.0000
# 3 9.0318 66.5450 154.5352 0.0000 0.0000 0.0000
# 4 0.0000 0.0000 0.0000 33.2910 0.0000 0.0000
# 5 0.0000 0.0000 0.0000 0.0000 1.0782 0.0000
# 6 0.0000 0.0000 0.0000 0.0000 0.0000 24.8409
#
#
#
# Elastic Compliance Matrix: (Units=1/GPa)
#
#
# Indices 1 2 3 4 5 6 
#
# 1 0.034429 -0.007014 0.001008 0.000000 0.000000 0.000000
# 2 -0.007014 0.009814 -0.003816 0.000000 0.000000 0.000000
# 3 0.001008 -0.003816 0.008055 0.000000 0.000000 0.000000
# 4 0.000000 0.000000 0.000000 0.030038 0.000000 0.000000
# 5 0.000000 0.000000 0.000000 0.000000 0.927453 0.000000
# 6 0.000000 0.000000 0.000000 0.000000 0.000000 0.040256
#
#
# Mechanical properties :
#
#
# Convention : Reuss Voigt Hill
#
# Bulk Modulus (GPa) = 30.62443 60.49960 45.56201
# Shear Modulus (GPa) = 4.62717 27.38916 16.00817
#
# Velocity S-wave (km/s) = 1.59860 3.88930 2.97340
# Velocity P-wave (km/s) = 4.50786 7.31997 6.07876
#
# Compressibility (1/GPa) = 0.03265367
#
# Stress axis : x y z
#
# Youngs Moduli (GPa) = 29.04564 101.89058 124.13994
#
# Poissons Ratio (x) = 0.71471 -0.12518
# Poissons Ratio (y) = 0.20374 0.47375
# Poissons Ratio (z) = -0.02929 0.38884
#
# Static dielectric constant tensor:
#      x y z
#    x 2.951710 0.000000 0.000000 
#    y 0.000000 3.147980 0.000000 
#    z 0.000000 0.000000 3.360120 
# 
# 
# High freq. dielectric constant tensor:
#      x y z
#    x 1.660750 0.000000 0.000000 
#    y 0.000000 1.693870 0.000000 
#    z 0.000000 0.000000 1.707260 
# 
# From -- ./inp_files/2194.got.cif
#   From: 2010.03.12/outbox.cif.g09.slc.cpg/sg67_2_cif.got.tgz:2194.got - 2010.04.10 22:41:39.
