data_PCOD8278201
_publ_section_title
;
Structure prediction by ZEFSAII (Michael W. Deem and Ramdas Pophale) SiO2 
 PCOD8278201
Probable space group: C M M A
;
_chemical_formula_sum "Si O2"
_cell_formula_units_Z 96
_cell_length_a 26.633753
_cell_length_b 9.543292
_cell_length_c 22.295958
_cell_angle_alpha 90.000000
_cell_angle_beta 90.000000
_cell_angle_gamma 90.000000
_cell_volume 5667.045737
_symmetry_space_group_name_H-M "C M M A"
_symmetry_group_IT_number 67
_symmetry_cell_setting 'orthorhombic'
loop_
_space_group_symop_operation_xyz
x,y,z
-x,1/2-y,z
x,-y,-z
-x,1/2+y,-z
-x,-y,-z
x,1/2+y,-z
-x,y,z
x,1/2-y,z
1/2+x,1/2+y,z
1/2-x,-y,z
1/2+x,1/2-y,-z
1/2-x,y,-z
1/2-x,1/2-y,-z
1/2+x,y,-z
1/2-x,1/2+y,z
1/2+x,-y,z
loop_
_atom_site_type_symbol
_atom_site_label
_atom_site_fract_x
_atom_site_fract_y
_atom_site_fract_z
Si Si1 0.363132 0.414994 0.058323
Si Si2 0.557986 0.587858 0.130956
Si Si3 0.059069 0.250000 0.543839
Si Si4 0.298065 0.908182 0.827212
Si Si5 0.059133 0.464752 0.641943
Si Si6 0.059282 0.250000 0.411227
Si Si7 0.100177 0.908309 0.231067
O O1 0.374451 0.250000 0.045131
O O2 0.412684 0.492532 0.083135
O O3 0.318081 0.430899 0.105416
O O4 0.345444 0.500000 0.000000
O O5 0.500000 0.583115 0.112977
O O6 0.576954 0.750000 0.131240
O O7 0.564831 0.519582 0.196934
O O8 0.075629 0.384653 0.581787
O O9 0.084400 0.250000 0.477740
O O10 0.000000 0.250000 0.534676
O O11 0.280648 0.750000 0.817546
O O12 0.341940 0.949484 0.780487
O O13 0.250000 0.000000 0.813474
O O14 0.076338 0.621479 0.629329
O O15 0.089332 0.408521 0.698610
O O16 0.000000 0.445907 0.654675
O O17 0.000000 0.250000 0.420504
O O18 0.091064 0.750000 0.205712
#
# Coordination Sequence:
#
# PCOD8278201 Si02
#       7
#    16  16   8  16  16   8  16
#     4  10  21  37  56  78 103 131 165 200 239 292
#     4  10  21  34  50  73 102 136 171 208 246 282
#     4   9  16  28  44  64  93 139 176 201 241 283
#     4   9  20  37  55  75  98 124 155 201 255 302
#     4  10  18  28  45  68  99 137 171 205 241 284
#     4   9  18  28  40  64 101 135 172 209 239 279
#     4  10  20  34  50  71  99 130 169 207 247 301
#
# _framework density 16.940044
#
# number of rings (size 3 to 8) (size 9 to 14) (size 15 to 20)
#    0.000    2.333    0.833    3.000    1.167    8.000 
#    0.000    1.667    0.000    0.000    0.000    0.000 
#    0.000    4.000    0.000    0.000    0.000    0.000 
#
# Total GULP energy -595035.346885 kJ/mol
# GULP energy per Si atom -12396.569727 kJ/mol
# Density = 1.690149 g / cm^3
# Si number density = 16.940044 Si / 1000 Ang^3
#
#
#
# Elastic Constant Matrix: (Units=GPa)
#
#
# Indices 1 2 3 4 5 6 
#
# 1 66.8403 38.3802 26.4214 0.0000 0.0000 0.0000
# 2 38.3802 121.2877 24.9714 0.0000 0.0000 0.0000
# 3 26.4214 24.9714 77.5983 0.0000 0.0000 0.0000
# 4 0.0000 0.0000 0.0000 15.0421 0.0000 0.0000
# 5 0.0000 0.0000 0.0000 0.0000 12.5752 0.0000
# 6 0.0000 0.0000 0.0000 0.0000 0.0000 24.9974
#
#
#
# Elastic Compliance Matrix: (Units=1/GPa)
#
#
# Indices 1 2 3 4 5 6 
#
# 1 0.020015 -0.005280 -0.005116 0.000000 0.000000 0.000000
# 2 -0.005280 0.010223 -0.001492 0.000000 0.000000 0.000000
# 3 -0.005116 -0.001492 0.015109 0.000000 0.000000 0.000000
# 4 0.000000 0.000000 0.000000 0.066480 0.000000 0.000000
# 5 0.000000 0.000000 0.000000 0.000000 0.079522 0.000000
# 6 0.000000 0.000000 0.000000 0.000000 0.000000 0.040004
#
#
# Mechanical properties :
#
#
# Convention : Reuss Voigt Hill
#
# Bulk Modulus (GPa) = 46.35836 49.47468 47.91652
# Shear Modulus (GPa) = 19.06072 22.25315 20.65693
#
# Velocity S-wave (km/s) = 3.35802 3.62835 3.49580
# Velocity P-wave (km/s) = 6.51618 6.84269 6.68143
#
# Compressibility (1/GPa) = 0.02157108
#
# Stress axis : x y z
#
# Youngs Moduli (GPa) = 49.96189 97.81930 66.18649
#
# Poissons Ratio (x) = 0.51652 0.33859
# Poissons Ratio (y) = 0.26382 0.09874
# Poissons Ratio (z) = 0.25559 0.14593
#
# Static dielectric constant tensor:
#      x y z
#    x 2.756710 0.000000 0.000000 
#    y 0.000000 3.411130 0.000000 
#    z 0.000000 0.000000 3.185690 
# 
# 
# High freq. dielectric constant tensor:
#      x y z
#    x 1.605930 0.000000 0.000000 
#    y 0.000000 1.675190 0.000000 
#    z 0.000000 0.000000 1.653320 
# 
# From -- ./inp_files/40958.got.cif
#   From: 2010.03.12/outbox.cif.g09.slc.cpg/sg67_21_cif.got.tgz:40958.got - 2010.04.10 22:41:39.
