data_PCOD8278013
_publ_section_title
;
Structure prediction by ZEFSAII (Michael W. Deem and Ramdas Pophale) SiO2 
 PCOD8278013
Probable space group: C M M A
;
_chemical_formula_sum "Si O2"
_cell_formula_units_Z 104
_cell_length_a 26.037751
_cell_length_b 8.470945
_cell_length_c 27.708452
_cell_angle_alpha 90.000000
_cell_angle_beta 90.000000
_cell_angle_gamma 90.000000
_cell_volume 6111.496889
_symmetry_space_group_name_H-M "C M M A"
_symmetry_group_IT_number 67
_symmetry_cell_setting 'orthorhombic'
loop_
_space_group_symop_operation_xyz
x,y,z
-x,1/2-y,z
x,-y,-z
-x,1/2+y,-z
-x,-y,-z
x,1/2+y,-z
-x,y,z
x,1/2-y,z
1/2+x,1/2+y,z
1/2-x,-y,z
1/2+x,1/2-y,-z
1/2-x,y,-z
1/2-x,1/2-y,-z
1/2+x,y,-z
1/2-x,1/2+y,z
1/2+x,-y,z
loop_
_atom_site_type_symbol
_atom_site_label
_atom_site_fract_x
_atom_site_fract_y
_atom_site_fract_z
Si Si1 0.339649 0.935550 0.746093
Si Si2 0.500000 0.063842 0.946473
Si Si3 0.554441 0.563223 0.777819
Si Si4 0.304976 0.064242 0.846646
Si Si5 0.805359 0.064249 0.354871
Si Si6 0.692230 0.562520 0.548829
Si Si7 0.910037 0.563283 0.118438
O O1 0.334563 0.750000 0.755983
O O2 0.398954 0.993606 0.744397
O O3 0.310570 0.019543 0.790040
O O4 0.319168 0.977565 0.694152
O O5 0.500000 0.250000 0.945892
O O6 0.446476 0.005964 0.922919
O O7 0.500000 0.000000 0.000000
O O8 0.500000 0.491675 0.759533
O O9 0.551571 0.750000 0.777545
O O10 0.564204 0.505745 0.832044
O O11 0.305383 0.250000 0.851792
O O12 0.250000 0.000000 0.865294
O O13 0.350786 0.996684 0.880627
O O14 0.808429 0.250000 0.346827
O O15 0.750000 0.000000 0.368071
O O16 0.836553 0.009566 0.403072
O O17 0.663799 0.500000 0.500000
O O18 0.690707 0.750000 0.551519
O O19 0.750000 0.500000 0.545929
O O20 0.908684 0.750000 0.112759
#
# Coordination Sequence:
#
# PCOD8278013 Si02
#       7
#    16   8  16  16  16  16  16
#     4  10  19  30  45  67  95 128 165 202 245 292
#     4  12  24  38  58  86 114 142 174 216 261 306
#     4   8  14  27  49  72  94 124 158 194 238 289
#     4  11  21  34  51  75 105 139 178 214 251 300
#     4  11  20  30  42  58  85 119 156 196 239 282
#     4  10  17  27  41  58  79 107 146 187 233 282
#     4  10  19  35  57  80 107 138 172 213 259 304
#
# _framework density 17.017108
#
# number of rings (size 3 to 8) (size 9 to 14) (size 15 to 20)
#    0.000    1.846    0.769    8.538    0.000    0.000 
#    0.000    0.000    0.000    0.462    0.000    3.231 
#    0.000    0.615    0.000    1.692    0.000    2.769 
#
# Total GULP energy -644198.954335 kJ/mol
# GULP energy per Si atom -12388.441430 kJ/mol
# Density = 1.697838 g / cm^3
# Si number density = 17.017108 Si / 1000 Ang^3
#
#
#
# Elastic Constant Matrix: (Units=GPa)
#
#
# Indices 1 2 3 4 5 6 
#
# 1 99.5831 27.8051 33.1921 0.0000 0.0000 0.0000
# 2 27.8051 99.8486 20.5473 0.0000 0.0000 0.0000
# 3 33.1921 20.5473 94.2300 0.0000 0.0000 0.0000
# 4 0.0000 0.0000 0.0000 48.3105 0.0000 0.0000
# 5 0.0000 0.0000 0.0000 0.0000 17.1933 0.0000
# 6 0.0000 0.0000 0.0000 0.0000 0.0000 17.8410
#
#
#
# Elastic Compliance Matrix: (Units=1/GPa)
#
#
# Indices 1 2 3 4 5 6 
#
# 1 0.011982 -0.002584 -0.003657 0.000000 0.000000 0.000000
# 2 -0.002584 0.011043 -0.001498 0.000000 0.000000 0.000000
# 3 -0.003657 -0.001498 0.012227 0.000000 0.000000 0.000000
# 4 0.000000 0.000000 0.000000 0.020699 0.000000 0.000000
# 5 0.000000 0.000000 0.000000 0.000000 0.058162 0.000000
# 6 0.000000 0.000000 0.000000 0.000000 0.000000 0.056051
#
#
# Mechanical properties :
#
#
# Convention : Reuss Voigt Hill
#
# Bulk Modulus (GPa) = 50.57072 50.75007 50.66039
# Shear Modulus (GPa) = 26.00991 30.81012 28.41001
#
# Velocity S-wave (km/s) = 3.91379 4.25966 4.09038
# Velocity P-wave (km/s) = 7.08560 7.35395 7.22102
#
# Compressibility (1/GPa) = 0.01977429
#
# Stress axis : x y z
#
# Youngs Moduli (GPa) = 83.45574 90.55517 81.78512
#
# Poissons Ratio (x) = 0.23401 0.29911
# Poissons Ratio (y) = 0.21566 0.12249
# Poissons Ratio (z) = 0.30522 0.13563
#
# Static dielectric constant tensor:
#      x y z
#    x 3.421870 0.000000 0.000000 
#    y 0.000000 3.193360 0.000000 
#    z 0.000000 0.000000 3.433170 
# 
# 
# High freq. dielectric constant tensor:
#      x y z
#    x 1.629380 0.000000 0.000000 
#    y 0.000000 1.665650 0.000000 
#    z 0.000000 0.000000 1.647520 
# 
# From -- ./inp_files/44842.got.cif
#   From: 2010.03.12/outbox.cif.g09.slc.cpg/sg67_23_cif.got.tgz:44842.got - 2010.04.10 22:41:39.
