data_PCOD8278111
_publ_section_title
;
Structure prediction by ZEFSAII (Michael W. Deem and Ramdas Pophale) SiO2 
 PCOD8278111
Probable space group: C M M A
;
_chemical_formula_sum "Si O2"
_cell_formula_units_Z 80
_cell_length_a 18.250117
_cell_length_b 8.660834
_cell_length_c 25.804961
_cell_angle_alpha 90.000000
_cell_angle_beta 90.000000
_cell_angle_gamma 90.000000
_cell_volume 4078.763974
_symmetry_space_group_name_H-M "C M M A"
_symmetry_group_IT_number 67
_symmetry_cell_setting 'orthorhombic'
loop_
_space_group_symop_operation_xyz
x,y,z
-x,1/2-y,z
x,-y,-z
-x,1/2+y,-z
-x,-y,-z
x,1/2+y,-z
-x,y,z
x,1/2-y,z
1/2+x,1/2+y,z
1/2-x,-y,z
1/2+x,1/2-y,-z
1/2-x,y,-z
1/2-x,1/2-y,-z
1/2+x,y,-z
1/2-x,1/2+y,z
1/2+x,-y,z
loop_
_atom_site_type_symbol
_atom_site_label
_atom_site_fract_x
_atom_site_fract_y
_atom_site_fract_z
Si Si1 0.414434 0.927545 0.748151
Si Si2 0.829781 0.430838 0.343977
Si Si3 0.416783 0.067824 0.945371
Si Si4 0.668501 0.433031 0.448402
Si Si5 0.170922 0.068782 0.851220
O O1 0.500000 0.959028 0.752416
O O2 0.396805 0.750000 0.734227
O O3 0.379920 0.974358 0.802827
O O4 0.382074 0.037329 0.704190
O O5 0.821442 0.250000 0.353479
O O6 0.750000 0.500000 0.332218
O O7 0.867881 0.507655 0.394988
O O8 0.500000 0.014201 0.933280
O O9 0.410726 0.250000 0.947858
O O10 0.362836 0.005248 0.902136
O O11 0.390408 0.000000 0.000000
O O12 0.628127 0.500000 0.500000
O O13 0.668389 0.250000 0.450672
O O14 0.750000 0.500000 0.447439
O O15 0.177008 0.250000 0.859721
O O16 0.250000 0.000000 0.839781
#
# Coordination Sequence:
#
# PCOD8278111 Si02
#       5
#    16  16  16  16  16
#     4  10  22  40  60  82 110 145 184 228 280 336
#     4  11  21  34  54  81 112 146 186 230 277 328
#     4  10  21  38  61  88 118 152 190 231 276 329
#     4  10  17  28  47  74 108 143 181 225 275 328
#     4  11  23  39  60  86 116 149 187 232 281 332
#
# _framework density 19.613783999999999
#
# number of rings (size 3 to 8) (size 9 to 14) (size 15 to 20)
#    0.000    1.600    0.000    7.800    0.000    6.000 
#    0.000    2.000    0.000    0.600    0.000    0.000 
#    0.000    0.000    0.000    0.000    0.000    0.000 
#
# Total GULP energy -496091.757888 kJ/mol
# GULP energy per Si atom -12402.293947 kJ/mol
# Density = 1.956914 g / cm^3
# Si number density = 19.613784 Si / 1000 Ang^3
#
#
#
# Elastic Constant Matrix: (Units=GPa)
#
#
# Indices 1 2 3 4 5 6 
#
# 1 83.8557 36.5133 52.6100 0.0000 0.0000 0.0000
# 2 36.5133 137.4574 62.2861 0.0000 0.0000 0.0000
# 3 52.6100 62.2861 147.6178 0.0000 0.0000 0.0000
# 4 0.0000 0.0000 0.0000 34.8565 0.0000 0.0000
# 5 0.0000 0.0000 0.0000 0.0000 -24.0100 0.0000
# 6 0.0000 0.0000 0.0000 0.0000 0.0000 26.3312
#
#
#
# Elastic Compliance Matrix: (Units=1/GPa)
#
#
# Indices 1 2 3 4 5 6 
#
# 1 0.015807 -0.002035 -0.004775 0.000000 0.000000 0.000000
# 2 -0.002035 0.009257 -0.003180 0.000000 0.000000 0.000000
# 3 -0.004775 -0.003180 0.009818 0.000000 0.000000 0.000000
# 4 0.000000 0.000000 0.000000 0.028689 0.000000 0.000000
# 5 0.000000 0.000000 0.000000 0.000000 -0.041649 0.000000
# 6 0.000000 0.000000 0.000000 0.000000 0.000000 0.037978
#
#
# Mechanical properties :
#
#
# Convention : Reuss Voigt Hill
#
# Bulk Modulus (GPa) = 67.11072 74.63887 70.87479
# Shear Modulus (GPa) = 58.92934 21.93695 40.43315
#
# Velocity S-wave (km/s) = 5.48727 3.34795 4.54526
# Velocity P-wave (km/s) = 8.62770 7.28573 7.98496
#
# Compressibility (1/GPa) = 0.01490075
#
# Stress axis : x y z
#
# Youngs Moduli (GPa) = 63.26266 108.02879 101.85460
#
# Poissons Ratio (x) = 0.21987 0.48633
# Poissons Ratio (y) = 0.12876 0.32394
# Poissons Ratio (z) = 0.30206 0.34358
#
# Static dielectric constant tensor:
#      x y z
#    x 3.283230 0.000000 0.000000 
#    y 0.000000 3.644710 0.000000 
#    z 0.000000 0.000000 4.190540 
# 
# 
# High freq. dielectric constant tensor:
#      x y z
#    x 1.733210 0.000000 0.000000 
#    y 0.000000 1.778010 0.000000 
#    z 0.000000 0.000000 1.788740 
# 
# From -- ./inp_files/44430.got.cif
#   From: 2010.03.12/outbox.cif.g09.slc.cpg/sg67_23_cif.got.tgz:44430.got - 2010.04.10 22:41:39.
