data_PCOD8278650
_publ_section_title
;
Structure prediction by ZEFSAII (Michael W. Deem and Ramdas Pophale) SiO2 
 PCOD8278650
Probable space group: C M M A
;
_chemical_formula_sum "Si O2"
_cell_formula_units_Z 88
_cell_length_a 25.219093
_cell_length_b 8.754025
_cell_length_c 24.833118
_cell_angle_alpha 90.000000
_cell_angle_beta 90.000000
_cell_angle_gamma 90.000000
_cell_volume 5482.371964
_symmetry_space_group_name_H-M "C M M A"
_symmetry_group_IT_number 67
_symmetry_cell_setting 'orthorhombic'
loop_
_space_group_symop_operation_xyz
x,y,z
-x,1/2-y,z
x,-y,-z
-x,1/2+y,-z
-x,-y,-z
x,1/2+y,-z
-x,y,z
x,1/2-y,z
1/2+x,1/2+y,z
1/2-x,-y,z
1/2+x,1/2-y,-z
1/2-x,y,-z
1/2-x,1/2-y,-z
1/2+x,y,-z
1/2-x,1/2+y,z
1/2+x,-y,z
loop_
_atom_site_type_symbol
_atom_site_label
_atom_site_fract_x
_atom_site_fract_y
_atom_site_fract_z
Si Si1 0.936750 0.577993 0.554084
Si Si2 0.693022 0.068621 0.943556
Si Si3 0.000000 0.069976 0.941442
Si Si4 0.436982 0.921331 0.661550
Si Si5 0.102488 0.430004 0.875724
Si Si6 0.938024 0.427551 0.229139
O O1 0.914529 0.500000 0.500000
O O2 0.915510 0.750000 0.555840
O O3 0.913884 0.490949 0.606304
O O4 0.000000 0.573799 0.554225
O O5 0.696971 0.250000 0.948463
O O6 0.750000 0.000000 0.928955
O O7 0.653205 0.021331 0.896619
O O8 0.672169 0.000000 0.000000
O O9 0.051631 0.013429 0.909454
O O10 0.000000 0.250000 0.946817
O O11 0.000000 0.000000 0.000000
O O12 0.500000 0.921362 0.658506
O O13 0.415083 0.750000 0.668508
O O14 0.417934 0.023386 0.711789
O O15 0.111922 0.250000 0.881485
O O16 0.094332 0.472825 0.813636
O O17 0.926052 0.250000 0.220417
O O18 0.000000 0.464942 0.222463
#
# Coordination Sequence:
#
# PCOD8278650 Si02
#       6
#    16  16   8  16  16  16
#     4   9  15  22  32  47  68  95 132 178 223 265
#     4  11  22  38  57  77  96 120 150 187 229 275
#     4  10  22  34  48  68  94 122 149 180 223 270
#     4   9  16  25  37  52  73 104 140 180 223 266
#     4  11  21  35  51  71  95 124 154 188 228 274
#     4  10  19  30  44  63  87 117 151 187 225 270
#
# _framework density 16.051447
#
# number of rings (size 3 to 8) (size 9 to 14) (size 15 to 20)
#    0.000    2.000    0.909    4.909    0.000    8.000 
#    0.000    0.000    0.000    0.000    0.000    0.000 
#    0.000    0.000    0.000    0.000    0.000    0.909 
#
# Total GULP energy -545690.368852 kJ/mol
# GULP energy per Si atom -12402.053838 kJ/mol
# Density = 1.601491 g / cm^3
# Si number density = 16.051447 Si / 1000 Ang^3
#
#
#
# Elastic Constant Matrix: (Units=GPa)
#
#
# Indices 1 2 3 4 5 6 
#
# 1 42.3567 26.0411 32.5810 0.0000 0.0000 0.0000
# 2 26.0411 104.5683 40.3489 0.0000 0.0000 0.0000
# 3 32.5810 40.3489 127.9024 0.0000 0.0000 0.0000
# 4 0.0000 0.0000 0.0000 35.7583 0.0000 0.0000
# 5 0.0000 0.0000 0.0000 0.0000 7.3138 0.0000
# 6 0.0000 0.0000 0.0000 0.0000 0.0000 16.4000
#
#
#
# Elastic Compliance Matrix: (Units=1/GPa)
#
#
# Indices 1 2 3 4 5 6 
#
# 1 0.031896 -0.005474 -0.006398 0.000000 0.000000 0.000000
# 2 -0.005474 0.011828 -0.002337 0.000000 0.000000 0.000000
# 3 -0.006398 -0.002337 0.010185 0.000000 0.000000 0.000000
# 4 0.000000 0.000000 0.000000 0.027966 0.000000 0.000000
# 5 0.000000 0.000000 0.000000 0.000000 0.136728 0.000000
# 6 0.000000 0.000000 0.000000 0.000000 0.000000 0.060976
#
#
# Mechanical properties :
#
#
# Convention : Reuss Voigt Hill
#
# Bulk Modulus (GPa) = 39.22940 52.52994 45.87967
# Shear Modulus (GPa) = 15.79806 23.61817 19.70812
#
# Velocity S-wave (km/s) = 3.14062 3.84005 3.50781
# Velocity P-wave (km/s) = 6.13549 7.24281 6.71202
#
# Compressibility (1/GPa) = 0.02549108
#
# Stress axis : x y z
#
# Youngs Moduli (GPa) = 31.35174 84.54390 98.17936
#
# Poissons Ratio (x) = 0.46284 0.62815
# Poissons Ratio (y) = 0.17164 0.22943
# Poissons Ratio (z) = 0.20059 0.19757
#
# Static dielectric constant tensor:
#      x y z
#    x 2.577670 0.000000 0.000000 
#    y 0.000000 3.205400 0.000000 
#    z 0.000000 0.000000 3.177360 
# 
# 
# High freq. dielectric constant tensor:
#      x y z
#    x 1.545370 0.000000 0.000000 
#    y 0.000000 1.637210 0.000000 
#    z 0.000000 0.000000 1.628820 
# 
# From -- ./inp_files/44625.got.cif
#   From: 2010.03.12/outbox.cif.g09.slc.cpg/sg67_23_cif.got.tgz:44625.got - 2010.04.10 22:41:39.
