data_PCOD8278266
_publ_section_title
;
Structure prediction by ZEFSAII (Michael W. Deem and Ramdas Pophale) SiO2 
 PCOD8278266
Probable space group: C M M A
;
_chemical_formula_sum "Si O2"
_cell_formula_units_Z 104
_cell_length_a 27.465451
_cell_length_b 8.704990
_cell_length_c 23.731207
_cell_angle_alpha 90.000000
_cell_angle_beta 90.000000
_cell_angle_gamma 90.000000
_cell_volume 5673.810660
_symmetry_space_group_name_H-M "C M M A"
_symmetry_group_IT_number 67
_symmetry_cell_setting 'orthorhombic'
loop_
_space_group_symop_operation_xyz
x,y,z
-x,1/2-y,z
x,-y,-z
-x,1/2+y,-z
-x,-y,-z
x,1/2+y,-z
-x,y,z
x,1/2-y,z
1/2+x,1/2+y,z
1/2-x,-y,z
1/2+x,1/2-y,-z
1/2-x,y,-z
1/2-x,1/2-y,-z
1/2+x,y,-z
1/2-x,1/2+y,z
1/2+x,-y,z
loop_
_atom_site_type_symbol
_atom_site_label
_atom_site_fract_x
_atom_site_fract_y
_atom_site_fract_z
Si Si1 0.500000 0.066629 0.062170
Si Si2 0.889524 0.929206 0.662747
Si Si3 0.697741 0.932133 0.729158
Si Si4 0.099350 0.569388 0.938925
Si Si5 0.054543 0.923644 0.242012
Si Si6 0.358034 0.425450 0.161997
Si Si7 0.555571 0.569365 0.560501
O O1 0.500000 0.250000 0.064450
O O2 0.550025 0.002357 0.088620
O O3 0.500000 0.000000 0.000000
O O4 0.880000 0.750000 0.657068
O O5 0.839554 0.008885 0.682130
O O6 0.931833 0.960696 0.708104
O O7 0.906247 0.995238 0.603192
O O8 0.698671 0.750000 0.726203
O O9 0.681276 0.985012 0.792108
O O10 0.750000 0.000000 0.715139
O O11 0.093750 0.750000 0.945620
O O12 0.142812 0.527178 0.895098
O O13 0.111790 0.500000 0.000000
O O14 0.059694 0.750000 0.265985
O O15 0.088711 0.945218 0.188620
O O16 0.000000 0.957836 0.221116
O O17 0.347318 0.250000 0.145229
O O18 0.567568 0.500000 0.500000
O O19 0.500000 0.529517 0.578303
O O20 0.563864 0.750000 0.558565
#
# Coordination Sequence:
#
# PCOD8278266 Si02
#       7
#     8  16  16  16  16  16  16
#     4  10  18  30  46  64  92 130 172 210 247 294
#     4  11  21  33  52  79 110 144 183 224 266 315
#     4  10  21  39  62  84 107 135 171 218 274 327
#     4  11  21  33  49  71  99 134 174 215 257 308
#     4   9  18  32  49  71 102 141 177 214 265 316
#     4   9  19  34  52  76 103 135 170 210 262 319
#     4  10  20  34  53  79 114 155 195 232 269 312
#
# _framework density 18.329832
#
# number of rings (size 3 to 8) (size 9 to 14) (size 15 to 20)
#    0.000    2.000    0.000    6.692    1.077    6.154 
#    0.000    0.000    0.000    0.923    0.000    6.462 
#    0.000    0.000    0.000    0.000    0.000    0.000 
#
# Total GULP energy -644710.337490 kJ/mol
# GULP energy per Si atom -12398.275721 kJ/mol
# Density = 1.828811 g / cm^3
# Si number density = 18.329832 Si / 1000 Ang^3
#
#
#
# Elastic Constant Matrix: (Units=GPa)
#
#
# Indices 1 2 3 4 5 6 
#
# 1 93.4579 35.9669 44.8089 0.0000 0.0000 0.0000
# 2 35.9669 119.1352 51.9124 0.0000 0.0000 0.0000
# 3 44.8089 51.9124 102.0109 0.0000 0.0000 0.0000
# 4 0.0000 0.0000 0.0000 32.3094 0.0000 0.0000
# 5 0.0000 0.0000 0.0000 0.0000 20.6747 0.0000
# 6 0.0000 0.0000 0.0000 0.0000 0.0000 24.7479
#
#
#
# Elastic Compliance Matrix: (Units=1/GPa)
#
#
# Indices 1 2 3 4 5 6 
#
# 1 0.013907 -0.001975 -0.005104 0.000000 0.000000 0.000000
# 2 -0.001975 0.011066 -0.004764 0.000000 0.000000 0.000000
# 3 -0.005104 -0.004764 0.014469 0.000000 0.000000 0.000000
# 4 0.000000 0.000000 0.000000 0.030951 0.000000 0.000000
# 5 0.000000 0.000000 0.000000 0.000000 0.048368 0.000000
# 6 0.000000 0.000000 0.000000 0.000000 0.000000 0.040407
#
#
# Mechanical properties :
#
#
# Convention : Reuss Voigt Hill
#
# Bulk Modulus (GPa) = 63.46333 64.44227 63.95280
# Shear Modulus (GPa) = 26.58081 27.67411 27.12746
#
# Velocity S-wave (km/s) = 3.81220 3.88981 3.85120
# Velocity P-wave (km/s) = 7.35359 7.44362 7.39874
#
# Compressibility (1/GPa) = 0.01575713
#
# Stress axis : x y z
#
# Youngs Moduli (GPa) = 71.90631 90.36845 69.11264
#
# Poissons Ratio (x) = 0.17844 0.35274
# Poissons Ratio (y) = 0.14198 0.32925
# Poissons Ratio (z) = 0.36700 0.43051
#
# Static dielectric constant tensor:
#      x y z
#    x 3.125680 0.000000 0.000000 
#    y 0.000000 3.396950 0.000000 
#    z 0.000000 0.000000 3.322100 
# 
# 
# High freq. dielectric constant tensor:
#      x y z
#    x 1.683980 0.000000 0.000000 
#    y 0.000000 1.718250 0.000000 
#    z 0.000000 0.000000 1.706930 
# 
# From -- ./inp_files/42788.got.cif
#   From: 2010.03.12/outbox.cif.g09.slc.cpg/sg67_22_cif.got.tgz:42788.got - 2010.04.10 22:41:39.
