data_PCOD8278787
_publ_section_title
;
Structure prediction by ZEFSAII (Michael W. Deem and Ramdas Pophale) SiO2 
 PCOD8278787
Probable space group: C M M A
;
_chemical_formula_sum "Si O2"
_cell_formula_units_Z 112
_cell_length_a 24.399527
_cell_length_b 16.637171
_cell_length_c 15.432273
_cell_angle_alpha 90.000000
_cell_angle_beta 90.000000
_cell_angle_gamma 90.000000
_cell_volume 6264.563059
_symmetry_space_group_name_H-M "C M M A"
_symmetry_group_IT_number 67
_symmetry_cell_setting 'orthorhombic'
loop_
_space_group_symop_operation_xyz
x,y,z
-x,1/2-y,z
x,-y,-z
-x,1/2+y,-z
-x,-y,-z
x,1/2+y,-z
-x,y,z
x,1/2-y,z
1/2+x,1/2+y,z
1/2-x,-y,z
1/2+x,1/2-y,-z
1/2-x,y,-z
1/2-x,1/2-y,-z
1/2+x,y,-z
1/2-x,1/2+y,z
1/2+x,-y,z
loop_
_atom_site_type_symbol
_atom_site_label
_atom_site_fract_x
_atom_site_fract_y
_atom_site_fract_z
Si Si1 0.189870 0.907514 0.978006
Si Si2 0.744776 0.592560 0.365711
Si Si3 0.229684 0.843555 0.814007
Si Si4 0.438317 0.843087 0.723741
Si Si5 0.061089 0.588465 0.461314
Si Si6 0.672622 0.842009 0.511994
Si Si7 0.349972 0.343632 0.140878
O O1 0.184368 0.888718 0.875172
O O2 0.250000 0.871257 0.000000
O O3 0.143680 0.864935 0.038332
O O4 0.186180 0.000000 0.000000
O O5 0.750000 0.500000 0.340414
O O6 0.717107 0.639665 0.285990
O O7 0.702408 0.600723 0.443995
O O8 0.803959 0.631066 0.393186
O O9 0.225745 0.750000 0.835376
O O10 0.291161 0.878768 0.829109
O O11 0.500000 0.845583 0.760680
O O12 0.423829 0.750000 0.696489
O O13 0.433316 0.904302 0.642785
O O14 0.398848 0.878111 0.799353
O O15 0.071598 0.500000 0.500000
O O16 0.107557 0.646945 0.498927
O O17 0.000000 0.617704 0.489003
O O18 0.688129 0.750000 0.494452
O O19 0.351559 0.250000 0.154235
#
# Coordination Sequence:
#
# PCOD8278787 Si02
#       7
#    16  16  16  16  16  16  16
#     4   9  18  30  46  67 100 126 160 197 242 295
#     4  11  22  33  52  74 104 138 176 214 258 307
#     4  10  19  31  48  71  99 134 167 201 245 302
#     4   9  17  30  50  75  99 123 159 206 253 301
#     4  10  20  34  51  74 103 133 169 213 260 308
#     4  11  21  36  52  72 105 139 175 215 257 312
#     4   9  17  29  48  71  96 125 157 199 252 299
#
# _framework density 17.878340999999999
#
# number of rings (size 3 to 8) (size 9 to 14) (size 15 to 20)
#    0.000    2.143    0.000    5.143    4.000    3.714 
#    0.000    0.000    0.000    0.429    0.000    1.000 
#    0.000    3.429    0.000    0.000    0.000    0.000 
#
# Total GULP energy -693958.663560 kJ/mol
# GULP energy per Si atom -12392.118992 kJ/mol
# Density = 1.783765 g / cm^3
# Si number density = 17.878341 Si / 1000 Ang^3
#
#
#
# Elastic Constant Matrix: (Units=GPa)
#
#
# Indices 1 2 3 4 5 6 
#
# 1 84.6043 25.0526 36.5822 0.0000 0.0000 0.0000
# 2 25.0526 64.7282 34.4090 0.0000 0.0000 0.0000
# 3 36.5822 34.4090 116.9398 0.0000 0.0000 0.0000
# 4 0.0000 0.0000 0.0000 28.9248 0.0000 0.0000
# 5 0.0000 0.0000 0.0000 0.0000 26.7930 0.0000
# 6 0.0000 0.0000 0.0000 0.0000 0.0000 17.3318
#
#
#
# Elastic Compliance Matrix: (Units=1/GPa)
#
#
# Indices 1 2 3 4 5 6 
#
# 1 0.014405 -0.003769 -0.003397 0.000000 0.000000 0.000000
# 2 -0.003769 0.019300 -0.004500 0.000000 0.000000 0.000000
# 3 -0.003397 -0.004500 0.010938 0.000000 0.000000 0.000000
# 4 0.000000 0.000000 0.000000 0.034572 0.000000 0.000000
# 5 0.000000 0.000000 0.000000 0.000000 0.037323 0.000000
# 6 0.000000 0.000000 0.000000 0.000000 0.000000 0.057697
#
#
# Mechanical properties :
#
#
# Convention : Reuss Voigt Hill
#
# Bulk Modulus (GPa) = 46.92518 50.92886 48.92702
# Shear Modulus (GPa) = 24.42930 25.95849 25.19390
#
# Velocity S-wave (km/s) = 3.70052 3.81458 3.75798
# Velocity P-wave (km/s) = 6.67551 6.92456 6.80118
#
# Compressibility (1/GPa) = 0.02131052
#
# Stress axis : x y z
#
# Youngs Moduli (GPa) = 69.42138 51.81289 91.42288
#
# Poissons Ratio (x) = 0.19530 0.31057
# Poissons Ratio (y) = 0.26168 0.41139
# Poissons Ratio (z) = 0.23583 0.23315
#
# Static dielectric constant tensor:
#      x y z
#    x 3.362470 0.000000 0.000000 
#    y 0.000000 3.136320 0.000000 
#    z 0.000000 0.000000 3.507080 
# 
# 
# High freq. dielectric constant tensor:
#      x y z
#    x 1.661850 0.000000 0.000000 
#    y 0.000000 1.684990 0.000000 
#    z 0.000000 0.000000 1.690100 
# 
# From -- ./inp_files/30135.got.cif
#   From: 2010.03.12/outbox.cif.g09.slc.cpg/sg67_16_cif.got.tgz:30135.got - 2010.04.10 22:41:39.
