data_PCOD8278607
_publ_section_title
;
Structure prediction by ZEFSAII (Michael W. Deem and Ramdas Pophale) SiO2 
 PCOD8278607
Probable space group: C M M A
;
_chemical_formula_sum "Si O2"
_cell_formula_units_Z 88
_cell_length_a 25.147662
_cell_length_b 8.925235
_cell_length_c 24.989794
_cell_angle_alpha 90.000000
_cell_angle_beta 90.000000
_cell_angle_gamma 90.000000
_cell_volume 5608.929102
_symmetry_space_group_name_H-M "C M M A"
_symmetry_group_IT_number 67
_symmetry_cell_setting 'orthorhombic'
loop_
_space_group_symop_operation_xyz
x,y,z
-x,1/2-y,z
x,-y,-z
-x,1/2+y,-z
-x,-y,-z
x,1/2+y,-z
-x,y,z
x,1/2-y,z
1/2+x,1/2+y,z
1/2-x,-y,z
1/2+x,1/2-y,-z
1/2-x,y,-z
1/2-x,1/2-y,-z
1/2+x,y,-z
1/2-x,1/2+y,z
1/2+x,-y,z
loop_
_atom_site_type_symbol
_atom_site_label
_atom_site_fract_x
_atom_site_fract_y
_atom_site_fract_z
Si Si1 0.500000 0.427574 0.942173
Si Si2 0.560441 0.073990 0.448563
Si Si3 0.563344 0.417552 0.332475
Si Si4 0.407080 0.423736 0.122712
Si Si5 0.437246 0.922107 0.227054
Si Si6 0.304440 0.924672 0.944773
O O1 0.500000 0.250000 0.947945
O O2 0.447906 0.476873 0.910600
O O3 0.500000 0.500000 0.000000
O O4 0.500000 0.015242 0.448308
O O5 0.563278 0.250000 0.455635
O O6 0.586028 0.029365 0.390710
O O7 0.590243 0.000000 0.500000
O O8 0.500000 0.415458 0.336347
O O9 0.583725 0.250000 0.319129
O O10 0.582643 0.529183 0.285959
O O11 0.423679 0.250000 0.118653
O O12 0.406933 0.476150 0.184054
O O13 0.348368 0.451824 0.100304
O O14 0.500000 0.948990 0.220569
O O15 0.422062 0.750000 0.218025
O O16 0.294736 0.750000 0.955412
O O17 0.250000 0.000000 0.924432
O O18 0.323700 0.000000 0.000000
#
# Coordination Sequence:
#
# PCOD8278607 Si02
#       6
#     8  16  16  16  16  16
#     4  12  24  36  50  70  94 120 147 178 219 262
#     4   8  13  20  30  45  65  92 129 172 217 256
#     4   8  14  24  36  49  70 103 138 174 216 260
#     4  11  22  35  51  70  92 120 149 179 220 266
#     4  10  19  29  42  62  85 112 146 182 220 259
#     4  10  21  36  55  75  92 115 144 177 219 263
#
# _framework density 15.689268999999999
#
# number of rings (size 3 to 8) (size 9 to 14) (size 15 to 20)
#    0.000    2.364    0.909    4.636    0.000    5.818 
#    0.000    3.636    0.000    0.000    0.000    0.000 
#    0.000    0.000    0.000    0.000    0.000    0.909 
#
# Total GULP energy -545400.970120 kJ/mol
# GULP energy per Si atom -12395.476594 kJ/mol
# Density = 1.565356 g / cm^3
# Si number density = 15.689269 Si / 1000 Ang^3
#
#
#
# Elastic Constant Matrix: (Units=GPa)
#
#
# Indices 1 2 3 4 5 6 
#
# 1 42.9001 32.3632 34.8454 0.0000 0.0000 0.0000
# 2 32.3632 97.6484 57.7080 0.0000 0.0000 0.0000
# 3 34.8454 57.7080 139.6412 0.0000 0.0000 0.0000
# 4 0.0000 0.0000 0.0000 31.6248 0.0000 0.0000
# 5 0.0000 0.0000 0.0000 0.0000 7.7627 0.0000
# 6 0.0000 0.0000 0.0000 0.0000 0.0000 15.0572
#
#
#
# Elastic Compliance Matrix: (Units=1/GPa)
#
#
# Indices 1 2 3 4 5 6 
#
# 1 0.033520 -0.008159 -0.004993 0.000000 0.000000 0.000000
# 2 -0.008159 0.015536 -0.004384 0.000000 0.000000 0.000000
# 3 -0.004993 -0.004384 0.010219 0.000000 0.000000 0.000000
# 4 0.000000 0.000000 0.000000 0.031621 0.000000 0.000000
# 5 0.000000 0.000000 0.000000 0.000000 0.128821 0.000000
# 6 0.000000 0.000000 0.000000 0.000000 0.000000 0.066413
#
#
# Mechanical properties :
#
#
# Convention : Reuss Voigt Hill
#
# Bulk Modulus (GPa) = 41.31709 58.89142 50.10426
# Shear Modulus (GPa) = 15.18511 21.24048 18.21279
#
# Velocity S-wave (km/s) = 3.11443 3.68342 3.41081
# Velocity P-wave (km/s) = 6.27094 7.46376 6.89320
#
# Compressibility (1/GPa) = 0.02420306
#
# Stress axis : x y z
#
# Youngs Moduli (GPa) = 29.83275 64.36656 97.85694
#
# Poissons Ratio (x) = 0.52516 0.48857
# Poissons Ratio (y) = 0.24340 0.42905
# Poissons Ratio (z) = 0.14895 0.28221
#
# Static dielectric constant tensor:
#      x y z
#    x 2.484960 0.000000 0.000000 
#    y 0.000000 3.089330 0.000000 
#    z 0.000000 0.000000 3.399940 
# 
# 
# High freq. dielectric constant tensor:
#      x y z
#    x 1.528930 0.000000 0.000000 
#    y 0.000000 1.614910 0.000000 
#    z 0.000000 0.000000 1.618850 
# 
# From -- ./inp_files/42889.got.cif
#   From: 2010.03.12/outbox.cif.g09.slc.cpg/sg67_22_cif.got.tgz:42889.got - 2010.04.10 22:41:39.
