data_PCOD8278228
_publ_section_title
;
Structure prediction by ZEFSAII (Michael W. Deem and Ramdas Pophale) SiO2 
 PCOD8278228
Probable space group: C M M A
;
_chemical_formula_sum "Si O2"
_cell_formula_units_Z 72
_cell_length_a 9.411563
_cell_length_b 25.188861
_cell_length_c 17.799239
_cell_angle_alpha 90.000000
_cell_angle_beta 90.000000
_cell_angle_gamma 90.000000
_cell_volume 4219.604222
_symmetry_space_group_name_H-M "C M M A"
_symmetry_group_IT_number 67
_symmetry_cell_setting 'orthorhombic'
loop_
_space_group_symop_operation_xyz
x,y,z
-x,1/2-y,z
x,-y,-z
-x,1/2+y,-z
-x,-y,-z
x,1/2+y,-z
-x,y,z
x,1/2-y,z
1/2+x,1/2+y,z
1/2-x,-y,z
1/2+x,1/2-y,-z
1/2-x,y,-z
1/2-x,1/2-y,-z
1/2+x,y,-z
1/2-x,1/2+y,z
1/2+x,-y,z
loop_
_atom_site_type_symbol
_atom_site_label
_atom_site_fract_x
_atom_site_fract_y
_atom_site_fract_z
Si Si1 0.158390 0.340905 0.157611
Si Si2 0.000000 0.187191 0.611519
Si Si3 0.000000 0.187356 0.445172
Si Si4 0.831202 0.051008 0.077090
Si Si5 0.171818 0.750000 0.079662
Si Si6 0.786461 0.687409 0.678742
O O1 0.193589 0.400265 0.132651
O O2 0.278185 0.301719 0.125346
O O3 0.157077 0.341823 0.247718
O O4 0.000000 0.324080 0.129263
O O5 0.871784 0.168676 0.663220
O O6 0.000000 0.250000 0.600184
O O7 0.000000 0.160876 0.528088
O O8 0.134885 0.169111 0.396970
O O9 0.000000 0.250000 0.455849
O O10 0.000000 0.040161 0.063959
O O11 0.750000 0.000000 0.112426
O O12 0.750000 0.064852 0.000000
O O13 0.000000 0.750000 0.071766
O O14 0.250000 0.750000 0.000000
O O15 0.805177 0.750000 0.692521
#
# Coordination Sequence:
#
# PCOD8278228 Si02
#       6
#    16   8   8  16   8  16
#     4  11  22  36  55  77 109 143 178 216 263 318
#     4   9  18  28  42  68 103 134 185 217 244 306
#     4   9  16  28  46  66  95 146 177 211 252 300
#     4  10  21  38  59  80 101 132 172 222 271 316
#     4  12  26  38  54  76 105 144 181 215 253 312
#     4  10  18  29  47  70 104 142 175 210 260 300
#
# _framework density 17.063210000000002
#
# number of rings (size 3 to 8) (size 9 to 14) (size 15 to 20)
#    0.000    1.778    2.222    3.667    1.556    6.222 
#    0.000    0.000    0.000    0.000    0.000    0.000 
#    0.000    5.333    0.000    0.000    0.000    0.000 
#
# Total GULP energy -446151.807987 kJ/mol
# GULP energy per Si atom -12393.105777 kJ/mol
# Density = 1.702437 g / cm^3
# Si number density = 17.063210 Si / 1000 Ang^3
#
#
#
# Elastic Constant Matrix: (Units=GPa)
#
#
# Indices 1 2 3 4 5 6 
#
# 1 138.8296 41.0500 31.7889 0.0000 0.0000 0.0000
# 2 41.0500 79.9314 42.1816 0.0000 0.0000 0.0000
# 3 31.7889 42.1816 82.9994 0.0000 0.0000 0.0000
# 4 0.0000 0.0000 0.0000 15.4092 0.0000 0.0000
# 5 0.0000 0.0000 0.0000 0.0000 66.2257 0.0000
# 6 0.0000 0.0000 0.0000 0.0000 0.0000 19.6236
#
#
#
# Elastic Compliance Matrix: (Units=1/GPa)
#
#
# Indices 1 2 3 4 5 6 
#
# 1 0.008616 -0.003667 -0.001436 0.000000 0.000000 0.000000
# 2 -0.003667 0.018656 -0.008077 0.000000 0.000000 0.000000
# 3 -0.001436 -0.008077 0.016703 0.000000 0.000000 0.000000
# 4 0.000000 0.000000 0.000000 0.064896 0.000000 0.000000
# 5 0.000000 0.000000 0.000000 0.000000 0.015100 0.000000
# 6 0.000000 0.000000 0.000000 0.000000 0.000000 0.050959
#
#
# Mechanical properties :
#
#
# Convention : Reuss Voigt Hill
#
# Bulk Modulus (GPa) = 56.76944 59.08905 57.92924
# Shear Modulus (GPa) = 24.13550 32.70103 28.41827
#
# Velocity S-wave (km/s) = 3.76503 4.38249 4.08544
# Velocity P-wave (km/s) = 7.22793 7.76614 7.50186
#
# Compressibility (1/GPa) = 0.01761511
#
# Stress axis : x y z
#
# Youngs Moduli (GPa) = 116.05960 53.60101 59.86849
#
# Poissons Ratio (x) = 0.19655 0.08600
# Poissons Ratio (y) = 0.42559 0.48356
# Poissons Ratio (z) = 0.16671 0.43293
#
# Static dielectric constant tensor:
#      x y z
#    x 3.324380 0.000000 0.000000 
#    y 0.000000 2.846010 0.000000 
#    z 0.000000 0.000000 3.247860 
# 
# 
# High freq. dielectric constant tensor:
#      x y z
#    x 1.681560 0.000000 0.000000 
#    y 0.000000 1.601020 0.000000 
#    z 0.000000 0.000000 1.664860 
# 
# From -- ./inp_files/36796.got.cif
#   From: 2010.03.12/outbox.cif.g09.slc.cpg/sg67_19_cif.got.tgz:36796.got - 2010.04.10 22:41:39.
