data_PCOD8278751
_publ_section_title
;
Structure prediction by ZEFSAII (Michael W. Deem and Ramdas Pophale) SiO2 
 PCOD8278751
Probable space group: C M M A
;
_chemical_formula_sum "Si O2"
_cell_formula_units_Z 104
_cell_length_a 27.389285
_cell_length_b 8.868481
_cell_length_c 23.692607
_cell_angle_alpha 90.000000
_cell_angle_beta 90.000000
_cell_angle_gamma 90.000000
_cell_volume 5754.966311
_symmetry_space_group_name_H-M "C M M A"
_symmetry_group_IT_number 67
_symmetry_cell_setting 'orthorhombic'
loop_
_space_group_symop_operation_xyz
x,y,z
-x,1/2-y,z
x,-y,-z
-x,1/2+y,-z
-x,-y,-z
x,1/2+y,-z
-x,y,z
x,1/2-y,z
1/2+x,1/2+y,z
1/2-x,-y,z
1/2+x,1/2-y,-z
1/2-x,y,-z
1/2-x,1/2-y,-z
1/2+x,y,-z
1/2-x,1/2+y,z
1/2+x,-y,z
loop_
_atom_site_type_symbol
_atom_site_label
_atom_site_fract_x
_atom_site_fract_y
_atom_site_fract_z
Si Si1 0.893625 0.573597 0.560875
Si Si2 0.500000 0.424733 0.559225
Si Si3 0.356836 0.578201 0.664254
Si Si4 0.109863 0.072240 0.161986
Si Si5 0.945281 0.421083 0.742556
Si Si6 0.055917 0.426322 0.939727
Si Si7 0.801961 0.570440 0.225449
O O1 0.884281 0.500000 0.500000
O O2 0.886799 0.750000 0.552856
O O3 0.853728 0.516739 0.606412
O O4 0.947731 0.531151 0.587083
O O5 0.500000 0.250000 0.547741
O O6 0.500000 0.500000 0.500000
O O7 0.346236 0.750000 0.648206
O O8 0.410834 0.556033 0.689176
O O9 0.318033 0.521655 0.711111
O O10 0.117770 0.250000 0.157787
O O11 0.068172 0.035376 0.207648
O O12 0.093051 0.007736 0.102258
O O13 0.160402 0.993694 0.179713
O O14 0.939911 0.250000 0.766111
O O15 0.000000 0.455529 0.721946
O O16 0.068130 0.250000 0.942724
O O17 0.000000 0.452670 0.920018
O O18 0.064982 0.500000 0.000000
O O19 0.800883 0.750000 0.220146
O O20 0.750000 0.500000 0.211671
#
# Coordination Sequence:
#
# PCOD8278751 Si02
#       7
#    16   8  16  16  16  16  16
#     4  10  19  31  47  67  96 132 171 211 252 302
#     4   8  16  28  40  60  88 124 166 204 237 278
#     4   9  19  33  50  74 101 130 165 207 258 315
#     4  11  21  33  52  79 109 142 181 221 264 314
#     4   9  18  32  48  69 101 140 176 214 262 311
#     4  10  20  34  53  79 114 155 194 230 266 306
#     4  10  21  39  61  82 105 132 169 217 271 325
#
# _framework density 18.071346999999999
#
# number of rings (size 3 to 8) (size 9 to 14) (size 15 to 20)
#    0.000    2.308    0.000    4.154    1.077    6.769 
#    0.000    0.000    0.000    0.923    0.000    6.462 
#    0.000    0.000    0.000    0.000    0.000    0.000 
#
# Total GULP energy -644520.508794 kJ/mol
# GULP energy per Si atom -12394.625169 kJ/mol
# Density = 1.803022 g / cm^3
# Si number density = 18.071347 Si / 1000 Ang^3
#
#
#
# Elastic Constant Matrix: (Units=GPa)
#
#
# Indices 1 2 3 4 5 6 
#
# 1 90.5536 39.2468 43.1247 0.0000 0.0000 0.0000
# 2 39.2468 98.4694 55.8090 0.0000 0.0000 0.0000
# 3 43.1247 55.8090 96.3974 0.0000 0.0000 0.0000
# 4 0.0000 0.0000 0.0000 33.2992 0.0000 0.0000
# 5 0.0000 0.0000 0.0000 0.0000 20.3828 0.0000
# 6 0.0000 0.0000 0.0000 0.0000 0.0000 24.1670
#
#
#
# Elastic Compliance Matrix: (Units=1/GPa)
#
#
# Indices 1 2 3 4 5 6 
#
# 1 0.014667 -0.003166 -0.004729 0.000000 0.000000 0.000000
# 2 -0.003166 0.015798 -0.007730 0.000000 0.000000 0.000000
# 3 -0.004729 -0.007730 0.016965 0.000000 0.000000 0.000000
# 4 0.000000 0.000000 0.000000 0.030031 0.000000 0.000000
# 5 0.000000 0.000000 0.000000 0.000000 0.049061 0.000000
# 6 0.000000 0.000000 0.000000 0.000000 0.000000 0.041379
#
#
# Mechanical properties :
#
#
# Convention : Reuss Voigt Hill
#
# Bulk Modulus (GPa) = 61.80188 62.42017 62.11102
# Shear Modulus (GPa) = 24.44464 25.38580 24.91522
#
# Velocity S-wave (km/s) = 3.68186 3.75207 3.71713
# Velocity P-wave (km/s) = 7.23518 7.30662 7.27099
#
# Compressibility (1/GPa) = 0.01618074
#
# Stress axis : x y z
#
# Youngs Moduli (GPa) = 68.17900 63.29745 58.94634
#
# Poissons Ratio (x) = 0.20039 0.27874
# Poissons Ratio (y) = 0.21584 0.45567
# Poissons Ratio (z) = 0.32240 0.48930
#
# Static dielectric constant tensor:
#      x y z
#    x 3.294430 0.000000 0.000000 
#    y 0.000000 3.327200 0.000000 
#    z 0.000000 0.000000 3.177160 
# 
# 
# High freq. dielectric constant tensor:
#      x y z
#    x 1.677510 0.000000 0.000000 
#    y 0.000000 1.708430 0.000000 
#    z 0.000000 0.000000 1.690610 
# 
# From -- ./inp_files/40235.got.cif
#   From: 2010.03.12/outbox.cif.g09.slc.cpg/sg67_21_cif.got.tgz:40235.got - 2010.04.10 22:41:39.
