data_PCOD8278015
_publ_section_title
;
Structure prediction by ZEFSAII (Michael W. Deem and Ramdas Pophale) SiO2 
 PCOD8278015
Probable space group: C M M A
;
_chemical_formula_sum "Si O2"
_cell_formula_units_Z 104
_cell_length_a 8.713917
_cell_length_b 25.714209
_cell_length_c 27.884132
_cell_angle_alpha 90.000000
_cell_angle_beta 90.000000
_cell_angle_gamma 90.000000
_cell_volume 6248.038808
_symmetry_space_group_name_H-M "C M M A"
_symmetry_group_IT_number 67
_symmetry_cell_setting 'orthorhombic'
loop_
_space_group_symop_operation_xyz
x,y,z
-x,1/2-y,z
x,-y,-z
-x,1/2+y,-z
-x,-y,-z
x,1/2+y,-z
-x,y,z
x,1/2-y,z
1/2+x,1/2+y,z
1/2-x,-y,z
1/2+x,1/2-y,-z
1/2-x,y,-z
1/2-x,1/2-y,-z
1/2+x,y,-z
1/2-x,1/2+y,z
1/2+x,-y,z
loop_
_atom_site_type_symbol
_atom_site_label
_atom_site_fract_x
_atom_site_fract_y
_atom_site_fract_z
Si Si1 0.826849 0.307866 0.223225
Si Si2 0.821197 0.750000 0.051832
Si Si3 0.819926 0.056366 0.357037
Si Si4 0.319226 0.334922 0.127256
Si Si5 0.182315 0.942116 0.452267
Si Si6 0.177531 0.597913 0.263564
Si Si7 0.820974 0.945880 0.161509
O O1 0.820045 0.250000 0.244327
O O2 0.777460 0.306639 0.168017
O O3 0.705471 0.341617 0.253031
O O4 0.000000 0.330251 0.227501
O O5 0.773539 0.803697 0.079019
O O6 0.000000 0.750000 0.044673
O O7 0.750000 0.750000 0.000000
O O8 0.741630 0.085112 0.403176
O O9 0.784957 0.086189 0.308377
O O10 0.000000 0.052942 0.366030
O O11 0.750000 0.000000 0.350213
O O12 0.500000 0.328980 0.138524
O O13 0.275693 0.396904 0.126926
O O14 0.250000 0.913847 0.500000
O O15 0.000000 0.942626 0.454425
O O16 0.250000 0.000000 0.450853
O O17 0.230949 0.565697 0.216416
O O18 0.000000 0.587521 0.275964
O O19 0.000000 0.954122 0.160303
O O20 0.750000 0.000000 0.142778
#
# Coordination Sequence:
#
# PCOD8278015 Si02
#       7
#    16   8  16  16  16  16  16
#     4  10  19  30  47  71  96 121 152 192 232 276
#     4  10  20  34  54  76 100 124 154 200 247 288
#     4  11  20  30  43  61  88 121 156 195 237 280
#     4   9  18  33  51  70  95 129 160 189 234 288
#     4  10  17  27  41  58  80 110 150 192 236 283
#     4  10  20  32  45  64  91 126 162 193 231 280
#     4   9  18  30  46  68  93 123 160 193 226 274
#
# _framework density 16.645223000000001
#
# number of rings (size 3 to 8) (size 9 to 14) (size 15 to 20)
#    0.000    2.154    0.769    6.462    0.000    5.846 
#    0.000    0.000    0.000    0.462    0.000    3.231 
#    0.000    0.615    0.000    2.308    0.000    3.846 
#
# Total GULP energy -644407.827468 kJ/mol
# GULP energy per Si atom -12392.458221 kJ/mol
# Density = 1.660734 g / cm^3
# Si number density = 16.645223 Si / 1000 Ang^3
#
#
#
# Elastic Constant Matrix: (Units=GPa)
#
#
# Indices 1 2 3 4 5 6 
#
# 1 79.9645 24.7468 33.5250 0.0000 0.0000 0.0000
# 2 24.7468 92.7875 46.0855 0.0000 0.0000 0.0000
# 3 33.5250 46.0855 114.6514 0.0000 0.0000 0.0000
# 4 0.0000 0.0000 0.0000 12.9594 0.0000 0.0000
# 5 0.0000 0.0000 0.0000 0.0000 28.8402 0.0000
# 6 0.0000 0.0000 0.0000 0.0000 0.0000 23.5326
#
#
#
# Elastic Compliance Matrix: (Units=1/GPa)
#
#
# Indices 1 2 3 4 5 6 
#
# 1 0.014609 -0.002217 -0.003381 0.000000 0.000000 0.000000
# 2 -0.002217 0.013802 -0.004900 0.000000 0.000000 0.000000
# 3 -0.003381 -0.004900 0.011680 0.000000 0.000000 0.000000
# 4 0.000000 0.000000 0.000000 0.077164 0.000000 0.000000
# 5 0.000000 0.000000 0.000000 0.000000 0.034674 0.000000
# 6 0.000000 0.000000 0.000000 0.000000 0.000000 0.042494
#
#
# Mechanical properties :
#
#
# Convention : Reuss Voigt Hill
#
# Bulk Modulus (GPa) = 52.36577 55.12422 53.74500
# Shear Modulus (GPa) = 22.54449 25.26952 23.90701
#
# Velocity S-wave (km/s) = 3.68423 3.90054 3.79392
# Velocity P-wave (km/s) = 7.04459 7.31264 7.17986
#
# Compressibility (1/GPa) = 0.01909645
#
# Stress axis : x y z
#
# Youngs Moduli (GPa) = 68.45093 72.45228 85.61604
#
# Poissons Ratio (x) = 0.16064 0.28943
# Poissons Ratio (y) = 0.15177 0.41949
# Poissons Ratio (z) = 0.23140 0.35499
#
# Static dielectric constant tensor:
#      x y z
#    x 3.208340 0.000000 0.000000 
#    y 0.000000 3.112620 0.000000 
#    z 0.000000 0.000000 3.154530 
# 
# 
# High freq. dielectric constant tensor:
#      x y z
#    x 1.653040 0.000000 0.000000 
#    y 0.000000 1.610150 0.000000 
#    z 0.000000 0.000000 1.627140 
# 
# From -- ./inp_files/43742.got.cif
#   From: 2010.03.12/outbox.cif.g09.slc.cpg/sg67_22_cif.got.tgz:43742.got - 2010.04.10 22:41:39.
