data_PCOD8278656
_publ_section_title
;
Structure prediction by ZEFSAII (Michael W. Deem and Ramdas Pophale) SiO2 
 PCOD8278656
Probable space group: C M M A
;
_chemical_formula_sum "Si O2"
_cell_formula_units_Z 80
_cell_length_a 18.063278
_cell_length_b 17.806924
_cell_length_c 14.227742
_cell_angle_alpha 90.000000
_cell_angle_beta 90.000000
_cell_angle_gamma 90.000000
_cell_volume 4576.373397
_symmetry_space_group_name_H-M "C M M A"
_symmetry_group_IT_number 67
_symmetry_cell_setting 'orthorhombic'
loop_
_space_group_symop_operation_xyz
x,y,z
-x,1/2-y,z
x,-y,-z
-x,1/2+y,-z
-x,-y,-z
x,1/2+y,-z
-x,y,z
x,1/2-y,z
1/2+x,1/2+y,z
1/2-x,-y,z
1/2+x,1/2-y,-z
1/2-x,y,-z
1/2-x,1/2-y,-z
1/2+x,y,-z
1/2-x,1/2+y,z
1/2+x,-y,z
loop_
_atom_site_type_symbol
_atom_site_label
_atom_site_fract_x
_atom_site_fract_y
_atom_site_fract_z
Si Si1 0.418248 0.837747 0.625173
Si Si2 0.811590 0.838646 0.207962
Si Si3 0.584380 0.077475 0.553303
Si Si4 0.187748 0.438944 0.270965
Si Si5 0.664789 0.522601 0.901660
O O1 0.500000 0.874348 0.641977
O O2 0.424938 0.750000 0.630374
O O3 0.362555 0.864884 0.705103
O O4 0.389579 0.859922 0.521706
O O5 0.815746 0.750000 0.184633
O O6 0.727984 0.862847 0.234300
O O7 0.841015 0.887498 0.118465
O O8 0.500000 0.090512 0.586478
O O9 0.636837 0.083308 0.642611
O O10 0.594138 0.000000 0.500000
O O11 0.250000 0.500000 0.300643
O O12 0.135607 0.474027 0.187706
O O13 0.750000 0.500000 0.909700
O O14 0.624205 0.500000 0.000000
#
# Coordination Sequence:
#
# PCOD8278656 Si02
#       5
#    16  16  16  16  16
#     4   9  18  31  45  64  92 123 151 181 221 267
#     4   9  17  29  48  71  89 112 151 189 220 265
#     4  10  19  30  45  64  88 123 161 186 215 271
#     4   9  18  30  44  65  92 118 147 190 236 263
#     4   8  15  30  47  64  91 119 141 178 232 272
#
# _framework density 17.481092
#
# number of rings (size 3 to 8) (size 9 to 14) (size 15 to 20)
#    0.000    3.400    0.000    2.400    0.000    3.600 
#    0.000   10.000    0.000    2.400    0.000    0.000 
#    0.000    0.000    0.000    0.000    0.000    0.000 
#
# Total GULP energy -495523.461713 kJ/mol
# GULP energy per Si atom -12388.086543 kJ/mol
# Density = 1.744130 g / cm^3
# Si number density = 17.481092 Si / 1000 Ang^3
#
#
#
# Elastic Constant Matrix: (Units=GPa)
#
#
# Indices 1 2 3 4 5 6 
#
# 1 38.2058 27.5092 40.3994 0.0000 0.0000 0.0000
# 2 27.5092 77.6704 55.8437 0.0000 0.0000 0.0000
# 3 40.3994 55.8437 132.0042 0.0000 0.0000 0.0000
# 4 0.0000 0.0000 0.0000 27.5517 0.0000 0.0000
# 5 0.0000 0.0000 0.0000 0.0000 -0.3034 0.0000
# 6 0.0000 0.0000 0.0000 0.0000 0.0000 14.9842
#
#
#
# Elastic Compliance Matrix: (Units=1/GPa)
#
#
# Indices 1 2 3 4 5 6 
#
# 1 0.041958 -0.008088 -0.009419 0.000000 0.000000 0.000000
# 2 -0.008088 0.020062 -0.006012 0.000000 0.000000 0.000000
# 3 -0.009419 -0.006012 0.013002 0.000000 0.000000 0.000000
# 4 0.000000 0.000000 0.000000 0.036295 0.000000 0.000000
# 5 0.000000 0.000000 0.000000 0.000000 -3.295610 0.000000
# 6 0.000000 0.000000 0.000000 0.000000 0.000000 0.066737
#
#
# Mechanical properties :
#
#
# Convention : Reuss Voigt Hill
#
# Bulk Modulus (GPa) = 35.73636 55.04280 45.38958
# Shear Modulus (GPa) = -1.63335 16.72171 7.54418
#
# Velocity S-wave (km/s) = -0.96767 3.09619 2.07966
# Velocity P-wave (km/s) = 4.38620 6.65862 5.63808
#
# Compressibility (1/GPa) = 0.02798270
#
# Stress axis : x y z
#
# Youngs Moduli (GPa) = 23.83336 49.84568 76.91409
#
# Poissons Ratio (x) = 0.40316 0.72449
# Poissons Ratio (y) = 0.19277 0.46239
# Poissons Ratio (z) = 0.22450 0.29966
#
# Static dielectric constant tensor:
#      x y z
#    x 3.301610 0.000000 0.000000 
#    y 0.000000 3.007500 0.000000 
#    z 0.000000 0.000000 3.342760 
# 
# 
# High freq. dielectric constant tensor:
#      x y z
#    x 1.639440 0.000000 0.000000 
#    y 0.000000 1.673770 0.000000 
#    z 0.000000 0.000000 1.674110 
# 
# From -- ./inp_files/28362.got.cif
#   From: 2010.03.12/outbox.cif.g09.slc.cpg/sg67_15_cif.got.tgz:28362.got - 2010.04.10 22:41:39.
