data_PCOD8278712
_publ_section_title
;
Structure prediction by ZEFSAII (Michael W. Deem and Ramdas Pophale) SiO2 
 PCOD8278712
Probable space group: C M M A
;
_chemical_formula_sum "Si O2"
_cell_formula_units_Z 96
_cell_length_a 18.519547
_cell_length_b 15.724192
_cell_length_c 17.995509
_cell_angle_alpha 90.000000
_cell_angle_beta 90.000000
_cell_angle_gamma 90.000000
_cell_volume 5240.380629
_symmetry_space_group_name_H-M "C M M A"
_symmetry_group_IT_number 67
_symmetry_cell_setting 'orthorhombic'
loop_
_space_group_symop_operation_xyz
x,y,z
-x,1/2-y,z
x,-y,-z
-x,1/2+y,-z
-x,-y,-z
x,1/2+y,-z
-x,y,z
x,1/2-y,z
1/2+x,1/2+y,z
1/2-x,-y,z
1/2+x,1/2-y,-z
1/2-x,y,-z
1/2-x,1/2-y,-z
1/2+x,y,-z
1/2-x,1/2+y,z
1/2+x,-y,z
loop_
_atom_site_type_symbol
_atom_site_label
_atom_site_fract_x
_atom_site_fract_y
_atom_site_fract_z
Si Si1 0.913846 0.014204 0.320419
Si Si2 0.414276 0.844272 0.601634
Si Si3 0.580624 0.922130 0.943282
Si Si4 0.316960 0.345270 0.954385
Si Si5 0.168153 0.020578 0.170633
Si Si6 0.414422 0.655503 0.435118
O O1 0.887016 0.919647 0.344433
O O2 0.877237 0.040307 0.243767
O O3 0.000000 0.018067 0.311347
O O4 0.885004 0.082694 0.380433
O O5 0.500000 0.846570 0.598984
O O6 0.388672 0.750000 0.629507
O O7 0.384501 0.861010 0.518353
O O8 0.500000 0.898694 0.916456
O O9 0.629859 0.942193 0.871737
O O10 0.614895 0.844262 0.989309
O O11 0.580170 0.000000 0.000000
O O12 0.297870 0.250000 0.930143
O O13 0.334155 0.395989 0.880017
O O14 0.250000 0.387201 0.000000
O O15 0.250000 0.000000 0.192370
O O16 0.500000 0.650298 0.436953
O O17 0.390128 0.750000 0.408122
#
# Coordination Sequence:
#
# PCOD8278712 Si02
#       6
#    16  16  16  16  16  16
#     4  10  19  30  48  77 108 135 171 219 269 318
#     4   8  14  27  48  73 101 136 177 219 262 310
#     4   9  18  33  55  78  99 128 169 213 256 307
#     4  10  20  36  58  79  99 131 175 217 262 319
#     4  11  21  35  53  73 103 142 173 209 263 321
#     4   8  14  26  47  74 102 134 174 218 263 312
#
# _framework density 18.319281
#
# number of rings (size 3 to 8) (size 9 to 14) (size 15 to 20)
#    0.000    2.667    1.667    2.000    0.000    3.667 
#    0.000    1.667    0.000    4.000    0.000    2.333 
#    0.000    0.000    0.000    0.000    0.000    0.000 
#
# Total GULP energy -594912.493635 kJ/mol
# GULP energy per Si atom -12394.010284 kJ/mol
# Density = 1.827759 g / cm^3
# Si number density = 18.319281 Si / 1000 Ang^3
#
#
#
# Elastic Constant Matrix: (Units=GPa)
#
#
# Indices 1 2 3 4 5 6 
#
# 1 68.5934 22.4097 32.0666 0.0000 0.0000 0.0000
# 2 22.4097 109.5754 58.8225 0.0000 0.0000 0.0000
# 3 32.0666 58.8225 110.6077 0.0000 0.0000 0.0000
# 4 0.0000 0.0000 0.0000 20.0988 0.0000 0.0000
# 5 0.0000 0.0000 0.0000 0.0000 17.6983 0.0000
# 6 0.0000 0.0000 0.0000 0.0000 0.0000 13.4854
#
#
#
# Elastic Compliance Matrix: (Units=1/GPa)
#
#
# Indices 1 2 3 4 5 6 
#
# 1 0.016969 -0.001161 -0.004302 0.000000 0.000000 0.000000
# 2 -0.001161 0.012852 -0.006498 0.000000 0.000000 0.000000
# 3 -0.004302 -0.006498 0.013744 0.000000 0.000000 0.000000
# 4 0.000000 0.000000 0.000000 0.049754 0.000000 0.000000
# 5 0.000000 0.000000 0.000000 0.000000 0.056503 0.000000
# 6 0.000000 0.000000 0.000000 0.000000 0.000000 0.074154
#
#
# Mechanical properties :
#
#
# Convention : Reuss Voigt Hill
#
# Bulk Modulus (GPa) = 50.91010 57.26377 54.08693
# Shear Modulus (GPa) = 19.65049 21.95501 20.80275
#
# Velocity S-wave (km/s) = 3.27871 3.46564 3.37347
# Velocity P-wave (km/s) = 6.49493 6.88047 6.69047
#
# Compressibility (1/GPa) = 0.01964247
#
# Stress axis : x y z
#
# Youngs Moduli (GPa) = 58.93039 77.80905 72.75860
#
# Poissons Ratio (x) = 0.09033 0.31302
# Poissons Ratio (y) = 0.06841 0.47280
# Poissons Ratio (z) = 0.25353 0.50562
#
# Static dielectric constant tensor:
#      x y z
#    x 3.151030 0.000000 0.000000 
#    y 0.000000 3.479190 0.000000 
#    z 0.000000 0.000000 3.326300 
# 
# 
# High freq. dielectric constant tensor:
#      x y z
#    x 1.676010 0.000000 0.000000 
#    y 0.000000 1.706700 0.000000 
#    z 0.000000 0.000000 1.702060 
# 
# From -- ./inp_files/29245.got.cif
#   From: 2010.03.12/outbox.cif.g09.slc.cpg/sg67_15_cif.got.tgz:29245.got - 2010.04.10 22:41:39.
