data_PCOD8278330
_publ_section_title
;
Structure prediction by ZEFSAII (Michael W. Deem and Ramdas Pophale) SiO2 
 PCOD8278330
Probable space group: C M M A
;
_chemical_formula_sum "Si O2"
_cell_formula_units_Z 88
_cell_length_a 35.610158
_cell_length_b 10.137040
_cell_length_c 13.674347
_cell_angle_alpha 90.000000
_cell_angle_beta 90.000000
_cell_angle_gamma 90.000000
_cell_volume 4936.187605
_symmetry_space_group_name_H-M "C M M A"
_symmetry_group_IT_number 67
_symmetry_cell_setting 'orthorhombic'
loop_
_space_group_symop_operation_xyz
x,y,z
-x,1/2-y,z
x,-y,-z
-x,1/2+y,-z
-x,-y,-z
x,1/2+y,-z
-x,y,z
x,1/2-y,z
1/2+x,1/2+y,z
1/2-x,-y,z
1/2+x,1/2-y,-z
1/2-x,y,-z
1/2-x,1/2-y,-z
1/2+x,y,-z
1/2-x,1/2+y,z
1/2+x,-y,z
loop_
_atom_site_type_symbol
_atom_site_label
_atom_site_fract_x
_atom_site_fract_y
_atom_site_fract_z
Si Si1 0.072740 0.594948 0.709349
Si Si2 0.000000 0.093580 0.408671
Si Si3 0.780437 0.100028 0.284474
Si Si4 0.144902 0.595532 0.592507
Si Si5 0.289267 0.109251 0.940758
Si Si6 0.543830 0.402000 0.913542
O O1 0.074891 0.750000 0.710734
O O2 0.110022 0.541136 0.656475
O O3 0.068641 0.548280 0.821530
O O4 0.036404 0.549315 0.650726
O O5 0.000000 0.250000 0.434827
O O6 0.000000 0.000000 0.500000
O O7 0.765985 0.250000 0.297083
O O8 0.819070 0.077926 0.339875
O O9 0.784775 0.064435 0.170565
O O10 0.750000 0.000000 0.330480
O O11 0.148944 0.500000 0.500000
O O12 0.140031 0.750000 0.560997
O O13 0.310274 0.250000 0.943666
O O14 0.250000 0.120600 0.000000
O O15 0.313744 0.000000 0.000000
O O16 0.500000 0.414682 0.885840
O O17 0.552849 0.250000 0.942193
O O18 0.555089 0.500000 0.000000
#
# Coordination Sequence:
#
# PCOD8278330 Si02
#       6
#    16   8  16  16  16  16
#     4   9  17  33  55  76 103 140 176 210 256 313
#     4  10  18  30  51  78 102 132 175 216 257 304
#     4  10  20  34  54  78 102 133 172 213 258 311
#     4  10  22  39  56  75 103 138 174 216 265 311
#     4   9  15  26  47  74 100 125 157 197 247 299
#     4   9  16  29  51  77 105 140 177 212 251 302
#
# _framework density 17.827522999999999
#
# number of rings (size 3 to 8) (size 9 to 14) (size 15 to 20)
#    0.000    2.545    2.727    0.545    0.000    1.091 
#    0.000    4.545    0.000    0.000    0.000    0.000 
#    0.000    0.000    0.000    0.000    0.000    0.000 
#
# Total GULP energy -545155.614718 kJ/mol
# GULP energy per Si atom -12389.900335 kJ/mol
# Density = 1.778695 g / cm^3
# Si number density = 17.827523 Si / 1000 Ang^3
#
#
#
# Elastic Constant Matrix: (Units=GPa)
#
#
# Indices 1 2 3 4 5 6 
#
# 1 96.1446 45.6958 57.7539 0.0000 0.0000 0.0000
# 2 45.6958 98.5692 62.5702 0.0000 0.0000 0.0000
# 3 57.7539 62.5702 138.0893 0.0000 0.0000 0.0000
# 4 0.0000 0.0000 0.0000 30.1450 0.0000 0.0000
# 5 0.0000 0.0000 0.0000 0.0000 33.1514 0.0000
# 6 0.0000 0.0000 0.0000 0.0000 0.0000 16.8308
#
#
#
# Elastic Compliance Matrix: (Units=1/GPa)
#
#
# Indices 1 2 3 4 5 6 
#
# 1 0.015024 -0.004178 -0.004390 0.000000 0.000000 0.000000
# 2 -0.004178 0.015403 -0.005232 0.000000 0.000000 0.000000
# 3 -0.004390 -0.005232 0.011449 0.000000 0.000000 0.000000
# 4 0.000000 0.000000 0.000000 0.033173 0.000000 0.000000
# 5 0.000000 0.000000 0.000000 0.000000 0.030165 0.000000
# 6 0.000000 0.000000 0.000000 0.000000 0.000000 0.059415
#
#
# Mechanical properties :
#
#
# Convention : Reuss Voigt Hill
#
# Bulk Modulus (GPa) = 70.05291 73.87143 71.96217
# Shear Modulus (GPa) = 25.38226 27.14431 26.26328
#
# Velocity S-wave (km/s) = 3.77738 3.90629 3.84238
# Velocity P-wave (km/s) = 7.64231 7.86589 7.75490
#
# Compressibility (1/GPa) = 0.01427493
#
# Stress axis : x y z
#
# Youngs Moduli (GPa) = 66.55971 64.92124 87.34642
#
# Poissons Ratio (x) = 0.27124 0.38349
# Poissons Ratio (y) = 0.27809 0.45700
# Poissons Ratio (z) = 0.29223 0.33967
#
# Static dielectric constant tensor:
#      x y z
#    x 2.997110 0.000000 0.000000 
#    y 0.000000 4.356510 0.000000 
#    z 0.000000 0.000000 3.341950 
# 
# 
# High freq. dielectric constant tensor:
#      x y z
#    x 1.666020 0.000000 0.000000 
#    y 0.000000 1.684440 0.000000 
#    z 0.000000 0.000000 1.695580 
# 
# From -- ./inp_files/16871.got.cif
#   From: 2010.03.12/outbox.cif.g09.slc.cpg/sg67_9_cif.got.tgz:16871.got - 2010.04.10 22:41:39.
