data_PCOD8278445
_publ_section_title
;
Structure prediction by ZEFSAII (Michael W. Deem and Ramdas Pophale) SiO2 
 PCOD8278445
Probable space group: C M M A
;
_chemical_formula_sum "Si O2"
_cell_formula_units_Z 80
_cell_length_a 22.179195
_cell_length_b 16.771222
_cell_length_c 11.622084
_cell_angle_alpha 90.000000
_cell_angle_beta 90.000000
_cell_angle_gamma 90.000000
_cell_volume 4323.092190
_symmetry_space_group_name_H-M "C M M A"
_symmetry_group_IT_number 67
_symmetry_cell_setting 'orthorhombic'
loop_
_space_group_symop_operation_xyz
x,y,z
-x,1/2-y,z
x,-y,-z
-x,1/2+y,-z
-x,-y,-z
x,1/2+y,-z
-x,y,z
x,1/2-y,z
1/2+x,1/2+y,z
1/2-x,-y,z
1/2+x,1/2-y,-z
1/2-x,y,-z
1/2-x,1/2-y,-z
1/2+x,y,-z
1/2-x,1/2+y,z
1/2+x,-y,z
loop_
_atom_site_type_symbol
_atom_site_label
_atom_site_fract_x
_atom_site_fract_y
_atom_site_fract_z
Si Si1 0.755429 0.157672 0.368468
Si Si2 0.691820 0.550582 0.808158
Si Si3 0.500000 0.345099 0.746636
Si Si4 0.370250 0.658398 0.984076
Si Si5 0.872838 0.602823 0.756435
Si Si6 0.000000 0.656988 0.001880
O O1 0.739746 0.250000 0.352880
O O2 0.750000 0.130519 0.500000
O O3 0.705641 0.108290 0.298249
O O4 0.822725 0.139682 0.326603
O O5 0.750000 0.500000 0.843099
O O6 0.676746 0.601793 0.920991
O O7 0.637291 0.491875 0.772877
O O8 0.500000 0.250000 0.733115
O O9 0.562407 0.380664 0.694612
O O10 0.500000 0.380974 0.875491
O O11 0.354721 0.750000 0.955393
O O12 0.367807 0.647402 0.120996
O O13 0.437393 0.634387 0.934914
O O14 0.000000 0.750000 0.977600
#
# Coordination Sequence:
#
# PCOD8278445 Si02
#       6
#    16  16   8  16  16   8
#     4  10  21  38  58  76  96 131 177 216 256 308
#     4  10  22  34  48  74 109 138 167 207 258 309
#     4   9  16  31  53  77 104 135 175 214 250 295
#     4  10  18  32  52  75 105 138 173 208 250 303
#     4  10  20  33  53  80 106 133 168 214 260 302
#     4   7  14  27  47  72  97 130 167 205 243 289
#
# _framework density 18.505272000000001
#
# number of rings (size 3 to 8) (size 9 to 14) (size 15 to 20)
#    0.000    2.400    0.000    4.200    0.000   10.000 
#    0.000    8.000    0.000    3.600    0.000    4.200 
#    0.000    0.000    0.000    0.000    0.000    0.000 
#
# Total GULP energy -495774.071638 kJ/mol
# GULP energy per Si atom -12394.351791 kJ/mol
# Density = 1.846315 g / cm^3
# Si number density = 18.505272 Si / 1000 Ang^3
#
#
#
# Elastic Constant Matrix: (Units=GPa)
#
#
# Indices 1 2 3 4 5 6 
#
# 1 116.0401 58.3604 46.7256 0.0000 0.0000 0.0000
# 2 58.3604 101.1933 34.5306 0.0000 0.0000 0.0000
# 3 46.7256 34.5306 78.1794 0.0000 0.0000 0.0000
# 4 0.0000 0.0000 0.0000 20.4419 0.0000 0.0000
# 5 0.0000 0.0000 0.0000 0.0000 6.0974 0.0000
# 6 0.0000 0.0000 0.0000 0.0000 0.0000 32.2443
#
#
#
# Elastic Compliance Matrix: (Units=1/GPa)
#
#
# Indices 1 2 3 4 5 6 
#
# 1 0.013975 -0.006134 -0.005643 0.000000 0.000000 0.000000
# 2 -0.006134 0.014328 -0.002662 0.000000 0.000000 0.000000
# 3 -0.005643 -0.002662 0.017340 0.000000 0.000000 0.000000
# 4 0.000000 0.000000 0.000000 0.048919 0.000000 0.000000
# 5 0.000000 0.000000 0.000000 0.000000 0.164003 0.000000
# 6 0.000000 0.000000 0.000000 0.000000 0.000000 0.031013
#
#
# Mechanical properties :
#
#
# Convention : Reuss Voigt Hill
#
# Bulk Modulus (GPa) = 59.65232 63.84955 61.75093
# Shear Modulus (GPa) = 15.42991 22.14314 18.78652
#
# Velocity S-wave (km/s) = 2.89071 3.46292 3.18967
# Velocity P-wave (km/s) = 6.59143 7.11108 6.85618
#
# Compressibility (1/GPa) = 0.01676381
#
# Stress axis : x y z
#
# Youngs Moduli (GPa) = 71.55594 69.79226 57.67085
#
# Poissons Ratio (x) = 0.42811 0.32545
# Poissons Ratio (y) = 0.43893 0.15354
# Poissons Ratio (z) = 0.40380 0.18581
#
# Static dielectric constant tensor:
#      x y z
#    x 3.882310 0.000000 0.000000 
#    y 0.000000 3.512810 0.000000 
#    z 0.000000 0.000000 3.048790 
# 
# 
# High freq. dielectric constant tensor:
#      x y z
#    x 1.727000 0.000000 0.000000 
#    y 0.000000 1.726480 0.000000 
#    z 0.000000 0.000000 1.674330 
# 
# From -- ./inp_files/17982.got.cif
#   From: 2010.03.12/outbox.cif.g09.slc.cpg/sg67_9_cif.got.tgz:17982.got - 2010.04.10 22:41:39.
