data_PCOD8278615
_publ_section_title
;
Structure prediction by ZEFSAII (Michael W. Deem and Ramdas Pophale) SiO2 
 PCOD8278615
Probable space group: C M M A
;
_chemical_formula_sum "Si O2"
_cell_formula_units_Z 72
_cell_length_a 8.962078
_cell_length_b 25.422716
_cell_length_c 19.548375
_cell_angle_alpha 90.000000
_cell_angle_beta 90.000000
_cell_angle_gamma 90.000000
_cell_volume 4453.908871
_symmetry_space_group_name_H-M "C M M A"
_symmetry_group_IT_number 67
_symmetry_cell_setting 'orthorhombic'
loop_
_space_group_symop_operation_xyz
x,y,z
-x,1/2-y,z
x,-y,-z
-x,1/2+y,-z
-x,-y,-z
x,1/2+y,-z
-x,y,z
x,1/2-y,z
1/2+x,1/2+y,z
1/2-x,-y,z
1/2+x,1/2-y,-z
1/2-x,y,-z
1/2-x,1/2-y,-z
1/2+x,y,-z
1/2-x,1/2+y,z
1/2+x,-y,z
loop_
_atom_site_type_symbol
_atom_site_label
_atom_site_fract_x
_atom_site_fract_y
_atom_site_fract_z
Si Si1 0.324456 0.250000 0.926982
Si Si2 0.673683 0.347540 0.836248
Si Si3 0.675445 0.689428 0.704318
Si Si4 0.331912 0.687383 0.433045
Si Si5 0.824431 0.945779 0.929231
O O1 0.500000 0.250000 0.938225
O O2 0.270659 0.198666 0.886115
O O3 0.250000 0.250000 0.000000
O O4 0.500000 0.340210 0.819156
O O5 0.765181 0.345908 0.766186
O O6 0.708015 0.402994 0.871366
O O7 0.500000 0.683172 0.697614
O O8 0.722021 0.750000 0.717243
O O9 0.747475 0.667621 0.634616
O O10 0.500000 0.665645 0.431755
O O11 0.329777 0.750000 0.435752
O O12 0.250000 0.664309 0.500000
O O13 0.000000 0.953693 0.941363
O O14 0.750000 0.000000 0.904374
O O15 0.750000 0.926849 0.000000
#
# Coordination Sequence:
#
# PCOD8278615 Si02
#       5
#     8  16  16  16  16
#     4  10  20  32  46  64  89 118 151 188 226 274
#     4  10  20  33  48  66  91 123 155 189 233 281
#     4  10  19  29  43  65  92 123 157 191 230 276
#     4   9  16  26  41  60  86 121 158 194 227 266
#     4  10  20  34  52  71  90 117 153 195 241 285
#
# _framework density 16.165575
#
# number of rings (size 3 to 8) (size 9 to 14) (size 15 to 20)
#    0.000    2.222    1.111    3.333    0.000    6.222 
#    0.000    0.000    0.000    0.000    0.000    0.000 
#    0.000    0.889    0.000    9.333    0.000    5.556 
#
# Total GULP energy -446481.117931 kJ/mol
# GULP energy per Si atom -12402.253276 kJ/mol
# Density = 1.612878 g / cm^3
# Si number density = 16.165575 Si / 1000 Ang^3
#
#
#
# Elastic Constant Matrix: (Units=GPa)
#
#
# Indices 1 2 3 4 5 6 
#
# 1 100.3776 38.7912 71.8920 0.0000 0.0000 0.0000
# 2 38.7912 61.4531 49.8092 0.0000 0.0000 0.0000
# 3 71.8920 49.8092 154.9543 0.0000 0.0000 0.0000
# 4 0.0000 0.0000 0.0000 16.3138 0.0000 0.0000
# 5 0.0000 0.0000 0.0000 0.0000 37.1525 0.0000
# 6 0.0000 0.0000 0.0000 0.0000 0.0000 18.8355
#
#
#
# Elastic Compliance Matrix: (Units=1/GPa)
#
#
# Indices 1 2 3 4 5 6 
#
# 1 0.016231 -0.005601 -0.005730 0.000000 0.000000 0.000000
# 2 -0.005601 0.023939 -0.005096 0.000000 0.000000 0.000000
# 3 -0.005730 -0.005096 0.010750 0.000000 0.000000 0.000000
# 4 0.000000 0.000000 0.000000 0.061298 0.000000 0.000000
# 5 0.000000 0.000000 0.000000 0.000000 0.026916 0.000000
# 6 0.000000 0.000000 0.000000 0.000000 0.000000 0.053091
#
#
# Mechanical properties :
#
#
# Convention : Reuss Voigt Hill
#
# Bulk Modulus (GPa) = 55.35565 70.86332 63.10948
# Shear Modulus (GPa) = 21.63553 24.87988 23.25770
#
# Velocity S-wave (km/s) = 3.66234 3.92735 3.79716
# Velocity P-wave (km/s) = 7.22502 8.03097 7.63863
#
# Compressibility (1/GPa) = 0.01806500
#
# Stress axis : x y z
#
# Youngs Moduli (GPa) = 61.61106 41.77296 93.02218
#
# Poissons Ratio (x) = 0.23398 0.53301
# Poissons Ratio (y) = 0.34510 0.47407
# Poissons Ratio (z) = 0.35303 0.21289
#
# Static dielectric constant tensor:
#      x y z
#    x 3.154600 0.000000 0.000000 
#    y 0.000000 2.750690 0.000000 
#    z 0.000000 0.000000 3.110770 
# 
# 
# High freq. dielectric constant tensor:
#      x y z
#    x 1.635550 0.000000 0.000000 
#    y 0.000000 1.572320 0.000000 
#    z 0.000000 0.000000 1.628630 
# 
# From -- ./inp_files/31934.got.cif
#   From: 2010.03.12/outbox.cif.g09.slc.cpg/sg67_16_cif.got.tgz:31934.got - 2010.04.10 22:41:39.
