data_PCOD8278602
_publ_section_title
;
Structure prediction by ZEFSAII (Michael W. Deem and Ramdas Pophale) SiO2 
 PCOD8278602
Probable space group: C M M A
;
_chemical_formula_sum "Si O2"
_cell_formula_units_Z 104
_cell_length_a 9.105783
_cell_length_b 25.571279
_cell_length_c 27.884177
_cell_angle_alpha 90.000000
_cell_angle_beta 90.000000
_cell_angle_gamma 90.000000
_cell_volume 6492.733511
_symmetry_space_group_name_H-M "C M M A"
_symmetry_group_IT_number 67
_symmetry_cell_setting 'orthorhombic'
loop_
_space_group_symop_operation_xyz
x,y,z
-x,1/2-y,z
x,-y,-z
-x,1/2+y,-z
-x,-y,-z
x,1/2+y,-z
-x,y,z
x,1/2-y,z
1/2+x,1/2+y,z
1/2-x,-y,z
1/2+x,1/2-y,-z
1/2-x,y,-z
1/2-x,1/2-y,-z
1/2+x,y,-z
1/2-x,1/2+y,z
1/2+x,-y,z
loop_
_atom_site_type_symbol
_atom_site_label
_atom_site_fract_x
_atom_site_fract_y
_atom_site_fract_z
Si Si1 0.170579 0.055591 0.956031
Si Si2 0.171172 0.835059 0.626835
Si Si3 0.835427 0.808322 0.281283
Si Si4 0.669991 0.947237 0.338116
Si Si5 0.829772 0.554676 0.149094
Si Si6 0.671905 0.102337 0.762516
Si Si7 0.331368 0.250000 0.549689
O O1 0.189846 0.082141 0.903463
O O2 0.000000 0.048583 0.968420
O O3 0.250000 0.000000 0.953226
O O4 0.250000 0.087412 0.000000
O O5 0.275993 0.807442 0.664772
O O6 0.206264 0.897829 0.626583
O O7 0.206465 0.804192 0.577730
O O8 0.000000 0.827413 0.641392
O O9 0.840923 0.750000 0.260979
O O10 0.720630 0.838982 0.248481
O O11 0.000000 0.832891 0.280084
O O12 0.500000 0.960366 0.340171
O O13 0.716358 0.933414 0.283296
O O14 0.750000 0.000000 0.355601
O O15 0.750000 0.500000 0.149950
O O16 0.759526 0.589429 0.189852
O O17 0.000000 0.545480 0.160690
O O18 0.500000 0.099385 0.772729
O O19 0.500000 0.250000 0.536698
O O20 0.250000 0.250000 0.500000
#
# Coordination Sequence:
#
# PCOD8278602 Si02
#       7
#    16  16  16  16  16  16   8
#     4   9  16  25  38  55  76 106 144 186 229 273
#     4   9  18  33  51  70  95 128 158 187 231 282
#     4  10  19  30  47  70  94 119 149 188 228 271
#     4   9  18  30  45  67  92 121 158 190 222 268
#     4  10  19  29  41  59  86 118 152 191 232 273
#     4  10  20  31  44  63  89 124 159 189 226 274
#     4  10  20  34  54  76 100 124 152 198 243 282
#
# _framework density 16.017906
#
# number of rings (size 3 to 8) (size 9 to 14) (size 15 to 20)
#    0.000    2.462    0.769    3.692    0.000    7.692 
#    0.000    0.000    0.000    0.462    0.000    3.231 
#    0.000    0.615    0.000    2.000    0.000    2.769 
#
# Total GULP energy -644251.224525 kJ/mol
# GULP energy per Si atom -12389.446625 kJ/mol
# Density = 1.598145 g / cm^3
# Si number density = 16.017906 Si / 1000 Ang^3
#
#
#
# Elastic Constant Matrix: (Units=GPa)
#
#
# Indices 1 2 3 4 5 6 
#
# 1 83.1231 35.3885 50.7302 0.0000 0.0000 0.0000
# 2 35.3885 87.5632 46.1075 0.0000 0.0000 0.0000
# 3 50.7302 46.1075 116.6481 0.0000 0.0000 0.0000
# 4 0.0000 0.0000 0.0000 26.1245 0.0000 0.0000
# 5 0.0000 0.0000 0.0000 0.0000 28.3736 0.0000
# 6 0.0000 0.0000 0.0000 0.0000 0.0000 24.3737
#
#
#
# Elastic Compliance Matrix: (Units=1/GPa)
#
#
# Indices 1 2 3 4 5 6 
#
# 1 0.017340 -0.003835 -0.006025 0.000000 0.000000 0.000000
# 2 -0.003835 0.015270 -0.004368 0.000000 0.000000 0.000000
# 3 -0.006025 -0.004368 0.012920 0.000000 0.000000 0.000000
# 4 0.000000 0.000000 0.000000 0.038278 0.000000 0.000000
# 5 0.000000 0.000000 0.000000 0.000000 0.035244 0.000000
# 6 0.000000 0.000000 0.000000 0.000000 0.000000 0.041028
#
#
# Mechanical properties :
#
#
# Convention : Reuss Voigt Hill
#
# Bulk Modulus (GPa) = 58.57111 61.30964 59.94037
# Shear Modulus (GPa) = 25.74281 26.11492 25.92886
#
# Velocity S-wave (km/s) = 4.01325 4.04215 4.02772
# Velocity P-wave (km/s) = 7.62367 7.75526 7.68974
#
# Compressibility (1/GPa) = 0.01707326
#
# Stress axis : x y z
#
# Youngs Moduli (GPa) = 57.66852 65.48632 77.40115
#
# Poissons Ratio (x) = 0.25117 0.46637
# Poissons Ratio (y) = 0.22118 0.33808
# Poissons Ratio (z) = 0.34747 0.28604
#
# Static dielectric constant tensor:
#      x y z
#    x 3.286900 0.000000 0.000000 
#    y 0.000000 2.897390 0.000000 
#    z 0.000000 0.000000 3.366250 
# 
# 
# High freq. dielectric constant tensor:
#      x y z
#    x 1.632060 0.000000 0.000000 
#    y 0.000000 1.583580 0.000000 
#    z 0.000000 0.000000 1.601990 
# 
# From -- ./inp_files/43834.got.cif
#   From: 2010.03.12/outbox.cif.g09.slc.cpg/sg67_22_cif.got.tgz:43834.got - 2010.04.10 22:41:39.
