data_PCOD8278051
_publ_section_title
;
Structure prediction by ZEFSAII (Michael W. Deem and Ramdas Pophale) SiO2 
 PCOD8278051
Probable space group: C M M A
;
_chemical_formula_sum "Si O2"
_cell_formula_units_Z 96
_cell_length_a 8.805133
_cell_length_b 30.683761
_cell_length_c 19.899081
_cell_angle_alpha 90.000000
_cell_angle_beta 90.000000
_cell_angle_gamma 90.000000
_cell_volume 5376.226181
_symmetry_space_group_name_H-M "C M M A"
_symmetry_group_IT_number 67
_symmetry_cell_setting 'orthorhombic'
loop_
_space_group_symop_operation_xyz
x,y,z
-x,1/2-y,z
x,-y,-z
-x,1/2+y,-z
-x,-y,-z
x,1/2+y,-z
-x,y,z
x,1/2-y,z
1/2+x,1/2+y,z
1/2-x,-y,z
1/2+x,1/2-y,-z
1/2-x,y,-z
1/2-x,1/2-y,-z
1/2+x,y,-z
1/2-x,1/2+y,z
1/2+x,-y,z
loop_
_atom_site_type_symbol
_atom_site_label
_atom_site_fract_x
_atom_site_fract_y
_atom_site_fract_z
Si Si1 0.318546 0.543089 0.925568
Si Si2 0.322848 0.362676 0.572620
Si Si3 0.179350 0.630235 0.927465
Si Si4 0.824210 0.700370 0.817400
Si Si5 0.823564 0.199466 0.679760
Si Si6 0.176833 0.041419 0.427139
O O1 0.500000 0.541363 0.925959
O O2 0.250000 0.500000 0.888541
O O3 0.257033 0.587733 0.892315
O O4 0.250000 0.543910 0.000000
O O5 0.500000 0.355879 0.562480
O O6 0.250000 0.356172 0.500000
O O7 0.262718 0.326851 0.623066
O O8 0.288893 0.410903 0.604385
O O9 0.219232 0.671210 0.881097
O O10 0.000000 0.622326 0.934803
O O11 0.250000 0.640193 0.000000
O O12 0.782805 0.750000 0.836414
O O13 0.729418 0.684172 0.753320
O O14 0.000000 0.695426 0.798485
O O15 0.783301 0.250000 0.669336
O O16 0.000000 0.189919 0.672536
O O17 0.250000 0.042188 0.500000
O O18 0.000000 0.032668 0.432974
O O19 0.250000 0.000000 0.386515
#
# Coordination Sequence:
#
# PCOD8278051 Si02
#       6
#    16  16  16  16  16  16
#     4  10  17  27  44  67  97 130 164 201 244 292
#     4  10  20  33  51  76 104 133 166 205 248 293
#     4  10  19  31  49  75 104 132 165 205 248 292
#     4   9  19  36  55  73  97 132 169 203 244 296
#     4  10  21  36  54  75  98 128 167 207 249 299
#     4   9  16  26  43  68  97 129 162 196 237 284
#
# _framework density 17.856390999999999
#
# number of rings (size 3 to 8) (size 9 to 14) (size 15 to 20)
#    0.000    2.333    0.000    5.500    0.000    5.000 
#    0.000    0.000    0.000    1.000    0.000    4.667 
#    0.000    0.000    0.000    0.000    0.000    0.000 
#
# Total GULP energy -594912.364683 kJ/mol
# GULP energy per Si atom -12394.007598 kJ/mol
# Density = 1.781575 g / cm^3
# Si number density = 17.856391 Si / 1000 Ang^3
#
#
#
# Elastic Constant Matrix: (Units=GPa)
#
#
# Indices 1 2 3 4 5 6 
#
# 1 119.4343 66.3551 45.7845 0.0000 0.0000 0.0000
# 2 66.3551 124.1139 64.7129 0.0000 0.0000 0.0000
# 3 45.7845 64.7129 74.2316 0.0000 0.0000 0.0000
# 4 0.0000 0.0000 0.0000 -7.6996 0.0000 0.0000
# 5 0.0000 0.0000 0.0000 0.0000 24.0911 0.0000
# 6 0.0000 0.0000 0.0000 0.0000 0.0000 30.7779
#
#
#
# Elastic Compliance Matrix: (Units=1/GPa)
#
#
# Indices 1 2 3 4 5 6 
#
# 1 0.012366 -0.004830 -0.003417 0.000000 0.000000 0.000000
# 2 -0.004830 0.016658 -0.011543 0.000000 0.000000 0.000000
# 3 -0.003417 -0.011543 0.025641 0.000000 0.000000 0.000000
# 4 0.000000 0.000000 0.000000 -0.129877 0.000000 0.000000
# 5 0.000000 0.000000 0.000000 0.000000 0.041509 0.000000
# 6 0.000000 0.000000 0.000000 0.000000 0.000000 0.032491
#
#
# Mechanical properties :
#
#
# Convention : Reuss Voigt Hill
#
# Bulk Modulus (GPa) = 66.28398 74.60941 70.44669
# Shear Modulus (GPa) = 115.22254 18.82904 67.02579
#
# Velocity S-wave (km/s) = 8.04161 3.25078 6.13331
# Velocity P-wave (km/s) = 11.10965 7.48090 9.47070
#
# Compressibility (1/GPa) = 0.01508660
#
# Stress axis : x y z
#
# Youngs Moduli (GPa) = 80.86797 60.03260 38.99983
#
# Poissons Ratio (x) = 0.28994 0.13324
# Poissons Ratio (y) = 0.39058 0.45016
# Poissons Ratio (z) = 0.27629 0.69294
#
# Static dielectric constant tensor:
#      x y z
#    x 3.445180 0.000000 0.000000 
#    y 0.000000 4.388990 0.000000 
#    z 0.000000 0.000000 2.897000 
# 
# 
# High freq. dielectric constant tensor:
#      x y z
#    x 1.708680 0.000000 0.000000 
#    y 0.000000 1.713930 0.000000 
#    z 0.000000 0.000000 1.638720 
# 
# From -- ./inp_files/37202.got.cif
#   From: 2010.03.12/outbox.cif.g09.slc.cpg/sg67_19_cif.got.tgz:37202.got - 2010.04.10 22:41:39.
