data_PCOD8278789
_publ_section_title
;
Structure prediction by ZEFSAII (Michael W. Deem and Ramdas Pophale) SiO2 
 PCOD8278789
Probable space group: C M M A
;
_chemical_formula_sum "Si O2"
_cell_formula_units_Z 128
_cell_length_a 23.137045
_cell_length_b 26.563417
_cell_length_c 12.038580
_cell_angle_alpha 90.000000
_cell_angle_beta 90.000000
_cell_angle_gamma 90.000000
_cell_volume 7398.898922
_symmetry_space_group_name_H-M "C M M A"
_symmetry_group_IT_number 67
_symmetry_cell_setting 'orthorhombic'
loop_
_space_group_symop_operation_xyz
x,y,z
-x,1/2-y,z
x,-y,-z
-x,1/2+y,-z
-x,-y,-z
x,1/2+y,-z
-x,y,z
x,1/2-y,z
1/2+x,1/2+y,z
1/2-x,-y,z
1/2+x,1/2-y,-z
1/2-x,y,-z
1/2-x,1/2-y,-z
1/2+x,y,-z
1/2-x,1/2+y,z
1/2+x,-y,z
loop_
_atom_site_type_symbol
_atom_site_label
_atom_site_fract_x
_atom_site_fract_y
_atom_site_fract_z
Si Si1 0.432522 0.362711 0.419377
Si Si2 0.127751 0.691622 0.217987
Si Si3 0.562105 0.807516 0.998037
Si Si4 0.252718 0.941381 0.320062
Si Si5 0.437602 0.691306 0.362267
Si Si6 0.645966 0.190412 0.820601
Si Si7 0.656347 0.941188 0.501355
Si Si8 0.259531 0.136594 0.131067
O O1 0.500000 0.373820 0.387555
O O2 0.393819 0.342852 0.318461
O O3 0.427821 0.318324 0.508434
O O4 0.403536 0.411851 0.476146
O O5 0.141092 0.750000 0.252240
O O6 0.075619 0.689966 0.131543
O O7 0.181888 0.666351 0.156354
O O8 0.500000 0.834230 0.017603
O O9 0.557300 0.750000 0.037291
O O10 0.611653 0.832733 0.073450
O O11 0.312871 0.927307 0.383457
O O12 0.200030 0.926514 0.400159
O O13 0.245260 0.914684 0.201171
O O14 0.250000 0.000000 0.293517
O O15 0.500000 0.668353 0.325500
O O16 0.438778 0.750000 0.341471
O O17 0.386205 0.668385 0.288288
O O18 0.648144 0.250000 0.823222
O O19 0.710944 0.172787 0.821145
O O20 0.641279 0.000000 0.500000
O O21 0.250000 0.125541 0.000000
#
# Coordination Sequence:
#
# PCOD8278789 Si02
#       8
#    16  16  16  16  16  16  16  16
#     4  11  21  34  54  80 111 142 176 222 268 319
#     4  11  22  35  50  74 111 150 185 220 262 318
#     4   9  17  30  48  68  95 137 186 223 252 300
#     4   9  19  37  60  80 103 137 176 224 275 328
#     4   9  18  32  49  71 102 139 177 214 254 307
#     4  10  19  31  48  72 102 137 176 217 265 310
#     4   9  18  36  60  82 106 136 174 222 274 326
#     4  12  22  34  53  77 109 139 177 228 276 321
#
# _framework density 17.299871
#
# number of rings (size 3 to 8) (size 9 to 14) (size 15 to 20)
#    0.000    2.000    2.500    3.000    0.000    3.750 
#    0.000    0.000    0.000    3.000    0.000    0.000 
#    0.000    3.250    0.000    0.000    0.000    0.000 
#
# Total GULP energy -793030.981150 kJ/mol
# GULP energy per Si atom -12391.109080 kJ/mol
# Density = 1.726050 g / cm^3
# Si number density = 17.299871 Si / 1000 Ang^3
#
#
#
# Elastic Constant Matrix: (Units=GPa)
#
#
# Indices 1 2 3 4 5 6 
#
# 1 107.8749 34.1945 42.2658 0.0000 0.0000 0.0000
# 2 34.1945 57.1007 32.4031 0.0000 0.0000 0.0000
# 3 42.2658 32.4031 92.5162 0.0000 0.0000 0.0000
# 4 0.0000 0.0000 0.0000 24.2720 0.0000 0.0000
# 5 0.0000 0.0000 0.0000 0.0000 26.4978 0.0000
# 6 0.0000 0.0000 0.0000 0.0000 0.0000 20.5109
#
#
#
# Elastic Compliance Matrix: (Units=1/GPa)
#
#
# Indices 1 2 3 4 5 6 
#
# 1 0.012446 -0.005275 -0.003838 0.000000 0.000000 0.000000
# 2 -0.005275 0.024093 -0.006028 0.000000 0.000000 0.000000
# 3 -0.003838 -0.006028 0.014674 0.000000 0.000000 0.000000
# 4 0.000000 0.000000 0.000000 0.041200 0.000000 0.000000
# 5 0.000000 0.000000 0.000000 0.000000 0.037739 0.000000
# 6 0.000000 0.000000 0.000000 0.000000 0.000000 0.048755
#
#
# Mechanical properties :
#
#
# Convention : Reuss Voigt Hill
#
# Bulk Modulus (GPa) = 47.78062 52.80206 50.29134
# Shear Modulus (GPa) = 23.13037 24.16470 23.64753
#
# Velocity S-wave (km/s) = 3.66050 3.74145 3.70120
# Velocity P-wave (km/s) = 6.74868 7.01801 6.88467
#
# Compressibility (1/GPa) = 0.02092899
#
# Stress axis : x y z
#
# Youngs Moduli (GPa) = 80.34719 41.50608 68.14821
#
# Poissons Ratio (x) = 0.21895 0.26158
# Poissons Ratio (y) = 0.42383 0.41083
# Poissons Ratio (z) = 0.30840 0.25022
#
# Static dielectric constant tensor:
#      x y z
#    x 3.457920 0.000000 0.000000 
#    y 0.000000 2.916230 0.000000 
#    z 0.000000 0.000000 3.315070 
# 
# 
# High freq. dielectric constant tensor:
#      x y z
#    x 1.680420 0.000000 0.000000 
#    y 0.000000 1.631860 0.000000 
#    z 0.000000 0.000000 1.674770 
# 
# From -- ./inp_files/22445.got.cif
#   From: 2010.03.12/outbox.cif.g09.slc.cpg/sg67_12_cif.got.tgz:22445.got - 2010.04.10 22:41:39.
