data_PCOD8278711
_publ_section_title
;
Structure prediction by ZEFSAII (Michael W. Deem and Ramdas Pophale) SiO2 
 PCOD8278711
Probable space group: C M M A
;
_chemical_formula_sum "Si O2"
_cell_formula_units_Z 104
_cell_length_a 26.751456
_cell_length_b 8.679032
_cell_length_c 24.179614
_cell_angle_alpha 90.000000
_cell_angle_beta 90.000000
_cell_angle_gamma 90.000000
_cell_volume 5613.944018
_symmetry_space_group_name_H-M "C M M A"
_symmetry_group_IT_number 67
_symmetry_cell_setting 'orthorhombic'
loop_
_space_group_symop_operation_xyz
x,y,z
-x,1/2-y,z
x,-y,-z
-x,1/2+y,-z
-x,-y,-z
x,1/2+y,-z
-x,y,z
x,1/2-y,z
1/2+x,1/2+y,z
1/2-x,-y,z
1/2+x,1/2-y,-z
1/2-x,y,-z
1/2-x,1/2-y,-z
1/2+x,y,-z
1/2-x,1/2+y,z
1/2+x,-y,z
loop_
_atom_site_type_symbol
_atom_site_label
_atom_site_fract_x
_atom_site_fract_y
_atom_site_fract_z
Si Si1 0.000000 0.566507 0.560756
Si Si2 0.056916 0.575732 0.273589
Si Si3 0.302883 0.431799 0.350748
Si Si4 0.556537 0.932563 0.942915
Si Si5 0.401493 0.928597 0.375189
Si Si6 0.698720 0.069114 0.769070
Si Si7 0.386741 0.426950 0.164713
O O1 0.000000 0.500000 0.500000
O O2 0.050708 0.505801 0.590706
O O3 0.000000 0.750000 0.560352
O O4 0.068248 0.750000 0.293789
O O5 0.088874 0.457880 0.310244
O O6 0.069092 0.558106 0.209256
O O7 0.000000 0.530694 0.282117
O O8 0.299029 0.250000 0.352893
O O9 0.250000 0.500000 0.371836
O O10 0.348844 0.487703 0.390153
O O11 0.314737 0.485110 0.288311
O O12 0.500000 0.993520 0.933439
O O13 0.556893 0.750000 0.945435
O O14 0.591797 0.990293 0.893146
O O15 0.578340 0.000000 0.000000
O O16 0.394090 0.750000 0.387094
O O17 0.703354 0.250000 0.757695
O O18 0.750000 0.000000 0.792362
O O19 0.658540 0.034713 0.816452
O O20 0.368599 0.250000 0.159769
#
# Coordination Sequence:
#
# PCOD8278711 Si02
#       7
#     8  16  16  16  16  16  16
#     4  10  24  42  62  86 118 156 197 236 277 326
#     4  10  19  30  48  76 108 144 180 217 269 331
#     4  11  21  35  55  82 113 151 189 229 278 337
#     4   9  18  33  52  73 101 137 177 221 263 315
#     4  11  21  36  55  82 116 150 185 233 280 323
#     4  11  21  33  50  74 106 141 176 218 267 325
#     4  10  19  32  50  74 105 139 178 220 269 324
#
# _framework density 18.525300999999999
#
# number of rings (size 3 to 8) (size 9 to 14) (size 15 to 20)
#    0.000    1.692    2.308    4.615    0.000    3.692 
#    0.000    0.000    0.000    3.692    0.000    6.462 
#    0.000    0.000    0.000    0.000    0.000    0.000 
#
# Total GULP energy -644748.220253 kJ/mol
# GULP energy per Si atom -12399.004236 kJ/mol
# Density = 1.848314 g / cm^3
# Si number density = 18.525301 Si / 1000 Ang^3
#
#
#
# Elastic Constant Matrix: (Units=GPa)
#
#
# Indices 1 2 3 4 5 6 
#
# 1 147.2364 48.6244 48.9248 0.0000 0.0000 0.0000
# 2 48.6244 87.2202 23.2766 0.0000 0.0000 0.0000
# 3 48.9248 23.2766 72.2109 0.0000 0.0000 0.0000
# 4 0.0000 0.0000 0.0000 24.1824 0.0000 0.0000
# 5 0.0000 0.0000 0.0000 0.0000 16.4059 0.0000
# 6 0.0000 0.0000 0.0000 0.0000 0.0000 29.3204
#
#
#
# Elastic Compliance Matrix: (Units=1/GPa)
#
#
# Indices 1 2 3 4 5 6 
#
# 1 0.009945 -0.004099 -0.005417 0.000000 0.000000 0.000000
# 2 -0.004099 0.014234 -0.001811 0.000000 0.000000 0.000000
# 3 -0.005417 -0.001811 0.018102 0.000000 0.000000 0.000000
# 4 0.000000 0.000000 0.000000 0.041352 0.000000 0.000000
# 5 0.000000 0.000000 0.000000 0.000000 0.060954 0.000000
# 6 0.000000 0.000000 0.000000 0.000000 0.000000 0.034106
#
#
# Mechanical properties :
#
#
# Convention : Reuss Voigt Hill
#
# Bulk Modulus (GPa) = 50.94892 60.92434 55.93663
# Shear Modulus (GPa) = 24.05123 26.37120 25.21121
#
# Velocity S-wave (km/s) = 3.60709 3.77705 3.69305
# Velocity P-wave (km/s) = 6.70151 7.20972 6.96025
#
# Compressibility (1/GPa) = 0.01962750
#
# Stress axis : x y z
#
# Youngs Moduli (GPa) = 100.54842 70.25631 55.24159
#
# Poissons Ratio (x) = 0.28797 0.29925
# Poissons Ratio (y) = 0.41213 0.10004
# Poissons Ratio (z) = 0.54468 0.12723
#
# Static dielectric constant tensor:
#      x y z
#    x 3.920170 0.000000 0.000000 
#    y 0.000000 3.334700 0.000000 
#    z 0.000000 0.000000 3.209930 
# 
# 
# High freq. dielectric constant tensor:
#      x y z
#    x 1.730440 0.000000 0.000000 
#    y 0.000000 1.716330 0.000000 
#    z 0.000000 0.000000 1.683160 
# 
# From -- ./inp_files/42764.got.cif
#   From: 2010.03.12/outbox.cif.g09.slc.cpg/sg67_22_cif.got.tgz:42764.got - 2010.04.10 22:41:39.
