data_PCOD8278152
_publ_section_title
;
Structure prediction by ZEFSAII (Michael W. Deem and Ramdas Pophale) SiO2 
 PCOD8278152
Probable space group: C M M A
;
_chemical_formula_sum "Si O2"
_cell_formula_units_Z 80
_cell_length_a 25.569955
_cell_length_b 15.112931
_cell_length_c 10.196077
_cell_angle_alpha 90.000000
_cell_angle_beta 90.000000
_cell_angle_gamma 90.000000
_cell_volume 3940.141057
_symmetry_space_group_name_H-M "C M M A"
_symmetry_group_IT_number 67
_symmetry_cell_setting 'orthorhombic'
loop_
_space_group_symop_operation_xyz
x,y,z
-x,1/2-y,z
x,-y,-z
-x,1/2+y,-z
-x,-y,-z
x,1/2+y,-z
-x,y,z
x,1/2-y,z
1/2+x,1/2+y,z
1/2-x,-y,z
1/2+x,1/2-y,-z
1/2-x,y,-z
1/2-x,1/2-y,-z
1/2+x,y,-z
1/2-x,1/2+y,z
1/2+x,-y,z
loop_
_atom_site_type_symbol
_atom_site_label
_atom_site_fract_x
_atom_site_fract_y
_atom_site_fract_z
Si Si1 0.318650 0.848140 0.772093
Si Si2 0.798333 0.648839 0.787678
Si Si3 0.056731 0.075189 0.392886
Si Si4 0.662859 0.894110 0.485057
Si Si5 0.615570 0.988662 0.144044
O O1 0.334298 0.750000 0.820586
O O2 0.261346 0.872154 0.829506
O O3 0.317527 0.846488 0.614293
O O4 0.361243 0.916544 0.819625
O O5 0.813138 0.750000 0.821625
O O6 0.798782 0.632641 0.631588
O O7 0.838276 0.584544 0.862703
O O8 0.103898 0.138120 0.442986
O O9 0.071601 0.035973 0.249617
O O10 0.000000 0.123929 0.378847
O O11 0.049690 0.000000 0.500000
O O12 0.662379 0.000000 0.500000
O O13 0.590184 0.000000 0.000000
#
# Coordination Sequence:
#
# PCOD8278152 Si02
#       5
#    16  16  16  16  16
#     4  11  21  34  53  82 115 154 192 229 277 331
#     4  10  21  34  54  80 114 154 194 232 275 331
#     4   9  17  35  63  86 106 138 185 231 284 340
#     4  10  17  32  55  86 111 143 180 233 283 329
#     4  11  23  38  56  83 116 151 188 233 283 331
#
# _framework density 20.303842
#
# number of rings (size 3 to 8) (size 9 to 14) (size 15 to 20)
#    0.000    1.800    6.000    1.800    0.000    5.200 
#    0.000    2.000    0.000   16.800    0.000    5.600 
#    0.000    0.000    0.000    0.000    0.000    0.000 
#
# Total GULP energy -495691.733103 kJ/mol
# GULP energy per Si atom -12392.293328 kJ/mol
# Density = 2.025763 g / cm^3
# Si number density = 20.303842 Si / 1000 Ang^3
#
#
#
# Elastic Constant Matrix: (Units=GPa)
#
#
# Indices 1 2 3 4 5 6 
#
# 1 82.3943 17.5957 -1.4834 0.0000 0.0000 0.0000
# 2 17.5957 68.4018 -10.1824 0.0000 0.0000 0.0000
# 3 -1.4834 -10.1824 87.1817 0.0000 0.0000 0.0000
# 4 0.0000 0.0000 0.0000 7.3713 0.0000 0.0000
# 5 0.0000 0.0000 0.0000 0.0000 70.2749 0.0000
# 6 0.0000 0.0000 0.0000 0.0000 0.0000 4.7211
#
#
#
# Elastic Compliance Matrix: (Units=1/GPa)
#
#
# Indices 1 2 3 4 5 6 
#
# 1 0.012845 -0.003330 -0.000170 0.000000 0.000000 0.000000
# 2 -0.003330 0.015741 0.001782 0.000000 0.000000 0.000000
# 3 -0.000170 0.001782 0.011676 0.000000 0.000000 0.000000
# 4 0.000000 0.000000 0.000000 0.135661 0.000000 0.000000
# 5 0.000000 0.000000 0.000000 0.000000 0.014230 0.000000
# 6 0.000000 0.000000 0.000000 0.000000 0.000000 0.211817
#
#
# Mechanical properties :
#
#
# Convention : Reuss Voigt Hill
#
# Bulk Modulus (GPa) = 27.15511 27.75972 27.45741
# Shear Modulus (GPa) = 11.97087 31.94332 21.95709
#
# Velocity S-wave (km/s) = 2.43077 3.97074 3.29207
# Velocity P-wave (km/s) = 4.61320 5.89273 5.29178
#
# Compressibility (1/GPa) = 0.03682548
#
# Stress axis : x y z
#
# Youngs Moduli (GPa) = 77.85291 63.52739 85.64932
#
# Poissons Ratio (x) = 0.21152 0.01459
# Poissons Ratio (y) = 0.25921 -0.15261
# Poissons Ratio (z) = 0.01326 -0.11320
#
# Static dielectric constant tensor:
#      x y z
#    x 3.921030 0.000000 0.000000 
#    y 0.000000 3.499670 0.000000 
#    z 0.000000 0.000000 3.834550 
# 
# 
# High freq. dielectric constant tensor:
#      x y z
#    x 1.777630 0.000000 0.000000 
#    y 0.000000 1.773880 0.000000 
#    z 0.000000 0.000000 1.793600 
# 
# From -- ./inp_files/18399.got.cif
#   From: 2010.03.12/outbox.cif.g09.slc.cpg/sg67_10_cif.got.tgz:18399.got - 2010.04.10 22:41:39.
