data_PCOD8278653
_publ_section_title
;
Structure prediction by ZEFSAII (Michael W. Deem and Ramdas Pophale) SiO2 
 PCOD8278653
Probable space group: C M M A
;
_chemical_formula_sum "Si O2"
_cell_formula_units_Z 96
_cell_length_a 27.276727
_cell_length_b 8.868575
_cell_length_c 24.044763
_cell_angle_alpha 90.000000
_cell_angle_beta 90.000000
_cell_angle_gamma 90.000000
_cell_volume 5816.565205
_symmetry_space_group_name_H-M "C M M A"
_symmetry_group_IT_number 67
_symmetry_cell_setting 'orthorhombic'
loop_
_space_group_symop_operation_xyz
x,y,z
-x,1/2-y,z
x,-y,-z
-x,1/2+y,-z
-x,-y,-z
x,1/2+y,-z
-x,y,z
x,1/2-y,z
1/2+x,1/2+y,z
1/2-x,-y,z
1/2+x,1/2-y,-z
1/2-x,y,-z
1/2-x,1/2-y,-z
1/2+x,y,-z
1/2-x,1/2+y,z
1/2+x,-y,z
loop_
_atom_site_type_symbol
_atom_site_label
_atom_site_fract_x
_atom_site_fract_y
_atom_site_fract_z
Si Si1 0.196701 0.426441 0.675257
Si Si2 0.943879 0.573430 0.169418
Si Si3 0.895722 0.575816 0.057364
Si Si4 0.145259 0.928823 0.775615
Si Si5 0.300538 0.572499 0.877144
Si Si6 0.802614 0.076031 0.552061
O O1 0.201214 0.250000 0.690134
O O2 0.250000 0.500000 0.681724
O O3 0.158504 0.509540 0.715043
O O4 0.173952 0.448547 0.613112
O O5 0.931080 0.750000 0.175918
O O6 0.932401 0.522160 0.106198
O O7 0.910263 0.479688 0.211566
O O8 0.000000 0.538124 0.183778
O O9 0.902182 0.750000 0.046582
O O10 0.840210 0.535901 0.075222
O O11 0.910576 0.500000 0.000000
O O12 0.149197 0.750000 0.777333
O O13 0.183445 0.998545 0.819245
O O14 0.294665 0.750000 0.867560
O O15 0.250000 0.500000 0.897712
O O16 0.796808 0.250000 0.538252
O O17 0.832483 0.000000 0.500000
O O18 0.750000 0.000000 0.554489
#
# Coordination Sequence:
#
# PCOD8278653 Si02
#       6
#    16  16  16  16  16  16
#     4  10  19  30  44  65  94 129 164 195 230 270
#     4   9  19  37  56  71  91 119 147 180 228 280
#     4   9  19  33  49  70  94 119 148 182 220 267
#     4  11  21  32  48  70  94 119 151 192 232 272
#     4  10  20  34  49  66  91 123 156 188 226 270
#     4   9  16  25  39  58  85 122 161 197 229 263
#
# _framework density 16.504584999999999
#
# number of rings (size 3 to 8) (size 9 to 14) (size 15 to 20)
#    0.000    2.333    0.000    5.000    0.000    6.333 
#    0.000    1.667    0.000    0.000    0.000    0.000 
#    0.000    0.667    0.000    2.167    0.000    3.000 
#
# Total GULP energy -595032.756496 kJ/mol
# GULP energy per Si atom -12396.515760 kJ/mol
# Density = 1.646702 g / cm^3
# Si number density = 16.504585 Si / 1000 Ang^3
#
#
#
# Elastic Constant Matrix: (Units=GPa)
#
#
# Indices 1 2 3 4 5 6 
#
# 1 63.8947 29.5327 26.4355 0.0000 0.0000 0.0000
# 2 29.5327 98.5805 46.7228 0.0000 0.0000 0.0000
# 3 26.4355 46.7228 110.1713 0.0000 0.0000 0.0000
# 4 0.0000 0.0000 0.0000 30.0590 0.0000 0.0000
# 5 0.0000 0.0000 0.0000 0.0000 9.4501 0.0000
# 6 0.0000 0.0000 0.0000 0.0000 0.0000 21.8490
#
#
#
# Elastic Compliance Matrix: (Units=1/GPa)
#
#
# Indices 1 2 3 4 5 6 
#
# 1 0.018765 -0.004365 -0.002652 0.000000 0.000000 0.000000
# 2 -0.004365 0.013711 -0.004767 0.000000 0.000000 0.000000
# 3 -0.002652 -0.004767 0.011735 0.000000 0.000000 0.000000
# 4 0.000000 0.000000 0.000000 0.033268 0.000000 0.000000
# 5 0.000000 0.000000 0.000000 0.000000 0.105819 0.000000
# 6 0.000000 0.000000 0.000000 0.000000 0.000000 0.045769
#
#
# Mechanical properties :
#
#
# Convention : Reuss Voigt Hill
#
# Bulk Modulus (GPa) = 48.44164 53.11428 50.77796
# Shear Modulus (GPa) = 19.26660 23.60198 21.43429
#
# Velocity S-wave (km/s) = 3.42035 3.78567 3.60764
# Velocity P-wave (km/s) = 6.70914 7.16658 6.94163
#
# Compressibility (1/GPa) = 0.02064340
#
# Stress axis : x y z
#
# Youngs Moduli (GPa) = 53.28975 72.93308 85.21629
#
# Poissons Ratio (x) = 0.31835 0.22596
# Poissons Ratio (y) = 0.23261 0.40626
# Poissons Ratio (z) = 0.14130 0.34770
#
# Static dielectric constant tensor:
#      x y z
#    x 2.875360 0.000000 0.000000 
#    y 0.000000 3.194530 0.000000 
#    z 0.000000 0.000000 3.611550 
# 
# 
# High freq. dielectric constant tensor:
#      x y z
#    x 1.596140 0.000000 0.000000 
#    y 0.000000 1.648830 0.000000 
#    z 0.000000 0.000000 1.638320 
# 
# From -- ./inp_files/39871.got.cif
#   From: 2010.03.12/outbox.cif.g09.slc.cpg/sg67_20_cif.got.tgz:39871.got - 2010.04.10 22:41:39.
