data_PCOD8278370
_publ_section_title
;
Structure prediction by ZEFSAII (Michael W. Deem and Ramdas Pophale) SiO2 
 PCOD8278370
Probable space group: C M M A
;
_chemical_formula_sum "Si O2"
_cell_formula_units_Z 128
_cell_length_a 18.858070
_cell_length_b 24.187783
_cell_length_c 17.150865
_cell_angle_alpha 90.000000
_cell_angle_beta 90.000000
_cell_angle_gamma 90.000000
_cell_volume 7823.108177
_symmetry_space_group_name_H-M "C M M A"
_symmetry_group_IT_number 67
_symmetry_cell_setting 'orthorhombic'
loop_
_space_group_symop_operation_xyz
x,y,z
-x,1/2-y,z
x,-y,-z
-x,1/2+y,-z
-x,-y,-z
x,1/2+y,-z
-x,y,z
x,1/2-y,z
1/2+x,1/2+y,z
1/2-x,-y,z
1/2+x,1/2-y,-z
1/2-x,y,-z
1/2-x,1/2-y,-z
1/2+x,y,-z
1/2-x,1/2+y,z
1/2+x,-y,z
loop_
_atom_site_type_symbol
_atom_site_label
_atom_site_fract_x
_atom_site_fract_y
_atom_site_fract_z
Si Si1 0.660607 0.315747 0.569659
Si Si2 0.317430 0.184513 0.401300
Si Si3 0.582303 0.606655 0.889645
Si Si4 0.422478 0.514435 0.090159
Si Si5 0.349878 0.686250 0.766810
Si Si6 0.195613 0.813210 0.834996
Si Si7 0.322106 0.398120 0.964442
Si Si8 0.421324 0.184084 0.716024
O O1 0.663148 0.250000 0.573256
O O2 0.641418 0.334103 0.480579
O O3 0.737538 0.339392 0.594322
O O4 0.602842 0.338509 0.630959
O O5 0.311627 0.250000 0.396641
O O6 0.358012 0.165105 0.322889
O O7 0.500000 0.614134 0.910390
O O8 0.598003 0.542604 0.865141
O O9 0.601725 0.647107 0.819301
O O10 0.625975 0.622068 0.967025
O O11 0.500000 0.536289 0.119343
O O12 0.360332 0.559865 0.096564
O O13 0.428749 0.500000 0.000000
O O14 0.374659 0.750000 0.777384
O O15 0.267744 0.679858 0.787637
O O16 0.180688 0.750000 0.856190
O O17 0.200875 0.844596 0.916435
O O18 0.131730 0.837725 0.782566
O O19 0.250000 0.425008 0.000000
O O20 0.500000 0.161276 0.733398
O O21 0.420055 0.250000 0.715175
#
# Coordination Sequence:
#
# PCOD8278370 Si02
#       8
#    16  16  16  16  16  16  16  16
#     4   8  12  21  38  61  84 115 159 193 225 270
#     4   8  13  22  41  62  84 119 158 192 224 269
#     4  10  21  36  50  67  91 123 155 190 243 287
#     4   8  17  34  52  67  89 114 143 191 246 287
#     4  10  18  31  47  66  96 129 160 192 227 276
#     4  10  20  32  44  65  97 129 159 189 228 277
#     4  11  20  32  51  75  88 116 156 201 235 276
#     4   9  16  26  40  59  89 126 157 191 232 270
#
# _framework density 16.361782999999999
#
# number of rings (size 3 to 8) (size 9 to 14) (size 15 to 20)
#    0.000    2.750    2.500    1.875    0.000    4.250 
#    0.000    0.625    0.000    2.250    0.000    0.000 
#    0.000    1.000    1.000    3.875    0.000    1.000 
#
# Total GULP energy -792994.984421 kJ/mol
# GULP energy per Si atom -12390.546632 kJ/mol
# Density = 1.632454 g / cm^3
# Si number density = 16.361783 Si / 1000 Ang^3
#
#
#
# Elastic Constant Matrix: (Units=GPa)
#
#
# Indices 1 2 3 4 5 6 
#
# 1 76.7547 25.3350 23.8866 0.0000 0.0000 0.0000
# 2 25.3350 49.8817 31.9025 0.0000 0.0000 0.0000
# 3 23.8866 31.9025 78.1483 0.0000 0.0000 0.0000
# 4 0.0000 0.0000 0.0000 5.1850 0.0000 0.0000
# 5 0.0000 0.0000 0.0000 0.0000 23.8980 0.0000
# 6 0.0000 0.0000 0.0000 0.0000 0.0000 18.6694
#
#
#
# Elastic Compliance Matrix: (Units=1/GPa)
#
#
# Indices 1 2 3 4 5 6 
#
# 1 0.015907 -0.006726 -0.002117 0.000000 0.000000 0.000000
# 2 -0.006726 0.029975 -0.010181 0.000000 0.000000 0.000000
# 3 -0.002117 -0.010181 0.017599 0.000000 0.000000 0.000000
# 4 0.000000 0.000000 0.000000 0.192863 0.000000 0.000000
# 5 0.000000 0.000000 0.000000 0.000000 0.041845 0.000000
# 6 0.000000 0.000000 0.000000 0.000000 0.000000 0.053563
#
#
# Mechanical properties :
#
#
# Convention : Reuss Voigt Hill
#
# Bulk Modulus (GPa) = 39.31574 40.78144 40.04859
# Shear Modulus (GPa) = 12.55408 17.79452 15.17430
#
# Velocity S-wave (km/s) = 2.77299 3.30140 3.04867
# Velocity P-wave (km/s) = 5.85950 6.28580 6.07639
#
# Compressibility (1/GPa) = 0.02543511
#
# Stress axis : x y z
#
# Youngs Moduli (GPa) = 62.86469 33.36146 56.82057
#
# Poissons Ratio (x) = 0.22438 0.12026
# Poissons Ratio (y) = 0.42280 0.57848
# Poissons Ratio (z) = 0.13306 0.33965
#
# Static dielectric constant tensor:
#      x y z
#    x 3.210160 0.000000 0.000000 
#    y 0.000000 2.852210 0.000000 
#    z 0.000000 0.000000 3.253310 
# 
# 
# High freq. dielectric constant tensor:
#      x y z
#    x 1.629920 0.000000 0.000000 
#    y 0.000000 1.574050 0.000000 
#    z 0.000000 0.000000 1.623230 
# 
# From -- ./inp_files/34559.got.cif
#   From: 2010.03.12/outbox.cif.g09.slc.cpg/sg67_18_cif.got.tgz:34559.got - 2010.04.10 22:41:39.
