data_PCOD8278341
_publ_section_title
;
Structure prediction by ZEFSAII (Michael W. Deem and Ramdas Pophale) SiO2 
 PCOD8278341
Probable space group: C M M A
;
_chemical_formula_sum "Si O2"
_cell_formula_units_Z 96
_cell_length_a 15.608502
_cell_length_b 20.859355
_cell_length_c 14.399830
_cell_angle_alpha 90.000000
_cell_angle_beta 90.000000
_cell_angle_gamma 90.000000
_cell_volume 4688.343944
_symmetry_space_group_name_H-M "C M M A"
_symmetry_group_IT_number 67
_symmetry_cell_setting 'orthorhombic'
loop_
_space_group_symop_operation_xyz
x,y,z
-x,1/2-y,z
x,-y,-z
-x,1/2+y,-z
-x,-y,-z
x,1/2+y,-z
-x,y,z
x,1/2-y,z
1/2+x,1/2+y,z
1/2-x,-y,z
1/2+x,1/2-y,-z
1/2-x,y,-z
1/2-x,1/2-y,-z
1/2+x,y,-z
1/2-x,1/2+y,z
1/2+x,-y,z
loop_
_atom_site_type_symbol
_atom_site_label
_atom_site_fract_x
_atom_site_fract_y
_atom_site_fract_z
Si Si1 0.099127 0.180156 0.439517
Si Si2 0.101669 0.560851 0.057069
Si Si3 0.397810 0.678646 0.060712
Si Si4 0.601351 0.524645 0.739659
Si Si5 0.656849 0.562775 0.545205
Si Si6 0.101851 0.621821 0.747848
O O1 0.138927 0.250000 0.465706
O O2 0.110601 0.129325 0.521855
O O3 0.141876 0.154623 0.344054
O O4 0.000000 0.189044 0.420381
O O5 0.128105 0.559560 0.164985
O O6 0.000000 0.558064 0.047672
O O7 0.139634 0.500000 0.000000
O O8 0.137381 0.627319 0.014167
O O9 0.500000 0.677702 0.061434
O O10 0.364087 0.750000 0.035769
O O11 0.362714 0.658670 0.162053
O O12 0.500000 0.530762 0.719029
O O13 0.655394 0.556815 0.656503
O O14 0.631218 0.451586 0.749904
O O15 0.609660 0.500000 0.500000
O O16 0.750000 0.565869 0.500000
O O17 0.000000 0.624723 0.746665
#
# Coordination Sequence:
#
# PCOD8278341 Si02
#       6
#    16  16  16  16  16  16
#     4  10  20  34  54  80 106 133 174 229 284 333
#     4   9  15  25  42  69 103 137 171 209 261 320
#     4   9  15  23  38  66 106 142 168 203 256 314
#     4  10  18  30  52  78 105 139 183 228 269 319
#     4  11  23  37  53  75 104 144 184 228 272 325
#     4   9  15  25  45  74 105 134 167 216 266 311
#
# _framework density 20.476312
#
# number of rings (size 3 to 8) (size 9 to 14) (size 15 to 20)
#    0.000    2.333    3.333    1.000    0.000    3.000 
#    0.000    0.833    0.000    3.000    0.000    8.167 
#    0.000    2.667    0.000    0.000    0.000    0.167 
#
# Total GULP energy -594952.464564 kJ/mol
# GULP energy per Si atom -12394.843012 kJ/mol
# Density = 2.042971 g / cm^3
# Si number density = 20.476312 Si / 1000 Ang^3
#
#
#
# Elastic Constant Matrix: (Units=GPa)
#
#
# Indices 1 2 3 4 5 6 
#
# 1 17.3748 9.0394 14.9883 0.0000 0.0000 0.0000
# 2 9.0394 203.7311 99.0173 0.0000 0.0000 0.0000
# 3 14.9883 99.0173 173.6971 0.0000 0.0000 0.0000
# 4 0.0000 0.0000 0.0000 32.6313 0.0000 0.0000
# 5 0.0000 0.0000 0.0000 0.0000 14.6926 0.0000
# 6 0.0000 0.0000 0.0000 0.0000 0.0000 6.7974
#
#
#
# Elastic Compliance Matrix: (Units=1/GPa)
#
#
# Indices 1 2 3 4 5 6 
#
# 1 0.062190 -0.000209 -0.005247 0.000000 0.000000 0.000000
# 2 -0.000209 0.006790 -0.003853 0.000000 0.000000 0.000000
# 3 -0.005247 -0.003853 0.008406 0.000000 0.000000 0.000000
# 4 0.000000 0.000000 0.000000 0.030645 0.000000 0.000000
# 5 0.000000 0.000000 0.000000 0.000000 0.068061 0.000000
# 6 0.000000 0.000000 0.000000 0.000000 0.000000 0.147114
#
#
# Mechanical properties :
#
#
# Convention : Reuss Voigt Hill
#
# Bulk Modulus (GPa) = 17.01602 71.21032 44.11317
# Shear Modulus (GPa) = 13.83453 28.94149 21.38801
#
# Velocity S-wave (km/s) = 2.60212 3.76362 3.23542
# Velocity P-wave (km/s) = 4.16607 7.33068 5.96217
#
# Compressibility (1/GPa) = 0.05876814
#
# Stress axis : x y z
#
# Youngs Moduli (GPa) = 16.07984 147.27035 118.95946
#
# Poissons Ratio (x) = 0.03079 0.62420
# Poissons Ratio (y) = 0.00336 0.45832
# Poissons Ratio (z) = 0.08437 0.56740
#
# Static dielectric constant tensor:
#      x y z
#    x 3.026470 0.000000 0.000000 
#    y 0.000000 4.223700 0.000000 
#    z 0.000000 0.000000 3.810680 
# 
# 
# High freq. dielectric constant tensor:
#      x y z
#    x 1.738300 0.000000 0.000000 
#    y 0.000000 1.806080 0.000000 
#    z 0.000000 0.000000 1.803570 
# 
# From -- ./inp_files/20867.got.cif
#   From: 2010.03.12/outbox.cif.g09.slc.cpg/sg67_11_cif.got.tgz:20867.got - 2010.04.10 22:41:39.
