data_PCOD8278519
_publ_section_title
;
Structure prediction by ZEFSAII (Michael W. Deem and Ramdas Pophale) SiO2 
 PCOD8278519
Probable space group: C M M A
;
_chemical_formula_sum "Si O2"
_cell_formula_units_Z 120
_cell_length_a 8.796436
_cell_length_b 26.135439
_cell_length_c 28.149806
_cell_angle_alpha 90.000000
_cell_angle_beta 90.000000
_cell_angle_gamma 90.000000
_cell_volume 6471.604269
_symmetry_space_group_name_H-M "C M M A"
_symmetry_group_IT_number 67
_symmetry_cell_setting 'orthorhombic'
loop_
_space_group_symop_operation_xyz
x,y,z
-x,1/2-y,z
x,-y,-z
-x,1/2+y,-z
-x,-y,-z
x,1/2+y,-z
-x,y,z
x,1/2-y,z
1/2+x,1/2+y,z
1/2-x,-y,z
1/2+x,1/2-y,-z
1/2-x,y,-z
1/2-x,1/2-y,-z
1/2+x,y,-z
1/2-x,1/2+y,z
1/2+x,-y,z
loop_
_atom_site_type_symbol
_atom_site_label
_atom_site_fract_x
_atom_site_fract_y
_atom_site_fract_z
Si Si1 0.819462 0.146557 0.448227
Si Si2 0.678239 0.808244 0.951940
Si Si3 0.817920 0.250000 0.552572
Si Si4 0.178481 0.554532 0.620587
Si Si5 0.672661 0.153031 0.859684
Si Si6 0.674418 0.450543 0.807831
Si Si7 0.677905 0.593294 0.716530
Si Si8 0.174560 0.693189 0.231463
O O1 0.750000 0.137694 0.500000
O O2 0.745817 0.197592 0.423610
O O3 0.773164 0.097061 0.417769
O O4 0.000000 0.153918 0.451639
O O5 0.500000 0.812096 0.957017
O O6 0.733741 0.750000 0.944802
O O7 0.729444 0.840385 0.906718
O O8 0.750000 0.831373 0.000000
O O9 0.750000 0.250000 0.500000
O O10 0.000000 0.250000 0.553101
O O11 0.250000 0.500000 0.606751
O O12 0.230797 0.574252 0.671473
O O13 0.000000 0.546763 0.621772
O O14 0.500000 0.168498 0.870473
O O15 0.689665 0.094113 0.845888
O O16 0.729261 0.188161 0.816498
O O17 0.500000 0.459307 0.793176
O O18 0.750000 0.500000 0.832338
O O19 0.773355 0.440634 0.760968
O O20 0.500000 0.586590 0.706586
O O21 0.722537 0.652411 0.728165
O O22 0.200111 0.750000 0.252575
O O23 0.000000 0.683669 0.217073
#
# Coordination Sequence:
#
# PCOD8278519 Si02
#       8
#    16  16   8  16  16  16  16  16
#     4  10  21  38  60  85 114 145 181 224 271 323
#     4  10  20  33  50  73 102 136 172 209 251 302
#     4  10  18  32  58  86 112 142 176 218 262 312
#     4  11  24  40  58  80 110 145 182 225 272 325
#     4  10  20  32  49  75 104 134 170 212 259 311
#     4  10  20  34  53  76 102 132 172 217 262 311
#     4  10  20  35  55  77 106 141 178 219 264 316
#     4   9  18  33  52  75 105 139 175 215 258 310
#
# _framework density 18.542542999999998
#
# number of rings (size 3 to 8) (size 9 to 14) (size 15 to 20)
#    0.000    2.000    0.000    4.600    0.000    7.200 
#    1.200    1.333    0.000    0.400    0.000    2.800 
#    0.000    0.000    0.000    0.000    0.000    0.000 
#
# Total GULP energy -744025.437539 kJ/mol
# GULP energy per Si atom -12400.423959 kJ/mol
# Density = 1.850034 g / cm^3
# Si number density = 18.542543 Si / 1000 Ang^3
#
#
#
# Elastic Constant Matrix: (Units=GPa)
#
#
# Indices 1 2 3 4 5 6 
#
# 1 78.5152 53.0927 28.4899 0.0000 0.0000 0.0000
# 2 53.0927 141.2337 47.8741 0.0000 0.0000 0.0000
# 3 28.4899 47.8741 75.1832 0.0000 0.0000 0.0000
# 4 0.0000 0.0000 0.0000 11.2265 0.0000 0.0000
# 5 0.0000 0.0000 0.0000 0.0000 30.9716 0.0000
# 6 0.0000 0.0000 0.0000 0.0000 0.0000 30.2307
#
#
#
# Elastic Compliance Matrix: (Units=1/GPa)
#
#
# Indices 1 2 3 4 5 6 
#
# 1 0.017640 -0.005567 -0.003140 0.000000 0.000000 0.000000
# 2 -0.005567 0.010786 -0.004759 0.000000 0.000000 0.000000
# 3 -0.003140 -0.004759 0.017521 0.000000 0.000000 0.000000
# 4 0.000000 0.000000 0.000000 0.089075 0.000000 0.000000
# 5 0.000000 0.000000 0.000000 0.000000 0.032288 0.000000
# 6 0.000000 0.000000 0.000000 0.000000 0.000000 0.033079
#
#
# Mechanical properties :
#
#
# Convention : Reuss Voigt Hill
#
# Bulk Modulus (GPa) = 52.58643 61.53838 57.06241
# Shear Modulus (GPa) = 21.39876 25.51745 23.45811
#
# Velocity S-wave (km/s) = 3.40080 3.71368 3.56068
# Velocity P-wave (km/s) = 6.62133 7.18668 6.90979
#
# Compressibility (1/GPa) = 0.01901631
#
# Stress axis : x y z
#
# Youngs Moduli (GPa) = 56.68895 92.71010 57.07502
#
# Poissons Ratio (x) = 0.51612 0.17920
# Poissons Ratio (y) = 0.31559 0.27161
# Poissons Ratio (z) = 0.17798 0.44119
#
# Static dielectric constant tensor:
#      x y z
#    x 3.535360 0.000000 0.000000 
#    y 0.000000 3.779560 0.000000 
#    z 0.000000 0.000000 3.208170 
# 
# 
# High freq. dielectric constant tensor:
#      x y z
#    x 1.735630 0.000000 0.000000 
#    y 0.000000 1.728040 0.000000 
#    z 0.000000 0.000000 1.696450 
# 
# From -- ./inp_files/43905.got.cif
#   From: 2010.03.12/outbox.cif.g09.slc.cpg/sg67_22_cif.got.tgz:43905.got - 2010.04.10 22:41:39.
