data_PCOD8278458
_publ_section_title
;
Structure prediction by ZEFSAII (Michael W. Deem and Ramdas Pophale) SiO2 
 PCOD8278458
Probable space group: C M M A
;
_chemical_formula_sum "Si O2"
_cell_formula_units_Z 96
_cell_length_a 18.764635
_cell_length_b 8.641759
_cell_length_c 31.145454
_cell_angle_alpha 90.000000
_cell_angle_beta 90.000000
_cell_angle_gamma 90.000000
_cell_volume 5050.529796
_symmetry_space_group_name_H-M "C M M A"
_symmetry_group_IT_number 67
_symmetry_cell_setting 'orthorhombic'
loop_
_space_group_symop_operation_xyz
x,y,z
-x,1/2-y,z
x,-y,-z
-x,1/2+y,-z
-x,-y,-z
x,1/2+y,-z
-x,y,z
x,1/2-y,z
1/2+x,1/2+y,z
1/2-x,-y,z
1/2+x,1/2-y,-z
1/2-x,y,-z
1/2-x,1/2-y,-z
1/2+x,y,-z
1/2-x,1/2+y,z
1/2+x,-y,z
loop_
_atom_site_type_symbol
_atom_site_label
_atom_site_fract_x
_atom_site_fract_y
_atom_site_fract_z
Si Si1 0.670965 0.933333 0.292068
Si Si2 0.915252 0.423768 0.956775
Si Si3 0.916131 0.071722 0.454913
Si Si4 0.172220 0.931127 0.205585
Si Si5 0.171743 0.067844 0.621069
Si Si6 0.916095 0.572603 0.868805
O O1 0.669827 0.750000 0.293123
O O2 0.750000 0.000000 0.291312
O O3 0.634910 0.994038 0.248087
O O4 0.635131 0.998301 0.335618
O O5 0.885405 0.250000 0.952529
O O6 0.889603 0.523175 0.916024
O O7 0.000000 0.422221 0.959231
O O8 0.883650 0.500000 0.000000
O O9 0.892140 0.250000 0.452915
O O10 0.000000 0.053662 0.448469
O O11 0.891669 0.000000 0.500000
O O12 0.878451 0.974217 0.418204
O O13 0.180064 0.750000 0.212967
O O14 0.250000 0.000000 0.196519
O O15 0.121746 0.964287 0.165600
O O16 0.178277 0.250000 0.626005
O O17 0.250000 0.000000 0.613072
O O18 0.894527 0.750000 0.861027
O O19 0.000000 0.546632 0.864234
#
# Coordination Sequence:
#
# PCOD8278458 Si02
#       6
#    16  16  16  16  16  16
#     4  10  18  32  53  77 105 136 173 214 259 308
#     4   9  16  27  45  70  99 132 170 211 256 306
#     4  10  21  38  58  80 108 142 178 215 259 312
#     4  11  21  35  55  78 105 138 177 215 256 310
#     4  11  21  35  56  82 110 138 174 218 263 307
#     4  10  20  34  52  76 106 137 171 215 264 309
#
# _framework density 19.007906999999999
#
# number of rings (size 3 to 8) (size 9 to 14) (size 15 to 20)
#    0.000    1.833    0.000    8.000    0.000    4.333 
#    0.000    2.500    0.000    5.500    0.000    3.500 
#    0.000    0.000    0.000    0.000    0.000    0.000 
#
# Total GULP energy -595213.437512 kJ/mol
# GULP energy per Si atom -12400.279948 kJ/mol
# Density = 1.896464 g / cm^3
# Si number density = 19.007907 Si / 1000 Ang^3
#
#
#
# Elastic Constant Matrix: (Units=GPa)
#
#
# Indices 1 2 3 4 5 6 
#
# 1 25.2905 27.1655 36.7896 0.0000 0.0000 0.0000
# 2 27.1655 170.0671 60.3037 0.0000 0.0000 0.0000
# 3 36.7896 60.3037 167.8368 0.0000 0.0000 0.0000
# 4 0.0000 0.0000 0.0000 41.9771 0.0000 0.0000
# 5 0.0000 0.0000 0.0000 0.0000 20.2440 0.0000
# 6 0.0000 0.0000 0.0000 0.0000 0.0000 23.2705
#
#
#
# Elastic Compliance Matrix: (Units=1/GPa)
#
#
# Indices 1 2 3 4 5 6 
#
# 1 0.062832 -0.005905 -0.011651 0.000000 0.000000 0.000000
# 2 -0.005905 0.007294 -0.001326 0.000000 0.000000 0.000000
# 3 -0.011651 -0.001326 0.008989 0.000000 0.000000 0.000000
# 4 0.000000 0.000000 0.000000 0.023823 0.000000 0.000000
# 5 0.000000 0.000000 0.000000 0.000000 0.049397 0.000000
# 6 0.000000 0.000000 0.000000 0.000000 0.000000 0.042973
#
#
# Mechanical properties :
#
#
# Convention : Reuss Voigt Hill
#
# Bulk Modulus (GPa) = 24.18416 67.96798 46.07607
# Shear Modulus (GPa) = 20.25490 33.02735 26.64112
#
# Velocity S-wave (km/s) = 3.26790 4.17293 3.74783
# Velocity P-wave (km/s) = 5.19516 7.68460 6.55907
#
# Compressibility (1/GPa) = 0.04134938
#
# Stress axis : x y z
#
# Youngs Moduli (GPa) = 15.91555 137.10805 111.25297
#
# Poissons Ratio (x) = 0.80963 1.29620
# Poissons Ratio (y) = 0.09398 0.14754
# Poissons Ratio (z) = 0.18543 0.18183
#
# Static dielectric constant tensor:
#      x y z
#    x 2.992190 0.000000 0.000000 
#    y 0.000000 3.663730 0.000000 
#    z 0.000000 0.000000 4.126510 
# 
# 
# High freq. dielectric constant tensor:
#      x y z
#    x 1.684500 0.000000 0.000000 
#    y 0.000000 1.762240 0.000000 
#    z 0.000000 0.000000 1.763920 
# 
# From -- ./inp_files/44609.got.cif
#   From: 2010.03.12/outbox.cif.g09.slc.cpg/sg67_23_cif.got.tgz:44609.got - 2010.04.10 22:41:39.
