data_PCOD8278212
_publ_section_title
;
Structure prediction by ZEFSAII (Michael W. Deem and Ramdas Pophale) SiO2 
 PCOD8278212
Probable space group: C M M A
;
_chemical_formula_sum "Si O2"
_cell_formula_units_Z 80
_cell_length_a 15.845003
_cell_length_b 17.615805
_cell_length_c 15.422147
_cell_angle_alpha 90.000000
_cell_angle_beta 90.000000
_cell_angle_gamma 90.000000
_cell_volume 4304.667965
_symmetry_space_group_name_H-M "C M M A"
_symmetry_group_IT_number 67
_symmetry_cell_setting 'orthorhombic'
loop_
_space_group_symop_operation_xyz
x,y,z
-x,1/2-y,z
x,-y,-z
-x,1/2+y,-z
-x,-y,-z
x,1/2+y,-z
-x,y,z
x,1/2-y,z
1/2+x,1/2+y,z
1/2-x,-y,z
1/2+x,1/2-y,-z
1/2-x,y,-z
1/2-x,1/2-y,-z
1/2+x,y,-z
1/2-x,1/2+y,z
1/2+x,-y,z
loop_
_atom_site_type_symbol
_atom_site_label
_atom_site_fract_x
_atom_site_fract_y
_atom_site_fract_z
Si Si1 0.649445 0.414891 0.993863
Si Si2 0.857546 0.122701 0.822981
Si Si3 0.000000 0.479547 0.599653
Si Si4 0.668961 0.836101 0.180500
Si Si5 0.658375 0.020809 0.710935
Si Si6 0.500000 0.668516 0.695321
O O1 0.624960 0.369236 0.906845
O O2 0.612852 0.500000 0.000000
O O3 0.750000 0.417466 0.000000
O O4 0.609291 0.373231 0.078042
O O5 0.769640 0.166758 0.823926
O O6 0.918841 0.163119 0.756299
O O7 0.849120 0.034087 0.794836
O O8 0.000000 0.500000 0.500000
O O9 0.914853 0.511403 0.641191
O O10 0.000000 0.389411 0.615596
O O11 0.635739 0.750000 0.196789
O O12 0.646877 0.892038 0.259742
O O13 0.750000 0.000000 0.668498
O O14 0.500000 0.750000 0.649635
#
# Coordination Sequence:
#
# PCOD8278212 Si02
#       6
#    16  16   8  16  16   8
#     4   9  15  26  45  68 101 142 180 218 256 295
#     4   9  17  30  49  70 101 143 179 212 257 306
#     4  10  22  40  61  83 102 132 172 204 262 344
#     4  10  18  28  48  76 104 138 182 220 252 296
#     4   9  18  35  56  77 105 141 173 210 260 316
#     4  10  20  34  52  76 103 127 166 223 268 301
#
# _framework density 18.584475999999999
#
# number of rings (size 3 to 8) (size 9 to 14) (size 15 to 20)
#    0.000    2.600    2.000    0.600    0.000    4.800 
#    0.000    3.000    0.000    0.000    0.000    8.400 
#    0.000    0.000    0.000    0.000    0.000    0.000 
#
# Total GULP energy -495624.053902 kJ/mol
# GULP energy per Si atom -12390.601348 kJ/mol
# Density = 1.854218 g / cm^3
# Si number density = 18.584476 Si / 1000 Ang^3
#
#
#
# Elastic Constant Matrix: (Units=GPa)
#
#
# Indices 1 2 3 4 5 6 
#
# 1 73.4319 27.9196 47.6610 0.0000 0.0000 0.0000
# 2 27.9196 159.2480 55.2301 0.0000 0.0000 0.0000
# 3 47.6610 55.2301 120.2356 0.0000 0.0000 0.0000
# 4 0.0000 0.0000 0.0000 13.6880 0.0000 0.0000
# 5 0.0000 0.0000 0.0000 0.0000 -10.2223 0.0000
# 6 0.0000 0.0000 0.0000 0.0000 0.0000 10.7706
#
#
#
# Elastic Compliance Matrix: (Units=1/GPa)
#
#
# Indices 1 2 3 4 5 6 
#
# 1 0.018427 -0.000829 -0.006923 0.000000 0.000000 0.000000
# 2 -0.000829 0.007507 -0.003119 0.000000 0.000000 0.000000
# 3 -0.006923 -0.003119 0.012494 0.000000 0.000000 0.000000
# 4 0.000000 0.000000 0.000000 0.073057 0.000000 0.000000
# 5 0.000000 0.000000 0.000000 0.000000 -0.097825 0.000000
# 6 0.000000 0.000000 0.000000 0.000000 0.000000 0.092846
#
#
# Mechanical properties :
#
#
# Convention : Reuss Voigt Hill
#
# Bulk Modulus (GPa) = 59.93930 68.28188 64.11059
# Shear Modulus (GPa) = 37.36608 17.65425 27.51016
#
# Velocity S-wave (km/s) = 4.48884 3.08546 3.85161
# Velocity P-wave (km/s) = 7.69342 7.03666 7.37235
#
# Compressibility (1/GPa) = 0.01668355
#
# Stress axis : x y z
#
# Youngs Moduli (GPa) = 54.26796 133.21223 80.03633
#
# Poissons Ratio (x) = 0.11050 0.55412
# Poissons Ratio (y) = 0.04502 0.24967
# Poissons Ratio (z) = 0.37572 0.41555
#
# Static dielectric constant tensor:
#      x y z
#    x 3.306250 0.000000 0.000000 
#    y 0.000000 3.431200 0.000000 
#    z 0.000000 0.000000 3.073330 
# 
# 
# High freq. dielectric constant tensor:
#      x y z
#    x 1.703480 0.000000 0.000000 
#    y 0.000000 1.721680 0.000000 
#    z 0.000000 0.000000 1.684870 
# 
# From -- ./inp_files/28424.got.cif
#   From: 2010.03.12/outbox.cif.g09.slc.cpg/sg67_15_cif.got.tgz:28424.got - 2010.04.10 22:41:39.
