data_PCOD8278506
_publ_section_title
;
Structure prediction by ZEFSAII (Michael W. Deem and Ramdas Pophale) SiO2 
 PCOD8278506
Probable space group: C M M A
;
_chemical_formula_sum "Si O2"
_cell_formula_units_Z 68
_cell_length_a 19.085644
_cell_length_b 20.656488
_cell_length_c 9.613295
_cell_angle_alpha 90.000000
_cell_angle_beta 90.000000
_cell_angle_gamma 90.000000
_cell_volume 3789.968264
_symmetry_space_group_name_H-M "C M M A"
_symmetry_group_IT_number 67
_symmetry_cell_setting 'orthorhombic'
loop_
_space_group_symop_operation_xyz
x,y,z
-x,1/2-y,z
x,-y,-z
-x,1/2+y,-z
-x,-y,-z
x,1/2+y,-z
-x,y,z
x,1/2-y,z
1/2+x,1/2+y,z
1/2-x,-y,z
1/2+x,1/2-y,-z
1/2-x,y,-z
1/2-x,1/2-y,-z
1/2+x,y,-z
1/2-x,1/2+y,z
1/2+x,-y,z
loop_
_atom_site_type_symbol
_atom_site_label
_atom_site_fract_x
_atom_site_fract_y
_atom_site_fract_z
Si Si1 0.500000 0.914367 0.334806
Si Si2 0.650815 0.103488 0.362731
Si Si3 0.242162 0.324094 0.844493
Si Si4 0.750000 0.000000 0.500000
Si Si5 0.000000 0.053057 0.653597
Si Si6 0.872247 0.175626 0.356313
O O1 0.500000 0.944959 0.487268
O O2 0.566588 0.870629 0.301392
O O3 0.500000 0.984492 0.259475
O O4 0.681052 0.136564 0.227145
O O5 0.572532 0.088415 0.309163
O O6 0.653488 0.153062 0.492272
O O7 0.697775 0.041254 0.402598
O O8 0.218365 0.250000 0.851287
O O9 0.312553 0.332548 0.757006
O O10 0.250000 0.351934 0.000000
O O11 0.897699 0.250000 0.367294
#
# Coordination Sequence:
#
# PCOD8278506 Si02
#       6
#     8  16  16   4   8  16
#     4   9  17  32  51  80 108 140 175 223 272 332
#     4  11  20  35  56  83 111 145 184 224 272 331
#     4  10  21  37  56  80 110 143 183 232 278 322
#     4  12  20  30  60  84 108 150 182 222 268 326
#     4   9  20  32  53  76 115 143 177 218 278 319
#     4  10  18  32  56  83 107 137 178 231 277 323
#
# _framework density 17.942101999999998
#
# number of rings (size 3 to 8) (size 9 to 14) (size 15 to 20)
#    0.000    1.882    2.353    3.882    0.000    1.882 
#    0.000    3.529    0.000    4.235    0.000    0.000 
#    0.000    0.000    0.000    0.000    0.000    0.000 
#
# Total GULP energy -421325.393088 kJ/mol
# GULP energy per Si atom -12391.923326 kJ/mol
# Density = 1.790126 g / cm^3
# Si number density = 17.942102 Si / 1000 Ang^3
#
#
#
# Elastic Constant Matrix: (Units=GPa)
#
#
# Indices 1 2 3 4 5 6 
#
# 1 133.0707 69.6360 56.5513 0.0000 0.0000 0.0000
# 2 69.6360 112.4870 53.0260 0.0000 0.0000 0.0000
# 3 56.5513 53.0260 107.2303 0.0000 0.0000 0.0000
# 4 0.0000 0.0000 0.0000 14.8311 0.0000 0.0000
# 5 0.0000 0.0000 0.0000 0.0000 4.7659 0.0000
# 6 0.0000 0.0000 0.0000 0.0000 0.0000 -189.5818
#
#
#
# Elastic Compliance Matrix: (Units=1/GPa)
#
#
# Indices 1 2 3 4 5 6 
#
# 1 0.012031 -0.005812 -0.003471 0.000000 0.000000 0.000000
# 2 -0.005812 0.014400 -0.004056 0.000000 0.000000 0.000000
# 3 -0.003471 -0.004056 0.013162 0.000000 0.000000 0.000000
# 4 0.000000 0.000000 0.000000 0.067426 0.000000 0.000000
# 5 0.000000 0.000000 0.000000 0.000000 0.209822 0.000000
# 6 0.000000 0.000000 0.000000 0.000000 0.000000 -0.005275
#
#
# Mechanical properties :
#
#
# Convention : Reuss Voigt Hill
#
# Bulk Modulus (GPa) = 77.42561 79.02383 78.22472
# Shear Modulus (GPa) = 14.59648 -22.42531 -3.91441
#
# Velocity S-wave (km/s) = 2.85534 -3.53919 -1.47866
# Velocity P-wave (km/s) = 7.35645 5.23816 6.38575
#
# Compressibility (1/GPa) = 0.01291562
#
# Stress axis : x y z
#
# Youngs Moduli (GPa) = 83.11717 69.44656 75.97709
#
# Poissons Ratio (x) = 0.40361 0.26372
# Poissons Ratio (y) = 0.48306 0.30814
# Poissons Ratio (z) = 0.28851 0.28165
#
# Static dielectric constant tensor:
#      x y z
#    x 3.772970 0.000000 0.000000 
#    y 0.000000 3.637750 0.000000 
#    z 0.000000 0.000000 3.042520 
# 
# 
# High freq. dielectric constant tensor:
#      x y z
#    x 1.707230 0.000000 0.000000 
#    y 0.000000 1.709040 0.000000 
#    z 0.000000 0.000000 1.655530 
# 
# From -- ./inp_files/9522.got.cif
#   From: 2010.03.12/outbox.cif.g09.slc.cpg/sg67_5_cif.got.tgz:9522.got - 2010.04.10 22:41:39.
