data_PCOD8278879
_publ_section_title
;
Structure prediction by ZEFSAII (Michael W. Deem and Ramdas Pophale) SiO2 
 PCOD8278879
Probable space group: C M M A
;
_chemical_formula_sum "Si O2"
_cell_formula_units_Z 120
_cell_length_a 26.949003
_cell_length_b 9.065561
_cell_length_c 29.080692
_cell_angle_alpha 90.000000
_cell_angle_beta 90.000000
_cell_angle_gamma 90.000000
_cell_volume 7104.640774
_symmetry_space_group_name_H-M "C M M A"
_symmetry_group_IT_number 67
_symmetry_cell_setting 'orthorhombic'
loop_
_space_group_symop_operation_xyz
x,y,z
-x,1/2-y,z
x,-y,-z
-x,1/2+y,-z
-x,-y,-z
x,1/2+y,-z
-x,y,z
x,1/2-y,z
1/2+x,1/2+y,z
1/2-x,-y,z
1/2+x,1/2-y,-z
1/2-x,y,-z
1/2-x,1/2-y,-z
1/2+x,y,-z
1/2-x,1/2+y,z
1/2+x,-y,z
loop_
_atom_site_type_symbol
_atom_site_label
_atom_site_fract_x
_atom_site_fract_y
_atom_site_fract_z
Si Si1 0.442742 0.422767 0.635640
Si Si2 0.391559 0.924369 0.049585
Si Si3 0.199968 0.425398 0.215662
Si Si4 0.648699 0.424037 0.133244
Si Si5 0.445437 0.581533 0.808923
Si Si6 0.897025 0.922488 0.729743
Si Si7 0.559076 0.083996 0.455547
Si Si8 0.000000 0.918175 0.953078
O O1 0.500000 0.464052 0.646191
O O2 0.437528 0.250000 0.626223
O O3 0.407959 0.475871 0.677858
O O4 0.422221 0.505533 0.590770
O O5 0.380523 0.750000 0.045634
O O6 0.447162 0.954331 0.071417
O O7 0.351080 0.000753 0.082985
O O8 0.386115 0.000000 0.000000
O O9 0.205669 0.250000 0.210217
O O10 0.250000 0.500000 0.234581
O O11 0.188731 0.497124 0.165902
O O12 0.157863 0.468145 0.252987
O O13 0.660280 0.250000 0.129800
O O14 0.594441 0.460227 0.152934
O O15 0.500000 0.548042 0.829464
O O16 0.439438 0.750000 0.794172
O O17 0.438491 0.489528 0.762700
O O18 0.904461 0.750000 0.732815
O O19 0.500000 0.080737 0.457106
O O20 0.579545 0.250000 0.456206
O O21 0.580845 0.000000 0.500000
O O22 0.000000 0.750000 0.967378
O O23 0.000000 0.000000 0.000000
#
# Coordination Sequence:
#
# PCOD8278879 Si02
#       8
#    16  16  16  16  16  16  16   8
#     4   9  16  26  41  62  91 126 160 194 232 272
#     4  10  19  32  48  69  96 127 160 194 229 267
#     4  10  20  36  56  75  95 119 151 192 238 286
#     4  10  20  33  50  72  96 124 157 191 230 275
#     4   9  18  30  43  63  93 126 156 188 225 267
#     4   9  18  31  47  68  92 120 155 192 232 281
#     4   9  16  25  37  55  82 120 165 205 237 268
#     4   8  16  28  42  62  90 124 160 190 220 256
#
# _framework density 16.890367999999999
#
# number of rings (size 3 to 8) (size 9 to 14) (size 15 to 20)
#    0.000    2.667    0.000    2.000    0.933    4.533 
#    0.000    1.333    0.000    0.400    0.000    2.800 
#    0.000    0.533    0.000    6.133    0.000    2.133 
#
# Total GULP energy -743644.052363 kJ/mol
# GULP energy per Si atom -12394.067539 kJ/mol
# Density = 1.685193 g / cm^3
# Si number density = 16.890368 Si / 1000 Ang^3
#
#
#
# Elastic Constant Matrix: (Units=GPa)
#
#
# Indices 1 2 3 4 5 6 
#
# 1 54.0058 23.0980 26.8805 0.0000 0.0000 0.0000
# 2 23.0980 69.5834 46.6694 0.0000 0.0000 0.0000
# 3 26.8805 46.6694 107.6711 0.0000 0.0000 0.0000
# 4 0.0000 0.0000 0.0000 30.2663 0.0000 0.0000
# 5 0.0000 0.0000 0.0000 0.0000 13.7507 0.0000
# 6 0.0000 0.0000 0.0000 0.0000 0.0000 20.7861
#
#
#
# Elastic Compliance Matrix: (Units=1/GPa)
#
#
# Indices 1 2 3 4 5 6 
#
# 1 0.022401 -0.005196 -0.003341 0.000000 0.000000 0.000000
# 2 -0.005196 0.021466 -0.008007 0.000000 0.000000 0.000000
# 3 -0.003341 -0.008007 0.013592 0.000000 0.000000 0.000000
# 4 0.000000 0.000000 0.000000 0.033040 0.000000 0.000000
# 5 0.000000 0.000000 0.000000 0.000000 0.072723 0.000000
# 6 0.000000 0.000000 0.000000 0.000000 0.000000 0.048109
#
#
# Mechanical properties :
#
#
# Convention : Reuss Voigt Hill
#
# Bulk Modulus (GPa) = 41.02901 47.17288 44.10094
# Shear Modulus (GPa) = 19.79853 21.93478 20.86665
#
# Velocity S-wave (km/s) = 3.42742 3.60760 3.51866
# Velocity P-wave (km/s) = 6.32511 6.73368 6.53259
#
# Compressibility (1/GPa) = 0.02437300
#
# Stress axis : x y z
#
# Youngs Moduli (GPa) = 44.64018 46.58437 73.57103
#
# Poissons Ratio (x) = 0.24203 0.24577
# Poissons Ratio (y) = 0.23193 0.58911
# Poissons Ratio (z) = 0.14913 0.37302
#
# Static dielectric constant tensor:
#      x y z
#    x 3.145380 0.000000 0.000000 
#    y 0.000000 3.200300 0.000000 
#    z 0.000000 0.000000 3.159090 
# 
# 
# High freq. dielectric constant tensor:
#      x y z
#    x 1.610200 0.000000 0.000000 
#    y 0.000000 1.662540 0.000000 
#    z 0.000000 0.000000 1.643500 
# 
# From -- ./inp_files/45028.got.cif
#   From: 2010.03.12/outbox.cif.g09.slc.cpg/sg67_23_cif.got.tgz:45028.got - 2010.04.10 22:41:39.
