data_PCOD8278469
_publ_section_title
;
Structure prediction by ZEFSAII (Michael W. Deem and Ramdas Pophale) SiO2 
 PCOD8278469
Probable space group: C M M A
;
_chemical_formula_sum "Si O2"
_cell_formula_units_Z 120
_cell_length_a 9.051293
_cell_length_b 29.216940
_cell_length_c 25.042818
_cell_angle_alpha 90.000000
_cell_angle_beta 90.000000
_cell_angle_gamma 90.000000
_cell_volume 6622.600379
_symmetry_space_group_name_H-M "C M M A"
_symmetry_group_IT_number 67
_symmetry_cell_setting 'orthorhombic'
loop_
_space_group_symop_operation_xyz
x,y,z
-x,1/2-y,z
x,-y,-z
-x,1/2+y,-z
-x,-y,-z
x,1/2+y,-z
-x,y,z
x,1/2-y,z
1/2+x,1/2+y,z
1/2-x,-y,z
1/2+x,1/2-y,-z
1/2-x,y,-z
1/2-x,1/2-y,-z
1/2+x,y,-z
1/2-x,1/2+y,z
1/2+x,-y,z
loop_
_atom_site_type_symbol
_atom_site_label
_atom_site_fract_x
_atom_site_fract_y
_atom_site_fract_z
Si Si1 0.833571 0.250000 0.446217
Si Si2 0.165227 0.455819 0.165064
Si Si3 0.173198 0.849221 0.557386
Si Si4 0.826221 0.198659 0.745208
Si Si5 0.175212 0.639538 0.155259
Si Si6 0.834698 0.043517 0.290741
Si Si7 0.826921 0.802114 0.053308
Si Si8 0.173498 0.373797 0.659684
O O1 0.750000 0.250000 0.500000
O O2 0.798510 0.298049 0.417405
O O3 0.000000 0.250000 0.465137
O O4 0.250000 0.500000 0.140708
O O5 0.251729 0.409883 0.150608
O O6 0.153494 0.462084 0.227981
O O7 0.000000 0.453668 0.140596
O O8 0.250000 0.856340 0.500000
O O9 0.249048 0.880435 0.602045
O O10 0.000000 0.860671 0.551550
O O11 0.756445 0.250000 0.745085
O O12 0.762643 0.167987 0.793786
O O13 0.790341 0.174483 0.688598
O O14 0.000000 0.202863 0.753716
O O15 0.223138 0.667445 0.103060
O O16 0.000000 0.632863 0.159898
O O17 0.736813 0.087665 0.301968
O O18 0.000000 0.047435 0.315504
O O19 0.750000 0.000000 0.316074
O O20 0.777410 0.750000 0.064927
O O21 0.000000 0.805321 0.044185
O O22 0.750000 0.821158 0.000000
O O23 0.000000 0.380612 0.651946
#
# Coordination Sequence:
#
# PCOD8278469 Si02
#       8
#     8  16  16  16  16  16  16  16
#     4   8  16  30  48  68  92 126 168 214 257 296
#     4  10  20  33  52  77 106 137 173 216 265 317
#     4  10  20  35  52  72  99 134 176 221 265 310
#     4   9  18  31  48  74 107 142 178 214 254 308
#     4  10  18  32  54  77 106 142 181 221 265 314
#     4  10  20  35  55  78 106 136 172 216 263 314
#     4   9  18  32  52  78 107 144 187 229 267 308
#     4  11  21  33  53  79 107 139 175 214 261 314
#
# _framework density 18.119769999999999
#
# number of rings (size 3 to 8) (size 9 to 14) (size 15 to 20)
#    0.000    2.267    1.333    2.000    0.933    3.733 
#    0.000    0.000    0.000    3.600    0.000    5.600 
#    0.000    0.000    0.000    0.000    0.000    0.000 
#
# Total GULP energy -743639.923198 kJ/mol
# GULP energy per Si atom -12393.998720 kJ/mol
# Density = 1.807853 g / cm^3
# Si number density = 18.119770 Si / 1000 Ang^3
#
#
#
# Elastic Constant Matrix: (Units=GPa)
#
#
# Indices 1 2 3 4 5 6 
#
# 1 82.4182 43.8135 40.2702 0.0000 0.0000 0.0000
# 2 43.8135 112.5864 29.8646 0.0000 0.0000 0.0000
# 3 40.2702 29.8646 80.0955 0.0000 0.0000 0.0000
# 4 0.0000 0.0000 0.0000 15.8225 0.0000 0.0000
# 5 0.0000 0.0000 0.0000 0.0000 25.0509 0.0000
# 6 0.0000 0.0000 0.0000 0.0000 0.0000 28.4958
#
#
#
# Elastic Compliance Matrix: (Units=1/GPa)
#
#
# Indices 1 2 3 4 5 6 
#
# 1 0.018520 -0.005257 -0.007351 0.000000 0.000000 0.000000
# 2 -0.005257 0.011349 -0.001589 0.000000 0.000000 0.000000
# 3 -0.007351 -0.001589 0.016773 0.000000 0.000000 0.000000
# 4 0.000000 0.000000 0.000000 0.063201 0.000000 0.000000
# 5 0.000000 0.000000 0.000000 0.000000 0.039919 0.000000
# 6 0.000000 0.000000 0.000000 0.000000 0.000000 0.035093
#
#
# Mechanical properties :
#
#
# Convention : Reuss Voigt Hill
#
# Bulk Modulus (GPa) = 54.79804 55.88851 55.34327
# Shear Modulus (GPa) = 22.79654 24.61730 23.70692
#
# Velocity S-wave (km/s) = 3.55082 3.68990 3.62103
# Velocity P-wave (km/s) = 6.86432 7.00462 6.93483
#
# Compressibility (1/GPa) = 0.01824883
#
# Stress axis : x y z
#
# Youngs Moduli (GPa) = 53.99648 88.11140 59.61823
#
# Poissons Ratio (x) = 0.46321 0.43826
# Poissons Ratio (y) = 0.28386 0.09471
# Poissons Ratio (z) = 0.39693 0.13997
#
# Static dielectric constant tensor:
#      x y z
#    x 3.357550 0.000000 0.000000 
#    y 0.000000 3.456120 0.000000 
#    z 0.000000 0.000000 3.111460 
# 
# 
# High freq. dielectric constant tensor:
#      x y z
#    x 1.698970 0.000000 0.000000 
#    y 0.000000 1.700380 0.000000 
#    z 0.000000 0.000000 1.677200 
# 
# From -- ./inp_files/43948.got.cif
#   From: 2010.03.12/outbox.cif.g09.slc.cpg/sg67_22_cif.got.tgz:43948.got - 2010.04.10 22:41:39.
