data_PCOD8278210
_publ_section_title
;
Structure prediction by ZEFSAII (Michael W. Deem and Ramdas Pophale) SiO2 
 PCOD8278210
Probable space group: C M M A
;
_chemical_formula_sum "Si O2"
_cell_formula_units_Z 112
_cell_length_a 17.786808
_cell_length_b 22.679371
_cell_length_c 15.820119
_cell_angle_alpha 90.000000
_cell_angle_beta 90.000000
_cell_angle_gamma 90.000000
_cell_volume 6381.735033
_symmetry_space_group_name_H-M "C M M A"
_symmetry_group_IT_number 67
_symmetry_cell_setting 'orthorhombic'
loop_
_space_group_symop_operation_xyz
x,y,z
-x,1/2-y,z
x,-y,-z
-x,1/2+y,-z
-x,-y,-z
x,1/2+y,-z
-x,y,z
x,1/2-y,z
1/2+x,1/2+y,z
1/2-x,-y,z
1/2+x,1/2-y,-z
1/2-x,y,-z
1/2-x,1/2-y,-z
1/2+x,y,-z
1/2-x,1/2+y,z
1/2+x,-y,z
loop_
_atom_site_type_symbol
_atom_site_label
_atom_site_fract_x
_atom_site_fract_y
_atom_site_fract_z
Si Si1 0.088566 0.414057 0.037750
Si Si2 0.149364 0.123212 0.327572
Si Si3 0.411232 0.530754 0.871023
Si Si4 0.912124 0.682307 0.835563
Si Si5 0.914112 0.318352 0.489227
Si Si6 0.835126 0.008797 0.704268
Si Si7 0.797159 0.394573 0.581659
O O1 0.117718 0.466804 0.097605
O O2 0.112583 0.352051 0.079048
O O3 0.000000 0.420955 0.033138
O O4 0.117746 0.421266 0.940911
O O5 0.136146 0.159031 0.242281
O O6 0.096085 0.149262 0.400015
O O7 0.237380 0.131415 0.351043
O O8 0.127272 0.054433 0.315795
O O9 0.500000 0.533272 0.860135
O O10 0.376213 0.543535 0.779713
O O11 0.893327 0.750000 0.852149
O O12 0.000000 0.671938 0.815652
O O13 0.893491 0.250000 0.477741
O O14 0.858650 0.345168 0.559680
O O15 0.000000 0.326508 0.519305
O O16 0.839611 0.048704 0.619954
O O17 0.750000 0.000000 0.733525
O O18 0.750000 0.415590 0.500000
#
# Coordination Sequence:
#
# PCOD8278210 Si02
#       7
#    16  16  16  16  16  16  16
#     4   8  15  28  46  71 102 134 165 201 250 298
#     4  10  19  31  50  73 104 134 165 207 257 307
#     4   9  16  29  51  73 100 134 169 207 248 304
#     4  10  18  28  47  77 109 137 169 209 250 294
#     4  10  21  36  52  72  98 128 169 216 255 300
#     4  10  20  33  51  76 106 131 166 212 256 300
#     4   9  21  37  53  71  99 137 170 208 258 312
#
# _framework density 17.550086
#
# number of rings (size 3 to 8) (size 9 to 14) (size 15 to 20)
#    0.000    2.571    1.429    1.714    0.000   12.000 
#    0.000    2.143    0.000    0.857    0.000    6.000 
#    0.000    0.000    0.000    0.000    0.000    0.000 
#
# Total GULP energy -694210.994099 kJ/mol
# GULP energy per Si atom -12396.624895 kJ/mol
# Density = 1.751014 g / cm^3
# Si number density = 17.550086 Si / 1000 Ang^3
#
#
#
# Elastic Constant Matrix: (Units=GPa)
#
#
# Indices 1 2 3 4 5 6 
#
# 1 51.8139 41.5788 46.4694 0.0000 0.0000 0.0000
# 2 41.5788 123.2379 76.5283 0.0000 0.0000 0.0000
# 3 46.4694 76.5283 124.5316 0.0000 0.0000 0.0000
# 4 0.0000 0.0000 0.0000 28.0759 0.0000 0.0000
# 5 0.0000 0.0000 0.0000 0.0000 29.3105 0.0000
# 6 0.0000 0.0000 0.0000 0.0000 0.0000 21.8182
#
#
#
# Elastic Compliance Matrix: (Units=1/GPa)
#
#
# Indices 1 2 3 4 5 6 
#
# 1 0.031009 -0.005299 -0.008315 0.000000 0.000000 0.000000
# 2 -0.005299 0.014027 -0.006643 0.000000 0.000000 0.000000
# 3 -0.008315 -0.006643 0.015215 0.000000 0.000000 0.000000
# 4 0.000000 0.000000 0.000000 0.035618 0.000000 0.000000
# 5 0.000000 0.000000 0.000000 0.000000 0.034117 0.000000
# 6 0.000000 0.000000 0.000000 0.000000 0.000000 0.045833
#
#
# Mechanical properties :
#
#
# Convention : Reuss Voigt Hill
#
# Bulk Modulus (GPa) = 50.66274 69.85960 60.26117
# Shear Modulus (GPa) = 22.43033 24.84139 23.63586
#
# Velocity S-wave (km/s) = 3.57890 3.76634 3.67381
# Velocity P-wave (km/s) = 6.78293 7.66851 7.23927
#
# Compressibility (1/GPa) = 0.01973837
#
# Stress axis : x y z
#
# Youngs Moduli (GPa) = 32.24856 71.29016 65.72409
#
# Poissons Ratio (x) = 0.37774 0.54650
# Poissons Ratio (y) = 0.17087 0.43660
# Poissons Ratio (z) = 0.26815 0.47357
#
# Static dielectric constant tensor:
#      x y z
#    x 3.073970 0.000000 0.000000 
#    y 0.000000 3.315300 0.000000 
#    z 0.000000 0.000000 3.379630 
# 
# 
# High freq. dielectric constant tensor:
#      x y z
#    x 1.656300 0.000000 0.000000 
#    y 0.000000 1.668480 0.000000 
#    z 0.000000 0.000000 1.678970 
# 
# From -- ./inp_files/34451.got.cif
#   From: 2010.03.12/outbox.cif.g09.slc.cpg/sg67_18_cif.got.tgz:34451.got - 2010.04.10 22:41:39.
