data_PCOD8278786
_publ_section_title
;
Structure prediction by ZEFSAII (Michael W. Deem and Ramdas Pophale) SiO2 
 PCOD8278786
Probable space group: C M M A
;
_chemical_formula_sum "Si O2"
_cell_formula_units_Z 96
_cell_length_a 8.846852
_cell_length_b 27.433723
_cell_length_c 23.597594
_cell_angle_alpha 90.000000
_cell_angle_beta 90.000000
_cell_angle_gamma 90.000000
_cell_volume 5727.185316
_symmetry_space_group_name_H-M "C M M A"
_symmetry_group_IT_number 67
_symmetry_cell_setting 'orthorhombic'
loop_
_space_group_symop_operation_xyz
x,y,z
-x,1/2-y,z
x,-y,-z
-x,1/2+y,-z
-x,-y,-z
x,1/2+y,-z
-x,y,z
x,1/2-y,z
1/2+x,1/2+y,z
1/2-x,-y,z
1/2+x,1/2-y,-z
1/2-x,y,-z
1/2-x,1/2-y,-z
1/2+x,y,-z
1/2-x,1/2+y,z
1/2+x,-y,z
loop_
_atom_site_type_symbol
_atom_site_label
_atom_site_fract_x
_atom_site_fract_y
_atom_site_fract_z
Si Si1 0.178770 0.551515 0.440864
Si Si2 0.821694 0.305335 0.942477
Si Si3 0.673795 0.194824 0.729377
Si Si4 0.176785 0.448324 0.225105
Si Si5 0.326125 0.103712 0.658832
Si Si6 0.821960 0.858199 0.170370
O O1 0.250000 0.500000 0.422387
O O2 0.250000 0.569180 0.500000
O O3 0.217681 0.591233 0.393361
O O4 0.000000 0.545943 0.447383
O O5 0.765408 0.250000 0.932119
O O6 0.766790 0.338338 0.890256
O O7 0.000000 0.307034 0.948473
O O8 0.750000 0.326627 0.000000
O O9 0.500000 0.187292 0.748291
O O10 0.707170 0.250000 0.710066
O O11 0.708027 0.159574 0.676207
O O12 0.777635 0.181516 0.782464
O O13 0.250000 0.500000 0.212810
O O14 0.215010 0.431327 0.288738
O O15 0.242041 0.409731 0.180517
O O16 0.000000 0.452191 0.215211
O O17 0.500000 0.096600 0.640536
O O18 0.000000 0.865896 0.172518
#
# Coordination Sequence:
#
# PCOD8278786 Si02
#       6
#    16  16  16  16  16  16
#     4  11  21  33  50  71  96 125 157 193 235 281
#     4   9  18  31  47  69  96 126 159 195 236 281
#     4   9  18  32  50  72  98 129 162 196 237 283
#     4  10  20  33  50  72  98 128 160 195 237 284
#     4   9  18  32  49  71  98 125 156 193 233 279
#     4  10  19  31  48  71  99 128 159 197 239 283
#
# _framework density 16.762160999999999
#
# number of rings (size 3 to 8) (size 9 to 14) (size 15 to 20)
#    0.000    2.333    0.000    5.000    0.000    7.000 
#    0.000    1.667    0.000    1.000    0.000    3.500 
#    0.000    0.000    0.000    0.000    0.000    0.000 
#
# Total GULP energy -595295.057101 kJ/mol
# GULP energy per Si atom -12401.980356 kJ/mol
# Density = 1.672401 g / cm^3
# Si number density = 16.762161 Si / 1000 Ang^3
#
#
#
# Elastic Constant Matrix: (Units=GPa)
#
#
# Indices 1 2 3 4 5 6 
#
# 1 81.3645 45.3408 52.3927 0.0000 0.0000 0.0000
# 2 45.3408 127.2289 67.5511 0.0000 0.0000 0.0000
# 3 52.3927 67.5511 119.7058 0.0000 0.0000 0.0000
# 4 0.0000 0.0000 0.0000 20.9920 0.0000 0.0000
# 5 0.0000 0.0000 0.0000 0.0000 29.0526 0.0000
# 6 0.0000 0.0000 0.0000 0.0000 0.0000 25.9982
#
#
#
# Elastic Compliance Matrix: (Units=1/GPa)
#
#
# Indices 1 2 3 4 5 6 
#
# 1 0.017972 -0.003182 -0.006071 0.000000 0.000000 0.000000
# 2 -0.003182 0.011785 -0.005258 0.000000 0.000000 0.000000
# 3 -0.006071 -0.005258 0.013978 0.000000 0.000000 0.000000
# 4 0.000000 0.000000 0.000000 0.047637 0.000000 0.000000
# 5 0.000000 0.000000 0.000000 0.000000 0.034420 0.000000
# 6 0.000000 0.000000 0.000000 0.000000 0.000000 0.038464
#
#
# Mechanical properties :
#
#
# Convention : Reuss Voigt Hill
#
# Bulk Modulus (GPa) = 67.95799 73.20761 70.58280
# Shear Modulus (GPa) = 25.22914 26.07621 25.65267
#
# Velocity S-wave (km/s) = 3.88380 3.94846 3.91627
# Velocity P-wave (km/s) = 7.79374 8.03469 7.91513
#
# Compressibility (1/GPa) = 0.01471497
#
# Stress axis : x y z
#
# Youngs Moduli (GPa) = 55.64066 84.85041 71.54089
#
# Poissons Ratio (x) = 0.26997 0.43430
# Poissons Ratio (y) = 0.17703 0.37617
# Poissons Ratio (z) = 0.33778 0.44615
#
# Static dielectric constant tensor:
#      x y z
#    x 3.153450 0.000000 0.000000 
#    y 0.000000 3.205530 0.000000 
#    z 0.000000 0.000000 3.084250 
# 
# 
# High freq. dielectric constant tensor:
#      x y z
#    x 1.653610 0.000000 0.000000 
#    y 0.000000 1.638150 0.000000 
#    z 0.000000 0.000000 1.633870 
# 
# From -- ./inp_files/37156.got.cif
#   From: 2010.03.12/outbox.cif.g09.slc.cpg/sg67_19_cif.got.tgz:37156.got - 2010.04.10 22:41:39.
