data_PCOD8278079
_publ_section_title
;
Structure prediction by ZEFSAII (Michael W. Deem and Ramdas Pophale) SiO2 
 PCOD8278079
Probable space group: C M M A
;
_chemical_formula_sum "Si O2"
_cell_formula_units_Z 96
_cell_length_a 30.308053
_cell_length_b 8.891353
_cell_length_c 25.757535
_cell_angle_alpha 90.000000
_cell_angle_beta 90.000000
_cell_angle_gamma 90.000000
_cell_volume 6941.130176
_symmetry_space_group_name_H-M "C M M A"
_symmetry_group_IT_number 67
_symmetry_cell_setting 'orthorhombic'
loop_
_space_group_symop_operation_xyz
x,y,z
-x,1/2-y,z
x,-y,-z
-x,1/2+y,-z
-x,-y,-z
x,1/2+y,-z
-x,y,z
x,1/2-y,z
1/2+x,1/2+y,z
1/2-x,-y,z
1/2+x,1/2-y,-z
1/2-x,y,-z
1/2-x,1/2-y,-z
1/2+x,y,-z
1/2-x,1/2+y,z
1/2+x,-y,z
loop_
_atom_site_type_symbol
_atom_site_label
_atom_site_fract_x
_atom_site_fract_y
_atom_site_fract_z
Si Si1 0.118479 0.571126 0.056214
Si Si2 0.552595 0.081363 0.551098
Si Si3 0.052373 0.416357 0.246688
Si Si4 0.448417 0.574819 0.131047
Si Si5 0.552642 0.582282 0.653087
Si Si6 0.206490 0.430799 0.057372
O O1 0.124886 0.750000 0.051207
O O2 0.076829 0.533435 0.091766
O O3 0.161573 0.493659 0.083287
O O4 0.109616 0.500000 0.000000
O O5 0.500000 0.073748 0.551108
O O6 0.570150 0.250000 0.549477
O O7 0.571490 0.000000 0.500000
O O8 0.571316 0.007767 0.603684
O O9 0.071743 0.250000 0.255125
O O10 0.065477 0.475139 0.189455
O O11 0.071892 0.518937 0.292685
O O12 0.000000 0.410256 0.250422
O O13 0.500000 0.548046 0.121841
O O14 0.436616 0.750000 0.121833
O O15 0.500000 0.575594 0.653742
O O16 0.570306 0.750000 0.647308
O O17 0.207864 0.250000 0.056991
O O18 0.250000 0.500000 0.085862
O O19 0.205726 0.500000 0.000000
#
# Coordination Sequence:
#
# PCOD8278079 Si02
#       6
#    16  16  16  16  16  16
#     4  11  21  32  45  61  80 101 125 151 183 223
#     4   9  15  21  28  38  54  75  98 125 161 205
#     4   8  14  25  39  51  63  82 109 141 177 214
#     4   9  18  32  46  58  74  97 125 157 192 227
#     4   9  15  21  30  44  60  77 100 131 166 205
#     4  10  17  28  45  64  84 102 121 144 174 212
#
# _framework density 13.8306
#
# number of rings (size 3 to 8) (size 9 to 14) (size 15 to 20)
#    0.000    2.667    0.000    6.500    0.000    5.333 
#    0.000    1.667    0.000    0.000    0.000    0.000 
#    0.000    0.000    0.000    0.000    0.000    0.000 
#
# Total GULP energy -594831.025696 kJ/mol
# GULP energy per Si atom -12392.313035 kJ/mol
# Density = 1.379912 g / cm^3
# Si number density = 13.830600 Si / 1000 Ang^3
#
#
#
# Elastic Constant Matrix: (Units=GPa)
#
#
# Indices 1 2 3 4 5 6 
#
# 1 37.4444 28.0071 26.9200 0.0000 0.0000 0.0000
# 2 28.0071 125.4144 53.9180 0.0000 0.0000 0.0000
# 3 26.9200 53.9180 93.6742 0.0000 0.0000 0.0000
# 4 0.0000 0.0000 0.0000 25.0963 0.0000 0.0000
# 5 0.0000 0.0000 0.0000 0.0000 0.0330 0.0000
# 6 0.0000 0.0000 0.0000 0.0000 0.0000 15.1431
#
#
#
# Elastic Compliance Matrix: (Units=1/GPa)
#
#
# Indices 1 2 3 4 5 6 
#
# 1 0.035651 -0.004726 -0.007525 0.000000 0.000000 0.000000
# 2 -0.004726 0.011222 -0.005101 0.000000 0.000000 0.000000
# 3 -0.007525 -0.005101 0.015774 0.000000 0.000000 0.000000
# 4 0.000000 0.000000 0.000000 0.039847 0.000000 0.000000
# 5 0.000000 0.000000 0.000000 0.000000 30.270708 0.000000
# 6 0.000000 0.000000 0.000000 0.000000 0.000000 0.066036
#
#
# Mechanical properties :
#
#
# Convention : Reuss Voigt Hill
#
# Bulk Modulus (GPa) = 35.78774 52.69148 44.23961
# Shear Modulus (GPa) = 0.16402 17.90034 9.03218
#
# Velocity S-wave (km/s) = 0.34475 3.60148 2.55827
# Velocity P-wave (km/s) = 5.10788 7.44813 6.38612
#
# Compressibility (1/GPa) = 0.02794253
#
# Stress axis : x y z
#
# Youngs Moduli (GPa) = 28.04933 89.10987 63.39560
#
# Poissons Ratio (x) = 0.42117 0.47705
# Poissons Ratio (y) = 0.13257 0.32339
# Poissons Ratio (z) = 0.21107 0.45456
#
# Static dielectric constant tensor:
#      x y z
#    x 2.609530 0.000000 0.000000 
#    y 0.000000 2.888070 0.000000 
#    z 0.000000 0.000000 2.776390 
# 
# 
# High freq. dielectric constant tensor:
#      x y z
#    x 1.460390 0.000000 0.000000 
#    y 0.000000 1.543830 0.000000 
#    z 0.000000 0.000000 1.517500 
# 
# From -- ./inp_files/43816.got.cif
#   From: 2010.03.12/outbox.cif.g09.slc.cpg/sg67_22_cif.got.tgz:43816.got - 2010.04.10 22:41:39.
