data_PCOD8278859
_publ_section_title
;
Structure prediction by ZEFSAII (Michael W. Deem and Ramdas Pophale) SiO2 
 PCOD8278859
Probable space group: C M M A
;
_chemical_formula_sum "Si O2"
_cell_formula_units_Z 104
_cell_length_a 25.405308
_cell_length_b 8.922643
_cell_length_c 22.584314
_cell_angle_alpha 90.000000
_cell_angle_beta 90.000000
_cell_angle_gamma 90.000000
_cell_volume 5119.468614
_symmetry_space_group_name_H-M "C M M A"
_symmetry_group_IT_number 67
_symmetry_cell_setting 'orthorhombic'
loop_
_space_group_symop_operation_xyz
x,y,z
-x,1/2-y,z
x,-y,-z
-x,1/2+y,-z
-x,-y,-z
x,1/2+y,-z
-x,y,z
x,1/2-y,z
1/2+x,1/2+y,z
1/2-x,-y,z
1/2+x,1/2-y,-z
1/2-x,y,-z
1/2-x,1/2-y,-z
1/2+x,y,-z
1/2-x,1/2+y,z
1/2+x,-y,z
loop_
_atom_site_type_symbol
_atom_site_label
_atom_site_fract_x
_atom_site_fract_y
_atom_site_fract_z
Si Si1 0.562082 0.421674 0.379424
Si Si2 0.906079 0.073508 0.852028
Si Si3 0.144791 0.927489 0.558179
Si Si4 0.000000 0.572644 0.063655
Si Si5 0.804559 0.076835 0.320962
Si Si6 0.806835 0.424001 0.189541
Si Si7 0.561052 0.583229 0.263385
O O1 0.500000 0.432647 0.383253
O O2 0.580732 0.250000 0.376067
O O3 0.585741 0.504469 0.437360
O O4 0.586183 0.510106 0.322422
O O5 0.897049 0.250000 0.854224
O O6 0.946546 0.019940 0.903100
O O7 0.848892 0.993241 0.856998
O O8 0.933069 0.028371 0.790990
O O9 0.144818 0.750000 0.552362
O O10 0.170990 0.990343 0.618804
O O11 0.172350 0.000000 0.500000
O O12 0.000000 0.750000 0.058163
O O13 0.000000 0.500000 0.000000
O O14 0.795288 0.250000 0.333115
O O15 0.832864 0.052622 0.256192
O O16 0.750000 0.000000 0.309419
O O17 0.798789 0.250000 0.175462
O O18 0.750000 0.500000 0.181884
O O19 0.500000 0.601928 0.276649
O O20 0.585873 0.750000 0.252568
#
# Coordination Sequence:
#
# PCOD8278859 Si02
#       7
#    16  16  16   8  16  16  16
#     4  10  21  36  54  76 103 137 177 227 286 346
#     4  11  21  36  58  87 123 162 202 250 296 347
#     4  11  23  38  54  74 101 136 182 232 281 345
#     4  10  24  42  62  90 128 170 213 252 295 344
#     4   9  20  37  57  80 108 139 178 226 282 342
#     4  10  20  36  59  90 122 156 196 244 303 364
#     4  10  19  31  51  81 113 146 185 231 288 353
#
# _framework density 20.314609000000001
#
# number of rings (size 3 to 8) (size 9 to 14) (size 15 to 20)
#    0.000    1.846    0.769    3.231    0.000    6.462 
#    0.000    1.538    0.000    0.462    0.000    3.231 
#    0.000    0.000    0.000    0.000    0.000    0.000 
#
# Total GULP energy -644495.167483 kJ/mol
# GULP energy per Si atom -12394.137836 kJ/mol
# Density = 2.026837 g / cm^3
# Si number density = 20.314609 Si / 1000 Ang^3
#
#
#
# Elastic Constant Matrix: (Units=GPa)
#
#
# Indices 1 2 3 4 5 6 
#
# 1 79.9612 41.9602 58.6615 0.0000 0.0000 0.0000
# 2 41.9602 85.8488 33.0209 0.0000 0.0000 0.0000
# 3 58.6615 33.0209 105.5643 0.0000 0.0000 0.0000
# 4 0.0000 0.0000 0.0000 31.0016 0.0000 0.0000
# 5 0.0000 0.0000 0.0000 0.0000 24.3286 0.0000
# 6 0.0000 0.0000 0.0000 0.0000 0.0000 32.7606
#
#
#
# Elastic Compliance Matrix: (Units=1/GPa)
#
#
# Indices 1 2 3 4 5 6 
#
# 1 0.025012 -0.007820 -0.011453 0.000000 0.000000 0.000000
# 2 -0.007820 0.015686 -0.000561 0.000000 0.000000 0.000000
# 3 -0.011453 -0.000561 0.016013 0.000000 0.000000 0.000000
# 4 0.000000 0.000000 0.000000 0.032256 0.000000 0.000000
# 5 0.000000 0.000000 0.000000 0.000000 0.041104 0.000000
# 6 0.000000 0.000000 0.000000 0.000000 0.000000 0.030524
#
#
# Mechanical properties :
#
#
# Convention : Reuss Voigt Hill
#
# Bulk Modulus (GPa) = 58.67521 59.85106 59.26313
# Shear Modulus (GPa) = 24.27846 26.80027 25.53936
#
# Velocity S-wave (km/s) = 3.46081 3.63610 3.54954
# Velocity P-wave (km/s) = 6.70190 6.86690 6.78491
#
# Compressibility (1/GPa) = 0.01704297
#
# Stress axis : x y z
#
# Youngs Moduli (GPa) = 39.98160 63.74984 62.45024
#
# Poissons Ratio (x) = 0.49850 0.71523
# Poissons Ratio (y) = 0.31264 0.03506
# Poissons Ratio (z) = 0.45790 0.03579
#
# Static dielectric constant tensor:
#      x y z
#    x 3.774460 0.000000 0.000000 
#    y 0.000000 3.898900 0.000000 
#    z 0.000000 0.000000 3.707660 
# 
# 
# High freq. dielectric constant tensor:
#      x y z
#    x 1.806800 0.000000 0.000000 
#    y 0.000000 1.800770 0.000000 
#    z 0.000000 0.000000 1.764240 
# 
# From -- ./inp_files/37320.got.cif
#   From: 2010.03.12/outbox.cif.g09.slc.cpg/sg67_19_cif.got.tgz:37320.got - 2010.04.10 22:41:39.
