data_PCOD8278767
_publ_section_title
;
Structure prediction by ZEFSAII (Michael W. Deem and Ramdas Pophale) SiO2 
 PCOD8278767
Probable space group: C M M A
;
_chemical_formula_sum "Si O2"
_cell_formula_units_Z 72
_cell_length_a 9.733816
_cell_length_b 33.675261
_cell_length_c 13.573646
_cell_angle_alpha 90.000000
_cell_angle_beta 90.000000
_cell_angle_gamma 90.000000
_cell_volume 4449.289057
_symmetry_space_group_name_H-M "C M M A"
_symmetry_group_IT_number 67
_symmetry_cell_setting 'orthorhombic'
loop_
_space_group_symop_operation_xyz
x,y,z
-x,1/2-y,z
x,-y,-z
-x,1/2+y,-z
-x,-y,-z
x,1/2+y,-z
-x,y,z
x,1/2-y,z
1/2+x,1/2+y,z
1/2-x,-y,z
1/2+x,1/2-y,-z
1/2-x,y,-z
1/2-x,1/2-y,-z
1/2+x,y,-z
1/2-x,1/2+y,z
1/2+x,-y,z
loop_
_atom_site_type_symbol
_atom_site_label
_atom_site_fract_x
_atom_site_fract_y
_atom_site_fract_z
Si Si1 0.839860 0.825182 0.728698
Si Si2 0.000000 0.961224 0.611970
Si Si3 0.838740 0.203825 0.903159
Si Si4 0.156071 0.250000 0.405655
Si Si5 0.761610 0.095586 0.383794
Si Si6 0.000000 0.549133 0.379171
O O1 0.735473 0.822204 0.819753
O O2 0.811314 0.788416 0.658182
O O3 0.801331 0.864150 0.669048
O O4 0.000000 0.825812 0.763027
O O5 0.132020 0.937902 0.647729
O O6 0.000000 0.960672 0.494263
O O7 0.000000 0.004494 0.664751
O O8 0.828704 0.250000 0.874622
O O9 0.000000 0.191611 0.916091
O O10 0.750000 0.195107 0.000000
O O11 0.250000 0.250000 0.500000
O O12 0.000000 0.250000 0.442968
O O13 0.750000 0.104222 0.500000
O O14 0.623517 0.076429 0.342987
#
# Coordination Sequence:
#
# PCOD8278767 Si02
#       6
#    16   8  16   8  16   8
#     4  11  21  35  51  72 104 139 176 212 255 301
#     4   9  16  32  46  69  98 135 176 213 264 303
#     4  10  21  37  58  80 100 127 166 214 265 312
#     4  10  22  36  49  68  99 144 183 214 244 288
#     4  10  19  31  47  72 104 140 177 216 254 296
#     4   9  18  28  50  69  96 135 176 219 256 307
#
# _framework density 16.182359999999999
#
# number of rings (size 3 to 8) (size 9 to 14) (size 15 to 20)
#    0.000    2.000    2.222    2.000    1.556    4.444 
#    0.000    0.000    0.000    0.000    0.000    0.000 
#    0.000    5.333    0.000    0.000    0.000    0.000 
#
# Total GULP energy -446174.626709 kJ/mol
# GULP energy per Si atom -12393.739631 kJ/mol
# Density = 1.614553 g / cm^3
# Si number density = 16.182360 Si / 1000 Ang^3
#
#
#
# Elastic Constant Matrix: (Units=GPa)
#
#
# Indices 1 2 3 4 5 6 
#
# 1 148.3970 51.8881 50.3365 0.0000 0.0000 0.0000
# 2 51.8881 111.1344 34.1657 0.0000 0.0000 0.0000
# 3 50.3365 34.1657 62.7676 0.0000 0.0000 0.0000
# 4 0.0000 0.0000 0.0000 102.0888 0.0000 0.0000
# 5 0.0000 0.0000 0.0000 0.0000 29.6497 0.0000
# 6 0.0000 0.0000 0.0000 0.0000 0.0000 31.3814
#
#
#
# Elastic Compliance Matrix: (Units=1/GPa)
#
#
# Indices 1 2 3 4 5 6 
#
# 1 0.009847 -0.002606 -0.006479 0.000000 0.000000 0.000000
# 2 -0.002606 0.011496 -0.004168 0.000000 0.000000 0.000000
# 3 -0.006479 -0.004168 0.023396 0.000000 0.000000 0.000000
# 4 0.000000 0.000000 0.000000 0.009795 0.000000 0.000000
# 5 0.000000 0.000000 0.000000 0.000000 0.033727 0.000000
# 6 0.000000 0.000000 0.000000 0.000000 0.000000 0.031866
#
#
# Mechanical properties :
#
#
# Convention : Reuss Voigt Hill
#
# Bulk Modulus (GPa) = 54.84032 66.11996 60.48014
# Shear Modulus (GPa) = 32.74159 45.01790 38.87975
#
# Velocity S-wave (km/s) = 4.50298 5.28011 4.90695
# Velocity P-wave (km/s) = 7.81014 8.83859 8.34023
#
# Compressibility (1/GPa) = 0.01823476
#
# Stress axis : x y z
#
# Youngs Moduli (GPa) = 101.54897 86.98598 42.74255
#
# Poissons Ratio (x) = 0.22669 0.27691
# Poissons Ratio (y) = 0.26464 0.17814
# Poissons Ratio (z) = 0.65790 0.36253
#
# Static dielectric constant tensor:
#      x y z
#    x 3.375280 0.000000 0.000000 
#    y 0.000000 3.137330 0.000000 
#    z 0.000000 0.000000 2.826880 
# 
# 
# High freq. dielectric constant tensor:
#      x y z
#    x 1.646330 0.000000 0.000000 
#    y 0.000000 1.624470 0.000000 
#    z 0.000000 0.000000 1.578020 
# 
# From -- ./inp_files/25341.got.cif
#   From: 2010.03.12/outbox.cif.g09.slc.cpg/sg67_13_cif.got.tgz:25341.got - 2010.04.10 22:41:39.
