data_PCOD8278249
_publ_section_title
;
Structure prediction by ZEFSAII (Michael W. Deem and Ramdas Pophale) SiO2 
 PCOD8278249
Probable space group: C M M A
;
_chemical_formula_sum "Si O2"
_cell_formula_units_Z 96
_cell_length_a 25.872345
_cell_length_b 15.458249
_cell_length_c 13.412293
_cell_angle_alpha 90.000000
_cell_angle_beta 90.000000
_cell_angle_gamma 90.000000
_cell_volume 5364.127903
_symmetry_space_group_name_H-M "C M M A"
_symmetry_group_IT_number 67
_symmetry_cell_setting 'orthorhombic'
loop_
_space_group_symop_operation_xyz
x,y,z
-x,1/2-y,z
x,-y,-z
-x,1/2+y,-z
-x,-y,-z
x,1/2+y,-z
-x,y,z
x,1/2-y,z
1/2+x,1/2+y,z
1/2-x,-y,z
1/2+x,1/2-y,-z
1/2-x,y,-z
1/2-x,1/2-y,-z
1/2+x,y,-z
1/2-x,1/2+y,z
1/2+x,-y,z
loop_
_atom_site_type_symbol
_atom_site_label
_atom_site_fract_x
_atom_site_fract_y
_atom_site_fract_z
Si Si1 0.560097 0.508217 0.725030
Si Si2 0.559426 0.847771 0.563312
Si Si3 0.881796 0.350098 0.361086
Si Si4 0.777571 0.652738 0.095102
Si Si5 0.789002 0.425503 0.254161
Si Si6 0.136092 0.473256 0.888813
O O1 0.500000 0.501839 0.738134
O O2 0.575641 0.580140 0.643186
O O3 0.580473 0.412340 0.700442
O O4 0.582879 0.539412 0.829835
O O5 0.500000 0.863969 0.526299
O O6 0.563546 0.750000 0.607338
O O7 0.601105 0.858520 0.475588
O O8 0.887436 0.250000 0.325523
O O9 0.822312 0.382607 0.344174
O O10 0.786114 0.750000 0.064822
O O11 0.745271 0.645645 0.197525
O O12 0.834681 0.617180 0.109789
O O13 0.750000 0.605297 0.000000
O O14 0.750000 0.500000 0.295720
O O15 0.827513 0.459373 0.169084
O O16 0.121839 0.500000 0.000000
#
# Coordination Sequence:
#
# PCOD8278249 Si02
#       6
#    16  16  16  16  16  16
#     4  10  21  35  53  78 108 142 180 222 269 326
#     4   9  18  34  57  81 105 138 181 226 271 322
#     4  10  19  32  54  83 111 138 176 224 273 322
#     4  10  18  29  51  76  98 130 173 219 265 313
#     4   9  18  31  51  76 107 140 173 218 267 322
#     4  10  19  33  50  73 101 137 174 215 262 316
#
# _framework density 17.896666
#
# number of rings (size 3 to 8) (size 9 to 14) (size 15 to 20)
#    0.000    2.333    1.667    1.500    0.000    3.333 
#    0.000    0.000    0.000   17.000    0.000   32.667 
#    0.000    0.000    0.000    0.000    0.000    0.000 
#
# Total GULP energy -594828.945308 kJ/mol
# GULP energy per Si atom -12392.269694 kJ/mol
# Density = 1.785593 g / cm^3
# Si number density = 17.896666 Si / 1000 Ang^3
#
#
#
# Elastic Constant Matrix: (Units=GPa)
#
#
# Indices 1 2 3 4 5 6 
#
# 1 108.4132 57.5678 68.6470 0.0000 0.0000 0.0000
# 2 57.5678 113.6080 53.3540 0.0000 0.0000 0.0000
# 3 68.6470 53.3540 99.7993 0.0000 0.0000 0.0000
# 4 0.0000 0.0000 0.0000 18.3380 0.0000 0.0000
# 5 0.0000 0.0000 0.0000 0.0000 35.1766 0.0000
# 6 0.0000 0.0000 0.0000 0.0000 0.0000 -1.5271
#
#
#
# Elastic Compliance Matrix: (Units=1/GPa)
#
#
# Indices 1 2 3 4 5 6 
#
# 1 0.017833 -0.004374 -0.009928 0.000000 0.000000 0.000000
# 2 -0.004374 0.012826 -0.003848 0.000000 0.000000 0.000000
# 3 -0.009928 -0.003848 0.018907 0.000000 0.000000 0.000000
# 4 0.000000 0.000000 0.000000 0.054532 0.000000 0.000000
# 5 0.000000 0.000000 0.000000 0.000000 0.028428 0.000000
# 6 0.000000 0.000000 0.000000 0.000000 0.000000 -0.654819
#
#
# Mechanical properties :
#
#
# Convention : Reuss Voigt Hill
#
# Bulk Modulus (GPa) = 75.38741 75.66200 75.52471
# Shear Modulus (GPa) = -10.38266 19.88092 4.74913
#
# Velocity S-wave (km/s) = -2.41123 3.33659 1.63077
# Velocity P-wave (km/s) = 5.87053 7.56391 6.77037
#
# Compressibility (1/GPa) = 0.01326481
#
# Stress axis : x y z
#
# Youngs Moduli (GPa) = 56.07599 77.96788 52.89181
#
# Poissons Ratio (x) = 0.34102 0.52512
# Poissons Ratio (y) = 0.24527 0.20354
# Poissons Ratio (z) = 0.55673 0.30004
#
# Static dielectric constant tensor:
#      x y z
#    x 3.453260 0.000000 0.000000 
#    y 0.000000 3.404730 0.000000 
#    z 0.000000 0.000000 3.368550 
# 
# 
# High freq. dielectric constant tensor:
#      x y z
#    x 1.688050 0.000000 0.000000 
#    y 0.000000 1.698430 0.000000 
#    z 0.000000 0.000000 1.673700 
# 
# From -- ./inp_files/22920.got.cif
#   From: 2010.03.12/outbox.cif.g09.slc.cpg/sg67_12_cif.got.tgz:22920.got - 2010.04.10 22:41:39.
