data_PCOD8278093
_publ_section_title
;
Structure prediction by ZEFSAII (Michael W. Deem and Ramdas Pophale) SiO2 
 PCOD8278093
Probable space group: C M M A
;
_chemical_formula_sum "Si O2"
_cell_formula_units_Z 80
_cell_length_a 19.556538
_cell_length_b 8.673316
_cell_length_c 25.322123
_cell_angle_alpha 90.000000
_cell_angle_beta 90.000000
_cell_angle_gamma 90.000000
_cell_volume 4295.139363
_symmetry_space_group_name_H-M "C M M A"
_symmetry_group_IT_number 67
_symmetry_cell_setting 'orthorhombic'
loop_
_space_group_symop_operation_xyz
x,y,z
-x,1/2-y,z
x,-y,-z
-x,1/2+y,-z
-x,-y,-z
x,1/2+y,-z
-x,y,z
x,1/2-y,z
1/2+x,1/2+y,z
1/2-x,-y,z
1/2+x,1/2-y,-z
1/2-x,y,-z
1/2-x,1/2-y,-z
1/2+x,y,-z
1/2-x,1/2+y,z
1/2+x,-y,z
loop_
_atom_site_type_symbol
_atom_site_label
_atom_site_fract_x
_atom_site_fract_y
_atom_site_fract_z
Si Si1 0.674006 0.932871 0.052530
Si Si2 0.578956 0.073670 0.636229
Si Si3 0.324377 0.430539 0.158981
Si Si4 0.822299 0.570327 0.444844
Si Si5 0.421213 0.927607 0.242043
O O1 0.673912 0.750000 0.050235
O O2 0.750000 0.000000 0.053398
O O3 0.640239 0.992357 0.106982
O O4 0.636250 0.000000 0.000000
O O5 0.500000 0.041695 0.623942
O O6 0.597709 0.250000 0.622967
O O7 0.595144 0.037778 0.697070
O O8 0.622946 0.960424 0.600535
O O9 0.316152 0.250000 0.149277
O O10 0.250000 0.500000 0.171196
O O11 0.373685 0.461209 0.208029
O O12 0.848455 0.500000 0.500000
O O13 0.812672 0.750000 0.452862
O O14 0.750000 0.500000 0.427511
O O15 0.500000 0.965082 0.229526
O O16 0.405011 0.750000 0.228584
#
# Coordination Sequence:
#
# PCOD8278093 Si02
#       5
#    16  16  16  16  16
#     4  10  17  28  46  70 101 134 170 212 261 312
#     4   9  19  37  59  81 106 137 175 217 260 309
#     4  11  21  33  51  77 107 138 176 219 261 308
#     4  11  22  37  57  80 109 142 176 215 260 311
#     4   9  19  37  58  78 104 139 175 214 263 314
#
# _framework density 18.625706000000001
#
# number of rings (size 3 to 8) (size 9 to 14) (size 15 to 20)
#    0.000    2.000    0.000    9.000    0.000    2.800 
#    0.000    2.000    0.000    0.600    0.000    0.000 
#    0.000    0.000    0.000    0.000    0.000    0.000 
#
# Total GULP energy -496001.085890 kJ/mol
# GULP energy per Si atom -12400.027147 kJ/mol
# Density = 1.858331 g / cm^3
# Si number density = 18.625706 Si / 1000 Ang^3
#
#
#
# Elastic Constant Matrix: (Units=GPa)
#
#
# Indices 1 2 3 4 5 6 
#
# 1 63.7669 41.2122 59.2243 0.0000 0.0000 0.0000
# 2 41.2122 156.4008 57.9037 0.0000 0.0000 0.0000
# 3 59.2243 57.9037 117.0477 0.0000 0.0000 0.0000
# 4 0.0000 0.0000 0.0000 33.7928 0.0000 0.0000
# 5 0.0000 0.0000 0.0000 0.0000 -11.2850 0.0000
# 6 0.0000 0.0000 0.0000 0.0000 0.0000 25.4355
#
#
#
# Elastic Compliance Matrix: (Units=1/GPa)
#
#
# Indices 1 2 3 4 5 6 
#
# 1 0.030591 -0.002853 -0.014067 0.000000 0.000000 0.000000
# 2 -0.002853 0.008093 -0.002560 0.000000 0.000000 0.000000
# 3 -0.014067 -0.002560 0.016928 0.000000 0.000000 0.000000
# 4 0.000000 0.000000 0.000000 0.029592 0.000000 0.000000
# 5 0.000000 0.000000 0.000000 0.000000 -0.088614 0.000000
# 6 0.000000 0.000000 0.000000 0.000000 0.000000 0.039315
#
#
# Mechanical properties :
#
#
# Convention : Reuss Voigt Hill
#
# Bulk Modulus (GPa) = 60.05449 72.65509 66.35479
# Shear Modulus (GPa) = 62.17540 21.51367 41.84454
#
# Velocity S-wave (km/s) = 5.78394 3.40229 4.74497
# Velocity P-wave (km/s) = 8.77030 7.38423 8.10694
#
# Compressibility (1/GPa) = 0.01665154
#
# Stress axis : x y z
#
# Youngs Moduli (GPa) = 32.68933 123.55634 59.07375
#
# Poissons Ratio (x) = 0.35248 0.83101
# Poissons Ratio (y) = 0.09326 0.15125
# Poissons Ratio (z) = 0.45985 0.31635
#
# Static dielectric constant tensor:
#      x y z
#    x 3.068800 0.000000 0.000000 
#    y 0.000000 3.392180 0.000000 
#    z 0.000000 0.000000 3.873010 
# 
# 
# High freq. dielectric constant tensor:
#      x y z
#    x 1.689360 0.000000 0.000000 
#    y 0.000000 1.732130 0.000000 
#    z 0.000000 0.000000 1.739200 
# 
# From -- ./inp_files/44440.got.cif
#   From: 2010.03.12/outbox.cif.g09.slc.cpg/sg67_23_cif.got.tgz:44440.got - 2010.04.10 22:41:39.
