data_PCOD8278634
_publ_section_title
;
Structure prediction by ZEFSAII (Michael W. Deem and Ramdas Pophale) SiO2 
 PCOD8278634
Probable space group: C M M A
;
_chemical_formula_sum "Si O2"
_cell_formula_units_Z 96
_cell_length_a 23.437654
_cell_length_b 8.848694
_cell_length_c 25.458677
_cell_angle_alpha 90.000000
_cell_angle_beta 90.000000
_cell_angle_gamma 90.000000
_cell_volume 5279.941937
_symmetry_space_group_name_H-M "C M M A"
_symmetry_group_IT_number 67
_symmetry_cell_setting 'orthorhombic'
loop_
_space_group_symop_operation_xyz
x,y,z
-x,1/2-y,z
x,-y,-z
-x,1/2+y,-z
-x,-y,-z
x,1/2+y,-z
-x,y,z
x,1/2-y,z
1/2+x,1/2+y,z
1/2-x,-y,z
1/2+x,1/2-y,-z
1/2-x,y,-z
1/2-x,1/2-y,-z
1/2+x,y,-z
1/2-x,1/2+y,z
1/2+x,-y,z
loop_
_atom_site_type_symbol
_atom_site_label
_atom_site_fract_x
_atom_site_fract_y
_atom_site_fract_z
Si Si1 0.688837 0.930203 0.655186
Si Si2 0.886656 0.430288 0.258872
Si Si3 0.065993 0.928368 0.159426
Si Si4 0.000000 0.581086 0.417513
Si Si5 0.500000 0.574653 0.311972
Si Si6 0.875184 0.921406 0.448490
Si Si7 0.932396 0.580399 0.948302
O O1 0.691573 0.750000 0.659664
O O2 0.648795 0.985832 0.606696
O O3 0.750000 0.000000 0.643676
O O4 0.666284 0.997496 0.710149
O O5 0.881007 0.250000 0.259979
O O6 0.890676 0.489282 0.199357
O O7 0.943488 0.495694 0.286636
O O8 0.073682 0.750000 0.163576
O O9 0.000000 0.975787 0.170433
O O10 0.085494 0.982583 0.102074
O O11 0.943520 0.558711 0.452016
O O12 0.000000 0.750000 0.392228
O O13 0.000000 0.454722 0.373363
O O14 0.500000 0.750000 0.300095
O O15 0.855635 0.750000 0.452416
O O16 0.848454 0.000000 0.500000
O O17 0.907459 0.750000 0.943570
O O18 0.000000 0.587642 0.953176
O O19 0.906560 0.500000 0.000000
#
# Coordination Sequence:
#
# PCOD8278634 Si02
#       7
#    16  16  16   8   8  16  16
#     4  11  24  42  60  79 102 135 174 217 265 315
#     4  11  21  35  54  79 107 136 173 217 264 317
#     4  10  19  29  45  71 103 140 179 218 262 313
#     4  10  19  35  55  80 110 137 167 205 252 311
#     4  10  20  31  51  80 106 135 168 207 258 313
#     4  10  22  37  57  81 107 136 169 208 255 309
#     4   9  16  26  40  60  93 137 182 223 261 307
#
# _framework density 18.182019
#
# number of rings (size 3 to 8) (size 9 to 14) (size 15 to 20)
#    0.000    1.833    2.500    2.250    0.000    5.667 
#    0.000    1.667    0.000    0.000    0.000    0.000 
#    0.000    0.667    0.000    6.667    0.000    4.333 
#
# Total GULP energy -595154.722850 kJ/mol
# GULP energy per Si atom -12399.056726 kJ/mol
# Density = 1.814064 g / cm^3
# Si number density = 18.182019 Si / 1000 Ang^3
#
#
#
# Elastic Constant Matrix: (Units=GPa)
#
#
# Indices 1 2 3 4 5 6 
#
# 1 63.6878 30.7367 31.1916 0.0000 0.0000 0.0000
# 2 30.7367 85.4776 49.2890 0.0000 0.0000 0.0000
# 3 31.1916 49.2890 137.0593 0.0000 0.0000 0.0000
# 4 0.0000 0.0000 0.0000 38.1164 0.0000 0.0000
# 5 0.0000 0.0000 0.0000 0.0000 9.9616 0.0000
# 6 0.0000 0.0000 0.0000 0.0000 0.0000 21.5936
#
#
#
# Elastic Compliance Matrix: (Units=1/GPa)
#
#
# Indices 1 2 3 4 5 6 
#
# 1 0.019621 -0.005653 -0.002432 0.000000 0.000000 0.000000
# 2 -0.005653 0.016388 -0.004607 0.000000 0.000000 0.000000
# 3 -0.002432 -0.004607 0.009506 0.000000 0.000000 0.000000
# 4 0.000000 0.000000 0.000000 0.026235 0.000000 0.000000
# 5 0.000000 0.000000 0.000000 0.000000 0.100385 0.000000
# 6 0.000000 0.000000 0.000000 0.000000 0.000000 0.046310
#
#
# Mechanical properties :
#
#
# Convention : Reuss Voigt Hill
#
# Bulk Modulus (GPa) = 49.67454 56.51773 53.09613
# Shear Modulus (GPa) = 19.95679 25.60150 22.77914
#
# Velocity S-wave (km/s) = 3.31662 3.75649 3.54339
# Velocity P-wave (km/s) = 6.48433 7.06872 6.78283
#
# Compressibility (1/GPa) = 0.02013104
#
# Stress axis : x y z
#
# Youngs Moduli (GPa) = 50.96568 61.01940 105.19170
#
# Poissons Ratio (x) = 0.34493 0.25587
# Poissons Ratio (y) = 0.28810 0.48462
# Poissons Ratio (z) = 0.12397 0.28112
#
# Static dielectric constant tensor:
#      x y z
#    x 3.025380 0.000000 0.000000 
#    y 0.000000 3.360700 0.000000 
#    z 0.000000 0.000000 3.405710 
# 
# 
# High freq. dielectric constant tensor:
#      x y z
#    x 1.653950 0.000000 0.000000 
#    y 0.000000 1.712690 0.000000 
#    z 0.000000 0.000000 1.711880 
# 
# From -- ./inp_files/42602.got.cif
#   From: 2010.03.12/outbox.cif.g09.slc.cpg/sg67_22_cif.got.tgz:42602.got - 2010.04.10 22:41:39.
