data_PCOD8278936
_publ_section_title
;
Structure prediction by ZEFSAII (Michael W. Deem and Ramdas Pophale) SiO2 
 PCOD8278936
Probable space group: C M M A
;
_chemical_formula_sum "Si O2"
_cell_formula_units_Z 96
_cell_length_a 27.533086
_cell_length_b 8.538286
_cell_length_c 23.757651
_cell_angle_alpha 90.000000
_cell_angle_beta 90.000000
_cell_angle_gamma 90.000000
_cell_volume 5585.076003
_symmetry_space_group_name_H-M "C M M A"
_symmetry_group_IT_number 67
_symmetry_cell_setting 'orthorhombic'
loop_
_space_group_symop_operation_xyz
x,y,z
-x,1/2-y,z
x,-y,-z
-x,1/2+y,-z
-x,-y,-z
x,1/2+y,-z
-x,y,z
x,1/2-y,z
1/2+x,1/2+y,z
1/2-x,-y,z
1/2+x,1/2-y,-z
1/2-x,y,-z
1/2-x,1/2-y,-z
1/2+x,y,-z
1/2-x,1/2+y,z
1/2+x,-y,z
loop_
_atom_site_type_symbol
_atom_site_label
_atom_site_fract_x
_atom_site_fract_y
_atom_site_fract_z
Si Si1 0.553173 0.064782 0.272700
Si Si2 0.889574 0.565416 0.164906
Si Si3 0.302227 0.566256 0.440207
Si Si4 0.646782 0.064948 0.335549
Si Si5 0.801917 0.934686 0.772164
Si Si6 0.055697 0.934359 0.939393
O O1 0.500000 0.990303 0.284977
O O2 0.549430 0.250000 0.273660
O O3 0.570871 0.010565 0.211089
O O4 0.592140 0.010403 0.319358
O O5 0.880255 0.750000 0.168184
O O6 0.839110 0.478586 0.178038
O O7 0.908701 0.517683 0.104144
O O8 0.319737 0.500000 0.500000
O O9 0.297704 0.750000 0.445291
O O10 0.250000 0.500000 0.422361
O O11 0.341456 0.519929 0.393700
O O12 0.650751 0.250000 0.343620
O O13 0.683552 0.014976 0.286614
O O14 0.800119 0.750000 0.763312
O O15 0.750000 0.000000 0.790999
O O16 0.064055 0.750000 0.937836
O O17 0.000000 0.978307 0.925225
O O18 0.070259 0.000000 0.000000
#
# Coordination Sequence:
#
# PCOD8278936 Si02
#       6
#    16  16  16  16  16  16
#     4   8  15  28  48  73  99 128 161 197 239 287
#     4  10  19  32  51  75 102 132 166 205 251 299
#     4  11  21  34  51  72  98 127 161 200 245 294
#     4  10  19  32  50  74 102 131 164 201 244 292
#     4  11  21  34  51  73 101 132 167 205 247 294
#     4  10  20  33  50  74 103 135 170 208 250 295
#
# _framework density 17.188663999999999
#
# number of rings (size 3 to 8) (size 9 to 14) (size 15 to 20)
#    0.000    2.000    0.000    7.000    0.000    1.667 
#    0.000    0.000    0.000   11.000    0.000    3.500 
#    0.000    0.000    0.000    0.000    0.000    0.000 
#
# Total GULP energy -595265.233266 kJ/mol
# GULP energy per Si atom -12401.359026 kJ/mol
# Density = 1.714954 g / cm^3
# Si number density = 17.188664 Si / 1000 Ang^3
#
#
#
# Elastic Constant Matrix: (Units=GPa)
#
#
# Indices 1 2 3 4 5 6 
#
# 1 126.0948 27.6799 62.0791 0.0000 0.0000 0.0000
# 2 27.6799 86.3245 27.2715 0.0000 0.0000 0.0000
# 3 62.0791 27.2715 113.0011 0.0000 0.0000 0.0000
# 4 0.0000 0.0000 0.0000 29.1930 0.0000 0.0000
# 5 0.0000 0.0000 0.0000 0.0000 28.4827 0.0000
# 6 0.0000 0.0000 0.0000 0.0000 0.0000 22.3955
#
#
#
# Elastic Compliance Matrix: (Units=1/GPa)
#
#
# Indices 1 2 3 4 5 6 
#
# 1 0.011115 -0.001770 -0.005679 0.000000 0.000000 0.000000
# 2 -0.001770 0.012822 -0.002122 0.000000 0.000000 0.000000
# 3 -0.005679 -0.002122 0.012482 0.000000 0.000000 0.000000
# 4 0.000000 0.000000 0.000000 0.034255 0.000000 0.000000
# 5 0.000000 0.000000 0.000000 0.000000 0.035109 0.000000
# 6 0.000000 0.000000 0.000000 0.000000 0.000000 0.044652
#
#
# Mechanical properties :
#
#
# Convention : Reuss Voigt Hill
#
# Bulk Modulus (GPa) = 57.88236 62.16460 60.02348
# Shear Modulus (GPa) = 28.51678 29.90690 29.21184
#
# Velocity S-wave (km/s) = 4.07756 4.17576 4.12695
# Velocity P-wave (km/s) = 7.47773 7.71323 7.59639
#
# Compressibility (1/GPa) = 0.01727642
#
# Stress axis : x y z
#
# Youngs Moduli (GPa) = 89.96863 77.99011 80.11848
#
# Poissons Ratio (x) = 0.13803 0.45500
# Poissons Ratio (y) = 0.15923 0.17002
# Poissons Ratio (z) = 0.51094 0.16551
#
# Static dielectric constant tensor:
#      x y z
#    x 3.399730 0.000000 0.000000 
#    y 0.000000 3.212880 0.000000 
#    z 0.000000 0.000000 3.112040 
# 
# 
# High freq. dielectric constant tensor:
#      x y z
#    x 1.656690 0.000000 0.000000 
#    y 0.000000 1.670200 0.000000 
#    z 0.000000 0.000000 1.654190 
# 
# From -- ./inp_files/42693.got.cif
#   From: 2010.03.12/outbox.cif.g09.slc.cpg/sg67_22_cif.got.tgz:42693.got - 2010.04.10 22:41:39.
