data_PCOD8278000
_publ_section_title
;
Structure prediction by ZEFSAII (Michael W. Deem and Ramdas Pophale) SiO2 
 PCOD8278000
Probable space group: C M M A
;
_chemical_formula_sum "Si O2"
_cell_formula_units_Z 96
_cell_length_a 8.710048
_cell_length_b 27.583660
_cell_length_c 24.098647
_cell_angle_alpha 90.000000
_cell_angle_beta 90.000000
_cell_angle_gamma 90.000000
_cell_volume 5789.820498
_symmetry_space_group_name_H-M "C M M A"
_symmetry_group_IT_number 67
_symmetry_cell_setting 'orthorhombic'
loop_
_space_group_symop_operation_xyz
x,y,z
-x,1/2-y,z
x,-y,-z
-x,1/2+y,-z
-x,-y,-z
x,1/2+y,-z
-x,y,z
x,1/2-y,z
1/2+x,1/2+y,z
1/2-x,-y,z
1/2+x,1/2-y,-z
1/2-x,y,-z
1/2-x,1/2-y,-z
1/2+x,y,-z
1/2-x,1/2+y,z
1/2+x,-y,z
loop_
_atom_site_type_symbol
_atom_site_label
_atom_site_fract_x
_atom_site_fract_y
_atom_site_fract_z
Si Si1 0.318550 0.052506 0.615047
Si Si2 0.819908 0.890988 0.723563
Si Si3 0.818627 0.195805 0.666269
Si Si4 0.182847 0.446126 0.944775
Si Si5 0.317579 0.053163 0.832766
Si Si6 0.318367 0.140354 0.442803
O O1 0.500000 0.050512 0.609089
O O2 0.266554 0.072199 0.675342
O O3 0.250155 0.087063 0.567695
O O4 0.250000 0.000000 0.605852
O O5 0.743798 0.838447 0.715243
O O6 0.766587 0.912747 0.782132
O O7 0.000000 0.883412 0.721595
O O8 0.752786 0.250000 0.674416
O O9 0.764157 0.176148 0.606343
O O10 0.000000 0.195856 0.669680
O O11 0.250000 0.500000 0.944077
O O12 0.245415 0.421890 0.888103
O O13 0.000000 0.446268 0.946337
O O14 0.250000 0.419482 0.000000
O O15 0.500000 0.049047 0.838705
O O16 0.250000 0.000000 0.822056
O O17 0.500000 0.137136 0.446771
O O18 0.250000 0.161140 0.500000
#
# Coordination Sequence:
#
# PCOD8278000 Si02
#       6
#    16  16  16  16  16  16
#     4  10  19  32  48  67  91 120 152 183 220 262
#     4   9  19  32  47  68  93 119 149 186 224 267
#     4   9  19  35  53  71  91 115 143 179 225 273
#     4  10  17  26  39  57  84 121 161 196 229 261
#     4  10  18  28  42  64  93 124 158 191 224 262
#     4  10  20  34  50  69  92 116 145 181 220 264
#
# _framework density 16.580825000000001
#
# number of rings (size 3 to 8) (size 9 to 14) (size 15 to 20)
#    0.000    2.333    0.000    5.000    0.000    3.667 
#    0.000    1.667    0.000    0.000    0.000    0.000 
#    0.000    0.667    0.000    2.167    0.000    3.500 
#
# Total GULP energy -595143.536212 kJ/mol
# GULP energy per Si atom -12398.823671 kJ/mol
# Density = 1.654309 g / cm^3
# Si number density = 16.580825 Si / 1000 Ang^3
#
#
#
# Elastic Constant Matrix: (Units=GPa)
#
#
# Indices 1 2 3 4 5 6 
#
# 1 74.6838 26.2937 40.5226 0.0000 0.0000 0.0000
# 2 26.2937 98.7386 44.8817 0.0000 0.0000 0.0000
# 3 40.5226 44.8817 130.0390 0.0000 0.0000 0.0000
# 4 0.0000 0.0000 0.0000 13.6765 0.0000 0.0000
# 5 0.0000 0.0000 0.0000 0.0000 28.7333 0.0000
# 6 0.0000 0.0000 0.0000 0.0000 0.0000 21.1753
#
#
#
# Elastic Compliance Matrix: (Units=1/GPa)
#
#
# Indices 1 2 3 4 5 6 
#
# 1 0.016601 -0.002454 -0.004326 0.000000 0.000000 0.000000
# 2 -0.002454 0.012375 -0.003506 0.000000 0.000000 0.000000
# 3 -0.004326 -0.003506 0.010248 0.000000 0.000000 0.000000
# 4 0.000000 0.000000 0.000000 0.073118 0.000000 0.000000
# 5 0.000000 0.000000 0.000000 0.000000 0.034803 0.000000
# 6 0.000000 0.000000 0.000000 0.000000 0.000000 0.047225
#
#
# Mechanical properties :
#
#
# Convention : Reuss Voigt Hill
#
# Bulk Modulus (GPa) = 53.61665 58.53971 56.07818
# Shear Modulus (GPa) = 22.60794 25.50125 24.05459
#
# Velocity S-wave (km/s) = 3.69656 3.92598 3.81300
# Velocity P-wave (km/s) = 7.11521 7.47887 7.29930
#
# Compressibility (1/GPa) = 0.01865092
#
# Stress axis : x y z
#
# Youngs Moduli (GPa) = 60.23662 80.80708 97.57740
#
# Poissons Ratio (x) = 0.19833 0.42213
# Poissons Ratio (y) = 0.14784 0.34214
# Poissons Ratio (z) = 0.26059 0.28334
#
# Static dielectric constant tensor:
#      x y z
#    x 3.137190 0.000000 0.000000 
#    y 0.000000 2.964560 0.000000 
#    z 0.000000 0.000000 3.738020 
# 
# 
# High freq. dielectric constant tensor:
#      x y z
#    x 1.650370 0.000000 0.000000 
#    y 0.000000 1.598170 0.000000 
#    z 0.000000 0.000000 1.643950 
# 
# From -- ./inp_files/40797.got.cif
#   From: 2010.03.12/outbox.cif.g09.slc.cpg/sg67_21_cif.got.tgz:40797.got - 2010.04.10 22:41:39.
