data_PCOD8278115
_publ_section_title
;
Structure prediction by ZEFSAII (Michael W. Deem and Ramdas Pophale) SiO2 
 PCOD8278115
Probable space group: C M M A
;
_chemical_formula_sum "Si O2"
_cell_formula_units_Z 112
_cell_length_a 20.312273
_cell_length_b 18.143543
_cell_length_c 17.627679
_cell_angle_alpha 90.000000
_cell_angle_beta 90.000000
_cell_angle_gamma 90.000000
_cell_volume 6496.444860
_symmetry_space_group_name_H-M "C M M A"
_symmetry_group_IT_number 67
_symmetry_cell_setting 'orthorhombic'
loop_
_space_group_symop_operation_xyz
x,y,z
-x,1/2-y,z
x,-y,-z
-x,1/2+y,-z
-x,-y,-z
x,1/2+y,-z
-x,y,z
x,1/2-y,z
1/2+x,1/2+y,z
1/2-x,-y,z
1/2+x,1/2-y,-z
1/2-x,y,-z
1/2-x,1/2-y,-z
1/2+x,y,-z
1/2-x,1/2+y,z
1/2+x,-y,z
loop_
_atom_site_type_symbol
_atom_site_label
_atom_site_fract_x
_atom_site_fract_y
_atom_site_fract_z
Si Si1 0.162641 0.421314 0.629080
Si Si2 0.853315 0.163046 0.776442
Si Si3 0.722451 0.916368 0.185704
Si Si4 0.827840 0.168698 0.487472
Si Si5 0.426841 0.162599 0.075751
Si Si6 0.318731 0.165032 0.957263
Si Si7 0.681547 0.919573 0.347092
O O1 0.128567 0.377560 0.698119
O O2 0.139994 0.385085 0.549956
O O3 0.240773 0.422495 0.638702
O O4 0.141940 0.506662 0.629528
O O5 0.854686 0.250000 0.761791
O O6 0.781452 0.141386 0.806086
O O7 0.905107 0.137120 0.840245
O O8 0.680685 0.891500 0.112974
O O9 0.672586 0.907035 0.257107
O O10 0.750000 0.000000 0.179780
O O11 0.857061 0.250000 0.499236
O O12 0.750000 0.168874 0.500000
O O13 0.846889 0.143933 0.401942
O O14 0.500000 0.131620 0.059097
O O15 0.425813 0.250000 0.074122
O O16 0.376275 0.134392 0.011976
O O17 0.331230 0.250000 0.931890
O O18 0.250000 0.159123 0.000000
#
# Coordination Sequence:
#
# PCOD8278115 Si02
#       7
#    16  16  16  16  16  16  16
#     4   9  15  26  38  59  86 122 158 192 231 284
#     4  10  17  28  48  68  91 122 160 201 236 284
#     4  11  19  30  43  68  93 126 161 199 240 287
#     4   9  16  23  35  56  86 123 160 193 231 280
#     4   9  18  33  51  72  98 126 156 199 254 298
#     4  10  19  32  50  72  93 121 162 204 242 288
#     4   9  16  26  37  56  88 125 157 190 236 284
#
# _framework density 17.240199
#
# number of rings (size 3 to 8) (size 9 to 14) (size 15 to 20)
#    0.000    2.429    4.286    1.286    0.000    6.000 
#    0.000    0.000    0.000    1.714    0.000    0.000 
#    0.000    3.429    0.000    7.857    0.000    1.429 
#
# Total GULP energy -694009.627280 kJ/mol
# GULP energy per Si atom -12393.029059 kJ/mol
# Density = 1.720096 g / cm^3
# Si number density = 17.240199 Si / 1000 Ang^3
#
#
#
# Elastic Constant Matrix: (Units=GPa)
#
#
# Indices 1 2 3 4 5 6 
#
# 1 51.5277 15.5125 35.6602 0.0000 0.0000 0.0000
# 2 15.5125 82.5463 61.7798 0.0000 0.0000 0.0000
# 3 35.6602 61.7798 155.0475 0.0000 0.0000 0.0000
# 4 0.0000 0.0000 0.0000 33.7042 0.0000 0.0000
# 5 0.0000 0.0000 0.0000 0.0000 11.2596 0.0000
# 6 0.0000 0.0000 0.0000 0.0000 0.0000 5.1929
#
#
#
# Elastic Compliance Matrix: (Units=1/GPa)
#
#
# Indices 1 2 3 4 5 6 
#
# 1 0.023096 -0.000520 -0.005105 0.000000 0.000000 0.000000
# 2 -0.000520 0.017274 -0.006763 0.000000 0.000000 0.000000
# 3 -0.005105 -0.006763 0.010319 0.000000 0.000000 0.000000
# 4 0.000000 0.000000 0.000000 0.029670 0.000000 0.000000
# 5 0.000000 0.000000 0.000000 0.000000 0.088813 0.000000
# 6 0.000000 0.000000 0.000000 0.000000 0.000000 0.192572
#
#
# Mechanical properties :
#
#
# Convention : Reuss Voigt Hill
#
# Bulk Modulus (GPa) = 38.59078 57.22517 47.90798
# Shear Modulus (GPa) = 12.65318 21.77594 17.21456
#
# Velocity S-wave (km/s) = 2.71206 3.55785 3.16335
# Velocity P-wave (km/s) = 5.67801 7.08115 6.41804
#
# Compressibility (1/GPa) = 0.02591292
#
# Stress axis : x y z
#
# Youngs Moduli (GPa) = 43.29668 57.89048 96.91142
#
# Poissons Ratio (x) = 0.03009 0.49473
# Poissons Ratio (y) = 0.02250 0.65545
# Poissons Ratio (z) = 0.22103 0.39154
#
# Static dielectric constant tensor:
#      x y z
#    x 2.739000 0.000000 0.000000 
#    y 0.000000 3.287500 0.000000 
#    z 0.000000 0.000000 3.541370 
# 
# 
# High freq. dielectric constant tensor:
#      x y z
#    x 1.585830 0.000000 0.000000 
#    y 0.000000 1.663090 0.000000 
#    z 0.000000 0.000000 1.682950 
# 
# From -- ./inp_files/35110.got.cif
#   From: 2010.03.12/outbox.cif.g09.slc.cpg/sg67_18_cif.got.tgz:35110.got - 2010.04.10 22:41:39.
