data_PCOD8278608
_publ_section_title
;
Structure prediction by ZEFSAII (Michael W. Deem and Ramdas Pophale) SiO2 
 PCOD8278608
Probable space group: C M M A
;
_chemical_formula_sum "Si O2"
_cell_formula_units_Z 116
_cell_length_a 9.032754
_cell_length_b 27.509834
_cell_length_c 29.526119
_cell_angle_alpha 90.000000
_cell_angle_beta 90.000000
_cell_angle_gamma 90.000000
_cell_volume 7336.932410
_symmetry_space_group_name_H-M "C M M A"
_symmetry_group_IT_number 67
_symmetry_cell_setting 'orthorhombic'
loop_
_space_group_symop_operation_xyz
x,y,z
-x,1/2-y,z
x,-y,-z
-x,1/2+y,-z
-x,-y,-z
x,1/2+y,-z
-x,y,z
x,1/2-y,z
1/2+x,1/2+y,z
1/2-x,-y,z
1/2+x,1/2-y,-z
1/2-x,y,-z
1/2-x,1/2-y,-z
1/2+x,y,-z
1/2-x,1/2+y,z
1/2+x,-y,z
loop_
_atom_site_type_symbol
_atom_site_label
_atom_site_fract_x
_atom_site_fract_y
_atom_site_fract_z
Si Si1 0.825789 0.447870 0.765628
Si Si2 0.328869 0.805334 0.194062
Si Si3 0.326343 0.136401 0.715989
Si Si4 0.666757 0.692427 0.456078
Si Si5 0.171170 0.386342 0.854761
Si Si6 0.163812 0.454944 0.087085
Si Si7 0.750000 0.500000 0.000000
Si Si8 0.174674 0.693566 0.364098
O O1 0.750000 0.500000 0.764486
O O2 0.752171 0.414839 0.726624
O O3 0.793940 0.423371 0.814061
O O4 0.000000 0.452604 0.756203
O O5 0.500000 0.810792 0.181205
O O6 0.275670 0.750000 0.193546
O O7 0.296501 0.826074 0.243578
O O8 0.234252 0.833394 0.156463
O O9 0.500000 0.127593 0.707940
O O10 0.253599 0.159610 0.672087
O O11 0.500000 0.671043 0.453007
O O12 0.658309 0.750000 0.460286
O O13 0.750000 0.670623 0.500000
O O14 0.761090 0.677264 0.412382
O O15 0.250451 0.405693 0.900303
O O16 0.000000 0.381398 0.865492
O O17 0.250000 0.500000 0.110590
O O18 0.000000 0.452475 0.107606
O O19 0.154794 0.464248 0.032636
O O20 0.211866 0.750000 0.354039
O O21 0.000000 0.684362 0.363532
#
# Coordination Sequence:
#
# PCOD8278608 Si02
#       8
#    16  16  16  16  16  16   4  16
#     4  10  20  33  47  66  91 121 154 189 228 271
#     4   9  18  32  48  66  91 123 159 197 234 269
#     4  10  19  31  47  66  89 119 155 193 232 274
#     4   9  16  26  40  58  82 113 149 188 230 277
#     4  10  20  31  47  70  95 124 157 190 227 271
#     4  10  19  31  48  69  97 125 152 184 223 270
#     4   8  22  32  50  72 100 128 154 184 230 276
#     4  10  19  29  42  62  89 121 155 191 231 275
#
# _framework density 15.810423
#
# number of rings (size 3 to 8) (size 9 to 14) (size 15 to 20)
#    0.414    1.931    0.000    3.517    0.000    6.621 
#    0.000    0.000    0.000    0.000    0.000    0.483 
#    0.000    0.552    0.000    5.517    0.000    3.586 
#
# Total GULP energy -719050.276823 kJ/mol
# GULP energy per Si atom -12397.418566 kJ/mol
# Density = 1.577444 g / cm^3
# Si number density = 15.810423 Si / 1000 Ang^3
#
#
#
# Elastic Constant Matrix: (Units=GPa)
#
#
# Indices 1 2 3 4 5 6 
#
# 1 114.1504 52.7332 44.1366 0.0000 0.0000 0.0000
# 2 52.7332 97.5507 40.3237 0.0000 0.0000 0.0000
# 3 44.1366 40.3237 79.3561 0.0000 0.0000 0.0000
# 4 0.0000 0.0000 0.0000 20.6680 0.0000 0.0000
# 5 0.0000 0.0000 0.0000 0.0000 25.1754 0.0000
# 6 0.0000 0.0000 0.0000 0.0000 0.0000 27.1757
#
#
#
# Elastic Compliance Matrix: (Units=1/GPa)
#
#
# Indices 1 2 3 4 5 6 
#
# 1 0.012873 -0.005062 -0.004587 0.000000 0.000000 0.000000
# 2 -0.005062 0.014968 -0.004790 0.000000 0.000000 0.000000
# 3 -0.004587 -0.004790 0.017587 0.000000 0.000000 0.000000
# 4 0.000000 0.000000 0.000000 0.048384 0.000000 0.000000
# 5 0.000000 0.000000 0.000000 0.000000 0.039721 0.000000
# 6 0.000000 0.000000 0.000000 0.000000 0.000000 0.036798
#
#
# Mechanical properties :
#
#
# Convention : Reuss Voigt Hill
#
# Bulk Modulus (GPa) = 60.43066 62.82712 61.62889
# Shear Modulus (GPa) = 24.42302 24.86141 24.64221
#
# Velocity S-wave (km/s) = 3.93458 3.96974 3.95220
# Velocity P-wave (km/s) = 7.67765 7.79973 7.73893
#
# Compressibility (1/GPa) = 0.01654789
#
# Stress axis : x y z
#
# Youngs Moduli (GPa) = 77.68392 66.81067 56.86116
#
# Poissons Ratio (x) = 0.33823 0.26083
# Poissons Ratio (y) = 0.39327 0.27236
# Poissons Ratio (z) = 0.35635 0.32002
#
# Static dielectric constant tensor:
#      x y z
#    x 3.137500 0.000000 0.000000 
#    y 0.000000 2.834080 0.000000 
#    z 0.000000 0.000000 2.890690 
# 
# 
# High freq. dielectric constant tensor:
#      x y z
#    x 1.626590 0.000000 0.000000 
#    y 0.000000 1.575140 0.000000 
#    z 0.000000 0.000000 1.591480 
# 
# From -- ./inp_files/43801.got.cif
#   From: 2010.03.12/outbox.cif.g09.slc.cpg/sg67_22_cif.got.tgz:43801.got - 2010.04.10 22:41:39.
