data_PCOD8278805
_publ_section_title
;
Structure prediction by ZEFSAII (Michael W. Deem and Ramdas Pophale) SiO2 
 PCOD8278805
Probable space group: C M M A
;
_chemical_formula_sum "Si O2"
_cell_formula_units_Z 128
_cell_length_a 15.925346
_cell_length_b 25.153025
_cell_length_c 18.293430
_cell_angle_alpha 90.000000
_cell_angle_beta 90.000000
_cell_angle_gamma 90.000000
_cell_volume 7327.810708
_symmetry_space_group_name_H-M "C M M A"
_symmetry_group_IT_number 67
_symmetry_cell_setting 'orthorhombic'
loop_
_space_group_symop_operation_xyz
x,y,z
-x,1/2-y,z
x,-y,-z
-x,1/2+y,-z
-x,-y,-z
x,1/2+y,-z
-x,y,z
x,1/2-y,z
1/2+x,1/2+y,z
1/2-x,-y,z
1/2+x,1/2-y,-z
1/2-x,y,-z
1/2-x,1/2-y,-z
1/2+x,y,-z
1/2-x,1/2+y,z
1/2+x,-y,z
loop_
_atom_site_type_symbol
_atom_site_label
_atom_site_fract_x
_atom_site_fract_y
_atom_site_fract_z
Si Si1 0.656450 0.099786 0.329948
Si Si2 0.095042 0.066442 0.818849
Si Si3 0.406319 0.809387 0.407026
Si Si4 0.828936 0.689105 0.448887
Si Si5 0.749575 0.437018 0.081508
Si Si6 0.850053 0.499247 0.580574
Si Si7 0.154075 0.905337 0.677260
Si Si8 0.406078 0.557360 0.176396
O O1 0.603515 0.102009 0.254819
O O2 0.656728 0.154337 0.376149
O O3 0.617055 0.053866 0.380310
O O4 0.749352 0.082377 0.304521
O O5 0.165749 0.084481 0.877464
O O6 0.000000 0.075163 0.849646
O O7 0.110553 0.004087 0.801556
O O8 0.500000 0.817305 0.378303
O O9 0.372523 0.750000 0.391126
O O10 0.405929 0.819010 0.494776
O O11 0.347286 0.847970 0.360840
O O12 0.819674 0.750000 0.422501
O O13 0.750000 0.671446 0.500000
O O14 0.750000 0.500000 0.076979
O O15 0.836630 0.420103 0.120380
O O16 0.750000 0.412422 0.000000
O O17 0.889545 0.500000 0.500000
O O18 0.750000 0.500000 0.576086
O O19 0.884059 0.550998 0.622355
O O20 0.100427 0.906963 0.751034
O O21 0.500000 0.564176 0.143099
#
# Coordination Sequence:
#
# PCOD8278805 Si02
#       8
#    16  16  16  16  16  16  16  16
#     4  11  19  30  50  69  97 134 170 215 259 304
#     4  10  20  33  49  72 104 138 170 205 253 308
#     4  10  21  35  50  70  97 129 169 222 275 313
#     4  10  20  34  51  70  91 127 179 224 268 314
#     4   9  18  32  51  74 101 135 170 202 241 295
#     4   9  18  26  41  68  94 126 170 210 255 301
#     4  11  18  30  50  69  97 133 170 209 256 309
#     4  10  19  31  49  73 102 135 169 205 250 305
#
# _framework density 17.467700000000001
#
# number of rings (size 3 to 8) (size 9 to 14) (size 15 to 20)
#    0.000    2.000    3.750    1.125    1.750    1.000 
#    0.000    2.500    0.000    1.875    0.000    0.000 
#    0.000    2.000    0.000    2.375    0.000    0.250 
#
# Total GULP energy -793271.443311 kJ/mol
# GULP energy per Si atom -12394.866302 kJ/mol
# Density = 1.742794 g / cm^3
# Si number density = 17.467700 Si / 1000 Ang^3
#
#
#
# Elastic Constant Matrix: (Units=GPa)
#
#
# Indices 1 2 3 4 5 6 
#
# 1 93.8217 20.3590 48.9561 0.0000 0.0000 0.0000
# 2 20.3590 69.9652 37.3674 0.0000 0.0000 0.0000
# 3 48.9561 37.3674 126.5465 0.0000 0.0000 0.0000
# 4 0.0000 0.0000 0.0000 14.6504 0.0000 0.0000
# 5 0.0000 0.0000 0.0000 0.0000 16.0357 0.0000
# 6 0.0000 0.0000 0.0000 0.0000 0.0000 13.9144
#
#
#
# Elastic Compliance Matrix: (Units=1/GPa)
#
#
# Indices 1 2 3 4 5 6 
#
# 1 0.013461 -0.001348 -0.004809 0.000000 0.000000 0.000000
# 2 -0.001348 0.017104 -0.004529 0.000000 0.000000 0.000000
# 3 -0.004809 -0.004529 0.011100 0.000000 0.000000 0.000000
# 4 0.000000 0.000000 0.000000 0.068258 0.000000 0.000000
# 5 0.000000 0.000000 0.000000 0.000000 0.062361 0.000000
# 6 0.000000 0.000000 0.000000 0.000000 0.000000 0.071868
#
#
# Mechanical properties :
#
#
# Convention : Reuss Voigt Hill
#
# Bulk Modulus (GPa) = 49.28140 55.96647 52.62393
# Shear Modulus (GPa) = 18.36290 21.16349 19.76319
#
# Velocity S-wave (km/s) = 3.24581 3.48455 3.36730
# Velocity P-wave (km/s) = 6.50547 6.94975 6.73128
#
# Compressibility (1/GPa) = 0.02029163
#
# Stress axis : x y z
#
# Youngs Moduli (GPa) = 74.29109 58.46585 90.08936
#
# Poissons Ratio (x) = 0.07883 0.43326
# Poissons Ratio (y) = 0.10017 0.40801
# Poissons Ratio (z) = 0.35728 0.26479
#
# Static dielectric constant tensor:
#      x y z
#    x 3.272080 0.000000 0.000000 
#    y 0.000000 2.915310 0.000000 
#    z 0.000000 0.000000 3.210570 
# 
# 
# High freq. dielectric constant tensor:
#      x y z
#    x 1.678110 0.000000 0.000000 
#    y 0.000000 1.631850 0.000000 
#    z 0.000000 0.000000 1.656400 
# 
# From -- ./inp_files/34565.got.cif
#   From: 2010.03.12/outbox.cif.g09.slc.cpg/sg67_18_cif.got.tgz:34565.got - 2010.04.10 22:41:39.
