data_PCOD8278414
_publ_section_title
;
Structure prediction by ZEFSAII (Michael W. Deem and Ramdas Pophale) SiO2 
 PCOD8278414
Probable space group: C M M A
;
_chemical_formula_sum "Si O2"
_cell_formula_units_Z 96
_cell_length_a 24.003865
_cell_length_b 9.385247
_cell_length_c 24.447750
_cell_angle_alpha 90.000000
_cell_angle_beta 90.000000
_cell_angle_gamma 90.000000
_cell_volume 5507.642953
_symmetry_space_group_name_H-M "C M M A"
_symmetry_group_IT_number 67
_symmetry_cell_setting 'orthorhombic'
loop_
_space_group_symop_operation_xyz
x,y,z
-x,1/2-y,z
x,-y,-z
-x,1/2+y,-z
-x,-y,-z
x,1/2+y,-z
-x,y,z
x,1/2-y,z
1/2+x,1/2+y,z
1/2-x,-y,z
1/2+x,1/2-y,-z
1/2-x,y,-z
1/2-x,1/2-y,-z
1/2+x,y,-z
1/2-x,1/2+y,z
1/2+x,-y,z
loop_
_atom_site_type_symbol
_atom_site_label
_atom_site_fract_x
_atom_site_fract_y
_atom_site_fract_z
Si Si1 0.500000 0.090606 0.327389
Si Si2 0.610163 0.583268 0.728077
Si Si3 0.500000 0.960999 0.437394
Si Si4 0.878418 0.096264 0.446863
Si Si5 0.433671 0.411060 0.948797
Si Si6 0.564006 0.412401 0.154845
Si Si7 0.308006 0.920956 0.343346
O O1 0.500000 0.250000 0.304606
O O2 0.444114 0.019896 0.303296
O O3 0.500000 0.090337 0.393676
O O4 0.620573 0.750000 0.713607
O O5 0.602541 0.561795 0.792668
O O6 0.662154 0.486634 0.709975
O O7 0.557538 0.877994 0.427605
O O8 0.500000 0.000000 0.500000
O O9 0.853797 0.250000 0.462846
O O10 0.843662 0.033123 0.396538
O O11 0.872516 0.000000 0.500000
O O12 0.500000 0.411415 0.951141
O O13 0.410411 0.250000 0.950923
O O14 0.413538 0.485283 0.892911
O O15 0.409490 0.500000 0.000000
O O16 0.500000 0.446922 0.170473
O O17 0.568742 0.250000 0.134062
O O18 0.301628 0.750000 0.337451
O O19 0.250000 0.000000 0.350134
#
# Coordination Sequence:
#
# PCOD8278414 Si02
#       7
#     8  16   8  16  16  16  16
#     4  10  18  31  54  80 103 135 169 202 254 314
#     4  10  19  34  55  79 104 134 171 211 254 309
#     4  10  19  33  51  80 110 131 164 202 252 302
#     4  10  22  37  56  79 104 131 163 203 253 308
#     4   9  16  25  38  59  92 135 179 215 250 291
#     4   9  16  27  45  70 101 134 170 208 249 300
#     4  11  24  41  57  76  99 131 170 215 262 309
#
# _framework density 17.430325
#
# number of rings (size 3 to 8) (size 9 to 14) (size 15 to 20)
#    0.000    2.167    2.500    1.250    0.000    7.000 
#    0.000    2.083    0.000    0.000    0.000    0.000 
#    0.000    0.667    0.000    7.000    0.000    3.333 
#
# Total GULP energy -594871.292196 kJ/mol
# GULP energy per Si atom -12393.151921 kJ/mol
# Density = 1.739065 g / cm^3
# Si number density = 17.430325 Si / 1000 Ang^3
#
#
#
# Elastic Constant Matrix: (Units=GPa)
#
#
# Indices 1 2 3 4 5 6 
#
# 1 86.5958 38.1243 43.2153 0.0000 0.0000 0.0000
# 2 38.1243 105.2535 63.4828 0.0000 0.0000 0.0000
# 3 43.2153 63.4828 122.7726 0.0000 0.0000 0.0000
# 4 0.0000 0.0000 0.0000 32.8151 0.0000 0.0000
# 5 0.0000 0.0000 0.0000 0.0000 11.8846 0.0000
# 6 0.0000 0.0000 0.0000 0.0000 0.0000 17.2035
#
#
#
# Elastic Compliance Matrix: (Units=1/GPa)
#
#
# Indices 1 2 3 4 5 6 
#
# 1 0.014717 -0.003206 -0.003523 0.000000 0.000000 0.000000
# 2 -0.003206 0.014505 -0.006372 0.000000 0.000000 0.000000
# 3 -0.003523 -0.006372 0.012680 0.000000 0.000000 0.000000
# 4 0.000000 0.000000 0.000000 0.030474 0.000000 0.000000
# 5 0.000000 0.000000 0.000000 0.000000 0.084142 0.000000
# 6 0.000000 0.000000 0.000000 0.000000 0.000000 0.058128
#
#
# Mechanical properties :
#
#
# Convention : Reuss Voigt Hill
#
# Bulk Modulus (GPa) = 63.68904 67.14076 65.41490
# Shear Modulus (GPa) = 20.31848 23.70061 22.00955
#
# Velocity S-wave (km/s) = 3.41793 3.69146 3.55733
# Velocity P-wave (km/s) = 7.22460 7.53474 7.38130
#
# Compressibility (1/GPa) = 0.01570129
#
# Stress axis : x y z
#
# Youngs Moduli (GPa) = 67.94680 68.94040 78.86594
#
# Poissons Ratio (x) = 0.22104 0.27781
# Poissons Ratio (y) = 0.21785 0.50251
# Poissons Ratio (z) = 0.23935 0.43927
#
# Static dielectric constant tensor:
#      x y z
#    x 3.090300 0.000000 0.000000 
#    y 0.000000 3.235640 0.000000 
#    z 0.000000 0.000000 3.229800 
# 
# 
# High freq. dielectric constant tensor:
#      x y z
#    x 1.631630 0.000000 0.000000 
#    y 0.000000 1.671670 0.000000 
#    z 0.000000 0.000000 1.676460 
# 
# From -- ./inp_files/42592.got.cif
#   From: 2010.03.12/outbox.cif.g09.slc.cpg/sg67_22_cif.got.tgz:42592.got - 2010.04.10 22:41:39.
