data_PCOD8278145
_publ_section_title
;
Structure prediction by ZEFSAII (Michael W. Deem and Ramdas Pophale) SiO2 
 PCOD8278145
Probable space group: C M M A
;
_chemical_formula_sum "Si O2"
_cell_formula_units_Z 112
_cell_length_a 20.888563
_cell_length_b 23.024795
_cell_length_c 13.846811
_cell_angle_alpha 90.000000
_cell_angle_beta 90.000000
_cell_angle_gamma 90.000000
_cell_volume 6659.691336
_symmetry_space_group_name_H-M "C M M A"
_symmetry_group_IT_number 67
_symmetry_cell_setting 'orthorhombic'
loop_
_space_group_symop_operation_xyz
x,y,z
-x,1/2-y,z
x,-y,-z
-x,1/2+y,-z
-x,-y,-z
x,1/2+y,-z
-x,y,z
x,1/2-y,z
1/2+x,1/2+y,z
1/2-x,-y,z
1/2+x,1/2-y,-z
1/2-x,y,-z
1/2-x,1/2-y,-z
1/2+x,y,-z
1/2-x,1/2+y,z
1/2+x,-y,z
loop_
_atom_site_type_symbol
_atom_site_label
_atom_site_fract_x
_atom_site_fract_y
_atom_site_fract_z
Si Si1 0.823481 0.601157 0.500769
Si Si2 0.196386 0.084053 0.713067
Si Si3 0.572451 0.374912 0.782252
Si Si4 0.302377 0.316610 0.140333
Si Si5 0.159269 0.815723 0.927574
Si Si6 0.928543 0.816607 0.587903
Si Si7 0.667324 0.543344 0.308916
O O1 0.750000 0.623775 0.500000
O O2 0.839085 0.587701 0.390015
O O3 0.872326 0.650859 0.532626
O O4 0.833563 0.545136 0.572498
O O5 0.171925 0.136141 0.782020
O O6 0.273547 0.087072 0.713664
O O7 0.177198 0.018579 0.742836
O O8 0.500000 0.389206 0.809924
O O9 0.608015 0.358327 0.880511
O O10 0.578794 0.323721 0.703442
O O11 0.602213 0.432725 0.735679
O O12 0.314518 0.250000 0.176113
O O13 0.227781 0.326297 0.120778
O O14 0.340115 0.328756 0.041530
O O15 0.137262 0.750000 0.909953
O O16 0.920742 0.750000 0.560780
O O17 0.000000 0.838960 0.557484
#
# Coordination Sequence:
#
# PCOD8278145 Si02
#       7
#    16  16  16  16  16  16  16
#     4   9  18  30  46  73 100 130 169 213 248 289
#     4  10  17  31  52  70  98 134 168 202 251 299
#     4  10  18  31  51  74 100 130 165 204 249 298
#     4   9  18  31  50  74  99 126 159 206 250 292
#     4   9  17  31  49  71 100 128 159 200 250 297
#     4   9  18  31  46  69 102 135 166 204 253 304
#     4   9  18  31  48  73 101 129 166 207 247 291
#
# _framework density 16.817596000000002
#
# number of rings (size 3 to 8) (size 9 to 14) (size 15 to 20)
#    0.000    2.714    1.429    1.714    0.000    3.429 
#    0.000    1.429    0.000    6.000    0.000    0.000 
#    0.000    0.000    0.000    0.000    0.000    0.000 
#
# Total GULP energy -693829.057077 kJ/mol
# GULP energy per Si atom -12389.804591 kJ/mol
# Density = 1.677932 g / cm^3
# Si number density = 16.817596 Si / 1000 Ang^3
#
#
#
# Elastic Constant Matrix: (Units=GPa)
#
#
# Indices 1 2 3 4 5 6 
#
# 1 92.5662 35.0720 35.6905 0.0000 0.0000 0.0000
# 2 35.0720 85.1515 50.7479 0.0000 0.0000 0.0000
# 3 35.6905 50.7479 91.8500 0.0000 0.0000 0.0000
# 4 0.0000 0.0000 0.0000 24.0928 0.0000 0.0000
# 5 0.0000 0.0000 0.0000 0.0000 24.5406 0.0000
# 6 0.0000 0.0000 0.0000 0.0000 0.0000 15.2642
#
#
#
# Elastic Compliance Matrix: (Units=1/GPa)
#
#
# Indices 1 2 3 4 5 6 
#
# 1 0.013410 -0.003605 -0.003219 0.000000 0.000000 0.000000
# 2 -0.003605 0.018478 -0.008809 0.000000 0.000000 0.000000
# 3 -0.003219 -0.008809 0.017005 0.000000 0.000000 0.000000
# 4 0.000000 0.000000 0.000000 0.041506 0.000000 0.000000
# 5 0.000000 0.000000 0.000000 0.000000 0.040749 0.000000
# 6 0.000000 0.000000 0.000000 0.000000 0.000000 0.065513
#
#
# Mechanical properties :
#
#
# Convention : Reuss Voigt Hill
#
# Bulk Modulus (GPa) = 56.72731 56.95429 56.84080
# Shear Modulus (GPa) = 21.38557 22.64999 22.01778
#
# Velocity S-wave (km/s) = 3.56985 3.67386 3.62223
# Velocity P-wave (km/s) = 7.12712 7.20665 7.16700
#
# Compressibility (1/GPa) = 0.01762819
#
# Stress axis : x y z
#
# Youngs Moduli (GPa) = 74.57080 54.11775 58.80611
#
# Poissons Ratio (x) = 0.19508 0.18930
# Poissons Ratio (y) = 0.26881 0.51800
# Poissons Ratio (z) = 0.24005 0.47670
#
# Static dielectric constant tensor:
#      x y z
#    x 3.031810 0.000000 0.000000 
#    y 0.000000 2.970380 0.000000 
#    z 0.000000 0.000000 3.073180 
# 
# 
# High freq. dielectric constant tensor:
#      x y z
#    x 1.628830 0.000000 0.000000 
#    y 0.000000 1.637050 0.000000 
#    z 0.000000 0.000000 1.636980 
# 
# From -- ./inp_files/21256.got.cif
#   From: 2010.03.12/outbox.cif.g09.slc.cpg/sg67_11_cif.got.tgz:21256.got - 2010.04.10 22:41:39.
