data_PCOD8278154
_publ_section_title
;
Structure prediction by ZEFSAII (Michael W. Deem and Ramdas Pophale) SiO2 
 PCOD8278154
Probable space group: C M M A
;
_chemical_formula_sum "Si O2"
_cell_formula_units_Z 112
_cell_length_a 19.193463
_cell_length_b 28.633433
_cell_length_c 12.451471
_cell_angle_alpha 90.000000
_cell_angle_beta 90.000000
_cell_angle_gamma 90.000000
_cell_volume 6843.013898
_symmetry_space_group_name_H-M "C M M A"
_symmetry_group_IT_number 67
_symmetry_cell_setting 'orthorhombic'
loop_
_space_group_symop_operation_xyz
x,y,z
-x,1/2-y,z
x,-y,-z
-x,1/2+y,-z
-x,-y,-z
x,1/2+y,-z
-x,y,z
x,1/2-y,z
1/2+x,1/2+y,z
1/2-x,-y,z
1/2+x,1/2-y,-z
1/2-x,y,-z
1/2-x,1/2-y,-z
1/2+x,y,-z
1/2-x,1/2+y,z
1/2+x,-y,z
loop_
_atom_site_type_symbol
_atom_site_label
_atom_site_fract_x
_atom_site_fract_y
_atom_site_fract_z
Si Si1 0.658207 0.550066 0.320391
Si Si2 0.319783 0.447403 0.282276
Si Si3 0.082586 0.800278 0.789132
Si Si4 0.080728 0.802650 0.545819
Si Si5 0.330305 0.113845 0.478652
Si Si6 0.326558 0.553246 0.965169
Si Si7 0.582609 0.397999 0.867901
O O1 0.645800 0.494566 0.330778
O O2 0.736576 0.553730 0.278509
O O3 0.645190 0.575645 0.433529
O O4 0.606331 0.571903 0.233877
O O5 0.344799 0.406227 0.360156
O O6 0.343378 0.440056 0.160095
O O7 0.110032 0.750000 0.834926
O O8 0.108436 0.806283 0.667359
O O9 0.109232 0.844290 0.857302
O O10 0.000000 0.799324 0.787349
O O11 0.092017 0.750000 0.501959
O O12 0.125885 0.838751 0.477792
O O13 0.000000 0.816909 0.537377
O O14 0.250000 0.125989 0.500000
O O15 0.335454 0.500000 0.000000
O O16 0.250000 0.571026 0.000000
O O17 0.384827 0.583775 0.022767
O O18 0.500000 0.401213 0.875591
#
# Coordination Sequence:
#
# PCOD8278154 Si02
#       7
#    16  16  16  16  16  16  16
#     4  10  17  33  50  73 101 132 170 204 246 297
#     4  10  19  33  50  71 100 141 176 196 238 309
#     4   8  15  29  50  74  97 125 163 206 253 299
#     4   9  17  31  51  72  98 133 167 201 250 311
#     4  10  20  30  51  78 105 131 165 211 252 293
#     4  11  19  34  53  71  98 140 176 203 244 299
#     4  11  20  30  52  79 101 126 165 219 256 284
#
# _framework density 16.367056999999999
#
# number of rings (size 3 to 8) (size 9 to 14) (size 15 to 20)
#    0.000    2.143    4.286    2.143    0.000    2.286 
#    0.000    1.429    0.000    3.000    0.000    2.000 
#    0.000    0.000    0.000    0.000    0.000    0.000 
#
# Total GULP energy -694142.340365 kJ/mol
# GULP energy per Si atom -12395.398935 kJ/mol
# Density = 1.632980 g / cm^3
# Si number density = 16.367057 Si / 1000 Ang^3
#
#
#
# Elastic Constant Matrix: (Units=GPa)
#
#
# Indices 1 2 3 4 5 6 
#
# 1 56.6966 59.7690 37.9038 0.0000 0.0000 0.0000
# 2 59.7690 125.1467 56.2136 0.0000 0.0000 0.0000
# 3 37.9038 56.2136 113.0727 0.0000 0.0000 0.0000
# 4 0.0000 0.0000 0.0000 21.8876 0.0000 0.0000
# 5 0.0000 0.0000 0.0000 0.0000 18.1799 0.0000
# 6 0.0000 0.0000 0.0000 0.0000 0.0000 21.8577
#
#
#
# Elastic Compliance Matrix: (Units=1/GPa)
#
#
# Indices 1 2 3 4 5 6 
#
# 1 0.037370 -0.015734 -0.004705 0.000000 0.000000 0.000000
# 2 -0.015734 0.016913 -0.003134 0.000000 0.000000 0.000000
# 3 -0.004705 -0.003134 0.011979 0.000000 0.000000 0.000000
# 4 0.000000 0.000000 0.000000 0.045688 0.000000 0.000000
# 5 0.000000 0.000000 0.000000 0.000000 0.055006 0.000000
# 6 0.000000 0.000000 0.000000 0.000000 0.000000 0.045750
#
#
# Mechanical properties :
#
#
# Convention : Reuss Voigt Hill
#
# Bulk Modulus (GPa) = 52.31202 66.96543 59.63872
# Shear Modulus (GPa) = 18.78122 21.78703 20.28413
#
# Velocity S-wave (km/s) = 3.39115 3.65245 3.52423
# Velocity P-wave (km/s) = 6.88218 7.66752 7.28544
#
# Compressibility (1/GPa) = 0.01911606
#
# Stress axis : x y z
#
# Youngs Moduli (GPa) = 26.75945 59.12686 83.48002
#
# Poissons Ratio (x) = 0.93032 0.39276
# Poissons Ratio (y) = 0.42104 0.26160
# Poissons Ratio (z) = 0.12590 0.18529
#
# Static dielectric constant tensor:
#      x y z
#    x 2.850180 0.000000 0.000000 
#    y 0.000000 3.437320 0.000000 
#    z 0.000000 0.000000 3.017690 
# 
# 
# High freq. dielectric constant tensor:
#      x y z
#    x 1.604390 0.000000 0.000000 
#    y 0.000000 1.635010 0.000000 
#    z 0.000000 0.000000 1.616630 
# 
# From -- ./inp_files/18644.got.cif
#   From: 2010.03.12/outbox.cif.g09.slc.cpg/sg67_10_cif.got.tgz:18644.got - 2010.04.10 22:41:39.
