data_PCOD8278522
_publ_section_title
;
Structure prediction by ZEFSAII (Michael W. Deem and Ramdas Pophale) SiO2 
 PCOD8278522
Probable space group: C M M A
;
_chemical_formula_sum "Si O2"
_cell_formula_units_Z 56
_cell_length_a 14.870211
_cell_length_b 5.283899
_cell_length_c 31.751428
_cell_angle_alpha 90.000000
_cell_angle_beta 90.000000
_cell_angle_gamma 90.000000
_cell_volume 2494.795206
_symmetry_space_group_name_H-M "C M M A"
_symmetry_group_IT_number 67
_symmetry_cell_setting 'orthorhombic'
loop_
_space_group_symop_operation_xyz
x,y,z
-x,1/2-y,z
x,-y,-z
-x,1/2+y,-z
-x,-y,-z
x,1/2+y,-z
-x,y,z
x,1/2-y,z
1/2+x,1/2+y,z
1/2-x,-y,z
1/2+x,1/2-y,-z
1/2-x,y,-z
1/2-x,1/2-y,-z
1/2+x,y,-z
1/2-x,1/2+y,z
1/2+x,-y,z
loop_
_atom_site_type_symbol
_atom_site_label
_atom_site_fract_x
_atom_site_fract_y
_atom_site_fract_z
Si Si1 0.151412 0.750000 0.761549
Si Si2 0.106628 0.250000 0.618335
Si Si3 0.392660 0.250000 0.476478
Si Si4 0.309042 0.750000 0.890748
Si Si5 0.394957 0.250000 0.021528
Si Si6 0.352952 0.250000 0.202837
Si Si7 0.892938 0.750000 0.667054
O O1 0.249244 0.750000 0.782775
O O2 0.099264 0.499361 0.777823
O O3 0.158021 0.750000 0.711364
O O4 0.145289 0.250000 0.571024
O O5 0.140164 0.502142 0.641980
O O6 0.000000 0.250000 0.616563
O O7 0.500000 0.250000 0.476518
O O8 0.356071 0.500000 0.500000
O O9 0.250000 0.500000 0.893386
O O10 0.379455 0.750000 0.928669
O O11 0.364205 0.750000 0.847327
O O12 0.500000 0.250000 0.012275
O O13 0.351307 0.500000 0.000000
O O14 0.000000 0.750000 0.674193
#
# Coordination Sequence:
#
# PCOD8278522 Si02
#       7
#     8   8   8   8   8   8   8
#     4  10  18  33  52  70  96 133 163 205 260 307
#     4   9  17  28  40  60  93 128 163 205 246 295
#     4   9  15  23  37  56  80 119 166 202 238 289
#     4  12  21  37  63  88 116 145 192 235 277 330
#     4  10  23  42  60  85 123 158 186 226 281 333
#     4  10  19  35  54  74  99 131 162 214 266 296
#     4  10  19  30  45  67  96 131 166 199 246 309
#
# _framework density 22.446732999999998
#
# number of rings (size 3 to 8) (size 9 to 14) (size 15 to 20)
#    0.000    2.000    2.857    2.571    0.000    5.143 
#    0.000    1.429    0.000    0.000    0.000    0.000 
#    0.000    0.000    0.000  180.000    0.000   80.000 
#
# Total GULP energy -347151.510310 kJ/mol
# GULP energy per Si atom -12398.268225 kJ/mol
# Density = 2.239564 g / cm^3
# Si number density = 22.446733 Si / 1000 Ang^3
#
#
#
# Elastic Constant Matrix: (Units=GPa)
#
#
# Indices 1 2 3 4 5 6 
#
# 1 11.6770 1.8434 6.3528 0.0000 0.0000 0.0000
# 2 1.8434 266.2412 102.7435 0.0000 0.0000 0.0000
# 3 6.3528 102.7435 232.0554 0.0000 0.0000 0.0000
# 4 0.0000 0.0000 0.0000 50.5711 0.0000 0.0000
# 5 0.0000 0.0000 0.0000 0.0000 -7.3990 0.0000
# 6 0.0000 0.0000 0.0000 0.0000 0.0000 -1.3382
#
#
#
# Elastic Compliance Matrix: (Units=1/GPa)
#
#
# Indices 1 2 3 4 5 6 
#
# 1 0.086965 0.000382 -0.002550 0.000000 0.000000 0.000000
# 2 0.000382 0.004532 -0.002017 0.000000 0.000000 0.000000
# 3 -0.002550 -0.002017 0.005272 0.000000 0.000000 0.000000
# 4 0.000000 0.000000 0.000000 0.019774 0.000000 0.000000
# 5 0.000000 0.000000 0.000000 0.000000 -0.135153 0.000000
# 6 0.000000 0.000000 0.000000 0.000000 0.000000 -0.747266
#
#
# Mechanical properties :
#
#
# Convention : Reuss Voigt Hill
#
# Bulk Modulus (GPa) = 11.31229 81.31699 46.31464
# Shear Modulus (GPa) = -6.86775 34.96903 14.05064
#
# Velocity S-wave (km/s) = -1.75106 3.95126 2.50462
# Velocity P-wave (km/s) = 0.98095 7.55791 5.38907
#
# Compressibility (1/GPa) = 0.08839945
#
# Stress axis : x y z
#
# Youngs Moduli (GPa) = 11.49883 220.66942 189.67775
#
# Poissons Ratio (x) = -0.08427 0.48365
# Poissons Ratio (y) = -0.00439 0.38256
# Poissons Ratio (z) = 0.02932 0.44506
#
# Static dielectric constant tensor:
#      x y z
#    x 3.263730 0.000000 0.000000 
#    y 0.000000 6.791560 0.000000 
#    z 0.000000 0.000000 4.193070 
# 
# 
# High freq. dielectric constant tensor:
#      x y z
#    x 1.828110 0.000000 0.000000 
#    y 0.000000 1.918220 0.000000 
#    z 0.000000 0.000000 1.896800 
# 
# From -- ./inp_files/44405.got.cif
#   From: 2010.03.12/outbox.cif.g09.slc.cpg/sg67_23_cif.got.tgz:44405.got - 2010.04.10 22:41:39.
