data_PCOD8278521
_publ_section_title
;
Structure prediction by ZEFSAII (Michael W. Deem and Ramdas Pophale) SiO2 
 PCOD8278521
Probable space group: C M M A
;
_chemical_formula_sum "Si O2"
_cell_formula_units_Z 72
_cell_length_a 26.713985
_cell_length_b 8.608942
_cell_length_c 14.106239
_cell_angle_alpha 90.000000
_cell_angle_beta 90.000000
_cell_angle_gamma 90.000000
_cell_volume 3244.140819
_symmetry_space_group_name_H-M "C M M A"
_symmetry_group_IT_number 67
_symmetry_cell_setting 'orthorhombic'
loop_
_space_group_symop_operation_xyz
x,y,z
-x,1/2-y,z
x,-y,-z
-x,1/2+y,-z
-x,-y,-z
x,1/2+y,-z
-x,y,z
x,1/2-y,z
1/2+x,1/2+y,z
1/2-x,-y,z
1/2+x,1/2-y,-z
1/2-x,y,-z
1/2-x,1/2-y,-z
1/2+x,y,-z
1/2-x,1/2+y,z
1/2+x,-y,z
loop_
_atom_site_type_symbol
_atom_site_label
_atom_site_fract_x
_atom_site_fract_y
_atom_site_fract_z
Si Si1 0.946179 0.067555 0.604380
Si Si2 0.897806 0.934584 0.104888
Si Si3 0.000000 0.064976 0.106280
Si Si4 0.654253 0.932522 0.395132
Si Si5 0.699060 0.066736 0.219695
O O1 0.934696 0.250000 0.599990
O O2 0.000000 0.035583 0.655966
O O3 0.950021 0.000000 0.500000
O O4 0.899065 0.983293 0.652942
O O5 0.901576 0.750000 0.103580
O O6 0.848831 0.992623 0.160787
O O7 0.948746 0.000667 0.154765
O O8 0.892596 0.000000 0.000000
O O9 0.000000 0.250000 0.107341
O O10 0.000000 0.000000 0.000000
O O11 0.658764 0.750000 0.400370
O O12 0.661001 0.000000 0.500000
O O13 0.696599 0.000903 0.326756
O O14 0.701580 0.250000 0.221502
O O15 0.750000 0.000000 0.172974
#
# Coordination Sequence:
#
# PCOD8278521 Si02
#       5
#    16  16   8  16  16
#     4   9  16  28  49  77 110 148 189 237 294 354
#     4  10  21  39  65  95 129 166 203 248 304 365
#     4  10  18  32  60  94 129 164 203 248 298 360
#     4  11  22  38  61  86 117 157 204 256 309 367
#     4  11  25  44  64  89 122 161 207 259 311 365
#
# _framework density 22.193859
#
# number of rings (size 3 to 8) (size 9 to 14) (size 15 to 20)
#    0.000    1.778    0.000    7.667    0.000    5.778 
#    2.000    4.444    0.000    0.000    0.000    0.000 
#    0.000    0.000    0.000    0.000    0.000    0.000 
#
# Total GULP energy -446231.713530 kJ/mol
# GULP energy per Si atom -12395.325376 kJ/mol
# Density = 2.214334 g / cm^3
# Si number density = 22.193859 Si / 1000 Ang^3
#
#
#
# Elastic Constant Matrix: (Units=GPa)
#
#
# Indices 1 2 3 4 5 6 
#
# 1 196.2012 62.9743 55.8781 0.0000 0.0000 0.0000
# 2 62.9743 123.2446 21.7846 0.0000 0.0000 0.0000
# 3 55.8781 21.7846 48.0881 0.0000 0.0000 0.0000
# 4 0.0000 0.0000 0.0000 23.7537 0.0000 0.0000
# 5 0.0000 0.0000 0.0000 0.0000 33.5867 0.0000
# 6 0.0000 0.0000 0.0000 0.0000 0.0000 42.6818
#
#
#
# Elastic Compliance Matrix: (Units=1/GPa)
#
#
# Indices 1 2 3 4 5 6 
#
# 1 0.008420 -0.002797 -0.008517 0.000000 0.000000 0.000000
# 2 -0.002797 0.009749 -0.001166 0.000000 0.000000 0.000000
# 3 -0.008517 -0.001166 0.031221 0.000000 0.000000 0.000000
# 4 0.000000 0.000000 0.000000 0.042099 0.000000 0.000000
# 5 0.000000 0.000000 0.000000 0.000000 0.029774 0.000000
# 6 0.000000 0.000000 0.000000 0.000000 0.000000 0.023429
#
#
# Mechanical properties :
#
#
# Convention : Reuss Voigt Hill
#
# Bulk Modulus (GPa) = 40.93537 72.08976 56.51257
# Shear Modulus (GPa) = 28.12212 35.13091 31.62651
#
# Velocity S-wave (km/s) = 3.56351 3.98290 3.77903
# Velocity P-wave (km/s) = 5.95114 7.32828 6.67532
#
# Compressibility (1/GPa) = 0.02442875
#
# Stress axis : x y z
#
# Youngs Moduli (GPa) = 118.76123 102.57131 32.03017
#
# Poissons Ratio (x) = 0.28689 0.27281
# Poissons Ratio (y) = 0.33218 0.03736
# Poissons Ratio (z) = 1.01151 0.11965
#
# Static dielectric constant tensor:
#      x y z
#    x 5.069390 0.000000 0.000000 
#    y 0.000000 3.965430 0.000000 
#    z 0.000000 0.000000 3.969350 
# 
# 
# High freq. dielectric constant tensor:
#      x y z
#    x 1.896350 0.000000 0.000000 
#    y 0.000000 1.880490 0.000000 
#    z 0.000000 0.000000 1.848460 
# 
# From -- ./inp_files/30543.got.cif
#   From: 2010.03.12/outbox.cif.g09.slc.cpg/sg67_16_cif.got.tgz:30543.got - 2010.04.10 22:41:39.
