data_PCOD8278741
_publ_section_title
;
Structure prediction by ZEFSAII (Michael W. Deem and Ramdas Pophale) SiO2 
 PCOD8278741
Probable space group: C M M A
;
_chemical_formula_sum "Si O2"
_cell_formula_units_Z 88
_cell_length_a 33.766640
_cell_length_b 9.557044
_cell_length_c 18.839016
_cell_angle_alpha 90.000000
_cell_angle_beta 90.000000
_cell_angle_gamma 90.000000
_cell_volume 6079.524992
_symmetry_space_group_name_H-M "C M M A"
_symmetry_group_IT_number 67
_symmetry_cell_setting 'orthorhombic'
loop_
_space_group_symop_operation_xyz
x,y,z
-x,1/2-y,z
x,-y,-z
-x,1/2+y,-z
-x,-y,-z
x,1/2+y,-z
-x,y,z
x,1/2-y,z
1/2+x,1/2+y,z
1/2-x,-y,z
1/2+x,1/2-y,-z
1/2-x,y,-z
1/2-x,1/2-y,-z
1/2+x,y,-z
1/2-x,1/2+y,z
1/2+x,-y,z
loop_
_atom_site_type_symbol
_atom_site_label
_atom_site_fract_x
_atom_site_fract_y
_atom_site_fract_z
Si Si1 0.074462 0.587127 0.666176
Si Si2 0.953465 0.585434 0.204139
Si Si3 0.000000 0.089807 0.430183
Si Si4 0.288499 0.250000 0.579927
Si Si5 0.453098 0.089607 0.933927
Si Si6 0.153383 0.988147 0.583604
Si Si7 0.701140 0.750000 0.587535
O O1 0.073460 0.750000 0.690279
O O2 0.071571 0.483649 0.732729
O O3 0.038341 0.552076 0.614939
O O4 0.113901 0.552566 0.623824
O O5 0.942870 0.750000 0.195469
O O6 0.940546 0.498342 0.135063
O O7 0.000000 0.566596 0.219276
O O8 0.000000 0.250000 0.454065
O O9 0.000000 0.000000 0.500000
O O10 0.312348 0.117057 0.605113
O O11 0.288287 0.250000 0.495090
O O12 0.245641 0.250000 0.619423
O O13 0.500000 0.099153 0.939978
O O14 0.436154 0.250000 0.932415
O O15 0.435988 0.000000 0.000000
O O16 0.143730 0.000000 0.500000
O O17 0.173062 0.126892 0.613217
#
# Coordination Sequence:
#
# PCOD8278741 Si02
#       7
#    16  16   8   8  16  16   8
#     4  11  21  34  46  60  85 117 152 189 232 271
#     4  10  20  32  46  64  85 114 153 192 228 266
#     4  10  22  36  48  60  77 110 153 198 238 270
#     4   9  16  32  46  67  87 107 134 174 229 285
#     4   9  16  27  45  67  90 114 143 182 222 263
#     4  10  19  31  46  66  87 110 144 187 229 277
#     4   9  18  28  50  67  85 107 134 176 229 283
#
# _framework density 14.474814
#
# number of rings (size 3 to 8) (size 9 to 14) (size 15 to 20)
#    0.000    2.182    1.818    2.182    1.273    5.818 
#    0.000    0.000    0.000    0.000    0.000    0.000 
#    0.000    0.000    0.000    0.000    0.000    5.455 
#
# Total GULP energy -545257.020741 kJ/mol
# GULP energy per Si atom -12392.205017 kJ/mol
# Density = 1.444187 g / cm^3
# Si number density = 14.474814 Si / 1000 Ang^3
#
#
#
# Elastic Constant Matrix: (Units=GPa)
#
#
# Indices 1 2 3 4 5 6 
#
# 1 69.1406 29.2202 23.8007 0.0000 0.0000 0.0000
# 2 29.2202 127.4869 49.8589 0.0000 0.0000 0.0000
# 3 23.8007 49.8589 77.8633 0.0000 0.0000 0.0000
# 4 0.0000 0.0000 0.0000 27.7566 0.0000 0.0000
# 5 0.0000 0.0000 0.0000 0.0000 11.3956 0.0000
# 6 0.0000 0.0000 0.0000 0.0000 0.0000 19.5021
#
#
#
# Elastic Compliance Matrix: (Units=1/GPa)
#
#
# Indices 1 2 3 4 5 6 
#
# 1 0.016717 -0.002446 -0.003544 0.000000 0.000000 0.000000
# 2 -0.002446 0.010822 -0.006182 0.000000 0.000000 0.000000
# 3 -0.003544 -0.006182 0.017885 0.000000 0.000000 0.000000
# 4 0.000000 0.000000 0.000000 0.036027 0.000000 0.000000
# 5 0.000000 0.000000 0.000000 0.000000 0.087753 0.000000
# 6 0.000000 0.000000 0.000000 0.000000 0.000000 0.051276
#
#
# Mechanical properties :
#
#
# Convention : Reuss Voigt Hill
#
# Bulk Modulus (GPa) = 47.43712 53.36114 50.39913
# Shear Modulus (GPa) = 19.85293 23.17160 21.51227
#
# Velocity S-wave (km/s) = 3.70746 4.00537 3.85929
# Velocity P-wave (km/s) = 7.15335 7.63777 7.39952
#
# Compressibility (1/GPa) = 0.02108054
#
# Stress axis : x y z
#
# Youngs Moduli (GPa) = 59.82032 92.40132 55.91226
#
# Poissons Ratio (x) = 0.22597 0.19815
# Poissons Ratio (y) = 0.14629 0.34567
# Poissons Ratio (z) = 0.21200 0.57127
#
# Static dielectric constant tensor:
#      x y z
#    x 2.691170 0.000000 0.000000 
#    y 0.000000 3.721660 0.000000 
#    z 0.000000 0.000000 2.920080 
# 
# 
# High freq. dielectric constant tensor:
#      x y z
#    x 1.524480 0.000000 0.000000 
#    y 0.000000 1.578830 0.000000 
#    z 0.000000 0.000000 1.522870 
# 
# From -- ./inp_files/36219.got.cif
#   From: 2010.03.12/outbox.cif.g09.slc.cpg/sg67_19_cif.got.tgz:36219.got - 2010.04.10 22:41:39.
