data_PCOD8278280
_publ_section_title
;
Structure prediction by ZEFSAII (Michael W. Deem and Ramdas Pophale) SiO2 
 PCOD8278280
Probable space group: C M M A
;
_chemical_formula_sum "Si O2"
_cell_formula_units_Z 88
_cell_length_a 15.576630
_cell_length_b 20.023007
_cell_length_c 16.027693
_cell_angle_alpha 90.000000
_cell_angle_beta 90.000000
_cell_angle_gamma 90.000000
_cell_volume 4998.892741
_symmetry_space_group_name_H-M "C M M A"
_symmetry_group_IT_number 67
_symmetry_cell_setting 'orthorhombic'
loop_
_space_group_symop_operation_xyz
x,y,z
-x,1/2-y,z
x,-y,-z
-x,1/2+y,-z
-x,-y,-z
x,1/2+y,-z
-x,y,z
x,1/2-y,z
1/2+x,1/2+y,z
1/2-x,-y,z
1/2+x,1/2-y,-z
1/2-x,y,-z
1/2-x,1/2-y,-z
1/2+x,y,-z
1/2-x,1/2+y,z
1/2+x,-y,z
loop_
_atom_site_type_symbol
_atom_site_label
_atom_site_fract_x
_atom_site_fract_y
_atom_site_fract_z
Si Si1 0.207851 0.621377 0.192309
Si Si2 0.900991 0.675488 0.340543
Si Si3 0.326943 0.177697 0.935313
Si Si4 0.098145 0.431589 0.961388
Si Si5 0.098330 0.464486 0.587786
Si Si6 0.750000 0.000000 0.297743
O O1 0.151148 0.665455 0.255034
O O2 0.285326 0.664851 0.155022
O O3 0.149322 0.589026 0.120713
O O4 0.257008 0.564523 0.241598
O O5 0.878804 0.750000 0.377007
O O6 0.882067 0.616236 0.408751
O O7 0.000000 0.672541 0.314660
O O8 0.372609 0.250000 0.933784
O O9 0.250000 0.176612 0.000000
O O10 0.395958 0.123236 0.964777
O O11 0.000000 0.441283 0.934624
O O12 0.136148 0.500000 0.000000
O O13 0.115659 0.500000 0.500000
O O14 0.162481 0.501337 0.649672
O O15 0.000000 0.477136 0.615795
#
# Coordination Sequence:
#
# PCOD8278280 Si02
#       6
#    16  16  16  16  16   8
#     4  10  18  30  47  68  95 126 157 199 249 292
#     4   9  17  29  48  75 101 124 156 200 250 300
#     4   9  18  31  46  64  88 120 156 193 237 287
#     4  10  20  32  46  65  90 123 165 206 241 282
#     4   9  18  33  53  76 102 131 162 197 239 291
#     4  10  19  30  51  76 100 130 164 200 243 294
#
# _framework density 17.603898000000001
#
# number of rings (size 3 to 8) (size 9 to 14) (size 15 to 20)
#    0.000    2.545    0.000    2.455    0.000    4.364 
#    0.000    0.909    0.000    9.818    0.000    0.000 
#    0.000    0.000    0.000    0.000    0.000    0.000 
#
# Total GULP energy -545249.062088 kJ/mol
# GULP energy per Si atom -12392.024138 kJ/mol
# Density = 1.756383 g / cm^3
# Si number density = 17.603898 Si / 1000 Ang^3
#
#
#
# Elastic Constant Matrix: (Units=GPa)
#
#
# Indices 1 2 3 4 5 6 
#
# 1 48.0694 37.1913 29.4437 0.0000 0.0000 0.0000
# 2 37.1913 149.4697 60.5840 0.0000 0.0000 0.0000
# 3 29.4437 60.5840 87.8483 0.0000 0.0000 0.0000
# 4 0.0000 0.0000 0.0000 20.3796 0.0000 0.0000
# 5 0.0000 0.0000 0.0000 0.0000 75.5458 0.0000
# 6 0.0000 0.0000 0.0000 0.0000 0.0000 16.9355
#
#
#
# Elastic Compliance Matrix: (Units=1/GPa)
#
#
# Indices 1 2 3 4 5 6 
#
# 1 0.028127 -0.004410 -0.006386 0.000000 0.000000 0.000000
# 2 -0.004410 0.009978 -0.005403 0.000000 0.000000 0.000000
# 3 -0.006386 -0.005403 0.017250 0.000000 0.000000 0.000000
# 4 0.000000 0.000000 0.000000 0.049069 0.000000 0.000000
# 5 0.000000 0.000000 0.000000 0.000000 0.013237 0.000000
# 6 0.000000 0.000000 0.000000 0.000000 0.000000 0.059048
#
#
# Mechanical properties :
#
#
# Convention : Reuss Voigt Hill
#
# Bulk Modulus (GPa) = 43.56065 59.98062 51.77063
# Shear Modulus (GPa) = 23.06731 33.11672 28.09201
#
# Velocity S-wave (km/s) = 3.62381 4.34200 3.99906
# Velocity P-wave (km/s) = 6.50445 7.69959 7.12711
#
# Compressibility (1/GPa) = 0.02295650
#
# Stress axis : x y z
#
# Youngs Moduli (GPa) = 35.55324 100.22451 57.97264
#
# Poissons Ratio (x) = 0.44202 0.37019
# Poissons Ratio (y) = 0.15680 0.31321
# Poissons Ratio (z) = 0.22703 0.54149
#
# Static dielectric constant tensor:
#      x y z
#    x 3.178100 0.000000 0.000000 
#    y 0.000000 3.728590 0.000000 
#    z 0.000000 0.000000 3.236300 
# 
# 
# High freq. dielectric constant tensor:
#      x y z
#    x 1.670620 0.000000 0.000000 
#    y 0.000000 1.693670 0.000000 
#    z 0.000000 0.000000 1.661150 
# 
# From -- ./inp_files/28470.got.cif
#   From: 2010.03.12/outbox.cif.g09.slc.cpg/sg67_15_cif.got.tgz:28470.got - 2010.04.10 22:41:39.
