data_PCOD8278772
_publ_section_title
;
Structure prediction by ZEFSAII (Michael W. Deem and Ramdas Pophale) SiO2 
 PCOD8278772
Probable space group: C M M A
;
_chemical_formula_sum "Si O2"
_cell_formula_units_Z 88
_cell_length_a 26.178176
_cell_length_b 34.631300
_cell_length_c 5.053031
_cell_angle_alpha 90.000000
_cell_angle_beta 90.000000
_cell_angle_gamma 90.000000
_cell_volume 4580.998403
_symmetry_space_group_name_H-M "C M M A"
_symmetry_group_IT_number 67
_symmetry_cell_setting 'orthorhombic'
loop_
_space_group_symop_operation_xyz
x,y,z
-x,1/2-y,z
x,-y,-z
-x,1/2+y,-z
-x,-y,-z
x,1/2+y,-z
-x,y,z
x,1/2-y,z
1/2+x,1/2+y,z
1/2-x,-y,z
1/2+x,1/2-y,-z
1/2-x,y,-z
1/2-x,1/2-y,-z
1/2+x,y,-z
1/2-x,1/2+y,z
1/2+x,-y,z
loop_
_atom_site_type_symbol
_atom_site_label
_atom_site_fract_x
_atom_site_fract_y
_atom_site_fract_z
Si Si1 0.690122 0.824925 0.005462
Si Si2 0.189066 0.043487 0.495334
Si Si3 0.879078 0.794543 0.578731
Si Si4 0.943469 0.205744 0.896846
Si Si5 0.712743 0.750000 0.749107
Si Si6 0.810930 0.089717 0.989563
O O1 0.671484 0.815190 0.304101
O O2 0.677497 0.789727 0.790063
O O3 0.666835 0.866998 0.940879
O O4 0.750000 0.829484 0.000000
O O5 0.250000 0.042297 0.500000
O O6 0.167530 0.064123 0.753582
O O7 0.167241 0.000000 0.500000
O O8 0.168148 0.068886 0.252136
O O9 0.860849 0.750000 0.526058
O O10 0.921191 0.797246 0.810379
O O11 0.905613 0.814310 0.319865
O O12 0.948283 0.250000 0.804710
O O13 0.000000 0.186741 0.892279
O O14 0.750000 0.750000 0.500000
O O15 0.750000 0.750000 0.000000
O O16 0.750000 0.090697 0.000000
#
# Coordination Sequence:
#
# PCOD8278772 Si02
#       6
#    16  16  16  16   8  16
#     4  10  21  35  46  66  96 130 169 202 232 271
#     4   9  16  28  44  62  80 105 146 193 236 278
#     4  10  19  31  48  67  87 119 157 195 240 280
#     4   9  18  32  49  67  85 106 146 203 252 291
#     4  10  22  34  46  58  81 128 171 206 232 252
#     4   9  18  28  43  61  85 115 148 191 233 271
#
# _framework density 19.209789000000001
#
# number of rings (size 3 to 8) (size 9 to 14) (size 15 to 20)
#    0.000    2.545    0.909    1.091    0.000   13.818 
#    0.000    0.000    0.000    0.000    0.000    0.000 
#    0.000    0.000    0.000    0.000    0.000   63.636 
#
# Total GULP energy -545238.295766 kJ/mol
# GULP energy per Si atom -12391.779449 kJ/mol
# Density = 1.916607 g / cm^3
# Si number density = 19.209789 Si / 1000 Ang^3
#
#
#
# Elastic Constant Matrix: (Units=GPa)
#
#
# Indices 1 2 3 4 5 6 
#
# 1 60.5745 14.7099 3.5235 0.0000 0.0000 0.0000
# 2 14.7099 160.4179 66.9153 0.0000 0.0000 0.0000
# 3 3.5235 66.9153 112.2770 0.0000 0.0000 0.0000
# 4 0.0000 0.0000 0.0000 26.0681 0.0000 0.0000
# 5 0.0000 0.0000 0.0000 0.0000 18.9750 0.0000
# 6 0.0000 0.0000 0.0000 0.0000 0.0000 1.4105
#
#
#
# Elastic Compliance Matrix: (Units=1/GPa)
#
#
# Indices 1 2 3 4 5 6 
#
# 1 0.016908 -0.001769 0.000524 0.000000 0.000000 0.000000
# 2 -0.001769 0.008481 -0.004999 0.000000 0.000000 0.000000
# 3 0.000524 -0.004999 0.011870 0.000000 0.000000 0.000000
# 4 0.000000 0.000000 0.000000 0.038361 0.000000 0.000000
# 5 0.000000 0.000000 0.000000 0.000000 0.052701 0.000000
# 6 0.000000 0.000000 0.000000 0.000000 0.000000 0.708981
#
#
# Mechanical properties :
#
#
# Convention : Reuss Voigt Hill
#
# Bulk Modulus (GPa) = 40.37197 55.95185 48.16191
# Shear Modulus (GPa) = 5.82719 25.83209 15.82964
#
# Velocity S-wave (km/s) = 1.74357 3.67104 2.87372
# Velocity P-wave (km/s) = 5.01152 6.86722 6.01141
#
# Compressibility (1/GPa) = 0.02476966
#
# Stress axis : x y z
#
# Youngs Moduli (GPa) = 59.14475 117.90766 84.24934
#
# Poissons Ratio (x) = 0.20855 -0.04411
# Poissons Ratio (y) = 0.10461 0.42118
# Poissons Ratio (z) = -0.03097 0.58944
#
# Static dielectric constant tensor:
#      x y z
#    x 3.367080 0.000000 0.000000 
#    y 0.000000 3.997960 0.000000 
#    z 0.000000 0.000000 3.909640 
# 
# 
# High freq. dielectric constant tensor:
#      x y z
#    x 1.699200 0.000000 0.000000 
#    y 0.000000 1.714010 0.000000 
#    z 0.000000 0.000000 1.779160 
# 
# From -- ./inp_files/4272.got.cif
#   From: 2010.03.12/outbox.cif.g09.slc.cpg/sg67_3_cif.got.tgz:4272.got - 2010.04.10 22:41:39.
