data_PCOD8278193
_publ_section_title
;
Structure prediction by ZEFSAII (Michael W. Deem and Ramdas Pophale) SiO2 
 PCOD8278193
Probable space group: C M M A
;
_chemical_formula_sum "Si O2"
_cell_formula_units_Z 104
_cell_length_a 27.931456
_cell_length_b 8.887759
_cell_length_c 23.269681
_cell_angle_alpha 90.000000
_cell_angle_beta 90.000000
_cell_angle_gamma 90.000000
_cell_volume 5776.652920
_symmetry_space_group_name_H-M "C M M A"
_symmetry_group_IT_number 67
_symmetry_cell_setting 'orthorhombic'
loop_
_space_group_symop_operation_xyz
x,y,z
-x,1/2-y,z
x,-y,-z
-x,1/2+y,-z
-x,-y,-z
x,1/2+y,-z
-x,y,z
x,1/2-y,z
1/2+x,1/2+y,z
1/2-x,-y,z
1/2+x,1/2-y,-z
1/2-x,y,-z
1/2-x,1/2-y,-z
1/2+x,y,-z
1/2-x,1/2+y,z
1/2+x,-y,z
loop_
_atom_site_type_symbol
_atom_site_label
_atom_site_fract_x
_atom_site_fract_y
_atom_site_fract_z
Si Si1 0.944812 0.571461 0.264980
Si Si2 0.000000 0.928276 0.062694
Si Si3 0.407274 0.421514 0.940864
Si Si4 0.632185 0.583389 0.646694
Si Si5 0.299442 0.070810 0.562026
Si Si6 0.297060 0.084422 0.248075
Si Si7 0.627184 0.421408 0.819763
O O1 0.941786 0.750000 0.257482
O O2 0.917912 0.525239 0.324959
O O3 0.918602 0.501345 0.209574
O O4 0.000000 0.516271 0.267613
O O5 0.000000 0.750000 0.064465
O O6 0.048129 0.993650 0.090062
O O7 0.000000 0.000000 0.000000
O O8 0.420673 0.250000 0.956746
O O9 0.369573 0.430569 0.889278
O O10 0.389412 0.500000 0.000000
O O11 0.625344 0.750000 0.618968
O O12 0.653812 0.468902 0.599986
O O13 0.669138 0.595543 0.697881
O O14 0.293816 0.250000 0.558293
O O15 0.308625 0.000000 0.500000
O O16 0.250000 0.000000 0.587583
O O17 0.283960 0.250000 0.225167
O O18 0.250000 0.000000 0.268307
O O19 0.322836 0.994850 0.197435
O O20 0.625125 0.250000 0.798772
#
# Coordination Sequence:
#
# PCOD8278193 Si02
#       7
#    16   8  16  16  16  16  16
#     4   9  19  35  54  76 102 135 173 211 255 303
#     4  10  18  28  44  64  88 120 156 194 235 286
#     4  10  20  33  48  68  96 128 164 204 250 301
#     4   9  18  33  52  76 105 135 169 207 248 298
#     4  11  21  33  51  76 107 140 173 209 253 301
#     4  10  20  34  54  77 103 133 166 206 252 302
#     4  10  21  34  50  74 102 131 166 208 253 302
#
# _framework density 18.003504
#
# number of rings (size 3 to 8) (size 9 to 14) (size 15 to 20)
#    0.000    2.154    0.000    6.231    1.077    7.077 
#    0.000    0.000    0.000    0.923    0.000    3.231 
#    0.000    0.000    0.000    0.000    0.000    0.000 
#
# Total GULP energy -644383.135807 kJ/mol
# GULP energy per Si atom -12391.983381 kJ/mol
# Density = 1.796253 g / cm^3
# Si number density = 18.003504 Si / 1000 Ang^3
#
#
#
# Elastic Constant Matrix: (Units=GPa)
#
#
# Indices 1 2 3 4 5 6 
#
# 1 72.8671 26.0067 19.2494 0.0000 0.0000 0.0000
# 2 26.0067 120.9265 36.6291 0.0000 0.0000 0.0000
# 3 19.2494 36.6291 67.9397 0.0000 0.0000 0.0000
# 4 0.0000 0.0000 0.0000 26.0792 0.0000 0.0000
# 5 0.0000 0.0000 0.0000 0.0000 18.3181 0.0000
# 6 0.0000 0.0000 0.0000 0.0000 0.0000 25.8839
#
#
#
# Elastic Compliance Matrix: (Units=1/GPa)
#
#
# Indices 1 2 3 4 5 6 
#
# 1 0.015385 -0.002376 -0.003078 0.000000 0.000000 0.000000
# 2 -0.002376 0.010251 -0.004853 0.000000 0.000000 0.000000
# 3 -0.003078 -0.004853 0.018208 0.000000 0.000000 0.000000
# 4 0.000000 0.000000 0.000000 0.038345 0.000000 0.000000
# 5 0.000000 0.000000 0.000000 0.000000 0.054591 0.000000
# 6 0.000000 0.000000 0.000000 0.000000 0.000000 0.038634
#
#
# Mechanical properties :
#
#
# Convention : Reuss Voigt Hill
#
# Bulk Modulus (GPa) = 43.05120 47.27819 45.16470
# Shear Modulus (GPa) = 24.53747 26.04613 25.29180
#
# Velocity S-wave (km/s) = 3.69579 3.80771 3.75217
# Velocity P-wave (km/s) = 6.49434 6.75641 6.62667
#
# Compressibility (1/GPa) = 0.02322816
#
# Stress axis : x y z
#
# Youngs Moduli (GPa) = 64.99908 97.55510 54.92236
#
# Poissons Ratio (x) = 0.23183 0.16904
# Poissons Ratio (y) = 0.15447 0.26655
# Poissons Ratio (z) = 0.20005 0.47346
#
# Static dielectric constant tensor:
#      x y z
#    x 4.181900 0.000000 0.000000 
#    y 0.000000 3.648170 0.000000 
#    z 0.000000 0.000000 3.225040 
# 
# 
# High freq. dielectric constant tensor:
#      x y z
#    x 1.677610 0.000000 0.000000 
#    y 0.000000 1.710580 0.000000 
#    z 0.000000 0.000000 1.682620 
# 
# From -- ./inp_files/42786.got.cif
#   From: 2010.03.12/outbox.cif.g09.slc.cpg/sg67_22_cif.got.tgz:42786.got - 2010.04.10 22:41:39.
