data_PCOD8278512
_publ_section_title
;
Structure prediction by ZEFSAII (Michael W. Deem and Ramdas Pophale) SiO2 
 PCOD8278512
Probable space group: C M M A
;
_chemical_formula_sum "Si O2"
_cell_formula_units_Z 72
_cell_length_a 8.775049
_cell_length_b 18.253039
_cell_length_c 24.731488
_cell_angle_alpha 90.000000
_cell_angle_beta 90.000000
_cell_angle_gamma 90.000000
_cell_volume 3961.274871
_symmetry_space_group_name_H-M "C M M A"
_symmetry_group_IT_number 67
_symmetry_cell_setting 'orthorhombic'
loop_
_space_group_symop_operation_xyz
x,y,z
-x,1/2-y,z
x,-y,-z
-x,1/2+y,-z
-x,-y,-z
x,1/2+y,-z
-x,y,z
x,1/2-y,z
1/2+x,1/2+y,z
1/2-x,-y,z
1/2+x,1/2-y,-z
1/2-x,y,-z
1/2-x,1/2-y,-z
1/2+x,y,-z
1/2-x,1/2+y,z
1/2+x,-y,z
loop_
_atom_site_type_symbol
_atom_site_label
_atom_site_fract_x
_atom_site_fract_y
_atom_site_fract_z
Si Si1 0.820674 0.078475 0.758962
Si Si2 0.671866 0.337280 0.445851
Si Si3 0.680587 0.750000 0.941051
Si Si4 0.673404 0.163182 0.663261
Si Si5 0.673115 0.669243 0.148911
O O1 0.778091 0.131928 0.710329
O O2 0.758187 0.109892 0.815134
O O3 0.000000 0.071538 0.763458
O O4 0.750000 0.000000 0.747110
O O5 0.500000 0.367353 0.442401
O O6 0.672537 0.250000 0.447272
O O7 0.750000 0.368682 0.500000
O O8 0.765744 0.366192 0.394242
O O9 0.500000 0.750000 0.944017
O O10 0.740561 0.677548 0.908911
O O11 0.750000 0.750000 0.000000
O O12 0.500000 0.136437 0.671124
O O13 0.685050 0.250000 0.665447
O O14 0.500000 0.642934 0.139172
O O15 0.674376 0.750000 0.177664
#
# Coordination Sequence:
#
# PCOD8278512 Si02
#       5
#    16  16   8  16  16
#     4  12  24  37  54  76 107 144 183 224 271 324
#     4   9  16  27  45  71 101 132 169 214 266 319
#     4  10  18  32  56  88 118 148 183 222 265 308
#     4  10  20  34  53  77 106 138 175 221 271 322
#     4   9  19  35  56  82 112 143 179 223 266 312
#
# _framework density 18.175967
#
# number of rings (size 3 to 8) (size 9 to 14) (size 15 to 20)
#    0.667    1.333    0.000    5.333    0.000    6.667 
#    0.000    0.000    0.000    1.333    0.000    9.333 
#    0.000    0.000    0.000    0.000    0.000    0.000 
#
# Total GULP energy -446322.786876 kJ/mol
# GULP energy per Si atom -12397.855191 kJ/mol
# Density = 1.813460 g / cm^3
# Si number density = 18.175967 Si / 1000 Ang^3
#
#
#
# Elastic Constant Matrix: (Units=GPa)
#
#
# Indices 1 2 3 4 5 6 
#
# 1 176.5754 28.5413 60.8925 0.0000 0.0000 0.0000
# 2 28.5413 24.6148 21.4113 0.0000 0.0000 0.0000
# 3 60.8925 21.4113 137.8315 0.0000 0.0000 0.0000
# 4 0.0000 0.0000 0.0000 1.2546 0.0000 0.0000
# 5 0.0000 0.0000 0.0000 0.0000 38.5305 0.0000
# 6 0.0000 0.0000 0.0000 0.0000 0.0000 24.5020
#
#
#
# Elastic Compliance Matrix: (Units=1/GPa)
#
#
# Indices 1 2 3 4 5 6 
#
# 1 0.007543 -0.006761 -0.002282 0.000000 0.000000 0.000000
# 2 -0.006761 0.053034 -0.005251 0.000000 0.000000 0.000000
# 3 -0.002282 -0.005251 0.009079 0.000000 0.000000 0.000000
# 4 0.000000 0.000000 0.000000 0.797063 0.000000 0.000000
# 5 0.000000 0.000000 0.000000 0.000000 0.025953 0.000000
# 6 0.000000 0.000000 0.000000 0.000000 0.000000 0.040813
#
#
# Mechanical properties :
#
#
# Convention : Reuss Voigt Hill
#
# Bulk Modulus (GPa) = 24.35077 62.30133 43.32605
# Shear Modulus (GPa) = 5.12419 28.06919 16.59669
#
# Velocity S-wave (km/s) = 1.68087 3.93402 3.02505
# Velocity P-wave (km/s) = 4.14650 7.41529 6.00750
#
# Compressibility (1/GPa) = 0.04106647
#
# Stress axis : x y z
#
# Youngs Moduli (GPa) = 132.56958 18.85588 110.14121
#
# Poissons Ratio (x) = 0.12749 0.25136
# Poissons Ratio (y) = 0.89635 0.57840
# Poissons Ratio (z) = 0.30255 0.09902
#
# Static dielectric constant tensor:
#      x y z
#    x 3.555240 0.000000 0.000000 
#    y 0.000000 2.943770 0.000000 
#    z 0.000000 0.000000 3.391310 
# 
# 
# High freq. dielectric constant tensor:
#      x y z
#    x 1.727210 0.000000 0.000000 
#    y 0.000000 1.656340 0.000000 
#    z 0.000000 0.000000 1.706920 
# 
# From -- ./inp_files/43194.got.cif
#   From: 2010.03.12/outbox.cif.g09.slc.cpg/sg67_22_cif.got.tgz:43194.got - 2010.04.10 22:41:39.
