data_PCOD8278619
_publ_section_title
;
Structure prediction by ZEFSAII (Michael W. Deem and Ramdas Pophale) SiO2 
 PCOD8278619
Probable space group: C M M A
;
_chemical_formula_sum "Si O2"
_cell_formula_units_Z 96
_cell_length_a 8.923565
_cell_length_b 26.984373
_cell_length_c 23.995173
_cell_angle_alpha 90.000000
_cell_angle_beta 90.000000
_cell_angle_gamma 90.000000
_cell_volume 5777.961029
_symmetry_space_group_name_H-M "C M M A"
_symmetry_group_IT_number 67
_symmetry_cell_setting 'orthorhombic'
loop_
_space_group_symop_operation_xyz
x,y,z
-x,1/2-y,z
x,-y,-z
-x,1/2+y,-z
-x,-y,-z
x,1/2+y,-z
-x,y,z
x,1/2-y,z
1/2+x,1/2+y,z
1/2-x,-y,z
1/2+x,1/2-y,-z
1/2-x,y,-z
1/2-x,1/2-y,-z
1/2+x,y,-z
1/2-x,1/2+y,z
1/2+x,-y,z
loop_
_atom_site_type_symbol
_atom_site_label
_atom_site_fract_x
_atom_site_fract_y
_atom_site_fract_z
Si Si1 0.827253 0.806899 0.879853
Si Si2 0.677684 0.107659 0.057401
Si Si3 0.324768 0.692128 0.332159
Si Si4 0.823728 0.849823 0.225176
Si Si5 0.673334 0.550608 0.834084
Si Si6 0.168769 0.808877 0.445213
O O1 0.811251 0.750000 0.897425
O O2 0.740260 0.838401 0.926338
O O3 0.756657 0.814044 0.818851
O O4 0.000000 0.823573 0.877847
O O5 0.500000 0.111612 0.051652
O O6 0.726583 0.068520 0.104776
O O7 0.750000 0.089184 0.000000
O O8 0.500000 0.680587 0.329429
O O9 0.291525 0.750000 0.322489
O O10 0.238737 0.660583 0.286114
O O11 0.262357 0.674019 0.391504
O O12 0.787948 0.906971 0.210747
O O13 0.000000 0.838991 0.222447
O O14 0.500000 0.539316 0.835690
O O15 0.750000 0.500000 0.815675
O O16 0.164646 0.750000 0.448738
O O17 0.250000 0.830683 0.500000
O O18 0.000000 0.830074 0.441775
#
# Coordination Sequence:
#
# PCOD8278619 Si02
#       6
#    16  16  16  16  16  16
#     4  10  20  33  49  69  93 123 156 188 225 268
#     4  10  21  36  52  72  95 119 150 185 223 270
#     4  10  19  29  43  66  95 128 165 199 231 270
#     4  10  20  33  48  69  95 121 153 191 231 276
#     4   9  20  36  53  72  92 116 146 183 230 281
#     4   9  16  26  40  59  87 125 165 202 237 271
#
# _framework density 16.614856
#
# number of rings (size 3 to 8) (size 9 to 14) (size 15 to 20)
#    0.000    2.333    0.000    4.000    0.000   11.000 
#    0.000    1.667    0.000    0.000    0.000    0.000 
#    0.000    0.667    0.000    7.000    0.000    4.167 
#
# Total GULP energy -595283.499026 kJ/mol
# GULP energy per Si atom -12401.739563 kJ/mol
# Density = 1.657704 g / cm^3
# Si number density = 16.614856 Si / 1000 Ang^3
#
#
#
# Elastic Constant Matrix: (Units=GPa)
#
#
# Indices 1 2 3 4 5 6 
#
# 1 93.6353 34.7270 38.1075 0.0000 0.0000 0.0000
# 2 34.7270 63.2327 27.3518 0.0000 0.0000 0.0000
# 3 38.1075 27.3518 107.0172 0.0000 0.0000 0.0000
# 4 0.0000 0.0000 0.0000 10.8357 0.0000 0.0000
# 5 0.0000 0.0000 0.0000 0.0000 35.8405 0.0000
# 6 0.0000 0.0000 0.0000 0.0000 0.0000 24.2042
#
#
#
# Elastic Compliance Matrix: (Units=1/GPa)
#
#
# Indices 1 2 3 4 5 6 
#
# 1 0.014500 -0.006442 -0.003517 0.000000 0.000000 0.000000
# 2 -0.006442 0.020642 -0.002982 0.000000 0.000000 0.000000
# 3 -0.003517 -0.002982 0.011359 0.000000 0.000000 0.000000
# 4 0.000000 0.000000 0.000000 0.092287 0.000000 0.000000
# 5 0.000000 0.000000 0.000000 0.000000 0.027901 0.000000
# 6 0.000000 0.000000 0.000000 0.000000 0.000000 0.041315
#
#
# Mechanical properties :
#
#
# Convention : Reuss Voigt Hill
#
# Bulk Modulus (GPa) = 48.49761 51.58421 50.04091
# Shear Modulus (GPa) = 20.76752 25.08933 22.92842
#
# Velocity S-wave (km/s) = 3.53928 3.89016 3.71886
# Velocity P-wave (km/s) = 6.77899 7.16186 6.97305
#
# Compressibility (1/GPa) = 0.02061957
#
# Stress axis : x y z
#
# Youngs Moduli (GPa) = 68.96420 48.44384 88.03815
#
# Poissons Ratio (x) = 0.31209 0.30962
# Poissons Ratio (y) = 0.44428 0.26252
# Poissons Ratio (z) = 0.24254 0.14445
#
# Static dielectric constant tensor:
#      x y z
#    x 3.279420 0.000000 0.000000 
#    y 0.000000 2.840920 0.000000 
#    z 0.000000 0.000000 3.173230 
# 
# 
# High freq. dielectric constant tensor:
#      x y z
#    x 1.659570 0.000000 0.000000 
#    y 0.000000 1.599810 0.000000 
#    z 0.000000 0.000000 1.639210 
# 
# From -- ./inp_files/37142.got.cif
#   From: 2010.03.12/outbox.cif.g09.slc.cpg/sg67_19_cif.got.tgz:37142.got - 2010.04.10 22:41:39.
