data_PCOD8278635
_publ_section_title
;
Structure prediction by ZEFSAII (Michael W. Deem and Ramdas Pophale) SiO2 
 PCOD8278635
Probable space group: C M M A
;
_chemical_formula_sum "Si O2"
_cell_formula_units_Z 112
_cell_length_a 27.443595
_cell_length_b 17.670540
_cell_length_c 12.178244
_cell_angle_alpha 90.000000
_cell_angle_beta 90.000000
_cell_angle_gamma 90.000000
_cell_volume 5905.755924
_symmetry_space_group_name_H-M "C M M A"
_symmetry_group_IT_number 67
_symmetry_cell_setting 'orthorhombic'
loop_
_space_group_symop_operation_xyz
x,y,z
-x,1/2-y,z
x,-y,-z
-x,1/2+y,-z
-x,-y,-z
x,1/2+y,-z
-x,y,z
x,1/2-y,z
1/2+x,1/2+y,z
1/2-x,-y,z
1/2+x,1/2-y,-z
1/2-x,y,-z
1/2-x,1/2-y,-z
1/2+x,y,-z
1/2-x,1/2+y,z
1/2+x,-y,z
loop_
_atom_site_type_symbol
_atom_site_label
_atom_site_fract_x
_atom_site_fract_y
_atom_site_fract_z
Si Si1 0.945956 0.915810 0.458424
Si Si2 0.447062 0.589777 0.992930
Si Si3 0.703864 0.339371 0.758480
Si Si4 0.142304 0.447092 0.105418
Si Si5 0.354620 0.838102 0.459430
Si Si6 0.103671 0.415154 0.773588
Si Si7 0.307824 0.338460 0.321220
O O1 0.909131 0.870268 0.536122
O O2 0.929402 0.915053 0.333063
O O3 0.000000 0.879486 0.466972
O O4 0.947377 0.000000 0.500000
O O5 0.500000 0.627051 0.021491
O O6 0.430899 0.614333 0.871212
O O7 0.452450 0.500000 0.000000
O O8 0.403341 0.609558 0.077132
O O9 0.703837 0.250000 0.790247
O O10 0.686304 0.391485 0.860215
O O11 0.668003 0.356577 0.657739
O O12 0.756987 0.370731 0.724835
O O13 0.126181 0.501624 0.204850
O O14 0.156609 0.500000 0.000000
O O15 0.358544 0.750000 0.481095
O O16 0.320944 0.872584 0.557958
O O17 0.148904 0.357628 0.762710
O O18 0.300281 0.250000 0.331561
#
# Coordination Sequence:
#
# PCOD8278635 Si02
#       7
#    16  16  16  16  16  16  16
#     4  10  19  29  45  72 104 134 165 205 253 308
#     4   8  15  30  51  70  89 121 164 204 243 289
#     4  10  19  34  55  74  98 136 173 206 253 306
#     4   9  19  34  51  75 102 129 167 215 256 294
#     4   9  18  33  52  74 101 132 171 214 251 299
#     4   9  17  31  50  71  97 128 164 207 254 300
#     4   9  18  32  51  76 102 130 166 206 250 304
#
# _framework density 18.964549999999999
#
# number of rings (size 3 to 8) (size 9 to 14) (size 15 to 20)
#    0.000    3.143    0.000    1.714    0.000    3.143 
#    0.000    9.286    0.000   12.857    0.000    0.000 
#    0.000    0.000    0.000    0.000    0.000    0.000 
#
# Total GULP energy -693919.348692 kJ/mol
# GULP energy per Si atom -12391.416941 kJ/mol
# Density = 1.892139 g / cm^3
# Si number density = 18.964550 Si / 1000 Ang^3
#
#
#
# Elastic Constant Matrix: (Units=GPa)
#
#
# Indices 1 2 3 4 5 6 
#
# 1 158.1682 33.0387 50.2897 0.0000 0.0000 0.0000
# 2 33.0387 25.9980 19.8086 0.0000 0.0000 0.0000
# 3 50.2897 19.8086 59.7983 0.0000 0.0000 0.0000
# 4 0.0000 0.0000 0.0000 26.0790 0.0000 0.0000
# 5 0.0000 0.0000 0.0000 0.0000 22.0088 0.0000
# 6 0.0000 0.0000 0.0000 0.0000 0.0000 23.6228
#
#
#
# Elastic Compliance Matrix: (Units=1/GPa)
#
#
# Indices 1 2 3 4 5 6 
#
# 1 0.009797 -0.008257 -0.005504 0.000000 0.000000 0.000000
# 2 -0.008257 0.058408 -0.012404 0.000000 0.000000 0.000000
# 3 -0.005504 -0.012404 0.025461 0.000000 0.000000 0.000000
# 4 0.000000 0.000000 0.000000 0.038345 0.000000 0.000000
# 5 0.000000 0.000000 0.000000 0.000000 0.045436 0.000000
# 6 0.000000 0.000000 0.000000 0.000000 0.000000 0.042332
#
#
# Mechanical properties :
#
#
# Convention : Reuss Voigt Hill
#
# Bulk Modulus (GPa) = 24.19207 50.02649 37.10928
# Shear Modulus (GPa) = 17.48930 23.73059 20.60995
#
# Velocity S-wave (km/s) = 3.04009 3.54123 3.30018
# Velocity P-wave (km/s) = 5.01069 6.56937 5.84224
#
# Compressibility (1/GPa) = 0.04133585
#
# Stress axis : x y z
#
# Youngs Moduli (GPa) = 102.07093 17.12087 39.27582
#
# Poissons Ratio (x) = 0.14136 0.21618
# Poissons Ratio (y) = 0.84275 0.48720
# Poissons Ratio (z) = 0.56182 0.21238
#
# Static dielectric constant tensor:
#      x y z
#    x 4.023350 0.000000 0.000000 
#    y 0.000000 3.085820 0.000000 
#    z 0.000000 0.000000 3.422570 
# 
# 
# High freq. dielectric constant tensor:
#      x y z
#    x 1.751400 0.000000 0.000000 
#    y 0.000000 1.699350 0.000000 
#    z 0.000000 0.000000 1.732390 
# 
# From -- ./inp_files/23108.got.cif
#   From: 2010.03.12/outbox.cif.g09.slc.cpg/sg67_12_cif.got.tgz:23108.got - 2010.04.10 22:41:39.
