data_PCOD8278231
_publ_section_title
;
Structure prediction by ZEFSAII (Michael W. Deem and Ramdas Pophale) SiO2 
 PCOD8278231
Probable space group: C M M A
;
_chemical_formula_sum "Si O2"
_cell_formula_units_Z 96
_cell_length_a 18.517765
_cell_length_b 14.540036
_cell_length_c 16.179996
_cell_angle_alpha 90.000000
_cell_angle_beta 90.000000
_cell_angle_gamma 90.000000
_cell_volume 4356.447253
_symmetry_space_group_name_H-M "C M M A"
_symmetry_group_IT_number 67
_symmetry_cell_setting 'orthorhombic'
loop_
_space_group_symop_operation_xyz
x,y,z
-x,1/2-y,z
x,-y,-z
-x,1/2+y,-z
-x,-y,-z
x,1/2+y,-z
-x,y,z
x,1/2-y,z
1/2+x,1/2+y,z
1/2-x,-y,z
1/2+x,1/2-y,-z
1/2-x,y,-z
1/2-x,1/2-y,-z
1/2+x,y,-z
1/2-x,1/2+y,z
1/2+x,-y,z
loop_
_atom_site_type_symbol
_atom_site_label
_atom_site_fract_x
_atom_site_fract_y
_atom_site_fract_z
Si Si1 0.348145 0.148556 0.534633
Si Si2 0.914237 0.472931 0.152523
Si Si3 0.330498 0.146086 0.198554
Si Si4 0.916883 0.648007 0.695722
Si Si5 0.703057 0.356231 0.920656
Si Si6 0.288209 0.594368 0.623030
O O1 0.373671 0.250000 0.506325
O O2 0.402937 0.107976 0.603729
O O3 0.345964 0.083297 0.452905
O O4 0.271960 0.160210 0.583142
O O5 0.891418 0.579314 0.160301
O O6 0.887659 0.423386 0.236947
O O7 0.868871 0.420065 0.081206
O O8 0.000000 0.466095 0.134410
O O9 0.354002 0.250000 0.175525
O O10 0.252297 0.123913 0.159675
O O11 0.325813 0.137577 0.297371
O O12 0.880497 0.750000 0.705996
O O13 0.000000 0.659335 0.712229
O O14 0.678238 0.250000 0.925221
O O15 0.750000 0.383874 0.000000
O O16 0.250000 0.500000 0.647464
#
# Coordination Sequence:
#
# PCOD8278231 Si02
#       6
#    16  16  16  16  16  16
#     4  10  18  29  47  75 110 146 192 250 314 375
#     4  11  23  39  63  94 127 164 204 251 309 369
#     4  11  23  40  61  85 120 166 214 261 311 368
#     4   9  18  33  54  82 116 153 196 248 306 370
#     4  10  22  42  69  99 127 156 195 247 305 367
#     4  11  20  31  51  77 106 146 200 259 312 363
#
# _framework density 22.036304999999999
#
# number of rings (size 3 to 8) (size 9 to 14) (size 15 to 20)
#    0.000    1.667    0.000    7.000    0.000    5.333 
#    0.000    2.500    0.000    9.000    0.000    0.000 
#    0.000    0.000    0.000    0.000    0.000    0.000 
#
# Total GULP energy -594913.909940 kJ/mol
# GULP energy per Si atom -12394.039790 kJ/mol
# Density = 2.198615 g / cm^3
# Si number density = 22.036305 Si / 1000 Ang^3
#
#
#
# Elastic Constant Matrix: (Units=GPa)
#
#
# Indices 1 2 3 4 5 6 
#
# 1 99.2208 56.3015 42.4778 0.0000 0.0000 0.0000
# 2 56.3015 117.3003 37.3735 0.0000 0.0000 0.0000
# 3 42.4778 37.3735 97.7001 0.0000 0.0000 0.0000
# 4 0.0000 0.0000 0.0000 29.7105 0.0000 0.0000
# 5 0.0000 0.0000 0.0000 0.0000 32.3931 0.0000
# 6 0.0000 0.0000 0.0000 0.0000 0.0000 26.0195
#
#
#
# Elastic Compliance Matrix: (Units=1/GPa)
#
#
# Indices 1 2 3 4 5 6 
#
# 1 0.015343 -0.005966 -0.004388 0.000000 0.000000 0.000000
# 2 -0.005966 0.012028 -0.002007 0.000000 0.000000 0.000000
# 3 -0.004388 -0.002007 0.012911 0.000000 0.000000 0.000000
# 4 0.000000 0.000000 0.000000 0.033658 0.000000 0.000000
# 5 0.000000 0.000000 0.000000 0.000000 0.030871 0.000000
# 6 0.000000 0.000000 0.000000 0.000000 0.000000 0.038433
#
#
# Mechanical properties :
#
#
# Convention : Reuss Voigt Hill
#
# Bulk Modulus (GPa) = 64.27282 65.16963 64.72123
# Shear Modulus (GPa) = 28.87617 29.49584 29.18601
#
# Velocity S-wave (km/s) = 3.62386 3.66254 3.64325
# Velocity P-wave (km/s) = 6.83666 6.89373 6.86525
#
# Compressibility (1/GPa) = 0.01555868
#
# Stress axis : x y z
#
# Youngs Moduli (GPa) = 65.17830 83.13813 77.45169
#
# Poissons Ratio (x) = 0.49599 0.33989
# Poissons Ratio (y) = 0.38884 0.15547
# Poissons Ratio (z) = 0.28603 0.16689
#
# Static dielectric constant tensor:
#      x y z
#    x 3.703240 0.000000 0.000000 
#    y 0.000000 4.121740 0.000000 
#    z 0.000000 0.000000 4.194800 
# 
# 
# High freq. dielectric constant tensor:
#      x y z
#    x 1.827350 0.000000 0.000000 
#    y 0.000000 1.873660 0.000000 
#    z 0.000000 0.000000 1.868660 
# 
# From -- ./inp_files/29257.got.cif
#   From: 2010.03.12/outbox.cif.g09.slc.cpg/sg67_15_cif.got.tgz:29257.got - 2010.04.10 22:41:39.
