data_PCOD8278218
_publ_section_title
;
Structure prediction by ZEFSAII (Michael W. Deem and Ramdas Pophale) SiO2 
 PCOD8278218
Probable space group: C M M A
;
_chemical_formula_sum "Si O2"
_cell_formula_units_Z 96
_cell_length_a 8.724214
_cell_length_b 27.522213
_cell_length_c 24.017461
_cell_angle_alpha 90.000000
_cell_angle_beta 90.000000
_cell_angle_gamma 90.000000
_cell_volume 5766.824778
_symmetry_space_group_name_H-M "C M M A"
_symmetry_group_IT_number 67
_symmetry_cell_setting 'orthorhombic'
loop_
_space_group_symop_operation_xyz
x,y,z
-x,1/2-y,z
x,-y,-z
-x,1/2+y,-z
-x,-y,-z
x,1/2+y,-z
-x,y,z
x,1/2-y,z
1/2+x,1/2+y,z
1/2-x,-y,z
1/2+x,1/2-y,-z
1/2-x,y,-z
1/2-x,1/2-y,-z
1/2+x,y,-z
1/2-x,1/2+y,z
1/2+x,-y,z
loop_
_atom_site_type_symbol
_atom_site_label
_atom_site_fract_x
_atom_site_fract_y
_atom_site_fract_z
Si Si1 0.818592 0.948247 0.722509
Si Si2 0.319862 0.603345 0.167304
Si Si3 0.318970 0.304995 0.442980
Si Si4 0.316932 0.553157 0.057321
Si Si5 0.180752 0.858025 0.332473
Si Si6 0.820989 0.804829 0.768333
O O1 0.757001 0.931320 0.783296
O O2 0.763730 0.909310 0.677024
O O3 0.000000 0.951221 0.721198
O O4 0.750000 0.000000 0.706794
O O5 0.500000 0.597018 0.164942
O O6 0.254382 0.587178 0.107462
O O7 0.274499 0.659207 0.180853
O O8 0.500000 0.305728 0.447358
O O9 0.259060 0.250000 0.433440
O O10 0.250000 0.326561 0.500000
O O11 0.262760 0.338134 0.391949
O O12 0.500000 0.550647 0.053956
O O13 0.250000 0.500000 0.067795
O O14 0.250000 0.575082 0.000000
O O15 0.226169 0.818248 0.286372
O O16 0.000000 0.865938 0.330534
O O17 0.782099 0.750000 0.786834
O O18 0.000000 0.811537 0.754079
#
# Coordination Sequence:
#
# PCOD8278218 Si02
#       6
#    16  16  16  16  16  16
#     4  10  19  32  49  70  94 121 154 188 227 273
#     4   8  16  29  45  66  91 118 149 185 223 267
#     4   9  18  31  47  68  94 123 154 187 224 267
#     4  10  18  29  44  63  88 115 146 183 224 269
#     4  10  19  31  47  69  97 125 152 186 229 272
#     4   9  17  30  48  69  92 120 154 189 226 270
#
# _framework density 16.646944000000001
#
# number of rings (size 3 to 8) (size 9 to 14) (size 15 to 20)
#    0.000    2.667    0.000    4.000    0.000    2.333 
#    0.000    9.167    0.000    1.000    0.000    3.500 
#    0.000    0.000    0.000    0.000    0.000    0.667 
#
# Total GULP energy -595076.413778 kJ/mol
# GULP energy per Si atom -12397.425287 kJ/mol
# Density = 1.660905 g / cm^3
# Si number density = 16.646944 Si / 1000 Ang^3
#
#
#
# Elastic Constant Matrix: (Units=GPa)
#
#
# Indices 1 2 3 4 5 6 
#
# 1 48.5275 30.1510 32.7774 0.0000 0.0000 0.0000
# 2 30.1510 126.0339 76.2233 0.0000 0.0000 0.0000
# 3 32.7774 76.2233 150.8295 0.0000 0.0000 0.0000
# 4 0.0000 0.0000 0.0000 -435.0357 0.0000 0.0000
# 5 0.0000 0.0000 0.0000 0.0000 22.6230 0.0000
# 6 0.0000 0.0000 0.0000 0.0000 0.0000 22.9709
#
#
#
# Elastic Compliance Matrix: (Units=1/GPa)
#
#
# Indices 1 2 3 4 5 6 
#
# 1 0.025448 -0.003951 -0.003534 0.000000 0.000000 0.000000
# 2 -0.003951 0.012040 -0.005226 0.000000 0.000000 0.000000
# 3 -0.003534 -0.005226 0.010039 0.000000 0.000000 0.000000
# 4 0.000000 0.000000 0.000000 -0.002299 0.000000 0.000000
# 5 0.000000 0.000000 0.000000 0.000000 0.044203 0.000000
# 6 0.000000 0.000000 0.000000 0.000000 0.000000 0.043533
#
#
# Mechanical properties :
#
#
# Convention : Reuss Voigt Hill
#
# Bulk Modulus (GPa) = 45.23595 67.07715 56.15655
# Shear Modulus (GPa) = 30.16501 -65.47241 -17.65370
#
# Velocity S-wave (km/s) = 4.26143 -6.27817 -3.26003
# Velocity P-wave (km/s) = 7.17257 3.48889 4.43133
#
# Compressibility (1/GPa) = 0.02210631
#
# Stress axis : x y z
#
# Youngs Moduli (GPa) = 39.29515 83.05526 99.61195
#
# Poissons Ratio (x) = 0.32814 0.35200
# Poissons Ratio (y) = 0.15525 0.52058
# Poissons Ratio (z) = 0.13886 0.43405
#
# Static dielectric constant tensor:
#      x y z
#    x 3.017550 0.000000 0.000000 
#    y 0.000000 3.188490 0.000000 
#    z 0.000000 0.000000 3.351960 
# 
# 
# High freq. dielectric constant tensor:
#      x y z
#    x 1.635910 0.000000 0.000000 
#    y 0.000000 1.632280 0.000000 
#    z 0.000000 0.000000 1.633690 
# 
# From -- ./inp_files/40921.got.cif
#   From: 2010.03.12/outbox.cif.g09.slc.cpg/sg67_21_cif.got.tgz:40921.got - 2010.04.10 22:41:39.
