data_PCOD8278397
_publ_section_title
;
Structure prediction by ZEFSAII (Michael W. Deem and Ramdas Pophale) SiO2 
 PCOD8278397
Probable space group: C M M A
;
_chemical_formula_sum "Si O2"
_cell_formula_units_Z 72
_cell_length_a 17.487504
_cell_length_b 13.976163
_cell_length_c 15.885867
_cell_angle_alpha 90.000000
_cell_angle_beta 90.000000
_cell_angle_gamma 90.000000
_cell_volume 3882.636260
_symmetry_space_group_name_H-M "C M M A"
_symmetry_group_IT_number 67
_symmetry_cell_setting 'orthorhombic'
loop_
_space_group_symop_operation_xyz
x,y,z
-x,1/2-y,z
x,-y,-z
-x,1/2+y,-z
-x,-y,-z
x,1/2+y,-z
-x,y,z
x,1/2-y,z
1/2+x,1/2+y,z
1/2-x,-y,z
1/2+x,1/2-y,-z
1/2-x,y,-z
1/2-x,1/2-y,-z
1/2+x,y,-z
1/2-x,1/2+y,z
1/2+x,-y,z
loop_
_atom_site_type_symbol
_atom_site_label
_atom_site_fract_x
_atom_site_fract_y
_atom_site_fract_z
Si Si1 0.589522 0.442457 0.255056
Si Si2 0.336012 0.461479 0.589833
Si Si3 0.197319 0.750000 0.080451
Si Si4 0.662811 0.538263 0.913919
Si Si5 0.795685 0.250000 0.414730
Si Si6 0.183156 0.750000 0.261046
O O1 0.500000 0.427099 0.248181
O O2 0.608546 0.505768 0.336127
O O3 0.619209 0.496134 0.170166
O O4 0.629294 0.341169 0.265654
O O5 0.365572 0.500000 0.500000
O O6 0.250000 0.500000 0.606747
O O7 0.344726 0.346647 0.588815
O O8 0.149871 0.847667 0.077214
O O9 0.234631 0.750000 0.174809
O O10 0.250000 0.750000 0.000000
O O11 0.750000 0.500000 0.907765
O O12 0.624709 0.500000 0.000000
O O13 0.750000 0.250000 0.500000
O O14 0.738686 0.250000 0.337968
#
# Coordination Sequence:
#
# PCOD8278397 Si02
#       6
#    16  16   8  16   8   8
#     4  11  23  38  55  83 120 153 188 226 281 348
#     4  11  21  37  61  87 113 146 190 235 284 327
#     4  10  18  31  51  86 108 134 178 242 283 316
#     4  10  20  34  58  82 109 143 191 235 281 325
#     4  12  20  35  60  91 114 135 189 248 279 326
#     4  10  21  34  60  81 112 151 187 236 280 325
#
# _framework density 18.544101999999999
#
# number of rings (size 3 to 8) (size 9 to 14) (size 15 to 20)
#    0.000    1.333    6.667    1.000    3.111    0.889 
#    0.000    0.556    0.000    0.000    0.000    0.000 
#    0.000    0.000    0.000    0.000    0.000    0.000 
#
# Total GULP energy -446072.242957 kJ/mol
# GULP energy per Si atom -12390.895638 kJ/mol
# Density = 1.850189 g / cm^3
# Si number density = 18.544102 Si / 1000 Ang^3
#
#
#
# Elastic Constant Matrix: (Units=GPa)
#
#
# Indices 1 2 3 4 5 6 
#
# 1 45.8498 24.1351 52.7375 0.0000 0.0000 0.0000
# 2 24.1351 141.1830 57.8629 0.0000 0.0000 0.0000
# 3 52.7375 57.8629 208.9741 0.0000 0.0000 0.0000
# 4 0.0000 0.0000 0.0000 32.6731 0.0000 0.0000
# 5 0.0000 0.0000 0.0000 0.0000 15.4350 0.0000
# 6 0.0000 0.0000 0.0000 0.0000 0.0000 32.9750
#
#
#
# Elastic Compliance Matrix: (Units=1/GPa)
#
#
# Indices 1 2 3 4 5 6 
#
# 1 0.031432 -0.002394 -0.007269 0.000000 0.000000 0.000000
# 2 -0.002394 0.008172 -0.001659 0.000000 0.000000 0.000000
# 3 -0.007269 -0.001659 0.007079 0.000000 0.000000 0.000000
# 4 0.000000 0.000000 0.000000 0.030606 0.000000 0.000000
# 5 0.000000 0.000000 0.000000 0.000000 0.064788 0.000000
# 6 0.000000 0.000000 0.000000 0.000000 0.000000 0.030326
#
#
# Mechanical properties :
#
#
# Convention : Reuss Voigt Hill
#
# Bulk Modulus (GPa) = 41.59891 73.94198 57.77045
# Shear Modulus (GPa) = 24.62324 33.63470 29.12897
#
# Velocity S-wave (km/s) = 3.64788 4.26346 3.96762
# Velocity P-wave (km/s) = 6.34223 8.01225 7.22565
#
# Compressibility (1/GPa) = 0.02403909
#
# Stress axis : x y z
#
# Youngs Moduli (GPa) = 31.81478 122.36885 141.26138
#
# Poissons Ratio (x) = 0.29294 1.02689
# Poissons Ratio (y) = 0.07616 0.23430
# Poissons Ratio (z) = 0.23128 0.20296
#
# Static dielectric constant tensor:
#      x y z
#    x 2.894740 0.000000 0.000000 
#    y 0.000000 4.244790 0.000000 
#    z 0.000000 0.000000 4.043690 
# 
# 
# High freq. dielectric constant tensor:
#      x y z
#    x 1.658880 0.000000 0.000000 
#    y 0.000000 1.733460 0.000000 
#    z 0.000000 0.000000 1.756710 
# 
# From -- ./inp_files/28307.got.cif
#   From: 2010.03.12/outbox.cif.g09.slc.cpg/sg67_15_cif.got.tgz:28307.got - 2010.04.10 22:41:39.
