data_PCOD8278102
_publ_section_title
;
Structure prediction by ZEFSAII (Michael W. Deem and Ramdas Pophale) SiO2 
 PCOD8278102
Probable space group: C M M A
;
_chemical_formula_sum "Si O2"
_cell_formula_units_Z 120
_cell_length_a 29.697507
_cell_length_b 8.796353
_cell_length_c 25.363633
_cell_angle_alpha 90.000000
_cell_angle_beta 90.000000
_cell_angle_gamma 90.000000
_cell_volume 6625.735629
_symmetry_space_group_name_H-M "C M M A"
_symmetry_group_IT_number 67
_symmetry_cell_setting 'orthorhombic'
loop_
_space_group_symop_operation_xyz
x,y,z
-x,1/2-y,z
x,-y,-z
-x,1/2+y,-z
-x,-y,-z
x,1/2+y,-z
-x,y,z
x,1/2-y,z
1/2+x,1/2+y,z
1/2-x,-y,z
1/2+x,1/2-y,-z
1/2-x,y,-z
1/2-x,1/2-y,-z
1/2+x,y,-z
1/2-x,1/2+y,z
1/2+x,-y,z
loop_
_atom_site_type_symbol
_atom_site_label
_atom_site_fract_x
_atom_site_fract_y
_atom_site_fract_z
Si Si1 0.299385 0.431168 0.341050
Si Si2 0.799828 0.932127 0.552185
Si Si3 0.947957 0.078686 0.777721
Si Si4 0.079172 0.919925 0.104096
Si Si5 0.361384 0.071495 0.746646
Si Si6 0.500000 0.920571 0.054345
Si Si7 0.205398 0.422236 0.164289
Si Si8 0.834622 0.428014 0.055260
O O1 0.295235 0.250000 0.346557
O O2 0.250000 0.500000 0.329467
O O3 0.321629 0.503949 0.394034
O O4 0.333429 0.474301 0.294977
O O5 0.799891 0.750000 0.551106
O O6 0.824870 0.000000 0.500000
O O7 0.750000 0.000000 0.552119
O O8 0.949201 0.250000 0.755241
O O9 0.922346 0.079147 0.833287
O O10 0.000000 0.016446 0.779763
O O11 0.914426 0.974912 0.742810
O O12 0.068514 0.750000 0.083169
O O13 0.042868 0.041404 0.088116
O O14 0.124196 0.974614 0.076552
O O15 0.357806 0.250000 0.734327
O O16 0.339730 0.028775 0.804012
O O17 0.500000 0.750000 0.038686
O O18 0.500000 0.000000 0.000000
O O19 0.214116 0.250000 0.177539
O O20 0.250000 0.500000 0.186737
O O21 0.202148 0.449418 0.101257
O O22 0.846697 0.250000 0.047662
O O23 0.817385 0.500000 0.000000
#
# Coordination Sequence:
#
# PCOD8278102 Si02
#       8
#    16  16  16  16  16   8  16  16
#     4  11  21  34  52  79 113 153 195 236 277 320
#     4  10  17  28  46  72 108 152 196 238 277 320
#     4  10  21  38  59  82 106 134 170 211 262 323
#     4  11  21  37  57  78 101 129 161 201 252 313
#     4  11  22  38  57  81 109 141 179 223 270 322
#     4  12  24  36  52  74 102 130 158 198 247 306
#     4  10  23  39  57  78 103 132 172 215 262 318
#     4  11  23  40  56  77 100 129 165 209 258 316
#
# _framework density 18.111197000000001
#
# number of rings (size 3 to 8) (size 9 to 14) (size 15 to 20)
#    0.000    1.333    2.000    6.200    0.000    4.267 
#    0.000    1.333    0.000    0.000    0.000    0.000 
#    0.000    0.533    0.000    2.000    0.000    3.333 
#
# Total GULP energy -743467.282688 kJ/mol
# GULP energy per Si atom -12391.121378 kJ/mol
# Density = 1.806997 g / cm^3
# Si number density = 18.111197 Si / 1000 Ang^3
#
#
#
# Elastic Constant Matrix: (Units=GPa)
#
#
# Indices 1 2 3 4 5 6 
#
# 1 86.0643 37.8950 23.1543 0.0000 0.0000 0.0000
# 2 37.8950 131.9772 45.7070 0.0000 0.0000 0.0000
# 3 23.1543 45.7070 91.6367 0.0000 0.0000 0.0000
# 4 0.0000 0.0000 0.0000 29.0472 0.0000 0.0000
# 5 0.0000 0.0000 0.0000 0.0000 1.6421 0.0000
# 6 0.0000 0.0000 0.0000 0.0000 0.0000 27.9744
#
#
#
# Elastic Compliance Matrix: (Units=1/GPa)
#
#
# Indices 1 2 3 4 5 6 
#
# 1 0.013540 -0.003267 -0.001792 0.000000 0.000000 0.000000
# 2 -0.003267 0.009948 -0.004136 0.000000 0.000000 0.000000
# 3 -0.001792 -0.004136 0.013428 0.000000 0.000000 0.000000
# 4 0.000000 0.000000 0.000000 0.034427 0.000000 0.000000
# 5 0.000000 0.000000 0.000000 0.000000 0.608969 0.000000
# 6 0.000000 0.000000 0.000000 0.000000 0.000000 0.035747
#
#
# Mechanical properties :
#
#
# Convention : Reuss Voigt Hill
#
# Bulk Modulus (GPa) = 53.97839 58.13232 56.05535
# Shear Modulus (GPa) = 6.75107 25.26086 16.00596
#
# Velocity S-wave (km/s) = 1.93278 3.73871 2.97604
# Velocity P-wave (km/s) = 5.90334 7.12772 6.54423
#
# Compressibility (1/GPa) = 0.01852593
#
# Stress axis : x y z
#
# Youngs Moduli (GPa) = 73.85625 100.52598 74.46901
#
# Poissons Ratio (x) = 0.32845 0.13341
# Poissons Ratio (y) = 0.24131 0.30802
# Poissons Ratio (z) = 0.13231 0.41579
#
# Static dielectric constant tensor:
#      x y z
#    x 3.023070 0.000000 0.000000 
#    y 0.000000 3.459000 0.000000 
#    z 0.000000 0.000000 3.825110 
# 
# 
# High freq. dielectric constant tensor:
#      x y z
#    x 1.672870 0.000000 0.000000 
#    y 0.000000 1.718010 0.000000 
#    z 0.000000 0.000000 1.690770 
# 
# From -- ./inp_files/45038.got.cif
#   From: 2010.03.12/outbox.cif.g09.slc.cpg/sg67_23_cif.got.tgz:45038.got - 2010.04.10 22:41:39.
