data_PCOD8278640
_publ_section_title
;
Structure prediction by ZEFSAII (Michael W. Deem and Ramdas Pophale) SiO2 
 PCOD8278640
Probable space group: C M M A
;
_chemical_formula_sum "Si O2"
_cell_formula_units_Z 112
_cell_length_a 20.256660
_cell_length_b 27.521149
_cell_length_c 10.504575
_cell_angle_alpha 90.000000
_cell_angle_beta 90.000000
_cell_angle_gamma 90.000000
_cell_volume 5856.159361
_symmetry_space_group_name_H-M "C M M A"
_symmetry_group_IT_number 67
_symmetry_cell_setting 'orthorhombic'
loop_
_space_group_symop_operation_xyz
x,y,z
-x,1/2-y,z
x,-y,-z
-x,1/2+y,-z
-x,-y,-z
x,1/2+y,-z
-x,y,z
x,1/2-y,z
1/2+x,1/2+y,z
1/2-x,-y,z
1/2+x,1/2-y,-z
1/2-x,y,-z
1/2-x,1/2-y,-z
1/2+x,y,-z
1/2-x,1/2+y,z
1/2+x,-y,z
loop_
_atom_site_type_symbol
_atom_site_label
_atom_site_fract_x
_atom_site_fract_y
_atom_site_fract_z
Si Si1 0.922028 0.063960 0.748012
Si Si2 0.676214 0.306080 0.047973
Si Si3 0.221759 0.804479 0.307599
Si Si4 0.422114 0.885501 0.011251
Si Si5 0.923193 0.897745 0.519243
Si Si6 0.078497 0.455187 0.240154
Si Si7 0.148264 0.195162 0.429088
O O1 0.903900 0.094164 0.872612
O O2 0.891721 0.088781 0.619118
O O3 0.000000 0.060602 0.732485
O O4 0.892914 0.009734 0.767021
O O5 0.653279 0.250000 0.039017
O O6 0.679931 0.327724 0.192532
O O7 0.621445 0.336759 0.970224
O O8 0.750000 0.313926 0.000000
O O9 0.237447 0.750000 0.261766
O O10 0.178108 0.804086 0.431392
O O11 0.295145 0.826130 0.334169
O O12 0.500000 0.872973 0.023529
O O13 0.399025 0.924241 0.117316
O O14 0.893355 0.932297 0.628955
O O15 0.912038 0.842206 0.564700
O O16 0.000000 0.906372 0.509502
O O17 0.000000 0.455855 0.242160
O O18 0.124667 0.250000 0.392474
#
# Coordination Sequence:
#
# PCOD8278640 Si02
#       7
#    16  16  16  16  16  16  16
#     4   9  17  32  53  75 102 136 175 220 264 313
#     4  10  21  35  53  77 107 142 179 212 253 318
#     4   8  16  32  50  69  91 128 179 215 244 296
#     4  10  20  34  55  82 106 135 177 220 268 314
#     4  10  19  29  47  78 107 134 170 210 262 317
#     4   9  18  32  50  75 106 136 171 216 263 316
#     4   9  17  30  50  72 100 133 171 217 257 305
#
# _framework density 19.125163000000001
#
# number of rings (size 3 to 8) (size 9 to 14) (size 15 to 20)
#    0.000    2.714    0.000    2.571    2.000    4.000 
#    0.000    0.000    0.000    9.429    0.000    4.000 
#    0.000    0.000    0.000    0.000    0.000    0.000 
#
# Total GULP energy -693767.325545 kJ/mol
# GULP energy per Si atom -12388.702242 kJ/mol
# Density = 1.908163 g / cm^3
# Si number density = 19.125163 Si / 1000 Ang^3
#
#
#
# Elastic Constant Matrix: (Units=GPa)
#
#
# Indices 1 2 3 4 5 6 
#
# 1 30.6268 32.4965 18.8840 0.0000 0.0000 0.0000
# 2 32.4965 108.7786 21.7916 0.0000 0.0000 0.0000
# 3 18.8840 21.7916 65.3469 0.0000 0.0000 0.0000
# 4 0.0000 0.0000 0.0000 28.4323 0.0000 0.0000
# 5 0.0000 0.0000 0.0000 0.0000 15.1955 0.0000
# 6 0.0000 0.0000 0.0000 0.0000 0.0000 11.6869
#
#
#
# Elastic Compliance Matrix: (Units=1/GPa)
#
#
# Indices 1 2 3 4 5 6 
#
# 1 0.054324 -0.014021 -0.011023 0.000000 0.000000 0.000000
# 2 -0.014021 0.013470 -0.000440 0.000000 0.000000 0.000000
# 3 -0.011023 -0.000440 0.018635 0.000000 0.000000 0.000000
# 4 0.000000 0.000000 0.000000 0.035171 0.000000 0.000000
# 5 0.000000 0.000000 0.000000 0.000000 0.065809 0.000000
# 6 0.000000 0.000000 0.000000 0.000000 0.000000 0.085566
#
#
# Mechanical properties :
#
#
# Convention : Reuss Voigt Hill
#
# Bulk Modulus (GPa) = 28.19960 39.01071 33.60515
# Shear Modulus (GPa) = 14.89141 19.83494 17.36317
#
# Velocity S-wave (km/s) = 2.79342 3.22392 3.01636
# Velocity P-wave (km/s) = 5.01807 5.85662 5.45349
#
# Compressibility (1/GPa) = 0.03546150
#
# Stress axis : x y z
#
# Youngs Moduli (GPa) = 18.40790 74.24081 53.66188
#
# Poissons Ratio (x) = 1.04090 0.59153
# Poissons Ratio (y) = 0.25809 0.02362
# Poissons Ratio (z) = 0.20291 0.03267
#
# Static dielectric constant tensor:
#      x y z
#    x 3.073080 0.000000 0.000000 
#    y 0.000000 3.622000 0.000000 
#    z 0.000000 0.000000 3.910490 
# 
# 
# High freq. dielectric constant tensor:
#      x y z
#    x 1.692170 0.000000 0.000000 
#    y 0.000000 1.736360 0.000000 
#    z 0.000000 0.000000 1.764400 
# 
# From -- ./inp_files/21068.got.cif
#   From: 2010.03.12/outbox.cif.g09.slc.cpg/sg67_11_cif.got.tgz:21068.got - 2010.04.10 22:41:39.
