data_PCOD8278235
_publ_section_title
;
Structure prediction by ZEFSAII (Michael W. Deem and Ramdas Pophale) SiO2 
 PCOD8278235
Probable space group: C M M A
;
_chemical_formula_sum "Si O2"
_cell_formula_units_Z 112
_cell_length_a 28.216928
_cell_length_b 16.597060
_cell_length_c 12.126587
_cell_angle_alpha 90.000000
_cell_angle_beta 90.000000
_cell_angle_gamma 90.000000
_cell_volume 5679.099541
_symmetry_space_group_name_H-M "C M M A"
_symmetry_group_IT_number 67
_symmetry_cell_setting 'orthorhombic'
loop_
_space_group_symop_operation_xyz
x,y,z
-x,1/2-y,z
x,-y,-z
-x,1/2+y,-z
-x,-y,-z
x,1/2+y,-z
-x,y,z
x,1/2-y,z
1/2+x,1/2+y,z
1/2-x,-y,z
1/2+x,1/2-y,-z
1/2-x,y,-z
1/2-x,1/2-y,-z
1/2+x,y,-z
1/2-x,1/2+y,z
1/2+x,-y,z
loop_
_atom_site_type_symbol
_atom_site_label
_atom_site_fract_x
_atom_site_fract_y
_atom_site_fract_z
Si Si1 0.297300 0.160644 0.932460
Si Si2 0.832542 0.653850 0.335974
Si Si3 0.273417 0.346229 0.697407
Si Si4 0.445470 0.154648 0.732829
Si Si5 0.945594 0.908468 0.969837
Si Si6 0.635362 0.345581 0.567362
Si Si7 0.367971 0.156775 0.105198
O O1 0.317249 0.250000 0.904987
O O2 0.286701 0.116262 0.817138
O O3 0.250000 0.167681 0.000000
O O4 0.335666 0.114797 0.009584
O O5 0.832404 0.750000 0.337583
O O6 0.778133 0.621911 0.341740
O O7 0.863512 0.622812 0.440785
O O8 0.857833 0.619088 0.225762
O O9 0.270819 0.250000 0.704239
O O10 0.314850 0.376450 0.617155
O O11 0.500000 0.131472 0.703547
O O12 0.440539 0.250000 0.749686
O O13 0.428122 0.112330 0.846045
O O14 0.410749 0.122831 0.634871
O O15 0.000000 0.885595 0.978217
O O16 0.921593 0.854973 0.065537
O O17 0.934686 0.000000 0.000000
O O18 0.633868 0.250000 0.571309
O O19 0.353900 0.250000 0.113640
#
# Coordination Sequence:
#
# PCOD8278235 Si02
#       7
#    16  16  16  16  16  16  16
#     4   9  14  22  38  65  98 128 159 192 232 278
#     4   9  16  25  38  64 101 132 157 193 236 279
#     4   9  14  21  35  59  95 132 160 193 232 274
#     4   9  17  31  51  73  95 120 157 203 243 283
#     4  10  21  36  53  72  94 121 155 198 248 297
#     4   9  16  25  40  66  97 129 164 196 234 277
#     4  10  18  29  48  73 101 129 158 196 241 288
#
# _framework density 19.721436000000001
#
# number of rings (size 3 to 8) (size 9 to 14) (size 15 to 20)
#    0.000    2.714    1.429    1.714    0.000    4.857 
#    0.000    0.714    0.000    3.857    0.000    3.000 
#    0.000    2.571    0.000    0.000    0.000    0.000 
#
# Total GULP energy -693879.578521 kJ/mol
# GULP energy per Si atom -12390.706759 kJ/mol
# Density = 1.967655 g / cm^3
# Si number density = 19.721436 Si / 1000 Ang^3
#
#
#
# Elastic Constant Matrix: (Units=GPa)
#
#
# Indices 1 2 3 4 5 6 
#
# 1 114.8076 12.8005 90.9770 0.0000 0.0000 0.0000
# 2 12.8005 6.8910 15.9649 0.0000 0.0000 0.0000
# 3 90.9770 15.9649 184.9024 0.0000 0.0000 0.0000
# 4 0.0000 0.0000 0.0000 6.7167 0.0000 0.0000
# 5 0.0000 0.0000 0.0000 0.0000 36.3435 0.0000
# 6 0.0000 0.0000 0.0000 0.0000 0.0000 3.7785
#
#
#
# Elastic Compliance Matrix: (Units=1/GPa)
#
#
# Indices 1 2 3 4 5 6 
#
# 1 0.015242 -0.013674 -0.006319 0.000000 0.000000 0.000000
# 2 -0.013674 0.193671 -0.009994 0.000000 0.000000 0.000000
# 3 -0.006319 -0.009994 0.009380 0.000000 0.000000 0.000000
# 4 0.000000 0.000000 0.000000 0.148882 0.000000 0.000000
# 5 0.000000 0.000000 0.000000 0.000000 0.027515 0.000000
# 6 0.000000 0.000000 0.000000 0.000000 0.000000 0.264657
#
#
# Mechanical properties :
#
#
# Convention : Reuss Voigt Hill
#
# Bulk Modulus (GPa) = 6.31634 60.67621 33.49627
# Shear Modulus (GPa) = 6.47590 21.82498 14.15044
#
# Velocity S-wave (km/s) = 1.81406 3.33026 2.68155
# Velocity P-wave (km/s) = 2.75635 6.75433 5.15841
#
# Compressibility (1/GPa) = 0.15831952
#
# Stress axis : x y z
#
# Youngs Moduli (GPa) = 65.60803 5.16341 106.60693
#
# Poissons Ratio (x) = 0.07060 0.67364
# Poissons Ratio (y) = 0.89709 1.06545
# Poissons Ratio (z) = 0.41457 0.05160
#
# Static dielectric constant tensor:
#      x y z
#    x 3.713590 0.000000 0.000000 
#    y 0.000000 2.874250 0.000000 
#    z 0.000000 0.000000 4.008260 
# 
# 
# High freq. dielectric constant tensor:
#      x y z
#    x 1.769650 0.000000 0.000000 
#    y 0.000000 1.691190 0.000000 
#    z 0.000000 0.000000 1.782190 
# 
# From -- ./inp_files/21223.got.cif
#   From: 2010.03.12/outbox.cif.g09.slc.cpg/sg67_11_cif.got.tgz:21223.got - 2010.04.10 22:41:39.
