data_PCOD8278903
_publ_section_title
;
Structure prediction by ZEFSAII (Michael W. Deem and Ramdas Pophale) SiO2 
 PCOD8278903
Probable space group: C M M A
;
_chemical_formula_sum "Si O2"
_cell_formula_units_Z 104
_cell_length_a 26.844667
_cell_length_b 8.927878
_cell_length_c 23.967058
_cell_angle_alpha 90.000000
_cell_angle_beta 90.000000
_cell_angle_gamma 90.000000
_cell_volume 5744.086812
_symmetry_space_group_name_H-M "C M M A"
_symmetry_group_IT_number 67
_symmetry_cell_setting 'orthorhombic'
loop_
_space_group_symop_operation_xyz
x,y,z
-x,1/2-y,z
x,-y,-z
-x,1/2+y,-z
-x,-y,-z
x,1/2+y,-z
-x,y,z
x,1/2-y,z
1/2+x,1/2+y,z
1/2-x,-y,z
1/2+x,1/2-y,-z
1/2-x,y,-z
1/2-x,1/2-y,-z
1/2+x,y,-z
1/2-x,1/2+y,z
1/2+x,-y,z
loop_
_atom_site_type_symbol
_atom_site_label
_atom_site_fract_x
_atom_site_fract_y
_atom_site_fract_z
Si Si1 0.500000 0.421411 0.057723
Si Si2 0.899657 0.927312 0.664392
Si Si3 0.699024 0.075898 0.729147
Si Si4 0.108875 0.425497 0.939748
Si Si5 0.056887 0.921180 0.233671
Si Si6 0.360538 0.573529 0.165169
Si Si7 0.557647 0.574739 0.558687
O O1 0.500000 0.250000 0.042320
O O2 0.446815 0.459532 0.086542
O O3 0.500000 0.500000 0.000000
O O4 0.909537 0.750000 0.665716
O O5 0.843915 0.966804 0.685048
O O6 0.938932 0.010168 0.704455
O O7 0.907010 0.992380 0.602902
O O8 0.708894 0.250000 0.728493
O O9 0.683043 0.025581 0.791790
O O10 0.750000 0.000000 0.710573
O O11 0.119173 0.250000 0.945896
O O12 0.147512 0.494814 0.894974
O O13 0.116750 0.500000 0.000000
O O14 0.076636 0.750000 0.233331
O O15 0.000000 0.925482 0.213823
O O16 0.087314 0.021960 0.190932
O O17 0.362037 0.750000 0.156341
O O18 0.570425 0.500000 0.500000
O O19 0.500000 0.547989 0.574483
O O20 0.570422 0.750000 0.556337
#
# Coordination Sequence:
#
# PCOD8278903 Si02
#       7
#     8  16  16  16  16  16  16
#     4   8  16  28  42  62  90 124 166 202 231 274
#     4  10  20  34  52  77 107 137 173 216 261 310
#     4   9  20  37  57  79 102 128 165 212 264 319
#     4  10  19  32  49  70  98 134 171 209 249 298
#     4  10  20  32  47  70 101 136 173 211 251 300
#     4  10  21  35  50  74 102 130 166 208 256 311
#     4  10  20  33  51  78 112 151 190 221 252 294
#
# _framework density 18.105575999999999
#
# number of rings (size 3 to 8) (size 9 to 14) (size 15 to 20)
#    0.000    2.308    0.000    3.692    1.077    8.308 
#    0.000    0.000    0.000    0.923    0.000    6.462 
#    0.000    0.000    0.000    0.000    0.000    0.000 
#
# Total GULP energy -644553.470445 kJ/mol
# GULP energy per Si atom -12395.259047 kJ/mol
# Density = 1.806437 g / cm^3
# Si number density = 18.105576 Si / 1000 Ang^3
#
#
#
# Elastic Constant Matrix: (Units=GPa)
#
#
# Indices 1 2 3 4 5 6 
#
# 1 68.1171 28.9655 30.2634 0.0000 0.0000 0.0000
# 2 28.9655 75.1264 35.8484 0.0000 0.0000 0.0000
# 3 30.2634 35.8484 102.3764 0.0000 0.0000 0.0000
# 4 0.0000 0.0000 0.0000 36.8794 0.0000 0.0000
# 5 0.0000 0.0000 0.0000 0.0000 16.5437 0.0000
# 6 0.0000 0.0000 0.0000 0.0000 0.0000 25.5601
#
#
#
# Elastic Compliance Matrix: (Units=1/GPa)
#
#
# Indices 1 2 3 4 5 6 
#
# 1 0.018595 -0.005458 -0.003585 0.000000 0.000000 0.000000
# 2 -0.005458 0.017583 -0.004544 0.000000 0.000000 0.000000
# 3 -0.003585 -0.004544 0.012419 0.000000 0.000000 0.000000
# 4 0.000000 0.000000 0.000000 0.027115 0.000000 0.000000
# 5 0.000000 0.000000 0.000000 0.000000 0.060446 0.000000
# 6 0.000000 0.000000 0.000000 0.000000 0.000000 0.039123
#
#
# Mechanical properties :
#
#
# Convention : Reuss Voigt Hill
#
# Bulk Modulus (GPa) = 46.68069 48.41940 47.55005
# Shear Modulus (GPa) = 23.85528 25.83280 24.84404
#
# Velocity S-wave (km/s) = 3.63377 3.78138 3.70831
# Velocity P-wave (km/s) = 6.59122 6.77244 6.68244
#
# Compressibility (1/GPa) = 0.02142213
#
# Stress axis : x y z
#
# Youngs Moduli (GPa) = 53.77895 56.87151 80.52359
#
# Poissons Ratio (x) = 0.31043 0.28871
# Poissons Ratio (y) = 0.29355 0.36586
# Poissons Ratio (z) = 0.19282 0.25840
#
# Static dielectric constant tensor:
#      x y z
#    x 3.198060 0.000000 0.000000 
#    y 0.000000 3.397530 0.000000 
#    z 0.000000 0.000000 3.354880 
# 
# 
# High freq. dielectric constant tensor:
#      x y z
#    x 1.668110 0.000000 0.000000 
#    y 0.000000 1.716030 0.000000 
#    z 0.000000 0.000000 1.700800 
# 
# From -- ./inp_files/42790.got.cif
#   From: 2010.03.12/outbox.cif.g09.slc.cpg/sg67_22_cif.got.tgz:42790.got - 2010.04.10 22:41:39.
