data_PCOD8278507
_publ_section_title
;
Structure prediction by ZEFSAII (Michael W. Deem and Ramdas Pophale) SiO2 
 PCOD8278507
Probable space group: C M M A
;
_chemical_formula_sum "Si O2"
_cell_formula_units_Z 96
_cell_length_a 20.426417
_cell_length_b 18.677091
_cell_length_c 13.981295
_cell_angle_alpha 90.000000
_cell_angle_beta 90.000000
_cell_angle_gamma 90.000000
_cell_volume 5333.948617
_symmetry_space_group_name_H-M "C M M A"
_symmetry_group_IT_number 67
_symmetry_cell_setting 'orthorhombic'
loop_
_space_group_symop_operation_xyz
x,y,z
-x,1/2-y,z
x,-y,-z
-x,1/2+y,-z
-x,-y,-z
x,1/2+y,-z
-x,y,z
x,1/2-y,z
1/2+x,1/2+y,z
1/2-x,-y,z
1/2+x,1/2-y,-z
1/2-x,y,-z
1/2-x,1/2-y,-z
1/2+x,y,-z
1/2-x,1/2+y,z
1/2+x,-y,z
loop_
_atom_site_type_symbol
_atom_site_label
_atom_site_fract_x
_atom_site_fract_y
_atom_site_fract_z
Si Si1 0.073371 0.167347 0.541185
Si Si2 0.684140 0.423258 0.546621
Si Si3 0.734072 0.578629 0.245483
Si Si4 0.310633 0.666084 0.069081
Si Si5 0.136630 0.333064 0.741438
Si Si6 0.927360 0.834874 0.063808
O O1 0.079257 0.250000 0.514093
O O2 0.122427 0.126565 0.471885
O O3 0.089286 0.155109 0.652213
O O4 0.000000 0.139010 0.522887
O O5 0.671103 0.500000 0.500000
O O6 0.750000 0.389442 0.500000
O O7 0.690055 0.430995 0.660351
O O8 0.750000 0.500000 0.204184
O O9 0.693900 0.622100 0.166485
O O10 0.798677 0.621295 0.275062
O O11 0.311463 0.750000 0.093722
O O12 0.250000 0.648038 0.000000
O O13 0.377700 0.640523 0.018925
O O14 0.156809 0.250000 0.754432
O O15 0.098951 0.362623 0.834355
O O16 0.930660 0.750000 0.067647
O O17 0.000000 0.866544 0.044058
#
# Coordination Sequence:
#
# PCOD8278507 Si02
#       6
#    16  16  16  16  16  16
#     4  10  21  35  55  87 119 145 185 242 295 341
#     4  11  21  40  58  79 111 154 195 234 281 342
#     4  12  22  35  57  83 111 144 191 237 278 329
#     4  10  20  36  56  83 114 144 181 225 279 340
#     4  10  18  32  56  83 111 144 185 235 284 329
#     4   9  17  32  55  80 109 145 181 218 268 333
#
# _framework density 17.997924000000001
#
# number of rings (size 3 to 8) (size 9 to 14) (size 15 to 20)
#    0.000    1.667    5.000    1.000    0.000    4.333 
#    0.000    0.833    0.000    5.000    0.000    0.000 
#    0.000    0.000    0.000    0.000    0.000    0.000 
#
# Total GULP energy -595284.780138 kJ/mol
# GULP energy per Si atom -12401.766253 kJ/mol
# Density = 1.795696 g / cm^3
# Si number density = 17.997924 Si / 1000 Ang^3
#
#
#
# Elastic Constant Matrix: (Units=GPa)
#
#
# Indices 1 2 3 4 5 6 
#
# 1 140.1235 51.3991 52.0373 0.0000 0.0000 0.0000
# 2 51.3991 66.2892 44.4421 0.0000 0.0000 0.0000
# 3 52.0373 44.4421 120.4256 0.0000 0.0000 0.0000
# 4 0.0000 0.0000 0.0000 27.9795 0.0000 0.0000
# 5 0.0000 0.0000 0.0000 0.0000 26.0937 0.0000
# 6 0.0000 0.0000 0.0000 0.0000 0.0000 13.5155
#
#
#
# Elastic Compliance Matrix: (Units=1/GPa)
#
#
# Indices 1 2 3 4 5 6 
#
# 1 0.010324 -0.006663 -0.002002 0.000000 0.000000 0.000000
# 2 -0.006663 0.024345 -0.006105 0.000000 0.000000 0.000000
# 3 -0.002002 -0.006105 0.011422 0.000000 0.000000 0.000000
# 4 0.000000 0.000000 0.000000 0.035740 0.000000 0.000000
# 5 0.000000 0.000000 0.000000 0.000000 0.038323 0.000000
# 6 0.000000 0.000000 0.000000 0.000000 0.000000 0.073989
#
#
# Mechanical properties :
#
#
# Convention : Reuss Voigt Hill
#
# Bulk Modulus (GPa) = 60.42110 69.17727 64.79918
# Shear Modulus (GPa) = 21.81494 25.44840 23.63167
#
# Velocity S-wave (km/s) = 3.48527 3.76435 3.62750
# Velocity P-wave (km/s) = 7.05976 7.57717 7.32303
#
# Compressibility (1/GPa) = 0.01655051
#
# Stress axis : x y z
#
# Youngs Moduli (GPa) = 96.86053 41.07701 87.54889
#
# Poissons Ratio (x) = 0.27368 0.17531
# Poissons Ratio (y) = 0.64535 0.53450
# Poissons Ratio (z) = 0.19395 0.25078
#
# Static dielectric constant tensor:
#      x y z
#    x 3.541410 0.000000 0.000000 
#    y 0.000000 3.172450 0.000000 
#    z 0.000000 0.000000 3.339430 
# 
# 
# High freq. dielectric constant tensor:
#      x y z
#    x 1.696580 0.000000 0.000000 
#    y 0.000000 1.675520 0.000000 
#    z 0.000000 0.000000 1.698560 
# 
# From -- ./inp_files/20841.got.cif
#   From: 2010.03.12/outbox.cif.g09.slc.cpg/sg67_11_cif.got.tgz:20841.got - 2010.04.10 22:41:39.
