data_PCOD8278531
_publ_section_title
;
Structure prediction by ZEFSAII (Michael W. Deem and Ramdas Pophale) SiO2 
 PCOD8278531
Probable space group: C M M A
;
_chemical_formula_sum "Si O2"
_cell_formula_units_Z 64
_cell_length_a 16.027326
_cell_length_b 19.843121
_cell_length_c 10.019312
_cell_angle_alpha 90.000000
_cell_angle_beta 90.000000
_cell_angle_gamma 90.000000
_cell_volume 3186.463528
_symmetry_space_group_name_H-M "C M M A"
_symmetry_group_IT_number 67
_symmetry_cell_setting 'orthorhombic'
loop_
_space_group_symop_operation_xyz
x,y,z
-x,1/2-y,z
x,-y,-z
-x,1/2+y,-z
-x,-y,-z
x,1/2+y,-z
-x,y,z
x,1/2-y,z
1/2+x,1/2+y,z
1/2-x,-y,z
1/2+x,1/2-y,-z
1/2-x,y,-z
1/2-x,1/2-y,-z
1/2+x,y,-z
1/2-x,1/2+y,z
1/2+x,-y,z
loop_
_atom_site_type_symbol
_atom_site_label
_atom_site_fract_x
_atom_site_fract_y
_atom_site_fract_z
Si Si1 0.405793 0.907863 0.084192
Si Si2 0.403394 0.573753 0.558041
Si Si3 0.900529 0.825981 0.667772
Si Si4 0.663005 0.039039 0.170937
O O1 0.500000 0.888259 0.043620
O O2 0.367783 0.854398 0.190198
O O3 0.407914 0.981409 0.155584
O O4 0.346762 0.909090 0.953163
O O5 0.389257 0.500000 0.500000
O O6 0.500000 0.587804 0.589935
O O7 0.366980 0.628424 0.454134
O O8 0.349791 0.580602 0.693263
O O9 0.868083 0.750000 0.648274
O O10 0.000000 0.830318 0.669364
O O11 0.750000 0.000000 0.165356
#
# Coordination Sequence:
#
# PCOD8278531 Si02
#       4
#    16  16  16  16
#     4  10  18  33  55  78 105 140 182 226 274 323
#     4  10  18  33  55  81 107 140 183 229 275 320
#     4   9  18  33  55  82 111 143 183 229 276 327
#     4  11  21  32  50  81 113 139 176 230 277 322
#
# _framework density 20.084962000000001
#
# number of rings (size 3 to 8) (size 9 to 14) (size 15 to 20)
#    0.000    2.000    2.500    4.500    0.000    0.500 
#    0.000    1.250    0.000   12.000    0.000    0.000 
#    0.000    0.000    0.000    0.000    0.000    0.750 
#
# Total GULP energy -396708.351636 kJ/mol
# GULP energy per Si atom -12397.135989 kJ/mol
# Density = 2.003925 g / cm^3
# Si number density = 20.084962 Si / 1000 Ang^3
#
#
#
# Elastic Constant Matrix: (Units=GPa)
#
#
# Indices 1 2 3 4 5 6 
#
# 1 60.0416 18.5001 55.6581 0.0000 0.0000 0.0000
# 2 18.5001 120.5900 87.8301 0.0000 0.0000 0.0000
# 3 55.6581 87.8301 209.8358 0.0000 0.0000 0.0000
# 4 0.0000 0.0000 0.0000 34.8856 0.0000 0.0000
# 5 0.0000 0.0000 0.0000 0.0000 14.8620 0.0000
# 6 0.0000 0.0000 0.0000 0.0000 0.0000 11.9258
#
#
#
# Elastic Compliance Matrix: (Units=1/GPa)
#
#
# Indices 1 2 3 4 5 6 
#
# 1 0.022220 0.001271 -0.006426 0.000000 0.000000 0.000000
# 2 0.001271 0.012002 -0.005361 0.000000 0.000000 0.000000
# 3 -0.006426 -0.005361 0.008714 0.000000 0.000000 0.000000
# 4 0.000000 0.000000 0.000000 0.028665 0.000000 0.000000
# 5 0.000000 0.000000 0.000000 0.000000 0.067286 0.000000
# 6 0.000000 0.000000 0.000000 0.000000 0.000000 0.083852
#
#
# Mechanical properties :
#
#
# Convention : Reuss Voigt Hill
#
# Bulk Modulus (GPa) = 45.65100 79.38264 62.51682
# Shear Modulus (GPa) = 19.91464 27.56663 23.74064
#
# Velocity S-wave (km/s) = 3.15226 3.70875 3.44177
# Velocity P-wave (km/s) = 6.00227 7.61242 6.85479
#
# Compressibility (1/GPa) = 0.02190533
#
# Stress axis : x y z
#
# Youngs Moduli (GPa) = 45.00405 83.31923 114.75811
#
# Poissons Ratio (x) = -0.10593 0.73744
# Poissons Ratio (y) = -0.05722 0.61520
# Poissons Ratio (z) = 0.28920 0.44666
#
# Static dielectric constant tensor:
#      x y z
#    x 3.305370 0.000000 0.000000 
#    y 0.000000 3.520390 0.000000 
#    z 0.000000 0.000000 3.914710 
# 
# 
# High freq. dielectric constant tensor:
#      x y z
#    x 1.757710 0.000000 0.000000 
#    y 0.000000 1.741820 0.000000 
#    z 0.000000 0.000000 1.799520 
# 
# From -- ./inp_files/17488.got.cif
#   From: 2010.03.12/outbox.cif.g09.slc.cpg/sg67_9_cif.got.tgz:17488.got - 2010.04.10 22:41:39.
