data_PCOD8278639
_publ_section_title
;
Structure prediction by ZEFSAII (Michael W. Deem and Ramdas Pophale) SiO2 
 PCOD8278639
Probable space group: C M M A
;
_chemical_formula_sum "Si O2"
_cell_formula_units_Z 96
_cell_length_a 25.639159
_cell_length_b 22.399197
_cell_length_c 9.615500
_cell_angle_alpha 90.000000
_cell_angle_beta 90.000000
_cell_angle_gamma 90.000000
_cell_volume 5522.148701
_symmetry_space_group_name_H-M "C M M A"
_symmetry_group_IT_number 67
_symmetry_cell_setting 'orthorhombic'
loop_
_space_group_symop_operation_xyz
x,y,z
-x,1/2-y,z
x,-y,-z
-x,1/2+y,-z
-x,-y,-z
x,1/2+y,-z
-x,y,z
x,1/2-y,z
1/2+x,1/2+y,z
1/2-x,-y,z
1/2+x,1/2-y,-z
1/2-x,y,-z
1/2-x,1/2-y,-z
1/2+x,y,-z
1/2-x,1/2+y,z
1/2+x,-y,z
loop_
_atom_site_type_symbol
_atom_site_label
_atom_site_fract_x
_atom_site_fract_y
_atom_site_fract_z
Si Si1 0.688913 0.992523 0.845456
Si Si2 0.140694 0.180373 0.526480
Si Si3 0.330709 0.116276 0.749199
Si Si4 0.863437 0.681510 0.016645
Si Si5 0.291412 0.863604 0.763278
Si Si6 0.557957 0.679304 0.750463
O O1 0.679586 0.927965 0.777232
O O2 0.750000 0.000000 0.860003
O O3 0.664931 0.044219 0.747257
O O4 0.664267 0.000000 0.000000
O O5 0.139942 0.250000 0.486270
O O6 0.142680 0.141001 0.388638
O O7 0.191474 0.167046 0.619737
O O8 0.089093 0.160710 0.611334
O O9 0.270661 0.135241 0.763570
O O10 0.362511 0.141670 0.879462
O O11 0.870730 0.750000 0.972241
O O12 0.810020 0.675574 0.105332
O O13 0.911370 0.657925 0.111903
O O14 0.500000 0.650896 0.747516
O O15 0.554893 0.750000 0.755183
#
# Coordination Sequence:
#
# PCOD8278639 Si02
#       6
#    16  16  16  16  16  16
#     4   9  17  31  48  67  94 133 179 210 228 265
#     4  10  21  33  47  74 104 131 165 196 244 311
#     4  11  20  30  47  72 106 133 159 208 244 273
#     4  10  19  29  47  75  97 124 167 200 243 303
#     4  10  19  32  48  67 100 143 171 192 231 286
#     4   8  16  34  54  68  91 128 166 205 248 302
#
# _framework density 17.384537000000002
#
# number of rings (size 3 to 8) (size 9 to 14) (size 15 to 20)
#    0.000    2.333    1.667    3.000    0.000    4.667 
#    0.000    3.333    0.000    4.000    0.000   18.667 
#    0.000    0.000    0.000    0.000    0.000    0.000 
#
# Total GULP energy -595031.748903 kJ/mol
# GULP energy per Si atom -12396.494769 kJ/mol
# Density = 1.734497 g / cm^3
# Si number density = 17.384537 Si / 1000 Ang^3
#
#
#
# Elastic Constant Matrix: (Units=GPa)
#
#
# Indices 1 2 3 4 5 6 
#
# 1 86.4625 20.9683 36.3892 0.0000 0.0000 0.0000
# 2 20.9683 77.8233 34.1348 0.0000 0.0000 0.0000
# 3 36.3892 34.1348 121.6724 0.0000 0.0000 0.0000
# 4 0.0000 0.0000 0.0000 26.0227 0.0000 0.0000
# 5 0.0000 0.0000 0.0000 0.0000 5.3396 0.0000
# 6 0.0000 0.0000 0.0000 0.0000 0.0000 10.0919
#
#
#
# Elastic Compliance Matrix: (Units=1/GPa)
#
#
# Indices 1 2 3 4 5 6 
#
# 1 0.013535 -0.002134 -0.003449 0.000000 0.000000 0.000000
# 2 -0.002134 0.014989 -0.003567 0.000000 0.000000 0.000000
# 3 -0.003449 -0.003567 0.010251 0.000000 0.000000 0.000000
# 4 0.000000 0.000000 0.000000 0.038428 0.000000 0.000000
# 5 0.000000 0.000000 0.000000 0.000000 0.187280 0.000000
# 6 0.000000 0.000000 0.000000 0.000000 0.000000 0.099089
#
#
# Mechanical properties :
#
#
# Convention : Reuss Voigt Hill
#
# Bulk Modulus (GPa) = 48.84038 52.10475 50.47256
# Shear Modulus (GPa) = 12.86346 21.25523 17.05934
#
# Velocity S-wave (km/s) = 2.72313 3.50044 3.13596
# Velocity P-wave (km/s) = 6.16785 6.80987 6.49680
#
# Compressibility (1/GPa) = 0.02047486
#
# Stress axis : x y z
#
# Youngs Moduli (GPa) = 73.88308 66.71522 97.55062
#
# Poissons Ratio (x) = 0.14236 0.33648
# Poissons Ratio (y) = 0.15765 0.34796
# Poissons Ratio (z) = 0.25485 0.23797
#
# Static dielectric constant tensor:
#      x y z
#    x 3.200970 0.000000 0.000000 
#    y 0.000000 3.370560 0.000000 
#    z 0.000000 0.000000 3.295110 
# 
# 
# High freq. dielectric constant tensor:
#      x y z
#    x 1.633450 0.000000 0.000000 
#    y 0.000000 1.666330 0.000000 
#    z 0.000000 0.000000 1.672400 
# 
# From -- ./inp_files/11438.got.cif
#   From: 2010.03.12/outbox.cif.g09.slc.cpg/sg67_6_cif.got.tgz:11438.got - 2010.04.10 22:41:39.
