data_PCOD8278892
_publ_section_title
;
Structure prediction by ZEFSAII (Michael W. Deem and Ramdas Pophale) SiO2 
 PCOD8278892
Probable space group: C M M A
;
_chemical_formula_sum "Si O2"
_cell_formula_units_Z 72
_cell_length_a 16.142325
_cell_length_b 8.539900
_cell_length_c 25.115177
_cell_angle_alpha 90.000000
_cell_angle_beta 90.000000
_cell_angle_gamma 90.000000
_cell_volume 3462.223624
_symmetry_space_group_name_H-M "C M M A"
_symmetry_group_IT_number 67
_symmetry_cell_setting 'orthorhombic'
loop_
_space_group_symop_operation_xyz
x,y,z
-x,1/2-y,z
x,-y,-z
-x,1/2+y,-z
-x,-y,-z
x,1/2+y,-z
-x,y,z
x,1/2-y,z
1/2+x,1/2+y,z
1/2-x,-y,z
1/2+x,1/2-y,-z
1/2-x,y,-z
1/2-x,1/2-y,-z
1/2+x,y,-z
1/2-x,1/2+y,z
1/2+x,-y,z
loop_
_atom_site_type_symbol
_atom_site_label
_atom_site_fract_x
_atom_site_fract_y
_atom_site_fract_z
Si Si1 0.340108 0.435535 0.552406
Si Si2 0.090940 0.435563 0.338026
Si Si3 0.161019 0.932629 0.117699
Si Si4 0.598099 0.068193 0.778289
Si Si5 0.500000 0.064969 0.941084
O O1 0.390569 0.500000 0.500000
O O2 0.345505 0.250000 0.552793
O O3 0.250000 0.500000 0.544749
O O4 0.367503 0.507480 0.609283
O O5 0.087200 0.250000 0.343178
O O6 0.132144 0.478209 0.280914
O O7 0.000000 0.507860 0.337058
O O8 0.160294 0.750000 0.105237
O O9 0.250000 0.000000 0.098514
O O10 0.149211 0.963102 0.180536
O O11 0.083930 0.010729 0.087617
O O12 0.500000 0.035241 0.782831
O O13 0.615699 0.250000 0.790763
O O14 0.500000 0.250000 0.941713
O O15 0.500000 0.000000 0.000000
#
# Coordination Sequence:
#
# PCOD8278892 Si02
#       5
#    16  16  16  16   8
#     4  10  19  32  49  68  96 134 180 230 287 350
#     4   8  16  31  52  78 106 141 184 231 288 355
#     4  12  25  42  66  99 135 174 220 266 316 375
#     4   9  17  34  60  86 118 159 200 246 308 373
#     4  12  26  48  74 102 136 176 217 264 319 370
#
# _framework density 20.795884000000001
#
# number of rings (size 3 to 8) (size 9 to 14) (size 15 to 20)
#    0.000    2.000    1.111    5.667    0.000    1.778 
#    0.000    6.667    0.000    4.667    0.000    0.000 
#    0.000    0.000    0.000    0.000    0.000    0.000 
#
# Total GULP energy -445986.798330 kJ/mol
# GULP energy per Si atom -12388.522176 kJ/mol
# Density = 2.074855 g / cm^3
# Si number density = 20.795884 Si / 1000 Ang^3
#
#
#
# Elastic Constant Matrix: (Units=GPa)
#
#
# Indices 1 2 3 4 5 6 
#
# 1 105.8603 41.1282 61.3052 0.0000 0.0000 0.0000
# 2 41.1282 108.1423 45.0441 0.0000 0.0000 0.0000
# 3 61.3052 45.0441 170.3879 0.0000 0.0000 0.0000
# 4 0.0000 0.0000 0.0000 51.9678 0.0000 0.0000
# 5 0.0000 0.0000 0.0000 0.0000 16.7249 0.0000
# 6 0.0000 0.0000 0.0000 0.0000 0.0000 18.7809
#
#
#
# Elastic Compliance Matrix: (Units=1/GPa)
#
#
# Indices 1 2 3 4 5 6 
#
# 1 0.012928 -0.003348 -0.003767 0.000000 0.000000 0.000000
# 2 -0.003348 0.011258 -0.001772 0.000000 0.000000 0.000000
# 3 -0.003767 -0.001772 0.007693 0.000000 0.000000 0.000000
# 4 0.000000 0.000000 0.000000 0.019243 0.000000 0.000000
# 5 0.000000 0.000000 0.000000 0.000000 0.059791 0.000000
# 6 0.000000 0.000000 0.000000 0.000000 0.000000 0.053246
#
#
# Mechanical properties :
#
#
# Convention : Reuss Voigt Hill
#
# Bulk Modulus (GPa) = 70.88765 75.48282 73.18523
# Shear Modulus (GPa) = 26.79049 33.28891 30.03970
#
# Velocity S-wave (km/s) = 3.59313 4.00527 3.80478
# Velocity P-wave (km/s) = 7.16767 7.60036 7.38718
#
# Compressibility (1/GPa) = 0.01410683
#
# Stress axis : x y z
#
# Youngs Moduli (GPa) = 77.34903 88.82322 129.99661
#
# Poissons Ratio (x) = 0.29738 0.48964
# Poissons Ratio (y) = 0.25897 0.23031
# Poissons Ratio (z) = 0.29134 0.15736
#
# Static dielectric constant tensor:
#      x y z
#    x 3.772100 0.000000 0.000000 
#    y 0.000000 3.537190 0.000000 
#    z 0.000000 0.000000 4.522660 
# 
# 
# High freq. dielectric constant tensor:
#      x y z
#    x 1.796860 0.000000 0.000000 
#    y 0.000000 1.790950 0.000000 
#    z 0.000000 0.000000 1.840570 
# 
# From -- ./inp_files/44261.got.cif
#   From: 2010.03.12/outbox.cif.g09.slc.cpg/sg67_23_cif.got.tgz:44261.got - 2010.04.10 22:41:39.
