data_PCOD8278749
_publ_section_title
;
Structure prediction by ZEFSAII (Michael W. Deem and Ramdas Pophale) SiO2 
 PCOD8278749
Probable space group: C M M A
;
_chemical_formula_sum "Si O2"
_cell_formula_units_Z 120
_cell_length_a 9.353400
_cell_length_b 26.278594
_cell_length_c 29.127084
_cell_angle_alpha 90.000000
_cell_angle_beta 90.000000
_cell_angle_gamma 90.000000
_cell_volume 7159.268343
_symmetry_space_group_name_H-M "C M M A"
_symmetry_group_IT_number 67
_symmetry_cell_setting 'orthorhombic'
loop_
_space_group_symop_operation_xyz
x,y,z
-x,1/2-y,z
x,-y,-z
-x,1/2+y,-z
-x,-y,-z
x,1/2+y,-z
-x,y,z
x,1/2-y,z
1/2+x,1/2+y,z
1/2-x,-y,z
1/2+x,1/2-y,-z
1/2-x,y,-z
1/2-x,1/2-y,-z
1/2+x,y,-z
1/2-x,1/2+y,z
1/2+x,-y,z
loop_
_atom_site_type_symbol
_atom_site_label
_atom_site_fract_x
_atom_site_fract_y
_atom_site_fract_z
Si Si1 0.657409 0.310340 0.541174
Si Si2 0.668704 0.448928 0.114274
Si Si3 0.668497 0.308736 0.643286
Si Si4 0.663847 0.547970 0.778917
Si Si5 0.668925 0.750000 0.047538
Si Si6 0.658478 0.306815 0.802789
Si Si7 0.167868 0.350986 0.725952
Si Si8 0.833283 0.648394 0.898575
O O1 0.500000 0.333882 0.536108
O O2 0.649489 0.250000 0.536069
O O3 0.750000 0.334516 0.500000
O O4 0.718676 0.323452 0.591675
O O5 0.500000 0.452971 0.103033
O O6 0.750000 0.500000 0.097603
O O7 0.698226 0.440373 0.168123
O O8 0.737408 0.400578 0.087288
O O9 0.500000 0.318116 0.649100
O O10 0.705255 0.250000 0.653950
O O11 0.756902 0.344975 0.676940
O O12 0.500000 0.534254 0.772696
O O13 0.750000 0.500000 0.760431
O O14 0.708810 0.594576 0.746811
O O15 0.500000 0.750000 0.039471
O O16 0.716015 0.698781 0.074223
O O17 0.750000 0.750000 0.000000
O O18 0.500000 0.319787 0.783439
O O19 0.660781 0.250000 0.822935
O O20 0.771767 0.309854 0.761728
O O21 0.696467 0.343540 0.844689
O O22 0.000000 0.342655 0.720301
O O23 0.000000 0.636578 0.907830
#
# Coordination Sequence:
#
# PCOD8278749 Si02
#       8
#    16  16  16  16   8  16  16  16
#     4   8  14  25  41  59  80 108 148 195 236 276
#     4  10  19  33  52  77 106 135 169 210 254 299
#     4   9  18  31  43  59  87 125 163 193 227 281
#     4   9  19  32  45  64  91 121 157 198 237 280
#     4  10  22  40  60  84 112 140 174 212 255 304
#     4  10  19  31  47  67  93 130 168 197 230 278
#     4  11  21  31  42  64  95 124 157 199 239 278
#     4  10  19  34  55  78 104 135 171 209 246 296
#
# _framework density 16.761489000000001
#
# number of rings (size 3 to 8) (size 9 to 14) (size 15 to 20)
#    0.000    2.400    2.000    2.000    0.000    4.800 
#    0.000    1.333    0.000    0.400    0.000    2.800 
#    0.000    0.533    0.000    5.867    0.000    4.533 
#
# Total GULP energy -743795.238880 kJ/mol
# GULP energy per Si atom -12396.587315 kJ/mol
# Density = 1.672334 g / cm^3
# Si number density = 16.761489 Si / 1000 Ang^3
#
#
#
# Elastic Constant Matrix: (Units=GPa)
#
#
# Indices 1 2 3 4 5 6 
#
# 1 70.4852 51.5853 39.6031 0.0000 0.0000 0.0000
# 2 51.5853 101.9316 34.1453 0.0000 0.0000 0.0000
# 3 39.6031 34.1453 70.7280 0.0000 0.0000 0.0000
# 4 0.0000 0.0000 0.0000 11.1818 0.0000 0.0000
# 5 0.0000 0.0000 0.0000 0.0000 28.4826 0.0000
# 6 0.0000 0.0000 0.0000 0.0000 0.0000 28.8360
#
#
#
# Elastic Compliance Matrix: (Units=1/GPa)
#
#
# Indices 1 2 3 4 5 6 
#
# 1 0.027798 -0.010562 -0.010466 0.000000 0.000000 0.000000
# 2 -0.010562 0.015716 -0.001673 0.000000 0.000000 0.000000
# 3 -0.010466 -0.001673 0.020807 0.000000 0.000000 0.000000
# 4 0.000000 0.000000 0.000000 0.089431 0.000000 0.000000
# 5 0.000000 0.000000 0.000000 0.000000 0.035109 0.000000
# 6 0.000000 0.000000 0.000000 0.000000 0.000000 0.034679
#
#
# Mechanical properties :
#
#
# Convention : Reuss Voigt Hill
#
# Bulk Modulus (GPa) = 52.85886 54.86803 53.86345
# Shear Modulus (GPa) = 18.16544 21.55416 19.85980
#
# Velocity S-wave (km/s) = 3.29562 3.58988 3.44589
# Velocity P-wave (km/s) = 6.78866 7.07026 6.93089
#
# Compressibility (1/GPa) = 0.01891830
#
# Stress axis : x y z
#
# Youngs Moduli (GPa) = 35.97436 63.62884 48.06132
#
# Poissons Ratio (x) = 0.67204 0.50301
# Poissons Ratio (y) = 0.37995 0.08042
# Poissons Ratio (z) = 0.37651 0.10647
#
# Static dielectric constant tensor:
#      x y z
#    x 3.224590 0.000000 0.000000 
#    y 0.000000 3.014240 0.000000 
#    z 0.000000 0.000000 3.011580 
# 
# 
# High freq. dielectric constant tensor:
#      x y z
#    x 1.648900 0.000000 0.000000 
#    y 0.000000 1.624360 0.000000 
#    z 0.000000 0.000000 1.625650 
# 
# From -- ./inp_files/43919.got.cif
#   From: 2010.03.12/outbox.cif.g09.slc.cpg/sg67_22_cif.got.tgz:43919.got - 2010.04.10 22:41:39.
