data_PCOD8278804
_publ_section_title
;
Structure prediction by ZEFSAII (Michael W. Deem and Ramdas Pophale) SiO2 
 PCOD8278804
Probable space group: C M M A
;
_chemical_formula_sum "Si O2"
_cell_formula_units_Z 128
_cell_length_a 10.196679
_cell_length_b 28.012694
_cell_length_c 25.544982
_cell_angle_alpha 90.000000
_cell_angle_beta 90.000000
_cell_angle_gamma 90.000000
_cell_volume 7296.577939
_symmetry_space_group_name_H-M "C M M A"
_symmetry_group_IT_number 67
_symmetry_cell_setting 'orthorhombic'
loop_
_space_group_symop_operation_xyz
x,y,z
-x,1/2-y,z
x,-y,-z
-x,1/2+y,-z
-x,-y,-z
x,1/2+y,-z
-x,y,z
x,1/2-y,z
1/2+x,1/2+y,z
1/2-x,-y,z
1/2+x,1/2-y,-z
1/2-x,y,-z
1/2-x,1/2-y,-z
1/2+x,y,-z
1/2-x,1/2+y,z
1/2+x,-y,z
loop_
_atom_site_type_symbol
_atom_site_label
_atom_site_fract_x
_atom_site_fract_y
_atom_site_fract_z
Si Si1 0.146640 0.960919 0.403856
Si Si2 0.347462 0.860676 0.955922
Si Si3 0.344908 0.855573 0.750112
Si Si4 0.655876 0.196374 0.351822
Si Si5 0.150683 0.958822 0.282487
Si Si6 0.844699 0.196130 0.852727
Si Si7 0.139587 0.471655 0.944978
Si Si8 0.848417 0.859973 0.453677
O O1 0.170234 0.946485 0.343595
O O2 0.165826 0.915380 0.440163
O O3 0.000000 0.981932 0.410546
O O4 0.250000 0.000000 0.423148
O O5 0.500000 0.850537 0.970140
O O6 0.303887 0.834238 0.903212
O O7 0.320771 0.916925 0.951273
O O8 0.250000 0.840009 0.000000
O O9 0.500000 0.848924 0.749118
O O10 0.284154 0.830270 0.698826
O O11 0.310702 0.911713 0.750188
O O12 0.285475 0.830558 0.801853
O O13 0.500000 0.195239 0.348670
O O14 0.710555 0.250000 0.352299
O O15 0.701589 0.170512 0.404475
O O16 0.000000 0.974305 0.271499
O O17 0.250000 0.000000 0.264177
O O18 0.787881 0.250000 0.856382
O O19 0.000000 0.198202 0.848170
O O20 0.250000 0.500000 0.911230
O O21 0.000000 0.474687 0.915495
O O22 0.129312 0.500000 0.000000
O O23 0.750000 0.846334 0.500000
O O24 0.000000 0.847983 0.468446
#
# Coordination Sequence:
#
# PCOD8278804 Si02
#       8
#    16  16  16  16  16  16  16  16
#     4   9  17  30  47  68  95 127 162 198 237 286
#     4  10  19  31  49  73 101 132 166 202 242 291
#     4   9  15  28  51  75  99 126 160 204 247 288
#     4   9  16  28  49  73  94 123 163 202 245 295
#     4   9  16  28  49  74 100 128 159 195 239 291
#     4   9  18  31  48  74 103 127 159 208 256 290
#     4   9  15  25  43  66  91 124 163 198 231 274
#     4  10  20  33  47  69 100 129 160 202 246 291
#
# _framework density 17.542470000000002
#
# number of rings (size 3 to 8) (size 9 to 14) (size 15 to 20)
#    0.000    2.750    2.500    0.375    0.000    2.750 
#    0.000    1.875    0.000    0.750    0.000    0.000 
#    0.000    3.000    0.000    0.000    0.000    0.000 
#
# Total GULP energy -793174.073309 kJ/mol
# GULP energy per Si atom -12393.344895 kJ/mol
# Density = 1.750254 g / cm^3
# Si number density = 17.542470 Si / 1000 Ang^3
#
#
#
# Elastic Constant Matrix: (Units=GPa)
#
#
# Indices 1 2 3 4 5 6 
#
# 1 69.0600 40.7578 43.6530 0.0000 0.0000 0.0000
# 2 40.7578 118.4178 69.7991 0.0000 0.0000 0.0000
# 3 43.6530 69.7991 119.5413 0.0000 0.0000 0.0000
# 4 0.0000 0.0000 0.0000 24.4834 0.0000 0.0000
# 5 0.0000 0.0000 0.0000 0.0000 15.1325 0.0000
# 6 0.0000 0.0000 0.0000 0.0000 0.0000 10.6455
#
#
#
# Elastic Compliance Matrix: (Units=1/GPa)
#
#
# Indices 1 2 3 4 5 6 
#
# 1 0.019953 -0.003923 -0.004996 0.000000 0.000000 0.000000
# 2 -0.003923 0.013647 -0.006536 0.000000 0.000000 0.000000
# 3 -0.004996 -0.006536 0.014006 0.000000 0.000000 0.000000
# 4 0.000000 0.000000 0.000000 0.040844 0.000000 0.000000
# 5 0.000000 0.000000 0.000000 0.000000 0.066083 0.000000
# 6 0.000000 0.000000 0.000000 0.000000 0.000000 0.093937
#
#
# Mechanical properties :
#
#
# Convention : Reuss Voigt Hill
#
# Bulk Modulus (GPa) = 59.89075 68.38210 64.13642
# Shear Modulus (GPa) = 17.54721 20.23956 18.89339
#
# Velocity S-wave (km/s) = 3.16614 3.40037 3.28534
# Velocity P-wave (km/s) = 6.89786 7.38121 7.14362
#
# Compressibility (1/GPa) = 0.01669707
#
# Stress axis : x y z
#
# Youngs Moduli (GPa) = 50.11711 73.27365 71.39816
#
# Poissons Ratio (x) = 0.28745 0.35669
# Poissons Ratio (y) = 0.19661 0.46666
# Poissons Ratio (z) = 0.25037 0.47892
#
# Static dielectric constant tensor:
#      x y z
#    x 3.590850 0.000000 0.000000 
#    y 0.000000 3.358480 0.000000 
#    z 0.000000 0.000000 3.183420 
# 
# 
# High freq. dielectric constant tensor:
#      x y z
#    x 1.638990 0.000000 0.000000 
#    y 0.000000 1.685530 0.000000 
#    z 0.000000 0.000000 1.661470 
# 
# From -- ./inp_files/41633.got.cif
#   From: 2010.03.12/outbox.cif.g09.slc.cpg/sg67_21_cif.got.tgz:41633.got - 2010.04.10 22:41:39.
