data_PCOD8278736
_publ_section_title
;
Structure prediction by ZEFSAII (Michael W. Deem and Ramdas Pophale) SiO2 
 PCOD8278736
Probable space group: C M M A
;
_chemical_formula_sum "Si O2"
_cell_formula_units_Z 104
_cell_length_a 8.717405
_cell_length_b 25.154121
_cell_length_c 30.130107
_cell_angle_alpha 90.000000
_cell_angle_beta 90.000000
_cell_angle_gamma 90.000000
_cell_volume 6606.889494
_symmetry_space_group_name_H-M "C M M A"
_symmetry_group_IT_number 67
_symmetry_cell_setting 'orthorhombic'
loop_
_space_group_symop_operation_xyz
x,y,z
-x,1/2-y,z
x,-y,-z
-x,1/2+y,-z
-x,-y,-z
x,1/2+y,-z
-x,y,z
x,1/2-y,z
1/2+x,1/2+y,z
1/2-x,-y,z
1/2+x,1/2-y,-z
1/2-x,y,-z
1/2-x,1/2-y,-z
1/2+x,y,-z
1/2-x,1/2+y,z
1/2+x,-y,z
loop_
_atom_site_type_symbol
_atom_site_label
_atom_site_fract_x
_atom_site_fract_y
_atom_site_fract_z
Si Si1 0.172438 0.313401 0.866378
Si Si2 0.682763 0.250000 0.451243
Si Si3 0.676766 0.687409 0.687804
Si Si4 0.183646 0.942243 0.453115
Si Si5 0.681288 0.151048 0.600612
Si Si6 0.828315 0.686800 0.777757
Si Si7 0.327537 0.686631 0.044533
O O1 0.178993 0.250000 0.866581
O O2 0.262471 0.336350 0.823813
O O3 0.244220 0.336019 0.911781
O O4 0.000000 0.334312 0.863241
O O5 0.500000 0.250000 0.452747
O O6 0.750000 0.250000 0.500000
O O7 0.739918 0.198271 0.426076
O O8 0.500000 0.673010 0.679478
O O9 0.705863 0.750000 0.682681
O O10 0.783100 0.657194 0.652606
O O11 0.724468 0.667487 0.736700
O O12 0.250000 0.921506 0.500000
O O13 0.243453 0.903859 0.414745
O O14 0.000000 0.943650 0.454964
O O15 0.250000 0.000000 0.442253
O O16 0.500000 0.151184 0.592229
O O17 0.826981 0.750000 0.780084
O O18 0.000000 0.665073 0.771198
O O19 0.500000 0.665681 0.045581
O O20 0.320253 0.750000 0.044363
O O21 0.250000 0.663842 0.000000
#
# Coordination Sequence:
#
# PCOD8278736 Si02
#       7
#    16   8  16  16  16  16  16
#     4   9  15  22  31  43  59  81 112 149 191 238
#     4  12  24  38  52  72  98 126 154 184 219 262
#     4  10  19  31  46  64  88 115 144 176 214 258
#     4  11  22  39  59  79 100 123 153 186 221 260
#     4  12  23  36  53  74  98 125 153 184 222 265
#     4   9  16  25  37  52  71  96 127 161 199 244
#     4   9  15  21  28  38  53  74 102 140 188 239
#
# _framework density 15.741144
#
# number of rings (size 3 to 8) (size 9 to 14) (size 15 to 20)
#    0.000    1.846    0.769    6.231    0.000    6.154 
#    0.000    0.000    0.000    0.000    0.000    0.000 
#    0.000    0.000    0.000    0.000    0.000    0.000 
#
# Total GULP energy -644829.556199 kJ/mol
# GULP energy per Si atom -12400.568388 kJ/mol
# Density = 1.570532 g / cm^3
# Si number density = 15.741144 Si / 1000 Ang^3
#
#
#
# Elastic Constant Matrix: (Units=GPa)
#
#
# Indices 1 2 3 4 5 6 
#
# 1 141.5731 24.7267 53.0365 0.0000 0.0000 0.0000
# 2 24.7267 32.9523 27.2612 0.0000 0.0000 0.0000
# 3 53.0365 27.2612 132.8584 0.0000 0.0000 0.0000
# 4 0.0000 0.0000 0.0000 5.2391 0.0000 0.0000
# 5 0.0000 0.0000 0.0000 0.0000 35.5669 0.0000
# 6 0.0000 0.0000 0.0000 0.0000 0.0000 14.6678
#
#
#
# Elastic Compliance Matrix: (Units=1/GPa)
#
#
# Indices 1 2 3 4 5 6 
#
# 1 0.008819 -0.004462 -0.002605 0.000000 0.000000 0.000000
# 2 -0.004462 0.038810 -0.006182 0.000000 0.000000 0.000000
# 3 -0.002605 -0.006182 0.009835 0.000000 0.000000 0.000000
# 4 0.000000 0.000000 0.000000 0.190873 0.000000 0.000000
# 5 0.000000 0.000000 0.000000 0.000000 0.028116 0.000000
# 6 0.000000 0.000000 0.000000 0.000000 0.000000 0.068177
#
#
# Mechanical properties :
#
#
# Convention : Reuss Voigt Hill
#
# Bulk Modulus (GPa) = 32.29436 57.49252 44.89344
# Shear Modulus (GPa) = 13.10792 24.58538 18.84665
#
# Velocity S-wave (km/s) = 2.88881 3.95632 3.46394
# Velocity P-wave (km/s) = 5.62916 7.58109 6.67684
#
# Compressibility (1/GPa) = 0.03096516
#
# Stress axis : x y z
#
# Youngs Moduli (GPa) = 113.39560 25.76674 101.67681
#
# Poissons Ratio (x) = 0.11498 0.26484
# Poissons Ratio (y) = 0.50603 0.62856
# Poissons Ratio (z) = 0.29536 0.15929
#
# Static dielectric constant tensor:
#      x y z
#    x 3.248440 0.000000 0.000000 
#    y 0.000000 2.429650 0.000000 
#    z 0.000000 0.000000 3.244980 
# 
# 
# High freq. dielectric constant tensor:
#      x y z
#    x 1.630260 0.000000 0.000000 
#    y 0.000000 1.518810 0.000000 
#    z 0.000000 0.000000 1.620690 
# 
# From -- ./inp_files/45399.got.cif
#   From: 2010.03.12/outbox.cif.g09.slc.cpg/sg67_23_cif.got.tgz:45399.got - 2010.04.10 22:41:39.
