data_PCOD8278672
_publ_section_title
;
Structure prediction by ZEFSAII (Michael W. Deem and Ramdas Pophale) SiO2 
 PCOD8278672
Probable space group: C M M A
;
_chemical_formula_sum "Si O2"
_cell_formula_units_Z 112
_cell_length_a 10.220448
_cell_length_b 18.483779
_cell_length_c 34.531488
_cell_angle_alpha 90.000000
_cell_angle_beta 90.000000
_cell_angle_gamma 90.000000
_cell_volume 6523.429800
_symmetry_space_group_name_H-M "C M M A"
_symmetry_group_IT_number 67
_symmetry_cell_setting 'orthorhombic'
loop_
_space_group_symop_operation_xyz
x,y,z
-x,1/2-y,z
x,-y,-z
-x,1/2+y,-z
-x,-y,-z
x,1/2+y,-z
-x,y,z
x,1/2-y,z
1/2+x,1/2+y,z
1/2-x,-y,z
1/2+x,1/2-y,-z
1/2-x,y,-z
1/2-x,1/2-y,-z
1/2+x,y,-z
1/2-x,1/2+y,z
1/2+x,-y,z
loop_
_atom_site_type_symbol
_atom_site_label
_atom_site_fract_x
_atom_site_fract_y
_atom_site_fract_z
Si Si1 0.351943 0.166741 0.032585
Si Si2 0.353960 0.163895 0.260904
Si Si3 0.345611 0.330282 0.174900
Si Si4 0.647497 0.333635 0.677312
Si Si5 0.860113 0.923640 0.522789
Si Si6 0.152985 0.432885 0.893433
Si Si7 0.148027 0.943132 0.611515
O O1 0.500000 0.156803 0.016741
O O2 0.326549 0.250000 0.044312
O O3 0.328695 0.118287 0.069877
O O4 0.250000 0.141128 0.000000
O O5 0.500000 0.134157 0.270663
O O6 0.356330 0.250000 0.262151
O O7 0.309471 0.140219 0.217773
O O8 0.249023 0.132824 0.291577
O O9 0.500000 0.322490 0.171091
O O10 0.284001 0.250000 0.167735
O O11 0.295377 0.388065 0.143689
O O12 0.500000 0.346060 0.693079
O O13 0.677484 0.250000 0.670494
O O14 0.665813 0.369809 0.635523
O O15 0.750000 0.876840 0.500000
O O16 0.815314 0.930497 0.566948
O O17 0.000000 0.883705 0.520902
O O18 0.870281 0.000000 0.500000
O O19 0.250000 0.500000 0.898338
O O20 0.000000 0.456879 0.889223
O O21 0.000000 0.973288 0.615043
O O22 0.250000 0.000000 0.629348
#
# Coordination Sequence:
#
# PCOD8278672 Si02
#       7
#    16  16  16  16  16  16  16
#     4   9  18  33  53  74  95 124 164 207 246 283
#     4   8  14  27  49  73  92 116 155 197 233 272
#     4   8  14  28  52  75  91 115 158 204 236 270
#     4   9  18  32  48  67  95 127 154 184 228 282
#     4   9  15  25  42  64  85 109 143 185 225 260
#     4  10  20  33  49  71 100 131 161 194 238 292
#     4  10  19  30  46  69  92 117 152 189 226 268
#
# _framework density 17.168882
#
# number of rings (size 3 to 8) (size 9 to 14) (size 15 to 20)
#    0.000    3.000    1.429    1.286    0.000    3.143 
#    0.000    2.857    0.000    6.000    0.000    0.000 
#    0.000    0.000    0.000    0.000    0.000    0.000 
#
# Total GULP energy -693870.593234 kJ/mol
# GULP energy per Si atom -12390.546308 kJ/mol
# Density = 1.712981 g / cm^3
# Si number density = 17.168882 Si / 1000 Ang^3
#
#
#
# Elastic Constant Matrix: (Units=GPa)
#
#
# Indices 1 2 3 4 5 6 
#
# 1 106.8583 41.8960 65.9905 0.0000 0.0000 0.0000
# 2 41.8960 51.1183 44.1290 0.0000 0.0000 0.0000
# 3 65.9905 44.1290 127.8167 0.0000 0.0000 0.0000
# 4 0.0000 0.0000 0.0000 15.1026 0.0000 0.0000
# 5 0.0000 0.0000 0.0000 0.0000 21.4616 0.0000
# 6 0.0000 0.0000 0.0000 0.0000 0.0000 19.6204
#
#
#
# Elastic Compliance Matrix: (Units=1/GPa)
#
#
# Indices 1 2 3 4 5 6 
#
# 1 0.015972 -0.008508 -0.005309 0.000000 0.000000 0.000000
# 2 -0.008508 0.032400 -0.006794 0.000000 0.000000 0.000000
# 3 -0.005309 -0.006794 0.012910 0.000000 0.000000 0.000000
# 4 0.000000 0.000000 0.000000 0.066214 0.000000 0.000000
# 5 0.000000 0.000000 0.000000 0.000000 0.046595 0.000000
# 6 0.000000 0.000000 0.000000 0.000000 0.000000 0.050967
#
#
# Mechanical properties :
#
#
# Convention : Reuss Voigt Hill
#
# Bulk Modulus (GPa) = 49.84604 65.53604 57.69104
# Shear Modulus (GPa) = 18.31723 20.15546 19.23635
#
# Velocity S-wave (km/s) = 3.26987 3.43002 3.35090
# Velocity P-wave (km/s) = 6.58421 7.34445 6.97470
#
# Compressibility (1/GPa) = 0.02006177
#
# Stress axis : x y z
#
# Youngs Moduli (GPa) = 62.60791 30.86408 77.45722
#
# Poissons Ratio (x) = 0.26258 0.41123
# Poissons Ratio (y) = 0.53264 0.52623
# Poissons Ratio (z) = 0.33239 0.20969
#
# Static dielectric constant tensor:
#      x y z
#    x 3.943770 0.000000 0.000000 
#    y 0.000000 2.951970 0.000000 
#    z 0.000000 0.000000 3.396170 
# 
# 
# High freq. dielectric constant tensor:
#      x y z
#    x 1.662750 0.000000 0.000000 
#    y 0.000000 1.619840 0.000000 
#    z 0.000000 0.000000 1.670210 
# 
# From -- ./inp_files/45589.got.cif
#   From: 2010.03.12/outbox.cif.g09.slc.cpg/sg67_23_cif.got.tgz:45589.got - 2010.04.10 22:41:39.
