data_PCOD8278629
_publ_section_title
;
Structure prediction by ZEFSAII (Michael W. Deem and Ramdas Pophale) SiO2 
 PCOD8278629
Probable space group: C M M A
;
_chemical_formula_sum "Si O2"
_cell_formula_units_Z 96
_cell_length_a 23.741316
_cell_length_b 8.711876
_cell_length_c 25.664530
_cell_angle_alpha 90.000000
_cell_angle_beta 90.000000
_cell_angle_gamma 90.000000
_cell_volume 5308.230698
_symmetry_space_group_name_H-M "C M M A"
_symmetry_group_IT_number 67
_symmetry_cell_setting 'orthorhombic'
loop_
_space_group_symop_operation_xyz
x,y,z
-x,1/2-y,z
x,-y,-z
-x,1/2+y,-z
-x,-y,-z
x,1/2+y,-z
-x,y,z
x,1/2-y,z
1/2+x,1/2+y,z
1/2-x,-y,z
1/2+x,1/2-y,-z
1/2-x,y,-z
1/2-x,1/2-y,-z
1/2+x,y,-z
1/2-x,1/2+y,z
1/2+x,-y,z
loop_
_atom_site_type_symbol
_atom_site_label
_atom_site_fract_x
_atom_site_fract_y
_atom_site_fract_z
Si Si1 0.500000 0.074410 0.314593
Si Si2 0.601358 0.428626 0.740551
Si Si3 0.500000 0.071501 0.577550
Si Si4 0.878161 0.067057 0.447272
Si Si5 0.433158 0.422121 0.948035
Si Si6 0.565818 0.429626 0.159161
Si Si7 0.310889 0.928500 0.346558
O O1 0.500000 0.250000 0.334086
O O2 0.445706 0.043214 0.280278
O O3 0.500000 0.954816 0.361212
O O4 0.584504 0.250000 0.734406
O O5 0.605997 0.474683 0.801254
O O6 0.657926 0.463750 0.707977
O O7 0.500000 0.250000 0.566654
O O8 0.557572 0.000860 0.554202
O O9 0.877215 0.250000 0.448254
O O10 0.845443 0.004549 0.396247
O O11 0.849853 0.000000 0.500000
O O12 0.500000 0.417465 0.952161
O O13 0.409004 0.250000 0.942806
O O14 0.414530 0.521984 0.898385
O O15 0.407780 0.500000 0.000000
O O16 0.500000 0.471950 0.168212
O O17 0.576281 0.250000 0.166588
O O18 0.303544 0.750000 0.355554
O O19 0.250000 0.000000 0.343750
#
# Coordination Sequence:
#
# PCOD8278629 Si02
#       7
#     8  16   8  16  16  16  16
#     4  12  22  31  51  82 106 131 168 209 256 307
#     4  11  21  36  55  74 103 138 171 210 263 318
#     4  10  19  37  57  76 110 139 165 201 250 313
#     4  10  21  37  57  81 106 136 168 206 253 306
#     4   9  16  26  40  60  92 138 182 217 257 300
#     4  10  19  29  44  72 104 133 174 218 257 306
#     4  10  23  41  59  77 100 134 173 214 262 311
#
# _framework density 18.085121000000001
#
# number of rings (size 3 to 8) (size 9 to 14) (size 15 to 20)
#    0.000    1.833    2.500    2.500    0.000    5.667 
#    0.000    1.667    0.000    0.000    0.000    0.000 
#    0.000    0.667    0.000    7.000    0.000    4.167 
#
# Total GULP energy -595078.775669 kJ/mol
# GULP energy per Si atom -12397.474493 kJ/mol
# Density = 1.804396 g / cm^3
# Si number density = 18.085121 Si / 1000 Ang^3
#
#
#
# Elastic Constant Matrix: (Units=GPa)
#
#
# Indices 1 2 3 4 5 6 
#
# 1 87.7174 33.1288 46.9049 0.0000 0.0000 0.0000
# 2 33.1288 58.9334 34.8873 0.0000 0.0000 0.0000
# 3 46.9049 34.8873 152.9103 0.0000 0.0000 0.0000
# 4 0.0000 0.0000 0.0000 34.8851 0.0000 0.0000
# 5 0.0000 0.0000 0.0000 0.0000 8.4923 0.0000
# 6 0.0000 0.0000 0.0000 0.0000 0.0000 15.4128
#
#
#
# Elastic Compliance Matrix: (Units=1/GPa)
#
#
# Indices 1 2 3 4 5 6 
#
# 1 0.015757 -0.006933 -0.003252 0.000000 0.000000 0.000000
# 2 -0.006933 0.022668 -0.003045 0.000000 0.000000 0.000000
# 3 -0.003252 -0.003045 0.008232 0.000000 0.000000 0.000000
# 4 0.000000 0.000000 0.000000 0.028666 0.000000 0.000000
# 5 0.000000 0.000000 0.000000 0.000000 0.117754 0.000000
# 6 0.000000 0.000000 0.000000 0.000000 0.000000 0.064881
#
#
# Mechanical properties :
#
#
# Convention : Reuss Voigt Hill
#
# Bulk Modulus (GPa) = 49.51002 58.82257 54.16629
# Shear Modulus (GPa) = 17.17325 24.06738 20.62032
#
# Velocity S-wave (km/s) = 3.08487 3.65195 3.38032
# Velocity P-wave (km/s) = 6.33436 7.09777 6.72690
#
# Compressibility (1/GPa) = 0.02019793
#
# Stress axis : x y z
#
# Youngs Moduli (GPa) = 63.46194 44.11449 121.47651
#
# Poissons Ratio (x) = 0.30584 0.39502
# Poissons Ratio (y) = 0.43998 0.36992
# Poissons Ratio (z) = 0.20636 0.13434
#
# Static dielectric constant tensor:
#      x y z
#    x 2.763970 0.000000 0.000000 
#    y 0.000000 3.262170 0.000000 
#    z 0.000000 0.000000 3.618050 
# 
# 
# High freq. dielectric constant tensor:
#      x y z
#    x 1.643270 0.000000 0.000000 
#    y 0.000000 1.702350 0.000000 
#    z 0.000000 0.000000 1.716620 
# 
# From -- ./inp_files/42593.got.cif
#   From: 2010.03.12/outbox.cif.g09.slc.cpg/sg67_22_cif.got.tgz:42593.got - 2010.04.10 22:41:39.
