data_PCOD8278568
_publ_section_title
;
Structure prediction by ZEFSAII (Michael W. Deem and Ramdas Pophale) SiO2 
 PCOD8278568
Probable space group: C M M A
;
_chemical_formula_sum "Si O2"
_cell_formula_units_Z 104
_cell_length_a 25.650676
_cell_length_b 22.297918
_cell_length_c 9.155091
_cell_angle_alpha 90.000000
_cell_angle_beta 90.000000
_cell_angle_gamma 90.000000
_cell_volume 5236.315363
_symmetry_space_group_name_H-M "C M M A"
_symmetry_group_IT_number 67
_symmetry_cell_setting 'orthorhombic'
loop_
_space_group_symop_operation_xyz
x,y,z
-x,1/2-y,z
x,-y,-z
-x,1/2+y,-z
-x,-y,-z
x,1/2+y,-z
-x,y,z
x,1/2-y,z
1/2+x,1/2+y,z
1/2-x,-y,z
1/2+x,1/2-y,-z
1/2-x,y,-z
1/2-x,1/2-y,-z
1/2+x,y,-z
1/2-x,1/2+y,z
1/2+x,-y,z
loop_
_atom_site_type_symbol
_atom_site_label
_atom_site_fract_x
_atom_site_fract_y
_atom_site_fract_z
Si Si1 0.000000 0.179485 0.633320
Si Si2 0.881005 0.000000 0.000000
Si Si3 0.000000 0.821567 0.706976
Si Si4 0.188738 0.872845 0.675970
Si Si5 0.193330 0.369754 0.646190
Si Si6 0.405217 0.627982 0.116471
Si Si7 0.901890 0.680504 0.192992
Si Si8 0.192978 0.005513 0.744713
O O1 0.948611 0.151592 0.710621
O O2 0.000000 0.250000 0.661820
O O3 0.000000 0.163684 0.463922
O O4 0.911931 0.057761 0.066477
O O5 0.846048 0.973570 0.128695
O O6 0.050088 0.854636 0.770961
O O7 0.000000 0.750000 0.737773
O O8 0.177985 0.844411 0.514730
O O9 0.248695 0.853440 0.707015
O O10 0.149413 0.852547 0.804621
O O11 0.178406 0.943951 0.666105
O O12 0.153358 0.347352 0.765871
O O13 0.191908 0.441675 0.625831
O O14 0.412440 0.669701 0.976598
O O15 0.898639 0.750000 0.226622
O O16 0.250000 0.000000 0.817493
#
# Coordination Sequence:
#
# PCOD8278568 Si02
#       8
#     8   8   8  16  16  16  16  16
#     4   9  21  41  65  86 106 146 200 245 288 340
#     4  10  19  33  52  88 118 154 180 240 294 344
#     4  11  23  42  65  85 108 148 200 252 292 349
#     4   9  20  33  56  84 117 153 195 237 294 347
#     4  10  18  35  55  84 118 155 194 242 286 342
#     4  11  22  38  59  86 119 150 196 241 297 349
#     4  11  22  38  60  85 115 152 195 240 291 351
#     4   9  16  29  53  82 115 154 194 234 280 340
#
# _framework density 19.861294999999998
#
# number of rings (size 3 to 8) (size 9 to 14) (size 15 to 20)
#    0.000    2.000    1.538    2.538    0.000    3.385 
#    0.000    4.615    0.000    0.923    0.000    0.000 
#    0.000    0.000    0.000    0.000    0.000    0.000 
#
# Total GULP energy -644281.261332 kJ/mol
# GULP energy per Si atom -12390.024256 kJ/mol
# Density = 1.981609 g / cm^3
# Si number density = 19.861295 Si / 1000 Ang^3
#
#
#
# Elastic Constant Matrix: (Units=GPa)
#
#
# Indices 1 2 3 4 5 6 
#
# 1 130.0021 32.9447 66.2629 0.0000 0.0000 0.0000
# 2 32.9447 51.5845 18.0270 0.0000 0.0000 0.0000
# 3 66.2629 18.0270 118.5669 0.0000 0.0000 0.0000
# 4 0.0000 0.0000 0.0000 24.9269 0.0000 0.0000
# 5 0.0000 0.0000 0.0000 0.0000 31.5690 0.0000
# 6 0.0000 0.0000 0.0000 0.0000 0.0000 24.7897
#
#
#
# Elastic Compliance Matrix: (Units=1/GPa)
#
#
# Indices 1 2 3 4 5 6 
#
# 1 0.012156 -0.005692 -0.005928 0.000000 0.000000 0.000000
# 2 -0.005692 0.023139 -0.000337 0.000000 0.000000 0.000000
# 3 -0.005928 -0.000337 0.011798 0.000000 0.000000 0.000000
# 4 0.000000 0.000000 0.000000 0.040117 0.000000 0.000000
# 5 0.000000 0.000000 0.000000 0.000000 0.031677 0.000000
# 6 0.000000 0.000000 0.000000 0.000000 0.000000 0.040339
#
#
# Mechanical properties :
#
#
# Convention : Reuss Voigt Hill
#
# Bulk Modulus (GPa) = 43.14277 59.40250 51.27263
# Shear Modulus (GPa) = 26.19619 28.45172 27.32396
#
# Velocity S-wave (km/s) = 3.63568 3.78897 3.71312
# Velocity P-wave (km/s) = 6.27642 7.00823 6.65240
#
# Compressibility (1/GPa) = 0.02317886
#
# Stress axis : x y z
#
# Youngs Moduli (GPa) = 82.26175 43.21779 84.75704
#
# Poissons Ratio (x) = 0.24599 0.50247
# Poissons Ratio (y) = 0.46823 0.02856
# Poissons Ratio (z) = 0.48768 0.01456
#
# Static dielectric constant tensor:
#      x y z
#    x 3.710810 0.000000 0.000000 
#    y 0.000000 3.373030 0.000000 
#    z 0.000000 0.000000 3.644580 
# 
# 
# High freq. dielectric constant tensor:
#      x y z
#    x 1.771510 0.000000 0.000000 
#    y 0.000000 1.750820 0.000000 
#    z 0.000000 0.000000 1.783510 
# 
# From -- ./inp_files/12865.got.cif
#   From: 2010.03.12/outbox.cif.g09.slc.cpg/sg67_7_cif.got.tgz:12865.got - 2010.04.10 22:41:39.
