data_PCOD8278065
_publ_section_title
;
Structure prediction by ZEFSAII (Michael W. Deem and Ramdas Pophale) SiO2 
 PCOD8278065
Probable space group: C M M A
;
_chemical_formula_sum "Si O2"
_cell_formula_units_Z 88
_cell_length_a 8.581828
_cell_length_b 16.468073
_cell_length_c 30.229677
_cell_angle_alpha 90.000000
_cell_angle_beta 90.000000
_cell_angle_gamma 90.000000
_cell_volume 4272.244470
_symmetry_space_group_name_H-M "C M M A"
_symmetry_group_IT_number 67
_symmetry_cell_setting 'orthorhombic'
loop_
_space_group_symop_operation_xyz
x,y,z
-x,1/2-y,z
x,-y,-z
-x,1/2+y,-z
-x,-y,-z
x,1/2+y,-z
-x,y,z
x,1/2-y,z
1/2+x,1/2+y,z
1/2-x,-y,z
1/2+x,1/2-y,-z
1/2-x,y,-z
1/2-x,1/2-y,-z
1/2+x,y,-z
1/2-x,1/2+y,z
1/2+x,-y,z
loop_
_atom_site_type_symbol
_atom_site_label
_atom_site_fract_x
_atom_site_fract_y
_atom_site_fract_z
Si Si1 0.815381 0.590961 0.455624
Si Si2 0.328811 0.657028 0.275964
Si Si3 0.316118 0.588650 0.100132
Si Si4 0.681563 0.084193 0.194946
Si Si5 0.685049 0.750000 0.048848
Si Si6 0.814838 0.089194 0.367302
O O1 0.750000 0.500000 0.455606
O O2 0.750000 0.635300 0.500000
O O3 0.753516 0.635667 0.410752
O O4 0.000000 0.590934 0.456264
O O5 0.500000 0.616781 0.266845
O O6 0.354793 0.750000 0.284356
O O7 0.214693 0.646890 0.234162
O O8 0.251150 0.623967 0.320936
O O9 0.500000 0.581759 0.096382
O O10 0.250000 0.500000 0.084710
O O11 0.268635 0.609371 0.150145
O O12 0.254401 0.666073 0.071764
O O13 0.500000 0.078235 0.184245
O O14 0.750000 0.000000 0.212753
O O15 0.500000 0.750000 0.048973
O O16 0.750000 0.750000 0.000000
O O17 0.000000 0.093287 0.368613
O O18 0.750000 0.000000 0.370044
#
# Coordination Sequence:
#
# PCOD8278065 Si02
#       6
#    16  16  16  16   8  16
#     4  10  17  27  45  70  99 128 164 213 266 320
#     4  10  22  38  55  77 109 148 184 226 279 335
#     4  10  21  40  63  91 123 163 205 252 306 362
#     4  11  22  37  59  87 115 149 191 238 287 341
#     4  10  24  42  64  92 126 166 208 252 307 362
#     4  10  19  32  51  74 101 135 174 216 267 325
#
# _framework density 20.598071999999998
#
# number of rings (size 3 to 8) (size 9 to 14) (size 15 to 20)
#    0.000    1.818    0.000    7.636    1.273    5.091 
#    0.000    1.818    0.000    0.545    0.000    0.000 
#    0.000    0.000    0.000    0.000    0.000    0.000 
#
# Total GULP energy -545268.750484 kJ/mol
# GULP energy per Si atom -12392.471602 kJ/mol
# Density = 2.055119 g / cm^3
# Si number density = 20.598072 Si / 1000 Ang^3
#
#
#
# Elastic Constant Matrix: (Units=GPa)
#
#
# Indices 1 2 3 4 5 6 
#
# 1 90.2429 20.9375 33.6271 0.0000 0.0000 0.0000
# 2 20.9375 83.9050 64.5715 0.0000 0.0000 0.0000
# 3 33.6271 64.5715 162.7436 0.0000 0.0000 0.0000
# 4 0.0000 0.0000 0.0000 40.0329 0.0000 0.0000
# 5 0.0000 0.0000 0.0000 0.0000 32.6893 0.0000
# 6 0.0000 0.0000 0.0000 0.0000 0.0000 18.4717
#
#
#
# Elastic Compliance Matrix: (Units=1/GPa)
#
#
# Indices 1 2 3 4 5 6 
#
# 1 0.012150 -0.001583 -0.001882 0.000000 0.000000 0.000000
# 2 -0.001583 0.017363 -0.006562 0.000000 0.000000 0.000000
# 3 -0.001882 -0.006562 0.009137 0.000000 0.000000 0.000000
# 4 0.000000 0.000000 0.000000 0.024979 0.000000 0.000000
# 5 0.000000 0.000000 0.000000 0.000000 0.030591 0.000000
# 6 0.000000 0.000000 0.000000 0.000000 0.000000 0.054137
#
#
# Mechanical properties :
#
#
# Convention : Reuss Voigt Hill
#
# Bulk Modulus (GPa) = 53.77744 63.90706 58.84225
# Shear Modulus (GPa) = 28.63497 32.75582 30.69539
#
# Velocity S-wave (km/s) = 3.73255 3.99210 3.86451
# Velocity P-wave (km/s) = 6.68884 7.23480 6.96717
#
# Compressibility (1/GPa) = 0.01859516
#
# Stress axis : x y z
#
# Youngs Moduli (GPa) = 82.30485 57.59250 109.44292
#
# Poissons Ratio (x) = 0.09119 0.20600
# Poissons Ratio (y) = 0.13031 0.71817
# Poissons Ratio (z) = 0.15492 0.37793
#
# Static dielectric constant tensor:
#      x y z
#    x 3.745410 0.000000 0.000000 
#    y 0.000000 3.669530 0.000000 
#    z 0.000000 0.000000 1.535030 
# 
# 
# High freq. dielectric constant tensor:
#      x y z
#    x 1.807810 0.000000 0.000000 
#    y 0.000000 1.775600 0.000000 
#    z 0.000000 0.000000 1.824730 
# 
# From -- ./inp_files/45240.got.cif
#   From: 2010.03.12/outbox.cif.g09.slc.cpg/sg67_23_cif.got.tgz:45240.got - 2010.04.10 22:41:39.
