data_PCOD8278187
_publ_section_title
;
Structure prediction by ZEFSAII (Michael W. Deem and Ramdas Pophale) SiO2 
 PCOD8278187
Probable space group: C M M A
;
_chemical_formula_sum "Si O2"
_cell_formula_units_Z 96
_cell_length_a 26.360192
_cell_length_b 8.745934
_cell_length_c 23.363129
_cell_angle_alpha 90.000000
_cell_angle_beta 90.000000
_cell_angle_gamma 90.000000
_cell_volume 5386.240881
_symmetry_space_group_name_H-M "C M M A"
_symmetry_group_IT_number 67
_symmetry_cell_setting 'orthorhombic'
loop_
_space_group_symop_operation_xyz
x,y,z
-x,1/2-y,z
x,-y,-z
-x,1/2+y,-z
-x,-y,-z
x,1/2+y,-z
-x,y,z
x,1/2-y,z
1/2+x,1/2+y,z
1/2-x,-y,z
1/2+x,1/2-y,-z
1/2-x,y,-z
1/2-x,1/2-y,-z
1/2+x,y,-z
1/2-x,1/2+y,z
1/2+x,-y,z
loop_
_atom_site_type_symbol
_atom_site_label
_atom_site_fract_x
_atom_site_fract_y
_atom_site_fract_z
Si Si1 0.696215 0.931850 0.438265
Si Si2 0.443085 0.569483 0.751148
Si Si3 0.803893 0.933525 0.937974
Si Si4 0.880325 0.083294 0.156654
Si Si5 0.703363 0.416773 0.749532
Si Si6 0.360344 0.071180 0.338878
O O1 0.700314 0.750000 0.441505
O O2 0.683468 0.000000 0.500000
O O3 0.750000 0.000000 0.416065
O O4 0.648693 0.980745 0.398036
O O5 0.500000 0.506933 0.742300
O O6 0.441159 0.750000 0.751229
O O7 0.423978 0.519626 0.814583
O O8 0.409492 0.510155 0.697145
O O9 0.800186 0.750000 0.938786
O O10 0.851034 0.988987 0.898022
O O11 0.750000 0.000000 0.915946
O O12 0.816375 0.000000 0.000000
O O13 0.903268 0.250000 0.140281
O O14 0.839037 0.108116 0.204545
O O15 0.717386 0.250000 0.723649
O O16 0.750000 0.500000 0.780870
O O17 0.688380 0.533489 0.699416
O O18 0.364635 0.250000 0.351977
#
# Coordination Sequence:
#
# PCOD8278187 Si02
#       6
#    16  16  16  16  16  16
#     4  11  21  34  51  73 102 135 170 201 235 279
#     4   9  19  35  55  77  98 123 158 202 252 300
#     4  10  19  31  47  70 100 134 170 202 238 284
#     4   9  19  32  47  69  96 126 160 199 242 291
#     4  10  18  28  42  64  94 125 157 192 234 283
#     4  10  19  32  49  70  97 127 159 196 240 288
#
# _framework density 17.823191000000001
#
# number of rings (size 3 to 8) (size 9 to 14) (size 15 to 20)
#    0.000    2.167    0.000    5.000    0.000    3.000 
#    0.000    0.000    0.000    1.000    0.000    0.000 
#    0.000    0.000    0.000    0.000    0.000    0.000 
#
# Total GULP energy -594712.586859 kJ/mol
# GULP energy per Si atom -12389.845560 kJ/mol
# Density = 1.778262 g / cm^3
# Si number density = 17.823191 Si / 1000 Ang^3
#
#
#
# Elastic Constant Matrix: (Units=GPa)
#
#
# Indices 1 2 3 4 5 6 
#
# 1 96.8277 41.6134 51.8706 0.0000 0.0000 0.0000
# 2 41.6134 82.7299 33.4527 0.0000 0.0000 0.0000
# 3 51.8706 33.4527 102.6758 0.0000 0.0000 0.0000
# 4 0.0000 0.0000 0.0000 0.3146 0.0000 0.0000
# 5 0.0000 0.0000 0.0000 0.0000 0.1215 0.0000
# 6 0.0000 0.0000 0.0000 0.0000 0.0000 19.9232
#
#
#
# Elastic Compliance Matrix: (Units=1/GPa)
#
#
# Indices 1 2 3 4 5 6 
#
# 1 0.016098 -0.005538 -0.006328 0.000000 0.000000 0.000000
# 2 -0.005538 0.015827 -0.002359 0.000000 0.000000 0.000000
# 3 -0.006328 -0.002359 0.013705 0.000000 0.000000 0.000000
# 4 0.000000 0.000000 0.000000 3.179030 0.000000 0.000000
# 5 0.000000 0.000000 0.000000 0.000000 8.229955 0.000000
# 6 0.000000 0.000000 0.000000 0.000000 0.000000 0.050193
#
#
# Mechanical properties :
#
#
# Convention : Reuss Voigt Hill
#
# Bulk Modulus (GPa) = 58.20897 59.56741 58.88819
# Shear Modulus (GPa) = 0.43331 14.42496 7.42914
#
# Velocity S-wave (km/s) = 0.49360 2.84797 2.04384
# Velocity P-wave (km/s) = 5.74934 6.65646 6.21946
#
# Compressibility (1/GPa) = 0.01717948
#
# Stress axis : x y z
#
# Youngs Moduli (GPa) = 62.12060 63.18262 72.96799
#
# Poissons Ratio (x) = 0.34993 0.46173
# Poissons Ratio (y) = 0.34405 0.17211
# Poissons Ratio (z) = 0.39309 0.14903
#
# Static dielectric constant tensor:
#      x y z
#    x 3.350170 0.000000 0.000000 
#    y 0.000000 3.442060 0.000000 
#    z 0.000000 0.000000 3.472240 
# 
# 
# High freq. dielectric constant tensor:
#      x y z
#    x 1.660320 0.000000 0.000000 
#    y 0.000000 1.698400 0.000000 
#    z 0.000000 0.000000 1.683700 
# 
# From -- ./inp_files/42554.got.cif
#   From: 2010.03.12/outbox.cif.g09.slc.cpg/sg67_22_cif.got.tgz:42554.got - 2010.04.10 22:41:39.
