data_PCOD8278284
_publ_section_title
;
Structure prediction by ZEFSAII (Michael W. Deem and Ramdas Pophale) SiO2 
 PCOD8278284
Probable space group: C M M A
;
_chemical_formula_sum "Si O2"
_cell_formula_units_Z 72
_cell_length_a 9.359855
_cell_length_b 24.675670
_cell_length_c 17.816365
_cell_angle_alpha 90.000000
_cell_angle_beta 90.000000
_cell_angle_gamma 90.000000
_cell_volume 4114.880011
_symmetry_space_group_name_H-M "C M M A"
_symmetry_group_IT_number 67
_symmetry_cell_setting 'orthorhombic'
loop_
_space_group_symop_operation_xyz
x,y,z
-x,1/2-y,z
x,-y,-z
-x,1/2+y,-z
-x,-y,-z
x,1/2+y,-z
-x,y,z
x,1/2-y,z
1/2+x,1/2+y,z
1/2-x,-y,z
1/2+x,1/2-y,-z
1/2-x,y,-z
1/2-x,1/2-y,-z
1/2+x,y,-z
1/2-x,1/2+y,z
1/2+x,-y,z
loop_
_atom_site_type_symbol
_atom_site_label
_atom_site_fract_x
_atom_site_fract_y
_atom_site_fract_z
Si Si1 0.160235 0.357611 0.162741
Si Si2 0.000000 0.186369 0.612395
Si Si3 0.000000 0.186364 0.447067
Si Si4 0.674716 0.057015 0.076054
Si Si5 0.333678 0.750000 0.076606
Si Si6 0.789433 0.686258 0.679086
O O1 0.278562 0.402646 0.142405
O O2 0.211059 0.302307 0.124017
O O3 0.153381 0.348704 0.251883
O O4 0.000000 0.374648 0.136361
O O5 0.871458 0.168983 0.665183
O O6 0.000000 0.250000 0.598049
O O7 0.000000 0.158338 0.529553
O O8 0.136308 0.168846 0.398562
O O9 0.000000 0.250000 0.459714
O O10 0.500000 0.052813 0.069736
O O11 0.750000 0.000000 0.094072
O O12 0.750000 0.079484 0.000000
O O13 0.500000 0.750000 0.057767
O O14 0.250000 0.750000 0.000000
O O15 0.814349 0.750000 0.695890
#
# Coordination Sequence:
#
# PCOD8278284 Si02
#       6
#    16   8   8  16   8  16
#     4  11  21  35  54  77 110 147 184 222 266 321
#     4   9  18  28  42  70 103 140 187 229 260 312
#     4   9  16  28  48  66  97 146 189 221 260 316
#     4  11  23  41  63  84 106 136 176 227 278 324
#     4  10  22  36  50  72 103 145 184 216 255 317
#     4  10  18  30  47  71 107 147 184 221 269 313
#
# _framework density 17.497472999999999
#
# number of rings (size 3 to 8) (size 9 to 14) (size 15 to 20)
#    0.000    1.778    2.222    4.000    1.556    5.333 
#    0.000    0.000    0.000    0.000    0.000    0.000 
#    0.000    5.333    0.000    0.000    0.000    0.000 
#
# Total GULP energy -446135.924544 kJ/mol
# GULP energy per Si atom -12392.664571 kJ/mol
# Density = 1.745765 g / cm^3
# Si number density = 17.497473 Si / 1000 Ang^3
#
#
#
# Elastic Constant Matrix: (Units=GPa)
#
#
# Indices 1 2 3 4 5 6 
#
# 1 127.3984 31.3968 23.9336 0.0000 0.0000 0.0000
# 2 31.3968 48.7682 27.9540 0.0000 0.0000 0.0000
# 3 23.9336 27.9540 82.9637 0.0000 0.0000 0.0000
# 4 0.0000 0.0000 0.0000 15.0018 0.0000 0.0000
# 5 0.0000 0.0000 0.0000 0.0000 -312.7782 0.0000
# 6 0.0000 0.0000 0.0000 0.0000 0.0000 21.5792
#
#
#
# Elastic Compliance Matrix: (Units=1/GPa)
#
#
# Indices 1 2 3 4 5 6 
#
# 1 0.009376 -0.005559 -0.000832 0.000000 0.000000 0.000000
# 2 -0.005559 0.028710 -0.008070 0.000000 0.000000 0.000000
# 3 -0.000832 -0.008070 0.015012 0.000000 0.000000 0.000000
# 4 0.000000 0.000000 0.000000 0.066659 0.000000 0.000000
# 5 0.000000 0.000000 0.000000 0.000000 -0.003197 0.000000
# 6 0.000000 0.000000 0.000000 0.000000 0.000000 0.046341
#
#
# Mechanical properties :
#
#
# Convention : Reuss Voigt Hill
#
# Bulk Modulus (GPa) = 41.36237 47.29989 44.33113
# Shear Modulus (GPa) = 25.01493 -43.51637 -9.25072
#
# Velocity S-wave (km/s) = 3.78515 -4.99240 -2.30182
# Velocity P-wave (km/s) = 6.54167 2.47811 4.28092
#
# Compressibility (1/GPa) = 0.02417656
#
# Stress axis : x y z
#
# Youngs Moduli (GPa) = 106.65868 34.83114 66.61157
#
# Poissons Ratio (x) = 0.19364 0.05539
# Poissons Ratio (y) = 0.59296 0.53754
# Poissons Ratio (z) = 0.08869 0.28108
#
# Static dielectric constant tensor:
#      x y z
#    x 3.213820 0.000000 0.000000 
#    y 0.000000 2.860660 0.000000 
#    z 0.000000 0.000000 3.300240 
# 
# 
# High freq. dielectric constant tensor:
#      x y z
#    x 1.694120 0.000000 0.000000 
#    y 0.000000 1.618730 0.000000 
#    z 0.000000 0.000000 1.683050 
# 
# From -- ./inp_files/25122.got.cif
#   From: 2010.03.12/outbox.cif.g09.slc.cpg/sg67_13_cif.got.tgz:25122.got - 2010.04.10 22:41:39.
