data_PCOD8278701
_publ_section_title
;
Structure prediction by ZEFSAII (Michael W. Deem and Ramdas Pophale) SiO2 
 PCOD8278701
Probable space group: C M M A
;
_chemical_formula_sum "Si O2"
_cell_formula_units_Z 120
_cell_length_a 27.308577
_cell_length_b 8.855862
_cell_length_c 26.070054
_cell_angle_alpha 90.000000
_cell_angle_beta 90.000000
_cell_angle_gamma 90.000000
_cell_volume 6304.807651
_symmetry_space_group_name_H-M "C M M A"
_symmetry_group_IT_number 67
_symmetry_cell_setting 'orthorhombic'
loop_
_space_group_symop_operation_xyz
x,y,z
-x,1/2-y,z
x,-y,-z
-x,1/2+y,-z
-x,-y,-z
x,1/2+y,-z
-x,y,z
x,1/2-y,z
1/2+x,1/2+y,z
1/2-x,-y,z
1/2+x,1/2-y,-z
1/2-x,y,-z
1/2-x,1/2-y,-z
1/2+x,y,-z
1/2-x,1/2+y,z
1/2+x,-y,z
loop_
_atom_site_type_symbol
_atom_site_label
_atom_site_fract_x
_atom_site_fract_y
_atom_site_fract_z
Si Si1 0.500000 0.070169 0.555737
Si Si2 0.802599 0.427114 0.050576
Si Si3 0.198542 0.428540 0.638885
Si Si4 0.092263 0.925701 0.387115
Si Si5 0.056857 0.080853 0.292552
Si Si6 0.446361 0.080997 0.190029
Si Si7 0.648697 0.920356 0.857171
Si Si8 0.798991 0.425381 0.754364
O O1 0.500000 0.250000 0.553671
O O2 0.500000 0.000000 0.500000
O O3 0.448573 0.020163 0.581836
O O4 0.797982 0.250000 0.042556
O O5 0.750000 0.500000 0.057799
O O6 0.832315 0.460713 0.101929
O O7 0.828048 0.500000 0.000000
O O8 0.205589 0.250000 0.637848
O O9 0.250000 0.500000 0.618190
O O10 0.150279 0.470050 0.603709
O O11 0.187844 0.487322 0.697313
O O12 0.083747 0.750000 0.399237
O O13 0.084602 0.958708 0.327178
O O14 0.076897 0.250000 0.302411
O O15 0.000000 0.072931 0.307179
O O16 0.066017 0.038961 0.233897
O O17 0.500000 0.050061 0.167370
O O18 0.442437 0.250000 0.213874
O O19 0.410006 0.065717 0.141817
O O20 0.666868 0.750000 0.870582
O O21 0.661386 0.963287 0.798122
O O22 0.789581 0.250000 0.749733
O O23 0.750000 0.500000 0.775498
#
# Coordination Sequence:
#
# PCOD8278701 Si02
#       8
#     8  16  16  16  16  16  16  16
#     4  12  26  44  64  90 118 146 184 234 293 344
#     4  11  22  37  56  77 100 126 160 206 262 321
#     4   9  19  34  53  80 114 153 194 228 267 320
#     4  11  21  36  59  84 113 152 192 233 282 337
#     4  10  19  30  47  76 112 147 187 230 271 319
#     4   9  18  32  50  72 103 144 183 218 260 312
#     4  10  19  32  50  73 102 136 176 219 265 319
#     4   9  17  29  45  69 105 143 179 217 254 304
#
# _framework density 19.033096
#
# number of rings (size 3 to 8) (size 9 to 14) (size 15 to 20)
#    0.000    2.000    0.667    4.200    0.000    5.867 
#    0.000    2.667    0.000    0.800    0.000    2.800 
#    0.000    0.000    0.000    0.000    0.000    0.000 
#
# Total GULP energy -743446.233143 kJ/mol
# GULP energy per Si atom -12390.770552 kJ/mol
# Density = 1.898978 g / cm^3
# Si number density = 19.033096 Si / 1000 Ang^3
#
#
#
# Elastic Constant Matrix: (Units=GPa)
#
#
# Indices 1 2 3 4 5 6 
#
# 1 122.9919 49.2864 52.1666 0.0000 0.0000 0.0000
# 2 49.2864 90.5501 34.0416 0.0000 0.0000 0.0000
# 3 52.1666 34.0416 55.4289 0.0000 0.0000 0.0000
# 4 0.0000 0.0000 0.0000 24.2504 0.0000 0.0000
# 5 0.0000 0.0000 0.0000 0.0000 18.6860 0.0000
# 6 0.0000 0.0000 0.0000 0.0000 0.0000 25.5046
#
#
#
# Elastic Compliance Matrix: (Units=1/GPa)
#
#
# Indices 1 2 3 4 5 6 
#
# 1 0.014363 -0.003557 -0.011333 0.000000 0.000000 0.000000
# 2 -0.003557 0.015240 -0.006012 0.000000 0.000000 0.000000
# 3 -0.011333 -0.006012 0.032399 0.000000 0.000000 0.000000
# 4 0.000000 0.000000 0.000000 0.041236 0.000000 0.000000
# 5 0.000000 0.000000 0.000000 0.000000 0.053516 0.000000
# 6 0.000000 0.000000 0.000000 0.000000 0.000000 0.039209
#
#
# Mechanical properties :
#
#
# Convention : Reuss Voigt Hill
#
# Bulk Modulus (GPa) = 49.50926 59.99558 54.75242
# Shear Modulus (GPa) = 20.44995 22.58663 21.51829
#
# Velocity S-wave (km/s) = 3.28142 3.44859 3.36605
# Velocity P-wave (km/s) = 6.35812 6.88819 6.62846
#
# Compressibility (1/GPa) = 0.02019824
#
# Stress axis : x y z
#
# Youngs Moduli (GPa) = 69.62373 65.61745 30.86500
#
# Poissons Ratio (x) = 0.23341 0.34979
# Poissons Ratio (y) = 0.24767 0.18555
# Poissons Ratio (z) = 0.78904 0.39447
#
# Static dielectric constant tensor:
#      x y z
#    x 3.178690 0.000000 0.000000 
#    y 0.000000 3.528900 0.000000 
#    z 0.000000 0.000000 3.315490 
# 
# 
# High freq. dielectric constant tensor:
#      x y z
#    x 1.746830 0.000000 0.000000 
#    y 0.000000 1.739860 0.000000 
#    z 0.000000 0.000000 1.701010 
# 
# From -- ./inp_files/45009.got.cif
#   From: 2010.03.12/outbox.cif.g09.slc.cpg/sg67_23_cif.got.tgz:45009.got - 2010.04.10 22:41:39.
