data_PCOD8278359
_publ_section_title
;
Structure prediction by ZEFSAII (Michael W. Deem and Ramdas Pophale) SiO2 
 PCOD8278359
Probable space group: C M M A
;
_chemical_formula_sum "Si O2"
_cell_formula_units_Z 72
_cell_length_a 9.117481
_cell_length_b 18.780975
_cell_length_c 24.711342
_cell_angle_alpha 90.000000
_cell_angle_beta 90.000000
_cell_angle_gamma 90.000000
_cell_volume 4231.451163
_symmetry_space_group_name_H-M "C M M A"
_symmetry_group_IT_number 67
_symmetry_cell_setting 'orthorhombic'
loop_
_space_group_symop_operation_xyz
x,y,z
-x,1/2-y,z
x,-y,-z
-x,1/2+y,-z
-x,-y,-z
x,1/2+y,-z
-x,y,z
x,1/2-y,z
1/2+x,1/2+y,z
1/2-x,-y,z
1/2+x,1/2-y,-z
1/2-x,y,-z
1/2-x,1/2-y,-z
1/2+x,y,-z
1/2-x,1/2+y,z
1/2+x,-y,z
loop_
_atom_site_type_symbol
_atom_site_label
_atom_site_fract_x
_atom_site_fract_y
_atom_site_fract_z
Si Si1 0.174486 0.575750 0.259765
Si Si2 0.339056 0.165674 0.950142
Si Si3 0.673710 0.750000 0.442521
Si Si4 0.664048 0.672058 0.642361
Si Si5 0.172114 0.332649 0.170093
O O1 0.250000 0.500000 0.259430
O O2 0.224206 0.614817 0.315047
O O3 0.229733 0.620372 0.209081
O O4 0.000000 0.568299 0.256423
O O5 0.500000 0.132197 0.954114
O O6 0.347554 0.250000 0.956832
O O7 0.274007 0.148027 0.890838
O O8 0.250000 0.131351 0.000000
O O9 0.500000 0.750000 0.448881
O O10 0.750000 0.750000 0.500000
O O11 0.727854 0.679016 0.409771
O O12 0.500000 0.651056 0.622571
O O13 0.658899 0.750000 0.671304
O O14 0.200862 0.250000 0.182676
O O15 0.000000 0.350143 0.177284
#
# Coordination Sequence:
#
# PCOD8278359 Si02
#       5
#    16  16   8  16  16
#     4  11  22  35  51  72 102 137 172 211 255 302
#     4   8  14  25  42  66  95 124 156 199 249 300
#     4  10  18  30  54  84 110 136 167 204 245 288
#     4   8  17  34  52  74 104 133 167 208 246 290
#     4   9  18  32  50  73 101 131 166 209 254 304
#
# _framework density 17.015439000000001
#
# number of rings (size 3 to 8) (size 9 to 14) (size 15 to 20)
#    0.667    2.222    0.000    3.333    0.000    4.000 
#    0.000    2.222    0.000    1.333    0.000    9.333 
#    0.000    0.000    0.000    0.000    0.000    0.000 
#
# Total GULP energy -446011.521936 kJ/mol
# GULP energy per Si atom -12389.208943 kJ/mol
# Density = 1.697671 g / cm^3
# Si number density = 17.015439 Si / 1000 Ang^3
#
#
#
# Elastic Constant Matrix: (Units=GPa)
#
#
# Indices 1 2 3 4 5 6 
#
# 1 98.6387 43.0932 77.7708 0.0000 0.0000 0.0000
# 2 43.0932 66.5275 56.3354 0.0000 0.0000 0.0000
# 3 77.7708 56.3354 153.4365 0.0000 0.0000 0.0000
# 4 0.0000 0.0000 0.0000 0.1194 0.0000 0.0000
# 5 0.0000 0.0000 0.0000 0.0000 32.9956 0.0000
# 6 0.0000 0.0000 0.0000 0.0000 0.0000 19.9552
#
#
#
# Elastic Compliance Matrix: (Units=1/GPa)
#
#
# Indices 1 2 3 4 5 6 
#
# 1 0.018312 -0.005808 -0.007149 0.000000 0.000000 0.000000
# 2 -0.005808 0.023655 -0.005742 0.000000 0.000000 0.000000
# 3 -0.007149 -0.005742 0.012249 0.000000 0.000000 0.000000
# 4 0.000000 0.000000 0.000000 8.377027 0.000000 0.000000
# 5 0.000000 0.000000 0.000000 0.000000 0.030307 0.000000
# 6 0.000000 0.000000 0.000000 0.000000 0.000000 0.050112
#
#
# Mechanical properties :
#
#
# Convention : Reuss Voigt Hill
#
# Bulk Modulus (GPa) = 59.45512 74.77794 67.11653
# Shear Modulus (GPa) = 0.58448 20.04091 10.31269
#
# Velocity S-wave (km/s) = 0.58672 3.43564 2.46454
# Velocity P-wave (km/s) = 5.95623 7.73180 6.90136
#
# Compressibility (1/GPa) = 0.01681941
#
# Stress axis : x y z
#
# Youngs Moduli (GPa) = 54.60876 42.27401 81.63837
#
# Poissons Ratio (x) = 0.24551 0.58366
# Poissons Ratio (y) = 0.31714 0.46873
# Poissons Ratio (z) = 0.39042 0.24272
#
# Static dielectric constant tensor:
#      x y z
#    x 3.282970 0.000000 0.000000 
#    y 0.000000 2.848700 0.000000 
#    z 0.000000 0.000000 3.233770 
# 
# 
# High freq. dielectric constant tensor:
#      x y z
#    x 1.657630 0.000000 0.000000 
#    y 0.000000 1.614220 0.000000 
#    z 0.000000 0.000000 1.659870 
# 
# From -- ./inp_files/40529.got.cif
#   From: 2010.03.12/outbox.cif.g09.slc.cpg/sg67_21_cif.got.tgz:40529.got - 2010.04.10 22:41:39.
