data_PCOD8278327
_publ_section_title
;
Structure prediction by ZEFSAII (Michael W. Deem and Ramdas Pophale) SiO2 
 PCOD8278327
Probable space group: C M M A
;
_chemical_formula_sum "Si O2"
_cell_formula_units_Z 80
_cell_length_a 25.737005
_cell_length_b 8.544403
_cell_length_c 19.544042
_cell_angle_alpha 90.000000
_cell_angle_beta 90.000000
_cell_angle_gamma 90.000000
_cell_volume 4297.878342
_symmetry_space_group_name_H-M "C M M A"
_symmetry_group_IT_number 67
_symmetry_cell_setting 'orthorhombic'
loop_
_space_group_symop_operation_xyz
x,y,z
-x,1/2-y,z
x,-y,-z
-x,1/2+y,-z
-x,-y,-z
x,1/2+y,-z
-x,y,z
x,1/2-y,z
1/2+x,1/2+y,z
1/2-x,-y,z
1/2+x,1/2-y,-z
1/2-x,y,-z
1/2-x,1/2-y,-z
1/2+x,y,-z
1/2-x,1/2+y,z
1/2+x,-y,z
loop_
_atom_site_type_symbol
_atom_site_label
_atom_site_fract_x
_atom_site_fract_y
_atom_site_fract_z
Si Si1 0.500000 0.434571 0.423864
Si Si2 0.605499 0.433589 0.575207
Si Si3 0.694733 0.934967 0.319903
Si Si4 0.306635 0.564698 0.826803
Si Si5 0.605977 0.565210 0.075895
Si Si6 0.500000 0.564676 0.923751
O O1 0.500000 0.250000 0.422877
O O2 0.500000 0.500000 0.500000
O O3 0.553089 0.497173 0.389456
O O4 0.616012 0.500000 0.500000
O O5 0.598660 0.250000 0.569106
O O6 0.653492 0.481394 0.622518
O O7 0.698337 0.750000 0.307638
O O8 0.750000 0.000000 0.345141
O O9 0.677426 0.017000 0.249811
O O10 0.307608 0.750000 0.834854
O O11 0.250000 0.500000 0.845026
O O12 0.346052 0.487009 0.878917
O O13 0.602488 0.750000 0.072341
O O14 0.552864 0.499255 0.110975
O O15 0.613920 0.500000 0.000000
O O16 0.500000 0.750000 0.922250
O O17 0.500000 0.500000 0.000000
#
# Coordination Sequence:
#
# PCOD8278327 Si02
#       6
#     8  16  16  16  16   8
#     4  10  18  30  51  76 105 138 173 213 263 313
#     4  10  20  34  54  79 108 139 176 217 262 312
#     4  10  21  37  56  78 105 141 178 218 266 318
#     4  11  22  38  58  80 107 142 180 221 269 323
#     4  11  21  36  57  83 112 143 180 222 266 315
#     4  10  18  32  53  80 111 144 179 217 265 317
#
# _framework density 18.613835000000002
#
# number of rings (size 3 to 8) (size 9 to 14) (size 15 to 20)
#    0.000    1.600    0.000   10.200    0.000    4.000 
#    0.000    5.000    0.000    3.600    0.000    0.000 
#    0.000    0.000    0.000    0.000    0.000    0.000 
#
# Total GULP energy -495989.811731 kJ/mol
# GULP energy per Si atom -12399.745293 kJ/mol
# Density = 1.857147 g / cm^3
# Si number density = 18.613835 Si / 1000 Ang^3
#
#
#
# Elastic Constant Matrix: (Units=GPa)
#
#
# Indices 1 2 3 4 5 6 
#
# 1 159.4717 72.1077 83.0890 0.0000 0.0000 0.0000
# 2 72.1077 162.6732 44.2658 0.0000 0.0000 0.0000
# 3 83.0890 44.2658 76.5596 0.0000 0.0000 0.0000
# 4 0.0000 0.0000 0.0000 28.8879 0.0000 0.0000
# 5 0.0000 0.0000 0.0000 0.0000 -62.1193 0.0000
# 6 0.0000 0.0000 0.0000 0.0000 0.0000 36.0057
#
#
#
# Elastic Compliance Matrix: (Units=1/GPa)
#
#
# Indices 1 2 3 4 5 6 
#
# 1 0.015368 -0.002698 -0.015118 0.000000 0.000000 0.000000
# 2 -0.002698 0.007769 -0.001564 0.000000 0.000000 0.000000
# 3 -0.015118 -0.001564 0.030374 0.000000 0.000000 0.000000
# 4 0.000000 0.000000 0.000000 0.034617 0.000000 0.000000
# 5 0.000000 0.000000 0.000000 0.000000 -0.016098 0.000000
# 6 0.000000 0.000000 0.000000 0.000000 0.000000 0.027773
#
#
# Mechanical properties :
#
#
# Convention : Reuss Voigt Hill
#
# Bulk Modulus (GPa) = 67.79712 88.62551 78.21131
# Shear Modulus (GPa) = 34.84829 13.83765 24.34297
#
# Velocity S-wave (km/s) = 4.33155 2.72951 3.62026
# Velocity P-wave (km/s) = 7.84337 7.59274 7.71907
#
# Compressibility (1/GPa) = 0.01474989
#
# Stress axis : x y z
#
# Youngs Moduli (GPa) = 65.07103 128.72091 32.92327
#
# Poissons Ratio (x) = 0.34730 0.49775
# Poissons Ratio (y) = 0.17557 0.05148
# Poissons Ratio (z) = 0.98378 0.20127
#
# Static dielectric constant tensor:
#      x y z
#    x 4.144600 0.000000 0.000000 
#    y 0.000000 3.634960 0.000000 
#    z 0.000000 0.000000 3.224720 
# 
# 
# High freq. dielectric constant tensor:
#      x y z
#    x 1.744250 0.000000 0.000000 
#    y 0.000000 1.748490 0.000000 
#    z 0.000000 0.000000 1.691060 
# 
# From -- ./inp_files/39536.got.cif
#   From: 2010.03.12/outbox.cif.g09.slc.cpg/sg67_20_cif.got.tgz:39536.got - 2010.04.10 22:41:39.
