data_PCOD8278673
_publ_section_title
;
Structure prediction by ZEFSAII (Michael W. Deem and Ramdas Pophale) SiO2 
 PCOD8278673
Probable space group: C M M A
;
_chemical_formula_sum "Si O2"
_cell_formula_units_Z 112
_cell_length_a 10.218868
_cell_length_b 26.948004
_cell_length_c 23.533696
_cell_angle_alpha 90.000000
_cell_angle_beta 90.000000
_cell_angle_gamma 90.000000
_cell_volume 6480.664390
_symmetry_space_group_name_H-M "C M M A"
_symmetry_group_IT_number 67
_symmetry_cell_setting 'orthorhombic'
loop_
_space_group_symop_operation_xyz
x,y,z
-x,1/2-y,z
x,-y,-z
-x,1/2+y,-z
-x,-y,-z
x,1/2+y,-z
-x,y,z
x,1/2-y,z
1/2+x,1/2+y,z
1/2-x,-y,z
1/2+x,1/2-y,-z
1/2-x,y,-z
1/2-x,1/2-y,-z
1/2+x,y,-z
1/2-x,1/2+y,z
1/2+x,-y,z
loop_
_atom_site_type_symbol
_atom_site_label
_atom_site_fract_x
_atom_site_fract_y
_atom_site_fract_z
Si Si1 0.347675 0.144011 0.547646
Si Si2 0.638751 0.471035 0.559674
Si Si3 0.844703 0.305875 0.335605
Si Si4 0.654638 0.644612 0.222488
Si Si5 0.150370 0.098787 0.047754
Si Si6 0.350002 0.544093 0.166101
Si Si7 0.344722 0.195280 0.889292
O O1 0.500000 0.156263 0.533473
O O2 0.250000 0.166093 0.500000
O O3 0.323158 0.085553 0.550827
O O4 0.300922 0.168171 0.606350
O O5 0.627651 0.500000 0.500000
O O6 0.500000 0.474333 0.592271
O O7 0.750000 0.500000 0.596200
O O8 0.788742 0.250000 0.333641
O O9 0.786147 0.337189 0.282616
O O10 0.000000 0.305043 0.331968
O O11 0.500000 0.651286 0.222906
O O12 0.688508 0.587140 0.210869
O O13 0.713043 0.678793 0.171925
O O14 0.165627 0.064046 0.102309
O O15 0.194346 0.155071 0.063095
O O16 0.000000 0.097160 0.025698
O O17 0.250000 0.078835 0.000000
O O18 0.500000 0.526473 0.175673
O O19 0.250000 0.500000 0.177553
O O20 0.500000 0.196076 0.884487
O O21 0.289886 0.250000 0.905283
#
# Coordination Sequence:
#
# PCOD8278673 Si02
#       7
#    16  16  16  16  16  16  16
#     4  10  19  30  46  69  96 123 155 191 226 273
#     4   9  15  25  42  61  82 114 149 179 212 252
#     4   9  17  29  47  71  95 119 150 191 235 275
#     4   8  14  27  47  69  92 116 149 193 235 277
#     4   9  18  30  43  65  96 127 159 194 230 274
#     4   9  18  32  50  70  94 124 156 192 235 278
#     4   8  13  23  42  66  90 119 153 190 235 281
#
# _framework density 17.282178999999999
#
# number of rings (size 3 to 8) (size 9 to 14) (size 15 to 20)
#    0.000    3.143    1.429    2.143    0.000    3.143 
#    0.000    2.143    0.000    0.857    0.000    0.000 
#    0.000    3.429    0.000    0.000    0.000    0.000 
#
# Total GULP energy -693805.333330 kJ/mol
# GULP energy per Si atom -12389.380952 kJ/mol
# Density = 1.724284 g / cm^3
# Si number density = 17.282179 Si / 1000 Ang^3
#
#
#
# Elastic Constant Matrix: (Units=GPa)
#
#
# Indices 1 2 3 4 5 6 
#
# 1 64.9240 30.9200 35.0691 0.0000 0.0000 0.0000
# 2 30.9200 102.2236 40.7502 0.0000 0.0000 0.0000
# 3 35.0691 40.7502 93.9968 0.0000 0.0000 0.0000
# 4 0.0000 0.0000 0.0000 17.7233 0.0000 0.0000
# 5 0.0000 0.0000 0.0000 0.0000 13.9307 0.0000
# 6 0.0000 0.0000 0.0000 0.0000 0.0000 -57.4872
#
#
#
# Elastic Compliance Matrix: (Units=1/GPa)
#
#
# Indices 1 2 3 4 5 6 
#
# 1 0.020442 -0.003800 -0.005979 0.000000 0.000000 0.000000
# 2 -0.003800 0.012533 -0.004016 0.000000 0.000000 0.000000
# 3 -0.005979 -0.004016 0.014610 0.000000 0.000000 0.000000
# 4 0.000000 0.000000 0.000000 0.056423 0.000000 0.000000
# 5 0.000000 0.000000 0.000000 0.000000 0.071784 0.000000
# 6 0.000000 0.000000 0.000000 0.000000 0.000000 -0.017395
#
#
# Mechanical properties :
#
#
# Convention : Reuss Voigt Hill
#
# Bulk Modulus (GPa) = 50.01084 52.73590 51.37337
# Shear Modulus (GPa) = 25.95364 5.12701 15.54033
#
# Velocity S-wave (km/s) = 3.87946 1.72426 3.00194
# Velocity P-wave (km/s) = 7.00482 5.87750 6.46578
#
# Compressibility (1/GPa) = 0.01999566
#
# Stress axis : x y z
#
# Youngs Moduli (GPa) = 48.91884 79.79241 68.44425
#
# Poissons Ratio (x) = 0.30317 0.40926
# Poissons Ratio (y) = 0.18587 0.27485
# Poissons Ratio (z) = 0.29251 0.32042
#
# Static dielectric constant tensor:
#      x y z
#    x 3.738710 0.000000 0.000000 
#    y 0.000000 3.399730 0.000000 
#    z 0.000000 0.000000 3.193440 
# 
# 
# High freq. dielectric constant tensor:
#      x y z
#    x 1.625400 0.000000 0.000000 
#    y 0.000000 1.674030 0.000000 
#    z 0.000000 0.000000 1.647760 
# 
# From -- ./inp_files/38013.got.cif
#   From: 2010.03.12/outbox.cif.g09.slc.cpg/sg67_20_cif.got.tgz:38013.got - 2010.04.10 22:41:39.
