data_PCOD8278754
_publ_section_title
;
Structure prediction by ZEFSAII (Michael W. Deem and Ramdas Pophale) SiO2 
 PCOD8278754
Probable space group: C M M A
;
_chemical_formula_sum "Si O2"
_cell_formula_units_Z 96
_cell_length_a 9.058079
_cell_length_b 27.316993
_cell_length_c 24.169191
_cell_angle_alpha 90.000000
_cell_angle_beta 90.000000
_cell_angle_gamma 90.000000
_cell_volume 5980.412068
_symmetry_space_group_name_H-M "C M M A"
_symmetry_group_IT_number 67
_symmetry_cell_setting 'orthorhombic'
loop_
_space_group_symop_operation_xyz
x,y,z
-x,1/2-y,z
x,-y,-z
-x,1/2+y,-z
-x,-y,-z
x,1/2+y,-z
-x,y,z
x,1/2-y,z
1/2+x,1/2+y,z
1/2-x,-y,z
1/2+x,1/2-y,-z
1/2-x,y,-z
1/2-x,1/2-y,-z
1/2+x,y,-z
1/2-x,1/2+y,z
1/2+x,-y,z
loop_
_atom_site_type_symbol
_atom_site_label
_atom_site_fract_x
_atom_site_fract_y
_atom_site_fract_z
Si Si1 0.329574 0.051088 0.827322
Si Si2 0.173084 0.193800 0.667464
Si Si3 0.327063 0.447590 0.948650
Si Si4 0.330829 0.855167 0.556058
Si Si5 0.325808 0.393556 0.719020
Si Si6 0.327364 0.950317 0.622143
O O1 0.500000 0.037589 0.822665
O O2 0.296420 0.075401 0.887819
O O3 0.284754 0.090750 0.781336
O O4 0.250000 0.000000 0.816835
O O5 0.209217 0.250000 0.679948
O O6 0.225035 0.180130 0.605391
O O7 0.263189 0.161136 0.711049
O O8 0.000000 0.181686 0.673737
O O9 0.500000 0.452266 0.960849
O O10 0.250000 0.500000 0.946964
O O11 0.250000 0.417844 0.000000
O O12 0.500000 0.844940 0.544167
O O13 0.250000 0.841362 0.500000
O O14 0.302273 0.911377 0.573150
O O15 0.500000 0.394182 0.707641
O O16 0.247271 0.431635 0.678262
O O17 0.500000 0.958973 0.633588
O O18 0.250000 0.000000 0.602444
#
# Coordination Sequence:
#
# PCOD8278754 Si02
#       6
#    16  16  16  16  16  16
#     4   9  18  28  40  61  90 121 151 184 217 251
#     4   9  19  36  53  68  89 115 140 173 221 269
#     4   9  15  24  36  53  80 115 152 185 215 245
#     4   9  19  33  48  67  90 114 142 176 213 257
#     4  10  19  31  47  68  91 115 147 184 220 262
#     4  10  20  33  47  65  90 120 150 181 218 256
#
# _framework density 16.052405
#
# number of rings (size 3 to 8) (size 9 to 14) (size 15 to 20)
#    0.000    2.667    0.000    3.500    0.000    7.667 
#    0.000    1.667    0.000    0.000    0.000    0.000 
#    0.000    0.667    0.000    1.500    0.000    3.000 
#
# Total GULP energy -594946.234762 kJ/mol
# GULP energy per Si atom -12394.713224 kJ/mol
# Density = 1.601587 g / cm^3
# Si number density = 16.052405 Si / 1000 Ang^3
#
#
#
# Elastic Constant Matrix: (Units=GPa)
#
#
# Indices 1 2 3 4 5 6 
#
# 1 76.3487 34.3999 51.4158 0.0000 0.0000 0.0000
# 2 34.3999 72.7849 37.9488 0.0000 0.0000 0.0000
# 3 51.4158 37.9488 129.8189 0.0000 0.0000 0.0000
# 4 0.0000 0.0000 0.0000 18.6500 0.0000 0.0000
# 5 0.0000 0.0000 0.0000 0.0000 25.4678 0.0000
# 6 0.0000 0.0000 0.0000 0.0000 0.0000 20.0661
#
#
#
# Elastic Compliance Matrix: (Units=1/GPa)
#
#
# Indices 1 2 3 4 5 6 
#
# 1 0.020039 -0.006292 -0.006097 0.000000 0.000000 0.000000
# 2 -0.006292 0.018185 -0.002824 0.000000 0.000000 0.000000
# 3 -0.006097 -0.002824 0.010943 0.000000 0.000000 0.000000
# 4 0.000000 0.000000 0.000000 0.053619 0.000000 0.000000
# 5 0.000000 0.000000 0.000000 0.000000 0.039265 0.000000
# 6 0.000000 0.000000 0.000000 0.000000 0.000000 0.049835
#
#
# Mechanical properties :
#
#
# Convention : Reuss Voigt Hill
#
# Bulk Modulus (GPa) = 53.35832 58.49792 55.92812
# Shear Modulus (GPa) = 21.87605 23.18264 22.52934
#
# Velocity S-wave (km/s) = 3.69560 3.80437 3.75038
# Velocity P-wave (km/s) = 7.17790 7.47118 7.32601
#
# Compressibility (1/GPa) = 0.01874122
#
# Stress axis : x y z
#
# Youngs Moduli (GPa) = 49.90330 54.98994 91.37907
#
# Poissons Ratio (x) = 0.34598 0.55716
# Poissons Ratio (y) = 0.31398 0.25805
# Poissons Ratio (z) = 0.30427 0.15529
#
# Static dielectric constant tensor:
#      x y z
#    x 3.138090 0.000000 0.000000 
#    y 0.000000 2.818770 0.000000 
#    z 0.000000 0.000000 3.654180 
# 
# 
# High freq. dielectric constant tensor:
#      x y z
#    x 1.628110 0.000000 0.000000 
#    y 0.000000 1.577980 0.000000 
#    z 0.000000 0.000000 1.620080 
# 
# From -- ./inp_files/40948.got.cif
#   From: 2010.03.12/outbox.cif.g09.slc.cpg/sg67_21_cif.got.tgz:40948.got - 2010.04.10 22:41:39.
