data_PCOD8278190
_publ_section_title
;
Structure prediction by ZEFSAII (Michael W. Deem and Ramdas Pophale) SiO2 
 PCOD8278190
Probable space group: C M M A
;
_chemical_formula_sum "Si O2"
_cell_formula_units_Z 80
_cell_length_a 27.791746
_cell_length_b 8.928412
_cell_length_c 18.908585
_cell_angle_alpha 90.000000
_cell_angle_beta 90.000000
_cell_angle_gamma 90.000000
_cell_volume 4691.903644
_symmetry_space_group_name_H-M "C M M A"
_symmetry_group_IT_number 67
_symmetry_cell_setting 'orthorhombic'
loop_
_space_group_symop_operation_xyz
x,y,z
-x,1/2-y,z
x,-y,-z
-x,1/2+y,-z
-x,-y,-z
x,1/2+y,-z
-x,y,z
x,1/2-y,z
1/2+x,1/2+y,z
1/2-x,-y,z
1/2+x,1/2-y,-z
1/2-x,y,-z
1/2-x,1/2-y,-z
1/2+x,y,-z
1/2-x,1/2+y,z
1/2+x,-y,z
loop_
_atom_site_type_symbol
_atom_site_label
_atom_site_fract_x
_atom_site_fract_y
_atom_site_fract_z
Si Si1 0.105826 0.425406 0.573015
Si Si2 0.145547 0.072428 0.788347
Si Si3 0.299668 0.574242 0.652320
Si Si4 0.553169 0.428447 0.287884
Si Si5 0.198374 0.070846 0.927706
O O1 0.090551 0.500000 0.500000
O O2 0.100326 0.250000 0.563552
O O3 0.160516 0.467795 0.593735
O O4 0.070147 0.483079 0.634672
O O5 0.145425 0.250000 0.783408
O O6 0.182682 0.012649 0.728870
O O7 0.091460 0.013379 0.771085
O O8 0.162014 0.019870 0.865842
O O9 0.291526 0.750000 0.656082
O O10 0.250000 0.500000 0.629516
O O11 0.500000 0.493715 0.271245
O O12 0.552194 0.250000 0.286992
O O13 0.202973 0.250000 0.934197
O O14 0.250000 0.000000 0.910661
O O15 0.177765 0.000000 0.000000
#
# Coordination Sequence:
#
# PCOD8278190 Si02
#       5
#    16  16  16  16  16
#     4   9  18  30  43  62  87 111 137 174 215 254
#     4   8  15  27  43  63  86 111 141 178 212 246
#     4   9  17  29  43  60  83 111 144 177 209 246
#     4   8  14  27  47  67  84 106 140 179 216 252
#     4  10  18  28  43  65  93 120 145 172 205 246
#
# _framework density 17.050647999999999
#
# number of rings (size 3 to 8) (size 9 to 14) (size 15 to 20)
#    0.000    3.200    0.000    4.200    0.000    1.600 
#    0.000    3.000    0.000    3.000    0.000    0.000 
#    0.000    0.000    0.000    0.000    0.000    0.800 
#
# Total GULP energy -495711.250008 kJ/mol
# GULP energy per Si atom -12392.781250 kJ/mol
# Density = 1.701184 g / cm^3
# Si number density = 17.050648 Si / 1000 Ang^3
#
#
#
# Elastic Constant Matrix: (Units=GPa)
#
#
# Indices 1 2 3 4 5 6 
#
# 1 117.6455 18.5700 56.1984 0.0000 0.0000 0.0000
# 2 18.5700 27.8786 24.7414 0.0000 0.0000 0.0000
# 3 56.1984 24.7414 128.7625 0.0000 0.0000 0.0000
# 4 0.0000 0.0000 0.0000 22.6347 0.0000 0.0000
# 5 0.0000 0.0000 0.0000 0.0000 20.2227 0.0000
# 6 0.0000 0.0000 0.0000 0.0000 0.0000 14.3430
#
#
#
# Elastic Compliance Matrix: (Units=1/GPa)
#
#
# Indices 1 2 3 4 5 6 
#
# 1 0.011049 -0.003713 -0.004109 0.000000 0.000000 0.000000
# 2 -0.003713 0.044492 -0.006928 0.000000 0.000000 0.000000
# 3 -0.004109 -0.006928 0.010891 0.000000 0.000000 0.000000
# 4 0.000000 0.000000 0.000000 0.044180 0.000000 0.000000
# 5 0.000000 0.000000 0.000000 0.000000 0.049449 0.000000
# 6 0.000000 0.000000 0.000000 0.000000 0.000000 0.069721
#
#
# Mechanical properties :
#
#
# Convention : Reuss Voigt Hill
#
# Bulk Modulus (GPa) = 27.07769 52.58959 39.83364
# Shear Modulus (GPa) = 18.40990 23.09186 20.75088
#
# Velocity S-wave (km/s) = 3.28947 3.68409 3.49236
# Velocity P-wave (km/s) = 5.50842 7.00048 6.29879
#
# Compressibility (1/GPa) = 0.03693077
#
# Stress axis : x y z
#
# Youngs Moduli (GPa) = 90.50586 22.47597 91.82052
#
# Poissons Ratio (x) = 0.08346 0.37728
# Poissons Ratio (y) = 0.33608 0.63617
# Poissons Ratio (z) = 0.37187 0.15572
#
# Static dielectric constant tensor:
#      x y z
#    x 3.454940 0.000000 0.000000 
#    y 0.000000 2.791790 0.000000 
#    z 0.000000 0.000000 3.384130 
# 
# 
# High freq. dielectric constant tensor:
#      x y z
#    x 1.653250 0.000000 0.000000 
#    y 0.000000 1.620700 0.000000 
#    z 0.000000 0.000000 1.654180 
# 
# From -- ./inp_files/32281.got.cif
#   From: 2010.03.12/outbox.cif.g09.slc.cpg/sg67_17_cif.got.tgz:32281.got - 2010.04.10 22:41:39.
