data_PCOD8278580
_publ_section_title
;
Structure prediction by ZEFSAII (Michael W. Deem and Ramdas Pophale) SiO2 
 PCOD8278580
Probable space group: C M M A
;
_chemical_formula_sum "Si O2"
_cell_formula_units_Z 88
_cell_length_a 14.675610
_cell_length_b 23.698366
_cell_length_c 12.073051
_cell_angle_alpha 90.000000
_cell_angle_beta 90.000000
_cell_angle_gamma 90.000000
_cell_volume 4198.861984
_symmetry_space_group_name_H-M "C M M A"
_symmetry_group_IT_number 67
_symmetry_cell_setting 'orthorhombic'
loop_
_space_group_symop_operation_xyz
x,y,z
-x,1/2-y,z
x,-y,-z
-x,1/2+y,-z
-x,-y,-z
x,1/2+y,-z
-x,y,z
x,1/2-y,z
1/2+x,1/2+y,z
1/2-x,-y,z
1/2+x,1/2-y,-z
1/2-x,y,-z
1/2-x,1/2-y,-z
1/2+x,y,-z
1/2-x,1/2+y,z
1/2+x,-y,z
loop_
_atom_site_type_symbol
_atom_site_label
_atom_site_fract_x
_atom_site_fract_y
_atom_site_fract_z
Si Si1 0.355791 0.812625 0.250603
Si Si2 0.000000 0.622632 0.142769
Si Si3 0.000000 0.379509 0.113666
Si Si4 0.500000 0.994271 0.217244
Si Si5 0.347616 0.972436 0.392906
Si Si6 0.348435 0.846191 0.476802
Si Si7 0.355175 0.183356 0.285276
O O1 0.365471 0.750000 0.200319
O O2 0.409411 0.855015 0.171519
O O3 0.397342 0.812281 0.376671
O O4 0.250251 0.831528 0.261330
O O5 0.090021 0.651396 0.190696
O O6 0.000000 0.555871 0.164566
O O7 0.000000 0.636814 0.013677
O O8 0.000000 0.447317 0.121204
O O9 0.409800 0.983472 0.288011
O O10 0.336132 0.907710 0.424389
O O11 0.394997 0.000000 0.500000
O O12 0.250000 0.000000 0.368036
O O13 0.250000 0.818174 0.500000
O O14 0.395644 0.841389 0.597282
O O15 0.373559 0.250000 0.280933
#
# Coordination Sequence:
#
# PCOD8278580 Si02
#       7
#    16   8   8   8  16  16  16
#     4  10  22  41  68  97 127 164 208 258 321 381
#     4  12  28  44  65  87 126 172 223 268 318 363
#     4  12  26  46  64  91 123 169 219 279 312 368
#     4  12  26  42  63  90 123 168 219 261 318 376
#     4  11  21  36  61  95 131 168 202 249 312 384
#     4  10  18  36  65  97 133 161 200 248 319 383
#     4  10  23  43  66  97 131 169 208 257 318 384
#
# _framework density 20.958058999999999
#
# number of rings (size 3 to 8) (size 9 to 14) (size 15 to 20)
#    0.000    1.273    3.636    2.727    2.545    5.818 
#    0.000    3.636    0.000    3.273    0.000    0.000 
#    0.000    0.000    0.000    0.000    0.000    0.000 
#
# Total GULP energy -545287.477455 kJ/mol
# GULP energy per Si atom -12392.897215 kJ/mol
# Density = 2.091036 g / cm^3
# Si number density = 20.958059 Si / 1000 Ang^3
#
#
#
# Elastic Constant Matrix: (Units=GPa)
#
#
# Indices 1 2 3 4 5 6 
#
# 1 99.4819 47.4509 58.5264 0.0000 0.0000 0.0000
# 2 47.4509 139.8377 50.8532 0.0000 0.0000 0.0000
# 3 58.5264 50.8532 168.6185 0.0000 0.0000 0.0000
# 4 0.0000 0.0000 0.0000 23.1730 0.0000 0.0000
# 5 0.0000 0.0000 0.0000 0.0000 23.9644 0.0000
# 6 0.0000 0.0000 0.0000 0.0000 0.0000 45.4459
#
#
#
# Elastic Compliance Matrix: (Units=1/GPa)
#
#
# Indices 1 2 3 4 5 6 
#
# 1 0.013882 -0.003323 -0.003816 0.000000 0.000000 0.000000
# 2 -0.003323 0.008827 -0.001509 0.000000 0.000000 0.000000
# 3 -0.003816 -0.001509 0.007710 0.000000 0.000000 0.000000
# 4 0.000000 0.000000 0.000000 0.043154 0.000000 0.000000
# 5 0.000000 0.000000 0.000000 0.000000 0.041729 0.000000
# 6 0.000000 0.000000 0.000000 0.000000 0.000000 0.022004
#
#
# Mechanical properties :
#
#
# Convention : Reuss Voigt Hill
#
# Bulk Modulus (GPa) = 76.19751 80.17770 78.18761
# Shear Modulus (GPa) = 31.45116 35.25718 33.35417
#
# Velocity S-wave (km/s) = 3.87805 4.10600 3.99365
# Velocity P-wave (km/s) = 7.51588 7.79861 7.65855
#
# Compressibility (1/GPa) = 0.01312379
#
# Stress axis : x y z
#
# Youngs Moduli (GPa) = 72.03494 113.28381 129.69775
#
# Poissons Ratio (x) = 0.37642 0.49497
# Poissons Ratio (y) = 0.23936 0.19570
# Poissons Ratio (z) = 0.27491 0.17094
#
# Static dielectric constant tensor:
#      x y z
#    x 2.486020 0.000000 0.000000 
#    y 0.000000 3.944000 0.000000 
#    z 0.000000 0.000000 3.881740 
# 
# 
# High freq. dielectric constant tensor:
#      x y z
#    x 1.815040 0.000000 0.000000 
#    y 0.000000 1.836620 0.000000 
#    z 0.000000 0.000000 1.808710 
# 
# From -- ./inp_files/18174.got.cif
#   From: 2010.03.12/outbox.cif.g09.slc.cpg/sg67_10_cif.got.tgz:18174.got - 2010.04.10 22:41:39.
