data_PCOD8278142
_publ_section_title
;
Structure prediction by ZEFSAII (Michael W. Deem and Ramdas Pophale) SiO2 
 PCOD8278142
Probable space group: C M M A
;
_chemical_formula_sum "Si O2"
_cell_formula_units_Z 112
_cell_length_a 26.707415
_cell_length_b 21.010417
_cell_length_c 11.918857
_cell_angle_alpha 90.000000
_cell_angle_beta 90.000000
_cell_angle_gamma 90.000000
_cell_volume 6688.075024
_symmetry_space_group_name_H-M "C M M A"
_symmetry_group_IT_number 67
_symmetry_cell_setting 'orthorhombic'
loop_
_space_group_symop_operation_xyz
x,y,z
-x,1/2-y,z
x,-y,-z
-x,1/2+y,-z
-x,-y,-z
x,1/2+y,-z
-x,y,z
x,1/2-y,z
1/2+x,1/2+y,z
1/2-x,-y,z
1/2+x,1/2-y,-z
1/2-x,y,-z
1/2-x,1/2-y,-z
1/2+x,y,-z
1/2-x,1/2+y,z
1/2+x,-y,z
loop_
_atom_site_type_symbol
_atom_site_label
_atom_site_fract_x
_atom_site_fract_y
_atom_site_fract_z
Si Si1 0.634473 0.940558 0.143378
Si Si2 0.377871 0.321724 0.291665
Si Si3 0.245345 0.927955 0.794793
Si Si4 0.058175 0.414926 0.578352
Si Si5 0.349100 0.416732 0.103039
Si Si6 0.770424 0.679214 0.377083
Si Si7 0.559113 0.450062 0.666922
O O1 0.689987 0.914629 0.162895
O O2 0.592139 0.918347 0.232648
O O3 0.632306 0.016536 0.151968
O O4 0.625370 0.911826 0.019499
O O5 0.392409 0.250000 0.259500
O O6 0.422590 0.352180 0.361253
O O7 0.369369 0.358398 0.175311
O O8 0.330358 0.324648 0.374009
O O9 0.287781 0.916975 0.891731
O O10 0.249830 0.877279 0.696962
O O11 0.250000 0.000000 0.747342
O O12 0.070504 0.410303 0.446027
O O13 0.078828 0.478628 0.638904
O O14 0.000000 0.418709 0.595291
O O15 0.753602 0.750000 0.334829
O O16 0.750000 0.666638 0.500000
O O17 0.500000 0.447625 0.699173
#
# Coordination Sequence:
#
# PCOD8278142 Si02
#       7
#    16  16  16  16  16  16  16
#     4  10  17  30  53  71  98 137 166 206 252 298
#     4  10  19  33  52  71 100 136 168 207 248 298
#     4   9  18  30  47  74 100 131 169 207 246 296
#     4   9  18  33  51  73 102 130 162 209 257 304
#     4   9  18  32  46  74 105 130 166 205 249 291
#     4   9  19  33  46  67 103 135 162 203 254 303
#     4   9  18  32  51  76 103 127 159 212 265 301
#
# _framework density 16.746223000000001
#
# number of rings (size 3 to 8) (size 9 to 14) (size 15 to 20)
#    0.000    2.714    1.429    1.286    2.000    2.286 
#    0.000    2.857    0.000    4.286    0.000    0.000 
#    0.000    0.000    0.000    0.000    0.000    0.000 
#
# Total GULP energy -693791.281427 kJ/mol
# GULP energy per Si atom -12389.130025 kJ/mol
# Density = 1.670811 g / cm^3
# Si number density = 16.746223 Si / 1000 Ang^3
#
#
#
# Elastic Constant Matrix: (Units=GPa)
#
#
# Indices 1 2 3 4 5 6 
#
# 1 41.3687 12.2461 53.6669 0.0000 0.0000 0.0000
# 2 12.2461 83.0742 42.0800 0.0000 0.0000 0.0000
# 3 53.6669 42.0800 107.5970 0.0000 0.0000 0.0000
# 4 0.0000 0.0000 0.0000 14.4396 0.0000 0.0000
# 5 0.0000 0.0000 0.0000 0.0000 30.2496 0.0000
# 6 0.0000 0.0000 0.0000 0.0000 0.0000 21.1572
#
#
#
# Elastic Compliance Matrix: (Units=1/GPa)
#
#
# Indices 1 2 3 4 5 6 
#
# 1 0.074330 0.009755 -0.040889 0.000000 0.000000 0.000000
# 2 0.009755 0.016291 -0.011237 0.000000 0.000000 0.000000
# 3 -0.040889 -0.011237 0.034083 0.000000 0.000000 0.000000
# 4 0.000000 0.000000 0.000000 0.069254 0.000000 0.000000
# 5 0.000000 0.000000 0.000000 0.000000 0.033058 0.000000
# 6 0.000000 0.000000 0.000000 0.000000 0.000000 0.047265
#
#
# Mechanical properties :
#
#
# Convention : Reuss Voigt Hill
#
# Bulk Modulus (GPa) = 25.02378 49.78063 37.40220
# Shear Modulus (GPa) = 13.42844 21.43908 17.43376
#
# Velocity S-wave (km/s) = 2.83482 3.58192 3.23004
# Velocity P-wave (km/s) = 5.06856 6.84820 6.02446
#
# Compressibility (1/GPa) = 0.03996198
#
# Stress axis : x y z
#
# Youngs Moduli (GPa) = 13.45357 61.38259 29.34025
#
# Poissons Ratio (x) = -0.59876 1.19969
# Poissons Ratio (y) = -0.13123 0.32969
# Poissons Ratio (z) = 0.55010 0.68974
#
# Static dielectric constant tensor:
#      x y z
#    x 3.062030 0.000000 0.000000 
#    y 0.000000 3.193460 0.000000 
#    z 0.000000 0.000000 3.035500 
# 
# 
# High freq. dielectric constant tensor:
#      x y z
#    x 1.637970 0.000000 0.000000 
#    y 0.000000 1.627210 0.000000 
#    z 0.000000 0.000000 1.640070 
# 
# From -- ./inp_files/21085.got.cif
#   From: 2010.03.12/outbox.cif.g09.slc.cpg/sg67_11_cif.got.tgz:21085.got - 2010.04.10 22:41:39.
