data_PCOD8278572
_publ_section_title
;
Structure prediction by ZEFSAII (Michael W. Deem and Ramdas Pophale) SiO2 
 PCOD8278572
Probable space group: C M M A
;
_chemical_formula_sum "Si O2"
_cell_formula_units_Z 88
_cell_length_a 8.712525
_cell_length_b 27.177539
_cell_length_c 19.315522
_cell_angle_alpha 90.000000
_cell_angle_beta 90.000000
_cell_angle_gamma 90.000000
_cell_volume 4573.625645
_symmetry_space_group_name_H-M "C M M A"
_symmetry_group_IT_number 67
_symmetry_cell_setting 'orthorhombic'
loop_
_space_group_symop_operation_xyz
x,y,z
-x,1/2-y,z
x,-y,-z
-x,1/2+y,-z
-x,-y,-z
x,1/2+y,-z
-x,y,z
x,1/2-y,z
1/2+x,1/2+y,z
1/2-x,-y,z
1/2+x,1/2-y,-z
1/2-x,y,-z
1/2-x,1/2-y,-z
1/2+x,y,-z
1/2-x,1/2+y,z
1/2+x,-y,z
loop_
_atom_site_type_symbol
_atom_site_label
_atom_site_fract_x
_atom_site_fract_y
_atom_site_fract_z
Si Si1 0.681729 0.447538 0.181323
Si Si2 0.817508 0.250000 0.075822
Si Si3 0.320679 0.950641 0.330473
Si Si4 0.677385 0.639406 0.425748
Si Si5 0.681185 0.651597 0.155774
Si Si6 0.317176 0.696240 0.297267
O O1 0.500000 0.450831 0.176041
O O2 0.750000 0.500000 0.154715
O O3 0.733680 0.437221 0.259862
O O4 0.740016 0.400697 0.134859
O O5 0.760148 0.300580 0.112733
O O6 0.000000 0.250000 0.075028
O O7 0.750000 0.250000 0.000000
O O8 0.500000 0.955113 0.312038
O O9 0.290364 0.913334 0.392550
O O10 0.250000 0.000000 0.361546
O O11 0.500000 0.649607 0.435982
O O12 0.750000 0.645501 0.500000
O O13 0.748412 0.678251 0.371027
O O14 0.500000 0.645620 0.146419
O O15 0.730967 0.660314 0.235383
O O16 0.500000 0.697117 0.300376
O O17 0.250146 0.750000 0.281770
#
# Coordination Sequence:
#
# PCOD8278572 Si02
#       6
#    16   8  16  16  16  16
#     4  11  21  33  54  85 117 150 188 241 291 336
#     4  10  22  38  64  96 129 164 190 227 276 333
#     4  10  19  33  51  72 100 136 179 230 283 341
#     4  10  21  34  49  69  98 137 180 233 283 335
#     4  10  18  35  61  87 115 154 197 231 275 334
#     4   9  16  31  55  77  99 135 186 229 270 332
#
# _framework density 19.240752000000001
#
# number of rings (size 3 to 8) (size 9 to 14) (size 15 to 20)
#    0.000    2.000    2.727    3.273    0.000    2.909 
#    0.000    1.818    0.000    1.636    0.000    3.818 
#    0.000    0.000    0.000    0.000    0.000    0.000 
#
# Total GULP energy -545215.216138 kJ/mol
# GULP energy per Si atom -12391.254912 kJ/mol
# Density = 1.919696 g / cm^3
# Si number density = 19.240752 Si / 1000 Ang^3
#
#
#
# Elastic Constant Matrix: (Units=GPa)
#
#
# Indices 1 2 3 4 5 6 
#
# 1 66.2473 51.6457 22.0127 0.0000 0.0000 0.0000
# 2 51.6457 164.1461 50.8375 0.0000 0.0000 0.0000
# 3 22.0127 50.8375 74.4824 0.0000 0.0000 0.0000
# 4 0.0000 0.0000 0.0000 31.0646 0.0000 0.0000
# 5 0.0000 0.0000 0.0000 0.0000 25.9945 0.0000
# 6 0.0000 0.0000 0.0000 0.0000 0.0000 27.2131
#
#
#
# Elastic Compliance Matrix: (Units=1/GPa)
#
#
# Indices 1 2 3 4 5 6 
#
# 1 0.020251 -0.005729 -0.002075 0.000000 0.000000 0.000000
# 2 -0.005729 0.009346 -0.004686 0.000000 0.000000 0.000000
# 3 -0.002075 -0.004686 0.017237 0.000000 0.000000 0.000000
# 4 0.000000 0.000000 0.000000 0.032191 0.000000 0.000000
# 5 0.000000 0.000000 0.000000 0.000000 0.038470 0.000000
# 6 0.000000 0.000000 0.000000 0.000000 0.000000 0.036747
#
#
# Mechanical properties :
#
#
# Convention : Reuss Voigt Hill
#
# Bulk Modulus (GPa) = 45.75604 61.54083 53.64843
# Shear Modulus (GPa) = 26.80889 28.87978 27.84434
#
# Velocity S-wave (km/s) = 3.73680 3.87844 3.80828
# Velocity P-wave (km/s) = 6.51541 7.21876 6.87608
#
# Compressibility (1/GPa) = 0.02185504
#
# Stress axis : x y z
#
# Youngs Moduli (GPa) = 49.38139 106.99895 58.01334
#
# Poissons Ratio (x) = 0.61299 0.12036
# Poissons Ratio (y) = 0.28290 0.27184
# Poissons Ratio (z) = 0.10245 0.50138
#
# Static dielectric constant tensor:
#      x y z
#    x 3.282310 0.000000 0.000000 
#    y 0.000000 4.127260 0.000000 
#    z 0.000000 0.000000 3.177670 
# 
# 
# High freq. dielectric constant tensor:
#      x y z
#    x 1.723670 0.000000 0.000000 
#    y 0.000000 1.773840 0.000000 
#    z 0.000000 0.000000 1.716250 
# 
# From -- ./inp_files/32435.got.cif
#   From: 2010.03.12/outbox.cif.g09.slc.cpg/sg67_17_cif.got.tgz:32435.got - 2010.04.10 22:41:39.
