data_PCOD8278048
_publ_section_title
;
Structure prediction by ZEFSAII (Michael W. Deem and Ramdas Pophale) SiO2 
 PCOD8278048
Probable space group: C M M A
;
_chemical_formula_sum "Si O2"
_cell_formula_units_Z 80
_cell_length_a 8.631528
_cell_length_b 19.505671
_cell_length_c 25.966427
_cell_angle_alpha 90.000000
_cell_angle_beta 90.000000
_cell_angle_gamma 90.000000
_cell_volume 4371.804904
_symmetry_space_group_name_H-M "C M M A"
_symmetry_group_IT_number 67
_symmetry_cell_setting 'orthorhombic'
loop_
_space_group_symop_operation_xyz
x,y,z
-x,1/2-y,z
x,-y,-z
-x,1/2+y,-z
-x,-y,-z
x,1/2+y,-z
-x,y,z
x,1/2-y,z
1/2+x,1/2+y,z
1/2-x,-y,z
1/2+x,1/2-y,-z
1/2-x,y,-z
1/2-x,1/2-y,-z
1/2+x,y,-z
1/2-x,1/2+y,z
1/2+x,-y,z
loop_
_atom_site_type_symbol
_atom_site_label
_atom_site_fract_x
_atom_site_fract_y
_atom_site_fract_z
Si Si1 0.684197 0.575654 0.843669
Si Si2 0.684064 0.925892 0.445638
Si Si3 0.684036 0.576367 0.051461
Si Si4 0.817049 0.172507 0.355213
Si Si5 0.816976 0.327446 0.751838
O O1 0.500000 0.571946 0.847817
O O2 0.750000 0.500000 0.834013
O O3 0.752477 0.610249 0.895951
O O4 0.742454 0.623764 0.797412
O O5 0.500000 0.929589 0.448910
O O6 0.750000 0.899618 0.500000
O O7 0.743401 0.873720 0.402105
O O8 0.750000 0.000000 0.431479
O O9 0.500000 0.576620 0.050521
O O10 0.750000 0.500000 0.051611
O O11 0.750000 0.614220 0.000000
O O12 0.758596 0.250000 0.364911
O O13 0.748500 0.143702 0.301902
O O14 0.000000 0.169214 0.351340
O O15 0.756140 0.250000 0.761703
O O16 0.000000 0.328738 0.748996
#
# Coordination Sequence:
#
# PCOD8278048 Si02
#       5
#    16  16  16  16  16
#     4  10  19  31  48  72 100 126 159 201 241 286
#     4  10  20  34  52  74 101 131 162 197 240 288
#     4  10  17  27  44  67  96 127 160 197 241 288
#     4   9  19  35  53  73  97 126 162 202 241 284
#     4   9  19  35  53  72  96 129 165 200 241 287
#
# _framework density 18.299078000000002
#
# number of rings (size 3 to 8) (size 9 to 14) (size 15 to 20)
#    0.000    2.400    0.000    5.400    0.000    4.400 
#    0.000    4.000    0.000    0.600    0.000    0.000 
#    0.000    0.000    0.000    0.000    0.000    0.000 
#
# Total GULP energy -495913.554351 kJ/mol
# GULP energy per Si atom -12397.838859 kJ/mol
# Density = 1.825743 g / cm^3
# Si number density = 18.299078 Si / 1000 Ang^3
#
#
#
# Elastic Constant Matrix: (Units=GPa)
#
#
# Indices 1 2 3 4 5 6 
#
# 1 79.0350 27.3861 53.1122 0.0000 0.0000 0.0000
# 2 27.3861 70.7795 88.7485 0.0000 0.0000 0.0000
# 3 53.1122 88.7485 212.2550 0.0000 0.0000 0.0000
# 4 0.0000 0.0000 0.0000 16.6951 0.0000 0.0000
# 5 0.0000 0.0000 0.0000 0.0000 34.8166 0.0000
# 6 0.0000 0.0000 0.0000 0.0000 0.0000 18.5842
#
#
#
# Elastic Compliance Matrix: (Units=1/GPa)
#
#
# Indices 1 2 3 4 5 6 
#
# 1 0.015397 -0.002368 -0.002863 0.000000 0.000000 0.000000
# 2 -0.002368 0.030063 -0.011977 0.000000 0.000000 0.000000
# 3 -0.002863 -0.011977 0.010436 0.000000 0.000000 0.000000
# 4 0.000000 0.000000 0.000000 0.059898 0.000000 0.000000
# 5 0.000000 0.000000 0.000000 0.000000 0.028722 0.000000
# 6 0.000000 0.000000 0.000000 0.000000 0.000000 0.053809
#
#
# Mechanical properties :
#
#
# Convention : Reuss Voigt Hill
#
# Bulk Modulus (GPa) = 46.55663 77.84033 62.19848
# Shear Modulus (GPa) = 20.84203 26.87402 23.85803
#
# Velocity S-wave (km/s) = 3.37852 3.83639 3.61471
# Velocity P-wave (km/s) = 6.38095 7.89012 7.17532
#
# Compressibility (1/GPa) = 0.02147922
#
# Stress axis : x y z
#
# Youngs Moduli (GPa) = 64.94834 33.26381 95.82580
#
# Poissons Ratio (x) = 0.07877 0.27431
# Poissons Ratio (y) = 0.15380 1.14774
# Poissons Ratio (z) = 0.18592 0.39841
#
# Static dielectric constant tensor:
#      x y z
#    x 3.330980 0.000000 0.000000 
#    y 0.000000 3.269270 0.000000 
#    z 0.000000 0.000000 4.076410 
# 
# 
# High freq. dielectric constant tensor:
#      x y z
#    x 1.715300 0.000000 0.000000 
#    y 0.000000 1.673930 0.000000 
#    z 0.000000 0.000000 1.730680 
# 
# From -- ./inp_files/43277.got.cif
#   From: 2010.03.12/outbox.cif.g09.slc.cpg/sg67_22_cif.got.tgz:43277.got - 2010.04.10 22:41:39.
