data_PCOD8278540
_publ_section_title
;
Structure prediction by ZEFSAII (Michael W. Deem and Ramdas Pophale) SiO2 
 PCOD8278540
Probable space group: C M M A
;
_chemical_formula_sum "Si O2"
_cell_formula_units_Z 56
_cell_length_a 10.031172
_cell_length_b 15.032683
_cell_length_c 17.793188
_cell_angle_alpha 90.000000
_cell_angle_beta 90.000000
_cell_angle_gamma 90.000000
_cell_volume 2683.131414
_symmetry_space_group_name_H-M "C M M A"
_symmetry_group_IT_number 67
_symmetry_cell_setting 'orthorhombic'
loop_
_space_group_symop_operation_xyz
x,y,z
-x,1/2-y,z
x,-y,-z
-x,1/2+y,-z
-x,-y,-z
x,1/2+y,-z
-x,y,z
x,1/2-y,z
1/2+x,1/2+y,z
1/2-x,-y,z
1/2+x,1/2-y,-z
1/2-x,y,-z
1/2-x,1/2-y,-z
1/2+x,y,-z
1/2-x,1/2+y,z
1/2+x,-y,z
loop_
_atom_site_type_symbol
_atom_site_label
_atom_site_fract_x
_atom_site_fract_y
_atom_site_fract_z
Si Si1 0.345830 0.250000 0.070662
Si Si2 0.500000 0.644779 0.557263
Si Si3 0.348369 0.422899 0.166555
Si Si4 0.220811 0.644723 0.327447
Si Si5 0.000000 0.144542 0.390159
O O1 0.500000 0.250000 0.044661
O O2 0.311720 0.335324 0.120448
O O3 0.250000 0.250000 0.000000
O O4 0.500000 0.750000 0.549003
O O5 0.368709 0.614138 0.602109
O O6 0.500000 0.601992 0.473876
O O7 0.500000 0.452916 0.151160
O O8 0.250000 0.500000 0.138339
O O9 0.330516 0.405262 0.254474
O O10 0.209154 0.750000 0.314303
O O11 0.371023 0.613029 0.344061
O O12 0.000000 0.250000 0.397978
#
# Coordination Sequence:
#
# PCOD8278540 Si02
#       5
#     8   8  16  16   8
#     4  10  24  48  74 102 133 167 206 250 313 381
#     4   9  16  28  53  81 117 167 217 268 323 376
#     4  11  24  42  67  97 132 172 213 257 312 376
#     4  10  18  33  57  84 123 167 216 265 321 374
#     4   9  18  28  47  89 123 157 217 278 319 372
#
# _framework density 20.871136
#
# number of rings (size 3 to 8) (size 9 to 14) (size 15 to 20)
#    0.000    2.000    2.857    0.857    2.000    5.143 
#    0.000    2.857    0.000    5.143    0.000    0.000 
#    0.000    0.000    0.000    0.000    0.000    0.000 
#
# Total GULP energy -347269.186717 kJ/mol
# GULP energy per Si atom -12402.470954 kJ/mol
# Density = 2.082363 g / cm^3
# Si number density = 20.871136 Si / 1000 Ang^3
#
#
#
# Elastic Constant Matrix: (Units=GPa)
#
#
# Indices 1 2 3 4 5 6 
#
# 1 147.7822 52.2807 41.5536 0.0000 0.0000 0.0000
# 2 52.2807 89.0442 33.7425 0.0000 0.0000 0.0000
# 3 41.5536 33.7425 98.3930 0.0000 0.0000 0.0000
# 4 0.0000 0.0000 0.0000 -2.3054 0.0000 0.0000
# 5 0.0000 0.0000 0.0000 0.0000 35.3704 0.0000
# 6 0.0000 0.0000 0.0000 0.0000 0.0000 27.5933
#
#
#
# Elastic Compliance Matrix: (Units=1/GPa)
#
#
# Indices 1 2 3 4 5 6 
#
# 1 0.008963 -0.004400 -0.002277 0.000000 0.000000 0.000000
# 2 -0.004400 0.015068 -0.003309 0.000000 0.000000 0.000000
# 3 -0.002277 -0.003309 0.012260 0.000000 0.000000 0.000000
# 4 0.000000 0.000000 0.000000 -0.433758 0.000000 0.000000
# 5 0.000000 0.000000 0.000000 0.000000 0.028272 0.000000
# 6 0.000000 0.000000 0.000000 0.000000 0.000000 0.036241
#
#
# Mechanical properties :
#
#
# Convention : Reuss Voigt Hill
#
# Bulk Modulus (GPa) = 61.27643 65.59701 63.43672
# Shear Modulus (GPa) = -16.25788 25.97448 4.85830
#
# Velocity S-wave (km/s) = -2.79402 3.53160 1.52736
# Velocity P-wave (km/s) = 4.36055 6.93739 5.79404
#
# Compressibility (1/GPa) = 0.01631949
#
# Stress axis : x y z
#
# Youngs Moduli (GPa) = 111.56437 66.36706 81.56912
#
# Poissons Ratio (x) = 0.29202 0.18569
# Poissons Ratio (y) = 0.49089 0.26991
# Poissons Ratio (z) = 0.25398 0.21961
#
# Static dielectric constant tensor:
#      x y z
#    x 4.156160 0.000000 0.000000 
#    y 0.000000 3.636880 0.000000 
#    z 0.000000 0.000000 3.684750 
# 
# 
# High freq. dielectric constant tensor:
#      x y z
#    x 1.828760 0.000000 0.000000 
#    y 0.000000 1.802450 0.000000 
#    z 0.000000 0.000000 1.809340 
# 
# From -- ./inp_files/26623.got.cif
#   From: 2010.03.12/outbox.cif.g09.slc.cpg/sg67_14_cif.got.tgz:26623.got - 2010.04.10 22:41:39.
