data_PCOD8278921
_publ_section_title
;
Structure prediction by ZEFSAII (Michael W. Deem and Ramdas Pophale) SiO2 
 PCOD8278921
Probable space group: C M M A
;
_chemical_formula_sum "Si O2"
_cell_formula_units_Z 64
_cell_length_a 8.640850
_cell_length_b 19.939182
_cell_length_c 20.141938
_cell_angle_alpha 90.000000
_cell_angle_beta 90.000000
_cell_angle_gamma 90.000000
_cell_volume 3470.284324
_symmetry_space_group_name_H-M "C M M A"
_symmetry_group_IT_number 67
_symmetry_cell_setting 'orthorhombic'
loop_
_space_group_symop_operation_xyz
x,y,z
-x,1/2-y,z
x,-y,-z
-x,1/2+y,-z
-x,-y,-z
x,1/2+y,-z
-x,y,z
x,1/2-y,z
1/2+x,1/2+y,z
1/2-x,-y,z
1/2+x,1/2-y,-z
1/2-x,y,-z
1/2-x,1/2-y,-z
1/2+x,y,-z
1/2-x,1/2+y,z
1/2+x,-y,z
loop_
_atom_site_type_symbol
_atom_site_label
_atom_site_fract_x
_atom_site_fract_y
_atom_site_fract_z
Si Si1 0.684479 0.072393 0.429580
Si Si2 0.821171 0.171817 0.828648
Si Si3 0.318943 0.070430 0.929141
Si Si4 0.683637 0.823993 0.679423
O O1 0.500000 0.069520 0.432743
O O2 0.750000 0.097137 0.500000
O O3 0.748046 0.123178 0.373799
O O4 0.750000 0.000000 0.410821
O O5 0.795321 0.250000 0.844163
O O6 0.715962 0.128782 0.877227
O O7 0.766384 0.155106 0.753667
O O8 0.000000 0.152239 0.838954
O O9 0.500000 0.061529 0.937289
O O10 0.250000 0.000000 0.903621
O O11 0.250000 0.091208 0.000000
O O12 0.500000 0.821417 0.676433
O O13 0.749777 0.750000 0.662282
#
# Coordination Sequence:
#
# PCOD8278921 Si02
#       4
#    16  16  16  16
#     4  10  19  32  50  72 100 132 168 208 251 299
#     4   9  18  35  57  79 105 137 172 210 255 307
#     4  11  22  37  56  78 106 137 173 214 257 305
#     4   8  16  32  53  75 100 132 168 206 250 300
#
# _framework density 18.442291999999998
#
# number of rings (size 3 to 8) (size 9 to 14) (size 15 to 20)
#    0.000    2.500    0.000    6.000    0.000    2.500 
#    0.000    5.000    0.000    5.250    0.000    0.000 
#    0.000    0.000    0.000    0.000    0.000    0.000 
#
# Total GULP energy -396784.686576 kJ/mol
# GULP energy per Si atom -12399.521456 kJ/mol
# Density = 1.840032 g / cm^3
# Si number density = 18.442292 Si / 1000 Ang^3
#
#
#
# Elastic Constant Matrix: (Units=GPa)
#
#
# Indices 1 2 3 4 5 6 
#
# 1 92.5411 41.3577 43.6135 0.0000 0.0000 0.0000
# 2 41.3577 109.4546 96.0212 0.0000 0.0000 0.0000
# 3 43.6135 96.0212 137.4538 0.0000 0.0000 0.0000
# 4 0.0000 0.0000 0.0000 42.1703 0.0000 0.0000
# 5 0.0000 0.0000 0.0000 0.0000 23.4330 0.0000
# 6 0.0000 0.0000 0.0000 0.0000 0.0000 23.8220
#
#
#
# Elastic Compliance Matrix: (Units=1/GPa)
#
#
# Indices 1 2 3 4 5 6 
#
# 1 0.013175 -0.003386 -0.001815 0.000000 0.000000 0.000000
# 2 -0.003386 0.024468 -0.016018 0.000000 0.000000 0.000000
# 3 -0.001815 -0.016018 0.019041 0.000000 0.000000 0.000000
# 4 0.000000 0.000000 0.000000 0.023713 0.000000 0.000000
# 5 0.000000 0.000000 0.000000 0.000000 0.042675 0.000000
# 6 0.000000 0.000000 0.000000 0.000000 0.000000 0.041978
#
#
# Mechanical properties :
#
#
# Convention : Reuss Voigt Hill
#
# Bulk Modulus (GPa) = 70.19871 77.93716 74.06793
# Shear Modulus (GPa) = 23.55869 28.44887 26.00378
#
# Velocity S-wave (km/s) = 3.57799 3.93184 3.75908
# Velocity P-wave (km/s) = 7.43074 7.93500 7.68701
#
# Compressibility (1/GPa) = 0.01424528
#
# Stress axis : x y z
#
# Youngs Moduli (GPa) = 75.90388 40.87003 52.51849
#
# Poissons Ratio (x) = 0.13838 0.09532
# Poissons Ratio (y) = 0.25699 0.84125
# Poissons Ratio (z) = 0.13777 0.65466
#
# Static dielectric constant tensor:
#      x y z
#    x 3.175150 0.000000 0.000000 
#    y 0.000000 3.564100 0.000000 
#    z 0.000000 0.000000 3.541270 
# 
# 
# High freq. dielectric constant tensor:
#      x y z
#    x 1.699680 0.000000 0.000000 
#    y 0.000000 1.718200 0.000000 
#    z 0.000000 0.000000 1.720920 
# 
# From -- ./inp_files/24807.got.cif
#   From: 2010.03.12/outbox.cif.g09.slc.cpg/sg67_13_cif.got.tgz:24807.got - 2010.04.10 22:41:39.
