data_PCOD8278353
_publ_section_title
;
Structure prediction by ZEFSAII (Michael W. Deem and Ramdas Pophale) SiO2 
 PCOD8278353
Probable space group: C M M A
;
_chemical_formula_sum "Si O2"
_cell_formula_units_Z 96
_cell_length_a 18.751660
_cell_length_b 15.984722
_cell_length_c 15.014876
_cell_angle_alpha 90.000000
_cell_angle_beta 90.000000
_cell_angle_gamma 90.000000
_cell_volume 4500.560015
_symmetry_space_group_name_H-M "C M M A"
_symmetry_group_IT_number 67
_symmetry_cell_setting 'orthorhombic'
loop_
_space_group_symop_operation_xyz
x,y,z
-x,1/2-y,z
x,-y,-z
-x,1/2+y,-z
-x,-y,-z
x,1/2+y,-z
-x,y,z
x,1/2-y,z
1/2+x,1/2+y,z
1/2-x,-y,z
1/2+x,1/2-y,-z
1/2-x,y,-z
1/2-x,1/2-y,-z
1/2+x,y,-z
1/2-x,1/2+y,z
1/2+x,-y,z
loop_
_atom_site_type_symbol
_atom_site_label
_atom_site_fract_x
_atom_site_fract_y
_atom_site_fract_z
Si Si1 0.416125 0.650403 0.441613
Si Si2 0.346790 0.344524 0.377769
Si Si3 0.920604 0.848820 0.206661
Si Si4 0.350028 0.844032 0.964207
Si Si5 0.708101 0.912679 0.327736
Si Si6 0.782692 0.909160 0.876682
O O1 0.500000 0.628651 0.432334
O O2 0.403434 0.750000 0.428614
O O3 0.386255 0.616933 0.536521
O O4 0.370402 0.596487 0.370297
O O5 0.373798 0.250000 0.373990
O O6 0.371856 0.389397 0.285125
O O7 0.260700 0.348396 0.379581
O O8 0.907088 0.750000 0.199895
O O9 0.902990 0.886389 0.109038
O O10 0.000000 0.872017 0.233880
O O11 0.373447 0.750000 0.988666
O O12 0.274007 0.841568 0.912566
O O13 0.350024 0.898282 0.055756
O O14 0.696362 0.890090 0.224473
O O15 0.750000 0.000000 0.341702
O O16 0.750000 0.000000 0.889131
#
# Coordination Sequence:
#
# PCOD8278353 Si02
#       6
#    16  16  16  16  16  16
#     4  10  22  40  62  88 120 158 197 245 307 364
#     4  10  19  35  59  85 112 149 198 247 293 346
#     4   9  17  30  50  79 113 142 178 233 290 343
#     4  10  18  30  53  82 106 135 183 233 284 341
#     4  11  23  38  58  85 117 155 201 247 293 351
#     4  10  20  34  53  75 109 147 183 229 285 344
#
# _framework density 21.330677999999999
#
# number of rings (size 3 to 8) (size 9 to 14) (size 15 to 20)
#    0.000    2.000    1.667    3.500    0.000    6.667 
#    0.000    3.333    0.000    4.000    0.000    0.000 
#    0.000    0.000    0.000    0.000    0.000    0.000 
#
# Total GULP energy -594733.585545 kJ/mol
# GULP energy per Si atom -12390.283032 kJ/mol
# Density = 2.128213 g / cm^3
# Si number density = 21.330678 Si / 1000 Ang^3
#
#
#
# Elastic Constant Matrix: (Units=GPa)
#
#
# Indices 1 2 3 4 5 6 
#
# 1 118.1687 13.7672 74.2065 0.0000 0.0000 0.0000
# 2 13.7672 38.8739 36.0726 0.0000 0.0000 0.0000
# 3 74.2065 36.0726 185.4877 0.0000 0.0000 0.0000
# 4 0.0000 0.0000 0.0000 22.1633 0.0000 0.0000
# 5 0.0000 0.0000 0.0000 0.0000 32.2019 0.0000
# 6 0.0000 0.0000 0.0000 0.0000 0.0000 19.3229
#
#
#
# Elastic Compliance Matrix: (Units=1/GPa)
#
#
# Indices 1 2 3 4 5 6 
#
# 1 0.011304 0.000236 -0.004568 0.000000 0.000000 0.000000
# 2 0.000236 0.031393 -0.006199 0.000000 0.000000 0.000000
# 3 -0.004568 -0.006199 0.008424 0.000000 0.000000 0.000000
# 4 0.000000 0.000000 0.000000 0.045120 0.000000 0.000000
# 5 0.000000 0.000000 0.000000 0.000000 0.031054 0.000000
# 6 0.000000 0.000000 0.000000 0.000000 0.000000 0.051752
#
#
# Mechanical properties :
#
#
# Convention : Reuss Voigt Hill
#
# Bulk Modulus (GPa) = 33.26934 65.62477 49.44706
# Shear Modulus (GPa) = 23.79482 29.30323 26.54902
#
# Velocity S-wave (km/s) = 3.34356 3.71045 3.53177
# Velocity P-wave (km/s) = 5.52600 7.01347 6.31370
#
# Compressibility (1/GPa) = 0.03005770
#
# Stress axis : x y z
#
# Youngs Moduli (GPa) = 88.46769 31.85378 118.70438
#
# Poissons Ratio (x) = -0.00751 0.54223
# Poissons Ratio (y) = -0.02084 0.73591
# Poissons Ratio (z) = 0.40412 0.19748
#
# Static dielectric constant tensor:
#      x y z
#    x 3.728330 0.000000 0.000000 
#    y 0.000000 3.502060 0.000000 
#    z 0.000000 0.000000 4.246960 
# 
# 
# High freq. dielectric constant tensor:
#      x y z
#    x 1.810820 0.000000 0.000000 
#    y 0.000000 1.805940 0.000000 
#    z 0.000000 0.000000 1.854480 
# 
# From -- ./inp_files/29283.got.cif
#   From: 2010.03.12/outbox.cif.g09.slc.cpg/sg67_15_cif.got.tgz:29283.got - 2010.04.10 22:41:39.
