data_PCOD8278446
_publ_section_title
;
Structure prediction by ZEFSAII (Michael W. Deem and Ramdas Pophale) SiO2 
 PCOD8278446
Probable space group: C M M A
;
_chemical_formula_sum "Si O2"
_cell_formula_units_Z 96
_cell_length_a 17.316872
_cell_length_b 18.195486
_cell_length_c 18.018922
_cell_angle_alpha 90.000000
_cell_angle_beta 90.000000
_cell_angle_gamma 90.000000
_cell_volume 5677.562349
_symmetry_space_group_name_H-M "C M M A"
_symmetry_group_IT_number 67
_symmetry_cell_setting 'orthorhombic'
loop_
_space_group_symop_operation_xyz
x,y,z
-x,1/2-y,z
x,-y,-z
-x,1/2+y,-z
-x,-y,-z
x,1/2+y,-z
-x,y,z
x,1/2-y,z
1/2+x,1/2+y,z
1/2-x,-y,z
1/2+x,1/2-y,-z
1/2-x,y,-z
1/2-x,1/2-y,-z
1/2+x,y,-z
1/2-x,1/2+y,z
1/2+x,-y,z
loop_
_atom_site_type_symbol
_atom_site_label
_atom_site_fract_x
_atom_site_fract_y
_atom_site_fract_z
Si Si1 0.690521 0.830932 0.567575
Si Si2 0.186913 0.938028 0.825443
Si Si3 0.706217 0.925149 0.343224
Si Si4 0.214650 0.335541 0.919036
Si Si5 0.415142 0.418721 0.529044
Si Si6 0.409780 0.537075 0.921732
O O1 0.664568 0.750000 0.588878
O O2 0.750000 0.834133 0.500000
O O3 0.728755 0.863667 0.641960
O O4 0.614596 0.872824 0.541239
O O5 0.172740 0.920466 0.739337
O O6 0.217339 0.863558 0.864167
O O7 0.250000 0.000000 0.837144
O O8 0.109816 0.973644 0.860958
O O9 0.635067 0.911688 0.397342
O O10 0.750000 0.000000 0.361793
O O11 0.193943 0.250000 0.900823
O O12 0.138513 0.387101 0.911367
O O13 0.250000 0.342531 0.000000
O O14 0.417098 0.500000 0.500000
O O15 0.500000 0.389966 0.550147
O O16 0.500000 0.557391 0.914874
O O17 0.389254 0.500000 0.000000
#
# Coordination Sequence:
#
# PCOD8278446 Si02
#       6
#    16  16  16  16  16  16
#     4   9  18  31  50  73  97 130 170 210 250 302
#     4   9  19  32  52  77 103 135 176 220 259 308
#     4  10  18  32  52  76 100 134 172 214 260 305
#     4  10  19  33  54  77 104 140 181 221 260 308
#     4  10  19  31  51  75 103 136 171 213 259 308
#     4  10  19  33  54  78 107 140 174 217 266 314
#
# _framework density 16.908664999999999
#
# number of rings (size 3 to 8) (size 9 to 14) (size 15 to 20)
#    0.000    2.333    3.333    0.000    0.000    2.000 
#    0.000    0.000    0.000    0.500    0.000    4.667 
#    0.000    0.000    0.000    0.000    0.000    0.000 
#
# Total GULP energy -594925.683709 kJ/mol
# GULP energy per Si atom -12394.285077 kJ/mol
# Density = 1.687018 g / cm^3
# Si number density = 16.908665 Si / 1000 Ang^3
#
#
#
# Elastic Constant Matrix: (Units=GPa)
#
#
# Indices 1 2 3 4 5 6 
#
# 1 100.9599 54.8994 40.7541 0.0000 0.0000 0.0000
# 2 54.8994 116.6031 38.8482 0.0000 0.0000 0.0000
# 3 40.7541 38.8482 96.4950 0.0000 0.0000 0.0000
# 4 0.0000 0.0000 0.0000 4.0382 0.0000 0.0000
# 5 0.0000 0.0000 0.0000 0.0000 20.9350 0.0000
# 6 0.0000 0.0000 0.0000 0.0000 0.0000 36.2143
#
#
#
# Elastic Compliance Matrix: (Units=1/GPa)
#
#
# Indices 1 2 3 4 5 6 
#
# 1 0.014478 -0.005520 -0.003892 0.000000 0.000000 0.000000
# 2 -0.005520 0.012009 -0.002504 0.000000 0.000000 0.000000
# 3 -0.003892 -0.002504 0.013015 0.000000 0.000000 0.000000
# 4 0.000000 0.000000 0.000000 0.247633 0.000000 0.000000
# 5 0.000000 0.000000 0.000000 0.000000 0.047767 0.000000
# 6 0.000000 0.000000 0.000000 0.000000 0.000000 0.027613
#
#
# Mechanical properties :
#
#
# Convention : Reuss Voigt Hill
#
# Bulk Modulus (GPa) = 63.81389 64.78460 64.29924
# Shear Modulus (GPa) = 12.76914 24.20793 18.48853
#
# Velocity S-wave (km/s) = 2.75104 3.78787 3.31030
# Velocity P-wave (km/s) = 6.92194 7.58474 7.26090
#
# Compressibility (1/GPa) = 0.01567057
#
# Stress axis : x y z
#
# Youngs Moduli (GPa) = 69.07250 83.27132 76.83406
#
# Poissons Ratio (x) = 0.45962 0.29907
# Poissons Ratio (y) = 0.38125 0.19236
# Poissons Ratio (z) = 0.26886 0.20847
#
# Static dielectric constant tensor:
#      x y z
#    x 3.306210 0.000000 0.000000 
#    y 0.000000 3.289790 0.000000 
#    z 0.000000 0.000000 3.238930 
# 
# 
# High freq. dielectric constant tensor:
#      x y z
#    x 1.640100 0.000000 0.000000 
#    y 0.000000 1.652080 0.000000 
#    z 0.000000 0.000000 1.646160 
# 
# From -- ./inp_files/34198.got.cif
#   From: 2010.03.12/outbox.cif.g09.slc.cpg/sg67_18_cif.got.tgz:34198.got - 2010.04.10 22:41:39.
