data_PCOD8278714
_publ_section_title
;
Structure prediction by ZEFSAII (Michael W. Deem and Ramdas Pophale) SiO2 
 PCOD8278714
Probable space group: C M M A
;
_chemical_formula_sum "Si O2"
_cell_formula_units_Z 80
_cell_length_a 15.175784
_cell_length_b 20.031042
_cell_length_c 14.282416
_cell_angle_alpha 90.000000
_cell_angle_beta 90.000000
_cell_angle_gamma 90.000000
_cell_volume 4341.665460
_symmetry_space_group_name_H-M "C M M A"
_symmetry_group_IT_number 67
_symmetry_cell_setting 'orthorhombic'
loop_
_space_group_symop_operation_xyz
x,y,z
-x,1/2-y,z
x,-y,-z
-x,1/2+y,-z
-x,-y,-z
x,1/2+y,-z
-x,y,z
x,1/2-y,z
1/2+x,1/2+y,z
1/2-x,-y,z
1/2+x,1/2-y,-z
1/2-x,y,-z
1/2-x,1/2-y,-z
1/2+x,y,-z
1/2-x,1/2+y,z
1/2+x,-y,z
loop_
_atom_site_type_symbol
_atom_site_label
_atom_site_fract_x
_atom_site_fract_y
_atom_site_fract_z
Si Si1 0.754455 0.079149 0.395022
Si Si2 0.100780 0.937935 0.751145
Si Si3 0.151825 0.930895 0.961506
Si Si4 0.100112 0.677066 0.095530
Si Si5 0.900572 0.904554 0.270548
O O1 0.750000 0.108357 0.500000
O O2 0.842179 0.096039 0.333171
O O3 0.667100 0.112785 0.352553
O O4 0.750000 0.000000 0.397639
O O5 0.146443 0.921901 0.850179
O O6 0.000000 0.910946 0.745380
O O7 0.101021 0.017121 0.746600
O O8 0.250000 0.929907 0.000000
O O9 0.104514 0.865138 0.000472
O O10 0.106918 0.000000 0.000000
O O11 0.147460 0.750000 0.086155
O O12 0.139202 0.633187 0.180199
O O13 0.000000 0.690476 0.120262
O O14 0.000000 0.881762 0.297237
#
# Coordination Sequence:
#
# PCOD8278714 Si02
#       5
#    16  16  16  16  16
#     4   9  18  31  48  71 101 131 164 214 269 315
#     4  10  19  30  49  75 103 135 174 213 258 312
#     4  11  21  31  51  75 103 141 177 214 255 306
#     4  10  20  33  49  72 103 136 171 213 258 306
#     4   9  17  30  49  71  97 132 171 211 259 310
#
# _framework density 18.426107999999999
#
# number of rings (size 3 to 8) (size 9 to 14) (size 15 to 20)
#    0.000    2.200    2.000    1.800    5.600    2.000 
#    0.000    4.000    0.000    0.600    0.000    0.000 
#    0.000    3.200    0.000    0.000    0.000    0.000 
#
# Total GULP energy -495549.051384 kJ/mol
# GULP energy per Si atom -12388.726285 kJ/mol
# Density = 1.838417 g / cm^3
# Si number density = 18.426108 Si / 1000 Ang^3
#
#
#
# Elastic Constant Matrix: (Units=GPa)
#
#
# Indices 1 2 3 4 5 6 
#
# 1 112.1089 17.9032 69.4679 0.0000 0.0000 0.0000
# 2 17.9032 55.0667 20.5077 0.0000 0.0000 0.0000
# 3 69.4679 20.5077 161.4495 0.0000 0.0000 0.0000
# 4 0.0000 0.0000 0.0000 6.0625 0.0000 0.0000
# 5 0.0000 0.0000 0.0000 0.0000 26.2496 0.0000
# 6 0.0000 0.0000 0.0000 0.0000 0.0000 10.4845
#
#
#
# Elastic Compliance Matrix: (Units=1/GPa)
#
#
# Indices 1 2 3 4 5 6 
#
# 1 0.012400 -0.002146 -0.005063 0.000000 0.000000 0.000000
# 2 -0.002146 0.019433 -0.001545 0.000000 0.000000 0.000000
# 3 -0.005063 -0.001545 0.008569 0.000000 0.000000 0.000000
# 4 0.000000 0.000000 0.000000 0.164949 0.000000 0.000000
# 5 0.000000 0.000000 0.000000 0.000000 0.038096 0.000000
# 6 0.000000 0.000000 0.000000 0.000000 0.000000 0.095379
#
#
# Mechanical properties :
#
#
# Convention : Reuss Voigt Hill
#
# Bulk Modulus (GPa) = 43.68021 60.48697 52.08359
# Shear Modulus (GPa) = 13.73765 23.27573 18.50669
#
# Velocity S-wave (km/s) = 2.73344 3.55800 3.17262
# Velocity P-wave (km/s) = 5.80684 7.05529 6.46129
#
# Compressibility (1/GPa) = 0.02289366
#
# Stress axis : x y z
#
# Youngs Moduli (GPa) = 80.64728 51.45912 116.70646
#
# Poissons Ratio (x) = 0.11043 0.59085
# Poissons Ratio (y) = 0.17306 0.18032
# Poissons Ratio (z) = 0.40829 0.07951
#
# Static dielectric constant tensor:
#      x y z
#    x 3.615160 0.000000 0.000000 
#    y 0.000000 3.395720 0.000000 
#    z 0.000000 0.000000 3.593110 
# 
# 
# High freq. dielectric constant tensor:
#      x y z
#    x 1.716360 0.000000 0.000000 
#    y 0.000000 1.667070 0.000000 
#    z 0.000000 0.000000 1.712150 
# 
# From -- ./inp_files/26946.got.cif
#   From: 2010.03.12/outbox.cif.g09.slc.cpg/sg67_14_cif.got.tgz:26946.got - 2010.04.10 22:41:39.
