data_PCOD8278126
_publ_section_title
;
Structure prediction by ZEFSAII (Michael W. Deem and Ramdas Pophale) SiO2 
 PCOD8278126
Probable space group: C M M A
;
_chemical_formula_sum "Si O2"
_cell_formula_units_Z 120
_cell_length_a 18.865120
_cell_length_b 24.014087
_cell_length_c 15.249155
_cell_angle_alpha 90.000000
_cell_angle_beta 90.000000
_cell_angle_gamma 90.000000
_cell_volume 6908.303843
_symmetry_space_group_name_H-M "C M M A"
_symmetry_group_IT_number 67
_symmetry_cell_setting 'orthorhombic'
loop_
_space_group_symop_operation_xyz
x,y,z
-x,1/2-y,z
x,-y,-z
-x,1/2+y,-z
-x,-y,-z
x,1/2+y,-z
-x,y,z
x,1/2-y,z
1/2+x,1/2+y,z
1/2-x,-y,z
1/2+x,1/2-y,-z
1/2-x,y,-z
1/2-x,1/2-y,-z
1/2+x,y,-z
1/2-x,1/2+y,z
1/2+x,-y,z
loop_
_atom_site_type_symbol
_atom_site_label
_atom_site_fract_x
_atom_site_fract_y
_atom_site_fract_z
Si Si1 0.275757 0.686202 0.901277
Si Si2 0.081009 0.932625 0.682423
Si Si3 0.420041 0.365983 0.155678
Si Si4 0.250000 0.500000 0.782692
Si Si5 0.079520 0.439095 0.008749
Si Si6 0.871194 0.442907 0.692106
Si Si7 0.169437 0.599278 0.840388
Si Si8 0.921891 0.065226 0.508974
O O1 0.258177 0.750000 0.880079
O O2 0.359177 0.676694 0.878487
O O3 0.228646 0.647223 0.838483
O O4 0.250000 0.671849 0.000000
O O5 0.124615 0.895665 0.751274
O O6 0.109534 0.915128 0.585196
O O7 0.000000 0.915016 0.691245
O O8 0.085795 0.999057 0.700759
O O9 0.500000 0.338572 0.157485
O O10 0.419572 0.416603 0.088854
O O11 0.403779 0.393213 0.249808
O O12 0.208921 0.456324 0.720309
O O13 0.201902 0.537256 0.845451
O O14 0.000000 0.443888 0.046854
O O15 0.114383 0.500000 0.000000
O O16 0.121214 0.397132 0.072914
O O17 0.871720 0.420255 0.591664
O O18 0.000000 0.091485 0.525786
O O19 0.931351 0.000000 0.500000
#
# Coordination Sequence:
#
# PCOD8278126 Si02
#       8
#    16  16  16   8  16  16  16  16
#     4  11  24  42  58  73  99 139 178 217 269 319
#     4   9  17  29  49  76 108 144 177 209 250 310
#     4  11  21  35  55  77 100 132 177 221 260 306
#     4  10  20  28  48  76 108 142 176 208 252 316
#     4  10  20  31  48  77 109 138 168 205 255 311
#     4  10  17  29  46  75 111 145 176 211 257 305
#     4  11  20  34  51  74 104 139 171 210 261 310
#     4   8  14  26  44  68 103 146 178 204 247 301
#
# _framework density 17.3704
#
# number of rings (size 3 to 8) (size 9 to 14) (size 15 to 20)
#    0.000    2.000    2.667    4.000    0.000    1.333 
#    0.000    8.333    0.000    1.600    0.000    1.867 
#    0.000    1.067    0.000    0.000    0.000    0.000 
#
# Total GULP energy -743437.782386 kJ/mol
# GULP energy per Si atom -12390.629706 kJ/mol
# Density = 1.733086 g / cm^3
# Si number density = 17.370400 Si / 1000 Ang^3
#
#
#
# Elastic Constant Matrix: (Units=GPa)
#
#
# Indices 1 2 3 4 5 6 
#
# 1 86.3134 25.3989 38.3043 0.0000 0.0000 0.0000
# 2 25.3989 49.5647 25.2036 0.0000 0.0000 0.0000
# 3 38.3043 25.2036 109.4300 0.0000 0.0000 0.0000
# 4 0.0000 0.0000 0.0000 11.0424 0.0000 0.0000
# 5 0.0000 0.0000 0.0000 0.0000 21.9985 0.0000
# 6 0.0000 0.0000 0.0000 0.0000 0.0000 15.1029
#
#
#
# Elastic Compliance Matrix: (Units=1/GPa)
#
#
# Indices 1 2 3 4 5 6 
#
# 1 0.015009 -0.005686 -0.003944 0.000000 0.000000 0.000000
# 2 -0.005686 0.025006 -0.003769 0.000000 0.000000 0.000000
# 3 -0.003944 -0.003769 0.011387 0.000000 0.000000 0.000000
# 4 0.000000 0.000000 0.000000 0.090560 0.000000 0.000000
# 5 0.000000 0.000000 0.000000 0.000000 0.045458 0.000000
# 6 0.000000 0.000000 0.000000 0.000000 0.000000 0.066212
#
#
# Mechanical properties :
#
#
# Convention : Reuss Voigt Hill
#
# Bulk Modulus (GPa) = 40.64382 47.01350 43.82866
# Shear Modulus (GPa) = 17.32317 20.05553 18.68935
#
# Velocity S-wave (km/s) = 3.16140 3.40160 3.28370
# Velocity P-wave (km/s) = 6.06424 6.52318 6.29789
#
# Compressibility (1/GPa) = 0.02460399
#
# Stress axis : x y z
#
# Youngs Moduli (GPa) = 66.62607 39.99077 87.81974
#
# Poissons Ratio (x) = 0.22737 0.34638
# Poissons Ratio (y) = 0.37881 0.33100
# Poissons Ratio (z) = 0.26279 0.15073
#
# Static dielectric constant tensor:
#      x y z
#    x 3.445200 0.000000 0.000000 
#    y 0.000000 2.692920 0.000000 
#    z 0.000000 0.000000 3.518880 
# 
# 
# High freq. dielectric constant tensor:
#      x y z
#    x 1.677850 0.000000 0.000000 
#    y 0.000000 1.604680 0.000000 
#    z 0.000000 0.000000 1.678440 
# 
# From -- ./inp_files/29669.got.cif
#   From: 2010.03.12/outbox.cif.g09.slc.cpg/sg67_15_cif.got.tgz:29669.got - 2010.04.10 22:41:39.
