data_PCOD8278588
_publ_section_title
;
Structure prediction by ZEFSAII (Michael W. Deem and Ramdas Pophale) SiO2 
 PCOD8278588
Probable space group: C M M A
;
_chemical_formula_sum "Si O2"
_cell_formula_units_Z 88
_cell_length_a 33.686129
_cell_length_b 10.220764
_cell_length_c 15.845020
_cell_angle_alpha 90.000000
_cell_angle_beta 90.000000
_cell_angle_gamma 90.000000
_cell_volume 5455.408293
_symmetry_space_group_name_H-M "C M M A"
_symmetry_group_IT_number 67
_symmetry_cell_setting 'orthorhombic'
loop_
_space_group_symop_operation_xyz
x,y,z
-x,1/2-y,z
x,-y,-z
-x,1/2+y,-z
-x,-y,-z
x,1/2+y,-z
-x,y,z
x,1/2-y,z
1/2+x,1/2+y,z
1/2-x,-y,z
1/2+x,1/2-y,-z
1/2-x,y,-z
1/2-x,1/2-y,-z
1/2+x,y,-z
1/2-x,1/2+y,z
1/2+x,-y,z
loop_
_atom_site_type_symbol
_atom_site_label
_atom_site_fract_x
_atom_site_fract_y
_atom_site_fract_z
Si Si1 0.790951 0.750000 0.613834
Si Si2 0.158702 0.010203 0.350318
Si Si3 0.542477 0.603993 0.614241
Si Si4 0.954641 0.400663 0.924724
Si Si5 0.905046 0.404848 0.761904
Si Si6 0.700446 0.750000 0.586258
Si Si7 0.896620 0.500000 0.500000
O O1 0.808474 0.622500 0.661157
O O2 0.743958 0.750000 0.627022
O O3 0.799740 0.750000 0.514630
O O4 0.135973 0.981462 0.261468
O O5 0.177999 0.877257 0.382612
O O6 0.129225 0.060612 0.424244
O O7 0.500000 0.533757 0.593879
O O8 0.532870 0.750000 0.640595
O O9 0.562792 0.538493 0.695797
O O10 0.573252 0.608749 0.536428
O O11 0.948763 0.250000 0.954218
O O12 0.922098 0.437239 0.853999
O O13 0.000000 0.419162 0.891571
O O14 0.945743 0.500000 0.000000
O O15 0.897489 0.250000 0.750798
#
# Coordination Sequence:
#
# PCOD8278588 Si02
#       7
#     8  16  16  16  16   8   8
#     4  11  22  32  50  72  97 126 163 205 250 291
#     4  11  20  32  49  69  96 125 164 200 242 289
#     4   9  17  27  41  60  83 118 165 204 232 270
#     4   9  17  31  52  76 102 131 164 200 241 290
#     4   9  17  30  49  69  94 129 162 198 236 289
#     4  11  20  36  50  68  95 132 165 199 242 305
#     4  10  19  26  43  58  88 120 158 202 237 270
#
# _framework density 16.130782
#
# number of rings (size 3 to 8) (size 9 to 14) (size 15 to 20)
#    0.000    2.182    2.727    1.364    2.545    3.636 
#    1.636    0.000    0.000    0.000    0.000    0.000 
#    0.000    4.364    0.000    0.000    0.000    0.000 
#
# Total GULP energy -545077.346680 kJ/mol
# GULP energy per Si atom -12388.121515 kJ/mol
# Density = 1.609407 g / cm^3
# Si number density = 16.130782 Si / 1000 Ang^3
#
#
#
# Elastic Constant Matrix: (Units=GPa)
#
#
# Indices 1 2 3 4 5 6 
#
# 1 100.8067 35.8505 45.0057 0.0000 0.0000 0.0000
# 2 35.8505 70.4346 35.2097 0.0000 0.0000 0.0000
# 3 45.0057 35.2097 81.5099 0.0000 0.0000 0.0000
# 4 0.0000 0.0000 0.0000 20.6190 0.0000 0.0000
# 5 0.0000 0.0000 0.0000 0.0000 25.6569 0.0000
# 6 0.0000 0.0000 0.0000 0.0000 0.0000 -23.0692
#
#
#
# Elastic Compliance Matrix: (Units=1/GPa)
#
#
# Indices 1 2 3 4 5 6 
#
# 1 0.014068 -0.004180 -0.005962 0.000000 0.000000 0.000000
# 2 -0.004180 0.019350 -0.006050 0.000000 0.000000 0.000000
# 3 -0.005962 -0.006050 0.018174 0.000000 0.000000 0.000000
# 4 0.000000 0.000000 0.000000 0.048499 0.000000 0.000000
# 5 0.000000 0.000000 0.000000 0.000000 0.038976 0.000000
# 6 0.000000 0.000000 0.000000 0.000000 0.000000 -0.043348
#
#
# Mechanical properties :
#
#
# Convention : Reuss Voigt Hill
#
# Bulk Modulus (GPa) = 52.06518 53.87591 52.97055
# Shear Modulus (GPa) = 37.17276 13.75370 25.46323
#
# Velocity S-wave (km/s) = 4.80569 2.92316 3.97741
# Velocity P-wave (km/s) = 7.94606 6.69814 7.34864
#
# Compressibility (1/GPa) = 0.01920670
#
# Stress axis : x y z
#
# Youngs Moduli (GPa) = 71.08092 51.68005 55.02359
#
# Poissons Ratio (x) = 0.21604 0.32806
# Poissons Ratio (y) = 0.29714 0.33291
# Poissons Ratio (z) = 0.42380 0.31268
#
# Static dielectric constant tensor:
#      x y z
#    x 3.375750 0.000000 0.000000 
#    y 0.000000 2.946410 0.000000 
#    z 0.000000 0.000000 2.798200 
# 
# 
# High freq. dielectric constant tensor:
#      x y z
#    x 1.629440 0.000000 0.000000 
#    y 0.000000 1.604500 0.000000 
#    z 0.000000 0.000000 1.580780 
# 
# From -- ./inp_files/31080.got.cif
#   From: 2010.03.12/outbox.cif.g09.slc.cpg/sg67_16_cif.got.tgz:31080.got - 2010.04.10 22:41:39.
